0:0
     RDKit          3D

 44 47  0  0  0  0  0  0  0  0999 V2000
   58.4560   32.6720   49.5670 O   0  0  0  0  0  0  0  0  0  0  0  0
   59.0120   31.5480   49.4440 C   0  0  0  0  0  0  0  0  0  0  0  0
   60.0170   31.3390   48.3450 C   0  0  0  0  0  0  0  0  0  0  0  0
   59.3860   31.5340   47.0240 N   0  0  0  0  0  0  0  0  0  0  0  0
   58.9540   30.4370   46.3050 C   0  0  0  0  0  0  0  0  0  0  0  0
   59.1650   29.2750   46.7550 O   0  0  0  0  0  0  0  0  0  0  0  0
   58.2740   30.5930   45.1100 N   0  0  0  0  0  0  0  0  0  0  0  0
   57.7020   29.4220   44.4170 C   0  0  0  0  0  0  0  0  0  0  0  0
   56.2940   29.1530   44.8750 C   0  0  0  0  0  0  0  0  0  0  0  0
   55.4270   30.0640   44.7910 O   0  0  0  0  0  0  0  0  0  0  0  0
   55.8970   27.8460   45.3020 N   0  0  0  0  0  0  0  0  0  0  0  0
   56.8140   26.8000   45.6480 C   0  0  0  0  0  0  0  0  0  0  0  0
   56.8980   25.6230   44.8840 C   0  0  0  0  0  0  0  0  0  0  0  0
   57.7650   24.5950   45.2710 C   0  0  0  0  0  0  0  0  0  0  0  0
   58.5620   24.7440   46.4100 C   0  0  0  0  0  0  0  0  0  0  0  0
   58.5060   25.9260   47.1540 C   0  0  0  0  0  0  0  0  0  0  0  0
   59.2820   26.0710   48.2560 F   0  0  0  0  0  0  0  0  0  0  0  0
   57.6400   26.9560   46.7680 C   0  0  0  0  0  0  0  0  0  0  0  0
   58.0700   31.8490   44.5950 C   0  0  0  0  0  0  0  0  0  0  0  0
   57.4430   32.0180   43.5130 O   0  0  0  0  0  0  0  0  0  0  0  0
   58.5560   32.9420   45.2890 C   0  0  0  0  0  0  0  0  0  0  0  0
   58.4640   34.5710   44.8890 S   0  0  0  0  0  0  0  0  0  0  0  0
   59.2870   35.1060   46.2620 C   0  0  0  0  0  0  0  0  0  0  0  0
   59.6360   34.0070   47.0430 C   0  0  0  0  0  0  0  0  0  0  0  0
   59.2110   32.7830   46.4900 C   0  0  0  0  0  0  0  0  0  0  0  0
   58.7520   30.5340   50.4250 N   0  0  0  0  0  0  0  0  0  0  0  0
   57.7520   30.5030   51.2560 C   0  0  0  0  0  0  0  0  0  0  0  0
   56.7220   31.3830   51.2710 N   0  0  0  0  0  0  0  0  0  0  0  0
   55.8410   31.1190   52.2720 C   0  0  0  0  0  0  0  0  0  0  0  0
   56.1740   30.0280   53.0700 C   0  0  0  0  0  0  0  0  0  0  0  0
   57.6230   29.3850   52.5010 S   0  0  0  0  0  0  0  0  0  0  0  0
   60.8388   32.0605   48.4638 H   0  0  0  0  0  0  0  0  0  0  0  0
   60.4035   30.3110   48.4067 H   0  0  0  0  0  0  0  0  0  0  0  0
   57.6966   29.6134   43.3338 H   0  0  0  0  0  0  0  0  0  0  0  0
   58.3190   28.5422   44.6523 H   0  0  0  0  0  0  0  0  0  0  0  0
   56.2811   25.5099   43.9803 H   0  0  0  0  0  0  0  0  0  0  0  0
   57.8195   23.6695   44.6790 H   0  0  0  0  0  0  0  0  0  0  0  0
   59.2337   23.9303   46.7209 H   0  0  0  0  0  0  0  0  0  0  0  0
   57.6083   27.8911   47.3465 H   0  0  0  0  0  0  0  0  0  0  0  0
   59.5119   36.1557   46.5018 H   0  0  0  0  0  0  0  0  0  0  0  0
   60.1860   34.0864   47.9923 H   0  0  0  0  0  0  0  0  0  0  0  0
   56.6160   32.2030   50.6360 H   0  0  0  0  0  0  0  0  0  0  0  0
   54.9353   31.7207   52.4385 H   0  0  0  0  0  0  0  0  0  0  0  0
   55.5919   29.6513   53.9239 H   0  0  0  0  0  0  0  0  0  0  0  0
  1  2  2  0
  2  3  1  0
  3  4  1  0
  4  5  1  0
  5  6  2  0
  5  7  1  0
  7  8  1  0
  8  9  1  0
  9 10  2  0
  9 11  1  0
 11 12  1  0
 12 13  2  0
 13 14  1  0
 14 15  2  0
 15 16  1  0
 16 17  1  0
 16 18  2  0
  7 19  1  0
 19 20  2  0
 19 21  1  0
 21 22  1  0
 22 23  1  0
 23 24  2  0
 24 25  1  0
  2 26  1  0
 26 27  2  3
 27 28  1  0
 28 29  1  0
 29 30  2  0
 30 31  1  0
 25  4  1  0
 31 27  1  0
 18 12  1  0
 25 21  2  0
  3 32  1  0
  3 33  1  0
  8 34  1  0
  8 35  1  0
 13 36  1  0
 14 37  1  0
 15 38  1  0
 18 39  1  0
 23 40  1  0
 24 41  1  0
 28 42  1  0
 29 43  1  0
 30 44  1  0
M  CHG  1  11  -1
M  END
>  <UniqueID>  (1) 
1

>  <SMILES>  (1) 
O=C(Cn1c(=O)n(CC(=O)[N-]c2cccc(F)c2)c(=O)c2sccc21)N=c1[nH]ccs1

>  <Energy>  (1) 
129.2790144369783

>  <Genealogy>  (1) 
O=C(Cn1c(=O)n(CC(=O)[N-]c2cccc(F)c2)c(=O)c2sccc21)N=c1[nH]ccs1 (protonated)
O=C(Cn1c(=O)n(CC(=O)[N-]c2cccc(F)c2)c(=O)c2sccc21)N=c1[nH]ccs1 (3D coordinates assigned)
O=C(Cn1c(=O)n(CC(=O)[N-]c2cccc(F)c2)c(=O)c2sccc21)N=c1[nH]ccs1 (optimized conformer: 129.2790144369783 kcal/mol)

>  <smiles>  (1) 
O=C(Cn1c(=O)n(CC(=O)Nc2cccc(F)c2)c(=O)c2sccc21)N=c1[nH]ccs1

>  <score_type>  (1) 
oracle

>  <origin>  (1) 
adg

>  <m_score__min__energy>  (1) 
-10.41

>  <m_primary>  (1) 
energy

$$$$
1:0
     RDKit          3D

 43 45  0  0  0  0  0  0  0  0999 V2000
   55.4340   31.3610   52.0730 N   0  0  0  0  0  0  0  0  0  0  0  0
   57.0350   31.9510   52.3500 S   0  0  0  0  0  0  0  0  0  0  0  0
   57.5010   31.4650   53.6950 O   0  0  0  0  0  0  0  0  0  0  0  0
   57.0250   33.4520   52.3400 O   0  0  0  0  0  0  0  0  0  0  0  0
   58.1160   31.3640   51.0920 C   0  0  0  0  0  0  0  0  0  0  0  0
   58.8700   32.2710   50.3350 C   0  0  0  0  0  0  0  0  0  0  0  0
   59.7360   31.8090   49.3390 C   0  0  0  0  0  0  0  0  0  0  0  0
   59.8450   30.4360   49.0790 C   0  0  0  0  0  0  0  0  0  0  0  0
   60.8070   29.9630   48.0640 C   0  0  0  0  0  0  0  0  0  0  0  0
   60.6460   28.8850   47.2800 C   0  0  0  0  0  0  0  0  0  0  0  0
   60.5840   27.4730   47.7390 C   0  0  0  0  0  0  0  0  0  0  0  0
   61.1480   27.1150   48.8050 O   0  0  0  0  0  0  0  0  0  0  0  0
   59.9030   26.4770   46.9650 N   0  0  0  0  0  0  0  0  0  0  0  0
   58.4950   26.4300   46.6940 C   0  0  0  0  0  0  0  0  0  0  0  0
   57.7400   25.2700   46.9330 C   0  0  0  0  0  0  0  0  0  0  0  0
   56.3750   25.2480   46.6380 C   0  0  0  0  0  0  0  0  0  0  0  0
   55.7560   26.3690   46.0770 C   0  0  0  0  0  0  0  0  0  0  0  0
   54.3860   26.3400   45.8450 O   0  0  0  0  0  0  0  0  0  0  0  0
   56.5190   27.5150   45.7730 C   0  0  0  0  0  0  0  0  0  0  0  0
   55.9350   28.6840   45.1820 N   0  0  0  0  0  0  0  0  0  0  0  0
   56.5860   29.5950   44.2860 C   0  0  0  0  0  0  0  0  0  0  0  0
   56.4230   29.4440   43.0460 O   0  0  0  0  0  0  0  0  0  0  0  0
   57.3930   30.7300   44.7700 C   0  0  0  0  0  0  0  0  0  0  0  0
   58.1360   30.7850   45.9460 C   0  0  0  0  0  0  0  0  0  0  0  0
   58.7700   32.0190   46.1430 C   0  0  0  0  0  0  0  0  0  0  0  0
   58.5210   32.9420   45.1360 C   0  0  0  0  0  0  0  0  0  0  0  0
   57.5120   32.2220   44.0020 S   0  0  0  0  0  0  0  0  0  0  0  0
   57.8800   27.5400   46.1030 C   0  0  0  0  0  0  0  0  0  0  0  0
   59.1190   29.5250   49.8650 C   0  0  0  0  0  0  0  0  0  0  0  0
   58.2520   29.9880   50.8590 C   0  0  0  0  0  0  0  0  0  0  0  0
   55.1970   31.5800   51.0800 H   0  0  0  0  0  0  0  0  0  0  0  0
   58.7802   33.3507   50.5251 H   0  0  0  0  0  0  0  0  0  0  0  0
   60.3340   32.5259   48.7573 H   0  0  0  0  0  0  0  0  0  0  0  0
   61.7337   30.5425   47.9396 H   0  0  0  0  0  0  0  0  0  0  0  0
   60.5513   29.0634   46.1987 H   0  0  0  0  0  0  0  0  0  0  0  0
   58.2249   24.3767   47.3535 H   0  0  0  0  0  0  0  0  0  0  0  0
   55.7841   24.3443   46.8481 H   0  0  0  0  0  0  0  0  0  0  0  0
   58.2173   29.9438   46.6502 H   0  0  0  0  0  0  0  0  0  0  0  0
   59.4056   32.2362   47.0141 H   0  0  0  0  0  0  0  0  0  0  0  0
   58.9161   33.9675   45.0889 H   0  0  0  0  0  0  0  0  0  0  0  0
   58.4729   28.4430   45.8952 H   0  0  0  0  0  0  0  0  0  0  0  0
   59.2333   28.4439   49.6975 H   0  0  0  0  0  0  0  0  0  0  0  0
   57.6745   29.2705   51.4604 H   0  0  0  0  0  0  0  0  0  0  0  0
  1  2  1  0
  2  3  2  0
  2  4  2  0
  2  5  1  0
  5  6  2  0
  6  7  1  0
  7  8  2  0
  8  9  1  0
  9 10  2  3
 10 11  1  0
 11 12  2  0
 11 13  1  0
 13 14  1  0
 14 15  2  0
 15 16  1  0
 16 17  2  0
 17 18  1  0
 17 19  1  0
 19 20  1  0
 20 21  1  0
 21 22  2  0
 21 23  1  0
 23 24  2  0
 24 25  1  0
 25 26  2  0
 26 27  1  0
 19 28  2  0
  8 29  1  0
 29 30  2  0
 30  5  1  0
 28 14  1  0
 27 23  1  0
  1 31  1  0
  6 32  1  0
  7 33  1  0
  9 34  1  0
 10 35  1  0
 15 36  1  0
 16 37  1  0
 24 38  1  0
 25 39  1  0
 26 40  1  0
 28 41  1  0
 29 42  1  0
 30 43  1  0
M  CHG  4   1  -1  13  -1  18  -1  20  -1
M  END
>  <UniqueID>  (2) 
2

>  <SMILES>  (2) 
[NH-]S(=O)(=O)c1ccc(C=CC(=O)[N-]c2ccc([O-])c([N-]C(=O)c3cccs3)c2)cc1

>  <Energy>  (2) 
91.87075530032857

>  <Genealogy>  (2) 
[NH-]S(=O)(=O)c1ccc(C=CC(=O)[N-]c2ccc([O-])c([N-]C(=O)c3cccs3)c2)cc1 (protonated)
[NH-]S(=O)(=O)c1ccc(C=CC(=O)[N-]c2ccc([O-])c([N-]C(=O)c3cccs3)c2)cc1 (3D coordinates assigned)
[NH-]S(=O)(=O)c1ccc(C=CC(=O)[N-]c2ccc([O-])c([N-]C(=O)c3cccs3)c2)cc1 (optimized conformer: 91.87075530032857 kcal/mol)

>  <smiles>  (2) 
NS(=O)(=O)c1ccc(C=CC(=O)Nc2ccc(O)c(NC(=O)c3cccs3)c2)cc1

>  <score_type>  (2) 
oracle

>  <origin>  (2) 
adg

>  <m_score__min__energy>  (2) 
-15.68

>  <m_primary>  (2) 
energy

$$$$
2:0
     RDKit          3D

 42 44  0  0  0  0  0  0  0  0999 V2000
   57.3750   23.1630   47.6870 O   0  0  0  0  0  0  0  0  0  0  0  0
   57.4260   24.1850   46.9530 C   0  0  0  0  0  0  0  0  0  0  0  0
   56.8950   24.0860   45.5420 C   0  0  0  0  0  0  0  0  0  0  0  0
   55.4120   23.7930   45.4900 C   0  0  0  0  0  0  0  0  0  0  0  0
   54.9540   22.4770   45.3350 C   0  0  0  0  0  0  0  0  0  0  0  0
   53.6230   22.2170   45.2880 N   0  0  0  0  0  0  0  0  0  0  0  0
   52.7120   23.2160   45.4040 C   0  0  0  0  0  0  0  0  0  0  0  0
   51.4830   22.9540   45.3540 O   0  0  0  0  0  0  0  0  0  0  0  0
   53.1270   24.4960   45.5780 N   0  0  0  0  0  0  0  0  0  0  0  0
   54.4480   24.8070   45.6310 C   0  0  0  0  0  0  0  0  0  0  0  0
   54.7940   26.0060   45.8070 O   0  0  0  0  0  0  0  0  0  0  0  0
   57.9480   25.4000   47.5120 N   0  0  0  0  0  0  0  0  0  0  0  0
   58.2650   26.6050   46.8040 C   0  0  0  0  0  0  0  0  0  0  0  0
   59.6050   26.9730   46.6560 C   0  0  0  0  0  0  0  0  0  0  0  0
   59.9410   28.1570   45.9960 C   0  0  0  0  0  0  0  0  0  0  0  0
   58.9380   28.9790   45.4740 C   0  0  0  0  0  0  0  0  0  0  0  0
   57.5860   28.6090   45.5860 C   0  0  0  0  0  0  0  0  0  0  0  0
   56.5170   29.5020   45.0860 C   0  0  0  0  0  0  0  0  0  0  0  0
   55.4570   29.0150   44.6030 O   0  0  0  0  0  0  0  0  0  0  0  0
   56.6950   30.9220   45.1180 N   0  0  0  0  0  0  0  0  0  0  0  0
   57.7490   31.6160   44.3870 C   0  0  0  0  0  0  0  0  0  0  0  0
   58.3020   32.7300   45.2320 C   0  0  0  0  0  0  0  0  0  0  0  0
   58.4970   32.5350   46.6100 C   0  0  0  0  0  0  0  0  0  0  0  0
   59.0600   33.5470   47.3910 C   0  0  0  0  0  0  0  0  0  0  0  0
   59.4340   34.7590   46.8050 C   0  0  0  0  0  0  0  0  0  0  0  0
   59.2470   34.9600   45.4340 C   0  0  0  0  0  0  0  0  0  0  0  0
   59.6160   36.1350   44.8660 F   0  0  0  0  0  0  0  0  0  0  0  0
   58.6870   33.9490   44.6480 C   0  0  0  0  0  0  0  0  0  0  0  0
   57.2610   27.4000   46.2270 C   0  0  0  0  0  0  0  0  0  0  0  0
   57.0823   25.0407   45.0288 H   0  0  0  0  0  0  0  0  0  0  0  0
   57.4141   23.2490   45.0521 H   0  0  0  0  0  0  0  0  0  0  0  0
   55.6766   21.6519   45.2511 H   0  0  0  0  0  0  0  0  0  0  0  0
   60.3983   26.3275   47.0610 H   0  0  0  0  0  0  0  0  0  0  0  0
   60.9974   28.4434   45.8866 H   0  0  0  0  0  0  0  0  0  0  0  0
   59.2078   29.9203   44.9729 H   0  0  0  0  0  0  0  0  0  0  0  0
   58.5540   30.9066   44.1446 H   0  0  0  0  0  0  0  0  0  0  0  0
   57.3337   32.0345   43.4584 H   0  0  0  0  0  0  0  0  0  0  0  0
   58.2052   31.5819   47.0753 H   0  0  0  0  0  0  0  0  0  0  0  0
   59.2092   33.3895   48.4694 H   0  0  0  0  0  0  0  0  0  0  0  0
   59.8756   35.5552   47.4223 H   0  0  0  0  0  0  0  0  0  0  0  0
   58.5471   34.1080   43.5686 H   0  0  0  0  0  0  0  0  0  0  0  0
   56.2115   27.0742   46.2769 H   0  0  0  0  0  0  0  0  0  0  0  0
  1  2  2  0
  2  3  1  0
  3  4  1  0
  4  5  2  0
  5  6  1  0
  6  7  1  0
  7  8  2  0
  7  9  1  0
  9 10  1  0
 10 11  2  0
  2 12  1  0
 12 13  1  0
 13 14  2  0
 14 15  1  0
 15 16  2  0
 16 17  1  0
 17 18  1  0
 18 19  2  0
 18 20  1  0
 20 21  1  0
 21 22  1  0
 22 23  2  0
 23 24  1  0
 24 25  2  0
 25 26  1  0
 26 27  1  0
 26 28  2  0
 17 29  2  0
 10  4  1  0
 29 13  1  0
 28 22  1  0
  3 30  1  0
  3 31  1  0
  5 32  1  0
 14 33  1  0
 15 34  1  0
 16 35  1  0
 21 36  1  0
 21 37  1  0
 23 38  1  0
 24 39  1  0
 25 40  1  0
 28 41  1  0
 29 42  1  0
M  CHG  4   6  -1   9  -1  12  -1  20  -1
M  END
>  <UniqueID>  (3) 
3

>  <SMILES>  (3) 
O=C(Cc1c[n-]c(=O)[n-]c1=O)[N-]c1cccc(C(=O)[N-]Cc2cccc(F)c2)c1

>  <Energy>  (3) 
47.700254926391345

>  <Genealogy>  (3) 
O=C(Cc1c[n-]c(=O)[n-]c1=O)[N-]c1cccc(C(=O)[N-]Cc2cccc(F)c2)c1 (protonated)
O=C(Cc1c[n-]c(=O)[n-]c1=O)[N-]c1cccc(C(=O)[N-]Cc2cccc(F)c2)c1 (3D coordinates assigned)
O=C(Cc1c[n-]c(=O)[n-]c1=O)[N-]c1cccc(C(=O)[N-]Cc2cccc(F)c2)c1 (optimized conformer: 47.700254926391345 kcal/mol)

>  <smiles>  (3) 
O=C(Cc1c[nH]c(=O)[nH]c1=O)Nc1cccc(C(=O)NCc2cccc(F)c2)c1

>  <score_type>  (3) 
oracle

>  <origin>  (3) 
adg

>  <m_score__min__energy>  (3) 
-15.81

>  <m_primary>  (3) 
energy

$$$$
3:0
     RDKit          3D

 38 40  0  0  0  0  0  0  0  0999 V2000
   57.8120   32.8120   45.6160 C   0  0  0  0  0  0  0  0  0  0  0  0
   58.1180   31.5300   45.9110 C   0  0  0  0  0  0  0  0  0  0  0  0
   57.3960   30.4820   45.2920 C   0  0  0  0  0  0  0  0  0  0  0  0
   56.4610   30.7360   44.4780 O   0  0  0  0  0  0  0  0  0  0  0  0
   57.7340   29.1470   45.5890 C   0  0  0  0  0  0  0  0  0  0  0  0
   57.0660   28.1120   45.0370 C   0  0  0  0  0  0  0  0  0  0  0  0
   57.1810   26.7060   45.4970 C   0  0  0  0  0  0  0  0  0  0  0  0
   58.4000   26.0100   45.4030 C   0  0  0  0  0  0  0  0  0  0  0  0
   58.4860   24.6770   45.8100 C   0  0  0  0  0  0  0  0  0  0  0  0
   57.3570   24.0190   46.2990 C   0  0  0  0  0  0  0  0  0  0  0  0
   56.1310   24.6870   46.3770 C   0  0  0  0  0  0  0  0  0  0  0  0
   55.0160   24.0020   46.8590 O   0  0  0  0  0  0  0  0  0  0  0  0
   56.0390   26.0300   45.9700 C   0  0  0  0  0  0  0  0  0  0  0  0
   54.8170   26.6930   46.0460 O   0  0  0  0  0  0  0  0  0  0  0  0
   58.7360   28.9100   46.4720 N   0  0  0  0  0  0  0  0  0  0  0  0
   59.4280   29.9090   47.0690 C   0  0  0  0  0  0  0  0  0  0  0  0
   60.3480   29.6130   47.8800 O   0  0  0  0  0  0  0  0  0  0  0  0
   59.1290   31.2190   46.7990 N   0  0  0  0  0  0  0  0  0  0  0  0
   59.8890   32.2440   47.4730 C   0  0  0  0  0  0  0  0  0  0  0  0
   59.2910   33.0140   48.4790 C   0  0  0  0  0  0  0  0  0  0  0  0
   60.0260   34.0060   49.1300 C   0  0  0  0  0  0  0  0  0  0  0  0
   61.3590   34.2370   48.7810 C   0  0  0  0  0  0  0  0  0  0  0  0
   61.9730   33.4740   47.7710 C   0  0  0  0  0  0  0  0  0  0  0  0
   63.3840   33.7140   47.3950 C   0  0  0  0  0  0  0  0  0  0  0  0
   64.3080   33.5360   48.2320 O   0  0  0  0  0  0  0  0  0  0  0  0
   63.7090   34.1380   46.1110 O   0  0  0  0  0  0  0  0  0  0  0  0
   61.2260   32.4770   47.1190 C   0  0  0  0  0  0  0  0  0  0  0  0
   58.3675   33.6335   46.0919 H   0  0  0  0  0  0  0  0  0  0  0  0
   57.0073   33.0346   44.8998 H   0  0  0  0  0  0  0  0  0  0  0  0
   56.3938   28.3244   44.1926 H   0  0  0  0  0  0  0  0  0  0  0  0
   59.2909   26.5190   45.0064 H   0  0  0  0  0  0  0  0  0  0  0  0
   59.4462   24.1444   45.7449 H   0  0  0  0  0  0  0  0  0  0  0  0
   57.4316   22.9709   46.6244 H   0  0  0  0  0  0  0  0  0  0  0  0
   54.1640   24.4790   47.1250 H   0  0  0  0  0  0  0  0  0  0  0  0
   58.2413   32.8367   48.7561 H   0  0  0  0  0  0  0  0  0  0  0  0
   59.5542   34.6080   49.9205 H   0  0  0  0  0  0  0  0  0  0  0  0
   61.9319   35.0202   49.2991 H   0  0  0  0  0  0  0  0  0  0  0  0
   61.6936   31.8754   46.3256 H   0  0  0  0  0  0  0  0  0  0  0  0
  1  2  2  0
  2  3  1  0
  3  4  2  0
  3  5  1  0
  5  6  2  3
  6  7  1  0
  7  8  2  0
  8  9  1  0
  9 10  2  0
 10 11  1  0
 11 12  1  0
 11 13  2  0
 13 14  1  0
  5 15  1  0
 15 16  1  0
 16 17  2  0
 16 18  1  0
 18 19  1  0
 19 20  2  0
 20 21  1  0
 21 22  2  0
 22 23  1  0
 23 24  1  0
 24 25  2  0
 24 26  1  0
 23 27  2  0
 18  2  1  0
 27 19  1  0
 13  7  1  0
  1 28  1  0
  1 29  1  0
  6 30  1  0
  8 31  1  0
  9 32  1  0
 10 33  1  0
 12 34  1  0
 20 35  1  0
 21 36  1  0
 22 37  1  0
 27 38  1  0
M  CHG  3  14  -1  15  -1  26  -1
M  END
>  <UniqueID>  (4) 
4

>  <SMILES>  (4) 
C=c1c(=O)c(=Cc2cccc(O)c2[O-])[n-]c(=O)n1-c1cccc(C(=O)[O-])c1

>  <Energy>  (4) 
66.34424187001423

>  <Genealogy>  (4) 
C=c1c(=O)c(=Cc2cccc(O)c2[O-])[n-]c(=O)n1-c1cccc(C(=O)[O-])c1 (protonated)
C=c1c(=O)c(=Cc2cccc(O)c2[O-])[n-]c(=O)n1-c1cccc(C(=O)[O-])c1 (3D coordinates assigned)
C=c1c(=O)c(=Cc2cccc(O)c2[O-])[n-]c(=O)n1-c1cccc(C(=O)[O-])c1 (optimized conformer: 66.34424187001423 kcal/mol)

>  <smiles>  (4) 
C=c1c(=O)c(=Cc2cccc(O)c2O)[nH]c(=O)n1-c1cccc(C(=O)O)c1

>  <score_type>  (4) 
oracle

>  <origin>  (4) 
adg

>  <m_score__min__energy>  (4) 
-14.460000000000001

>  <m_primary>  (4) 
energy

$$$$
4:0
     RDKit          3D

 49 51  0  0  0  0  0  0  0  0999 V2000
   59.3642   26.6954   47.9053 H   0  0  0  0  0  0  0  0  0  0  0  0
   58.5920   26.8210   47.1320 C   0  0  0  0  0  0  0  0  0  0  0  0
   57.3690   26.2320   47.2130 N   0  0  0  0  0  0  0  0  0  0  0  0
   56.5940   26.5280   46.1480 C   0  0  0  0  0  0  0  0  0  0  0  0
   55.3840   26.0640   46.0290 N   0  0  0  0  0  0  0  0  0  0  0  0
   54.9870   24.7290   45.6820 C   0  0  0  0  0  0  0  0  0  0  0  0
   53.8060   24.3280   45.8660 O   0  0  0  0  0  0  0  0  0  0  0  0
   55.9630   23.8440   45.1250 N   0  0  0  0  0  0  0  0  0  0  0  0
   56.5060   23.9810   43.7780 C   0  0  0  0  0  0  0  0  0  0  0  0
   57.5591   24.2922   43.8426 H   0  0  0  0  0  0  0  0  0  0  0  0
   55.9190   24.7357   43.2340 H   0  0  0  0  0  0  0  0  0  0  0  0
   56.4200   22.6570   43.0280 C   0  0  0  0  0  0  0  0  0  0  0  0
   56.3662   21.8292   43.7504 H   0  0  0  0  0  0  0  0  0  0  0  0
   55.5196   22.6513   42.3961 H   0  0  0  0  0  0  0  0  0  0  0  0
   57.3121   22.5349   42.3961 H   0  0  0  0  0  0  0  0  0  0  0  0
   57.3950   27.5400   45.0570 S   0  0  0  0  0  0  0  0  0  0  0  0
   58.7880   27.5930   45.9960 C   0  0  0  0  0  0  0  0  0  0  0  0
   60.2700   28.5100   45.5670 S   0  0  0  0  0  0  0  0  0  0  0  0
   60.2820   29.4550   47.0970 C   0  0  0  0  0  0  0  0  0  0  0  0
   60.7560   28.8550   48.2700 C   0  0  0  0  0  0  0  0  0  0  0  0
   61.0852   27.8056   48.2530 H   0  0  0  0  0  0  0  0  0  0  0  0
   60.8130   29.5800   49.4590 C   0  0  0  0  0  0  0  0  0  0  0  0
   61.2232   29.1149   50.3675 H   0  0  0  0  0  0  0  0  0  0  0  0
   60.3500   30.8950   49.4970 C   0  0  0  0  0  0  0  0  0  0  0  0
   60.4113   31.4676   50.4342 H   0  0  0  0  0  0  0  0  0  0  0  0
   59.8060   31.4950   48.3490 C   0  0  0  0  0  0  0  0  0  0  0  0
   59.2050   32.8680   48.4800 C   0  0  0  0  0  0  0  0  0  0  0  0
   59.0947   33.1199   49.5451 H   0  0  0  0  0  0  0  0  0  0  0  0
   59.8632   33.6041   47.9954 H   0  0  0  0  0  0  0  0  0  0  0  0
   58.2176   32.8838   47.9954 H   0  0  0  0  0  0  0  0  0  0  0  0
   59.7980   30.7780   47.1240 C   0  0  0  0  0  0  0  0  0  0  0  0
   59.2290   31.3070   45.9530 O   0  0  0  0  0  0  0  0  0  0  0  0
   57.8280   31.5140   45.7470 C   0  0  1  0  0  0  0  0  0  0  0  0
   57.2803   31.3424   46.6854 H   0  0  0  0  0  0  0  0  0  0  0  0
   57.5870   32.9360   45.3270 C   0  0  0  0  0  0  0  0  0  0  0  0
   56.7340   33.6270   45.9440 O   0  0  0  0  0  0  0  0  0  0  0  0
   58.3450   33.5350   44.2670 N   0  0  0  0  0  0  0  0  0  0  0  0
   58.5050   34.5650   44.3370 H   0  0  0  0  0  0  0  0  0  0  0  0
   58.4790   32.9750   42.9190 C   0  0  0  0  0  0  0  0  0  0  0  0
   59.5156   32.6299   42.7909 H   0  0  0  0  0  0  0  0  0  0  0  0
   58.2050   33.7760   42.2166 H   0  0  0  0  0  0  0  0  0  0  0  0
   57.5390   31.7940   42.6280 C   0  0  0  0  0  0  0  0  0  0  0  0
   57.5761   31.5676   41.5522 H   0  0  0  0  0  0  0  0  0  0  0  0
   56.5245   32.0832   42.9398 H   0  0  0  0  0  0  0  0  0  0  0  0
   57.9180   30.5880   43.3800 N   0  0  0  0  0  0  0  0  0  0  0  0
   57.7190   29.7180   42.8320 H   0  0  0  0  0  0  0  0  0  0  0  0
   57.2910   30.5020   44.7080 C   0  0  0  0  0  0  0  0  0  0  0  0
   57.4584   29.4880   45.1001 H   0  0  0  0  0  0  0  0  0  0  0  0
   56.2273   30.7422   44.5637 H   0  0  0  0  0  0  0  0  0  0  0  0
  1  2  1  0
  2  3  1  0
  3  4  1  0
  4  5  2  0
  5  6  1  0
  6  7  2  0
  6  8  1  0
  8  9  1  0
  9 10  1  0
  9 11  1  0
  9 12  1  0
 12 13  1  0
 12 14  1  0
 12 15  1  0
  4 16  1  0
 16 17  1  0
 17 18  1  0
 18 19  1  0
 19 20  2  0
 20 21  1  0
 20 22  1  0
 22 23  1  0
 22 24  2  0
 24 25  1  0
 24 26  1  0
 26 27  1  0
 27 28  1  0
 27 29  1  0
 27 30  1  0
 26 31  2  0
 31 32  1  0
 32 33  1  0
 33 34  1  1
 33 35  1  0
 35 36  2  0
 35 37  1  0
 37 38  1  0
 37 39  1  0
 39 40  1  0
 39 41  1  0
 39 42  1  0
 42 43  1  0
 42 44  1  0
 42 45  1  0
 45 46  1  0
 45 47  1  0
 47 48  1  0
 47 49  1  0
 17  2  2  0
 31 19  1  0
 47 33  1  0
M  CHG  2   3  -1   8  -1
M  END
>  <UniqueID>  (5) 
5

>  <SMILES>  (5) 
CC[N-]C(=O)/N=c1/[n-]cc(Sc2cccc(C)c2O[C@@H]2CNCCNC2=O)s1

>  <Energy>  (5) 
94.17200182391588

>  <Genealogy>  (5) 
CC[N-]C(=O)N=c1[n-]cc(Sc2cccc(C)c2OC2CNCCNC2=O)s1 (protonated)
CC[N-]C(=O)N=c1[n-]cc(Sc2cccc(C)c2O[C@@H]2CNCCNC2=O)s1 (chirality)
CC[N-]C(=O)/N=c1/[n-]cc(Sc2cccc(C)c2O[C@@H]2CNCCNC2=O)s1 (cis-trans isomerization)
CC[N-]C(=O)/N=c1/[n-]cc(Sc2cccc(C)c2O[C@@H]2CNCCNC2=O)s1 (3D coordinates assigned)
CC[N-]C(=O)/N=c1/[n-]cc(Sc2cccc(C)c2O[C@@H]2CNCCNC2=O)s1 (nonaromatic ring conformer: 94.17200182391588 kcal/mol)

>  <smiles>  (5) 
CCNC(=O)N=c1[nH]cc(Sc2cccc(C)c2OC2CNCCNC2=O)s1

>  <score_type>  (5) 
oracle

>  <origin>  (5) 
adg

>  <m_score__min__energy>  (5) 
-8.6400000000000006

>  <m_primary>  (5) 
energy

$$$$
5:0
     RDKit          3D

 41 43  0  0  0  0  0  0  0  0999 V2000
   54.2850   26.6690   46.7560 H   0  0  0  0  0  0  0  0  0  0  0  0
   55.0400   26.5300   46.0970 O   0  0  0  0  0  0  0  0  0  0  0  0
   56.0210   25.5720   46.3340 C   0  0  0  0  0  0  0  0  0  0  0  0
   55.8370   24.4840   47.1010 N   0  0  0  0  0  0  0  0  0  0  0  0
   57.0200   23.8430   46.9940 C   0  0  0  0  0  0  0  0  0  0  0  0
   57.2550   22.7510   47.5730 O   0  0  0  0  0  0  0  0  0  0  0  0
   57.9300   24.4580   46.2070 N   0  0  0  0  0  0  0  0  0  0  0  0
   57.2950   25.5760   45.8140 C   0  0  0  0  0  0  0  0  0  0  0  0
   57.8480   26.5220   44.8320 C   0  0  0  0  0  0  0  0  0  0  0  0
   57.9935   26.1524   43.8062 H   0  0  0  0  0  0  0  0  0  0  0  0
   58.1920   27.8020   45.0790 C   0  0  0  0  0  0  0  0  0  0  0  0
   57.3440   28.8630   44.8240 C   0  0  0  0  0  0  0  0  0  0  0  0
   56.3474   28.8079   44.3616 H   0  0  0  0  0  0  0  0  0  0  0  0
   57.9840   30.0030   45.2590 C   0  0  0  0  0  0  0  0  0  0  0  0
   57.3960   31.3530   45.1760 C   0  0  0  0  0  0  0  0  0  0  0  0
   56.2700   31.4860   44.6230 O   0  0  0  0  0  0  0  0  0  0  0  0
   58.0900   32.5140   45.6800 N   0  0  0  0  0  0  0  0  0  0  0  0
   58.1140   32.7320   47.1360 C   0  0  0  0  0  0  0  0  0  0  0  0
   58.4378   31.8016   47.6255 H   0  0  0  0  0  0  0  0  0  0  0  0
   57.0990   33.0231   47.4443 H   0  0  0  0  0  0  0  0  0  0  0  0
   59.0470   33.8400   47.5440 C   0  0  0  0  0  0  0  0  0  0  0  0
   59.1630   34.1350   48.7630 O   0  0  0  0  0  0  0  0  0  0  0  0
   59.7730   34.5910   46.5690 N   0  0  0  0  0  0  0  0  0  0  0  0
   59.8060   34.1930   45.1710 C   0  0  0  0  0  0  0  0  0  0  0  0
   60.5904   33.4357   45.0256 H   0  0  0  0  0  0  0  0  0  0  0  0
   60.0203   35.0740   44.5482 H   0  0  0  0  0  0  0  0  0  0  0  0
   58.4570   33.6080   44.7670 C   0  0  0  0  0  0  0  0  0  0  0  0
   58.5212   33.2195   43.7399 H   0  0  0  0  0  0  0  0  0  0  0  0
   57.6909   34.3956   44.8203 H   0  0  0  0  0  0  0  0  0  0  0  0
   59.2070   29.7020   45.7600 N   0  0  0  0  0  0  0  0  0  0  0  0
   60.1160   30.6330   46.4460 C   0  0  0  0  0  0  0  0  0  0  0  0
   61.1183   30.5554   45.9995 H   0  0  0  0  0  0  0  0  0  0  0  0
   59.7289   31.6564   46.3330 H   0  0  0  0  0  0  0  0  0  0  0  0
   60.2010   30.2990   47.9310 C   0  0  0  0  0  0  0  0  0  0  0  0
   59.9723   31.1977   48.5226 H   0  0  0  0  0  0  0  0  0  0  0  0
   59.4756   29.5076   48.1709 H   0  0  0  0  0  0  0  0  0  0  0  0
   61.2164   29.9507   48.1709 H   0  0  0  0  0  0  0  0  0  0  0  0
   59.3620   28.3560   45.6260 C   0  0  0  0  0  0  0  0  0  0  0  0
   60.5140   27.7150   45.8800 C   0  0  0  0  0  0  0  0  0  0  0  0
   61.3644   28.2627   46.3124 H   0  0  0  0  0  0  0  0  0  0  0  0
   60.6075   26.6422   45.6558 H   0  0  0  0  0  0  0  0  0  0  0  0
  1  2  1  0
  2  3  1  0
  3  4  1  0
  4  5  1  0
  5  6  2  0
  5  7  1  0
  7  8  1  0
  8  9  1  0
  9 10  1  0
  9 11  2  0
 11 12  1  0
 12 13  1  0
 12 14  2  0
 14 15  1  0
 15 16  2  0
 15 17  1  0
 17 18  1  0
 18 19  1  0
 18 20  1  0
 18 21  1  0
 21 22  2  0
 21 23  1  0
 23 24  1  0
 24 25  1  0
 24 26  1  0
 24 27  1  0
 27 28  1  0
 27 29  1  0
 14 30  1  0
 30 31  1  0
 31 32  1  0
 31 33  1  0
 31 34  1  0
 34 35  1  0
 34 36  1  0
 34 37  1  0
 30 38  1  0
 38 39  2  0
 39 40  1  0
 39 41  1  0
  8  3  2  0
 38 11  1  0
 27 17  1  0
M  CHG  3   4  -1   7  -1  23  -1
M  END
>  <UniqueID>  (6) 
6

>  <SMILES>  (6) 
C=c1/c(=C\c2[n-]c(=O)[n-]c2O)cc(C(=O)N2CC[N-]C(=O)C2)n1CC

>  <Energy>  (6) 
114.47064630693836

>  <Genealogy>  (6) 
C=c1c(=Cc2[n-]c(=O)[n-]c2O)cc(C(=O)N2CC[N-]C(=O)C2)n1CC (protonated)
C=c1/c(=C\c2[n-]c(=O)[n-]c2O)cc(C(=O)N2CC[N-]C(=O)C2)n1CC (cis-trans isomerization)
C=c1/c(=C\c2[n-]c(=O)[n-]c2O)cc(C(=O)N2CC[N-]C(=O)C2)n1CC (3D coordinates assigned)
C=c1/c(=C\c2[n-]c(=O)[n-]c2O)cc(C(=O)N2CC[N-]C(=O)C2)n1CC (nonaromatic ring conformer: 114.47064630693836 kcal/mol)

>  <smiles>  (6) 
C=c1c(=Cc2[nH]c(=O)[nH]c2O)cc(C(=O)N2CCNC(=O)C2)n1CC

>  <score_type>  (6) 
oracle

>  <origin>  (6) 
adg

>  <m_score__min__energy>  (6) 
-13.210000000000001

>  <m_primary>  (6) 
energy

$$$$
6:0
     RDKit          3D

 58 62  0  0  0  0  0  0  0  0999 V2000
   51.7970   22.6750   44.7580 O   0  0  0  0  0  0  0  0  0  0  0  0
   52.5530   23.4120   44.0940 N   0  0  0  0  0  0  0  0  0  0  0  0
   52.1000   23.9180   42.8960 O   0  0  0  0  0  0  0  0  0  0  0  0
   53.8750   23.7240   44.5670 C   0  0  0  0  0  0  0  0  0  0  0  0
   54.9870   23.6320   43.7090 C   0  0  0  0  0  0  0  0  0  0  0  0
   56.2690   23.9320   44.1750 C   0  0  0  0  0  0  0  0  0  0  0  0
   56.4640   24.3290   45.5020 C   0  0  0  0  0  0  0  0  0  0  0  0
   58.0900   24.6780   46.0830 S   0  0  0  0  0  0  0  0  0  0  0  0
   59.0840   23.7880   45.3910 O   0  0  0  0  0  0  0  0  0  0  0  0
   58.1420   24.3960   47.5600 O   0  0  0  0  0  0  0  0  0  0  0  0
   58.4770   26.3530   45.7860 N   0  0  0  0  0  0  0  0  0  0  0  0
   58.9110   26.9970   47.0490 C   0  0  0  0  0  0  0  0  0  0  0  0
   59.4360   28.4220   46.7860 C   0  0  0  0  0  0  0  0  0  0  0  0
   58.4910   29.1410   45.8800 C   0  0  0  0  0  0  0  0  0  0  0  0
   57.5490   28.5020   45.1020 C   0  0  0  0  0  0  0  0  0  0  0  0
   56.8580   29.3830   44.3440 N   0  0  0  0  0  0  0  0  0  0  0  0
   57.3990   30.5860   44.6230 C   0  0  0  0  0  0  0  0  0  0  0  0
   57.0400   31.8190   44.0830 C   0  0  0  0  0  0  0  0  0  0  0  0
   57.7450   32.9570   44.5140 C   0  0  0  0  0  0  0  0  0  0  0  0
   58.7890   32.8430   45.4650 C   0  0  0  0  0  0  0  0  0  0  0  0
   59.6450   34.2880   45.9980 S   0  0  0  0  0  0  0  0  0  0  0  0
   59.4430   35.3780   44.9840 O   0  0  0  0  0  0  0  0  0  0  0  0
   61.1180   34.0040   46.1060 O   0  0  0  0  0  0  0  0  0  0  0  0
   59.0260   34.8130   47.5340 N   0  0  0  0  0  0  0  0  0  0  0  0
   60.0080   34.5390   48.5840 C   0  0  0  0  0  0  0  0  0  0  0  0
   60.0380   33.0640   48.8760 C   0  0  0  0  0  0  0  0  0  0  0  0
   61.2100   32.3220   48.6540 C   0  0  0  0  0  0  0  0  0  0  0  0
   61.2270   30.9450   48.8940 C   0  0  0  0  0  0  0  0  0  0  0  0
   60.0730   30.2980   49.3460 C   0  0  0  0  0  0  0  0  0  0  0  0
   58.8990   31.0270   49.5540 C   0  0  0  0  0  0  0  0  0  0  0  0
   58.8780   32.4050   49.3150 C   0  0  0  0  0  0  0  0  0  0  0  0
   59.1270   31.5810   45.9970 C   0  0  0  0  0  0  0  0  0  0  0  0
   58.4060   30.4760   45.5530 C   0  0  0  0  0  0  0  0  0  0  0  0
   57.2940   27.0330   45.2080 C   0  0  0  0  0  0  0  0  0  0  0  0
   55.3630   24.4170   46.3660 C   0  0  0  0  0  0  0  0  0  0  0  0
   54.0790   24.1180   45.9020 C   0  0  0  0  0  0  0  0  0  0  0  0
   54.8452   23.3214   42.6633 H   0  0  0  0  0  0  0  0  0  0  0  0
   57.1301   23.8557   43.4947 H   0  0  0  0  0  0  0  0  0  0  0  0
   58.0560   27.0496   47.7391 H   0  0  0  0  0  0  0  0  0  0  0  0
   59.7224   26.3984   47.4886 H   0  0  0  0  0  0  0  0  0  0  0  0
   59.5153   28.9654   47.7391 H   0  0  0  0  0  0  0  0  0  0  0  0
   60.4273   28.3662   46.3125 H   0  0  0  0  0  0  0  0  0  0  0  0
   56.0760   29.1740   43.6850 H   0  0  0  0  0  0  0  0  0  0  0  0
   56.2305   31.8999   43.3427 H   0  0  0  0  0  0  0  0  0  0  0  0
   57.4832   33.9455   44.1087 H   0  0  0  0  0  0  0  0  0  0  0  0
   58.9010   35.8490   47.4680 H   0  0  0  0  0  0  0  0  0  0  0  0
   61.0033   34.8658   48.2484 H   0  0  0  0  0  0  0  0  0  0  0  0
   59.7285   35.0859   49.4966 H   0  0  0  0  0  0  0  0  0  0  0  0
   62.1174   32.8262   48.2901 H   0  0  0  0  0  0  0  0  0  0  0  0
   62.1496   30.3697   48.7270 H   0  0  0  0  0  0  0  0  0  0  0  0
   60.0891   29.2150   49.5379 H   0  0  0  0  0  0  0  0  0  0  0  0
   57.9904   30.5166   49.9061 H   0  0  0  0  0  0  0  0  0  0  0  0
   57.9499   32.9744   49.4714 H   0  0  0  0  0  0  0  0  0  0  0  0
   59.9331   31.4737   46.7377 H   0  0  0  0  0  0  0  0  0  0  0  0
   56.4221   26.8606   45.8561 H   0  0  0  0  0  0  0  0  0  0  0  0
   57.0992   26.6273   44.2043 H   0  0  0  0  0  0  0  0  0  0  0  0
   55.5104   24.7224   47.4124 H   0  0  0  0  0  0  0  0  0  0  0  0
   53.2209   24.1914   46.5863 H   0  0  0  0  0  0  0  0  0  0  0  0
  1  2  2  0
  2  3  1  0
  2  4  1  0
  4  5  2  0
  5  6  1  0
  6  7  2  0
  7  8  1  0
  8  9  2  0
  8 10  2  0
  8 11  1  0
 11 12  1  0
 12 13  1  0
 13 14  1  0
 14 15  2  0
 15 16  1  0
 16 17  1  0
 17 18  2  0
 18 19  1  0
 19 20  2  0
 20 21  1  0
 21 22  2  0
 21 23  2  0
 21 24  1  0
 24 25  1  0
 25 26  1  0
 26 27  2  0
 27 28  1  0
 28 29  2  0
 29 30  1  0
 30 31  2  0
 20 32  1  0
 32 33  2  0
 15 34  1  0
  7 35  1  0
 35 36  2  0
 36  4  1  0
 34 11  1  0
 33 14  1  0
 33 17  1  0
 31 26  1  0
  5 37  1  0
  6 38  1  0
 12 39  1  0
 12 40  1  0
 13 41  1  0
 13 42  1  0
 16 43  1  0
 18 44  1  0
 19 45  1  0
 24 46  1  0
 25 47  1  0
 25 48  1  0
 27 49  1  0
 28 50  1  0
 29 51  1  0
 30 52  1  0
 31 53  1  0
 32 54  1  0
 34 55  1  0
 34 56  1  0
 35 57  1  0
 36 58  1  0
M  CHG  2   2   1   3  -1
M  END
>  <UniqueID>  (7) 
7

>  <SMILES>  (7) 
O=[N+]([O-])c1ccc(S(=O)(=O)N2CCc3c([nH]c4ccc(S(=O)(=O)NCc5ccccc5)cc34)C2)cc1

>  <Energy>  (7) 
97.3755764206388

>  <Genealogy>  (7) 
O=[N+]([O-])c1ccc(S(=O)(=O)N2CCc3c([nH]c4ccc(S(=O)(=O)NCc5ccccc5)cc34)C2)cc1 (3D coordinates assigned)
O=[N+]([O-])c1ccc(S(=O)(=O)N2CCc3c([nH]c4ccc(S(=O)(=O)NCc5ccccc5)cc34)C2)cc1 (nonaromatic ring conformer: 97.3755764206388 kcal/mol)

>  <smiles>  (7) 
O=[N+]([O-])c1ccc(S(=O)(=O)N2CCc3c([nH]c4ccc(S(=O)(=O)NCc5ccccc5)cc34)C2)cc1

>  <score_type>  (7) 
oracle

>  <origin>  (7) 
adg

>  <m_score__min__energy>  (7) 
-10.42

>  <m_primary>  (7) 
energy

$$$$
7:0
     RDKit          3D

 58 62  0  0  0  0  0  0  0  0999 V2000
   61.8220   26.5220   51.2620 C   0  0  0  0  0  0  0  0  0  0  0  0
   61.3750   27.9540   51.2610 C   0  0  0  0  0  0  0  0  0  0  0  0
   62.2780   28.9720   50.9290 C   0  0  0  0  0  0  0  0  0  0  0  0
   61.8650   30.3060   50.8850 C   0  0  0  0  0  0  0  0  0  0  0  0
   60.5240   30.6650   51.1610 C   0  0  0  0  0  0  0  0  0  0  0  0
   59.6130   29.6110   51.4760 C   0  0  0  0  0  0  0  0  0  0  0  0
   60.0380   28.2760   51.5200 C   0  0  0  0  0  0  0  0  0  0  0  0
   58.2910   29.9600   51.7270 C   0  0  0  0  0  0  0  0  0  0  0  0
   57.2570   29.1570   52.0370 N   0  0  0  0  0  0  0  0  0  0  0  0
   56.1840   29.9300   52.1780 N   0  0  0  0  0  0  0  0  0  0  0  0
   56.5350   31.2190   51.9570 C   0  0  0  0  0  0  0  0  0  0  0  0
   57.8790   31.2490   51.6700 C   0  0  0  0  0  0  0  0  0  0  0  0
   58.7510   32.2830   51.3640 C   0  0  0  0  0  0  0  0  0  0  0  0
   58.3150   33.4670   51.3120 O   0  0  0  0  0  0  0  0  0  0  0  0
   60.0810   31.9900   51.1190 N   0  0  0  0  0  0  0  0  0  0  0  0
   61.0060   33.0980   50.7880 C   0  0  0  0  0  0  0  0  0  0  0  0
   60.8400   33.5140   49.3550 C   0  0  0  0  0  0  0  0  0  0  0  0
   61.8630   33.7580   48.6580 O   0  0  0  0  0  0  0  0  0  0  0  0
   59.5270   33.6940   48.8050 N   0  0  0  0  0  0  0  0  0  0  0  0
   59.2500   33.7340   47.3950 C   0  0  0  0  0  0  0  0  0  0  0  0
   59.5390   34.8760   46.6260 C   0  0  0  0  0  0  0  0  0  0  0  0
   59.2890   34.8780   45.2510 C   0  0  0  0  0  0  0  0  0  0  0  0
   58.7590   33.7450   44.6310 C   0  0  0  0  0  0  0  0  0  0  0  0
   58.4820   32.5970   45.3840 C   0  0  0  0  0  0  0  0  0  0  0  0
   57.8430   31.1480   44.6090 S   0  0  0  0  0  0  0  0  0  0  0  0
   56.3500   31.1290   44.7810 O   0  0  0  0  0  0  0  0  0  0  0  0
   58.1560   31.1750   43.1370 O   0  0  0  0  0  0  0  0  0  0  0  0
   58.5370   29.7200   45.3390 N   0  0  0  0  0  0  0  0  0  0  0  0
   58.0490   29.5770   46.7300 C   0  0  0  0  0  0  0  0  0  0  0  0
   58.9410   28.6340   47.5430 C   0  0  0  0  0  0  0  0  0  0  0  0
   60.3740   29.1830   47.6520 C   0  0  0  0  0  0  0  0  0  0  0  0
   60.7420   30.1220   46.4900 C   0  0  0  0  0  0  0  0  0  0  0  0
   60.0150   29.7160   45.1980 C   0  0  0  0  0  0  0  0  0  0  0  0
   58.7420   32.5910   46.7610 C   0  0  0  0  0  0  0  0  0  0  0  0
   61.9310   26.1727   52.2993 H   0  0  0  0  0  0  0  0  0  0  0  0
   61.0740   25.9040   50.7437 H   0  0  0  0  0  0  0  0  0  0  0  0
   62.7887   26.4393   50.7437 H   0  0  0  0  0  0  0  0  0  0  0  0
   63.3237   28.7184   50.7004 H   0  0  0  0  0  0  0  0  0  0  0  0
   62.5939   31.0900   50.6317 H   0  0  0  0  0  0  0  0  0  0  0  0
   59.3184   27.4790   51.7588 H   0  0  0  0  0  0  0  0  0  0  0  0
   55.8630   32.0889   51.9996 H   0  0  0  0  0  0  0  0  0  0  0  0
   60.7903   33.9565   51.4411 H   0  0  0  0  0  0  0  0  0  0  0  0
   62.0399   32.7547   50.9404 H   0  0  0  0  0  0  0  0  0  0  0  0
   58.7370   33.8610   49.4680 H   0  0  0  0  0  0  0  0  0  0  0  0
   59.9627   35.7694   47.1080 H   0  0  0  0  0  0  0  0  0  0  0  0
   59.5107   35.7756   44.6551 H   0  0  0  0  0  0  0  0  0  0  0  0
   58.5586   33.7539   43.5494 H   0  0  0  0  0  0  0  0  0  0  0  0
   58.0433   30.5665   47.2104 H   0  0  0  0  0  0  0  0  0  0  0  0
   57.0351   29.1516   46.6983 H   0  0  0  0  0  0  0  0  0  0  0  0
   58.5206   28.5242   48.5536 H   0  0  0  0  0  0  0  0  0  0  0  0
   58.9779   27.6609   47.0315 H   0  0  0  0  0  0  0  0  0  0  0  0
   60.4665   29.7394   48.5964 H   0  0  0  0  0  0  0  0  0  0  0  0
   61.0614   28.3250   47.6153 H   0  0  0  0  0  0  0  0  0  0  0  0
   60.4559   31.1505   46.7550 H   0  0  0  0  0  0  0  0  0  0  0  0
   61.8261   30.0544   46.3165 H   0  0  0  0  0  0  0  0  0  0  0  0
   60.2932   30.4226   44.4022 H   0  0  0  0  0  0  0  0  0  0  0  0
   60.3201   28.6868   44.9579 H   0  0  0  0  0  0  0  0  0  0  0  0
   58.5460   31.6824   47.3493 H   0  0  0  0  0  0  0  0  0  0  0  0
  1  2  1  0
  2  3  2  0
  3  4  1  0
  4  5  2  0
  5  6  1  0
  6  7  2  0
  6  8  1  0
  8  9  1  0
  9 10  1  0
 10 11  2  0
 11 12  1  0
 12 13  1  0
 13 14  2  0
 13 15  1  0
 15 16  1  0
 16 17  1  0
 17 18  2  0
 17 19  1  0
 19 20  1  0
 20 21  2  0
 21 22  1  0
 22 23  2  0
 23 24  1  0
 24 25  1  0
 25 26  2  0
 25 27  2  0
 25 28  1  0
 28 29  1  0
 29 30  1  0
 30 31  1  0
 31 32  1  0
 32 33  1  0
 24 34  2  0
  7  2  1  0
 12  8  2  0
 34 20  1  0
 15  5  1  0
 33 28  1  0
  1 35  1  0
  1 36  1  0
  1 37  1  0
  3 38  1  0
  4 39  1  0
  7 40  1  0
 11 41  1  0
 16 42  1  0
 16 43  1  0
 19 44  1  0
 21 45  1  0
 22 46  1  0
 23 47  1  0
 29 48  1  0
 29 49  1  0
 30 50  1  0
 30 51  1  0
 31 52  1  0
 31 53  1  0
 32 54  1  0
 32 55  1  0
 33 56  1  0
 33 57  1  0
 34 58  1  0
M  CHG  1   9  -1
M  END
>  <UniqueID>  (8) 
8

>  <SMILES>  (8) 
Cc1ccc2c(c1)c1[n-]ncc1c(=O)n2CC(=O)Nc1cccc(S(=O)(=O)N2CCCCC2)c1

>  <Energy>  (8) 
117.71678242147634

>  <Genealogy>  (8) 
Cc1ccc2c(c1)c1[n-]ncc1c(=O)n2CC(=O)Nc1cccc(S(=O)(=O)N2CCCCC2)c1 (protonated)
Cc1ccc2c(c1)c1[n-]ncc1c(=O)n2CC(=O)Nc1cccc(S(=O)(=O)N2CCCCC2)c1 (3D coordinates assigned)
Cc1ccc2c(c1)c1[n-]ncc1c(=O)n2CC(=O)Nc1cccc(S(=O)(=O)N2CCCCC2)c1 (nonaromatic ring conformer: 117.71678242147634 kcal/mol)

>  <smiles>  (8) 
Cc1ccc2c(c1)c1[nH]ncc1c(=O)n2CC(=O)Nc1cccc(S(=O)(=O)N2CCCCC2)c1

>  <score_type>  (8) 
oracle

>  <origin>  (8) 
adg

>  <m_score__min__energy>  (8) 
-11.390000000000001

>  <m_primary>  (8) 
energy

$$$$
9:0
     RDKit          3D

 58 61  0  0  0  0  0  0  0  0999 V2000
   56.7657   30.0384   42.3488 H   0  0  0  0  0  0  0  0  0  0  0  0
   57.0480   30.7440   43.1440 C   0  0  0  0  0  0  0  0  0  0  0  0
   56.7010   30.4860   44.4740 C   0  0  0  0  0  0  0  0  0  0  0  0
   56.0060   29.3130   44.7850 O   0  0  0  0  0  0  0  0  0  0  0  0
   56.6390   28.1190   45.2440 C   0  0  0  0  0  0  0  0  0  0  0  0
   56.2889   27.2734   44.6338 H   0  0  0  0  0  0  0  0  0  0  0  0
   56.3763   27.9785   46.3029 H   0  0  0  0  0  0  0  0  0  0  0  0
   58.1650   28.2070   45.1400 C   0  0  0  0  0  0  0  0  0  0  0  0
   58.4464   29.2274   44.8408 H   0  0  0  0  0  0  0  0  0  0  0  0
   58.5069   27.4766   44.3919 H   0  0  0  0  0  0  0  0  0  0  0  0
   58.8040   27.8900   46.4300 N   0  0  0  0  0  0  0  0  0  0  0  0
   59.6880   28.8380   47.0820 C   0  0  0  0  0  0  0  0  0  0  0  0
   59.9580   28.7470   48.4660 C   0  0  0  0  0  0  0  0  0  0  0  0
   59.4919   27.9464   49.0591 H   0  0  0  0  0  0  0  0  0  0  0  0
   60.8110   29.6630   49.0910 C   0  0  0  0  0  0  0  0  0  0  0  0
   61.0133   29.5800   50.1690 H   0  0  0  0  0  0  0  0  0  0  0  0
   61.4060   30.6840   48.3440 C   0  0  0  0  0  0  0  0  0  0  0  0
   62.0742   31.4069   48.8348 H   0  0  0  0  0  0  0  0  0  0  0  0
   61.1520   30.7860   46.9750 C   0  0  0  0  0  0  0  0  0  0  0  0
   61.6228   31.5890   46.3889 H   0  0  0  0  0  0  0  0  0  0  0  0
   60.3020   29.8720   46.3460 C   0  0  0  0  0  0  0  0  0  0  0  0
   60.1102   29.9602   45.2664 H   0  0  0  0  0  0  0  0  0  0  0  0
   58.5640   26.5750   47.0390 C   0  0  0  0  0  0  0  0  0  0  0  0
   58.5813   26.6697   48.1348 H   0  0  0  0  0  0  0  0  0  0  0  0
   57.5819   26.1965   46.7191 H   0  0  0  0  0  0  0  0  0  0  0  0
   59.3490   25.8740   46.7191 H   0  0  0  0  0  0  0  0  0  0  0  0
   57.0460   31.3770   45.4470 N   0  0  0  0  0  0  0  0  0  0  0  0
   57.7320   32.5230   45.1730 C   0  0  0  0  0  0  0  0  0  0  0  0
   58.0010   33.3890   46.1070 N   0  0  0  0  0  0  0  0  0  0  0  0
   59.0110   34.4090   46.0660 C   0  0  0  0  0  0  0  0  0  0  0  0
   59.1400   35.0860   45.0120 O   0  0  0  0  0  0  0  0  0  0  0  0
   59.8700   34.6990   47.1780 N   0  0  0  0  0  0  0  0  0  0  0  0
   61.1890   34.1890   47.4290 C   0  0  0  0  0  0  0  0  0  0  0  0
   62.0710   33.8710   46.3800 C   0  0  0  0  0  0  0  0  0  0  0  0
   61.7400   33.9738   45.3360 H   0  0  0  0  0  0  0  0  0  0  0  0
   63.3630   33.4260   46.6580 C   0  0  0  0  0  0  0  0  0  0  0  0
   64.0364   33.1462   45.8345 H   0  0  0  0  0  0  0  0  0  0  0  0
   63.8030   33.3350   47.9790 C   0  0  0  0  0  0  0  0  0  0  0  0
   64.8249   32.9899   48.1947 H   0  0  0  0  0  0  0  0  0  0  0  0
   62.9490   33.6810   49.0270 C   0  0  0  0  0  0  0  0  0  0  0  0
   63.3102   33.6352   50.0650 H   0  0  0  0  0  0  0  0  0  0  0  0
   61.6290   34.0880   48.7630 C   0  0  0  0  0  0  0  0  0  0  0  0
   60.7490   34.4610   49.7910 O   0  0  0  0  0  0  0  0  0  0  0  0
   59.7230   33.6820   50.3550 C   0  0  0  0  0  0  0  0  0  0  0  0
   59.1550   32.6690   49.5700 C   0  0  0  0  0  0  0  0  0  0  0  0
   59.4977   32.5240   48.5348 H   0  0  0  0  0  0  0  0  0  0  0  0
   58.1570   31.8420   50.0920 C   0  0  0  0  0  0  0  0  0  0  0  0
   57.7130   31.0539   49.4661 H   0  0  0  0  0  0  0  0  0  0  0  0
   57.7220   32.0160   51.4110 C   0  0  0  0  0  0  0  0  0  0  0  0
   56.9283   31.3723   51.8180 H   0  0  0  0  0  0  0  0  0  0  0  0
   58.2960   33.0070   52.2100 C   0  0  0  0  0  0  0  0  0  0  0  0
   57.9656   33.1324   53.2517 H   0  0  0  0  0  0  0  0  0  0  0  0
   59.2900   33.8400   51.6880 C   0  0  0  0  0  0  0  0  0  0  0  0
   59.7364   34.6221   52.3197 H   0  0  0  0  0  0  0  0  0  0  0  0
   58.1040   32.8020   43.8520 C   0  0  0  0  0  0  0  0  0  0  0  0
   58.6650   33.7181   43.6152 H   0  0  0  0  0  0  0  0  0  0  0  0
   57.7560   31.9060   42.8370 C   0  0  0  0  0  0  0  0  0  0  0  0
   58.0406   32.1174   41.7957 H   0  0  0  0  0  0  0  0  0  0  0  0
  1  2  1  0
  2  3  2  0
  3  4  1  0
  4  5  1  0
  5  6  1  0
  5  7  1  0
  5  8  1  0
  8  9  1  0
  8 10  1  0
  8 11  1  0
 11 12  1  0
 12 13  2  0
 13 14  1  0
 13 15  1  0
 15 16  1  0
 15 17  2  0
 17 18  1  0
 17 19  1  0
 19 20  1  0
 19 21  2  0
 21 22  1  0
 11 23  1  0
 23 24  1  0
 23 25  1  0
 23 26  1  0
  3 27  1  0
 27 28  1  0
 28 29  2  0
 29 30  1  0
 30 31  2  0
 30 32  1  0
 32 33  1  0
 33 34  2  0
 34 35  1  0
 34 36  1  0
 36 37  1  0
 36 38  2  0
 38 39  1  0
 38 40  1  0
 40 41  1  0
 40 42  2  0
 42 43  1  0
 43 44  1  0
 44 45  2  0
 45 46  1  0
 45 47  1  0
 47 48  1  0
 47 49  2  0
 49 50  1  0
 49 51  1  0
 51 52  1  0
 51 53  2  0
 53 54  1  0
 28 55  1  0
 55 56  1  0
 55 57  2  0
 57 58  1  0
 57  2  1  0
 21 12  1  0
 42 33  1  0
 53 44  1  0
M  CHG  2  27  -1  32  -1
M  END
>  <UniqueID>  (9) 
9

>  <SMILES>  (9) 
CN(CCOc1ccc/c(=N/C(=O)[N-]c2ccccc2Oc2ccccc2)[n-]1)c1ccccc1

>  <Energy>  (9) 
73.83090641547972

>  <Genealogy>  (9) 
CN(CCOc1cccc(=NC(=O)[N-]c2ccccc2Oc2ccccc2)[n-]1)c1ccccc1 (protonated)
CN(CCOc1ccc/c(=N/C(=O)[N-]c2ccccc2Oc2ccccc2)[n-]1)c1ccccc1 (cis-trans isomerization)
CN(CCOc1ccc/c(=N/C(=O)[N-]c2ccccc2Oc2ccccc2)[n-]1)c1ccccc1 (3D coordinates assigned)
CN(CCOc1ccc/c(=N/C(=O)[N-]c2ccccc2Oc2ccccc2)[n-]1)c1ccccc1 (optimized conformer: 73.83090641547972 kcal/mol)

>  <smiles>  (9) 
CN(CCOc1cccc(=NC(=O)Nc2ccccc2Oc2ccccc2)[nH]1)c1ccccc1

>  <score_type>  (9) 
oracle

>  <origin>  (9) 
adg

>  <m_score__min__energy>  (9) 
-11.59

>  <m_primary>  (9) 
energy

$$$$
10:0
     RDKit          3D

 55 58  0  0  0  0  0  0  0  0999 V2000
   59.4986   34.3805   43.8098 H   0  0  0  0  0  0  0  0  0  0  0  0
   58.8490   33.7740   44.4580 C   0  0  0  0  0  0  0  0  0  0  0  0
   57.8970   32.9380   43.9660 N   0  0  0  0  0  0  0  0  0  0  0  0
   57.2330   32.3030   44.9590 C   0  0  0  0  0  0  0  0  0  0  0  0
   56.2770   31.4430   44.7670 N   0  0  0  0  0  0  0  0  0  0  0  0
   56.4480   30.0370   44.5360 C   0  0  0  0  0  0  0  0  0  0  0  0
   55.5740   29.2050   44.9080 O   0  0  0  0  0  0  0  0  0  0  0  0
   57.6430   29.5590   43.7800 C   0  0  0  0  0  0  0  0  0  0  0  0
   57.3506   28.7246   43.1256 H   0  0  0  0  0  0  0  0  0  0  0  0
   58.0419   30.3856   43.1737 H   0  0  0  0  0  0  0  0  0  0  0  0
   58.9340   28.9910   44.9470 S   0  0  0  0  0  0  0  0  0  0  0  0
   58.1020   27.4580   45.3660 C   0  0  0  0  0  0  0  0  0  0  0  0
   57.8010   26.5230   44.3690 C   0  0  0  0  0  0  0  0  0  0  0  0
   58.0879   26.7201   43.3255 H   0  0  0  0  0  0  0  0  0  0  0  0
   57.1360   25.3390   44.6990 C   0  0  0  0  0  0  0  0  0  0  0  0
   56.8925   24.6103   43.9118 H   0  0  0  0  0  0  0  0  0  0  0  0
   56.7770   25.0750   46.0310 C   0  0  0  0  0  0  0  0  0  0  0  0
   56.0450   23.8970   46.3900 N   0  0  0  0  0  0  0  0  0  0  0  0
   56.5590   22.5630   46.4480 C   0  0  0  0  0  0  0  0  0  0  0  0
   57.1290   22.1780   47.5050 O   0  0  0  0  0  0  0  0  0  0  0  0
   56.5810   21.6670   45.2360 C   0  0  1  0  0  0  0  0  0  0  0  0
   56.2347   20.6720   45.5523 H   0  0  0  0  0  0  0  0  0  0  0  0
   55.7310   22.2030   44.2440 O   0  0  0  0  0  0  0  0  0  0  0  0
   56.4570   22.2680   43.0400 C   0  0  0  0  0  0  0  0  0  0  0  0
   56.7057   23.3159   42.8162 H   0  0  0  0  0  0  0  0  0  0  0  0
   55.8510   21.8559   42.2196 H   0  0  0  0  0  0  0  0  0  0  0  0
   57.7310   21.4650   43.1850 C   0  0  0  0  0  0  0  0  0  0  0  0
   58.5577   21.9285   42.6266 H   0  0  0  0  0  0  0  0  0  0  0  0
   57.6500   20.4424   42.7878 H   0  0  0  0  0  0  0  0  0  0  0  0
   57.9830   21.5110   44.6590 C   0  0  0  0  0  0  0  0  0  0  0  0
   58.6190   22.3680   44.9258 H   0  0  0  0  0  0  0  0  0  0  0  0
   58.5141   20.6254   45.0381 H   0  0  0  0  0  0  0  0  0  0  0  0
   57.0600   26.0270   47.0190 C   0  0  0  0  0  0  0  0  0  0  0  0
   56.7502   25.8447   48.0586 H   0  0  0  0  0  0  0  0  0  0  0  0
   57.7330   27.2060   46.6920 C   0  0  0  0  0  0  0  0  0  0  0  0
   57.9733   27.9374   47.4777 H   0  0  0  0  0  0  0  0  0  0  0  0
   57.7950   32.7390   46.4820 S   0  0  0  0  0  0  0  0  0  0  0  0
   58.9370   33.8020   45.8460 C   0  0  0  0  0  0  0  0  0  0  0  0
   59.9520   34.5590   46.6430 C   0  0  0  0  0  0  0  0  0  0  0  0
   59.4790   34.9538   47.5543 H   0  0  0  0  0  0  0  0  0  0  0  0
   60.3422   35.3891   46.0357 H   0  0  0  0  0  0  0  0  0  0  0  0
   61.0880   33.6500   47.0250 C   0  0  0  0  0  0  0  0  0  0  0  0
   62.3770   33.8780   46.5140 C   0  0  0  0  0  0  0  0  0  0  0  0
   62.5432   34.6871   45.7876 H   0  0  0  0  0  0  0  0  0  0  0  0
   63.4480   33.0810   46.9250 C   0  0  0  0  0  0  0  0  0  0  0  0
   64.4542   33.2620   46.5189 H   0  0  0  0  0  0  0  0  0  0  0  0
   63.2440   32.0530   47.8520 C   0  0  0  0  0  0  0  0  0  0  0  0
   64.0925   31.4348   48.1805 H   0  0  0  0  0  0  0  0  0  0  0  0
   61.9610   31.8080   48.3640 C   0  0  0  0  0  0  0  0  0  0  0  0
   61.7470   30.7390   49.3950 C   0  0  0  0  0  0  0  0  0  0  0  0
   61.8346   31.1765   50.4004 H   0  0  0  0  0  0  0  0  0  0  0  0
   60.7441   30.3047   49.2702 H   0  0  0  0  0  0  0  0  0  0  0  0
   62.5054   29.9521   49.2702 H   0  0  0  0  0  0  0  0  0  0  0  0
   60.8880   32.6210   47.9610 C   0  0  0  0  0  0  0  0  0  0  0  0
   59.8855   32.4509   48.3807 H   0  0  0  0  0  0  0  0  0  0  0  0
  1  2  1  0
  2  3  1  0
  3  4  1  0
  4  5  2  0
  5  6  1  0
  6  7  2  0
  6  8  1  0
  8  9  1  0
  8 10  1  0
  8 11  1  0
 11 12  1  0
 12 13  2  0
 13 14  1  0
 13 15  1  0
 15 16  1  0
 15 17  2  0
 17 18  1  0
 18 19  1  0
 19 20  2  0
 19 21  1  0
 21 22  1  1
 21 23  1  0
 23 24  1  0
 24 25  1  0
 24 26  1  0
 24 27  1  0
 27 28  1  0
 27 29  1  0
 27 30  1  0
 30 31  1  0
 30 32  1  0
 17 33  1  0
 33 34  1  0
 33 35  2  0
 35 36  1  0
  4 37  1  0
 37 38  1  0
 38 39  1  0
 39 40  1  0
 39 41  1  0
 39 42  1  0
 42 43  2  0
 43 44  1  0
 43 45  1  0
 45 46  1  0
 45 47  2  0
 47 48  1  0
 47 49  1  0
 49 50  1  0
 50 51  1  0
 50 52  1  0
 50 53  1  0
 49 54  2  0
 54 55  1  0
 38  2  2  0
 54 42  1  0
 35 12  1  0
 30 21  1  0
M  CHG  2   3  -1  18  -1
M  END
>  <UniqueID>  (10) 
10

>  <SMILES>  (10) 
Cc1cccc(Cc2c[n-]/c(=N\C(=O)CSc3ccc([N-]C(=O)[C@@H]4CCCO4)cc3)s2)c1

>  <Energy>  (10) 
89.23138465120694

>  <Genealogy>  (10) 
Cc1cccc(Cc2c[n-]c(=NC(=O)CSc3ccc([N-]C(=O)C4CCCO4)cc3)s2)c1 (protonated)
Cc1cccc(Cc2c[n-]c(=NC(=O)CSc3ccc([N-]C(=O)[C@@H]4CCCO4)cc3)s2)c1 (chirality)
Cc1cccc(Cc2c[n-]/c(=N\C(=O)CSc3ccc([N-]C(=O)[C@@H]4CCCO4)cc3)s2)c1 (cis-trans isomerization)
Cc1cccc(Cc2c[n-]/c(=N\C(=O)CSc3ccc([N-]C(=O)[C@@H]4CCCO4)cc3)s2)c1 (3D coordinates assigned)
Cc1cccc(Cc2c[n-]/c(=N\C(=O)CSc3ccc([N-]C(=O)[C@@H]4CCCO4)cc3)s2)c1 (nonaromatic ring conformer: 89.23138465120694 kcal/mol)

>  <smiles>  (10) 
Cc1cccc(Cc2c[nH]c(=NC(=O)CSc3ccc(NC(=O)C4CCCO4)cc3)s2)c1

>  <score_type>  (10) 
oracle

>  <origin>  (10) 
adg

>  <m_score__min__energy>  (10) 
-13.31

>  <m_primary>  (10) 
energy

$$$$
11:0
     RDKit          3D

 45 46  0  0  0  0  0  0  0  0999 V2000
   57.5070   28.3350   46.1160 C   0  0  0  0  0  0  0  0  0  0  0  0
   58.5230   29.4500   46.1130 C   0  0  0  0  0  0  0  0  0  0  0  0
   59.8180   29.1370   46.2420 C   0  0  0  0  0  0  0  0  0  0  0  0
   60.8390   30.2180   46.3830 C   0  0  0  0  0  0  0  0  0  0  0  0
   60.2760   31.3100   47.3290 C   0  0  1  0  0  0  0  0  0  0  0  0
   61.3880   32.3130   47.8600 C   0  0  2  0  0  0  0  0  0  0  0  0
   62.6720   31.5690   48.3110 C   0  0  0  0  0  0  0  0  0  0  0  0
   60.8780   33.0150   49.1140 C   0  0  0  0  0  0  0  0  0  0  0  0
   60.9160   34.2310   49.2290 O   0  0  0  0  0  0  0  0  0  0  0  0
   61.7670   33.3200   46.7350 C   0  0  2  0  0  0  0  0  0  0  0  0
   62.7420   34.2280   47.1860 O   0  0  0  0  0  0  0  0  0  0  0  0
   60.5340   34.0810   46.2400 C   0  0  0  0  0  0  0  0  0  0  0  0
   59.4990   33.1180   45.6540 C   0  0  0  0  0  0  0  0  0  0  0  0
   59.0140   31.9910   46.6280 C   0  0  2  0  0  0  0  0  0  0  0  0
   58.1040   32.6540   47.7030 C   0  0  0  0  0  0  0  0  0  0  0  0
   58.0880   30.8930   45.8770 C   0  0  1  0  0  0  0  0  0  0  0  0
   57.8760   31.0510   44.3460 C   0  0  0  0  0  0  0  0  0  0  0  0
   56.5900   30.4570   43.8420 C   0  0  0  0  0  0  0  0  0  0  0  0
   56.5500   29.7690   42.5860 N   0  0  0  0  0  0  0  0  0  0  0  0
   55.5470   30.5240   44.5480 O   0  0  0  0  0  0  0  0  0  0  0  0
   57.2614   28.0655   47.1538 H   0  0  0  0  0  0  0  0  0  0  0  0
   56.5955   28.6681   45.5982 H   0  0  0  0  0  0  0  0  0  0  0  0
   57.9232   27.4583   45.5982 H   0  0  0  0  0  0  0  0  0  0  0  0
   60.1307   28.0824   46.2442 H   0  0  0  0  0  0  0  0  0  0  0  0
   61.7641   29.8009   46.8076 H   0  0  0  0  0  0  0  0  0  0  0  0
   61.0637   30.6534   45.3982 H   0  0  0  0  0  0  0  0  0  0  0  0
   59.9206   30.8485   48.2621 H   0  0  0  0  0  0  0  0  0  0  0  0
   62.7146   31.5443   49.4099 H   0  0  0  0  0  0  0  0  0  0  0  0
   62.6557   30.5404   47.9215 H   0  0  0  0  0  0  0  0  0  0  0  0
   63.5563   32.0946   47.9215 H   0  0  0  0  0  0  0  0  0  0  0  0
   60.4654   32.4115   49.9359 H   0  0  0  0  0  0  0  0  0  0  0  0
   62.1815   32.7422   45.8957 H   0  0  0  0  0  0  0  0  0  0  0  0
   62.4400   34.5620   48.0710 H   0  0  0  0  0  0  0  0  0  0  0  0
   60.0835   34.6249   47.0833 H   0  0  0  0  0  0  0  0  0  0  0  0
   60.8461   34.7838   45.4535 H   0  0  0  0  0  0  0  0  0  0  0  0
   58.6208   33.7059   45.3488 H   0  0  0  0  0  0  0  0  0  0  0  0
   59.9960   32.6064   44.8166 H   0  0  0  0  0  0  0  0  0  0  0  0
   58.4685   32.3884   48.7063 H   0  0  0  0  0  0  0  0  0  0  0  0
   58.1291   33.7469   47.5812 H   0  0  0  0  0  0  0  0  0  0  0  0
   57.0714   32.2951   47.5812 H   0  0  0  0  0  0  0  0  0  0  0  0
   57.1284   31.1153   46.3666 H   0  0  0  0  0  0  0  0  0  0  0  0
   57.8789   32.1244   44.1054 H   0  0  0  0  0  0  0  0  0  0  0  0
   58.6936   30.5042   43.8535 H   0  0  0  0  0  0  0  0  0  0  0  0
   57.3960   29.7140   41.9730 H   0  0  0  0  0  0  0  0  0  0  0  0
   55.6550   29.3440   42.2560 H   0  0  0  0  0  0  0  0  0  0  0  0
  1  2  1  0
  2  3  2  0
  3  4  1  0
  4  5  1  0
  5  6  1  0
  6  7  1  1
  6  8  1  0
  8  9  2  0
  6 10  1  0
 10 11  1  0
 10 12  1  0
 12 13  1  0
 13 14  1  0
 14 15  1  1
 14 16  1  0
 16 17  1  0
 17 18  1  0
 18 19  1  0
 18 20  2  0
 16  2  1  0
 14  5  1  0
  1 21  1  0
  1 22  1  0
  1 23  1  0
  3 24  1  0
  4 25  1  0
  4 26  1  0
  5 27  1  1
  7 28  1  0
  7 29  1  0
  7 30  1  0
  8 31  1  0
 10 32  1  6
 11 33  1  0
 12 34  1  0
 12 35  1  0
 13 36  1  0
 13 37  1  0
 15 38  1  0
 15 39  1  0
 15 40  1  0
 16 41  1  1
 17 42  1  0
 17 43  1  0
 19 44  1  0
 19 45  1  0
M  END
>  <UniqueID>  (11) 
11

>  <SMILES>  (11) 
CC1=CC[C@@H]2C(C)(CCC(O)[C@@]2(C)C=O)C1CC(N)=O

>  <Energy>  (11) 
63.34177949101647

>  <Genealogy>  (11) 
CC1=CC[C@@H]2C(C)(CCC(O)[C@@]2(C)C=O)C1CC(N)=O (chirality)
CC1=CC[C@@H]2C(C)(CCC(O)[C@@]2(C)C=O)C1CC(N)=O (3D coordinates assigned)
CC1=CC[C@@H]2C(C)(CCC(O)[C@@]2(C)C=O)C1CC(N)=O (nonaromatic ring conformer: 63.34177949101647 kcal/mol)

>  <smiles>  (11) 
CC1=CCC2C(C)(C=O)C(O)CCC2(C)C1CC(N)=O

>  <score_type>  (11) 
oracle

>  <origin>  (11) 
adg

>  <m_score__min__energy>  (11) 
-7.3099999999999996

>  <m_primary>  (11) 
energy

$$$$
12:0
     RDKit          3D

 59 62  0  0  0  0  0  0  0  0999 V2000
   57.9560   30.1180   42.5940 H   0  0  0  0  0  0  0  0  0  0  0  0
   57.5130   30.9010   43.0530 O   0  0  0  0  0  0  0  0  0  0  0  0
   57.7150   31.2210   44.3980 C   0  0  0  0  0  0  0  0  0  0  0  0
   57.2560   32.4650   44.8490 C   0  0  0  0  0  0  0  0  0  0  0  0
   56.7048   33.1245   44.1625 H   0  0  0  0  0  0  0  0  0  0  0  0
   57.4920   32.8750   46.1620 C   0  0  0  0  0  0  0  0  0  0  0  0
   57.1306   33.8558   46.5048 H   0  0  0  0  0  0  0  0  0  0  0  0
   58.1850   32.0430   47.0390 C   0  0  0  0  0  0  0  0  0  0  0  0
   58.3794   32.3725   48.0703 H   0  0  0  0  0  0  0  0  0  0  0  0
   58.6330   30.7920   46.6110 C   0  0  0  0  0  0  0  0  0  0  0  0
   59.1810   30.1416   47.3086 H   0  0  0  0  0  0  0  0  0  0  0  0
   58.3900   30.3550   45.2950 C   0  0  0  0  0  0  0  0  0  0  0  0
   58.8200   28.9920   44.9210 C   0  0  0  0  0  0  0  0  0  0  0  0
   58.6940   28.5850   43.7320 O   0  0  0  0  0  0  0  0  0  0  0  0
   59.4040   28.1370   45.9130 N   0  0  0  0  0  0  0  0  0  0  0  0
   58.8790   27.7460   47.0430 C   0  0  0  0  0  0  0  0  0  0  0  0
   59.6730   27.5280   48.2810 C   0  0  0  0  0  0  0  0  0  0  0  0
   60.3350   26.4620   48.4110 O   0  0  0  0  0  0  0  0  0  0  0  0
   59.7170   28.5220   49.3140 N   0  0  0  0  0  0  0  0  0  0  0  0
   60.8220   29.3900   49.5910 C   0  0  0  0  0  0  0  0  0  0  0  0
   61.5100   29.2460   50.7990 C   0  0  0  0  0  0  0  0  0  0  0  0
   61.2022   28.4701   51.5154 H   0  0  0  0  0  0  0  0  0  0  0  0
   62.5880   30.0840   51.1010 C   0  0  0  0  0  0  0  0  0  0  0  0
   63.1402   29.9504   52.0429 H   0  0  0  0  0  0  0  0  0  0  0  0
   62.9650   31.0910   50.2080 C   0  0  0  0  0  0  0  0  0  0  0  0
   63.8226   31.7384   50.4432 H   0  0  0  0  0  0  0  0  0  0  0  0
   62.2540   31.2800   49.0120 C   0  0  0  0  0  0  0  0  0  0  0  0
   62.6220   32.3730   48.0860 C   0  0  0  0  0  0  0  0  0  0  0  0
   63.7790   32.4040   47.5860 O   0  0  0  0  0  0  0  0  0  0  0  0
   61.6710   33.3920   47.7350 N   0  0  0  0  0  0  0  0  0  0  0  0
   61.6460   33.9340   46.3750 C   0  0  0  0  0  0  0  0  0  0  0  0
   62.3386   34.7858   46.3054 H   0  0  0  0  0  0  0  0  0  0  0  0
   61.9546   33.1562   45.6610 H   0  0  0  0  0  0  0  0  0  0  0  0
   60.2240   34.4010   46.0460 C   0  0  0  0  0  0  0  0  0  0  0  0
   60.2306   34.9186   45.0754 H   0  0  0  0  0  0  0  0  0  0  0  0
   59.5654   33.5208   46.0081 H   0  0  0  0  0  0  0  0  0  0  0  0
   59.7390   35.2860   47.0400 O   0  0  0  0  0  0  0  0  0  0  0  0
   59.6230   34.6050   48.2770 C   0  0  0  0  0  0  0  0  0  0  0  0
   59.1648   35.2772   49.0174 H   0  0  0  0  0  0  0  0  0  0  0  0
   58.9964   33.7127   48.1315 H   0  0  0  0  0  0  0  0  0  0  0  0
   60.9970   34.1630   48.7830 C   0  0  0  0  0  0  0  0  0  0  0  0
   61.5994   35.0487   49.0332 H   0  0  0  0  0  0  0  0  0  0  0  0
   60.8771   33.5396   49.6813 H   0  0  0  0  0  0  0  0  0  0  0  0
   61.1880   30.4160   48.7040 C   0  0  0  0  0  0  0  0  0  0  0  0
   60.6364   30.5446   47.7610 H   0  0  0  0  0  0  0  0  0  0  0  0
   57.4110   27.4090   47.0510 C   0  0  0  0  0  0  0  0  0  0  0  0
   57.0720   27.3054   48.0923 H   0  0  0  0  0  0  0  0  0  0  0  0
   56.8644   28.2182   46.5446 H   0  0  0  0  0  0  0  0  0  0  0  0
   57.1450   26.1190   46.3160 C   0  0  0  0  0  0  0  0  0  0  0  0
   58.1900   25.1980   46.1150 C   0  0  0  0  0  0  0  0  0  0  0  0
   59.2005   25.4274   46.4841 H   0  0  0  0  0  0  0  0  0  0  0  0
   57.9500   23.9940   45.4490 C   0  0  0  0  0  0  0  0  0  0  0  0
   58.7678   23.2719   45.3084 H   0  0  0  0  0  0  0  0  0  0  0  0
   56.6730   23.7050   44.9610 C   0  0  0  0  0  0  0  0  0  0  0  0
   56.4878   22.7590   44.4311 H   0  0  0  0  0  0  0  0  0  0  0  0
   55.6320   24.6170   45.1460 C   0  0  0  0  0  0  0  0  0  0  0  0
   54.6285   24.3889   44.7576 H   0  0  0  0  0  0  0  0  0  0  0  0
   55.8600   25.8190   45.8230 C   0  0  0  0  0  0  0  0  0  0  0  0
   54.8060   26.7070   46.0060 O   0  0  0  0  0  0  0  0  0  0  0  0
  1  2  1  0
  2  3  1  0
  3  4  2  0
  4  5  1  0
  4  6  1  0
  6  7  1  0
  6  8  2  0
  8  9  1  0
  8 10  1  0
 10 11  1  0
 10 12  2  0
 12 13  1  0
 13 14  2  0
 13 15  1  0
 15 16  2  0
 16 17  1  0
 17 18  2  0
 17 19  1  0
 19 20  1  0
 20 21  2  0
 21 22  1  0
 21 23  1  0
 23 24  1  0
 23 25  2  0
 25 26  1  0
 25 27  1  0
 27 28  1  0
 28 29  2  0
 28 30  1  0
 30 31  1  0
 31 32  1  0
 31 33  1  0
 31 34  1  0
 34 35  1  0
 34 36  1  0
 34 37  1  0
 37 38  1  0
 38 39  1  0
 38 40  1  0
 38 41  1  0
 41 42  1  0
 41 43  1  0
 27 44  2  0
 44 45  1  0
 16 46  1  0
 46 47  1  0
 46 48  1  0
 46 49  1  0
 49 50  2  0
 50 51  1  0
 50 52  1  0
 52 53  1  0
 52 54  2  0
 54 55  1  0
 54 56  1  0
 56 57  1  0
 56 58  2  0
 58 59  1  0
 12  3  1  0
 44 20  1  0
 58 49  1  0
 41 30  1  0
M  CHG  2  19  -1  59  -1
M  END
>  <UniqueID>  (12) 
12

>  <SMILES>  (12) 
O=C([N-]c1cccc(C(=O)N2CCOCC2)c1)/C(Cc1ccccc1[O-])=N\C(=O)c1ccccc1O

>  <Energy>  (12) 
82.17800724148337

>  <Genealogy>  (12) 
O=C([N-]c1cccc(C(=O)N2CCOCC2)c1)C(Cc1ccccc1[O-])=NC(=O)c1ccccc1O (protonated)
O=C([N-]c1cccc(C(=O)N2CCOCC2)c1)/C(Cc1ccccc1[O-])=N\C(=O)c1ccccc1O (cis-trans isomerization)
O=C([N-]c1cccc(C(=O)N2CCOCC2)c1)/C(Cc1ccccc1[O-])=N\C(=O)c1ccccc1O (3D coordinates assigned)
O=C([N-]c1cccc(C(=O)N2CCOCC2)c1)/C(Cc1ccccc1[O-])=N\C(=O)c1ccccc1O (nonaromatic ring conformer: 82.17800724148337 kcal/mol)

>  <smiles>  (12) 
O=C(Nc1cccc(C(=O)N2CCOCC2)c1)C(Cc1ccccc1O)=NC(=O)c1ccccc1O

>  <score_type>  (12) 
oracle

>  <origin>  (12) 
adg

>  <m_score__min__energy>  (12) 
-14.34

>  <m_primary>  (12) 
energy

$$$$
13:0
     RDKit          3D

 62 65  0  0  0  0  0  0  0  0999 V2000
   57.1530   20.8700   42.9880 C   0  0  0  0  0  0  0  0  0  0  0  0
   56.2950   21.9420   43.5220 N   0  0  0  0  0  0  0  0  0  0  0  0
   56.6330   23.2380   42.8850 C   0  0  0  0  0  0  0  0  0  0  0  0
   56.2960   24.4210   43.8010 C   0  0  0  0  0  0  0  0  0  0  0  0
   57.1070   24.3750   45.0340 N   0  0  0  0  0  0  0  0  0  0  0  0
   56.3990   25.3980   46.2650 S   0  0  0  0  0  0  0  0  0  0  0  0
   55.1370   26.0200   45.7330 O   0  0  0  0  0  0  0  0  0  0  0  0
   56.0370   24.5620   47.4640 O   0  0  0  0  0  0  0  0  0  0  0  0
   57.5160   26.6730   46.7580 C   0  0  0  0  0  0  0  0  0  0  0  0
   57.3280   27.9840   46.3060 C   0  0  0  0  0  0  0  0  0  0  0  0
   58.2480   28.9820   46.6340 C   0  0  0  0  0  0  0  0  0  0  0  0
   59.3660   28.6860   47.4360 C   0  0  0  0  0  0  0  0  0  0  0  0
   60.3770   29.6720   47.7200 N   0  0  0  0  0  0  0  0  0  0  0  0
   60.7260   30.1200   49.0390 C   0  0  0  0  0  0  0  0  0  0  0  0
   60.6060   29.3470   50.0260 O   0  0  0  0  0  0  0  0  0  0  0  0
   61.3120   31.4090   49.2440 N   0  0  0  0  0  0  0  0  0  0  0  0
   61.9670   32.2090   48.2480 C   0  0  0  0  0  0  0  0  0  0  0  0
   63.3550   32.0720   48.1140 C   0  0  0  0  0  0  0  0  0  0  0  0
   64.0550   32.8160   47.1620 C   0  0  0  0  0  0  0  0  0  0  0  0
   63.3800   33.7190   46.3490 C   0  0  0  0  0  0  0  0  0  0  0  0
   62.0020   33.8910   46.4900 C   0  0  0  0  0  0  0  0  0  0  0  0
   61.2810   33.1600   47.4480 C   0  0  0  0  0  0  0  0  0  0  0  0
   59.8280   33.4310   47.5780 C   0  0  0  0  0  0  0  0  0  0  0  0
   59.4330   34.0530   48.6030 O   0  0  0  0  0  0  0  0  0  0  0  0
   58.8630   32.9650   46.6050 N   0  0  0  0  0  0  0  0  0  0  0  0
   57.4420   33.2520   46.8340 C   0  0  0  0  0  0  0  0  0  0  0  0
   56.6490   33.1460   45.5300 C   0  0  0  0  0  0  0  0  0  0  0  0
   56.8990   31.9100   44.8920 O   0  0  0  0  0  0  0  0  0  0  0  0
   58.2520   31.8590   44.4890 C   0  0  0  0  0  0  0  0  0  0  0  0
   59.1870   31.8430   45.7080 C   0  0  0  0  0  0  0  0  0  0  0  0
   59.5410   27.3730   47.8990 C   0  0  0  0  0  0  0  0  0  0  0  0
   58.6220   26.3750   47.5660 C   0  0  0  0  0  0  0  0  0  0  0  0
   57.3540   23.0010   45.5380 C   0  0  0  0  0  0  0  0  0  0  0  0
   56.3320   21.9770   45.0040 C   0  0  0  0  0  0  0  0  0  0  0  0
   57.6014   20.3097   43.8217 H   0  0  0  0  0  0  0  0  0  0  0  0
   56.5479   20.1887   42.3718 H   0  0  0  0  0  0  0  0  0  0  0  0
   57.9503   21.3112   42.3718 H   0  0  0  0  0  0  0  0  0  0  0  0
   57.7097   23.2556   42.6604 H   0  0  0  0  0  0  0  0  0  0  0  0
   56.0386   23.3348   41.9645 H   0  0  0  0  0  0  0  0  0  0  0  0
   56.5028   25.3607   43.2678 H   0  0  0  0  0  0  0  0  0  0  0  0
   55.2323   24.3635   44.0754 H   0  0  0  0  0  0  0  0  0  0  0  0
   56.4510   28.2296   45.6891 H   0  0  0  0  0  0  0  0  0  0  0  0
   58.0979   30.0066   46.2630 H   0  0  0  0  0  0  0  0  0  0  0  0
   60.8870   30.0990   46.9140 H   0  0  0  0  0  0  0  0  0  0  0  0
   63.8985   31.3715   48.7651 H   0  0  0  0  0  0  0  0  0  0  0  0
   65.1422   32.6873   47.0553 H   0  0  0  0  0  0  0  0  0  0  0  0
   63.9320   34.2983   45.5942 H   0  0  0  0  0  0  0  0  0  0  0  0
   61.4747   34.6075   45.8431 H   0  0  0  0  0  0  0  0  0  0  0  0
   57.0406   32.5295   47.5598 H   0  0  0  0  0  0  0  0  0  0  0  0
   57.3475   34.2771   47.2216 H   0  0  0  0  0  0  0  0  0  0  0  0
   55.5749   33.2264   45.7531 H   0  0  0  0  0  0  0  0  0  0  0  0
   56.9615   33.9597   44.8591 H   0  0  0  0  0  0  0  0  0  0  0  0
   58.4171   30.9471   43.8965 H   0  0  0  0  0  0  0  0  0  0  0  0
   58.4736   32.7532   43.8879 H   0  0  0  0  0  0  0  0  0  0  0  0
   59.0618   30.8945   46.2509 H   0  0  0  0  0  0  0  0  0  0  0  0
   60.2279   31.9423   45.3664 H   0  0  0  0  0  0  0  0  0  0  0  0
   60.4086   27.1276   48.5291 H   0  0  0  0  0  0  0  0  0  0  0  0
   58.7669   25.3506   47.9396 H   0  0  0  0  0  0  0  0  0  0  0  0
   58.3613   22.6878   45.2262 H   0  0  0  0  0  0  0  0  0  0  0  0
   57.2561   23.0269   46.6333 H   0  0  0  0  0  0  0  0  0  0  0  0
   56.6047   20.9780   45.3751 H   0  0  0  0  0  0  0  0  0  0  0  0
   55.3355   22.2782   45.3593 H   0  0  0  0  0  0  0  0  0  0  0  0
  1  2  1  0
  2  3  1  0
  3  4  1  0
  4  5  1  0
  5  6  1  0
  6  7  2  0
  6  8  2  0
  6  9  1  0
  9 10  2  0
 10 11  1  0
 11 12  2  0
 12 13  1  0
 13 14  1  0
 14 15  2  0
 14 16  1  0
 16 17  1  0
 17 18  2  0
 18 19  1  0
 19 20  2  0
 20 21  1  0
 21 22  2  0
 22 23  1  0
 23 24  2  0
 23 25  1  0
 25 26  1  0
 26 27  1  0
 27 28  1  0
 28 29  1  0
 29 30  1  0
 12 31  1  0
 31 32  2  0
  5 33  1  0
 33 34  1  0
 34  2  1  0
 32  9  1  0
 22 17  1  0
 30 25  1  0
  1 35  1  0
  1 36  1  0
  1 37  1  0
  3 38  1  0
  3 39  1  0
  4 40  1  0
  4 41  1  0
 10 42  1  0
 11 43  1  0
 13 44  1  0
 18 45  1  0
 19 46  1  0
 20 47  1  0
 21 48  1  0
 26 49  1  0
 26 50  1  0
 27 51  1  0
 27 52  1  0
 29 53  1  0
 29 54  1  0
 30 55  1  0
 30 56  1  0
 31 57  1  0
 32 58  1  0
 33 59  1  0
 33 60  1  0
 34 61  1  0
 34 62  1  0
M  CHG  1  16  -1
M  END
>  <UniqueID>  (13) 
13

>  <SMILES>  (13) 
CN1CCN(S(=O)(=O)c2ccc(NC(=O)[N-]c3ccccc3C(=O)N3CCOCC3)cc2)CC1

>  <Energy>  (13) 
87.88785253913203

>  <Genealogy>  (13) 
CN1CCN(S(=O)(=O)c2ccc(NC(=O)[N-]c3ccccc3C(=O)N3CCOCC3)cc2)CC1 (protonated)
CN1CCN(S(=O)(=O)c2ccc(NC(=O)[N-]c3ccccc3C(=O)N3CCOCC3)cc2)CC1 (3D coordinates assigned)
CN1CCN(S(=O)(=O)c2ccc(NC(=O)[N-]c3ccccc3C(=O)N3CCOCC3)cc2)CC1 (nonaromatic ring conformer: 87.88785253913203 kcal/mol)

>  <smiles>  (13) 
CN1CCN(S(=O)(=O)c2ccc(NC(=O)Nc3ccccc3C(=O)N3CCOCC3)cc2)CC1

>  <score_type>  (13) 
oracle

>  <origin>  (13) 
adg

>  <m_score__min__energy>  (13) 
-11.390000000000001

>  <m_primary>  (13) 
energy

$$$$
14:0
     RDKit          3D

 30 31  0  0  0  0  0  0  0  0999 V2000
   56.9920   30.8020   42.6870 C   0  0  0  0  0  0  0  0  0  0  0  0
   56.2100   30.4250   43.8990 C   0  0  0  0  0  0  0  0  0  0  0  0
   55.1190   29.8060   43.7630 O   0  0  0  0  0  0  0  0  0  0  0  0
   56.6510   30.8450   45.1610 O   0  0  0  0  0  0  0  0  0  0  0  0
   57.6980   31.7510   45.3920 C   0  0  0  0  0  0  0  0  0  0  0  0
   57.6440   33.0750   44.9170 C   0  0  0  0  0  0  0  0  0  0  0  0
   58.6990   33.9570   45.1570 C   0  0  0  0  0  0  0  0  0  0  0  0
   59.8160   33.5320   45.8760 C   0  0  0  0  0  0  0  0  0  0  0  0
   59.8760   32.2270   46.3710 C   0  0  0  0  0  0  0  0  0  0  0  0
   58.8130   31.3330   46.1500 C   0  0  0  0  0  0  0  0  0  0  0  0
   58.9080   29.9210   46.6710 C   0  0  0  0  0  0  0  0  0  0  0  0
   58.5230   28.9430   45.5980 C   0  0  0  0  0  0  0  0  0  0  0  0
   58.9930   29.0920   44.4370 O   0  0  0  0  0  0  0  0  0  0  0  0
   57.5920   27.8300   45.8660 C   0  0  0  0  0  0  0  0  0  0  0  0
   57.9530   26.5970   46.3830 C   0  0  0  0  0  0  0  0  0  0  0  0
   56.7940   25.8610   46.4720 C   0  0  0  0  0  0  0  0  0  0  0  0
   55.7940   26.6850   46.0060 C   0  0  0  0  0  0  0  0  0  0  0  0
   54.4540   26.3330   45.9240 O   0  0  0  0  0  0  0  0  0  0  0  0
   56.2640   27.8890   45.6340 N   0  0  0  0  0  0  0  0  0  0  0  0
   57.9438   31.2609   42.9928 H   0  0  0  0  0  0  0  0  0  0  0  0
   57.1946   29.9026   42.0870 H   0  0  0  0  0  0  0  0  0  0  0  0
   56.4146   31.5207   42.0870 H   0  0  0  0  0  0  0  0  0  0  0  0
   56.7640   33.4171   44.3526 H   0  0  0  0  0  0  0  0  0  0  0  0
   58.6493   34.9887   44.7785 H   0  0  0  0  0  0  0  0  0  0  0  0
   60.6511   34.2255   46.0536 H   0  0  0  0  0  0  0  0  0  0  0  0
   60.7596   31.8968   46.9368 H   0  0  0  0  0  0  0  0  0  0  0  0
   59.9413   29.7208   46.9908 H   0  0  0  0  0  0  0  0  0  0  0  0
   58.2214   29.8067   47.5228 H   0  0  0  0  0  0  0  0  0  0  0  0
   58.9647   26.2710   46.6661 H   0  0  0  0  0  0  0  0  0  0  0  0
   56.6882   24.8294   46.8389 H   0  0  0  0  0  0  0  0  0  0  0  0
  1  2  1  0
  2  3  2  0
  2  4  1  0
  4  5  1  0
  5  6  2  0
  6  7  1  0
  7  8  2  0
  8  9  1  0
  9 10  2  0
 10 11  1  0
 11 12  1  0
 12 13  2  0
 12 14  1  0
 14 15  2  0
 15 16  1  0
 16 17  2  0
 17 18  1  0
 17 19  1  0
 10  5  1  0
 19 14  1  0
  1 20  1  0
  1 21  1  0
  1 22  1  0
  6 23  1  0
  7 24  1  0
  8 25  1  0
  9 26  1  0
 11 27  1  0
 11 28  1  0
 15 29  1  0
 16 30  1  0
M  CHG  2  18  -1  19  -1
M  END
>  <UniqueID>  (14) 
14

>  <SMILES>  (14) 
CC(=O)Oc1ccccc1CC(=O)c1ccc([O-])[n-]1

>  <Energy>  (14) 
55.30575649711864

>  <Genealogy>  (14) 
CC(=O)Oc1ccccc1CC(=O)c1ccc([O-])[n-]1 (protonated)
CC(=O)Oc1ccccc1CC(=O)c1ccc([O-])[n-]1 (3D coordinates assigned)
CC(=O)Oc1ccccc1CC(=O)c1ccc([O-])[n-]1 (optimized conformer: 55.30575649711864 kcal/mol)

>  <smiles>  (14) 
CC(=O)Oc1ccccc1CC(=O)c1ccc(O)[nH]1

>  <score_type>  (14) 
oracle

>  <origin>  (14) 
adg

>  <m_score__min__energy>  (14) 
-13.19

>  <m_primary>  (14) 
energy

$$$$
15:0
     RDKit          3D

 54 55  0  0  0  0  0  0  0  0999 V2000
   59.8360   34.0760   49.5010 C   0  0  0  0  0  0  0  0  0  0  0  0
   60.1270   33.5350   48.3110 C   0  0  0  0  0  0  0  0  0  0  0  0
   61.3880   32.7090   48.1630 C   0  0  0  0  0  0  0  0  0  0  0  0
   61.4140   32.0430   46.9150 O   0  0  0  0  0  0  0  0  0  0  0  0
   61.2340   30.6470   47.0760 C   0  0  0  0  0  0  0  0  0  0  0  0
   59.7500   30.2890   46.9550 C   0  0  0  0  0  0  0  0  0  0  0  0
   59.3370   30.3000   45.5330 N   0  0  0  0  0  0  0  0  0  0  0  0
   57.9460   30.7850   45.3810 C   0  0  0  0  0  0  0  0  0  0  0  0
   57.5000   30.6550   43.9200 C   0  0  0  0  0  0  0  0  0  0  0  0
   56.1690   29.9170   43.8090 C   0  0  0  0  0  0  0  0  0  0  0  0
   59.5130   28.9680   44.9100 C   0  0  0  0  0  0  0  0  0  0  0  0
   59.8970   27.9370   45.9760 C   0  0  0  0  0  0  0  0  0  0  0  0
   58.8060   26.9150   46.1450 C   0  0  0  0  0  0  0  0  0  0  0  0
   59.1270   25.5670   46.3740 C   0  0  0  0  0  0  0  0  0  0  0  0
   58.1130   24.6140   46.4970 C   0  0  0  0  0  0  0  0  0  0  0  0
   56.7730   24.9950   46.3850 C   0  0  0  0  0  0  0  0  0  0  0  0
   56.4410   26.3330   46.1430 C   0  0  0  0  0  0  0  0  0  0  0  0
   55.1030   26.6980   46.0280 O   0  0  0  0  0  0  0  0  0  0  0  0
   57.4580   27.2910   46.0200 C   0  0  0  0  0  0  0  0  0  0  0  0
   59.2590   33.7950   47.1300 C   0  0  0  0  0  0  0  0  0  0  0  0
   57.8870   33.4810   47.1720 C   0  0  0  0  0  0  0  0  0  0  0  0
   57.0680   33.7360   46.0690 C   0  0  0  0  0  0  0  0  0  0  0  0
   57.6040   34.3140   44.9150 C   0  0  0  0  0  0  0  0  0  0  0  0
   58.9610   34.6370   44.8640 C   0  0  0  0  0  0  0  0  0  0  0  0
   59.7860   34.3820   45.9640 C   0  0  0  0  0  0  0  0  0  0  0  0
   58.9236   34.6782   49.6231 H   0  0  0  0  0  0  0  0  0  0  0  0
   60.5094   33.9182   50.3564 H   0  0  0  0  0  0  0  0  0  0  0  0
   62.2628   33.3719   48.2353 H   0  0  0  0  0  0  0  0  0  0  0  0
   61.4090   31.9547   48.9634 H   0  0  0  0  0  0  0  0  0  0  0  0
   61.8009   30.1152   46.2977 H   0  0  0  0  0  0  0  0  0  0  0  0
   61.5953   30.3504   48.0718 H   0  0  0  0  0  0  0  0  0  0  0  0
   59.5825   29.2860   47.3745 H   0  0  0  0  0  0  0  0  0  0  0  0
   59.1550   31.0308   47.5079 H   0  0  0  0  0  0  0  0  0  0  0  0
   57.2799   30.1861   46.0195 H   0  0  0  0  0  0  0  0  0  0  0  0
   57.8986   31.8427   45.6794 H   0  0  0  0  0  0  0  0  0  0  0  0
   57.3889   31.6608   43.4887 H   0  0  0  0  0  0  0  0  0  0  0  0
   58.2623   30.0791   43.3747 H   0  0  0  0  0  0  0  0  0  0  0  0
   55.7832   29.7031   44.8167 H   0  0  0  0  0  0  0  0  0  0  0  0
   55.4466   30.5434   43.2652 H   0  0  0  0  0  0  0  0  0  0  0  0
   56.3177   28.9725   43.2652 H   0  0  0  0  0  0  0  0  0  0  0  0
   58.5711   28.6628   44.4308 H   0  0  0  0  0  0  0  0  0  0  0  0
   60.3135   29.0244   44.1577 H   0  0  0  0  0  0  0  0  0  0  0  0
   60.8234   27.4290   45.6698 H   0  0  0  0  0  0  0  0  0  0  0  0
   60.0456   28.4572   46.9337 H   0  0  0  0  0  0  0  0  0  0  0  0
   60.1802   25.2607   46.4568 H   0  0  0  0  0  0  0  0  0  0  0  0
   58.3700   23.5607   46.6825 H   0  0  0  0  0  0  0  0  0  0  0  0
   55.9778   24.2419   46.4872 H   0  0  0  0  0  0  0  0  0  0  0  0
   54.4270   26.4650   46.7460 H   0  0  0  0  0  0  0  0  0  0  0  0
   57.1989   28.3421   45.8247 H   0  0  0  0  0  0  0  0  0  0  0  0
   57.4570   33.0319   48.0794 H   0  0  0  0  0  0  0  0  0  0  0  0
   55.9987   33.4812   46.1091 H   0  0  0  0  0  0  0  0  0  0  0  0
   56.9573   34.5141   44.0480 H   0  0  0  0  0  0  0  0  0  0  0  0
   59.3825   35.0933   43.9562 H   0  0  0  0  0  0  0  0  0  0  0  0
   60.8539   34.6418   45.9179 H   0  0  0  0  0  0  0  0  0  0  0  0
  1  2  2  0
  2  3  1  0
  3  4  1  0
  4  5  1  0
  5  6  1  0
  6  7  1  0
  7  8  1  0
  8  9  1  0
  9 10  1  0
  7 11  1  0
 11 12  1  0
 12 13  1  0
 13 14  2  0
 14 15  1  0
 15 16  2  0
 16 17  1  0
 17 18  1  0
 17 19  2  0
  2 20  1  0
 20 21  2  0
 21 22  1  0
 22 23  2  0
 23 24  1  0
 24 25  2  0
 19 13  1  0
 25 20  1  0
  1 26  1  0
  1 27  1  0
  3 28  1  0
  3 29  1  0
  5 30  1  0
  5 31  1  0
  6 32  1  0
  6 33  1  0
  8 34  1  0
  8 35  1  0
  9 36  1  0
  9 37  1  0
 10 38  1  0
 10 39  1  0
 10 40  1  0
 11 41  1  0
 11 42  1  0
 12 43  1  0
 12 44  1  0
 14 45  1  0
 15 46  1  0
 16 47  1  0
 18 48  1  0
 19 49  1  0
 21 50  1  0
 22 51  1  0
 23 52  1  0
 24 53  1  0
 25 54  1  0
M  END
>  <UniqueID>  (15) 
15

>  <SMILES>  (15) 
C=C(COCCN(CCC)CCc1cccc(O)c1)c1ccccc1

>  <Energy>  (15) 
54.437718600127674

>  <Genealogy>  (15) 
C=C(COCCN(CCC)CCc1cccc(O)c1)c1ccccc1 (3D coordinates assigned)
C=C(COCCN(CCC)CCc1cccc(O)c1)c1ccccc1 (optimized conformer: 54.437718600127674 kcal/mol)

>  <smiles>  (15) 
C=C(COCCN(CCC)CCc1cccc(O)c1)c1ccccc1

>  <score_type>  (15) 
oracle

>  <origin>  (15) 
adg

>  <m_score__min__energy>  (15) 
-8.8300000000000001

>  <m_primary>  (15) 
energy

$$$$
16:0
     RDKit          3D

 31 32  0  0  0  0  0  0  0  0999 V2000
   63.6950   33.1380   47.1220 C   0  0  0  0  0  0  0  0  0  0  0  0
   62.2820   33.5130   47.4320 C   0  0  0  0  0  0  0  0  0  0  0  0
   61.8180   33.7090   48.7320 C   0  0  0  0  0  0  0  0  0  0  0  0
   60.2130   34.2130   48.6420 S   0  0  0  0  0  0  0  0  0  0  0  0
   60.1760   34.1560   46.9650 C   0  0  0  0  0  0  0  0  0  0  0  0
   59.1380   34.4970   46.2600 N   0  0  0  0  0  0  0  0  0  0  0  0
   58.4040   33.6430   45.3760 C   0  0  0  0  0  0  0  0  0  0  0  0
   58.4620   33.8570   44.1360 O   0  0  0  0  0  0  0  0  0  0  0  0
   57.4070   32.6510   45.9130 C   0  0  0  0  0  0  0  0  0  0  0  0
   56.6130   32.0940   44.8660 O   0  0  0  0  0  0  0  0  0  0  0  0
   57.0330   31.0350   44.0510 C   0  0  0  0  0  0  0  0  0  0  0  0
   57.0530   31.1790   42.7980 O   0  0  0  0  0  0  0  0  0  0  0  0
   57.4560   29.7440   44.6530 C   0  0  0  0  0  0  0  0  0  0  0  0
   58.8280   29.4810   44.8430 C   0  0  0  0  0  0  0  0  0  0  0  0
   59.2510   28.2740   45.4080 C   0  0  0  0  0  0  0  0  0  0  0  0
   58.3140   27.3140   45.7890 C   0  0  0  0  0  0  0  0  0  0  0  0
   56.9530   27.5570   45.6080 C   0  0  0  0  0  0  0  0  0  0  0  0
   56.5160   28.7620   45.0440 C   0  0  0  0  0  0  0  0  0  0  0  0
   55.1510   28.9630   44.8800 O   0  0  0  0  0  0  0  0  0  0  0  0
   61.3730   33.7790   46.4550 N   0  0  0  0  0  0  0  0  0  0  0  0
   64.2496   32.9908   48.0605 H   0  0  0  0  0  0  0  0  0  0  0  0
   63.7073   32.2055   46.5387 H   0  0  0  0  0  0  0  0  0  0  0  0
   64.1681   33.9417   46.5387 H   0  0  0  0  0  0  0  0  0  0  0  0
   62.3982   33.5606   49.6547 H   0  0  0  0  0  0  0  0  0  0  0  0
   57.9477   31.8399   46.4227 H   0  0  0  0  0  0  0  0  0  0  0  0
   56.7396   33.1745   46.6133 H   0  0  0  0  0  0  0  0  0  0  0  0
   59.5731   30.2328   44.5438 H   0  0  0  0  0  0  0  0  0  0  0  0
   60.3244   28.0814   45.5522 H   0  0  0  0  0  0  0  0  0  0  0  0
   58.6488   26.3647   46.2325 H   0  0  0  0  0  0  0  0  0  0  0  0
   56.2175   26.7970   45.9103 H   0  0  0  0  0  0  0  0  0  0  0  0
   61.6040   33.7420   45.4380 H   0  0  0  0  0  0  0  0  0  0  0  0
  1  2  1  0
  2  3  2  0
  3  4  1  0
  4  5  1  0
  5  6  2  3
  6  7  1  0
  7  8  2  0
  7  9  1  0
  9 10  1  0
 10 11  1  0
 11 12  2  0
 11 13  1  0
 13 14  2  0
 14 15  1  0
 15 16  2  0
 16 17  1  0
 17 18  2  0
 18 19  1  0
  5 20  1  0
 20  2  1  0
 18 13  1  0
  1 21  1  0
  1 22  1  0
  1 23  1  0
  3 24  1  0
  9 25  1  0
  9 26  1  0
 14 27  1  0
 15 28  1  0
 16 29  1  0
 17 30  1  0
 20 31  1  0
M  CHG  1  19  -1
M  END
>  <UniqueID>  (16) 
16

>  <SMILES>  (16) 
Cc1csc(=NC(=O)COC(=O)c2ccccc2[O-])[nH]1

>  <Energy>  (16) 
68.4478644206262

>  <Genealogy>  (16) 
Cc1csc(=NC(=O)COC(=O)c2ccccc2[O-])[nH]1 (protonated)
Cc1csc(=NC(=O)COC(=O)c2ccccc2[O-])[nH]1 (3D coordinates assigned)
Cc1csc(=NC(=O)COC(=O)c2ccccc2[O-])[nH]1 (optimized conformer: 68.4478644206262 kcal/mol)

>  <smiles>  (16) 
Cc1csc(=NC(=O)COC(=O)c2ccccc2O)[nH]1

>  <score_type>  (16) 
oracle

>  <origin>  (16) 
adg

>  <m_score__min__energy>  (16) 
-11.09

>  <m_primary>  (16) 
energy

$$$$
17:0
     RDKit          3D

 41 43  0  0  0  0  0  0  0  0999 V2000
   57.4000   31.9250   42.2930 C   0  0  0  0  0  0  0  0  0  0  0  0
   57.7910   31.9820   43.5840 C   0  0  0  0  0  0  0  0  0  0  0  0
   57.9380   33.2210   44.1360 N   0  0  0  0  0  0  0  0  0  0  0  0
   58.2980   33.4040   45.4300 C   0  0  0  0  0  0  0  0  0  0  0  0
   58.3610   34.5790   45.8860 O   0  0  0  0  0  0  0  0  0  0  0  0
   58.5950   32.3310   46.2240 N   0  0  0  0  0  0  0  0  0  0  0  0
   58.9510   32.5290   47.6460 C   0  0  0  0  0  0  0  0  0  0  0  0
   60.4490   32.6190   47.7950 C   0  0  0  0  0  0  0  0  0  0  0  0
   61.1340   31.7510   48.6620 C   0  0  0  0  0  0  0  0  0  0  0  0
   62.5150   31.8780   48.8410 C   0  0  0  0  0  0  0  0  0  0  0  0
   63.2210   32.8720   48.1570 C   0  0  0  0  0  0  0  0  0  0  0  0
   62.5470   33.7410   47.2960 C   0  0  0  0  0  0  0  0  0  0  0  0
   61.1650   33.6200   47.1170 C   0  0  0  0  0  0  0  0  0  0  0  0
   58.5150   31.0620   45.7140 C   0  0  0  0  0  0  0  0  0  0  0  0
   58.9180   30.0970   46.4230 O   0  0  0  0  0  0  0  0  0  0  0  0
   58.0270   30.8280   44.3970 C   0  0  0  0  0  0  0  0  0  0  0  0
   57.8000   29.5600   43.9380 C   0  0  0  0  0  0  0  0  0  0  0  0
   57.5000   28.3780   44.7840 C   0  0  0  0  0  0  0  0  0  0  0  0
   56.2020   28.1590   45.2470 C   0  0  0  0  0  0  0  0  0  0  0  0
   55.1710   29.0300   44.9100 O   0  0  0  0  0  0  0  0  0  0  0  0
   55.9330   27.0790   46.0180 N   0  0  0  0  0  0  0  0  0  0  0  0
   56.9050   26.2010   46.3770 C   0  0  0  0  0  0  0  0  0  0  0  0
   56.5920   25.1980   47.0740 O   0  0  0  0  0  0  0  0  0  0  0  0
   58.2040   26.4090   45.9860 N   0  0  0  0  0  0  0  0  0  0  0  0
   59.2530   25.4400   46.3470 C   0  0  0  0  0  0  0  0  0  0  0  0
   58.5100   27.4850   45.1910 C   0  0  0  0  0  0  0  0  0  0  0  0
   59.7010   27.6820   44.8190 O   0  0  0  0  0  0  0  0  0  0  0  0
   57.2669   30.9501   41.8012 H   0  0  0  0  0  0  0  0  0  0  0  0
   57.2146   32.8534   41.7330 H   0  0  0  0  0  0  0  0  0  0  0  0
   57.7480   34.0780   43.5630 H   0  0  0  0  0  0  0  0  0  0  0  0
   58.4921   33.4600   48.0102 H   0  0  0  0  0  0  0  0  0  0  0  0
   58.5804   31.6759   48.2332 H   0  0  0  0  0  0  0  0  0  0  0  0
   60.5815   30.9682   49.2023 H   0  0  0  0  0  0  0  0  0  0  0  0
   63.0462   31.1953   49.5205 H   0  0  0  0  0  0  0  0  0  0  0  0
   64.3077   32.9698   48.2969 H   0  0  0  0  0  0  0  0  0  0  0  0
   63.1040   34.5220   46.7577 H   0  0  0  0  0  0  0  0  0  0  0  0
   60.6370   34.3108   46.4432 H   0  0  0  0  0  0  0  0  0  0  0  0
   57.8434   29.4028   42.8502 H   0  0  0  0  0  0  0  0  0  0  0  0
   59.3274   25.3713   47.4423 H   0  0  0  0  0  0  0  0  0  0  0  0
   58.9980   24.4528   45.9341 H   0  0  0  0  0  0  0  0  0  0  0  0
   60.2169   25.7723   45.9341 H   0  0  0  0  0  0  0  0  0  0  0  0
  1  2  2  0
  2  3  1  0
  3  4  1  0
  4  5  2  0
  4  6  1  0
  6  7  1  0
  7  8  1  0
  8  9  2  0
  9 10  1  0
 10 11  2  0
 11 12  1  0
 12 13  2  0
  6 14  1  0
 14 15  2  0
 14 16  1  0
 16 17  2  3
 17 18  1  0
 18 19  2  0
 19 20  1  0
 19 21  1  0
 21 22  1  0
 22 23  2  0
 22 24  1  0
 24 25  1  0
 24 26  1  0
 26 27  2  0
 16  2  1  0
 26 18  1  0
 13  8  1  0
  1 28  1  0
  1 29  1  0
  3 30  1  0
  7 31  1  0
  7 32  1  0
  9 33  1  0
 10 34  1  0
 11 35  1  0
 12 36  1  0
 13 37  1  0
 17 38  1  0
 25 39  1  0
 25 40  1  0
 25 41  1  0
M  CHG  2  20  -1  21  -1
M  END
>  <UniqueID>  (17) 
17

>  <SMILES>  (17) 
C=c1[nH]c(=O)n(Cc2ccccc2)c(=O)c1=Cc1c([O-])[n-]c(=O)n(C)c1=O

>  <Energy>  (17) 
74.80866899165895

>  <Genealogy>  (17) 
C=c1[nH]c(=O)n(Cc2ccccc2)c(=O)c1=Cc1c([O-])[n-]c(=O)n(C)c1=O (protonated)
C=c1[nH]c(=O)n(Cc2ccccc2)c(=O)c1=Cc1c([O-])[n-]c(=O)n(C)c1=O (3D coordinates assigned)
C=c1[nH]c(=O)n(Cc2ccccc2)c(=O)c1=Cc1c([O-])[n-]c(=O)n(C)c1=O (optimized conformer: 74.80866899165895 kcal/mol)

>  <smiles>  (17) 
C=c1[nH]c(=O)n(Cc2ccccc2)c(=O)c1=Cc1c(O)[nH]c(=O)n(C)c1=O

>  <score_type>  (17) 
oracle

>  <origin>  (17) 
adg

>  <m_score__min__energy>  (17) 
-13.710000000000001

>  <m_primary>  (17) 
energy

$$$$
18:0
     RDKit          3D

 44 47  0  0  0  0  0  0  0  0999 V2000
   58.4760   30.2290   46.0420 O   0  0  0  0  0  0  0  0  0  0  0  0
   58.6540   29.9310   44.8300 C   0  0  0  0  0  0  0  0  0  0  0  0
   59.4960   28.7430   44.4790 C   0  0  0  0  0  0  0  0  0  0  0  0
   59.3850   27.7080   45.5540 C   0  0  0  0  0  0  0  0  0  0  0  0
   60.4360   27.1440   46.2730 C   0  0  0  0  0  0  0  0  0  0  0  0
   59.9750   26.1760   47.1010 N   0  0  0  0  0  0  0  0  0  0  0  0
   58.6460   26.1190   46.9010 C   0  0  0  0  0  0  0  0  0  0  0  0
   57.7380   25.2510   47.5070 C   0  0  0  0  0  0  0  0  0  0  0  0
   56.3900   25.3330   47.1180 C   0  0  0  0  0  0  0  0  0  0  0  0
   55.9810   26.2700   46.1400 C   0  0  0  0  0  0  0  0  0  0  0  0
   54.6470   26.3320   45.7590 O   0  0  0  0  0  0  0  0  0  0  0  0
   56.9200   27.1350   45.5480 C   0  0  0  0  0  0  0  0  0  0  0  0
   58.2500   27.0300   45.9560 C   0  0  0  0  0  0  0  0  0  0  0  0
   58.0130   30.6890   43.7940 N   0  0  0  0  0  0  0  0  0  0  0  0
   57.1010   31.7940   44.0800 C   0  0  0  0  0  0  0  0  0  0  0  0
   57.7100   32.7330   45.0730 C   0  0  0  0  0  0  0  0  0  0  0  0
   56.9960   33.4200   45.9820 N   0  0  0  0  0  0  0  0  0  0  0  0
   57.8550   34.1730   46.6470 N   0  0  0  0  0  0  0  0  0  0  0  0
   59.0700   33.9180   46.1250 C   0  0  0  0  0  0  0  0  0  0  0  0
   60.3190   34.6120   46.5600 C   0  0  0  0  0  0  0  0  0  0  0  0
   61.3660   33.6010   46.9310 C   0  0  0  0  0  0  0  0  0  0  0  0
   62.7300   33.8990   46.7650 C   0  0  0  0  0  0  0  0  0  0  0  0
   63.7020   32.9440   47.0760 C   0  0  0  0  0  0  0  0  0  0  0  0
   63.3210   31.6850   47.5480 C   0  0  0  0  0  0  0  0  0  0  0  0
   61.9670   31.3760   47.7040 C   0  0  0  0  0  0  0  0  0  0  0  0
   60.9910   32.3270   47.3920 C   0  0  0  0  0  0  0  0  0  0  0  0
   59.0250   33.0250   45.1160 N   0  0  0  0  0  0  0  0  0  0  0  0
   59.1488   28.3181   43.5256 H   0  0  0  0  0  0  0  0  0  0  0  0
   60.5459   29.0571   44.3841 H   0  0  0  0  0  0  0  0  0  0  0  0
   61.4908   27.4423   46.1815 H   0  0  0  0  0  0  0  0  0  0  0  0
   60.5440   25.5870   47.7490 H   0  0  0  0  0  0  0  0  0  0  0  0
   58.0665   24.5252   48.2654 H   0  0  0  0  0  0  0  0  0  0  0  0
   55.6475   24.6638   47.5772 H   0  0  0  0  0  0  0  0  0  0  0  0
   56.6153   27.8699   44.7884 H   0  0  0  0  0  0  0  0  0  0  0  0
   58.1580   30.4080   42.7970 H   0  0  0  0  0  0  0  0  0  0  0  0
   56.8899   32.3394   43.1484 H   0  0  0  0  0  0  0  0  0  0  0  0
   56.1697   31.3867   44.5005 H   0  0  0  0  0  0  0  0  0  0  0  0
   60.6931   35.2385   45.7369 H   0  0  0  0  0  0  0  0  0  0  0  0
   60.0970   35.2397   47.4356 H   0  0  0  0  0  0  0  0  0  0  0  0
   63.0332   34.8873   46.3890 H   0  0  0  0  0  0  0  0  0  0  0  0
   64.7681   33.1836   46.9491 H   0  0  0  0  0  0  0  0  0  0  0  0
   64.0876   30.9365   47.7970 H   0  0  0  0  0  0  0  0  0  0  0  0
   61.6689   30.3834   48.0727 H   0  0  0  0  0  0  0  0  0  0  0  0
   59.9259   32.0776   47.5076 H   0  0  0  0  0  0  0  0  0  0  0  0
  1  2  2  0
  2  3  1  0
  3  4  1  0
  4  5  2  0
  5  6  1  0
  6  7  1  0
  7  8  2  0
  8  9  1  0
  9 10  2  0
 10 11  1  0
 10 12  1  0
 12 13  2  0
  2 14  1  0
 14 15  1  0
 15 16  1  0
 16 17  2  0
 17 18  1  0
 18 19  1  0
 19 20  1  0
 20 21  1  0
 21 22  2  0
 22 23  1  0
 23 24  2  0
 24 25  1  0
 25 26  2  0
 19 27  2  0
 13  4  1  0
 27 16  1  0
 13  7  1  0
 26 21  1  0
  3 28  1  0
  3 29  1  0
  5 30  1  0
  6 31  1  0
  8 32  1  0
  9 33  1  0
 12 34  1  0
 14 35  1  0
 15 36  1  0
 15 37  1  0
 20 38  1  0
 20 39  1  0
 22 40  1  0
 23 41  1  0
 24 42  1  0
 25 43  1  0
 26 44  1  0
M  CHG  2  11  -1  18  -1
M  END
>  <UniqueID>  (18) 
18

>  <SMILES>  (18) 
O=C(Cc1c[nH]c2ccc([O-])cc12)NCc1n[n-]c(Cc2ccccc2)n1

>  <Energy>  (18) 
105.35370221289536

>  <Genealogy>  (18) 
O=C(Cc1c[nH]c2ccc([O-])cc12)NCc1n[n-]c(Cc2ccccc2)n1 (protonated)
O=C(Cc1c[nH]c2ccc([O-])cc12)NCc1n[n-]c(Cc2ccccc2)n1 (3D coordinates assigned)
O=C(Cc1c[nH]c2ccc([O-])cc12)NCc1n[n-]c(Cc2ccccc2)n1 (optimized conformer: 105.35370221289536 kcal/mol)

>  <smiles>  (18) 
O=C(Cc1c[nH]c2ccc(O)cc12)NCc1n[nH]c(Cc2ccccc2)n1

>  <score_type>  (18) 
oracle

>  <origin>  (18) 
adg

>  <m_score__min__energy>  (18) 
-13.49

>  <m_primary>  (18) 
energy

$$$$
19:0
     RDKit          3D

 73 77  0  0  0  0  0  0  0  0999 V2000
   58.8610   33.8810   51.1390 O   0  0  0  0  0  0  0  0  0  0  0  0
   58.4180   32.7030   51.0640 C   0  0  0  0  0  0  0  0  0  0  0  0
   58.4460   32.0050   49.8080 N   0  0  0  0  0  0  0  0  0  0  0  0
   59.0560   32.5520   48.6310 C   0  0  0  0  0  0  0  0  0  0  0  0
   58.3140   32.5850   47.4430 C   0  0  0  0  0  0  0  0  0  0  0  0
   58.8630   33.1240   46.2730 C   0  0  0  0  0  0  0  0  0  0  0  0
   57.9210   33.1480   44.7800 S   0  0  0  0  0  0  0  0  0  0  0  0
   58.8450   33.3730   43.6170 O   0  0  0  0  0  0  0  0  0  0  0  0
   56.9480   34.2930   44.8280 O   0  0  0  0  0  0  0  0  0  0  0  0
   57.0470   31.6540   44.5400 N   0  0  0  0  0  0  0  0  0  0  0  0
   57.0420   31.2840   43.1170 C   0  0  0  0  0  0  0  0  0  0  0  0
   56.2810   29.9560   42.9180 C   0  0  0  0  0  0  0  0  0  0  0  0
   55.8690   29.3890   44.1490 O   0  0  0  0  0  0  0  0  0  0  0  0
   56.9880   29.2190   44.9970 C   0  0  0  0  0  0  0  0  0  0  0  0
   57.6400   30.5730   45.3440 C   0  0  0  0  0  0  0  0  0  0  0  0
   60.1650   33.6340   46.2930 C   0  0  0  0  0  0  0  0  0  0  0  0
   60.9220   33.5870   47.4650 C   0  0  0  0  0  0  0  0  0  0  0  0
   60.3840   33.0370   48.6400 C   0  0  0  0  0  0  0  0  0  0  0  0
   61.2210   32.9090   49.8040 N   0  0  0  0  0  0  0  0  0  0  0  0
   61.9380   34.0780   50.3280 C   0  0  0  0  0  0  0  0  0  0  0  0
   63.4570   33.8400   50.2950 C   0  0  0  0  0  0  0  0  0  0  0  0
   63.8630   32.3990   50.6830 C   0  0  0  0  0  0  0  0  0  0  0  0
   62.7110   31.5950   51.2970 C   0  0  0  0  0  0  0  0  0  0  0  0
   61.5100   31.5700   50.3430 C   0  0  0  0  0  0  0  0  0  0  0  0
   57.8450   32.0610   52.2670 C   0  0  0  0  0  0  0  0  0  0  0  0
   56.5950   31.4210   52.1800 C   0  0  0  0  0  0  0  0  0  0  0  0
   56.0120   30.8310   53.3090 C   0  0  0  0  0  0  0  0  0  0  0  0
   54.4330   30.0510   53.1820 S   0  0  0  0  0  0  0  0  0  0  0  0
   53.9510   29.6790   54.5570 O   0  0  0  0  0  0  0  0  0  0  0  0
   54.5760   28.7850   52.3830 O   0  0  0  0  0  0  0  0  0  0  0  0
   53.2530   31.0870   52.4200 N   0  0  0  0  0  0  0  0  0  0  0  0
   52.0250   31.1560   53.2250 C   0  0  0  0  0  0  0  0  0  0  0  0
   51.0110   32.1080   52.5540 C   0  0  0  0  0  0  0  0  0  0  0  0
   51.4150   32.4940   51.2500 O   0  0  0  0  0  0  0  0  0  0  0  0
   51.7230   31.3470   50.4820 C   0  0  0  0  0  0  0  0  0  0  0  0
   52.9440   30.6050   51.0620 C   0  0  0  0  0  0  0  0  0  0  0  0
   56.6830   30.8740   54.5370 C   0  0  0  0  0  0  0  0  0  0  0  0
   57.9280   31.4960   54.6340 C   0  0  0  0  0  0  0  0  0  0  0  0
   58.5160   32.0890   53.5110 C   0  0  0  0  0  0  0  0  0  0  0  0
   60.1160   32.8020   53.6940 Cl  0  0  0  0  0  0  0  0  0  0  0  0
   57.9180   31.1100   49.7060 H   0  0  0  0  0  0  0  0  0  0  0  0
   57.2900   32.1835   47.4292 H   0  0  0  0  0  0  0  0  0  0  0  0
   56.5481   32.0771   42.5364 H   0  0  0  0  0  0  0  0  0  0  0  0
   58.0795   31.1599   42.7732 H   0  0  0  0  0  0  0  0  0  0  0  0
   55.3914   30.1461   42.2995 H   0  0  0  0  0  0  0  0  0  0  0  0
   56.9625   29.2448   42.4284 H   0  0  0  0  0  0  0  0  0  0  0  0
   56.6618   28.7298   45.9267 H   0  0  0  0  0  0  0  0  0  0  0  0
   57.7308   28.6009   44.4714 H   0  0  0  0  0  0  0  0  0  0  0  0
   57.4819   30.7876   46.4112 H   0  0  0  0  0  0  0  0  0  0  0  0
   58.7161   30.5157   45.1231 H   0  0  0  0  0  0  0  0  0  0  0  0
   60.5946   34.0742   45.3811 H   0  0  0  0  0  0  0  0  0  0  0  0
   61.9479   33.9839   47.4682 H   0  0  0  0  0  0  0  0  0  0  0  0
   61.6961   34.9566   49.7120 H   0  0  0  0  0  0  0  0  0  0  0  0
   61.6278   34.2470   51.3697 H   0  0  0  0  0  0  0  0  0  0  0  0
   63.8192   34.0416   49.2761 H   0  0  0  0  0  0  0  0  0  0  0  0
   63.9070   34.5147   51.0382 H   0  0  0  0  0  0  0  0  0  0  0  0
   64.2110   31.8778   49.7790 H   0  0  0  0  0  0  0  0  0  0  0  0
   64.6532   32.4743   51.4445 H   0  0  0  0  0  0  0  0  0  0  0  0
   63.0472   30.5645   51.4839 H   0  0  0  0  0  0  0  0  0  0  0  0
   62.4073   32.0700   52.2415 H   0  0  0  0  0  0  0  0  0  0  0  0
   61.7309   30.8887   49.5081 H   0  0  0  0  0  0  0  0  0  0  0  0
   60.6293   31.2271   50.9059 H   0  0  0  0  0  0  0  0  0  0  0  0
   56.0695   31.3835   51.2144 H   0  0  0  0  0  0  0  0  0  0  0  0
   51.5844   30.1513   53.3054 H   0  0  0  0  0  0  0  0  0  0  0  0
   52.2697   31.5354   54.2281 H   0  0  0  0  0  0  0  0  0  0  0  0
   50.0386   31.5982   52.4865 H   0  0  0  0  0  0  0  0  0  0  0  0
   50.9464   33.0178   53.1689 H   0  0  0  0  0  0  0  0  0  0  0  0
   50.8563   30.6696   50.4837 H   0  0  0  0  0  0  0  0  0  0  0  0
   51.9612   31.6656   49.4564 H   0  0  0  0  0  0  0  0  0  0  0  0
   52.7254   29.5277   51.1028 H   0  0  0  0  0  0  0  0  0  0  0  0
   53.8125   30.7953   50.4143 H   0  0  0  0  0  0  0  0  0  0  0  0
   56.2275   30.4163   55.4275 H   0  0  0  0  0  0  0  0  0  0  0  0
   58.4517   31.5205   55.6010 H   0  0  0  0  0  0  0  0  0  0  0  0
  1  2  2  0
  2  3  1  0
  3  4  1  0
  4  5  2  0
  5  6  1  0
  6  7  1  0
  7  8  2  0
  7  9  2  0
  7 10  1  0
 10 11  1  0
 11 12  1  0
 12 13  1  0
 13 14  1  0
 14 15  1  0
  6 16  2  0
 16 17  1  0
 17 18  2  0
 18 19  1  0
 19 20  1  0
 20 21  1  0
 21 22  1  0
 22 23  1  0
 23 24  1  0
  2 25  1  0
 25 26  2  0
 26 27  1  0
 27 28  1  0
 28 29  2  0
 28 30  2  0
 28 31  1  0
 31 32  1  0
 32 33  1  0
 33 34  1  0
 34 35  1  0
 35 36  1  0
 27 37  2  0
 37 38  1  0
 38 39  2  0
 39 40  1  0
 18  4  1  0
 24 19  1  0
 39 25  1  0
 15 10  1  0
 36 31  1  0
  3 41  1  0
  5 42  1  0
 11 43  1  0
 11 44  1  0
 12 45  1  0
 12 46  1  0
 14 47  1  0
 14 48  1  0
 15 49  1  0
 15 50  1  0
 16 51  1  0
 17 52  1  0
 20 53  1  0
 20 54  1  0
 21 55  1  0
 21 56  1  0
 22 57  1  0
 22 58  1  0
 23 59  1  0
 23 60  1  0
 24 61  1  0
 24 62  1  0
 26 63  1  0
 32 64  1  0
 32 65  1  0
 33 66  1  0
 33 67  1  0
 35 68  1  0
 35 69  1  0
 36 70  1  0
 36 71  1  0
 37 72  1  0
 38 73  1  0
M  END
>  <UniqueID>  (19) 
19

>  <SMILES>  (19) 
O=C(Nc1cc(S(=O)(=O)N2CCOCC2)ccc1N1CCCCC1)c1cc(S(=O)(=O)N2CCOCC2)ccc1Cl

>  <Energy>  (19) 
104.34187393717755

>  <Genealogy>  (19) 
O=C(Nc1cc(S(=O)(=O)N2CCOCC2)ccc1N1CCCCC1)c1cc(S(=O)(=O)N2CCOCC2)ccc1Cl (3D coordinates assigned)
O=C(Nc1cc(S(=O)(=O)N2CCOCC2)ccc1N1CCCCC1)c1cc(S(=O)(=O)N2CCOCC2)ccc1Cl (nonaromatic ring conformer: 104.34187393717755 kcal/mol)

>  <smiles>  (19) 
O=C(Nc1cc(S(=O)(=O)N2CCOCC2)ccc1N1CCCCC1)c1cc(S(=O)(=O)N2CCOCC2)ccc1Cl

>  <score_type>  (19) 
oracle

>  <origin>  (19) 
adg

>  <m_score__min__energy>  (19) 
-11.58

>  <m_primary>  (19) 
energy

$$$$
20:0
     RDKit          3D

 50 53  0  0  0  0  0  0  0  0999 V2000
   55.6345   30.9767   50.8381 H   0  0  0  0  0  0  0  0  0  0  0  0
   54.6360   30.8140   51.2700 C   0  0  0  0  0  0  0  0  0  0  0  0
   53.7508   30.7950   50.6172 H   0  0  0  0  0  0  0  0  0  0  0  0
   54.4980   30.6390   52.5910 C   0  0  0  0  0  0  0  0  0  0  0  0
   53.3060   30.4210   53.3030 C   0  0  0  0  0  0  0  0  0  0  0  0
   52.0170   30.4910   52.9180 C   0  0  0  0  0  0  0  0  0  0  0  0
   51.2546   30.2873   53.6844 H   0  0  0  0  0  0  0  0  0  0  0  0
   51.5360   30.8150   51.5660 C   0  0  0  0  0  0  0  0  0  0  0  0
   51.7490   30.0530   50.4760 N   0  0  0  0  0  0  0  0  0  0  0  0
   51.2960   30.8260   49.4650 C   0  0  0  0  0  0  0  0  0  0  0  0
   51.3160   30.4500   48.2630 O   0  0  0  0  0  0  0  0  0  0  0  0
   50.8350   32.0390   49.8400 N   0  0  0  0  0  0  0  0  0  0  0  0
   51.0080   32.0200   51.1710 C   0  0  0  0  0  0  0  0  0  0  0  0
   50.6990   33.0850   52.0080 O   0  0  0  0  0  0  0  0  0  0  0  0
   53.6800   30.1040   54.5990 C   0  0  0  0  0  0  0  0  0  0  0  0
   53.0082   29.8330   55.4268 H   0  0  0  0  0  0  0  0  0  0  0  0
   55.0540   30.1930   54.6530 C   0  0  0  0  0  0  0  0  0  0  0  0
   55.8830   29.9290   55.8730 C   0  0  0  0  0  0  0  0  0  0  0  0
   55.2813   30.1206   56.7737 H   0  0  0  0  0  0  0  0  0  0  0  0
   56.2156   28.8805   55.8705 H   0  0  0  0  0  0  0  0  0  0  0  0
   56.7607   30.5921   55.8705 H   0  0  0  0  0  0  0  0  0  0  0  0
   55.5510   30.5270   53.4410 N   0  0  0  0  0  0  0  0  0  0  0  0
   56.9500   30.6050   53.1180 C   0  0  0  0  0  0  0  0  0  0  0  0
   57.4050   31.5440   52.1820 C   0  0  0  0  0  0  0  0  0  0  0  0
   56.7014   32.2665   51.7428 H   0  0  0  0  0  0  0  0  0  0  0  0
   58.7500   31.5640   51.8060 C   0  0  0  0  0  0  0  0  0  0  0  0
   59.1026   32.3048   51.0733 H   0  0  0  0  0  0  0  0  0  0  0  0
   59.6510   30.6460   52.3570 C   0  0  0  0  0  0  0  0  0  0  0  0
   61.3180   30.6190   51.7910 S   0  0  0  0  0  0  0  0  0  0  0  0
   61.9860   29.3190   52.1400 O   0  0  0  0  0  0  0  0  0  0  0  0
   62.0670   31.7460   52.4450 O   0  0  0  0  0  0  0  0  0  0  0  0
   61.3500   30.8370   50.0710 N   0  0  0  0  0  0  0  0  0  0  0  0
   60.6290   31.8500   49.3490 C   0  0  0  0  0  0  0  0  0  0  0  0
   61.0610   33.1890   49.3330 C   0  0  0  0  0  0  0  0  0  0  0  0
   61.9549   33.4807   49.9039 H   0  0  0  0  0  0  0  0  0  0  0  0
   60.3640   34.1510   48.5980 C   0  0  0  0  0  0  0  0  0  0  0  0
   60.7133   35.1940   48.5875 H   0  0  0  0  0  0  0  0  0  0  0  0
   59.2250   33.7900   47.8770 C   0  0  0  0  0  0  0  0  0  0  0  0
   58.6808   34.5468   47.2930 H   0  0  0  0  0  0  0  0  0  0  0  0
   58.7760   32.4670   47.8970 C   0  0  0  0  0  0  0  0  0  0  0  0
   57.8755   32.1873   47.3305 H   0  0  0  0  0  0  0  0  0  0  0  0
   59.4660   31.4920   48.6350 C   0  0  0  0  0  0  0  0  0  0  0  0
   58.9720   30.0720   48.6430 C   0  0  0  0  0  0  0  0  0  0  0  0
   58.8533   29.7309   49.6820 H   0  0  0  0  0  0  0  0  0  0  0  0
   58.0023   30.0182   48.1264 H   0  0  0  0  0  0  0  0  0  0  0  0
   59.6989   29.4280   48.1264 H   0  0  0  0  0  0  0  0  0  0  0  0
   59.2010   29.7200   53.3070 C   0  0  0  0  0  0  0  0  0  0  0  0
   59.9091   29.0098   53.7590 H   0  0  0  0  0  0  0  0  0  0  0  0
   57.8550   29.6960   53.6820 C   0  0  0  0  0  0  0  0  0  0  0  0
   57.5049   28.9614   54.4221 H   0  0  0  0  0  0  0  0  0  0  0  0
  1  2  1  0
  2  3  1  0
  2  4  2  0
  4  5  1  0
  5  6  2  0
  6  7  1  0
  6  8  1  0
  8  9  1  0
  9 10  1  0
 10 11  2  0
 10 12  1  0
 12 13  1  0
 13 14  1  0
  5 15  1  0
 15 16  1  0
 15 17  2  0
 17 18  1  0
 18 19  1  0
 18 20  1  0
 18 21  1  0
 17 22  1  0
 22 23  1  0
 23 24  2  0
 24 25  1  0
 24 26  1  0
 26 27  1  0
 26 28  2  0
 28 29  1  0
 29 30  2  0
 29 31  2  0
 29 32  1  0
 32 33  1  0
 33 34  2  0
 34 35  1  0
 34 36  1  0
 36 37  1  0
 36 38  2  0
 38 39  1  0
 38 40  1  0
 40 41  1  0
 40 42  2  0
 42 43  1  0
 43 44  1  0
 43 45  1  0
 43 46  1  0
 28 47  1  0
 47 48  1  0
 47 49  2  0
 49 50  1  0
 22  4  1  0
 49 23  1  0
 13  8  2  0
 42 33  1  0
M  CHG  4   9  -1  12  -1  14  -1  32  -1
M  END
>  <UniqueID>  (20) 
20

>  <SMILES>  (20) 
C=c1/c(=C\c2[n-]c(=O)[n-]c2[O-])cc(C)n1-c1ccc(S(=O)(=O)[N-]c2ccccc2C)cc1

>  <Energy>  (20) 
132.62522570879952

>  <Genealogy>  (20) 
C=c1c(=Cc2[n-]c(=O)[n-]c2[O-])cc(C)n1-c1ccc(S(=O)(=O)[N-]c2ccccc2C)cc1 (protonated)
C=c1/c(=C\c2[n-]c(=O)[n-]c2[O-])cc(C)n1-c1ccc(S(=O)(=O)[N-]c2ccccc2C)cc1 (cis-trans isomerization)
C=c1/c(=C\c2[n-]c(=O)[n-]c2[O-])cc(C)n1-c1ccc(S(=O)(=O)[N-]c2ccccc2C)cc1 (3D coordinates assigned)
C=c1/c(=C\c2[n-]c(=O)[n-]c2[O-])cc(C)n1-c1ccc(S(=O)(=O)[N-]c2ccccc2C)cc1 (optimized conformer: 132.62522570879952 kcal/mol)

>  <smiles>  (20) 
C=c1c(=Cc2[nH]c(=O)[nH]c2O)cc(C)n1-c1ccc(S(=O)(=O)Nc2ccccc2C)cc1

>  <score_type>  (20) 
oracle

>  <origin>  (20) 
adg

>  <m_score__min__energy>  (20) 
-16.890000000000001

>  <m_primary>  (20) 
energy

$$$$
21:0
     RDKit          3D

 42 44  0  0  0  0  0  0  0  0999 V2000
   56.8140   30.2170   42.9560 O   0  0  0  0  0  0  0  0  0  0  0  0
   56.7970   30.2700   44.2140 C   0  0  0  0  0  0  0  0  0  0  0  0
   56.5670   31.5370   44.8460 N   0  0  0  0  0  0  0  0  0  0  0  0
   57.4960   32.2240   45.6970 C   0  0  0  0  0  0  0  0  0  0  0  0
   58.1670   31.5600   46.7370 C   0  0  0  0  0  0  0  0  0  0  0  0
   59.0320   32.2640   47.5760 C   0  0  0  0  0  0  0  0  0  0  0  0
   59.2300   33.6440   47.4020 C   0  0  0  0  0  0  0  0  0  0  0  0
   60.1220   34.4190   48.3530 C   0  0  0  0  0  0  0  0  0  0  0  0
   61.5700   34.0940   48.2420 N   0  0  0  0  0  0  0  0  0  0  0  0
   61.9890   33.8550   46.8340 C   0  0  0  0  0  0  0  0  0  0  0  0
   63.3680   33.1880   46.7640 C   0  0  0  0  0  0  0  0  0  0  0  0
   63.3400   31.7990   47.4290 C   0  0  0  0  0  0  0  0  0  0  0  0
   62.2580   31.6820   48.5170 C   0  0  0  0  0  0  0  0  0  0  0  0
   62.0140   33.0380   49.1980 C   0  0  0  0  0  0  0  0  0  0  0  0
   58.6170   34.2850   46.3100 C   0  0  0  0  0  0  0  0  0  0  0  0
   57.7570   33.5780   45.4650 C   0  0  0  0  0  0  0  0  0  0  0  0
   56.9790   29.0220   44.9870 C   0  0  0  0  0  0  0  0  0  0  0  0
   58.2340   28.6440   45.4900 C   0  0  0  0  0  0  0  0  0  0  0  0
   58.3350   27.4530   46.2110 C   0  0  0  0  0  0  0  0  0  0  0  0
   59.4480   27.0790   46.6630 O   0  0  0  0  0  0  0  0  0  0  0  0
   57.2280   26.6960   46.4270 N   0  0  0  0  0  0  0  0  0  0  0  0
   56.0150   27.0840   45.9530 C   0  0  0  0  0  0  0  0  0  0  0  0
   55.0000   26.3740   46.1700 O   0  0  0  0  0  0  0  0  0  0  0  0
   55.8980   28.2370   45.2440 N   0  0  0  0  0  0  0  0  0  0  0  0
   58.0103   30.4821   46.8906 H   0  0  0  0  0  0  0  0  0  0  0  0
   59.5632   31.7340   48.3803 H   0  0  0  0  0  0  0  0  0  0  0  0
   59.9937   35.4920   48.1473 H   0  0  0  0  0  0  0  0  0  0  0  0
   59.8147   34.1371   49.3709 H   0  0  0  0  0  0  0  0  0  0  0  0
   62.0660   34.9700   48.5370 H   0  0  0  0  0  0  0  0  0  0  0  0
   61.2504   33.2010   46.3473 H   0  0  0  0  0  0  0  0  0  0  0  0
   62.0490   34.8267   46.3219 H   0  0  0  0  0  0  0  0  0  0  0  0
   63.6614   33.0769   45.7097 H   0  0  0  0  0  0  0  0  0  0  0  0
   64.0921   33.8198   47.2993 H   0  0  0  0  0  0  0  0  0  0  0  0
   63.1438   31.0424   46.6550 H   0  0  0  0  0  0  0  0  0  0  0  0
   64.3154   31.6431   47.9130 H   0  0  0  0  0  0  0  0  0  0  0  0
   61.3206   31.3367   48.0566 H   0  0  0  0  0  0  0  0  0  0  0  0
   62.6008   30.9644   49.2770 H   0  0  0  0  0  0  0  0  0  0  0  0
   61.2373   32.9106   49.9664 H   0  0  0  0  0  0  0  0  0  0  0  0
   62.9692   33.3663   49.6336 H   0  0  0  0  0  0  0  0  0  0  0  0
   58.8159   35.3500   46.1199 H   0  0  0  0  0  0  0  0  0  0  0  0
   57.2834   34.0889   44.6137 H   0  0  0  0  0  0  0  0  0  0  0  0
   59.1197   29.2736   45.3194 H   0  0  0  0  0  0  0  0  0  0  0  0
  1  2  2  0
  2  3  1  0
  3  4  1  0
  4  5  2  0
  5  6  1  0
  6  7  2  0
  7  8  1  0
  8  9  1  0
  9 10  1  0
 10 11  1  0
 11 12  1  0
 12 13  1  0
 13 14  1  0
  7 15  1  0
 15 16  2  0
  2 17  1  0
 17 18  2  0
 18 19  1  0
 19 20  2  0
 19 21  1  0
 21 22  1  0
 22 23  2  0
 22 24  1  0
 16  4  1  0
 24 17  1  0
 14  9  1  0
  5 25  1  0
  6 26  1  0
  8 27  1  0
  8 28  1  0
  9 29  1  0
 10 30  1  0
 10 31  1  0
 11 32  1  0
 11 33  1  0
 12 34  1  0
 12 35  1  0
 13 36  1  0
 13 37  1  0
 14 38  1  0
 14 39  1  0
 15 40  1  0
 16 41  1  0
 18 42  1  0
M  CHG  4   3  -1   9   1  21  -1  24  -1
M  END
>  <UniqueID>  (21) 
21

>  <SMILES>  (21) 
O=C([N-]c1ccc(C[NH+]2CCCCC2)cc1)c1cc(=O)[n-]c(=O)[n-]1

>  <Energy>  (21) 
60.36804119003613

>  <Genealogy>  (21) 
O=C([N-]c1ccc(C[NH+]2CCCCC2)cc1)c1cc(=O)[n-]c(=O)[n-]1 (protonated)
O=C([N-]c1ccc(C[NH+]2CCCCC2)cc1)c1cc(=O)[n-]c(=O)[n-]1 (3D coordinates assigned)
O=C([N-]c1ccc(C[NH+]2CCCCC2)cc1)c1cc(=O)[n-]c(=O)[n-]1 (nonaromatic ring conformer: 60.36804119003613 kcal/mol)

>  <smiles>  (21) 
O=C(Nc1ccc(CN2CCCCC2)cc1)c1cc(=O)[nH]c(=O)[nH]1

>  <score_type>  (21) 
oracle

>  <origin>  (21) 
adg

>  <m_score__min__energy>  (21) 
-12.35

>  <m_primary>  (21) 
energy

$$$$
22:0
     RDKit          3D

 57 60  0  0  0  0  0  0  0  0999 V2000
   51.5880   21.8230   47.8460 C   0  0  0  0  0  0  0  0  0  0  0  0
   52.1850   22.5960   46.6990 C   0  0  0  0  0  0  0  0  0  0  0  0
   51.3310   23.1470   45.7280 C   0  0  0  0  0  0  0  0  0  0  0  0
   51.8510   23.8620   44.6480 C   0  0  0  0  0  0  0  0  0  0  0  0
   53.2290   24.0400   44.5250 C   0  0  0  0  0  0  0  0  0  0  0  0
   54.0920   23.5080   45.4850 C   0  0  0  0  0  0  0  0  0  0  0  0
   53.5860   22.7910   46.5840 C   0  0  0  0  0  0  0  0  0  0  0  0
   54.5570   22.1970   47.5770 C   0  0  0  0  0  0  0  0  0  0  0  0
   55.7930   21.8170   46.9030 N   0  0  0  0  0  0  0  0  0  0  0  0
   57.0030   22.5780   46.9820 C   0  0  0  0  0  0  0  0  0  0  0  0
   57.3300   23.1490   48.0570 O   0  0  0  0  0  0  0  0  0  0  0  0
   57.8930   22.6780   45.7840 C   0  0  0  0  0  0  0  0  0  0  0  0
   57.7360   24.0190   45.1190 C   0  0  0  0  0  0  0  0  0  0  0  0
   57.1250   24.2850   43.9000 C   0  0  0  0  0  0  0  0  0  0  0  0
   56.4450   23.3000   43.0020 C   0  0  0  0  0  0  0  0  0  0  0  0
   57.1080   25.6150   43.6990 N   0  0  0  0  0  0  0  0  0  0  0  0
   57.6830   26.2130   44.7290 N   0  0  0  0  0  0  0  0  0  0  0  0
   57.8060   27.6420   44.8350 C   0  0  0  0  0  0  0  0  0  0  0  0
   59.0460   28.2810   44.7250 C   0  0  0  0  0  0  0  0  0  0  0  0
   59.1170   29.6640   44.8680 C   0  0  0  0  0  0  0  0  0  0  0  0
   57.9470   30.3900   45.1360 C   0  0  0  0  0  0  0  0  0  0  0  0
   57.9650   31.8220   45.2880 N   0  0  0  0  0  0  0  0  0  0  0  0
   57.4730   32.7690   44.2850 C   0  0  0  0  0  0  0  0  0  0  0  0
   57.6370   34.1680   44.8860 C   0  0  0  0  0  0  0  0  0  0  0  0
   58.2420   33.9110   46.2180 C   0  0  0  0  0  0  0  0  0  0  0  0
   58.5300   34.7970   47.0080 O   0  0  0  0  0  0  0  0  0  0  0  0
   58.4570   32.4740   46.4920 C   0  0  0  0  0  0  0  0  0  0  0  0
   56.7720   29.7130   45.2580 N   0  0  0  0  0  0  0  0  0  0  0  0
   56.7050   28.3880   45.1180 N   0  0  0  0  0  0  0  0  0  0  0  0
   58.1020   25.2680   45.6100 C   0  0  0  0  0  0  0  0  0  0  0  0
   58.8370   25.5320   46.8940 C   0  0  0  0  0  0  0  0  0  0  0  0
   51.9253   22.2598   48.7975 H   0  0  0  0  0  0  0  0  0  0  0  0
   50.4905   21.8714   47.7890 H   0  0  0  0  0  0  0  0  0  0  0  0
   51.9122   20.7734   47.7890 H   0  0  0  0  0  0  0  0  0  0  0  0
   50.2430   23.0135   45.8201 H   0  0  0  0  0  0  0  0  0  0  0  0
   51.1730   24.2858   43.8926 H   0  0  0  0  0  0  0  0  0  0  0  0
   53.6363   24.6003   43.6705 H   0  0  0  0  0  0  0  0  0  0  0  0
   55.1777   23.6510   45.3808 H   0  0  0  0  0  0  0  0  0  0  0  0
   54.7811   22.9405   48.3561 H   0  0  0  0  0  0  0  0  0  0  0  0
   54.1053   21.3031   48.0318 H   0  0  0  0  0  0  0  0  0  0  0  0
   58.9392   22.5508   46.0991 H   0  0  0  0  0  0  0  0  0  0  0  0
   57.6135   21.8915   45.0675 H   0  0  0  0  0  0  0  0  0  0  0  0
   55.9248   22.5464   43.6115 H   0  0  0  0  0  0  0  0  0  0  0  0
   55.7160   23.8250   42.3672 H   0  0  0  0  0  0  0  0  0  0  0  0
   57.1943   22.8045   42.3672 H   0  0  0  0  0  0  0  0  0  0  0  0
   56.6730   26.1100   42.8870 H   0  0  0  0  0  0  0  0  0  0  0  0
   59.9563   27.6960   44.5274 H   0  0  0  0  0  0  0  0  0  0  0  0
   60.0821   30.1829   44.7717 H   0  0  0  0  0  0  0  0  0  0  0  0
   58.0618   32.6820   43.3599 H   0  0  0  0  0  0  0  0  0  0  0  0
   56.4219   32.5672   44.0311 H   0  0  0  0  0  0  0  0  0  0  0  0
   58.3028   34.7858   44.2655 H   0  0  0  0  0  0  0  0  0  0  0  0
   56.6869   34.7188   44.9487 H   0  0  0  0  0  0  0  0  0  0  0  0
   59.5244   32.2587   46.6476 H   0  0  0  0  0  0  0  0  0  0  0  0
   57.9473   32.1306   47.4043 H   0  0  0  0  0  0  0  0  0  0  0  0
   58.1824   25.2969   47.7462 H   0  0  0  0  0  0  0  0  0  0  0  0
   59.7369   24.9009   46.9378 H   0  0  0  0  0  0  0  0  0  0  0  0
   59.1297   26.5914   46.9378 H   0  0  0  0  0  0  0  0  0  0  0  0
  1  2  1  0
  2  3  2  0
  3  4  1  0
  4  5  2  0
  5  6  1  0
  6  7  2  0
  7  8  1  0
  8  9  1  0
  9 10  1  0
 10 11  2  0
 10 12  1  0
 12 13  1  0
 13 14  1  0
 14 15  1  0
 14 16  2  0
 16 17  1  0
 17 18  1  0
 18 19  2  0
 19 20  1  0
 20 21  2  0
 21 22  1  0
 22 23  1  0
 23 24  1  0
 24 25  1  0
 25 26  2  0
 25 27  1  0
 21 28  1  0
 28 29  2  0
 17 30  1  0
 30 31  1  0
  7  2  1  0
 30 13  2  0
 29 18  1  0
 27 22  1  0
  1 32  1  0
  1 33  1  0
  1 34  1  0
  3 35  1  0
  4 36  1  0
  5 37  1  0
  6 38  1  0
  8 39  1  0
  8 40  1  0
 12 41  1  0
 12 42  1  0
 15 43  1  0
 15 44  1  0
 15 45  1  0
 16 46  1  0
 19 47  1  0
 20 48  1  0
 23 49  1  0
 23 50  1  0
 24 51  1  0
 24 52  1  0
 27 53  1  0
 27 54  1  0
 31 55  1  0
 31 56  1  0
 31 57  1  0
M  CHG  2   9  -1  16   1
M  END
>  <UniqueID>  (22) 
22

>  <SMILES>  (22) 
Cc1ccccc1C[N-]C(=O)Cc1c(C)[nH+]n(-c2ccc(N3CCC(=O)C3)nn2)c1C

>  <Energy>  (22) 
91.31159516733229

>  <Genealogy>  (22) 
Cc1ccccc1C[N-]C(=O)Cc1c(C)[nH+]n(-c2ccc(N3CCC(=O)C3)nn2)c1C (protonated)
Cc1ccccc1C[N-]C(=O)Cc1c(C)[nH+]n(-c2ccc(N3CCC(=O)C3)nn2)c1C (3D coordinates assigned)
Cc1ccccc1C[N-]C(=O)Cc1c(C)[nH+]n(-c2ccc(N3CCC(=O)C3)nn2)c1C (nonaromatic ring conformer: 91.31159516733229 kcal/mol)

>  <smiles>  (22) 
Cc1ccccc1CNC(=O)Cc1c(C)nn(-c2ccc(N3CCC(=O)C3)nn2)c1C

>  <score_type>  (22) 
oracle

>  <origin>  (22) 
adg

>  <m_score__min__energy>  (22) 
-8.8499999999999996

>  <m_primary>  (22) 
energy

$$$$
23:0
     RDKit          3D

 52 55  0  0  0  0  0  0  0  0999 V2000
   56.8840   28.9400   53.4570 C   0  0  0  0  0  0  0  0  0  0  0  0
   57.4480   29.7820   52.3600 C   0  0  0  0  0  0  0  0  0  0  0  0
   56.6670   30.4070   51.5940 O   0  0  0  0  0  0  0  0  0  0  0  0
   58.8670   29.8070   52.1390 N   0  0  0  0  0  0  0  0  0  0  0  0
   59.5230   30.7030   51.2260 C   0  0  0  0  0  0  0  0  0  0  0  0
   60.1510   30.2300   50.0600 C   0  0  0  0  0  0  0  0  0  0  0  0
   60.7590   31.1240   49.1740 C   0  0  0  0  0  0  0  0  0  0  0  0
   60.7380   32.5000   49.4340 C   0  0  0  0  0  0  0  0  0  0  0  0
   61.5000   33.6280   48.3170 S   0  0  0  0  0  0  0  0  0  0  0  0
   62.3570   34.5840   49.0990 O   0  0  0  0  0  0  0  0  0  0  0  0
   62.3610   32.8780   47.3380 O   0  0  0  0  0  0  0  0  0  0  0  0
   60.2820   34.5210   47.4500 N   0  0  0  0  0  0  0  0  0  0  0  0
   58.9180   34.0550   47.8170 C   0  0  0  0  0  0  0  0  0  0  0  0
   58.4820   33.3300   46.5900 C   0  0  1  0  0  0  0  0  0  0  0  0
   57.0880   33.2370   46.0130 C   0  0  0  0  0  0  0  0  0  0  0  0
   57.3930   33.0840   44.4910 C   0  0  2  0  0  0  0  0  0  0  0  0
   57.1100   31.6930   43.9930 C   0  0  0  0  0  0  0  0  0  0  0  0
   57.5430   31.3230   42.8670 O   0  0  0  0  0  0  0  0  0  0  0  0
   56.3410   30.7970   44.8030 N   0  0  0  0  0  0  0  0  0  0  0  0
   56.6880   29.3950   45.0030 C   0  0  0  0  0  0  0  0  0  0  0  0
   58.1510   29.2590   45.2860 C   0  0  0  0  0  0  0  0  0  0  0  0
   59.0810   28.6100   44.4830 C   0  0  0  0  0  0  0  0  0  0  0  0
   60.3860   28.6840   44.9850 C   0  0  0  0  0  0  0  0  0  0  0  0
   60.4890   29.3960   46.1750 C   0  0  0  0  0  0  0  0  0  0  0  0
   58.9520   29.9350   46.6020 S   0  0  0  0  0  0  0  0  0  0  0  0
   58.8930   33.4670   44.3030 C   0  0  0  0  0  0  0  0  0  0  0  0
   59.1770   34.1750   45.6060 C   0  0  2  0  0  0  0  0  0  0  0  0
   60.4750   34.2740   46.1050 O   0  0  0  0  0  0  0  0  0  0  0  0
   60.1010   32.9760   50.5870 C   0  0  0  0  0  0  0  0  0  0  0  0
   59.4900   32.0840   51.4720 C   0  0  0  0  0  0  0  0  0  0  0  0
   57.1695   29.3662   54.4301 H   0  0  0  0  0  0  0  0  0  0  0  0
   55.7873   28.9167   53.3745 H   0  0  0  0  0  0  0  0  0  0  0  0
   57.2798   27.9170   53.3745 H   0  0  0  0  0  0  0  0  0  0  0  0
   59.4440   29.0680   52.6030 H   0  0  0  0  0  0  0  0  0  0  0  0
   60.1638   29.1515   49.8442 H   0  0  0  0  0  0  0  0  0  0  0  0
   61.2560   30.7452   48.2688 H   0  0  0  0  0  0  0  0  0  0  0  0
   58.9487   33.3818   48.6864 H   0  0  0  0  0  0  0  0  0  0  0  0
   58.2400   34.8710   48.1076 H   0  0  0  0  0  0  0  0  0  0  0  0
   58.6490   32.2698   46.8310 H   0  0  0  0  0  0  0  0  0  0  0  0
   56.5481   32.3624   46.4048 H   0  0  0  0  0  0  0  0  0  0  0  0
   56.4425   34.0933   46.2579 H   0  0  0  0  0  0  0  0  0  0  0  0
   56.7393   33.7409   43.8984 H   0  0  0  0  0  0  0  0  0  0  0  0
   56.1151   28.9968   45.8534 H   0  0  0  0  0  0  0  0  0  0  0  0
   56.4457   28.8319   44.0896 H   0  0  0  0  0  0  0  0  0  0  0  0
   58.8189   28.0914   43.5490 H   0  0  0  0  0  0  0  0  0  0  0  0
   61.2496   28.2218   44.4845 H   0  0  0  0  0  0  0  0  0  0  0  0
   61.4153   29.5761   46.7402 H   0  0  0  0  0  0  0  0  0  0  0  0
   59.5253   32.5750   44.1821 H   0  0  0  0  0  0  0  0  0  0  0  0
   59.0973   34.0702   43.4061 H   0  0  0  0  0  0  0  0  0  0  0  0
   58.8858   35.2210   45.4299 H   0  0  0  0  0  0  0  0  0  0  0  0
   60.0817   34.0557   50.7965 H   0  0  0  0  0  0  0  0  0  0  0  0
   58.9795   32.4671   52.3679 H   0  0  0  0  0  0  0  0  0  0  0  0
  1  2  1  0
  2  3  2  0
  2  4  1  0
  4  5  1  0
  5  6  2  0
  6  7  1  0
  7  8  2  0
  8  9  1  0
  9 10  2  0
  9 11  2  0
  9 12  1  0
 12 13  1  0
 13 14  1  0
 14 15  1  0
 15 16  1  0
 16 17  1  0
 17 18  2  0
 17 19  1  0
 19 20  1  0
 20 21  1  0
 21 22  2  0
 22 23  1  0
 23 24  2  0
 24 25  1  0
 16 26  1  0
 26 27  1  0
 27 28  1  0
  8 29  1  0
 29 30  2  0
 30  5  1  0
 28 12  1  0
 27 14  1  0
 25 21  1  0
  1 31  1  0
  1 32  1  0
  1 33  1  0
  4 34  1  0
  6 35  1  0
  7 36  1  0
 13 37  1  0
 13 38  1  0
 14 39  1  1
 15 40  1  0
 15 41  1  0
 16 42  1  6
 20 43  1  0
 20 44  1  0
 22 45  1  0
 23 46  1  0
 24 47  1  0
 26 48  1  0
 26 49  1  0
 27 50  1  6
 29 51  1  0
 30 52  1  0
M  CHG  1  19  -1
M  END
>  <UniqueID>  (23) 
23

>  <SMILES>  (23) 
CC(=O)Nc1ccc(S(=O)(=O)N2C[C@H]3C[C@H](C(=O)[N-]Cc4cccs4)CC3O2)cc1

>  <Energy>  (23) 
109.05221171231739

>  <Genealogy>  (23) 
CC(=O)Nc1ccc(S(=O)(=O)N2CC3CC(C(=O)[N-]Cc4cccs4)CC3O2)cc1 (protonated)
CC(=O)Nc1ccc(S(=O)(=O)N2C[C@H]3C[C@H](C(=O)[N-]Cc4cccs4)CC3O2)cc1 (chirality)
CC(=O)Nc1ccc(S(=O)(=O)N2C[C@H]3C[C@H](C(=O)[N-]Cc4cccs4)CC3O2)cc1 (3D coordinates assigned)
CC(=O)Nc1ccc(S(=O)(=O)N2C[C@H]3C[C@H](C(=O)[N-]Cc4cccs4)CC3O2)cc1 (nonaromatic ring conformer: 109.05221171231739 kcal/mol)

>  <smiles>  (23) 
CC(=O)Nc1ccc(S(=O)(=O)N2CC3CC(C(=O)NCc4cccs4)CC3O2)cc1

>  <score_type>  (23) 
oracle

>  <origin>  (23) 
adg

>  <m_score__min__energy>  (23) 
-11.779999999999999

>  <m_primary>  (23) 
energy

$$$$
24:0
     RDKit          3D

 53 57  0  0  0  0  0  0  0  0999 V2000
   55.8500   26.5380   46.3740 O   0  0  0  0  0  0  0  0  0  0  0  0
   57.0880   26.3430   46.5200 C   0  0  0  0  0  0  0  0  0  0  0  0
   57.5740   25.0150   46.7740 N   0  0  0  0  0  0  0  0  0  0  0  0
   56.6870   23.8560   46.8350 C   0  0  0  0  0  0  0  0  0  0  0  0
   56.5040   23.2650   45.4640 C   0  0  0  0  0  0  0  0  0  0  0  0
   55.6710   23.8850   44.5210 C   0  0  0  0  0  0  0  0  0  0  0  0
   55.5350   23.3210   43.2490 C   0  0  0  0  0  0  0  0  0  0  0  0
   56.2080   22.1830   42.9300 N   0  0  0  0  0  0  0  0  0  0  0  0
   57.0260   21.5660   43.8240 C   0  0  0  0  0  0  0  0  0  0  0  0
   57.1920   22.0960   45.1060 C   0  0  0  0  0  0  0  0  0  0  0  0
   58.0270   27.4830   46.4320 C   0  0  0  0  0  0  0  0  0  0  0  0
   58.8380   27.6670   45.2990 C   0  0  0  0  0  0  0  0  0  0  0  0
   59.7160   28.7520   45.2530 C   0  0  0  0  0  0  0  0  0  0  0  0
   59.7820   29.6410   46.3260 C   0  0  0  0  0  0  0  0  0  0  0  0
   58.9550   29.4380   47.4370 C   0  0  0  0  0  0  0  0  0  0  0  0
   59.0240   30.3570   48.6150 C   0  0  0  0  0  0  0  0  0  0  0  0
   59.6660   29.6870   49.6960 O   0  0  0  0  0  0  0  0  0  0  0  0
   59.1200   29.5510   50.9810 C   0  0  0  0  0  0  0  0  0  0  0  0
   59.8870   29.1610   52.0930 C   0  0  0  0  0  0  0  0  0  0  0  0
   59.3060   29.0500   53.3150 N   0  0  0  0  0  0  0  0  0  0  0  0
   57.9860   29.3090   53.5110 C   0  0  0  0  0  0  0  0  0  0  0  0
   57.1740   29.7010   52.4350 C   0  0  0  0  0  0  0  0  0  0  0  0
   55.7320   29.9910   52.6350 C   0  0  0  0  0  0  0  0  0  0  0  0
   54.9930   29.3070   53.6400 C   0  0  0  0  0  0  0  0  0  0  0  0
   53.6310   29.5820   53.8460 C   0  0  0  0  0  0  0  0  0  0  0  0
   53.0310   30.5400   53.0370 C   0  0  0  0  0  0  0  0  0  0  0  0
   51.7410   31.0090   53.0150 C   0  0  0  0  0  0  0  0  0  0  0  0
   51.7400   31.9530   51.9980 C   0  0  0  0  0  0  0  0  0  0  0  0
   50.6260   32.6900   51.6170 O   0  0  0  0  0  0  0  0  0  0  0  0
   52.9500   32.0860   51.4040 N   0  0  0  0  0  0  0  0  0  0  0  0
   53.7280   31.2060   52.0620 C   0  0  0  0  0  0  0  0  0  0  0  0
   55.0790   30.9580   51.8320 C   0  0  0  0  0  0  0  0  0  0  0  0
   57.7610   29.8170   51.1640 C   0  0  0  0  0  0  0  0  0  0  0  0
   58.1140   28.3680   47.4630 N   0  0  0  0  0  0  0  0  0  0  0  0
   58.5950   24.8590   46.9350 H   0  0  0  0  0  0  0  0  0  0  0  0
   57.1255   23.0983   47.5010 H   0  0  0  0  0  0  0  0  0  0  0  0
   55.7074   24.1754   47.2203 H   0  0  0  0  0  0  0  0  0  0  0  0
   55.1296   24.8068   44.7800 H   0  0  0  0  0  0  0  0  0  0  0  0
   54.8818   23.7990   42.5041 H   0  0  0  0  0  0  0  0  0  0  0  0
   57.5584   20.6472   43.5371 H   0  0  0  0  0  0  0  0  0  0  0  0
   57.8569   21.6006   45.8289 H   0  0  0  0  0  0  0  0  0  0  0  0
   58.7817   26.9626   44.4560 H   0  0  0  0  0  0  0  0  0  0  0  0
   60.3552   28.9056   44.3711 H   0  0  0  0  0  0  0  0  0  0  0  0
   60.4771   30.4931   46.2993 H   0  0  0  0  0  0  0  0  0  0  0  0
   59.5980   31.2562   48.3468 H   0  0  0  0  0  0  0  0  0  0  0  0
   58.0070   30.6504   48.9144 H   0  0  0  0  0  0  0  0  0  0  0  0
   60.9590   28.9456   51.9727 H   0  0  0  0  0  0  0  0  0  0  0  0
   57.5522   29.2110   54.5171 H   0  0  0  0  0  0  0  0  0  0  0  0
   55.4948   28.5528   54.2640 H   0  0  0  0  0  0  0  0  0  0  0  0
   53.0572   29.0558   54.6231 H   0  0  0  0  0  0  0  0  0  0  0  0
   50.9005   30.7059   53.6567 H   0  0  0  0  0  0  0  0  0  0  0  0
   55.6255   31.4998   51.0460 H   0  0  0  0  0  0  0  0  0  0  0  0
   57.1446   30.1202   50.3048 H   0  0  0  0  0  0  0  0  0  0  0  0
  1  2  2  0
  2  3  1  0
  3  4  1  0
  4  5  1  0
  5  6  2  0
  6  7  1  0
  7  8  2  0
  8  9  1  0
  9 10  2  0
  2 11  1  0
 11 12  2  0
 12 13  1  0
 13 14  2  0
 14 15  1  0
 15 16  1  0
 16 17  1  0
 17 18  1  0
 18 19  2  0
 19 20  1  0
 20 21  2  0
 21 22  1  0
 22 23  1  0
 23 24  2  0
 24 25  1  0
 25 26  2  0
 26 27  1  0
 27 28  2  0
 28 29  1  0
 28 30  1  0
 30 31  1  0
 31 32  2  0
 22 33  2  0
 15 34  2  0
 10  5  1  0
 34 11  1  0
 33 18  1  0
 32 23  1  0
 31 26  1  0
  3 35  1  0
  4 36  1  0
  4 37  1  0
  6 38  1  0
  7 39  1  0
  9 40  1  0
 10 41  1  0
 12 42  1  0
 13 43  1  0
 14 44  1  0
 16 45  1  0
 16 46  1  0
 19 47  1  0
 21 48  1  0
 24 49  1  0
 25 50  1  0
 27 51  1  0
 32 52  1  0
 33 53  1  0
M  CHG  2  29  -1  30  -1
M  END
>  <UniqueID>  (24) 
24

>  <SMILES>  (24) 
O=C(NCc1ccncc1)c1cccc(COc2cncc(-c3ccc4cc([O-])[n-]c4c3)c2)n1

>  <Energy>  (24) 
95.82710595997636

>  <Genealogy>  (24) 
O=C(NCc1ccncc1)c1cccc(COc2cncc(-c3ccc4cc([O-])[n-]c4c3)c2)n1 (protonated)
O=C(NCc1ccncc1)c1cccc(COc2cncc(-c3ccc4cc([O-])[n-]c4c3)c2)n1 (3D coordinates assigned)
O=C(NCc1ccncc1)c1cccc(COc2cncc(-c3ccc4cc([O-])[n-]c4c3)c2)n1 (optimized conformer: 95.82710595997636 kcal/mol)

>  <smiles>  (24) 
O=C(NCc1ccncc1)c1cccc(COc2cncc(-c3ccc4cc(O)[nH]c4c3)c2)n1

>  <score_type>  (24) 
oracle

>  <origin>  (24) 
adg

>  <m_score__min__energy>  (24) 
-14.380000000000001

>  <m_primary>  (24) 
energy

$$$$
25:0
     RDKit          3D

 73 77  0  0  0  0  0  0  0  0999 V2000
   57.0240   31.2230   42.6720 C   0  0  0  0  0  0  0  0  0  0  0  0
   55.9430   30.3920   43.8760 S   0  0  0  0  0  0  0  0  0  0  0  0
   57.2610   29.3690   44.5210 C   0  0  0  0  0  0  0  0  0  0  0  0
   57.4030   28.0910   44.0840 N   0  0  0  0  0  0  0  0  0  0  0  0
   58.3960   27.2990   44.5660 C   0  0  0  0  0  0  0  0  0  0  0  0
   59.2810   27.7930   45.5220 C   0  0  0  0  0  0  0  0  0  0  0  0
   59.1250   29.1160   45.9660 C   0  0  0  0  0  0  0  0  0  0  0  0
   60.0330   29.7030   46.9870 C   0  0  0  0  0  0  0  0  0  0  0  0
   60.8830   30.7580   46.6440 C   0  0  0  0  0  0  0  0  0  0  0  0
   61.7220   31.3310   47.5950 C   0  0  0  0  0  0  0  0  0  0  0  0
   62.5660   32.4700   47.1830 C   0  0  0  0  0  0  0  0  0  0  0  0
   63.7700   32.2690   46.8780 O   0  0  0  0  0  0  0  0  0  0  0  0
   62.0310   33.7940   47.1010 N   0  0  0  0  0  0  0  0  0  0  0  0
   60.8450   34.2260   47.8300 C   0  0  0  0  0  0  0  0  0  0  0  0
   59.6260   34.0220   46.9700 C   0  0  0  0  0  0  0  0  0  0  0  0
   59.5830   34.6240   45.7000 C   0  0  0  0  0  0  0  0  0  0  0  0
   58.4790   34.4390   44.8630 C   0  0  0  0  0  0  0  0  0  0  0  0
   57.4100   33.6460   45.2800 C   0  0  0  0  0  0  0  0  0  0  0  0
   57.4430   33.0290   46.5320 C   0  0  0  0  0  0  0  0  0  0  0  0
   58.5500   33.1950   47.3840 C   0  0  0  0  0  0  0  0  0  0  0  0
   58.5480   32.5190   48.7300 C   0  0  0  0  0  0  0  0  0  0  0  0
   61.7130   30.8470   48.9220 C   0  0  0  0  0  0  0  0  0  0  0  0
   62.6710   31.4600   49.9380 C   0  0  0  0  0  0  0  0  0  0  0  0
   61.9290   32.2270   50.9640 N   0  0  0  0  0  0  0  0  0  0  0  0
   61.7630   33.6570   50.6220 C   0  0  0  0  0  0  0  0  0  0  0  0
   63.0500   34.4680   50.8450 C   0  0  0  0  0  0  0  0  0  0  0  0
   63.5240   34.3010   52.2300 N   0  0  0  0  0  0  0  0  0  0  0  0
   64.7450   35.0920   52.4450 C   0  0  0  0  0  0  0  0  0  0  0  0
   63.7870   32.8780   52.5050 C   0  0  0  0  0  0  0  0  0  0  0  0
   62.4990   32.0610   52.3170 C   0  0  0  0  0  0  0  0  0  0  0  0
   60.8590   29.8140   49.2580 N   0  0  0  0  0  0  0  0  0  0  0  0
   60.7880   29.3220   50.6110 C   0  0  0  0  0  0  0  0  0  0  0  0
   59.8680   29.8760   51.5150 C   0  0  0  0  0  0  0  0  0  0  0  0
   59.8020   29.3990   52.8280 C   0  0  0  0  0  0  0  0  0  0  0  0
   60.6410   28.3600   53.2390 C   0  0  0  0  0  0  0  0  0  0  0  0
   61.5440   27.7900   52.3360 C   0  0  0  0  0  0  0  0  0  0  0  0
   61.6140   28.2640   51.0230 C   0  0  0  0  0  0  0  0  0  0  0  0
   60.0360   29.2430   48.3180 C   0  0  0  0  0  0  0  0  0  0  0  0
   59.2750   28.2870   48.6460 O   0  0  0  0  0  0  0  0  0  0  0  0
   58.1140   29.8700   45.4500 N   0  0  0  0  0  0  0  0  0  0  0  0
   57.7861   31.8089   43.2067 H   0  0  0  0  0  0  0  0  0  0  0  0
   57.5172   30.4693   42.0406 H   0  0  0  0  0  0  0  0  0  0  0  0
   56.4224   31.8934   42.0406 H   0  0  0  0  0  0  0  0  0  0  0  0
   58.5014   26.2666   44.2011 H   0  0  0  0  0  0  0  0  0  0  0  0
   60.0863   27.1589   45.9212 H   0  0  0  0  0  0  0  0  0  0  0  0
   60.8889   31.1392   45.6122 H   0  0  0  0  0  0  0  0  0  0  0  0
   60.7461   33.6352   48.7526 H   0  0  0  0  0  0  0  0  0  0  0  0
   60.9394   35.2917   48.0858 H   0  0  0  0  0  0  0  0  0  0  0  0
   60.4253   35.2458   45.3624 H   0  0  0  0  0  0  0  0  0  0  0  0
   58.4532   34.9196   43.8739 H   0  0  0  0  0  0  0  0  0  0  0  0
   56.5399   33.5066   44.6216 H   0  0  0  0  0  0  0  0  0  0  0  0
   56.5952   32.4071   46.8553 H   0  0  0  0  0  0  0  0  0  0  0  0
   58.5503   33.2812   49.5231 H   0  0  0  0  0  0  0  0  0  0  0  0
   57.6480   31.8937   48.8249 H   0  0  0  0  0  0  0  0  0  0  0  0
   59.4443   31.8884   48.8249 H   0  0  0  0  0  0  0  0  0  0  0  0
   63.2386   30.6559   50.4292 H   0  0  0  0  0  0  0  0  0  0  0  0
   63.3531   32.1437   49.4115 H   0  0  0  0  0  0  0  0  0  0  0  0
   61.4753   33.7356   49.5632 H   0  0  0  0  0  0  0  0  0  0  0  0
   60.9876   34.0714   51.2831 H   0  0  0  0  0  0  0  0  0  0  0  0
   63.8265   34.1153   50.1503 H   0  0  0  0  0  0  0  0  0  0  0  0
   62.8391   35.5323   50.6641 H   0  0  0  0  0  0  0  0  0  0  0  0
   64.9222   35.2068   53.5246 H   0  0  0  0  0  0  0  0  0  0  0  0
   65.6014   34.5766   51.9856 H   0  0  0  0  0  0  0  0  0  0  0  0
   64.6247   36.0842   51.9856 H   0  0  0  0  0  0  0  0  0  0  0  0
   64.5572   32.5090   51.8117 H   0  0  0  0  0  0  0  0  0  0  0  0
   64.1365   32.7687   53.5423 H   0  0  0  0  0  0  0  0  0  0  0  0
   62.7270   30.9970   52.4779 H   0  0  0  0  0  0  0  0  0  0  0  0
   61.7578   32.4243   53.0441 H   0  0  0  0  0  0  0  0  0  0  0  0
   59.1984   30.6861   51.1903 H   0  0  0  0  0  0  0  0  0  0  0  0
   59.0886   29.8424   53.5382 H   0  0  0  0  0  0  0  0  0  0  0  0
   60.5912   27.9901   54.2737 H   0  0  0  0  0  0  0  0  0  0  0  0
   62.1996   26.9680   52.6593 H   0  0  0  0  0  0  0  0  0  0  0  0
   62.3174   27.8074   50.3112 H   0  0  0  0  0  0  0  0  0  0  0  0
  1  2  1  0
  2  3  1  0
  3  4  2  0
  4  5  1  0
  5  6  2  0
  6  7  1  0
  7  8  1  0
  8  9  2  0
  9 10  1  0
 10 11  1  0
 11 12  2  0
 11 13  1  0
 13 14  1  0
 14 15  1  0
 15 16  2  0
 16 17  1  0
 17 18  2  0
 18 19  1  0
 19 20  2  0
 20 21  1  0
 10 22  2  0
 22 23  1  0
 23 24  1  0
 24 25  1  0
 25 26  1  0
 26 27  1  0
 27 28  1  0
 27 29  1  0
 29 30  1  0
 22 31  1  0
 31 32  1  0
 32 33  2  0
 33 34  1  0
 34 35  2  0
 35 36  1  0
 36 37  2  0
 31 38  1  0
 38 39  2  0
  7 40  2  0
 40  3  1  0
 38  8  1  0
 20 15  1  0
 30 24  1  0
 37 32  1  0
  1 41  1  0
  1 42  1  0
  1 43  1  0
  5 44  1  0
  6 45  1  0
  9 46  1  0
 14 47  1  0
 14 48  1  0
 16 49  1  0
 17 50  1  0
 18 51  1  0
 19 52  1  0
 21 53  1  0
 21 54  1  0
 21 55  1  0
 23 56  1  0
 23 57  1  0
 25 58  1  0
 25 59  1  0
 26 60  1  0
 26 61  1  0
 28 62  1  0
 28 63  1  0
 28 64  1  0
 29 65  1  0
 29 66  1  0
 30 67  1  0
 30 68  1  0
 33 69  1  0
 34 70  1  0
 35 71  1  0
 36 72  1  0
 37 73  1  0
M  CHG  1  13  -1
M  END
>  <UniqueID>  (25) 
25

>  <SMILES>  (25) 
CSc1nccc(-c2cc(C(=O)[N-]Cc3ccccc3C)c(CN3CCN(C)CC3)n(-c3ccccc3)c2=O)n1

>  <Energy>  (25) 
99.66043930462688

>  <Genealogy>  (25) 
CSc1nccc(-c2cc(C(=O)[N-]Cc3ccccc3C)c(CN3CCN(C)CC3)n(-c3ccccc3)c2=O)n1 (protonated)
CSc1nccc(-c2cc(C(=O)[N-]Cc3ccccc3C)c(CN3CCN(C)CC3)n(-c3ccccc3)c2=O)n1 (3D coordinates assigned)
CSc1nccc(-c2cc(C(=O)[N-]Cc3ccccc3C)c(CN3CCN(C)CC3)n(-c3ccccc3)c2=O)n1 (nonaromatic ring conformer: 99.66043930462688 kcal/mol)

>  <smiles>  (25) 
CSc1nccc(-c2cc(C(=O)NCc3ccccc3C)c(CN3CCN(C)CC3)n(-c3ccccc3)c2=O)n1

>  <score_type>  (25) 
oracle

>  <origin>  (25) 
adg

>  <m_score__min__energy>  (25) 
-10.16

>  <m_primary>  (25) 
energy

$$$$
26:0
     RDKit          3D

 37 39  0  0  0  0  0  0  0  0999 V2000
   59.5050   34.9760   46.9080 C   0  0  0  0  0  0  0  0  0  0  0  0
   59.8930   34.0870   45.7310 C   0  0  0  0  0  0  0  0  0  0  0  0
   59.1550   32.8100   45.7870 N   0  0  0  0  0  0  0  0  0  0  0  0
   57.9900   32.6600   45.0690 C   0  0  0  0  0  0  0  0  0  0  0  0
   57.5140   33.6020   44.3780 O   0  0  0  0  0  0  0  0  0  0  0  0
   57.3440   31.4380   45.1100 C   0  0  0  0  0  0  0  0  0  0  0  0
   56.2140   31.0630   44.4820 N   0  0  0  0  0  0  0  0  0  0  0  0
   56.0950   29.7670   44.8680 C   0  0  0  0  0  0  0  0  0  0  0  0
   55.1440   29.0310   44.4910 O   0  0  0  0  0  0  0  0  0  0  0  0
   57.0800   29.3310   45.6860 N   0  0  0  0  0  0  0  0  0  0  0  0
   57.8610   30.4140   45.8260 C   0  0  0  0  0  0  0  0  0  0  0  0
   59.0220   30.5250   46.5310 N   0  0  0  0  0  0  0  0  0  0  0  0
   59.6000   29.3560   47.2240 C   0  0  0  0  0  0  0  0  0  0  0  0
   60.4020   28.4750   46.2540 C   0  0  0  0  0  0  0  0  0  0  0  0
   59.5030   27.5650   45.4580 C   0  0  0  0  0  0  0  0  0  0  0  0
   59.1480   27.8970   44.1400 C   0  0  0  0  0  0  0  0  0  0  0  0
   58.2660   27.0850   43.4220 C   0  0  0  0  0  0  0  0  0  0  0  0
   57.7250   25.9410   44.0180 C   0  0  0  0  0  0  0  0  0  0  0  0
   58.0670   25.6080   45.3310 C   0  0  0  0  0  0  0  0  0  0  0  0
   58.9510   26.4160   46.0510 C   0  0  0  0  0  0  0  0  0  0  0  0
   59.6720   31.7430   46.5060 C   0  0  0  0  0  0  0  0  0  0  0  0
   60.7600   31.8830   47.1320 O   0  0  0  0  0  0  0  0  0  0  0  0
   59.7319   34.4562   47.8505 H   0  0  0  0  0  0  0  0  0  0  0  0
   60.0748   35.9157   46.8612 H   0  0  0  0  0  0  0  0  0  0  0  0
   58.4285   35.1972   46.8612 H   0  0  0  0  0  0  0  0  0  0  0  0
   59.6517   34.6044   44.7907 H   0  0  0  0  0  0  0  0  0  0  0  0
   60.9719   33.8787   45.7810 H   0  0  0  0  0  0  0  0  0  0  0  0
   57.1930   28.3780   46.0940 H   0  0  0  0  0  0  0  0  0  0  0  0
   60.2674   29.7075   48.0247 H   0  0  0  0  0  0  0  0  0  0  0  0
   58.7772   28.7560   47.6400 H   0  0  0  0  0  0  0  0  0  0  0  0
   60.9585   29.1227   45.5606 H   0  0  0  0  0  0  0  0  0  0  0  0
   61.0881   27.8500   46.8444 H   0  0  0  0  0  0  0  0  0  0  0  0
   59.5661   28.8000   43.6711 H   0  0  0  0  0  0  0  0  0  0  0  0
   57.9970   27.3456   42.3877 H   0  0  0  0  0  0  0  0  0  0  0  0
   57.0298   25.3031   43.4525 H   0  0  0  0  0  0  0  0  0  0  0  0
   57.6399   24.7086   45.7986 H   0  0  0  0  0  0  0  0  0  0  0  0
   59.2159   26.1521   47.0855 H   0  0  0  0  0  0  0  0  0  0  0  0
  1  2  1  0
  2  3  1  0
  3  4  1  0
  4  5  2  0
  4  6  1  0
  6  7  1  0
  7  8  1  0
  8  9  2  0
  8 10  1  0
 10 11  1  0
 11 12  1  0
 12 13  1  0
 13 14  1  0
 14 15  1  0
 15 16  2  0
 16 17  1  0
 17 18  2  0
 18 19  1  0
 19 20  2  0
 12 21  1  0
 21 22  2  0
 21  3  1  0
 11  6  2  0
 20 15  1  0
  1 23  1  0
  1 24  1  0
  1 25  1  0
  2 26  1  0
  2 27  1  0
 10 28  1  0
 13 29  1  0
 13 30  1  0
 14 31  1  0
 14 32  1  0
 16 33  1  0
 17 34  1  0
 18 35  1  0
 19 36  1  0
 20 37  1  0
M  CHG  1   7  -1
M  END
>  <UniqueID>  (26) 
26

>  <SMILES>  (26) 
CCn1c(=O)c2[n-]c(=O)[nH]c2n(CCc2ccccc2)c1=O

>  <Energy>  (26) 
76.8908223818081

>  <Genealogy>  (26) 
CCn1c(=O)c2[n-]c(=O)[nH]c2n(CCc2ccccc2)c1=O (protonated)
CCn1c(=O)c2[n-]c(=O)[nH]c2n(CCc2ccccc2)c1=O (3D coordinates assigned)
CCn1c(=O)c2[n-]c(=O)[nH]c2n(CCc2ccccc2)c1=O (optimized conformer: 76.8908223818081 kcal/mol)

>  <smiles>  (26) 
CCn1c(=O)c2[nH]c(=O)[nH]c2n(CCc2ccccc2)c1=O

>  <score_type>  (26) 
oracle

>  <origin>  (26) 
adg

>  <m_score__min__energy>  (26) 
-8.5500000000000007

>  <m_primary>  (26) 
energy

$$$$
27:0
     RDKit          3D

 57 60  0  0  0  0  0  0  0  0999 V2000
   59.7360   27.9020   46.9090 C   0  0  0  0  0  0  0  0  0  0  0  0
   58.9550   28.6860   46.1470 C   0  0  0  0  0  0  0  0  0  0  0  0
   57.9310   28.2630   45.2810 C   0  0  0  0  0  0  0  0  0  0  0  0
   57.5630   27.0320   44.8720 C   0  0  0  0  0  0  0  0  0  0  0  0
   57.3050   25.8730   45.7500 C   0  0  0  0  0  0  0  0  0  0  0  0
   56.0120   25.6110   46.2430 C   0  0  0  0  0  0  0  0  0  0  0  0
   54.9380   26.4610   45.9790 O   0  0  0  0  0  0  0  0  0  0  0  0
   55.7970   24.5080   47.0060 N   0  0  0  0  0  0  0  0  0  0  0  0
   56.8010   23.6420   47.2960 C   0  0  0  0  0  0  0  0  0  0  0  0
   56.5730   22.6300   48.0080 O   0  0  0  0  0  0  0  0  0  0  0  0
   58.0510   23.8640   46.8160 N   0  0  0  0  0  0  0  0  0  0  0  0
   58.3240   24.9490   46.0470 C   0  0  0  0  0  0  0  0  0  0  0  0
   59.4920   25.1140   45.6040 O   0  0  0  0  0  0  0  0  0  0  0  0
   57.3090   29.4100   44.8260 C   0  0  0  0  0  0  0  0  0  0  0  0
   57.9810   30.4780   45.3770 C   0  0  0  0  0  0  0  0  0  0  0  0
   57.6700   31.9120   45.0700 C   0  0  0  0  0  0  0  0  0  0  0  0
   58.9860   30.0500   46.1770 N   0  0  0  0  0  0  0  0  0  0  0  0
   59.9380   30.9260   46.8810 C   0  0  0  0  0  0  0  0  0  0  0  0
   59.5080   31.1340   48.3160 C   0  0  0  0  0  0  0  0  0  0  0  0
   59.9280   30.2180   49.2960 C   0  0  0  0  0  0  0  0  0  0  0  0
   59.5650   30.3920   50.6330 C   0  0  0  0  0  0  0  0  0  0  0  0
   58.7780   31.4790   51.0070 C   0  0  0  0  0  0  0  0  0  0  0  0
   58.3470   32.3960   50.0470 C   0  0  0  0  0  0  0  0  0  0  0  0
   58.7040   32.2340   48.6930 C   0  0  0  0  0  0  0  0  0  0  0  0
   58.2800   33.1420   47.7080 O   0  0  0  0  0  0  0  0  0  0  0  0
   58.8980   34.4000   47.4430 C   0  0  0  0  0  0  0  0  0  0  0  0
   60.1150   34.2140   46.5850 C   0  0  0  0  0  0  0  0  0  0  0  0
   60.0120   34.2900   45.3300 O   0  0  0  0  0  0  0  0  0  0  0  0
   61.3990   33.9470   47.1770 N   0  0  0  0  0  0  0  0  0  0  0  0
   61.6270   33.8270   48.6070 C   0  0  0  0  0  0  0  0  0  0  0  0
   63.0810   33.3990   48.7560 C   0  0  0  0  0  0  0  0  0  0  0  0
   63.7440   33.6840   47.4090 C   0  0  0  0  0  0  0  0  0  0  0  0
   62.6100   33.7740   46.3960 C   0  0  0  0  0  0  0  0  0  0  0  0
   60.5083   28.3519   47.5501 H   0  0  0  0  0  0  0  0  0  0  0  0
   59.6031   26.8102   46.8917 H   0  0  0  0  0  0  0  0  0  0  0  0
   57.4446   26.8775   43.7894 H   0  0  0  0  0  0  0  0  0  0  0  0
   54.0210   26.3280   46.3880 H   0  0  0  0  0  0  0  0  0  0  0  0
   56.4415   29.4603   44.1515 H   0  0  0  0  0  0  0  0  0  0  0  0
   57.5489   32.4703   46.0100 H   0  0  0  0  0  0  0  0  0  0  0  0
   58.4942   32.3493   44.4874 H   0  0  0  0  0  0  0  0  0  0  0  0
   56.7387   31.9686   44.4874 H   0  0  0  0  0  0  0  0  0  0  0  0
   60.9353   30.4622   46.8659 H   0  0  0  0  0  0  0  0  0  0  0  0
   59.9646   31.9016   46.3735 H   0  0  0  0  0  0  0  0  0  0  0  0
   60.5481   29.3566   49.0071 H   0  0  0  0  0  0  0  0  0  0  0  0
   59.9008   29.6700   51.3919 H   0  0  0  0  0  0  0  0  0  0  0  0
   58.4956   31.6149   52.0614 H   0  0  0  0  0  0  0  0  0  0  0  0
   57.7244   33.2510   50.3492 H   0  0  0  0  0  0  0  0  0  0  0  0
   58.1827   35.0525   46.9210 H   0  0  0  0  0  0  0  0  0  0  0  0
   59.2001   34.8573   48.3967 H   0  0  0  0  0  0  0  0  0  0  0  0
   61.4583   34.7932   49.1050 H   0  0  0  0  0  0  0  0  0  0  0  0
   60.9403   33.1025   49.0690 H   0  0  0  0  0  0  0  0  0  0  0  0
   63.5702   33.9782   49.5530 H   0  0  0  0  0  0  0  0  0  0  0  0
   63.1624   32.3364   49.0283 H   0  0  0  0  0  0  0  0  0  0  0  0
   64.2979   34.6335   47.4485 H   0  0  0  0  0  0  0  0  0  0  0  0
   64.4648   32.8980   47.1394 H   0  0  0  0  0  0  0  0  0  0  0  0
   62.7609   34.6338   45.7267 H   0  0  0  0  0  0  0  0  0  0  0  0
   62.5596   32.8765   45.7620 H   0  0  0  0  0  0  0  0  0  0  0  0
  1  2  2  0
  2  3  1  0
  3  4  2  3
  4  5  1  0
  5  6  2  0
  6  7  1  0
  6  8  1  0
  8  9  1  0
  9 10  2  0
  9 11  1  0
 11 12  1  0
 12 13  2  0
  3 14  1  0
 14 15  2  0
 15 16  1  0
 15 17  1  0
 17 18  1  0
 18 19  1  0
 19 20  2  0
 20 21  1  0
 21 22  2  0
 22 23  1  0
 23 24  2  0
 24 25  1  0
 25 26  1  0
 26 27  1  0
 27 28  2  0
 27 29  1  0
 29 30  1  0
 30 31  1  0
 31 32  1  0
 32 33  1  0
 17  2  1  0
 24 19  1  0
 33 29  1  0
 12  5  1  0
  1 34  1  0
  1 35  1  0
  4 36  1  0
  7 37  1  0
 14 38  1  0
 16 39  1  0
 16 40  1  0
 16 41  1  0
 18 42  1  0
 18 43  1  0
 20 44  1  0
 21 45  1  0
 22 46  1  0
 23 47  1  0
 26 48  1  0
 26 49  1  0
 30 50  1  0
 30 51  1  0
 31 52  1  0
 31 53  1  0
 32 54  1  0
 32 55  1  0
 33 56  1  0
 33 57  1  0
M  CHG  2   8  -1  11  -1
M  END
>  <UniqueID>  (27) 
27

>  <SMILES>  (27) 
C=c1c(=Cc2c(O)[n-]c(=O)[n-]c2=O)cc(C)n1Cc1ccccc1OCC(=O)N1CCCC1

>  <Energy>  (27) 
101.10228140348218

>  <Genealogy>  (27) 
C=c1c(=Cc2c(O)[n-]c(=O)[n-]c2=O)cc(C)n1Cc1ccccc1OCC(=O)N1CCCC1 (protonated)
C=c1c(=Cc2c(O)[n-]c(=O)[n-]c2=O)cc(C)n1Cc1ccccc1OCC(=O)N1CCCC1 (3D coordinates assigned)
C=c1c(=Cc2c(O)[n-]c(=O)[n-]c2=O)cc(C)n1Cc1ccccc1OCC(=O)N1CCCC1 (nonaromatic ring conformer: 101.10228140348218 kcal/mol)

>  <smiles>  (27) 
C=c1c(=Cc2c(O)[nH]c(=O)[nH]c2=O)cc(C)n1Cc1ccccc1OCC(=O)N1CCCC1

>  <score_type>  (27) 
oracle

>  <origin>  (27) 
adg

>  <m_score__min__energy>  (27) 
-13.91

>  <m_primary>  (27) 
energy

$$$$
28:0
     RDKit          3D

 53 56  0  0  0  0  0  0  0  0999 V2000
   60.2460   27.8670   46.6610 C   0  0  0  0  0  0  0  0  0  0  0  0
   59.2060   28.6060   46.2400 C   0  0  0  0  0  0  0  0  0  0  0  0
   58.1630   28.1920   45.3980 C   0  0  0  0  0  0  0  0  0  0  0  0
   57.7810   26.9590   45.0090 C   0  0  0  0  0  0  0  0  0  0  0  0
   57.2260   25.9180   45.8920 C   0  0  0  0  0  0  0  0  0  0  0  0
   57.9560   24.9730   46.5130 N   0  0  0  0  0  0  0  0  0  0  0  0
   57.0520   24.3520   47.3030 C   0  0  0  0  0  0  0  0  0  0  0  0
   57.3550   23.3820   48.0440 O   0  0  0  0  0  0  0  0  0  0  0  0
   55.8020   24.8620   47.2450 N   0  0  0  0  0  0  0  0  0  0  0  0
   55.9350   25.8610   46.3570 C   0  0  0  0  0  0  0  0  0  0  0  0
   54.8990   26.7100   45.9880 O   0  0  0  0  0  0  0  0  0  0  0  0
   57.4940   29.3440   45.0150 C   0  0  0  0  0  0  0  0  0  0  0  0
   58.0840   30.3930   45.6900 C   0  0  0  0  0  0  0  0  0  0  0  0
   57.6290   31.8180   45.6130 C   0  0  0  0  0  0  0  0  0  0  0  0
   59.1210   29.9480   46.4360 N   0  0  0  0  0  0  0  0  0  0  0  0
   59.9610   30.7580   47.2790 C   0  0  0  0  0  0  0  0  0  0  0  0
   61.0950   31.3910   46.7500 C   0  0  0  0  0  0  0  0  0  0  0  0
   61.9170   32.1680   47.5720 C   0  0  0  0  0  0  0  0  0  0  0  0
   61.6240   32.3010   48.9370 C   0  0  0  0  0  0  0  0  0  0  0  0
   62.4930   33.1070   49.8100 C   0  0  0  0  0  0  0  0  0  0  0  0
   62.8350   34.2520   49.4060 O   0  0  0  0  0  0  0  0  0  0  0  0
   62.9910   32.6220   51.0860 N   0  0  0  0  0  0  0  0  0  0  0  0
   63.6940   33.6830   51.8560 C   0  0  0  0  0  0  0  0  0  0  0  0
   65.2300   33.5930   51.7820 C   0  0  0  0  0  0  0  0  0  0  0  0
   65.6350   32.9560   50.5220 N   0  0  0  0  0  0  0  0  0  0  0  0
   67.0890   33.0760   50.3220 C   0  0  0  0  0  0  0  0  0  0  0  0
   65.2260   31.5410   50.5210 C   0  0  0  0  0  0  0  0  0  0  0  0
   63.7550   31.3550   50.9680 C   0  0  0  0  0  0  0  0  0  0  0  0
   60.4750   31.6940   49.4610 C   0  0  0  0  0  0  0  0  0  0  0  0
   59.6500   30.9220   48.6390 C   0  0  0  0  0  0  0  0  0  0  0  0
   58.5410   30.3440   49.1610 F   0  0  0  0  0  0  0  0  0  0  0  0
   61.0032   28.3106   47.3242 H   0  0  0  0  0  0  0  0  0  0  0  0
   60.3403   26.8184   46.3424 H   0  0  0  0  0  0  0  0  0  0  0  0
   57.8929   26.7092   43.9436 H   0  0  0  0  0  0  0  0  0  0  0  0
   56.6536   29.4095   44.3083 H   0  0  0  0  0  0  0  0  0  0  0  0
   57.5014   32.2176   46.6299 H   0  0  0  0  0  0  0  0  0  0  0  0
   58.3813   32.4146   45.0763 H   0  0  0  0  0  0  0  0  0  0  0  0
   56.6701   31.8683   45.0763 H   0  0  0  0  0  0  0  0  0  0  0  0
   61.3390   31.2758   45.6836 H   0  0  0  0  0  0  0  0  0  0  0  0
   62.7953   32.6760   47.1471 H   0  0  0  0  0  0  0  0  0  0  0  0
   62.1390   32.3760   51.6470 H   0  0  0  0  0  0  0  0  0  0  0  0
   63.3847   34.6614   51.4596 H   0  0  0  0  0  0  0  0  0  0  0  0
   63.4165   33.5487   52.9119 H   0  0  0  0  0  0  0  0  0  0  0  0
   65.6572   34.6054   51.8323 H   0  0  0  0  0  0  0  0  0  0  0  0
   65.5978   32.9909   52.6259 H   0  0  0  0  0  0  0  0  0  0  0  0
   67.5914   33.1175   51.2997 H   0  0  0  0  0  0  0  0  0  0  0  0
   67.4547   32.2050   49.7585 H   0  0  0  0  0  0  0  0  0  0  0  0
   67.3070   33.9952   49.7585 H   0  0  0  0  0  0  0  0  0  0  0  0
   65.3398   31.1404   49.5029 H   0  0  0  0  0  0  0  0  0  0  0  0
   65.8661   31.0048   51.2371 H   0  0  0  0  0  0  0  0  0  0  0  0
   63.2488   30.7141   50.2311 H   0  0  0  0  0  0  0  0  0  0  0  0
   63.7837   30.9080   51.9727 H   0  0  0  0  0  0  0  0  0  0  0  0
   60.2215   31.8257   50.5233 H   0  0  0  0  0  0  0  0  0  0  0  0
  1  2  2  0
  2  3  1  0
  3  4  2  3
  4  5  1  0
  5  6  1  0
  6  7  1  0
  7  8  2  0
  7  9  1  0
  9 10  1  0
 10 11  1  0
  3 12  1  0
 12 13  2  0
 13 14  1  0
 13 15  1  0
 15 16  1  0
 16 17  2  0
 17 18  1  0
 18 19  2  0
 19 20  1  0
 20 21  2  0
 20 22  1  0
 22 23  1  0
 23 24  1  0
 24 25  1  0
 25 26  1  0
 25 27  1  0
 27 28  1  0
 19 29  1  0
 29 30  2  0
 30 31  1  0
 15  2  1  0
 30 16  1  0
 10  5  2  0
 28 22  1  0
  1 32  1  0
  1 33  1  0
  4 34  1  0
 12 35  1  0
 14 36  1  0
 14 37  1  0
 14 38  1  0
 17 39  1  0
 18 40  1  0
 22 41  1  0
 23 42  1  0
 23 43  1  0
 24 44  1  0
 24 45  1  0
 26 46  1  0
 26 47  1  0
 26 48  1  0
 27 49  1  0
 27 50  1  0
 28 51  1  0
 28 52  1  0
 29 53  1  0
M  CHG  4   6  -1   9  -1  11  -1  22   1
M  END
>  <UniqueID>  (28) 
28

>  <SMILES>  (28) 
C=c1c(=Cc2[n-]c(=O)[n-]c2[O-])cc(C)n1-c1ccc(C(=O)[NH+]2CCN(C)CC2)cc1F

>  <Energy>  (28) 
150.71443388365253

>  <Genealogy>  (28) 
C=c1c(=Cc2[n-]c(=O)[n-]c2[O-])cc(C)n1-c1ccc(C(=O)[NH+]2CCN(C)CC2)cc1F (protonated)
C=c1c(=Cc2[n-]c(=O)[n-]c2[O-])cc(C)n1-c1ccc(C(=O)[NH+]2CCN(C)CC2)cc1F (3D coordinates assigned)
C=c1c(=Cc2[n-]c(=O)[n-]c2[O-])cc(C)n1-c1ccc(C(=O)[NH+]2CCN(C)CC2)cc1F (nonaromatic ring conformer: 150.71443388365253 kcal/mol)

>  <smiles>  (28) 
C=c1c(=Cc2[nH]c(=O)[nH]c2O)cc(C)n1-c1ccc(C(=O)N2CCN(C)CC2)cc1F

>  <score_type>  (28) 
oracle

>  <origin>  (28) 
adg

>  <m_score__min__energy>  (28) 
-14.26

>  <m_primary>  (28) 
energy

$$$$
29:0
     RDKit          3D

 52 53  0  0  0  0  0  0  0  0999 V2000
   59.2500   34.2260   44.5990 C   0  0  0  0  0  0  0  0  0  0  0  0
   58.0150   33.9730   45.0390 C   0  0  0  0  0  0  0  0  0  0  0  0
   57.7420   33.7810   46.5000 C   0  0  0  0  0  0  0  0  0  0  0  0
   58.7890   34.4180   47.2890 N   0  0  0  0  0  0  0  0  0  0  0  0
   59.2720   33.8600   48.5130 C   0  0  0  0  0  0  0  0  0  0  0  0
   59.8740   34.5860   49.3500 O   0  0  0  0  0  0  0  0  0  0  0  0
   59.0870   32.3990   48.7930 C   0  0  0  0  0  0  0  0  0  0  0  0
   60.0800   31.5970   48.0620 N   0  0  0  0  0  0  0  0  0  0  0  0
   59.6490   30.4310   47.3230 C   0  0  0  0  0  0  0  0  0  0  0  0
   58.5710   29.8550   47.6350 O   0  0  0  0  0  0  0  0  0  0  0  0
   60.4350   29.9240   46.1440 C   0  0  0  0  0  0  0  0  0  0  0  0
   59.9770   28.2030   45.7190 S   0  0  0  0  0  0  0  0  0  0  0  0
   59.0770   28.5900   44.1750 C   0  0  0  0  0  0  0  0  0  0  0  0
   57.6690   29.0200   44.4740 C   0  0  0  0  0  0  0  0  0  0  0  0
   57.0270   30.1790   44.0740 C   0  0  0  0  0  0  0  0  0  0  0  0
   57.5850   31.2580   43.2030 C   0  0  0  0  0  0  0  0  0  0  0  0
   55.7670   30.1800   44.5490 N   0  0  0  0  0  0  0  0  0  0  0  0
   55.6170   29.0840   45.2370 O   0  0  0  0  0  0  0  0  0  0  0  0
   56.7130   28.3600   45.2230 C   0  0  0  0  0  0  0  0  0  0  0  0
   56.8710   27.0690   45.9520 C   0  0  0  0  0  0  0  0  0  0  0  0
   61.3970   32.1450   47.8420 C   0  0  0  0  0  0  0  0  0  0  0  0
   61.6000   33.0760   46.8090 C   0  0  0  0  0  0  0  0  0  0  0  0
   62.8650   33.6170   46.5770 C   0  0  0  0  0  0  0  0  0  0  0  0
   63.9410   33.2410   47.3790 C   0  0  0  0  0  0  0  0  0  0  0  0
   63.7550   32.3280   48.4190 C   0  0  0  0  0  0  0  0  0  0  0  0
   62.4830   31.7720   48.6630 C   0  0  0  0  0  0  0  0  0  0  0  0
   62.2680   30.8510   49.6990 O   0  0  0  0  0  0  0  0  0  0  0  0
   62.3250   31.1690   51.0870 C   0  0  0  0  0  0  0  0  0  0  0  0
   59.4330   34.3643   43.5232 H   0  0  0  0  0  0  0  0  0  0  0  0
   60.0844   34.2961   45.3123 H   0  0  0  0  0  0  0  0  0  0  0  0
   57.1862   33.9045   44.3189 H   0  0  0  0  0  0  0  0  0  0  0  0
   56.7706   34.2316   46.7517 H   0  0  0  0  0  0  0  0  0  0  0  0
   57.7228   32.7047   46.7261 H   0  0  0  0  0  0  0  0  0  0  0  0
   59.2037   32.2211   49.8722 H   0  0  0  0  0  0  0  0  0  0  0  0
   58.0810   32.1013   48.4623 H   0  0  0  0  0  0  0  0  0  0  0  0
   60.2356   30.5710   45.2771 H   0  0  0  0  0  0  0  0  0  0  0  0
   61.5025   29.9407   46.4091 H   0  0  0  0  0  0  0  0  0  0  0  0
   59.5982   29.4023   43.6473 H   0  0  0  0  0  0  0  0  0  0  0  0
   59.0451   27.6864   43.5486 H   0  0  0  0  0  0  0  0  0  0  0  0
   57.9995   32.0595   43.8322 H   0  0  0  0  0  0  0  0  0  0  0  0
   58.3809   30.8417   42.5679 H   0  0  0  0  0  0  0  0  0  0  0  0
   56.7853   31.6669   42.5679 H   0  0  0  0  0  0  0  0  0  0  0  0
   56.8483   27.2548   47.0360 H   0  0  0  0  0  0  0  0  0  0  0  0
   56.0492   26.3908   45.6789 H   0  0  0  0  0  0  0  0  0  0  0  0
   57.8321   26.6090   45.6789 H   0  0  0  0  0  0  0  0  0  0  0  0
   60.7530   33.3813   46.1770 H   0  0  0  0  0  0  0  0  0  0  0  0
   63.0130   34.3401   45.7614 H   0  0  0  0  0  0  0  0  0  0  0  0
   64.9389   33.6644   47.1923 H   0  0  0  0  0  0  0  0  0  0  0  0
   64.6072   32.0406   49.0524 H   0  0  0  0  0  0  0  0  0  0  0  0
   62.1615   30.2566   51.6792 H   0  0  0  0  0  0  0  0  0  0  0  0
   63.3128   31.5895   51.3266 H   0  0  0  0  0  0  0  0  0  0  0  0
   61.5447   31.9064   51.3266 H   0  0  0  0  0  0  0  0  0  0  0  0
  1  2  2  0
  2  3  1  0
  3  4  1  0
  4  5  1  0
  5  6  2  0
  5  7  1  0
  7  8  1  0
  8  9  1  0
  9 10  2  0
  9 11  1  0
 11 12  1  0
 12 13  1  0
 13 14  1  0
 14 15  1  0
 15 16  1  0
 15 17  2  0
 17 18  1  0
 18 19  1  0
 19 20  1  0
  8 21  1  0
 21 22  2  0
 22 23  1  0
 23 24  2  0
 24 25  1  0
 25 26  2  0
 26 27  1  0
 27 28  1  0
 19 14  2  0
 26 21  1  0
  1 29  1  0
  1 30  1  0
  2 31  1  0
  3 32  1  0
  3 33  1  0
  7 34  1  0
  7 35  1  0
 11 36  1  0
 11 37  1  0
 13 38  1  0
 13 39  1  0
 16 40  1  0
 16 41  1  0
 16 42  1  0
 20 43  1  0
 20 44  1  0
 20 45  1  0
 22 46  1  0
 23 47  1  0
 24 48  1  0
 25 49  1  0
 28 50  1  0
 28 51  1  0
 28 52  1  0
M  CHG  1   4  -1
M  END
>  <UniqueID>  (29) 
29

>  <SMILES>  (29) 
C=CC[N-]C(=O)CN(C(=O)CSCc1c(C)noc1C)c1ccccc1OC

>  <Energy>  (29) 
70.89558854584477

>  <Genealogy>  (29) 
C=CC[N-]C(=O)CN(C(=O)CSCc1c(C)noc1C)c1ccccc1OC (protonated)
C=CC[N-]C(=O)CN(C(=O)CSCc1c(C)noc1C)c1ccccc1OC (3D coordinates assigned)
C=CC[N-]C(=O)CN(C(=O)CSCc1c(C)noc1C)c1ccccc1OC (optimized conformer: 70.89558854584477 kcal/mol)

>  <smiles>  (29) 
C=CCNC(=O)CN(C(=O)CSCc1c(C)noc1C)c1ccccc1OC

>  <score_type>  (29) 
oracle

>  <origin>  (29) 
adg

>  <m_score__min__energy>  (29) 
-9.4199999999999999

>  <m_primary>  (29) 
energy

$$$$
30:0
     RDKit          3D

 77 82  0  0  0  0  0  0  0  0999 V2000
   55.1400   27.4590   45.3160 H   0  0  0  0  0  0  0  0  0  0  0  0
   55.0000   26.7100   45.9810 O   0  0  0  0  0  0  0  0  0  0  0  0
   55.9210   25.6740   46.1170 C   0  0  0  0  0  0  0  0  0  0  0  0
   55.7480   24.6430   46.9600 N   0  0  0  0  0  0  0  0  0  0  0  0
   56.8890   23.9390   46.8130 C   0  0  0  0  0  0  0  0  0  0  0  0
   57.1230   22.8820   47.4580 O   0  0  0  0  0  0  0  0  0  0  0  0
   57.7680   24.4610   45.9300 N   0  0  0  0  0  0  0  0  0  0  0  0
   57.1370   25.5560   45.4710 C   0  0  0  0  0  0  0  0  0  0  0  0
   57.7410   26.4890   44.5030 C   0  0  0  0  0  0  0  0  0  0  0  0
   58.2118   26.0701   43.6014 H   0  0  0  0  0  0  0  0  0  0  0  0
   57.7480   27.8260   44.6620 C   0  0  0  0  0  0  0  0  0  0  0  0
   57.1210   28.7530   43.8380 C   0  0  0  0  0  0  0  0  0  0  0  0
   56.5125   28.5355   42.9478 H   0  0  0  0  0  0  0  0  0  0  0  0
   57.4110   30.0010   44.3550 C   0  0  0  0  0  0  0  0  0  0  0  0
   56.9340   31.2970   43.7710 C   0  0  0  0  0  0  0  0  0  0  0  0
   56.6778   31.9930   44.5834 H   0  0  0  0  0  0  0  0  0  0  0  0
   57.7300   31.7346   43.1506 H   0  0  0  0  0  0  0  0  0  0  0  0
   56.0442   31.1142   43.1506 H   0  0  0  0  0  0  0  0  0  0  0  0
   58.2050   29.8860   45.4450 N   0  0  0  0  0  0  0  0  0  0  0  0
   58.6770   30.9760   46.2560 C   0  0  0  0  0  0  0  0  0  0  0  0
   59.1560   32.1490   45.6520 C   0  0  0  0  0  0  0  0  0  0  0  0
   59.1043   32.2629   44.5591 H   0  0  0  0  0  0  0  0  0  0  0  0
   59.6980   33.1720   46.4330 C   0  0  0  0  0  0  0  0  0  0  0  0
   60.0653   34.0919   45.9546 H   0  0  0  0  0  0  0  0  0  0  0  0
   59.7750   33.0290   47.8260 C   0  0  0  0  0  0  0  0  0  0  0  0
   60.4640   34.0380   48.6510 C   0  0  0  0  0  0  0  0  0  0  0  0
   59.8190   35.0570   49.0180 O   0  0  0  0  0  0  0  0  0  0  0  0
   61.8230   33.8360   49.0990 N   0  0  0  0  0  0  0  0  0  0  0  0
   62.3440   34.5810   50.2590 C   0  0  0  0  0  0  0  0  0  0  0  0
   63.1093   35.2945   49.9194 H   0  0  0  0  0  0  0  0  0  0  0  0
   61.5163   35.1217   50.7412 H   0  0  0  0  0  0  0  0  0  0  0  0
   62.9690   33.6090   51.2730 C   0  0  0  0  0  0  0  0  0  0  0  0
   63.6301   34.1724   51.9479 H   0  0  0  0  0  0  0  0  0  0  0  0
   62.1562   33.1260   51.8353 H   0  0  0  0  0  0  0  0  0  0  0  0
   63.7510   32.5630   50.6020 N   0  0  0  0  0  0  0  0  0  0  0  0
   64.0420   31.3500   51.3100 C   0  0  0  0  0  0  0  0  0  0  0  0
   64.8340   31.3820   52.2890 O   0  0  0  0  0  0  0  0  0  0  0  0
   63.4130   30.0570   50.8630 C   0  0  0  0  0  0  0  0  0  0  0  0
   63.0494   30.1818   49.8323 H   0  0  0  0  0  0  0  0  0  0  0  0
   64.1826   29.2743   50.9346 H   0  0  0  0  0  0  0  0  0  0  0  0
   62.2600   29.6350   51.7300 C   0  0  0  0  0  0  0  0  0  0  0  0
   62.5010   29.2210   52.8950 O   0  0  0  0  0  0  0  0  0  0  0  0
   60.8990   29.6920   51.2670 N   0  0  0  0  0  0  0  0  0  0  0  0
   60.4740   29.1720   49.9820 C   0  0  0  0  0  0  0  0  0  0  0  0
   60.8999   29.7861   49.1748 H   0  0  0  0  0  0  0  0  0  0  0  0
   60.8218   28.1352   49.8633 H   0  0  0  0  0  0  0  0  0  0  0  0
   59.0640   29.2170   49.9200 O   0  0  0  0  0  0  0  0  0  0  0  0
   58.5980   29.4080   51.2410 C   0  0  0  0  0  0  0  0  0  0  0  0
   57.7574   30.1175   51.2387 H   0  0  0  0  0  0  0  0  0  0  0  0
   58.2546   28.4511   51.6610 H   0  0  0  0  0  0  0  0  0  0  0  0
   59.7400   29.9670   52.0820 C   0  0  2  0  0  0  0  0  0  0  0  0
   59.8121   29.5213   53.0851 H   0  0  0  0  0  0  0  0  0  0  0  0
   59.5550   31.4510   52.3390 C   0  0  0  0  0  0  0  0  0  0  0  0
   58.4570   32.1160   51.7640 C   0  0  0  0  0  0  0  0  0  0  0  0
   57.7186   31.5468   51.1803 H   0  0  0  0  0  0  0  0  0  0  0  0
   58.2970   33.4970   51.9290 C   0  0  0  0  0  0  0  0  0  0  0  0
   57.4252   34.0045   51.4902 H   0  0  0  0  0  0  0  0  0  0  0  0
   59.2410   34.2320   52.6490 C   0  0  0  0  0  0  0  0  0  0  0  0
   59.1161   35.3180   52.7719 H   0  0  0  0  0  0  0  0  0  0  0  0
   60.3440   33.5870   53.2130 C   0  0  0  0  0  0  0  0  0  0  0  0
   61.0854   34.1653   53.7838 H   0  0  0  0  0  0  0  0  0  0  0  0
   60.5080   32.2040   53.0530 C   0  0  0  0  0  0  0  0  0  0  0  0
   61.3860   31.7037   53.4875 H   0  0  0  0  0  0  0  0  0  0  0  0
   64.0100   32.6580   49.1640 C   0  0  0  0  0  0  0  0  0  0  0  0
   64.6667   33.5176   48.9644 H   0  0  0  0  0  0  0  0  0  0  0  0
   64.5007   31.7374   48.8151 H   0  0  0  0  0  0  0  0  0  0  0  0
   62.6840   32.8450   48.4260 C   0  0  0  0  0  0  0  0  0  0  0  0
   62.8909   33.1889   47.4018 H   0  0  0  0  0  0  0  0  0  0  0  0
   62.1560   31.8800   48.4173 H   0  0  0  0  0  0  0  0  0  0  0  0
   59.2560   31.8790   48.4340 C   0  0  0  0  0  0  0  0  0  0  0  0
   59.2744   31.7825   49.5296 H   0  0  0  0  0  0  0  0  0  0  0  0
   58.7150   30.8540   47.6540 C   0  0  0  0  0  0  0  0  0  0  0  0
   58.3177   29.9489   48.1366 H   0  0  0  0  0  0  0  0  0  0  0  0
   58.4190   28.5610   45.6430 C   0  0  0  0  0  0  0  0  0  0  0  0
   59.1860   28.0640   46.6260 C   0  0  0  0  0  0  0  0  0  0  0  0
   59.6671   28.7433   47.3451 H   0  0  0  0  0  0  0  0  0  0  0  0
   59.3335   26.9774   46.7125 H   0  0  0  0  0  0  0  0  0  0  0  0
  1  2  1  0
  2  3  1  0
  3  4  1  0
  4  5  1  0
  5  6  2  0
  5  7  1  0
  7  8  1  0
  8  9  1  0
  9 10  1  0
  9 11  2  0
 11 12  1  0
 12 13  1  0
 12 14  2  0
 14 15  1  0
 15 16  1  0
 15 17  1  0
 15 18  1  0
 14 19  1  0
 19 20  1  0
 20 21  2  0
 21 22  1  0
 21 23  1  0
 23 24  1  0
 23 25  2  0
 25 26  1  0
 26 27  2  0
 26 28  1  0
 28 29  1  0
 29 30  1  0
 29 31  1  0
 29 32  1  0
 32 33  1  0
 32 34  1  0
 32 35  1  0
 35 36  1  0
 36 37  2  0
 36 38  1  0
 38 39  1  0
 38 40  1  0
 38 41  1  0
 41 42  2  0
 41 43  1  0
 43 44  1  0
 44 45  1  0
 44 46  1  0
 44 47  1  0
 47 48  1  0
 48 49  1  0
 48 50  1  0
 48 51  1  0
 51 52  1  1
 51 53  1  0
 53 54  2  0
 54 55  1  0
 54 56  1  0
 56 57  1  0
 56 58  2  0
 58 59  1  0
 58 60  1  0
 60 61  1  0
 60 62  2  0
 62 63  1  0
 35 64  1  0
 64 65  1  0
 64 66  1  0
 64 67  1  0
 67 68  1  0
 67 69  1  0
 25 70  1  0
 70 71  1  0
 70 72  2  0
 72 73  1  0
 19 74  1  0
 74 75  2  0
 75 76  1  0
 75 77  1  0
  8  3  2  0
 74 11  1  0
 72 20  1  0
 67 28  1  0
 51 43  1  0
 62 53  1  0
M  CHG  2   4  -1   7  -1
M  END
>  <UniqueID>  (30) 
30

>  <SMILES>  (30) 
C=c1/c(=C/c2[n-]c(=O)[n-]c2O)cc(C)n1-c1ccc(C(=O)N2CCN(C(=O)CC(=O)N3COC[C@@H]3c3ccccc3)CC2)cc1

>  <Energy>  (30) 
164.16343200034274

>  <Genealogy>  (30) 
C=c1c(=Cc2[n-]c(=O)[n-]c2O)cc(C)n1-c1ccc(C(=O)N2CCN(C(=O)CC(=O)N3COCC3c3ccccc3)CC2)cc1 (protonated)
C=c1c(=Cc2[n-]c(=O)[n-]c2O)cc(C)n1-c1ccc(C(=O)N2CCN(C(=O)CC(=O)N3COC[C@@H]3c3ccccc3)CC2)cc1 (chirality)
C=c1/c(=C/c2[n-]c(=O)[n-]c2O)cc(C)n1-c1ccc(C(=O)N2CCN(C(=O)CC(=O)N3COC[C@@H]3c3ccccc3)CC2)cc1 (cis-trans isomerization)
C=c1/c(=C/c2[n-]c(=O)[n-]c2O)cc(C)n1-c1ccc(C(=O)N2CCN(C(=O)CC(=O)N3COC[C@@H]3c3ccccc3)CC2)cc1 (3D coordinates assigned)
C=c1/c(=C/c2[n-]c(=O)[n-]c2O)cc(C)n1-c1ccc(C(=O)N2CCN(C(=O)CC(=O)N3COC[C@@H]3c3ccccc3)CC2)cc1 (nonaromatic ring conformer: 164.16343200034274 kcal/mol)

>  <smiles>  (30) 
C=c1c(=Cc2[nH]c(=O)[nH]c2O)cc(C)n1-c1ccc(C(=O)N2CCN(C(=O)CC(=O)N3COCC3c3ccccc3)CC2)cc1

>  <score_type>  (30) 
oracle

>  <origin>  (30) 
adg

>  <m_score__min__energy>  (30) 
-15.44

>  <m_primary>  (30) 
energy

$$$$
31:0
     RDKit          3D

 61 65  0  0  0  0  0  0  0  0999 V2000
   51.4692   22.0886   49.7204 H   0  0  0  0  0  0  0  0  0  0  0  0
   51.8550   22.2500   48.7030 C   0  0  0  0  0  0  0  0  0  0  0  0
   53.1400   22.2280   48.4920 N   0  0  0  0  0  0  0  0  0  0  0  0
   53.7310   22.3230   47.1570 C   0  0  0  0  0  0  0  0  0  0  0  0
   53.8438   21.3116   46.7395 H   0  0  0  0  0  0  0  0  0  0  0  0
   54.7118   22.8142   47.2392 H   0  0  0  0  0  0  0  0  0  0  0  0
   52.8370   23.1580   46.2230 C   0  0  1  0  0  0  0  0  0  0  0  0
   52.8154   24.1903   46.6024 H   0  0  0  0  0  0  0  0  0  0  0  0
   53.3850   23.2510   44.8610 N   0  0  0  0  0  0  0  0  0  0  0  0
   54.6170   23.4690   44.5060 C   0  0  0  0  0  0  0  0  0  0  0  0
   55.3720   24.4280   45.1060 N   0  0  0  0  0  0  0  0  0  0  0  0
   56.6650   24.6580   44.7460 C   0  0  0  0  0  0  0  0  0  0  0  0
   57.4380   25.7160   45.4490 C   0  0  0  0  0  0  0  0  0  0  0  0
   57.7690   25.5510   46.8030 C   0  0  0  0  0  0  0  0  0  0  0  0
   57.4648   24.6402   47.3395 H   0  0  0  0  0  0  0  0  0  0  0  0
   58.4850   26.5470   47.4640 C   0  0  0  0  0  0  0  0  0  0  0  0
   58.7272   26.4315   48.5308 H   0  0  0  0  0  0  0  0  0  0  0  0
   58.8850   27.6600   46.7960 N   0  0  0  0  0  0  0  0  0  0  0  0
   58.6230   27.8490   45.4760 C   0  0  0  0  0  0  0  0  0  0  0  0
   59.0470   28.9480   44.9160 N   0  0  0  0  0  0  0  0  0  0  0  0
   58.7100   30.3000   45.2590 C   0  0  0  0  0  0  0  0  0  0  0  0
   59.6210   31.0590   45.6830 O   0  0  0  0  0  0  0  0  0  0  0  0
   57.3630   30.8460   44.9710 C   0  0  0  0  0  0  0  0  0  0  0  0
   56.5468   30.1264   44.8097 H   0  0  0  0  0  0  0  0  0  0  0  0
   57.0630   32.1520   44.8920 C   0  0  0  0  0  0  0  0  0  0  0  0
   56.1052   32.4281   44.4269 H   0  0  0  0  0  0  0  0  0  0  0  0
   57.9270   33.2470   45.3850 C   0  0  0  0  0  0  0  0  0  0  0  0
   58.4790   34.1530   44.4680 C   0  0  0  0  0  0  0  0  0  0  0  0
   58.2684   34.0424   43.3940 H   0  0  0  0  0  0  0  0  0  0  0  0
   59.2950   35.1950   44.9130 C   0  0  0  0  0  0  0  0  0  0  0  0
   59.7261   35.9022   44.1891 H   0  0  0  0  0  0  0  0  0  0  0  0
   59.5650   35.3410   46.2760 C   0  0  0  0  0  0  0  0  0  0  0  0
   60.2106   36.1625   46.6200 H   0  0  0  0  0  0  0  0  0  0  0  0
   59.0190   34.4480   47.2080 C   0  0  0  0  0  0  0  0  0  0  0  0
   59.3170   34.6150   48.6010 N   0  0  0  0  0  0  0  0  0  0  0  0
   59.1120   35.5390   49.0440 H   0  0  0  0  0  0  0  0  0  0  0  0
   60.2780   33.5030   49.5280 S   0  0  0  0  0  0  0  0  0  0  0  0
   59.4720   32.2970   49.9200 O   0  0  0  0  0  0  0  0  0  0  0  0
   60.7820   34.1870   50.7680 O   0  0  0  0  0  0  0  0  0  0  0  0
   61.6350   32.9670   48.5550 C   0  0  0  0  0  0  0  0  0  0  0  0
   62.9890   33.8900   48.1890 S   0  0  0  0  0  0  0  0  0  0  0  0
   63.7540   32.7150   47.2570 C   0  0  0  0  0  0  0  0  0  0  0  0
   64.7277   32.8237   46.7568 H   0  0  0  0  0  0  0  0  0  0  0  0
   62.9460   31.5840   47.2270 C   0  0  0  0  0  0  0  0  0  0  0  0
   63.2153   30.6663   46.6837 H   0  0  0  0  0  0  0  0  0  0  0  0
   61.7580   31.7230   47.9530 C   0  0  0  0  0  0  0  0  0  0  0  0
   61.0010   30.9294   48.0376 H   0  0  0  0  0  0  0  0  0  0  0  0
   58.1590   33.4310   46.7600 C   0  0  0  0  0  0  0  0  0  0  0  0
   57.6636   32.7740   47.4900 H   0  0  0  0  0  0  0  0  0  0  0  0
   57.8740   26.8750   44.7810 C   0  0  0  0  0  0  0  0  0  0  0  0
   57.6315   27.0220   43.7182 H   0  0  0  0  0  0  0  0  0  0  0  0
   57.2230   23.8950   43.7080 C   0  0  0  0  0  0  0  0  0  0  0  0
   58.2590   24.0663   43.3802 H   0  0  0  0  0  0  0  0  0  0  0  0
   56.4380   22.9160   43.1010 C   0  0  0  0  0  0  0  0  0  0  0  0
   56.8557   22.3017   42.2897 H   0  0  0  0  0  0  0  0  0  0  0  0
   55.1590   22.7200   43.5100 N   0  0  0  0  0  0  0  0  0  0  0  0
   51.3970   22.6170   46.2440 C   0  0  0  0  0  0  0  0  0  0  0  0
   51.3698   21.6332   45.7526 H   0  0  0  0  0  0  0  0  0  0  0  0
   50.7389   23.3179   45.7095 H   0  0  0  0  0  0  0  0  0  0  0  0
   50.9360   22.4820   47.6260 N   0  0  0  0  0  0  0  0  0  0  0  0
   49.9140   22.5320   47.8320 H   0  0  0  0  0  0  0  0  0  0  0  0
  1  2  1  0
  2  3  2  0
  3  4  1  0
  4  5  1  0
  4  6  1  0
  4  7  1  0
  7  8  1  1
  7  9  1  0
  9 10  2  3
 10 11  1  0
 11 12  2  0
 12 13  1  0
 13 14  1  0
 14 15  1  0
 14 16  2  0
 16 17  1  0
 16 18  1  0
 18 19  1  0
 19 20  2  0
 20 21  1  0
 21 22  2  0
 21 23  1  0
 23 24  1  0
 23 25  2  0
 25 26  1  0
 25 27  1  0
 27 28  2  0
 28 29  1  0
 28 30  1  0
 30 31  1  0
 30 32  2  0
 32 33  1  0
 32 34  1  0
 34 35  1  0
 35 36  1  0
 35 37  1  0
 37 38  2  0
 37 39  2  0
 37 40  1  0
 40 41  1  0
 41 42  1  0
 42 43  1  0
 42 44  2  0
 44 45  1  0
 44 46  1  0
 46 47  1  0
 34 48  2  0
 48 49  1  0
 19 50  1  0
 50 51  1  0
 12 52  1  0
 52 53  1  0
 52 54  2  0
 54 55  1  0
 54 56  1  0
  7 57  1  0
 57 58  1  0
 57 59  1  0
 57 60  1  0
 60 61  1  0
 60  2  1  0
 56 10  1  0
 50 13  2  0
 48 27  1  0
 46 40  2  0
M  CHG  2  18  -1  56  -1
M  END
>  <UniqueID>  (31) 
31

>  <SMILES>  (31) 
O=C(/C=C\c1cccc(NS(=O)(=O)c2cccs2)c1)/N=c1\cc(-c2cc[n-]c(=N[C@@H]3CN=CNC3)n2)cc[n-]1

>  <Energy>  (31) 
119.94131864248406

>  <Genealogy>  (31) 
O=C(C=Cc1cccc(NS(=O)(=O)c2cccs2)c1)N=c1cc(-c2cc[n-]c(=NC3CN=CNC3)n2)cc[n-]1 (protonated)
O=C(C=Cc1cccc(NS(=O)(=O)c2cccs2)c1)N=c1cc(-c2cc[n-]c(=N[C@@H]3CN=CNC3)n2)cc[n-]1 (chirality)
O=C(/C=C\c1cccc(NS(=O)(=O)c2cccs2)c1)/N=c1\cc(-c2cc[n-]c(=N[C@@H]3CN=CNC3)n2)cc[n-]1 (cis-trans isomerization)
O=C(/C=C\c1cccc(NS(=O)(=O)c2cccs2)c1)/N=c1\cc(-c2cc[n-]c(=N[C@@H]3CN=CNC3)n2)cc[n-]1 (3D coordinates assigned)
O=C(/C=C\c1cccc(NS(=O)(=O)c2cccs2)c1)/N=c1\cc(-c2cc[n-]c(=N[C@@H]3CN=CNC3)n2)cc[n-]1 (nonaromatic ring conformer: 119.94131864248406 kcal/mol)

>  <smiles>  (31) 
O=C(C=Cc1cccc(NS(=O)(=O)c2cccs2)c1)N=c1cc(-c2cc[nH]c(=NC3CN=CNC3)n2)cc[nH]1

>  <score_type>  (31) 
oracle

>  <origin>  (31) 
adg

>  <m_score__min__energy>  (31) 
-12.949999999999999

>  <m_primary>  (31) 
energy

$$$$
32:0
     RDKit          3D

 39 42  0  0  0  0  0  0  0  0999 V2000
   57.1450   33.5790   44.1300 O   0  0  0  0  0  0  0  0  0  0  0  0
   57.4310   32.6790   44.9630 C   0  0  0  0  0  0  0  0  0  0  0  0
   56.9340   31.3520   44.7350 N   0  0  0  0  0  0  0  0  0  0  0  0
   57.6790   30.1320   44.8620 C   0  0  0  0  0  0  0  0  0  0  0  0
   59.0690   30.1900   44.7240 C   0  0  0  0  0  0  0  0  0  0  0  0
   59.8430   29.0420   44.8820 C   0  0  0  0  0  0  0  0  0  0  0  0
   59.2330   27.8170   45.1440 C   0  0  0  0  0  0  0  0  0  0  0  0
   57.8340   27.7160   45.2310 C   0  0  0  0  0  0  0  0  0  0  0  0
   57.2400   26.3720   45.4060 C   0  0  0  0  0  0  0  0  0  0  0  0
   56.0050   26.1740   45.9490 N   0  0  0  0  0  0  0  0  0  0  0  0
   55.9150   24.8350   45.9310 C   0  0  0  0  0  0  0  0  0  0  0  0
   54.8710   24.0870   46.3630 N   0  0  0  0  0  0  0  0  0  0  0  0
   54.9560   22.7240   46.2700 C   0  0  0  0  0  0  0  0  0  0  0  0
   56.1140   22.1100   45.7330 C   0  0  0  0  0  0  0  0  0  0  0  0
   57.1860   22.9080   45.2930 C   0  0  0  0  0  0  0  0  0  0  0  0
   57.0390   24.2840   45.4130 C   0  0  0  0  0  0  0  0  0  0  0  0
   57.8610   25.2430   45.0920 O   0  0  0  0  0  0  0  0  0  0  0  0
   57.0470   28.8900   45.1020 C   0  0  0  0  0  0  0  0  0  0  0  0
   55.6540   28.8570   45.2120 O   0  0  0  0  0  0  0  0  0  0  0  0
   58.2980   33.0080   46.1200 C   0  0  0  0  0  0  0  0  0  0  0  0
   58.3400   32.1530   47.2310 C   0  0  0  0  0  0  0  0  0  0  0  0
   59.1610   32.4470   48.3230 C   0  0  0  0  0  0  0  0  0  0  0  0
   59.9510   33.6110   48.3300 C   0  0  0  0  0  0  0  0  0  0  0  0
   60.8010   33.9160   49.4500 N   0  0  0  0  0  0  0  0  0  0  0  0
   62.0020   34.2090   49.2770 O   0  0  0  0  0  0  0  0  0  0  0  0
   60.3020   33.8910   50.7330 O   0  0  0  0  0  0  0  0  0  0  0  0
   59.8930   34.4760   47.2240 C   0  0  0  0  0  0  0  0  0  0  0  0
   59.0720   34.1810   46.1320 C   0  0  0  0  0  0  0  0  0  0  0  0
   59.5551   31.1484   44.4891 H   0  0  0  0  0  0  0  0  0  0  0  0
   60.9382   29.1031   44.7997 H   0  0  0  0  0  0  0  0  0  0  0  0
   59.8531   26.9193   45.2843 H   0  0  0  0  0  0  0  0  0  0  0  0
   54.1182   22.1004   46.6151 H   0  0  0  0  0  0  0  0  0  0  0  0
   56.1749   21.0141   45.6603 H   0  0  0  0  0  0  0  0  0  0  0  0
   58.0996   22.4622   44.8728 H   0  0  0  0  0  0  0  0  0  0  0  0
   55.1490   28.1760   45.7610 H   0  0  0  0  0  0  0  0  0  0  0  0
   57.7215   31.2434   47.2429 H   0  0  0  0  0  0  0  0  0  0  0  0
   59.1897   31.7628   49.1839 H   0  0  0  0  0  0  0  0  0  0  0  0
   60.4994   35.3938   47.2176 H   0  0  0  0  0  0  0  0  0  0  0  0
   59.0314   34.8713   45.2765 H   0  0  0  0  0  0  0  0  0  0  0  0
  1  2  2  0
  2  3  1  0
  3  4  1  0
  4  5  2  0
  5  6  1  0
  6  7  2  0
  7  8  1  0
  8  9  1  0
  9 10  2  0
 10 11  1  0
 11 12  2  0
 12 13  1  0
 13 14  2  0
 14 15  1  0
 15 16  2  0
 16 17  1  0
  8 18  2  0
 18 19  1  0
  2 20  1  0
 20 21  2  0
 21 22  1  0
 22 23  2  0
 23 24  1  0
 24 25  2  0
 24 26  1  0
 23 27  1  0
 27 28  2  0
 18  4  1  0
 28 20  1  0
 17  9  1  0
 16 11  1  0
  5 29  1  0
  6 30  1  0
  7 31  1  0
 13 32  1  0
 14 33  1  0
 15 34  1  0
 19 35  1  0
 21 36  1  0
 22 37  1  0
 27 38  1  0
 28 39  1  0
M  CHG  3   3  -1  24   1  26  -1
M  END
>  <UniqueID>  (32) 
32

>  <SMILES>  (32) 
O=C([N-]c1cccc(-c2nc3ncccc3o2)c1O)c1ccc([N+](=O)[O-])cc1

>  <Energy>  (32) 
98.81868950590024

>  <Genealogy>  (32) 
O=C([N-]c1cccc(-c2nc3ncccc3o2)c1O)c1ccc([N+](=O)[O-])cc1 (protonated)
O=C([N-]c1cccc(-c2nc3ncccc3o2)c1O)c1ccc([N+](=O)[O-])cc1 (3D coordinates assigned)
O=C([N-]c1cccc(-c2nc3ncccc3o2)c1O)c1ccc([N+](=O)[O-])cc1 (optimized conformer: 98.81868950590024 kcal/mol)

>  <smiles>  (32) 
O=C(Nc1cccc(-c2nc3ncccc3o2)c1O)c1ccc([N+](=O)[O-])cc1

>  <score_type>  (32) 
oracle

>  <origin>  (32) 
adg

>  <m_score__min__energy>  (32) 
-11.43

>  <m_primary>  (32) 
energy

$$$$
33:0
     RDKit          3D

 57 60  0  0  0  0  0  0  0  0999 V2000
   60.5120   28.4440   50.1860 O   0  0  0  0  0  0  0  0  0  0  0  0
   59.9680   28.6860   49.0780 C   0  0  0  0  0  0  0  0  0  0  0  0
   60.2380   27.8430   47.9530 N   0  0  0  0  0  0  0  0  0  0  0  0
   59.2950   27.6930   46.8870 C   0  0  0  0  0  0  0  0  0  0  0  0
   59.6080   28.1340   45.5920 C   0  0  0  0  0  0  0  0  0  0  0  0
   58.6900   27.9680   44.5520 C   0  0  0  0  0  0  0  0  0  0  0  0
   57.4430   27.3890   44.8050 C   0  0  0  0  0  0  0  0  0  0  0  0
   57.1070   26.9870   46.1040 C   0  0  0  0  0  0  0  0  0  0  0  0
   55.7950   26.4810   46.3710 N   0  0  0  0  0  0  0  0  0  0  0  0
   55.2440   25.3500   45.6820 C   0  0  0  0  0  0  0  0  0  0  0  0
   53.9960   25.2670   45.5230 O   0  0  0  0  0  0  0  0  0  0  0  0
   56.1310   24.3100   45.1150 C   0  0  0  0  0  0  0  0  0  0  0  0
   57.2600   23.8680   45.8310 C   0  0  0  0  0  0  0  0  0  0  0  0
   58.1060   22.8960   45.2930 C   0  0  0  0  0  0  0  0  0  0  0  0
   57.8350   22.3500   44.0360 C   0  0  0  0  0  0  0  0  0  0  0  0
   56.7160   22.7760   43.3180 C   0  0  0  0  0  0  0  0  0  0  0  0
   55.8660   23.7480   43.8540 C   0  0  0  0  0  0  0  0  0  0  0  0
   58.0530   27.1030   47.1340 C   0  0  0  0  0  0  0  0  0  0  0  0
   59.0500   29.7780   48.9560 N   0  0  0  0  0  0  0  0  0  0  0  0
   59.4590   31.0590   48.4580 C   0  0  0  0  0  0  0  0  0  0  0  0
   60.3050   31.8650   49.2270 C   0  0  0  0  0  0  0  0  0  0  0  0
   60.6890   33.1260   48.7600 C   0  0  0  0  0  0  0  0  0  0  0  0
   60.2030   33.6040   47.5400 C   0  0  0  0  0  0  0  0  0  0  0  0
   59.3290   32.8190   46.7740 C   0  0  0  0  0  0  0  0  0  0  0  0
   58.6290   33.4550   45.2830 S   0  0  0  0  0  0  0  0  0  0  0  0
   59.6830   34.2380   44.5490 O   0  0  0  0  0  0  0  0  0  0  0  0
   57.5000   34.3900   45.6270 O   0  0  0  0  0  0  0  0  0  0  0  0
   58.0470   32.1670   44.2530 N   0  0  0  0  0  0  0  0  0  0  0  0
   56.8470   31.5530   44.8530 C   0  0  0  0  0  0  0  0  0  0  0  0
   56.1550   30.5550   43.8940 C   0  0  0  0  0  0  0  0  0  0  0  0
   56.9950   30.2720   42.6480 C   0  0  0  0  0  0  0  0  0  0  0  0
   57.3850   31.5730   41.9370 C   0  0  0  0  0  0  0  0  0  0  0  0
   57.7320   32.7060   42.9200 C   0  0  0  0  0  0  0  0  0  0  0  0
   58.9780   31.5390   47.2270 C   0  0  0  0  0  0  0  0  0  0  0  0
   60.5791   28.6118   45.3952 H   0  0  0  0  0  0  0  0  0  0  0  0
   58.9486   28.2931   43.5335 H   0  0  0  0  0  0  0  0  0  0  0  0
   56.7252   27.2490   43.9834 H   0  0  0  0  0  0  0  0  0  0  0  0
   57.4774   24.2919   46.8225 H   0  0  0  0  0  0  0  0  0  0  0  0
   58.9869   22.5598   45.8596 H   0  0  0  0  0  0  0  0  0  0  0  0
   58.5026   21.5852   43.6124 H   0  0  0  0  0  0  0  0  0  0  0  0
   56.5026   22.3459   42.3283 H   0  0  0  0  0  0  0  0  0  0  0  0
   54.9834   24.0754   43.2849 H   0  0  0  0  0  0  0  0  0  0  0  0
   57.8155   26.7277   48.1404 H   0  0  0  0  0  0  0  0  0  0  0  0
   60.6690   31.5062   50.2011 H   0  0  0  0  0  0  0  0  0  0  0  0
   61.3766   33.7444   49.3556 H   0  0  0  0  0  0  0  0  0  0  0  0
   60.5066   34.5980   47.1798 H   0  0  0  0  0  0  0  0  0  0  0  0
   57.1433   31.0175   45.7670 H   0  0  0  0  0  0  0  0  0  0  0  0
   56.1314   32.3589   45.0731 H   0  0  0  0  0  0  0  0  0  0  0  0
   55.9859   29.6090   44.4293 H   0  0  0  0  0  0  0  0  0  0  0  0
   55.2065   31.0053   43.5659 H   0  0  0  0  0  0  0  0  0  0  0  0
   57.9092   29.7372   42.9451 H   0  0  0  0  0  0  0  0  0  0  0  0
   56.3971   29.6614   41.9553 H   0  0  0  0  0  0  0  0  0  0  0  0
   58.2613   31.3777   41.3015 H   0  0  0  0  0  0  0  0  0  0  0  0
   56.5180   31.9008   41.3446 H   0  0  0  0  0  0  0  0  0  0  0  0
   58.6039   33.2583   42.5396 H   0  0  0  0  0  0  0  0  0  0  0  0
   56.8623   33.3738   43.0076 H   0  0  0  0  0  0  0  0  0  0  0  0
   58.3206   30.9050   46.6139 H   0  0  0  0  0  0  0  0  0  0  0  0
  1  2  2  0
  2  3  1  0
  3  4  1  0
  4  5  2  0
  5  6  1  0
  6  7  2  0
  7  8  1  0
  8  9  1  0
  9 10  1  0
 10 11  2  0
 10 12  1  0
 12 13  2  0
 13 14  1  0
 14 15  2  0
 15 16  1  0
 16 17  2  0
  8 18  2  0
  2 19  1  0
 19 20  1  0
 20 21  2  0
 21 22  1  0
 22 23  2  0
 23 24  1  0
 24 25  1  0
 25 26  2  0
 25 27  2  0
 25 28  1  0
 28 29  1  0
 29 30  1  0
 30 31  1  0
 31 32  1  0
 32 33  1  0
 24 34  2  0
 18  4  1  0
 34 20  1  0
 17 12  1  0
 33 28  1  0
  5 35  1  0
  6 36  1  0
  7 37  1  0
 13 38  1  0
 14 39  1  0
 15 40  1  0
 16 41  1  0
 17 42  1  0
 18 43  1  0
 21 44  1  0
 22 45  1  0
 23 46  1  0
 29 47  1  0
 29 48  1  0
 30 49  1  0
 30 50  1  0
 31 51  1  0
 31 52  1  0
 32 53  1  0
 32 54  1  0
 33 55  1  0
 33 56  1  0
 34 57  1  0
M  CHG  3   3  -1   9  -1  19  -1
M  END
>  <UniqueID>  (33) 
33

>  <SMILES>  (33) 
O=C([N-]c1cccc([N-]C(=O)c2ccccc2)c1)[N-]c1cccc(S(=O)(=O)N2CCCCC2)c1

>  <Energy>  (33) 
77.23983002537481

>  <Genealogy>  (33) 
O=C([N-]c1cccc([N-]C(=O)c2ccccc2)c1)[N-]c1cccc(S(=O)(=O)N2CCCCC2)c1 (protonated)
O=C([N-]c1cccc([N-]C(=O)c2ccccc2)c1)[N-]c1cccc(S(=O)(=O)N2CCCCC2)c1 (3D coordinates assigned)
O=C([N-]c1cccc([N-]C(=O)c2ccccc2)c1)[N-]c1cccc(S(=O)(=O)N2CCCCC2)c1 (nonaromatic ring conformer: 77.23983002537481 kcal/mol)

>  <smiles>  (33) 
O=C(Nc1cccc(NC(=O)c2ccccc2)c1)Nc1cccc(S(=O)(=O)N2CCCCC2)c1

>  <score_type>  (33) 
oracle

>  <origin>  (33) 
adg

>  <m_score__min__energy>  (33) 
-14.970000000000001

>  <m_primary>  (33) 
energy

$$$$
34:0
     RDKit          3D

 60 63  0  0  0  0  0  0  0  0999 V2000
   59.3010   34.6320   44.5510 C   0  0  0  0  0  0  0  0  0  0  0  0
   58.6310   34.8240   45.8490 N   0  0  0  0  0  0  0  0  0  0  0  0
   57.5110   33.8650   46.0410 C   0  0  0  0  0  0  0  0  0  0  0  0
   57.7790   32.7790   47.1020 C   0  0  0  0  0  0  0  0  0  0  0  0
   59.1950   32.4070   47.1180 N   0  0  0  0  0  0  0  0  0  0  0  0
   59.5660   31.0410   47.3730 C   0  0  0  0  0  0  0  0  0  0  0  0
   59.8480   30.6460   48.6400 N   0  0  0  0  0  0  0  0  0  0  0  0
   60.1770   29.3570   48.9220 C   0  0  0  0  0  0  0  0  0  0  0  0
   60.4410   28.9800   50.2480 C   0  0  0  0  0  0  0  0  0  0  0  0
   60.7730   27.6550   50.5640 C   0  0  0  0  0  0  0  0  0  0  0  0
   60.9900   27.2440   51.9990 C   0  0  0  0  0  0  0  0  0  0  0  0
   60.9790   25.8650   52.1240 F   0  0  0  0  0  0  0  0  0  0  0  0
   62.2090   27.7110   52.4630 F   0  0  0  0  0  0  0  0  0  0  0  0
   59.9790   27.7750   52.7790 F   0  0  0  0  0  0  0  0  0  0  0  0
   60.7920   26.6970   49.5410 C   0  0  0  0  0  0  0  0  0  0  0  0
   60.5340   27.0610   48.2180 C   0  0  0  0  0  0  0  0  0  0  0  0
   60.2360   28.4020   47.8760 C   0  0  0  0  0  0  0  0  0  0  0  0
   59.9810   28.8030   46.5770 N   0  0  0  0  0  0  0  0  0  0  0  0
   60.0340   27.8540   45.4420 C   0  0  0  0  0  0  0  0  0  0  0  0
   58.6160   27.5260   44.9500 C   0  0  0  0  0  0  0  0  0  0  0  0
   57.7200   26.9800   46.0690 C   0  0  0  0  0  0  0  0  0  0  0  0
   56.2680   27.1910   45.7740 C   0  0  0  0  0  0  0  0  0  0  0  0
   55.8930   28.2640   45.2280 O   0  0  0  0  0  0  0  0  0  0  0  0
   55.3340   26.1360   46.0400 N   0  0  0  0  0  0  0  0  0  0  0  0
   55.5130   24.7380   45.7650 C   0  0  0  0  0  0  0  0  0  0  0  0
   55.2210   23.8160   46.7780 C   0  0  0  0  0  0  0  0  0  0  0  0
   55.3640   22.4430   46.5500 C   0  0  0  0  0  0  0  0  0  0  0  0
   55.7890   21.9820   45.3020 C   0  0  0  0  0  0  0  0  0  0  0  0
   55.9270   20.6490   45.0920 F   0  0  0  0  0  0  0  0  0  0  0  0
   56.0600   22.8940   44.2740 C   0  0  0  0  0  0  0  0  0  0  0  0
   56.5720   22.3220   42.6930 Cl  0  0  0  0  0  0  0  0  0  0  0  0
   55.9160   24.2670   44.5000 C   0  0  0  0  0  0  0  0  0  0  0  0
   59.6160   30.1070   46.3290 C   0  0  0  0  0  0  0  0  0  0  0  0
   59.2990   30.4740   45.1630 O   0  0  0  0  0  0  0  0  0  0  0  0
   60.2150   33.4550   47.2030 C   0  0  0  0  0  0  0  0  0  0  0  0
   59.5960   34.8400   46.9680 C   0  0  0  0  0  0  0  0  0  0  0  0
   60.3461   34.3325   44.7186 H   0  0  0  0  0  0  0  0  0  0  0  0
   58.7811   33.8467   43.9826 H   0  0  0  0  0  0  0  0  0  0  0  0
   59.2760   35.5735   43.9826 H   0  0  0  0  0  0  0  0  0  0  0  0
   56.6201   34.4330   46.3471 H   0  0  0  0  0  0  0  0  0  0  0  0
   57.3769   33.3421   45.0826 H   0  0  0  0  0  0  0  0  0  0  0  0
   57.4961   33.1648   48.0925 H   0  0  0  0  0  0  0  0  0  0  0  0
   57.1829   31.8884   46.8538 H   0  0  0  0  0  0  0  0  0  0  0  0
   59.8100   31.3530   49.4090 H   0  0  0  0  0  0  0  0  0  0  0  0
   60.3868   29.7327   51.0484 H   0  0  0  0  0  0  0  0  0  0  0  0
   61.0126   25.6469   49.7831 H   0  0  0  0  0  0  0  0  0  0  0  0
   60.5627   26.2944   47.4297 H   0  0  0  0  0  0  0  0  0  0  0  0
   60.6076   28.3052   44.6190 H   0  0  0  0  0  0  0  0  0  0  0  0
   60.5189   26.9250   45.7766 H   0  0  0  0  0  0  0  0  0  0  0  0
   58.1604   28.4433   44.5486 H   0  0  0  0  0  0  0  0  0  0  0  0
   58.7008   26.7468   44.1782 H   0  0  0  0  0  0  0  0  0  0  0  0
   57.9073   25.9018   46.1804 H   0  0  0  0  0  0  0  0  0  0  0  0
   57.9622   27.5222   46.9949 H   0  0  0  0  0  0  0  0  0  0  0  0
   54.8769   24.1738   47.7596 H   0  0  0  0  0  0  0  0  0  0  0  0
   55.1416   21.7262   47.3542 H   0  0  0  0  0  0  0  0  0  0  0  0
   56.1180   24.9808   43.6878 H   0  0  0  0  0  0  0  0  0  0  0  0
   60.6746   33.4304   48.2021 H   0  0  0  0  0  0  0  0  0  0  0  0
   60.9733   33.2720   46.4275 H   0  0  0  0  0  0  0  0  0  0  0  0
   59.0753   35.1579   47.8834 H   0  0  0  0  0  0  0  0  0  0  0  0
   60.4060   35.5390   46.7126 H   0  0  0  0  0  0  0  0  0  0  0  0
  1  2  1  0
  2  3  1  0
  3  4  1  0
  4  5  1  0
  5  6  1  0
  6  7  2  0
  7  8  1  0
  8  9  2  0
  9 10  1  0
 10 11  1  0
 11 12  1  0
 11 13  1  0
 11 14  1  0
 10 15  2  0
 15 16  1  0
 16 17  2  0
 17 18  1  0
 18 19  1  0
 19 20  1  0
 20 21  1  0
 21 22  1  0
 22 23  2  0
 22 24  1  0
 24 25  1  0
 25 26  2  0
 26 27  1  0
 27 28  2  0
 28 29  1  0
 28 30  1  0
 30 31  1  0
 30 32  2  0
 18 33  1  0
 33 34  2  0
  5 35  1  0
 35 36  1  0
 36  2  1  0
 33  6  1  0
 17  8  1  0
 32 25  1  0
  1 37  1  0
  1 38  1  0
  1 39  1  0
  3 40  1  0
  3 41  1  0
  4 42  1  0
  4 43  1  0
  7 44  1  0
  9 45  1  0
 15 46  1  0
 16 47  1  0
 19 48  1  0
 19 49  1  0
 20 50  1  0
 20 51  1  0
 21 52  1  0
 21 53  1  0
 26 54  1  0
 27 55  1  0
 32 56  1  0
 35 57  1  0
 35 58  1  0
 36 59  1  0
 36 60  1  0
M  CHG  2   7   1  24  -1
M  END
>  <UniqueID>  (34) 
34

>  <SMILES>  (34) 
CN1CCN(c2[nH+]c3cc(C(F)(F)F)ccc3n(CCCC(=O)[N-]c3ccc(F)c(Cl)c3)c2=O)CC1

>  <Energy>  (34) 
84.95238647974938

>  <Genealogy>  (34) 
CN1CCN(c2[nH+]c3cc(C(F)(F)F)ccc3n(CCCC(=O)[N-]c3ccc(F)c(Cl)c3)c2=O)CC1 (protonated)
CN1CCN(c2[nH+]c3cc(C(F)(F)F)ccc3n(CCCC(=O)[N-]c3ccc(F)c(Cl)c3)c2=O)CC1 (3D coordinates assigned)
CN1CCN(c2[nH+]c3cc(C(F)(F)F)ccc3n(CCCC(=O)[N-]c3ccc(F)c(Cl)c3)c2=O)CC1 (nonaromatic ring conformer: 84.95238647974938 kcal/mol)

>  <smiles>  (34) 
CN1CCN(c2nc3cc(C(F)(F)F)ccc3n(CCCC(=O)Nc3ccc(F)c(Cl)c3)c2=O)CC1

>  <score_type>  (34) 
oracle

>  <origin>  (34) 
adg

>  <m_score__min__energy>  (34) 
-8.6199999999999992

>  <m_primary>  (34) 
energy

$$$$
35:0
     RDKit          3D

 36 38  0  0  0  0  0  0  0  0999 V2000
   58.7100   28.3360   47.4020 C   0  0  0  0  0  0  0  0  0  0  0  0
   58.1990   28.6820   46.2090 C   0  0  0  0  0  0  0  0  0  0  0  0
   57.9260   27.8220   45.1300 C   0  0  0  0  0  0  0  0  0  0  0  0
   57.9540   26.4770   45.0340 C   0  0  0  0  0  0  0  0  0  0  0  0
   57.3400   25.5330   45.9770 C   0  0  0  0  0  0  0  0  0  0  0  0
   57.9470   24.4160   46.4140 N   0  0  0  0  0  0  0  0  0  0  0  0
   56.9860   23.8030   47.1390 C   0  0  0  0  0  0  0  0  0  0  0  0
   57.1800   22.7120   47.7350 O   0  0  0  0  0  0  0  0  0  0  0  0
   55.7980   24.4460   47.1650 N   0  0  0  0  0  0  0  0  0  0  0  0
   56.0350   25.5310   46.4100 C   0  0  0  0  0  0  0  0  0  0  0  0
   55.0730   26.4870   46.1020 O   0  0  0  0  0  0  0  0  0  0  0  0
   57.5890   28.6340   44.0620 C   0  0  0  0  0  0  0  0  0  0  0  0
   57.6050   29.9320   44.5240 C   0  0  0  0  0  0  0  0  0  0  0  0
   57.3210   31.1320   43.6710 C   0  0  0  0  0  0  0  0  0  0  0  0
   57.9850   29.9710   45.8230 N   0  0  0  0  0  0  0  0  0  0  0  0
   58.1450   31.2000   46.6190 C   0  0  0  0  0  0  0  0  0  0  0  0
   59.5450   31.8020   46.4410 C   0  0  0  0  0  0  0  0  0  0  0  0
   59.4870   33.2430   46.0400 C   0  0  0  0  0  0  0  0  0  0  0  0
   59.8700   34.3140   46.8120 C   0  0  0  0  0  0  0  0  0  0  0  0
   59.6470   35.4460   46.1250 N   0  0  0  0  0  0  0  0  0  0  0  0
   59.1270   35.0230   44.9530 C   0  0  0  0  0  0  0  0  0  0  0  0
   59.0090   33.6810   44.8630 N   0  0  0  0  0  0  0  0  0  0  0  0
   58.8797   29.1038   48.1712 H   0  0  0  0  0  0  0  0  0  0  0  0
   58.9588   27.2849   47.6098 H   0  0  0  0  0  0  0  0  0  0  0  0
   58.4848   26.0481   44.1713 H   0  0  0  0  0  0  0  0  0  0  0  0
   54.3400   26.7110   46.7630 H   0  0  0  0  0  0  0  0  0  0  0  0
   57.3532   28.3060   43.0389 H   0  0  0  0  0  0  0  0  0  0  0  0
   57.1157   31.9996   44.3153 H   0  0  0  0  0  0  0  0  0  0  0  0
   58.1935   31.3452   43.0359 H   0  0  0  0  0  0  0  0  0  0  0  0
   56.4455   30.9315   43.0359 H   0  0  0  0  0  0  0  0  0  0  0  0
   57.3946   31.9365   46.2956 H   0  0  0  0  0  0  0  0  0  0  0  0
   58.0091   30.9459   47.6806 H   0  0  0  0  0  0  0  0  0  0  0  0
   60.0910   31.7195   47.3923 H   0  0  0  0  0  0  0  0  0  0  0  0
   60.0555   31.2461   45.6408 H   0  0  0  0  0  0  0  0  0  0  0  0
   60.2904   34.2536   47.8267 H   0  0  0  0  0  0  0  0  0  0  0  0
   58.8273   35.7081   44.1463 H   0  0  0  0  0  0  0  0  0  0  0  0
  1  2  2  0
  2  3  1  0
  3  4  2  3
  4  5  1  0
  5  6  1  0
  6  7  1  0
  7  8  2  0
  7  9  1  0
  9 10  1  0
 10 11  1  0
  3 12  1  0
 12 13  2  0
 13 14  1  0
 13 15  1  0
 15 16  1  0
 16 17  1  0
 17 18  1  0
 18 19  2  0
 19 20  1  0
 20 21  1  0
 21 22  2  0
 15  2  1  0
 22 18  1  0
 10  5  2  0
  1 23  1  0
  1 24  1  0
  4 25  1  0
 11 26  1  0
 12 27  1  0
 14 28  1  0
 14 29  1  0
 14 30  1  0
 16 31  1  0
 16 32  1  0
 17 33  1  0
 17 34  1  0
 19 35  1  0
 21 36  1  0
M  CHG  3   6  -1   9  -1  20  -1
M  END
>  <UniqueID>  (35) 
35

>  <SMILES>  (35) 
C=c1c(=Cc2[n-]c(=O)[n-]c2O)cc(C)n1CCc1c[n-]cn1

>  <Energy>  (35) 
129.82900099006952

>  <Genealogy>  (35) 
C=c1c(=Cc2[n-]c(=O)[n-]c2O)cc(C)n1CCc1c[n-]cn1 (protonated)
C=c1c(=Cc2[n-]c(=O)[n-]c2O)cc(C)n1CCc1c[n-]cn1 (3D coordinates assigned)
C=c1c(=Cc2[n-]c(=O)[n-]c2O)cc(C)n1CCc1c[n-]cn1 (optimized conformer: 129.82900099006952 kcal/mol)

>  <smiles>  (35) 
C=c1c(=Cc2[nH]c(=O)[nH]c2O)cc(C)n1CCc1c[nH]cn1

>  <score_type>  (35) 
oracle

>  <origin>  (35) 
adg

>  <m_score__min__energy>  (35) 
-13.550000000000001

>  <m_primary>  (35) 
energy

$$$$
36:0
     RDKit          3D

 42 44  0  0  0  0  0  0  0  0999 V2000
   51.4090   23.1610   45.4330 H   0  0  0  0  0  0  0  0  0  0  0  0
   52.2490   22.5620   45.2680 N   0  0  0  0  0  0  0  0  0  0  0  0
   53.4420   23.0570   45.2920 C   0  0  0  0  0  0  0  0  0  0  0  0
   54.5460   22.2890   45.2010 N   0  0  0  0  0  0  0  0  0  0  0  0
   55.5520   23.1750   45.2880 C   0  0  0  0  0  0  0  0  0  0  0  0
   56.6234   22.9276   45.2572 H   0  0  0  0  0  0  0  0  0  0  0  0
   55.0290   24.4430   45.4220 C   0  0  0  0  0  0  0  0  0  0  0  0
   55.7810   25.6900   45.6410 C   0  0  0  0  0  0  0  0  0  0  0  0
   55.1660   26.6960   46.0820 O   0  0  0  0  0  0  0  0  0  0  0  0
   57.1840   25.8030   45.3710 N   0  0  0  0  0  0  0  0  0  0  0  0
   57.7650   26.6230   44.3160 C   0  0  0  0  0  0  0  0  0  0  0  0
   58.5262   26.0411   43.7757 H   0  0  0  0  0  0  0  0  0  0  0  0
   56.9766   26.9331   43.6144 H   0  0  0  0  0  0  0  0  0  0  0  0
   58.4060   27.8460   44.9290 C   0  0  0  0  0  0  0  0  0  0  0  0
   59.6100   27.6870   45.6360 C   0  0  0  0  0  0  0  0  0  0  0  0
   60.0557   26.6861   45.7343 H   0  0  0  0  0  0  0  0  0  0  0  0
   60.2440   28.7830   46.2130 C   0  0  0  0  0  0  0  0  0  0  0  0
   61.1970   28.6471   46.7454 H   0  0  0  0  0  0  0  0  0  0  0  0
   59.6760   30.0530   46.1190 C   0  0  0  0  0  0  0  0  0  0  0  0
   60.1898   30.9147   46.5702 H   0  0  0  0  0  0  0  0  0  0  0  0
   58.4530   30.2420   45.4530 C   0  0  0  0  0  0  0  0  0  0  0  0
   57.8490   31.5970   45.3970 C   0  0  0  0  0  0  0  0  0  0  0  0
   57.4377   31.9528   44.4408 H   0  0  0  0  0  0  0  0  0  0  0  0
   57.7850   32.4030   46.4640 C   0  0  0  0  0  0  0  0  0  0  0  0
   56.8029   32.6217   46.9086 H   0  0  0  0  0  0  0  0  0  0  0  0
   58.9950   33.0090   47.0640 C   0  0  0  0  0  0  0  0  0  0  0  0
   59.7170   34.0300   46.4020 C   0  0  0  0  0  0  0  0  0  0  0  0
   59.1890   34.7080   44.8610 Cl  0  0  0  0  0  0  0  0  0  0  0  0
   60.8570   34.5800   47.0000 C   0  0  0  0  0  0  0  0  0  0  0  0
   61.4229   35.3656   46.4780 H   0  0  0  0  0  0  0  0  0  0  0  0
   61.2800   34.1380   48.2540 C   0  0  0  0  0  0  0  0  0  0  0  0
   62.1828   34.5677   48.7126 H   0  0  0  0  0  0  0  0  0  0  0  0
   60.5590   33.1520   48.9260 C   0  0  0  0  0  0  0  0  0  0  0  0
   60.8891   32.8155   49.9199 H   0  0  0  0  0  0  0  0  0  0  0  0
   59.4170   32.5870   48.3440 C   0  0  0  0  0  0  0  0  0  0  0  0
   58.5560   31.3350   49.2330 Cl  0  0  0  0  0  0  0  0  0  0  0  0
   57.8140   29.1320   44.8390 C   0  0  0  0  0  0  0  0  0  0  0  0
   56.5310   29.3100   44.1260 C   0  0  0  0  0  0  0  0  0  0  0  0
   56.5210   29.4410   42.8720 O   0  0  0  0  0  0  0  0  0  0  0  0
   55.3050   29.3240   44.8500 N   0  0  0  0  0  0  0  0  0  0  0  0
   55.1420   28.6520   45.6310 H   0  0  0  0  0  0  0  0  0  0  0  0
   53.6850   24.3750   45.4420 N   0  0  0  0  0  0  0  0  0  0  0  0
  1  2  1  0
  2  3  2  0
  3  4  1  0
  4  5  1  0
  5  6  1  0
  5  7  2  0
  7  8  1  0
  8  9  2  0
  8 10  1  0
 10 11  1  0
 11 12  1  0
 11 13  1  0
 11 14  1  0
 14 15  2  0
 15 16  1  0
 15 17  1  0
 17 18  1  0
 17 19  2  0
 19 20  1  0
 19 21  1  0
 21 22  1  0
 22 23  1  0
 22 24  2  3
 24 25  1  0
 24 26  1  0
 26 27  2  0
 27 28  1  0
 27 29  1  0
 29 30  1  0
 29 31  2  0
 31 32  1  0
 31 33  1  0
 33 34  1  0
 33 35  2  0
 35 36  1  0
 21 37  2  0
 37 38  1  0
 38 39  2  0
 38 40  1  0
 40 41  1  0
  7 42  1  0
 42  3  1  0
 37 14  1  0
 35 26  1  0
M  CHG  4   4  -1  10  -1  40  -1  42  -1
M  END
>  <UniqueID>  (36) 
36

>  <SMILES>  (36) 
[H]/N=c1/[n-]cc(C(=O)[N-]Cc2cccc(C=Cc3c(Cl)cccc3Cl)c2C([NH-])=O)[n-]1

>  <Energy>  (36) 
94.59147456531898

>  <Genealogy>  (36) 
N=c1[n-]cc(C(=O)[N-]Cc2cccc(C=Cc3c(Cl)cccc3Cl)c2C([NH-])=O)[n-]1 (protonated)
[H]/N=c1/[n-]cc(C(=O)[N-]Cc2cccc(C=Cc3c(Cl)cccc3Cl)c2C([NH-])=O)[n-]1 (cis-trans isomerization)
[H]/N=c1/[n-]cc(C(=O)[N-]Cc2cccc(C=Cc3c(Cl)cccc3Cl)c2C([NH-])=O)[n-]1 (3D coordinates assigned)
[H]/N=c1/[n-]cc(C(=O)[N-]Cc2cccc(C=Cc3c(Cl)cccc3Cl)c2C([NH-])=O)[n-]1 (optimized conformer: 94.59147456531898 kcal/mol)

>  <smiles>  (36) 
N=c1[nH]cc(C(=O)NCc2cccc(C=Cc3c(Cl)cccc3Cl)c2C(N)=O)[nH]1

>  <score_type>  (36) 
oracle

>  <origin>  (36) 
adg

>  <m_score__min__energy>  (36) 
-16.850000000000001

>  <m_primary>  (36) 
energy

$$$$
37:0
     RDKit          3D

 49 52  0  0  0  0  0  0  0  0999 V2000
   56.7750   30.5270   44.6160 O   0  0  0  0  0  0  0  0  0  0  0  0
   57.4620   30.1000   45.5820 C   0  0  0  0  0  0  0  0  0  0  0  0
   58.0850   31.0500   46.4550 N   0  0  0  0  0  0  0  0  0  0  0  0
   58.3520   32.4280   46.1510 C   0  0  0  0  0  0  0  0  0  0  0  0
   57.5390   33.1130   45.2300 C   0  0  0  0  0  0  0  0  0  0  0  0
   57.8250   34.4310   44.8750 C   0  0  0  0  0  0  0  0  0  0  0  0
   58.9350   35.0750   45.4180 C   0  0  0  0  0  0  0  0  0  0  0  0
   59.7640   34.4040   46.3190 C   0  0  0  0  0  0  0  0  0  0  0  0
   59.4850   33.0780   46.7020 C   0  0  0  0  0  0  0  0  0  0  0  0
   60.3660   32.4140   47.6960 C   0  0  0  0  0  0  0  0  0  0  0  0
   59.8610   31.8200   48.6870 O   0  0  0  0  0  0  0  0  0  0  0  0
   61.7870   32.4110   47.5160 N   0  0  0  0  0  0  0  0  0  0  0  0
   62.6480   33.5700   47.7420 C   0  0  0  0  0  0  0  0  0  0  0  0
   64.1330   33.1360   47.8600 C   0  0  0  0  0  0  0  0  0  0  0  0
   64.6160   32.9520   49.3130 C   0  0  0  0  0  0  0  0  0  0  0  0
   63.4910   32.4460   50.2210 C   0  0  0  0  0  0  0  0  0  0  0  0
   62.3080   33.4340   50.2720 C   0  0  0  0  0  0  0  0  0  0  0  0
   62.1780   34.3060   49.0060 C   0  0  0  0  0  0  0  0  0  0  0  0
   57.6750   28.6450   45.7460 C   0  0  0  0  0  0  0  0  0  0  0  0
   58.9700   28.1100   45.8290 C   0  0  0  0  0  0  0  0  0  0  0  0
   59.1300   26.7320   45.9850 C   0  0  0  0  0  0  0  0  0  0  0  0
   60.2900   26.2440   46.0570 O   0  0  0  0  0  0  0  0  0  0  0  0
   57.9930   25.9100   46.0560 C   0  0  0  0  0  0  0  0  0  0  0  0
   58.0820   24.5150   46.2090 C   0  0  0  0  0  0  0  0  0  0  0  0
   56.9190   23.7420   46.2720 C   0  0  0  0  0  0  0  0  0  0  0  0
   55.6620   24.3490   46.1830 C   0  0  0  0  0  0  0  0  0  0  0  0
   54.5130   23.5700   46.2460 O   0  0  0  0  0  0  0  0  0  0  0  0
   55.5620   25.7380   46.0320 C   0  0  0  0  0  0  0  0  0  0  0  0
   54.3100   26.3390   45.9410 O   0  0  0  0  0  0  0  0  0  0  0  0
   56.7220   26.5210   45.9700 C   0  0  0  0  0  0  0  0  0  0  0  0
   56.6200   27.8390   45.8250 O   0  0  0  0  0  0  0  0  0  0  0  0
   56.6703   32.6048   44.7860 H   0  0  0  0  0  0  0  0  0  0  0  0
   57.1737   34.9627   44.1657 H   0  0  0  0  0  0  0  0  0  0  0  0
   59.1586   36.1145   45.1361 H   0  0  0  0  0  0  0  0  0  0  0  0
   60.6443   34.9166   46.7340 H   0  0  0  0  0  0  0  0  0  0  0  0
   62.5765   34.2546   46.8840 H   0  0  0  0  0  0  0  0  0  0  0  0
   64.2579   32.1804   47.3297 H   0  0  0  0  0  0  0  0  0  0  0  0
   64.7378   33.9437   47.4221 H   0  0  0  0  0  0  0  0  0  0  0  0
   65.4401   32.2235   49.3258 H   0  0  0  0  0  0  0  0  0  0  0  0
   64.9501   33.9295   49.6910 H   0  0  0  0  0  0  0  0  0  0  0  0
   63.1315   31.4796   49.8377 H   0  0  0  0  0  0  0  0  0  0  0  0
   63.8940   32.3423   51.2393 H   0  0  0  0  0  0  0  0  0  0  0  0
   61.3788   32.8582   50.3948 H   0  0  0  0  0  0  0  0  0  0  0  0
   62.4921   34.1151   51.1159 H   0  0  0  0  0  0  0  0  0  0  0  0
   61.1230   34.5900   48.8786 H   0  0  0  0  0  0  0  0  0  0  0  0
   62.8182   35.1906   49.1387 H   0  0  0  0  0  0  0  0  0  0  0  0
   59.8488   28.7691   45.7718 H   0  0  0  0  0  0  0  0  0  0  0  0
   59.0676   24.0316   46.2792 H   0  0  0  0  0  0  0  0  0  0  0  0
   56.9927   22.6511   46.3921 H   0  0  0  0  0  0  0  0  0  0  0  0
  1  2  2  0
  2  3  1  0
  3  4  1  0
  4  5  2  0
  5  6  1  0
  6  7  2  0
  7  8  1  0
  8  9  2  0
  9 10  1  0
 10 11  2  0
 10 12  1  0
 12 13  1  0
 13 14  1  0
 14 15  1  0
 15 16  1  0
 16 17  1  0
 17 18  1  0
  2 19  1  0
 19 20  2  0
 20 21  1  0
 21 22  2  0
 21 23  1  0
 23 24  2  0
 24 25  1  0
 25 26  2  0
 26 27  1  0
 26 28  1  0
 28 29  1  0
 28 30  2  0
 30 31  1  0
  9  4  1  0
 18 13  1  0
 31 19  1  0
 30 23  1  0
  5 32  1  0
  6 33  1  0
  7 34  1  0
  8 35  1  0
 13 36  1  0
 14 37  1  0
 14 38  1  0
 15 39  1  0
 15 40  1  0
 16 41  1  0
 16 42  1  0
 17 43  1  0
 17 44  1  0
 18 45  1  0
 18 46  1  0
 20 47  1  0
 24 48  1  0
 25 49  1  0
M  CHG  4   3  -1  12  -1  27  -1  29  -1
M  END
>  <UniqueID>  (37) 
37

>  <SMILES>  (37) 
O=C([N-]c1ccccc1C(=O)[N-]C1CCCCC1)c1cc(=O)c2ccc([O-])c([O-])c2o1

>  <Energy>  (37) 
64.86604055161662

>  <Genealogy>  (37) 
O=C([N-]c1ccccc1C(=O)[N-]C1CCCCC1)c1cc(=O)c2ccc([O-])c([O-])c2o1 (protonated)
O=C([N-]c1ccccc1C(=O)[N-]C1CCCCC1)c1cc(=O)c2ccc([O-])c([O-])c2o1 (3D coordinates assigned)
O=C([N-]c1ccccc1C(=O)[N-]C1CCCCC1)c1cc(=O)c2ccc([O-])c([O-])c2o1 (nonaromatic ring conformer: 64.86604055161662 kcal/mol)

>  <smiles>  (37) 
O=C(Nc1ccccc1C(=O)NC1CCCCC1)c1cc(=O)c2ccc(O)c(O)c2o1

>  <score_type>  (37) 
oracle

>  <origin>  (37) 
adg

>  <m_score__min__energy>  (37) 
-17.079999999999998

>  <m_primary>  (37) 
energy

$$$$
38:0
     RDKit          3D

 57 60  0  0  1  0  0  0  0  0999 V2000
   59.5000   30.4460   50.2470 C   0  0  0  0  0  0  0  0  0  0  0  0
   59.1810   31.8090   50.2920 O   0  0  0  0  0  0  0  0  0  0  0  0
   59.1110   32.5200   49.0900 C   0  0  0  0  0  0  0  0  0  0  0  0
   58.4950   31.9860   47.9570 C   0  0  0  0  0  0  0  0  0  0  0  0
   58.4760   32.7510   46.8330 C   0  0  0  0  0  0  0  0  0  0  0  0
   57.8810   32.2690   45.6940 C   0  0  0  0  0  0  0  0  0  0  0  0
   57.3730   31.1610   45.6480 N   0  0  0  0  0  0  0  0  0  0  0  0
   57.7970   29.9150   45.3010 C   0  0  0  0  0  0  0  0  0  0  0  0
   58.4700   29.0370   46.1910 C   0  0  0  0  0  0  0  0  0  0  0  0
   58.8130   29.5010   47.4210 F   0  0  0  0  0  0  0  0  0  0  0  0
   58.7580   27.7590   45.7960 C   0  0  0  0  0  0  0  0  0  0  0  0
   58.4160   27.2890   44.5630 C   0  0  0  0  0  0  0  0  0  0  0  0
   57.7660   28.1130   43.6840 C   0  0  0  0  0  0  0  0  0  0  0  0
   57.3980   27.6640   42.4040 O   0  0  0  0  0  0  0  0  0  0  0  0
   57.4430   29.4220   44.0170 C   0  0  0  0  0  0  0  0  0  0  0  0
   56.7340   30.3300   43.0650 C   0  0  0  0  0  0  0  0  0  0  0  0
   57.8660   33.0470   44.5690 N   0  0  0  0  0  0  0  0  0  0  0  0
   58.4100   34.2680   44.5210 C   0  0  0  0  0  0  0  0  0  0  0  0
   58.9950   34.7480   45.6290 N   0  0  0  0  0  0  0  0  0  0  0  0
   59.0240   34.0020   46.7560 C   0  0  0  0  0  0  0  0  0  0  0  0
   59.6320   34.5360   47.8600 C   0  0  0  0  0  0  0  0  0  0  0  0
   59.6590   33.7760   49.0040 C   0  0  0  0  0  0  0  0  0  0  0  0
   60.2430   34.2380   50.1510 O   0  0  0  0  0  0  0  0  0  0  0  0
   61.5100   34.0720   50.6440 C   0  0  0  0  0  0  0  0  0  0  0  0
   62.6230   34.5010   49.7590 C   0  0  0  0  0  0  0  0  0  0  0  0
   63.3680   33.3870   49.1980 N   0  0  0  0  0  0  0  0  0  0  0  0
   63.6960   33.6440   47.8180 C   0  0  0  0  0  0  0  0  0  0  0  0
   62.5460   33.4050   46.8660 C   0  0  0  0  0  0  0  0  0  0  0  0
   62.0380   32.0230   47.1390 C   0  0  0  0  0  0  0  0  0  0  0  0
   61.0940   31.5370   46.5470 O   0  0  0  0  0  0  0  0  0  0  0  0
   62.7870   31.2650   48.2090 C   0  0  0  0  0  0  0  0  0  0  0  0
   62.7960   32.1060   49.4500 C   0  0  0  0  0  0  0  0  0  0  0  0
   59.5911   30.0567   51.2718 H   0  0  0  0  0  0  0  0  0  0  0  0
   58.7052   29.9007   49.7169 H   0  0  0  0  0  0  0  0  0  0  0  0
   60.4542   30.3101   49.7169 H   0  0  0  0  0  0  0  0  0  0  0  0
   58.0419   30.9838   47.9728 H   0  0  0  0  0  0  0  0  0  0  0  0
   59.2816   27.0903   46.4950 H   0  0  0  0  0  0  0  0  0  0  0  0
   58.6604   26.2555   44.2765 H   0  0  0  0  0  0  0  0  0  0  0  0
   56.7470   26.9000   42.3110 H   0  0  0  0  0  0  0  0  0  0  0  0
   56.1535   31.0735   43.6309 H   0  0  0  0  0  0  0  0  0  0  0  0
   57.4712   30.8452   42.4317 H   0  0  0  0  0  0  0  0  0  0  0  0
   56.0554   29.7397   42.4317 H   0  0  0  0  0  0  0  0  0  0  0  0
   57.4190   32.7030   43.6880 H   0  0  0  0  0  0  0  0  0  0  0  0
   58.3786   34.8635   43.5967 H   0  0  0  0  0  0  0  0  0  0  0  0
   60.0833   35.5388   47.8321 H   0  0  0  0  0  0  0  0  0  0  0  0
   61.5840   34.6479   51.5783 H   0  0  0  0  0  0  0  0  0  0  0  0
   61.6361   32.9863   50.7678 H   0  0  0  0  0  0  0  0  0  0  0  0
   62.2042   35.0936   48.9323 H   0  0  0  0  0  0  0  0  0  0  0  0
   63.3227   35.0869   50.3731 H   0  0  0  0  0  0  0  0  0  0  0  0
   64.0111   34.6938   47.7255 H   0  0  0  0  0  0  0  0  0  0  0  0
   64.4948   32.9404   47.5407 H   0  0  0  0  0  0  0  0  0  0  0  0
   61.7493   34.1428   47.0418 H   0  0  0  0  0  0  0  0  0  0  0  0
   62.8719   33.5062   45.8203 H   0  0  0  0  0  0  0  0  0  0  0  0
   62.2840   30.3076   48.4101 H   0  0  0  0  0  0  0  0  0  0  0  0
   63.8159   31.0558   47.8809 H   0  0  0  0  0  0  0  0  0  0  0  0
   61.7623   32.2372   49.8025 H   0  0  0  0  0  0  0  0  0  0  0  0
   63.4030   31.5964   50.2128 H   0  0  0  0  0  0  0  0  0  0  0  0
  1  2  1  0
  2  3  1  0
  3  4  2  0
  4  5  1  0
  5  6  1  0
  6  7  2  0
  7  8  1  0
  8  9  2  0
  9 10  1  0
  9 11  1  0
 11 12  2  0
 12 13  1  0
 13 14  1  0
 13 15  2  0
 15 16  1  0
  6 17  1  0
 17 18  1  0
 18 19  2  0
 19 20  1  0
 20 21  1  0
 21 22  2  0
 22 23  1  0
 23 24  1  0
 24 25  1  0
 25 26  1  0
 26 27  1  0
 27 28  1  0
 28 29  1  0
 29 30  2  0
 29 31  1  0
 31 32  1  0
 22  3  1  0
 32 26  1  0
 20  5  2  0
 15  8  1  0
  1 33  1  0
  1 34  1  0
  1 35  1  0
  4 36  1  0
 11 37  1  0
 12 38  1  0
 14 39  1  0
 16 40  1  0
 16 41  1  0
 16 42  1  0
 17 43  1  0
 18 44  1  0
 21 45  1  0
 24 46  1  0
 24 47  1  0
 25 48  1  0
 25 49  1  0
 27 50  1  0
 27 51  1  0
 28 52  1  0
 28 53  1  0
 31 54  1  0
 31 55  1  0
 32 56  1  0
 32 57  1  0
M  END
>  <smiles>  (38) 
COc1cc2c(=Nc3c(F)ccc(O)c3C)[nH]cnc2cc1OCCN1CCC(=O)CC1

>  <score_type>  (38) 
oracle

>  <origin>  (38) 
adg

>  <m_score__min__energy>  (38) 
-9.2200000000000006

>  <m_primary>  (38) 
energy

$$$$
39:0
     RDKit          3D

 74 78  0  0  0  0  0  0  0  0999 V2000
   64.8010   34.2780   51.1430 C   0  0  0  0  0  0  0  0  0  0  0  0
   64.0040   33.0160   50.9910 C   0  0  0  0  0  0  0  0  0  0  0  0
   64.5180   31.9290   51.3740 O   0  0  0  0  0  0  0  0  0  0  0  0
   62.6850   33.0190   50.4030 N   0  0  0  0  0  0  0  0  0  0  0  0
   62.1700   34.2050   49.7010 C   0  0  0  0  0  0  0  0  0  0  0  0
   61.2170   33.7970   48.5740 C   0  0  0  0  0  0  0  0  0  0  0  0
   60.1780   32.8720   49.0520 N   0  0  0  0  0  0  0  0  0  0  0  0
   58.8900   32.8470   48.4040 C   0  0  0  0  0  0  0  0  0  0  0  0
   57.8520   32.6390   49.0900 O   0  0  0  0  0  0  0  0  0  0  0  0
   58.7520   33.0840   46.9520 C   0  0  0  0  0  0  0  0  0  0  0  0
   58.8180   34.3860   46.4320 C   0  0  0  0  0  0  0  0  0  0  0  0
   58.6760   34.6030   45.0600 C   0  0  0  0  0  0  0  0  0  0  0  0
   58.4610   33.5260   44.1970 C   0  0  0  0  0  0  0  0  0  0  0  0
   58.3890   32.2180   44.7010 C   0  0  0  0  0  0  0  0  0  0  0  0
   58.1240   31.0580   43.7740 C   0  0  0  0  0  0  0  0  0  0  0  0
   57.7160   29.8160   44.5500 C   0  0  0  0  0  0  0  0  0  0  0  0
   56.3730   29.3690   44.5800 C   0  0  0  0  0  0  0  0  0  0  0  0
   55.2650   30.0950   43.8720 C   0  0  0  0  0  0  0  0  0  0  0  0
   56.0590   28.2260   45.2440 N   0  0  0  0  0  0  0  0  0  0  0  0
   56.9770   27.4750   45.9030 C   0  0  0  0  0  0  0  0  0  0  0  0
   56.5170   26.2160   46.5800 C   0  0  0  0  0  0  0  0  0  0  0  0
   58.3220   27.8910   45.9300 C   0  0  0  0  0  0  0  0  0  0  0  0
   59.3440   27.1150   46.6660 C   0  0  0  0  0  0  0  0  0  0  0  0
   59.8810   26.1250   46.1010 O   0  0  0  0  0  0  0  0  0  0  0  0
   59.7380   27.4820   48.0010 N   0  0  0  0  0  0  0  0  0  0  0  0
   60.0040   26.4400   48.9970 C   0  0  0  0  0  0  0  0  0  0  0  0
   61.1680   26.8560   49.9040 C   0  0  0  0  0  0  0  0  0  0  0  0
   61.0040   28.2180   50.4540 N   0  0  0  0  0  0  0  0  0  0  0  0
   59.9280   28.2760   51.4560 C   0  0  0  0  0  0  0  0  0  0  0  0
   59.1750   29.5970   51.4520 C   0  0  0  0  0  0  0  0  0  0  0  0
   60.1760   29.2980   52.5540 C   0  0  0  0  0  0  0  0  0  0  0  0
   60.8080   29.2160   49.3840 C   0  0  0  0  0  0  0  0  0  0  0  0
   59.6310   28.8700   48.4610 C   0  0  0  0  0  0  0  0  0  0  0  0
   58.6890   29.0560   45.2350 C   0  0  0  0  0  0  0  0  0  0  0  0
   59.8970   29.4250   45.2360 O   0  0  0  0  0  0  0  0  0  0  0  0
   58.5620   32.0010   46.0790 C   0  0  0  0  0  0  0  0  0  0  0  0
   60.3520   32.1620   50.3240 C   0  0  0  0  0  0  0  0  0  0  0  0
   61.8270   31.8360   50.5760 C   0  0  0  0  0  0  0  0  0  0  0  0
   64.9397   34.4976   52.2119 H   0  0  0  0  0  0  0  0  0  0  0  0
   65.7832   34.1513   50.6643 H   0  0  0  0  0  0  0  0  0  0  0  0
   64.2645   35.1104   50.6643 H   0  0  0  0  0  0  0  0  0  0  0  0
   61.6303   34.8421   50.4171 H   0  0  0  0  0  0  0  0  0  0  0  0
   63.0181   34.7534   49.2651 H   0  0  0  0  0  0  0  0  0  0  0  0
   60.7338   34.6992   48.1709 H   0  0  0  0  0  0  0  0  0  0  0  0
   61.8027   33.2846   47.7966 H   0  0  0  0  0  0  0  0  0  0  0  0
   58.9822   35.2384   47.1076 H   0  0  0  0  0  0  0  0  0  0  0  0
   58.7336   35.6251   44.6576 H   0  0  0  0  0  0  0  0  0  0  0  0
   58.3476   33.7037   43.1174 H   0  0  0  0  0  0  0  0  0  0  0  0
   57.3142   31.3302   43.0811 H   0  0  0  0  0  0  0  0  0  0  0  0
   59.0488   30.8353   43.2216 H   0  0  0  0  0  0  0  0  0  0  0  0
   54.5856   30.5402   44.6138 H   0  0  0  0  0  0  0  0  0  0  0  0
   55.6912   30.8895   43.2418 H   0  0  0  0  0  0  0  0  0  0  0  0
   54.7067   29.3870   43.2418 H   0  0  0  0  0  0  0  0  0  0  0  0
   56.5651   26.3477   47.6710 H   0  0  0  0  0  0  0  0  0  0  0  0
   55.4808   25.9972   46.2824 H   0  0  0  0  0  0  0  0  0  0  0  0
   57.1680   25.3808   46.2824 H   0  0  0  0  0  0  0  0  0  0  0  0
   59.1037   26.2854   49.6098 H   0  0  0  0  0  0  0  0  0  0  0  0
   60.2706   25.5078   48.4774 H   0  0  0  0  0  0  0  0  0  0  0  0
   61.2342   26.1444   50.7402 H   0  0  0  0  0  0  0  0  0  0  0  0
   62.0828   26.8523   49.2932 H   0  0  0  0  0  0  0  0  0  0  0  0
   59.6455   27.2132   51.4287 H   0  0  0  0  0  0  0  0  0  0  0  0
   59.4047   30.3586   50.6923 H   0  0  0  0  0  0  0  0  0  0  0  0
   58.1144   29.8874   51.4227 H   0  0  0  0  0  0  0  0  0  0  0  0
   61.1307   29.8431   52.5924 H   0  0  0  0  0  0  0  0  0  0  0  0
   60.1406   29.2822   53.6533 H   0  0  0  0  0  0  0  0  0  0  0  0
   60.6165   30.1954   49.8467 H   0  0  0  0  0  0  0  0  0  0  0  0
   61.7202   29.2285   48.7695 H   0  0  0  0  0  0  0  0  0  0  0  0
   58.6876   28.9983   49.0119 H   0  0  0  0  0  0  0  0  0  0  0  0
   59.6510   29.5394   47.5884 H   0  0  0  0  0  0  0  0  0  0  0  0
   58.5484   30.9753   46.4762 H   0  0  0  0  0  0  0  0  0  0  0  0
   59.9790   32.7949   51.1427 H   0  0  0  0  0  0  0  0  0  0  0  0
   59.7886   31.2184   50.2774 H   0  0  0  0  0  0  0  0  0  0  0  0
   61.9385   31.4625   51.6046 H   0  0  0  0  0  0  0  0  0  0  0  0
   62.1395   31.0768   49.8439 H   0  0  0  0  0  0  0  0  0  0  0  0
  1  2  1  0
  2  3  2  0
  2  4  1  0
  4  5  1  0
  5  6  1  0
  6  7  1  0
  7  8  1  0
  8  9  2  0
  8 10  1  0
 10 11  2  0
 11 12  1  0
 12 13  2  0
 13 14  1  0
 14 15  1  0
 15 16  1  0
 16 17  2  0
 17 18  1  0
 17 19  1  0
 19 20  1  0
 20 21  1  0
 20 22  2  0
 22 23  1  0
 23 24  2  0
 23 25  1  0
 25 26  1  0
 26 27  1  0
 27 28  1  0
 28 29  1  0
 29 30  1  0
 30 31  1  0
 28 32  1  0
 32 33  1  0
 22 34  1  0
 34 35  2  0
 14 36  2  0
  7 37  1  0
 37 38  1  0
 38  4  1  0
 36 10  1  0
 34 16  1  0
 33 25  1  0
 31 29  1  0
  1 39  1  0
  1 40  1  0
  1 41  1  0
  5 42  1  0
  5 43  1  0
  6 44  1  0
  6 45  1  0
 11 46  1  0
 12 47  1  0
 13 48  1  0
 15 49  1  0
 15 50  1  0
 18 51  1  0
 18 52  1  0
 18 53  1  0
 21 54  1  0
 21 55  1  0
 21 56  1  0
 26 57  1  0
 26 58  1  0
 27 59  1  0
 27 60  1  0
 29 61  1  0
 30 62  1  0
 30 63  1  0
 31 64  1  0
 31 65  1  0
 32 66  1  0
 32 67  1  0
 33 68  1  0
 33 69  1  0
 36 70  1  0
 37 71  1  0
 37 72  1  0
 38 73  1  0
 38 74  1  0
M  CHG  1  19  -1
M  END
>  <UniqueID>  (39) 
38

>  <SMILES>  (39) 
CC(=O)N1CCN(C(=O)c2cccc(Cc3c(C)[n-]c(C)c(C(=O)N4CCN(C5CC5)CC4)c3=O)c2)CC1

>  <Energy>  (39) 
356.17540015671904

>  <Genealogy>  (39) 
CC(=O)N1CCN(C(=O)c2cccc(Cc3c(C)[n-]c(C)c(C(=O)N4CCN(C5CC5)CC4)c3=O)c2)CC1 (protonated)
CC(=O)N1CCN(C(=O)c2cccc(Cc3c(C)[n-]c(C)c(C(=O)N4CCN(C5CC5)CC4)c3=O)c2)CC1 (3D coordinates assigned)
CC(=O)N1CCN(C(=O)c2cccc(Cc3c(C)[n-]c(C)c(C(=O)N4CCN(C5CC5)CC4)c3=O)c2)CC1 (nonaromatic ring conformer: 356.17540015671904 kcal/mol)

>  <smiles>  (39) 
CC(=O)N1CCN(C(=O)c2cccc(Cc3c(C)[nH]c(C)c(C(=O)N4CCN(C5CC5)CC4)c3=O)c2)CC1

>  <score_type>  (39) 
oracle

>  <origin>  (39) 
adg

>  <m_score__min__energy>  (39) 
-10.98

>  <m_primary>  (39) 
energy

$$$$
40:0
     RDKit          3D

 38 40  0  0  0  0  0  0  0  0999 V2000
   55.1990   21.3190   48.5270 C   0  0  0  0  0  0  0  0  0  0  0  0
   55.8160   22.5030   47.8450 C   0  0  0  0  0  0  0  0  0  0  0  0
   56.7440   23.3060   48.5250 C   0  0  0  0  0  0  0  0  0  0  0  0
   57.2920   24.4320   47.9030 C   0  0  0  0  0  0  0  0  0  0  0  0
   56.9100   24.7760   46.5970 C   0  0  0  0  0  0  0  0  0  0  0  0
   57.4740   25.9400   45.9560 N   0  0  0  0  0  0  0  0  0  0  0  0
   58.7950   25.9490   45.5980 C   0  0  0  0  0  0  0  0  0  0  0  0
   59.5350   24.9550   45.8340 O   0  0  0  0  0  0  0  0  0  0  0  0
   59.3310   27.0370   44.9950 N   0  0  0  0  0  0  0  0  0  0  0  0
   58.5940   28.1420   44.7290 C   0  0  0  0  0  0  0  0  0  0  0  0
   59.2080   29.2350   44.1220 O   0  0  0  0  0  0  0  0  0  0  0  0
   57.2320   28.1790   45.0800 C   0  0  0  0  0  0  0  0  0  0  0  0
   56.4000   29.3830   44.7990 C   0  0  0  0  0  0  0  0  0  0  0  0
   55.1440   29.3100   44.8700 O   0  0  0  0  0  0  0  0  0  0  0  0
   57.0230   30.6080   44.3910 N   0  0  0  0  0  0  0  0  0  0  0  0
   57.6800   31.5590   45.2420 C   0  0  0  0  0  0  0  0  0  0  0  0
   58.3970   31.0870   46.3500 C   0  0  0  0  0  0  0  0  0  0  0  0
   59.0320   31.9820   47.2160 C   0  0  0  0  0  0  0  0  0  0  0  0
   58.9440   33.3590   46.9890 C   0  0  0  0  0  0  0  0  0  0  0  0
   59.8100   34.5800   48.1740 Br  0  0  0  0  0  0  0  0  0  0  0  0
   58.2090   33.8400   45.9010 C   0  0  0  0  0  0  0  0  0  0  0  0
   57.5730   32.9470   45.0320 C   0  0  0  0  0  0  0  0  0  0  0  0
   56.6860   27.0330   45.7000 C   0  0  0  0  0  0  0  0  0  0  0  0
   55.4580   27.0040   45.9960 O   0  0  0  0  0  0  0  0  0  0  0  0
   55.9670   23.9830   45.9240 C   0  0  0  0  0  0  0  0  0  0  0  0
   55.4190   22.8570   46.5460 C   0  0  0  0  0  0  0  0  0  0  0  0
   55.2661   21.4478   49.6174 H   0  0  0  0  0  0  0  0  0  0  0  0
   54.1426   21.2353   48.2320 H   0  0  0  0  0  0  0  0  0  0  0  0
   55.7356   20.4052   48.2320 H   0  0  0  0  0  0  0  0  0  0  0  0
   57.0418   23.0486   49.5522 H   0  0  0  0  0  0  0  0  0  0  0  0
   58.0259   25.0511   48.4397 H   0  0  0  0  0  0  0  0  0  0  0  0
   58.7400   29.7550   43.3880 H   0  0  0  0  0  0  0  0  0  0  0  0
   58.4604   30.0053   46.5394 H   0  0  0  0  0  0  0  0  0  0  0  0
   59.6016   31.6026   48.0771 H   0  0  0  0  0  0  0  0  0  0  0  0
   58.1307   34.9235   45.7279 H   0  0  0  0  0  0  0  0  0  0  0  0
   56.9881   33.3301   44.1828 H   0  0  0  0  0  0  0  0  0  0  0  0
   55.6578   24.2488   44.9024 H   0  0  0  0  0  0  0  0  0  0  0  0
   54.6738   22.2462   46.0153 H   0  0  0  0  0  0  0  0  0  0  0  0
  1  2  1  0
  2  3  2  0
  3  4  1  0
  4  5  2  0
  5  6  1  0
  6  7  1  0
  7  8  2  0
  7  9  1  0
  9 10  1  0
 10 11  1  0
 10 12  2  0
 12 13  1  0
 13 14  2  0
 13 15  1  0
 15 16  1  0
 16 17  2  0
 17 18  1  0
 18 19  2  0
 19 20  1  0
 19 21  1  0
 21 22  2  0
 12 23  1  0
 23 24  2  0
  5 25  1  0
 25 26  2  0
 26  2  1  0
 23  6  1  0
 22 16  1  0
  1 27  1  0
  1 28  1  0
  1 29  1  0
  3 30  1  0
  4 31  1  0
 11 32  1  0
 17 33  1  0
 18 34  1  0
 21 35  1  0
 22 36  1  0
 25 37  1  0
 26 38  1  0
M  CHG  2   9  -1  15  -1
M  END
>  <UniqueID>  (40) 
39

>  <SMILES>  (40) 
Cc1ccc(-n2c(=O)[n-]c(O)c(C(=O)[N-]c3ccc(Br)cc3)c2=O)cc1

>  <Energy>  (40) 
58.468451705649926

>  <Genealogy>  (40) 
Cc1ccc(-n2c(=O)[n-]c(O)c(C(=O)[N-]c3ccc(Br)cc3)c2=O)cc1 (protonated)
Cc1ccc(-n2c(=O)[n-]c(O)c(C(=O)[N-]c3ccc(Br)cc3)c2=O)cc1 (3D coordinates assigned)
Cc1ccc(-n2c(=O)[n-]c(O)c(C(=O)[N-]c3ccc(Br)cc3)c2=O)cc1 (optimized conformer: 58.468451705649926 kcal/mol)

>  <smiles>  (40) 
Cc1ccc(-n2c(=O)[nH]c(O)c(C(=O)Nc3ccc(Br)cc3)c2=O)cc1

>  <score_type>  (40) 
oracle

>  <origin>  (40) 
adg

>  <m_score__min__energy>  (40) 
-11.640000000000001

>  <m_primary>  (40) 
energy

$$$$
41:0
     RDKit          3D

 48 49  0  0  0  0  0  0  0  0999 V2000
   56.2080   23.2020   42.9940 C   0  0  0  0  0  0  0  0  0  0  0  0
   56.1590   21.8030   43.4480 N   0  0  0  0  0  0  0  0  0  0  0  0
   57.3850   21.1080   43.0170 C   0  0  0  0  0  0  0  0  0  0  0  0
   56.0060   21.7460   44.9180 C   0  0  0  0  0  0  0  0  0  0  0  0
   57.3240   22.1060   45.6130 C   0  0  0  0  0  0  0  0  0  0  0  0
   57.0870   23.0980   46.6710 N   0  0  0  0  0  0  0  0  0  0  0  0
   56.5630   22.6790   47.9740 C   0  0  0  0  0  0  0  0  0  0  0  0
   57.3700   24.4900   46.4380 C   0  0  0  0  0  0  0  0  0  0  0  0
   57.3510   25.0440   45.1950 N   0  0  0  0  0  0  0  0  0  0  0  0
   57.6650   26.3230   45.4450 C   0  0  0  0  0  0  0  0  0  0  0  0
   57.7830   27.3650   44.5280 C   0  0  0  0  0  0  0  0  0  0  0  0
   58.1270   28.6470   45.0200 C   0  0  0  0  0  0  0  0  0  0  0  0
   58.2420   29.7780   44.1420 N   0  0  0  0  0  0  0  0  0  0  0  0
   57.3690   30.9190   44.1770 C   0  0  0  0  0  0  0  0  0  0  0  0
   56.3110   30.8980   44.8620 O   0  0  0  0  0  0  0  0  0  0  0  0
   57.6690   32.1220   43.3310 C   0  0  0  0  0  0  0  0  0  0  0  0
   58.4530   33.1900   44.1100 C   0  0  0  0  0  0  0  0  0  0  0  0
   58.0370   33.2960   45.5840 C   0  0  0  0  0  0  0  0  0  0  0  0
   56.6520   33.7430   45.7040 N   0  0  0  0  0  0  0  0  0  0  0  0
   58.3040   28.8340   46.4150 C   0  0  0  0  0  0  0  0  0  0  0  0
   58.1740   27.7550   47.3090 C   0  0  0  0  0  0  0  0  0  0  0  0
   57.8550   26.5100   46.7770 C   0  0  0  0  0  0  0  0  0  0  0  0
   57.6730   25.3590   47.4400 N   0  0  0  0  0  0  0  0  0  0  0  0
   56.2314   23.8703   43.8674 H   0  0  0  0  0  0  0  0  0  0  0  0
   57.1122   23.3593   42.3876 H   0  0  0  0  0  0  0  0  0  0  0  0
   55.3170   23.4221   42.3876 H   0  0  0  0  0  0  0  0  0  0  0  0
   57.9539   20.7855   43.9015 H   0  0  0  0  0  0  0  0  0  0  0  0
   57.1152   20.2285   42.4139 H   0  0  0  0  0  0  0  0  0  0  0  0
   58.0010   21.7912   42.4139 H   0  0  0  0  0  0  0  0  0  0  0  0
   55.2276   22.4586   45.2282 H   0  0  0  0  0  0  0  0  0  0  0  0
   55.7221   20.7228   45.2052 H   0  0  0  0  0  0  0  0  0  0  0  0
   57.7600   21.1989   46.0569 H   0  0  0  0  0  0  0  0  0  0  0  0
   58.0157   22.5317   44.8711 H   0  0  0  0  0  0  0  0  0  0  0  0
   57.1520   23.1500   48.7748 H   0  0  0  0  0  0  0  0  0  0  0  0
   55.5109   22.9877   48.0626 H   0  0  0  0  0  0  0  0  0  0  0  0
   56.6327   21.5848   48.0626 H   0  0  0  0  0  0  0  0  0  0  0  0
   57.6140   27.1967   43.4542 H   0  0  0  0  0  0  0  0  0  0  0  0
   58.9490   29.7300   43.3720 H   0  0  0  0  0  0  0  0  0  0  0  0
   58.2655   31.8060   42.4624 H   0  0  0  0  0  0  0  0  0  0  0  0
   56.7123   32.5640   43.0158 H   0  0  0  0  0  0  0  0  0  0  0  0
   59.5229   32.9383   44.0667 H   0  0  0  0  0  0  0  0  0  0  0  0
   58.2355   34.1605   43.6401 H   0  0  0  0  0  0  0  0  0  0  0  0
   58.1393   32.3091   46.0589 H   0  0  0  0  0  0  0  0  0  0  0  0
   58.6876   34.0308   46.0807 H   0  0  0  0  0  0  0  0  0  0  0  0
   56.0390   32.9860   45.3190 H   0  0  0  0  0  0  0  0  0  0  0  0
   56.4210   33.8230   46.7220 H   0  0  0  0  0  0  0  0  0  0  0  0
   58.5458   29.8346   46.8027 H   0  0  0  0  0  0  0  0  0  0  0  0
   58.3196   27.8914   48.3908 H   0  0  0  0  0  0  0  0  0  0  0  0
  1  2  1  0
  2  3  1  0
  2  4  1  0
  4  5  1  0
  5  6  1  0
  6  7  1  0
  6  8  1  0
  8  9  2  0
  9 10  1  0
 10 11  2  0
 11 12  1  0
 12 13  1  0
 13 14  1  0
 14 15  2  0
 14 16  1  0
 16 17  1  0
 17 18  1  0
 18 19  1  0
 12 20  2  0
 20 21  1  0
 21 22  2  0
 22 23  1  0
 23  8  1  0
 22 10  1  0
  1 24  1  0
  1 25  1  0
  1 26  1  0
  3 27  1  0
  3 28  1  0
  3 29  1  0
  4 30  1  0
  4 31  1  0
  5 32  1  0
  5 33  1  0
  7 34  1  0
  7 35  1  0
  7 36  1  0
 11 37  1  0
 13 38  1  0
 16 39  1  0
 16 40  1  0
 17 41  1  0
 17 42  1  0
 18 43  1  0
 18 44  1  0
 19 45  1  0
 19 46  1  0
 20 47  1  0
 21 48  1  0
M  CHG  1  23  -1
M  END
>  <UniqueID>  (41) 
40

>  <SMILES>  (41) 
CN(C)CCN(C)c1nc2cc(NC(=O)CCCN)ccc2[n-]1

>  <Energy>  (41) 
74.61074140794933

>  <Genealogy>  (41) 
CN(C)CCN(C)c1nc2cc(NC(=O)CCCN)ccc2[n-]1 (protonated)
CN(C)CCN(C)c1nc2cc(NC(=O)CCCN)ccc2[n-]1 (3D coordinates assigned)
CN(C)CCN(C)c1nc2cc(NC(=O)CCCN)ccc2[n-]1 (optimized conformer: 74.61074140794933 kcal/mol)

>  <smiles>  (41) 
CN(C)CCN(C)c1nc2cc(NC(=O)CCCN)ccc2[nH]1

>  <score_type>  (41) 
oracle

>  <origin>  (41) 
adg

>  <m_score__min__energy>  (41) 
-8.7799999999999994

>  <m_primary>  (41) 
energy

$$$$
42:0
     RDKit          3D

 52 55  0  0  0  0  0  0  0  0999 V2000
   55.8850   20.0770   50.0510 C   0  0  0  0  0  0  0  0  0  0  0  0
   56.1360   21.0400   48.9290 C   0  0  0  0  0  0  0  0  0  0  0  0
   57.3240   21.3980   48.7030 O   0  0  0  0  0  0  0  0  0  0  0  0
   55.0300   21.5800   48.0920 C   0  0  0  0  0  0  0  0  0  0  0  0
   53.8480   20.8320   47.9260 C   0  0  0  0  0  0  0  0  0  0  0  0
   52.8090   21.3150   47.1270 C   0  0  0  0  0  0  0  0  0  0  0  0
   52.9280   22.5520   46.4940 C   0  0  0  0  0  0  0  0  0  0  0  0
   54.0780   23.3300   46.6660 C   0  0  0  0  0  0  0  0  0  0  0  0
   54.1680   24.5840   45.9710 N   0  0  0  0  0  0  0  0  0  0  0  0
   55.2390   25.3030   45.8060 C   0  0  0  0  0  0  0  0  0  0  0  0
   56.4500   24.8200   45.4680 N   0  0  0  0  0  0  0  0  0  0  0  0
   57.2610   25.8660   45.4290 N   0  0  0  0  0  0  0  0  0  0  0  0
   56.5100   26.9390   45.7490 C   0  0  0  0  0  0  0  0  0  0  0  0
   57.0210   28.3100   45.8270 C   0  0  0  0  0  0  0  0  0  0  0  0
   58.0440   28.5560   46.5210 O   0  0  0  0  0  0  0  0  0  0  0  0
   56.3180   29.3610   45.1540 N   0  0  0  0  0  0  0  0  0  0  0  0
   56.8990   30.4760   44.4620 C   0  0  0  0  0  0  0  0  0  0  0  0
   56.8380   30.6020   43.0620 C   0  0  0  0  0  0  0  0  0  0  0  0
   57.3980   31.7150   42.4310 C   0  0  0  0  0  0  0  0  0  0  0  0
   58.0090   32.7180   43.1870 C   0  0  0  0  0  0  0  0  0  0  0  0
   58.0490   32.6180   44.5830 C   0  0  0  0  0  0  0  0  0  0  0  0
   58.8090   33.8840   45.5440 S   0  0  0  0  0  0  0  0  0  0  0  0
   59.4490   34.8750   44.6120 O   0  0  0  0  0  0  0  0  0  0  0  0
   57.7700   34.5840   46.3770 O   0  0  0  0  0  0  0  0  0  0  0  0
   60.0210   33.1890   46.5930 N   0  0  0  0  0  0  0  0  0  0  0  0
   61.3080   33.8850   46.4030 C   0  0  0  0  0  0  0  0  0  0  0  0
   62.2220   33.6720   47.6200 C   0  0  0  0  0  0  0  0  0  0  0  0
   61.6830   34.1550   48.8430 O   0  0  0  0  0  0  0  0  0  0  0  0
   60.2670   34.2680   48.8430 C   0  0  0  0  0  0  0  0  0  0  0  0
   59.5700   33.1820   48.0030 C   0  0  0  0  0  0  0  0  0  0  0  0
   57.4910   31.4990   45.2150 C   0  0  0  0  0  0  0  0  0  0  0  0
   55.2650   26.6010   45.9850 O   0  0  0  0  0  0  0  0  0  0  0  0
   55.1390   22.8280   47.4460 C   0  0  0  0  0  0  0  0  0  0  0  0
   56.0193   20.5924   51.0135 H   0  0  0  0  0  0  0  0  0  0  0  0
   54.8567   19.6927   49.9812 H   0  0  0  0  0  0  0  0  0  0  0  0
   56.5949   19.2396   49.9812 H   0  0  0  0  0  0  0  0  0  0  0  0
   53.7423   19.8598   48.4296 H   0  0  0  0  0  0  0  0  0  0  0  0
   51.8943   20.7180   46.9967 H   0  0  0  0  0  0  0  0  0  0  0  0
   52.1115   22.9188   45.8546 H   0  0  0  0  0  0  0  0  0  0  0  0
   56.3475   29.8211   42.4623 H   0  0  0  0  0  0  0  0  0  0  0  0
   57.3577   31.8020   41.3352 H   0  0  0  0  0  0  0  0  0  0  0  0
   58.4592   33.5872   42.6852 H   0  0  0  0  0  0  0  0  0  0  0  0
   61.8040   33.4892   45.5045 H   0  0  0  0  0  0  0  0  0  0  0  0
   61.1156   34.9619   46.2877 H   0  0  0  0  0  0  0  0  0  0  0  0
   62.4086   32.5932   47.7271 H   0  0  0  0  0  0  0  0  0  0  0  0
   63.1411   34.2458   47.4303 H   0  0  0  0  0  0  0  0  0  0  0  0
   59.9104   34.1895   49.8806 H   0  0  0  0  0  0  0  0  0  0  0  0
   60.0174   35.2396   48.3917 H   0  0  0  0  0  0  0  0  0  0  0  0
   59.7930   32.1980   48.4412 H   0  0  0  0  0  0  0  0  0  0  0  0
   58.4898   33.3896   48.0126 H   0  0  0  0  0  0  0  0  0  0  0  0
   57.5178   31.4227   46.3120 H   0  0  0  0  0  0  0  0  0  0  0  0
   56.0623   23.4165   47.5518 H   0  0  0  0  0  0  0  0  0  0  0  0
  1  2  1  0
  2  3  2  0
  2  4  1  0
  4  5  2  0
  5  6  1  0
  6  7  2  0
  7  8  1  0
  8  9  1  0
  9 10  2  3
 10 11  1  0
 11 12  1  0
 12 13  2  0
 13 14  1  0
 14 15  2  0
 14 16  1  0
 16 17  1  0
 17 18  2  0
 18 19  1  0
 19 20  2  0
 20 21  1  0
 21 22  1  0
 22 23  2  0
 22 24  2  0
 22 25  1  0
 25 26  1  0
 26 27  1  0
 27 28  1  0
 28 29  1  0
 29 30  1  0
 21 31  2  0
 13 32  1  0
  8 33  2  0
 33  4  1  0
 32 10  1  0
 31 17  1  0
 30 25  1  0
  1 34  1  0
  1 35  1  0
  1 36  1  0
  5 37  1  0
  6 38  1  0
  7 39  1  0
 18 40  1  0
 19 41  1  0
 20 42  1  0
 26 43  1  0
 26 44  1  0
 27 45  1  0
 27 46  1  0
 29 47  1  0
 29 48  1  0
 30 49  1  0
 30 50  1  0
 31 51  1  0
 33 52  1  0
M  CHG  2  11  -1  16  -1
M  END
>  <UniqueID>  (42) 
41

>  <SMILES>  (42) 
CC(=O)c1cccc(N=c2[n-]nc(C(=O)[N-]c3cccc(S(=O)(=O)N4CCOCC4)c3)o2)c1

>  <Energy>  (42) 
111.2059392578406

>  <Genealogy>  (42) 
CC(=O)c1cccc(N=c2[n-]nc(C(=O)[N-]c3cccc(S(=O)(=O)N4CCOCC4)c3)o2)c1 (protonated)
CC(=O)c1cccc(N=c2[n-]nc(C(=O)[N-]c3cccc(S(=O)(=O)N4CCOCC4)c3)o2)c1 (3D coordinates assigned)
CC(=O)c1cccc(N=c2[n-]nc(C(=O)[N-]c3cccc(S(=O)(=O)N4CCOCC4)c3)o2)c1 (nonaromatic ring conformer: 111.2059392578406 kcal/mol)

>  <smiles>  (42) 
CC(=O)c1cccc(N=c2[nH]nc(C(=O)Nc3cccc(S(=O)(=O)N4CCOCC4)c3)o2)c1

>  <score_type>  (42) 
oracle

>  <origin>  (42) 
adg

>  <m_score__min__energy>  (42) 
-13.91

>  <m_primary>  (42) 
energy

$$$$
43:0
     RDKit          3D

 41 43  0  0  0  0  0  0  0  0999 V2000
   57.8231   26.0408   42.7734 H   0  0  0  0  0  0  0  0  0  0  0  0
   57.4010   25.3520   43.5200 C   0  0  0  0  0  0  0  0  0  0  0  0
   56.9127   24.4212   43.1956 H   0  0  0  0  0  0  0  0  0  0  0  0
   57.4820   25.6480   44.8300 C   0  0  0  0  0  0  0  0  0  0  0  0
   56.9880   24.8620   45.8830 C   0  0  0  0  0  0  0  0  0  0  0  0
   56.1340   23.8200   45.8840 C   0  0  0  0  0  0  0  0  0  0  0  0
   56.5553   22.8235   46.0829 H   0  0  0  0  0  0  0  0  0  0  0  0
   54.6830   23.9030   45.6410 C   0  0  0  0  0  0  0  0  0  0  0  0
   53.9140   22.8760   45.2330 N   0  0  0  0  0  0  0  0  0  0  0  0
   52.7120   23.4540   45.0190 C   0  0  0  0  0  0  0  0  0  0  0  0
   51.7050   22.8030   44.6350 O   0  0  0  0  0  0  0  0  0  0  0  0
   52.6750   24.7860   45.2370 N   0  0  0  0  0  0  0  0  0  0  0  0
   53.9360   25.0550   45.6160 C   0  0  0  0  0  0  0  0  0  0  0  0
   54.3950   26.3280   45.9290 O   0  0  0  0  0  0  0  0  0  0  0  0
   57.5340   25.3780   47.0430 C   0  0  0  0  0  0  0  0  0  0  0  0
   57.4062   24.9809   48.0608 H   0  0  0  0  0  0  0  0  0  0  0  0
   58.2690   26.4850   46.6800 C   0  0  0  0  0  0  0  0  0  0  0  0
   58.9830   27.3700   47.6570 C   0  0  0  0  0  0  0  0  0  0  0  0
   58.7333   27.0604   48.6826 H   0  0  0  0  0  0  0  0  0  0  0  0
   60.0688   27.2855   47.5026 H   0  0  0  0  0  0  0  0  0  0  0  0
   58.6708   28.4134   47.5026 H   0  0  0  0  0  0  0  0  0  0  0  0
   58.2130   26.6810   45.3380 N   0  0  0  0  0  0  0  0  0  0  0  0
   58.8870   27.7740   44.6130 C   0  0  0  0  0  0  0  0  0  0  0  0
   59.8549   27.9789   45.0939 H   0  0  0  0  0  0  0  0  0  0  0  0
   59.0286   27.4604   43.5682 H   0  0  0  0  0  0  0  0  0  0  0  0
   58.0570   29.0360   44.6220 C   0  0  0  0  0  0  0  0  0  0  0  0
   56.8580   29.0150   43.9800 N   0  0  0  0  0  0  0  0  0  0  0  0
   56.0640   30.1110   43.9200 C   0  0  0  0  0  0  0  0  0  0  0  0
   55.0961   30.0608   43.3997 H   0  0  0  0  0  0  0  0  0  0  0  0
   56.4610   31.2680   44.5000 N   0  0  0  0  0  0  0  0  0  0  0  0
   57.6460   31.3560   45.1640 C   0  0  0  0  0  0  0  0  0  0  0  0
   58.0370   32.5700   45.7420 O   0  0  0  0  0  0  0  0  0  0  0  0
   57.5610   33.8310   45.2850 C   0  0  0  0  0  0  0  0  0  0  0  0
   57.3208   34.4674   46.1494 H   0  0  0  0  0  0  0  0  0  0  0  0
   58.3374   34.3173   44.6762 H   0  0  0  0  0  0  0  0  0  0  0  0
   56.6569   33.6829   44.6762 H   0  0  0  0  0  0  0  0  0  0  0  0
   58.4760   30.2240   45.2670 C   0  0  0  0  0  0  0  0  0  0  0  0
   59.7970   30.3140   45.9910 C   0  0  0  0  0  0  0  0  0  0  0  0
   59.6216   30.3020   47.0769 H   0  0  0  0  0  0  0  0  0  0  0  0
   60.4272   29.4567   45.7119 H   0  0  0  0  0  0  0  0  0  0  0  0
   60.3051   31.2488   45.7119 H   0  0  0  0  0  0  0  0  0  0  0  0
  1  2  1  0
  2  3  1  0
  2  4  2  0
  4  5  1  0
  5  6  2  0
  6  7  1  0
  6  8  1  0
  8  9  1  0
  9 10  1  0
 10 11  2  0
 10 12  1  0
 12 13  1  0
 13 14  1  0
  5 15  1  0
 15 16  1  0
 15 17  2  0
 17 18  1  0
 18 19  1  0
 18 20  1  0
 18 21  1  0
 17 22  1  0
 22 23  1  0
 23 24  1  0
 23 25  1  0
 23 26  1  0
 26 27  2  0
 27 28  1  0
 28 29  1  0
 28 30  2  0
 30 31  1  0
 31 32  1  0
 32 33  1  0
 33 34  1  0
 33 35  1  0
 33 36  1  0
 31 37  2  0
 37 38  1  0
 38 39  1  0
 38 40  1  0
 38 41  1  0
 22  4  1  0
 37 26  1  0
 13  8  2  0
M  CHG  3   9  -1  12  -1  14  -1
M  END
>  <UniqueID>  (43) 
42

>  <SMILES>  (43) 
C=c1/c(=C\c2[n-]c(=O)[n-]c2[O-])cc(C)n1Cc1ncnc(OC)c1C

>  <Energy>  (43) 
112.34681091731885

>  <Genealogy>  (43) 
C=c1c(=Cc2[n-]c(=O)[n-]c2[O-])cc(C)n1Cc1ncnc(OC)c1C (protonated)
C=c1/c(=C\c2[n-]c(=O)[n-]c2[O-])cc(C)n1Cc1ncnc(OC)c1C (cis-trans isomerization)
C=c1/c(=C\c2[n-]c(=O)[n-]c2[O-])cc(C)n1Cc1ncnc(OC)c1C (3D coordinates assigned)
C=c1/c(=C\c2[n-]c(=O)[n-]c2[O-])cc(C)n1Cc1ncnc(OC)c1C (optimized conformer: 112.34681091731885 kcal/mol)

>  <smiles>  (43) 
C=c1c(=Cc2[nH]c(=O)[nH]c2O)cc(C)n1Cc1ncnc(OC)c1C

>  <score_type>  (43) 
oracle

>  <origin>  (43) 
adg

>  <m_score__min__energy>  (43) 
-15.24

>  <m_primary>  (43) 
energy

$$$$
44:0
     RDKit          3D

 53 56  0  0  0  0  0  0  0  0999 V2000
   56.0370   27.2580   45.6240 O   0  0  0  0  0  0  0  0  0  0  0  0
   56.6450   28.3590   45.5590 C   0  0  0  0  0  0  0  0  0  0  0  0
   56.0480   29.4350   44.8250 N   0  0  0  0  0  0  0  0  0  0  0  0
   56.7300   30.5910   44.3230 C   0  0  0  0  0  0  0  0  0  0  0  0
   56.8330   30.7680   42.9400 C   0  0  0  0  0  0  0  0  0  0  0  0
   57.5200   31.8630   42.4190 C   0  0  0  0  0  0  0  0  0  0  0  0
   58.1290   32.7840   43.2750 C   0  0  0  0  0  0  0  0  0  0  0  0
   58.0620   32.6150   44.6730 C   0  0  0  0  0  0  0  0  0  0  0  0
   58.7120   33.5540   45.5620 N   0  0  0  0  0  0  0  0  0  0  0  0
   59.2110   34.8560   45.1480 C   0  0  0  0  0  0  0  0  0  0  0  0
   59.9510   35.4210   46.3520 C   0  0  0  0  0  0  0  0  0  0  0  0
   59.4520   34.6240   47.5510 C   0  0  0  0  0  0  0  0  0  0  0  0
   58.9320   33.3120   46.9810 C   0  0  0  0  0  0  0  0  0  0  0  0
   57.3630   31.5040   45.1850 C   0  0  0  0  0  0  0  0  0  0  0  0
   57.8780   28.5430   46.2710 N   0  0  0  0  0  0  0  0  0  0  0  0
   58.5200   27.4620   47.0160 C   0  0  0  0  0  0  0  0  0  0  0  0
   59.2770   28.0150   48.1970 C   0  0  0  0  0  0  0  0  0  0  0  0
   58.7840   29.1490   48.8650 C   0  0  0  0  0  0  0  0  0  0  0  0
   59.4610   29.6810   49.9770 C   0  0  0  0  0  0  0  0  0  0  0  0
   58.9240   30.8200   50.6750 N   0  0  0  0  0  0  0  0  0  0  0  0
   59.5380   32.1390   50.6970 C   0  0  0  0  0  0  0  0  0  0  0  0
   58.4840   33.0880   51.3010 C   0  0  0  0  0  0  0  0  0  0  0  0
   57.3820   32.2100   51.9100 C   0  0  0  0  0  0  0  0  0  0  0  0
   57.7100   30.8610   51.4060 C   0  0  0  0  0  0  0  0  0  0  0  0
   57.0180   29.8380   51.6590 O   0  0  0  0  0  0  0  0  0  0  0  0
   60.6410   29.0580   50.4180 C   0  0  0  0  0  0  0  0  0  0  0  0
   61.1400   27.9360   49.7520 C   0  0  0  0  0  0  0  0  0  0  0  0
   60.4660   27.4140   48.6460 C   0  0  0  0  0  0  0  0  0  0  0  0
   60.9710   26.3180   48.0250 F   0  0  0  0  0  0  0  0  0  0  0  0
   56.3692   30.0389   42.2593 H   0  0  0  0  0  0  0  0  0  0  0  0
   57.5830   32.0026   41.3297 H   0  0  0  0  0  0  0  0  0  0  0  0
   58.6650   33.6478   42.8549 H   0  0  0  0  0  0  0  0  0  0  0  0
   59.8955   34.7494   44.2936 H   0  0  0  0  0  0  0  0  0  0  0  0
   58.3934   35.5191   44.8287 H   0  0  0  0  0  0  0  0  0  0  0  0
   61.0367   35.2924   46.2304 H   0  0  0  0  0  0  0  0  0  0  0  0
   59.7664   36.4985   46.4742 H   0  0  0  0  0  0  0  0  0  0  0  0
   60.2744   34.4370   48.2572 H   0  0  0  0  0  0  0  0  0  0  0  0
   58.6709   35.1661   48.1041 H   0  0  0  0  0  0  0  0  0  0  0  0
   59.6740   32.5124   47.1224 H   0  0  0  0  0  0  0  0  0  0  0  0
   58.0083   32.9904   47.4843 H   0  0  0  0  0  0  0  0  0  0  0  0
   57.3118   31.3489   46.2728 H   0  0  0  0  0  0  0  0  0  0  0  0
   58.3070   29.4940   46.3190 H   0  0  0  0  0  0  0  0  0  0  0  0
   57.7508   26.7619   47.3741 H   0  0  0  0  0  0  0  0  0  0  0  0
   59.2256   26.9410   46.3521 H   0  0  0  0  0  0  0  0  0  0  0  0
   57.8573   29.6263   48.5138 H   0  0  0  0  0  0  0  0  0  0  0  0
   60.4445   32.1283   51.3200 H   0  0  0  0  0  0  0  0  0  0  0  0
   59.8390   32.4603   49.6889 H   0  0  0  0  0  0  0  0  0  0  0  0
   58.9424   33.7134   52.0812 H   0  0  0  0  0  0  0  0  0  0  0  0
   58.0713   33.7559   50.5305 H   0  0  0  0  0  0  0  0  0  0  0  0
   57.4160   32.2397   53.0091 H   0  0  0  0  0  0  0  0  0  0  0  0
   56.3682   32.5383   51.6373 H   0  0  0  0  0  0  0  0  0  0  0  0
   61.1751   29.4564   51.2932 H   0  0  0  0  0  0  0  0  0  0  0  0
   62.0689   27.4611   50.1007 H   0  0  0  0  0  0  0  0  0  0  0  0
  1  2  2  0
  2  3  1  0
  3  4  1  0
  4  5  2  0
  5  6  1  0
  6  7  2  0
  7  8  1  0
  8  9  1  0
  9 10  1  0
 10 11  1  0
 11 12  1  0
 12 13  1  0
  8 14  2  0
  2 15  1  0
 15 16  1  0
 16 17  1  0
 17 18  2  0
 18 19  1  0
 19 20  1  0
 20 21  1  0
 21 22  1  0
 22 23  1  0
 23 24  1  0
 24 25  2  0
 19 26  2  0
 26 27  1  0
 27 28  2  0
 28 29  1  0
 14  4  1  0
 28 17  1  0
 13  9  1  0
 24 20  1  0
  5 30  1  0
  6 31  1  0
  7 32  1  0
 10 33  1  0
 10 34  1  0
 11 35  1  0
 11 36  1  0
 12 37  1  0
 12 38  1  0
 13 39  1  0
 13 40  1  0
 14 41  1  0
 15 42  1  0
 16 43  1  0
 16 44  1  0
 18 45  1  0
 21 46  1  0
 21 47  1  0
 22 48  1  0
 22 49  1  0
 23 50  1  0
 23 51  1  0
 26 52  1  0
 27 53  1  0
M  CHG  1   3  -1
M  END
>  <UniqueID>  (44) 
43

>  <SMILES>  (44) 
O=C([N-]c1cccc(N2CCCC2)c1)NCc1cc(N2CCCC2=O)ccc1F

>  <Energy>  (44) 
68.72370903678431

>  <Genealogy>  (44) 
O=C([N-]c1cccc(N2CCCC2)c1)NCc1cc(N2CCCC2=O)ccc1F (protonated)
O=C([N-]c1cccc(N2CCCC2)c1)NCc1cc(N2CCCC2=O)ccc1F (3D coordinates assigned)
O=C([N-]c1cccc(N2CCCC2)c1)NCc1cc(N2CCCC2=O)ccc1F (nonaromatic ring conformer: 68.72370903678431 kcal/mol)

>  <smiles>  (44) 
O=C(NCc1cc(N2CCCC2=O)ccc1F)Nc1cccc(N2CCCC2)c1

>  <score_type>  (44) 
oracle

>  <origin>  (44) 
adg

>  <m_score__min__energy>  (44) 
-10.33

>  <m_primary>  (44) 
energy

$$$$
45:0
     RDKit          3D

 64 67  0  0  0  0  0  0  0  0999 V2000
   56.3930   29.6720   45.5990 O   0  0  0  0  0  0  0  0  0  0  0  0
   57.3930   30.4220   45.4620 C   0  0  0  0  0  0  0  0  0  0  0  0
   57.2340   31.7740   45.0180 N   0  0  0  0  0  0  0  0  0  0  0  0
   58.0800   32.8790   45.3790 C   0  0  0  0  0  0  0  0  0  0  0  0
   58.1790   33.9660   44.4990 C   0  0  0  0  0  0  0  0  0  0  0  0
   58.9250   35.0970   44.8500 C   0  0  0  0  0  0  0  0  0  0  0  0
   59.5820   35.1500   46.0820 C   0  0  0  0  0  0  0  0  0  0  0  0
   59.4950   34.0690   46.9710 C   0  0  0  0  0  0  0  0  0  0  0  0
   60.2370   34.0780   48.2420 C   0  0  0  0  0  0  0  0  0  0  0  0
   59.6720   34.5880   49.2520 O   0  0  0  0  0  0  0  0  0  0  0  0
   61.5920   33.5860   48.3420 N   0  0  0  0  0  0  0  0  0  0  0  0
   62.3910   33.4280   47.1130 C   0  0  0  0  0  0  0  0  0  0  0  0
   63.7950   32.8840   47.3870 C   0  0  0  0  0  0  0  0  0  0  0  0
   64.3380   33.4690   48.5510 O   0  0  0  0  0  0  0  0  0  0  0  0
   63.6340   32.9820   49.6700 C   0  0  0  0  0  0  0  0  0  0  0  0
   62.1940   33.5120   49.6860 C   0  0  0  0  0  0  0  0  0  0  0  0
   58.7350   32.9460   46.6250 C   0  0  0  0  0  0  0  0  0  0  0  0
   58.7050   29.9050   45.6920 N   0  0  0  0  0  0  0  0  0  0  0  0
   59.0350   28.5330   45.2890 C   0  0  2  0  0  0  0  0  0  0  0  0
   57.9460   27.8960   44.4450 C   0  0  0  0  0  0  0  0  0  0  0  0
   58.1510   26.4000   44.6260 C   0  0  0  0  0  0  0  0  0  0  0  0
   58.7940   26.2120   46.0140 C   0  0  2  0  0  0  0  0  0  0  0  0
   57.8510   25.4610   46.9750 C   0  0  0  0  0  0  0  0  0  0  0  0
   56.3140   24.9140   46.2180 S   0  0  0  0  0  0  0  0  0  0  0  0
   55.5310   26.1620   45.8970 O   0  0  0  0  0  0  0  0  0  0  0  0
   55.5140   24.0950   47.1940 O   0  0  0  0  0  0  0  0  0  0  0  0
   56.6150   24.0190   44.7400 N   0  0  0  0  0  0  0  0  0  0  0  0
   57.9220   23.3480   44.7280 C   0  0  0  0  0  0  0  0  0  0  0  0
   57.7780   22.0710   43.9060 C   0  0  0  0  0  0  0  0  0  0  0  0
   56.2800   21.8940   43.6880 C   0  0  2  0  0  0  0  0  0  0  0  0
   55.9350   22.0670   42.3330 O   0  0  0  0  0  0  0  0  0  0  0  0
   55.6280   22.9530   44.5700 C   0  0  0  0  0  0  0  0  0  0  0  0
   59.1580   27.6210   46.5060 C   0  0  0  0  0  0  0  0  0  0  0  0
   57.6669   33.9297   43.5262 H   0  0  0  0  0  0  0  0  0  0  0  0
   58.9942   35.9462   44.1543 H   0  0  0  0  0  0  0  0  0  0  0  0
   60.1678   36.0402   46.3547 H   0  0  0  0  0  0  0  0  0  0  0  0
   61.8687   32.7313   46.4408 H   0  0  0  0  0  0  0  0  0  0  0  0
   62.5033   34.4238   46.6594 H   0  0  0  0  0  0  0  0  0  0  0  0
   63.7398   31.7938   47.5228 H   0  0  0  0  0  0  0  0  0  0  0  0
   64.4426   33.1297   46.5325 H   0  0  0  0  0  0  0  0  0  0  0  0
   63.6125   31.8829   49.6312 H   0  0  0  0  0  0  0  0  0  0  0  0
   64.1443   33.3251   50.5821 H   0  0  0  0  0  0  0  0  0  0  0  0
   61.5812   32.8431   50.3081 H   0  0  0  0  0  0  0  0  0  0  0  0
   62.2245   34.5349   50.0895 H   0  0  0  0  0  0  0  0  0  0  0  0
   58.6481   32.1079   47.3321 H   0  0  0  0  0  0  0  0  0  0  0  0
   59.4610   30.5710   45.9640 H   0  0  0  0  0  0  0  0  0  0  0  0
   59.9755   28.6230   44.7256 H   0  0  0  0  0  0  0  0  0  0  0  0
   56.9504   28.1981   44.8021 H   0  0  0  0  0  0  0  0  0  0  0  0
   58.0018   28.2015   43.3897 H   0  0  0  0  0  0  0  0  0  0  0  0
   57.1851   25.8757   44.5803 H   0  0  0  0  0  0  0  0  0  0  0  0
   58.7902   25.9868   43.8319 H   0  0  0  0  0  0  0  0  0  0  0  0
   59.6955   25.5836   45.9650 H   0  0  0  0  0  0  0  0  0  0  0  0
   58.3812   24.5766   47.3582 H   0  0  0  0  0  0  0  0  0  0  0  0
   57.5779   26.1704   47.7701 H   0  0  0  0  0  0  0  0  0  0  0  0
   58.6766   24.0050   44.2710 H   0  0  0  0  0  0  0  0  0  0  0  0
   58.2448   23.1130   45.7530 H   0  0  0  0  0  0  0  0  0  0  0  0
   58.2973   22.1738   42.9418 H   0  0  0  0  0  0  0  0  0  0  0  0
   58.2212   21.2040   44.4178 H   0  0  0  0  0  0  0  0  0  0  0  0
   55.9429   20.8800   43.9489 H   0  0  0  0  0  0  0  0  0  0  0  0
   56.6570   22.5970   41.9020 H   0  0  0  0  0  0  0  0  0  0  0  0
   54.7232   23.3472   44.0843 H   0  0  0  0  0  0  0  0  0  0  0  0
   55.3275   22.5315   45.5406 H   0  0  0  0  0  0  0  0  0  0  0  0
   58.4634   27.9417   47.2964 H   0  0  0  0  0  0  0  0  0  0  0  0
   60.1715   27.6508   46.9325 H   0  0  0  0  0  0  0  0  0  0  0  0
  1  2  2  0
  2  3  1  0
  3  4  1  0
  4  5  2  0
  5  6  1  0
  6  7  2  0
  7  8  1  0
  8  9  1  0
  9 10  2  0
  9 11  1  0
 11 12  1  0
 12 13  1  0
 13 14  1  0
 14 15  1  0
 15 16  1  0
  8 17  2  0
  2 18  1  0
 18 19  1  0
 19 20  1  0
 20 21  1  0
 21 22  1  0
 22 23  1  0
 23 24  1  0
 24 25  2  0
 24 26  2  0
 24 27  1  0
 27 28  1  0
 28 29  1  0
 29 30  1  0
 30 31  1  0
 30 32  1  0
 22 33  1  0
 17  4  1  0
 33 19  1  0
 16 11  1  0
 32 27  1  0
  5 34  1  0
  6 35  1  0
  7 36  1  0
 12 37  1  0
 12 38  1  0
 13 39  1  0
 13 40  1  0
 15 41  1  0
 15 42  1  0
 16 43  1  0
 16 44  1  0
 17 45  1  0
 18 46  1  0
 19 47  1  6
 20 48  1  0
 20 49  1  0
 21 50  1  0
 21 51  1  0
 22 52  1  6
 23 53  1  0
 23 54  1  0
 28 55  1  0
 28 56  1  0
 29 57  1  0
 29 58  1  0
 30 59  1  1
 31 60  1  0
 32 61  1  0
 32 62  1  0
 33 63  1  0
 33 64  1  0
M  CHG  1   3  -1
M  END
>  <UniqueID>  (45) 
44

>  <SMILES>  (45) 
O=C([N-]c1cccc(C(=O)N2CCOCC2)c1)N[C@@H]1CC[C@H](CS(=O)(=O)N2CCC(O)C2)C1

>  <Energy>  (45) 
78.1500811158763

>  <Genealogy>  (45) 
O=C([N-]c1cccc(C(=O)N2CCOCC2)c1)NC1CCC(CS(=O)(=O)N2CCC(O)C2)C1 (protonated)
O=C([N-]c1cccc(C(=O)N2CCOCC2)c1)N[C@@H]1CC[C@H](CS(=O)(=O)N2CCC(O)C2)C1 (chirality)
O=C([N-]c1cccc(C(=O)N2CCOCC2)c1)N[C@@H]1CC[C@H](CS(=O)(=O)N2CCC(O)C2)C1 (3D coordinates assigned)
O=C([N-]c1cccc(C(=O)N2CCOCC2)c1)N[C@@H]1CC[C@H](CS(=O)(=O)N2CCC(O)C2)C1 (nonaromatic ring conformer: 78.1500811158763 kcal/mol)

>  <smiles>  (45) 
O=C(Nc1cccc(C(=O)N2CCOCC2)c1)NC1CCC(CS(=O)(=O)N2CCC(O)C2)C1

>  <score_type>  (45) 
oracle

>  <origin>  (45) 
adg

>  <m_score__min__energy>  (45) 
-13.19

>  <m_primary>  (45) 
energy

$$$$
46:0
     RDKit          3D

 66 69  0  0  0  0  0  0  0  0999 V2000
   62.7270   32.3730   51.2260 C   0  0  0  0  0  0  0  0  0  0  0  0
   63.1800   33.5430   50.3410 C   0  0  0  0  0  0  0  0  0  0  0  0
   64.2420   33.0340   49.3470 C   0  0  0  0  0  0  0  0  0  0  0  0
   63.7610   34.6510   51.2380 C   0  0  0  0  0  0  0  0  0  0  0  0
   62.0190   34.0180   49.6420 O   0  0  0  0  0  0  0  0  0  0  0  0
   60.7120   33.5150   49.7550 C   0  0  0  0  0  0  0  0  0  0  0  0
   59.8180   34.1880   50.3370 O   0  0  0  0  0  0  0  0  0  0  0  0
   60.3920   32.2230   49.2000 N   0  0  0  0  0  0  0  0  0  0  0  0
   58.9840   31.8340   49.0090 C   0  0  0  0  0  0  0  0  0  0  0  0
   58.8110   30.3200   49.1620 C   0  0  0  0  0  0  0  0  0  0  0  0
   59.8300   29.6260   48.3670 N   0  0  0  0  0  0  0  0  0  0  0  0
   59.4850   28.8220   47.2210 C   0  0  0  0  0  0  0  0  0  0  0  0
   58.1660   28.3870   47.0100 C   0  0  0  0  0  0  0  0  0  0  0  0
   57.8610   27.6000   45.8890 C   0  0  0  0  0  0  0  0  0  0  0  0
   56.4610   27.0990   45.6730 C   0  0  0  0  0  0  0  0  0  0  0  0
   56.4090   25.6570   45.9020 N   0  0  0  0  0  0  0  0  0  0  0  0
   55.1840   24.9060   45.8620 C   0  0  0  0  0  0  0  0  0  0  0  0
   54.0940   25.4990   45.6280 O   0  0  0  0  0  0  0  0  0  0  0  0
   55.1770   23.4460   46.1250 C   0  0  0  0  0  0  0  0  0  0  0  0
   54.2580   22.6100   45.4620 C   0  0  0  0  0  0  0  0  0  0  0  0
   53.3350   23.1350   44.5640 O   0  0  0  0  0  0  0  0  0  0  0  0
   54.2490   21.2750   45.7060 N   0  0  0  0  0  0  0  0  0  0  0  0
   55.1050   20.6950   46.5840 C   0  0  0  0  0  0  0  0  0  0  0  0
   56.0450   21.4710   47.2760 C   0  0  0  0  0  0  0  0  0  0  0  0
   56.9590   20.8220   48.2510 C   0  0  0  0  0  0  0  0  0  0  0  0
   57.0150   21.2710   49.5820 C   0  0  0  0  0  0  0  0  0  0  0  0
   57.8890   20.6720   50.4940 C   0  0  0  0  0  0  0  0  0  0  0  0
   58.7210   19.6240   50.0850 C   0  0  0  0  0  0  0  0  0  0  0  0
   59.8210   18.8790   51.2290 Cl  0  0  0  0  0  0  0  0  0  0  0  0
   58.6770   19.1740   48.7610 C   0  0  0  0  0  0  0  0  0  0  0  0
   57.8010   19.7700   47.8470 C   0  0  0  0  0  0  0  0  0  0  0  0
   56.0940   22.8570   47.0240 C   0  0  0  0  0  0  0  0  0  0  0  0
   56.9850   23.5620   47.5710 O   0  0  0  0  0  0  0  0  0  0  0  0
   58.8900   27.2330   45.0110 C   0  0  0  0  0  0  0  0  0  0  0  0
   60.1910   27.6740   45.2550 C   0  0  0  0  0  0  0  0  0  0  0  0
   60.4570   28.4460   46.3410 N   0  0  0  0  0  0  0  0  0  0  0  0
   61.2260   29.9700   48.6500 C   0  0  0  0  0  0  0  0  0  0  0  0
   61.4280   31.4750   48.4690 C   0  0  0  0  0  0  0  0  0  0  0  0
   62.8347   32.6511   52.2848 H   0  0  0  0  0  0  0  0  0  0  0  0
   61.6733   32.1391   51.0136 H   0  0  0  0  0  0  0  0  0  0  0  0
   63.3485   31.4906   51.0136 H   0  0  0  0  0  0  0  0  0  0  0  0
   65.0979   32.6238   49.9030 H   0  0  0  0  0  0  0  0  0  0  0  0
   63.8049   32.2475   48.7142 H   0  0  0  0  0  0  0  0  0  0  0  0
   64.5813   33.8674   48.7142 H   0  0  0  0  0  0  0  0  0  0  0  0
   63.6188   34.3797   52.2945 H   0  0  0  0  0  0  0  0  0  0  0  0
   64.8351   34.7654   51.0302 H   0  0  0  0  0  0  0  0  0  0  0  0
   63.2443   35.5996   51.0302 H   0  0  0  0  0  0  0  0  0  0  0  0
   58.3638   32.3453   49.7600 H   0  0  0  0  0  0  0  0  0  0  0  0
   58.6736   32.1229   47.9940 H   0  0  0  0  0  0  0  0  0  0  0  0
   58.9220   30.0439   50.2210 H   0  0  0  0  0  0  0  0  0  0  0  0
   57.8108   30.0288   48.8087 H   0  0  0  0  0  0  0  0  0  0  0  0
   57.3741   28.6627   47.7219 H   0  0  0  0  0  0  0  0  0  0  0  0
   55.7803   27.6045   46.3738 H   0  0  0  0  0  0  0  0  0  0  0  0
   56.1549   27.3131   44.6384 H   0  0  0  0  0  0  0  0  0  0  0  0
   57.2810   25.1940   46.2470 H   0  0  0  0  0  0  0  0  0  0  0  0
   55.0612   19.6091   46.7539 H   0  0  0  0  0  0  0  0  0  0  0  0
   56.3674   22.0984   49.9077 H   0  0  0  0  0  0  0  0  0  0  0  0
   57.9227   21.0253   51.5352 H   0  0  0  0  0  0  0  0  0  0  0  0
   59.3316   18.3510   48.4383 H   0  0  0  0  0  0  0  0  0  0  0  0
   57.7706   19.4139   46.8067 H   0  0  0  0  0  0  0  0  0  0  0  0
   58.6735   26.6021   44.1363 H   0  0  0  0  0  0  0  0  0  0  0  0
   61.0029   27.3962   44.5668 H   0  0  0  0  0  0  0  0  0  0  0  0
   61.4700   29.6894   49.6852 H   0  0  0  0  0  0  0  0  0  0  0  0
   61.8849   29.4261   47.9572 H   0  0  0  0  0  0  0  0  0  0  0  0
   62.4188   31.7568   48.8548 H   0  0  0  0  0  0  0  0  0  0  0  0
   61.3561   31.7187   47.3987 H   0  0  0  0  0  0  0  0  0  0  0  0
  1  2  1  0
  2  3  1  0
  2  4  1  0
  2  5  1  0
  5  6  1  0
  6  7  2  0
  6  8  1  0
  8  9  1  0
  9 10  1  0
 10 11  1  0
 11 12  1  0
 12 13  2  0
 13 14  1  0
 14 15  1  0
 15 16  1  0
 16 17  1  0
 17 18  2  0
 17 19  1  0
 19 20  2  0
 20 21  1  0
 20 22  1  0
 22 23  1  0
 23 24  2  0
 24 25  1  0
 25 26  2  0
 26 27  1  0
 27 28  2  0
 28 29  1  0
 28 30  1  0
 30 31  2  0
 24 32  1  0
 32 33  2  0
 14 34  2  0
 34 35  1  0
 35 36  2  0
 11 37  1  0
 37 38  1  0
 38  8  1  0
 36 12  1  0
 32 19  1  0
 31 25  1  0
  1 39  1  0
  1 40  1  0
  1 41  1  0
  3 42  1  0
  3 43  1  0
  3 44  1  0
  4 45  1  0
  4 46  1  0
  4 47  1  0
  9 48  1  0
  9 49  1  0
 10 50  1  0
 10 51  1  0
 13 52  1  0
 15 53  1  0
 15 54  1  0
 16 55  1  0
 23 56  1  0
 26 57  1  0
 27 58  1  0
 30 59  1  0
 31 60  1  0
 34 61  1  0
 35 62  1  0
 37 63  1  0
 37 64  1  0
 38 65  1  0
 38 66  1  0
M  CHG  2  21  -1  22  -1
M  END
>  <UniqueID>  (46) 
45

>  <SMILES>  (46) 
CC(C)(C)OC(=O)N1CCN(c2cc(CNC(=O)c3c([O-])[n-]cc(-c4ccc(Cl)cc4)c3=O)ccn2)CC1

>  <Energy>  (46) 
79.69687733646788

>  <Genealogy>  (46) 
CC(C)(C)OC(=O)N1CCN(c2cc(CNC(=O)c3c([O-])[n-]cc(-c4ccc(Cl)cc4)c3=O)ccn2)CC1 (protonated)
CC(C)(C)OC(=O)N1CCN(c2cc(CNC(=O)c3c([O-])[n-]cc(-c4ccc(Cl)cc4)c3=O)ccn2)CC1 (3D coordinates assigned)
CC(C)(C)OC(=O)N1CCN(c2cc(CNC(=O)c3c([O-])[n-]cc(-c4ccc(Cl)cc4)c3=O)ccn2)CC1 (nonaromatic ring conformer: 79.69687733646788 kcal/mol)

>  <smiles>  (46) 
CC(C)(C)OC(=O)N1CCN(c2cc(CNC(=O)c3c(O)[nH]cc(-c4ccc(Cl)cc4)c3=O)ccn2)CC1

>  <score_type>  (46) 
oracle

>  <origin>  (46) 
adg

>  <m_score__min__energy>  (46) 
-11.18

>  <m_primary>  (46) 
energy

$$$$
47:0
     RDKit          3D

 54 56  0  0  0  0  0  0  0  0999 V2000
   58.4377   31.7212   42.1668 H   0  0  0  0  0  0  0  0  0  0  0  0
   57.6100   31.7000   42.8910 C   0  0  0  0  0  0  0  0  0  0  0  0
   57.3148   32.6205   43.4160 H   0  0  0  0  0  0  0  0  0  0  0  0
   56.9630   30.5560   43.1330 C   0  0  0  0  0  0  0  0  0  0  0  0
   57.2702   29.6442   42.5999 H   0  0  0  0  0  0  0  0  0  0  0  0
   55.8270   30.4820   44.1140 C   0  0  0  0  0  0  0  0  0  0  0  0
   55.7826   31.4177   44.6906 H   0  0  0  0  0  0  0  0  0  0  0  0
   54.8854   30.3363   43.5644 H   0  0  0  0  0  0  0  0  0  0  0  0
   56.0270   29.3540   45.0330 N   0  0  0  0  0  0  0  0  0  0  0  0
   55.7670   29.6700   45.9970 H   0  0  0  0  0  0  0  0  0  0  0  0
   57.4320   28.9140   45.0550 C   0  0  0  0  0  0  0  0  0  0  0  0
   57.4692   27.8163   44.9953 H   0  0  0  0  0  0  0  0  0  0  0  0
   57.9586   29.3567   44.1967 H   0  0  0  0  0  0  0  0  0  0  0  0
   58.1140   29.3730   46.3480 C   0  0  0  0  0  0  0  0  0  0  0  0
   57.9657   30.4570   46.4621 H   0  0  0  0  0  0  0  0  0  0  0  0
   57.6632   28.8190   47.1846 H   0  0  0  0  0  0  0  0  0  0  0  0
   59.6210   29.0770   46.3410 C   0  0  0  0  0  0  0  0  0  0  0  0
   59.8091   28.1640   46.9250 H   0  0  0  0  0  0  0  0  0  0  0  0
   59.9432   28.9463   45.2974 H   0  0  0  0  0  0  0  0  0  0  0  0
   60.3850   30.1810   46.9240 N   0  0  0  0  0  0  0  0  0  0  0  0
   60.5840   30.4500   48.1840 C   0  0  0  0  0  0  0  0  0  0  0  0
   61.5996   30.3070   48.5816 H   0  0  0  0  0  0  0  0  0  0  0  0
   59.5450   30.9330   49.1170 C   0  0  0  0  0  0  0  0  0  0  0  0
   59.0760   30.3240   50.2720 C   0  0  0  0  0  0  0  0  0  0  0  0
   59.4980   29.4220   50.7393 H   0  0  0  0  0  0  0  0  0  0  0  0
   58.0150   31.0240   50.7260 N   0  0  0  0  0  0  0  0  0  0  0  0
   57.2390   30.7250   51.9030 C   0  0  0  0  0  0  0  0  0  0  0  0
   57.8750   30.3620   53.1060 C   0  0  0  0  0  0  0  0  0  0  0  0
   58.9732   30.3180   53.1519 H   0  0  0  0  0  0  0  0  0  0  0  0
   57.1190   30.0570   54.2430 C   0  0  0  0  0  0  0  0  0  0  0  0
   57.6242   29.7772   55.1792 H   0  0  0  0  0  0  0  0  0  0  0  0
   55.7260   30.1070   54.1920 C   0  0  0  0  0  0  0  0  0  0  0  0
   55.1339   29.8584   55.0851 H   0  0  0  0  0  0  0  0  0  0  0  0
   55.0820   30.4730   53.0060 C   0  0  0  0  0  0  0  0  0  0  0  0
   53.9836   30.5205   52.9699 H   0  0  0  0  0  0  0  0  0  0  0  0
   55.8320   30.7790   51.8650 C   0  0  0  0  0  0  0  0  0  0  0  0
   55.3202   31.0631   50.9337 H   0  0  0  0  0  0  0  0  0  0  0  0
   57.7750   32.0310   49.8970 N   0  0  0  0  0  0  0  0  0  0  0  0
   57.0130   32.7370   50.0040 H   0  0  0  0  0  0  0  0  0  0  0  0
   58.6870   32.0020   48.9080 C   0  0  0  0  0  0  0  0  0  0  0  0
   58.6860   32.9350   47.7630 C   0  0  0  0  0  0  0  0  0  0  0  0
   57.6850   32.7910   46.7880 C   0  0  0  0  0  0  0  0  0  0  0  0
   56.9132   32.0166   46.9087 H   0  0  0  0  0  0  0  0  0  0  0  0
   57.6620   33.6230   45.6670 C   0  0  0  0  0  0  0  0  0  0  0  0
   56.8773   33.4971   44.9065 H   0  0  0  0  0  0  0  0  0  0  0  0
   58.6310   34.6130   45.5090 C   0  0  0  0  0  0  0  0  0  0  0  0
   58.6186   35.2576   44.6178 H   0  0  0  0  0  0  0  0  0  0  0  0
   59.6170   34.7860   46.4820 C   0  0  0  0  0  0  0  0  0  0  0  0
   60.3797   35.5677   46.3512 H   0  0  0  0  0  0  0  0  0  0  0  0
   59.6450   33.9700   47.6290 C   0  0  0  0  0  0  0  0  0  0  0  0
   60.6920   34.2320   48.6800 C   0  0  0  0  0  0  0  0  0  0  0  0
   60.2449   34.1201   49.6788 H   0  0  0  0  0  0  0  0  0  0  0  0
   61.5158   33.5123   48.5643 H   0  0  0  0  0  0  0  0  0  0  0  0
   61.0798   35.2549   48.5643 H   0  0  0  0  0  0  0  0  0  0  0  0
  1  2  1  0
  2  3  1  0
  2  4  2  0
  4  5  1  0
  4  6  1  0
  6  7  1  0
  6  8  1  0
  6  9  1  0
  9 10  1  0
  9 11  1  0
 11 12  1  0
 11 13  1  0
 11 14  1  0
 14 15  1  0
 14 16  1  0
 14 17  1  0
 17 18  1  0
 17 19  1  0
 17 20  1  0
 20 21  2  0
 21 22  1  0
 21 23  1  0
 23 24  2  0
 24 25  1  0
 24 26  1  0
 26 27  1  0
 27 28  2  0
 28 29  1  0
 28 30  1  0
 30 31  1  0
 30 32  2  0
 32 33  1  0
 32 34  1  0
 34 35  1  0
 34 36  2  0
 36 37  1  0
 26 38  1  0
 38 39  1  0
 38 40  2  0
 40 41  1  0
 41 42  2  0
 42 43  1  0
 42 44  1  0
 44 45  1  0
 44 46  2  0
 46 47  1  0
 46 48  1  0
 48 49  1  0
 48 50  2  0
 50 51  1  0
 51 52  1  0
 51 53  1  0
 51 54  1  0
 40 23  1  0
 50 41  1  0
 36 27  1  0
M  CHG  1  38   1
M  END
>  <UniqueID>  (47) 
46

>  <SMILES>  (47) 
C=CCNCCC/N=C\c1cn(-c2ccccc2)[nH+]c1-c1ccccc1C

>  <Energy>  (47) 
94.43897470148954

>  <Genealogy>  (47) 
C=CCNCCCN=Cc1cn(-c2ccccc2)[nH+]c1-c1ccccc1C (protonated)
C=CCNCCC/N=C\c1cn(-c2ccccc2)[nH+]c1-c1ccccc1C (cis-trans isomerization)
C=CCNCCC/N=C\c1cn(-c2ccccc2)[nH+]c1-c1ccccc1C (3D coordinates assigned)
C=CCNCCC/N=C\c1cn(-c2ccccc2)[nH+]c1-c1ccccc1C (optimized conformer: 94.43897470148954 kcal/mol)

>  <smiles>  (47) 
C=CCNCCCN=Cc1cn(-c2ccccc2)nc1-c1ccccc1C

>  <score_type>  (47) 
oracle

>  <origin>  (47) 
adg

>  <m_score__min__energy>  (47) 
-6.6399999999999997

>  <m_primary>  (47) 
energy

$$$$
48:0
     RDKit          3D

 57 60  0  0  0  0  0  0  0  0999 V2000
   58.1240   32.5580   49.2710 O   0  0  0  0  0  0  0  0  0  0  0  0
   58.9000   31.6290   48.8850 C   0  0  0  0  0  0  0  0  0  0  0  0
   59.1910   30.5630   49.8670 C   0  0  0  0  0  0  0  0  0  0  0  0
   60.5280   29.4760   49.3390 S   0  0  0  0  0  0  0  0  0  0  0  0
   60.0570   28.6950   47.8040 C   0  0  0  0  0  0  0  0  0  0  0  0
   59.0230   27.8130   47.7890 N   0  0  0  0  0  0  0  0  0  0  0  0
   58.6720   27.2270   46.6310 C   0  0  0  0  0  0  0  0  0  0  0  0
   57.5830   26.3120   46.6720 N   0  0  0  0  0  0  0  0  0  0  0  0
   57.7460   25.0480   47.3650 C   0  0  0  0  0  0  0  0  0  0  0  0
   56.4040   24.4300   47.6880 C   0  0  0  0  0  0  0  0  0  0  0  0
   55.5100   24.4180   46.6520 O   0  0  0  0  0  0  0  0  0  0  0  0
   55.8170   25.2040   45.5700 C   0  0  0  0  0  0  0  0  0  0  0  0
   56.3000   26.5790   46.0490 C   0  0  0  0  0  0  0  0  0  0  0  0
   59.3560   27.5260   45.4940 C   0  0  0  0  0  0  0  0  0  0  0  0
   60.4240   28.4290   45.4770 C   0  0  0  0  0  0  0  0  0  0  0  0
   61.0440   28.6930   44.4220 O   0  0  0  0  0  0  0  0  0  0  0  0
   60.7360   28.9910   46.6760 N   0  0  0  0  0  0  0  0  0  0  0  0
   59.4570   31.6160   47.5790 N   0  0  0  0  0  0  0  0  0  0  0  0
   59.1150   32.6840   46.7130 C   0  0  0  0  0  0  0  0  0  0  0  0
   58.1660   32.3970   45.7360 C   0  0  0  0  0  0  0  0  0  0  0  0
   57.7460   33.3420   44.8390 C   0  0  0  0  0  0  0  0  0  0  0  0
   58.2920   34.5980   44.9280 C   0  0  0  0  0  0  0  0  0  0  0  0
   59.2420   34.8780   45.9090 C   0  0  0  0  0  0  0  0  0  0  0  0
   59.6850   33.9640   46.8210 C   0  0  0  0  0  0  0  0  0  0  0  0
   60.6770   34.1480   47.8320 C   0  0  0  0  0  0  0  0  0  0  0  0
   60.2040   34.6290   48.9550 O   0  0  0  0  0  0  0  0  0  0  0  0
   62.0450   33.9120   47.8420 N   0  0  0  0  0  0  0  0  0  0  0  0
   62.9460   33.4500   46.8320 C   0  0  0  0  0  0  0  0  0  0  0  0
   63.3800   32.0490   47.2920 C   0  0  0  0  0  0  0  0  0  0  0  0
   64.1280   32.2620   48.4450 O   0  0  0  0  0  0  0  0  0  0  0  0
   63.4520   32.8110   49.4990 C   0  0  0  0  0  0  0  0  0  0  0  0
   62.7370   34.1260   49.1590 C   0  0  0  0  0  0  0  0  0  0  0  0
   59.4744   31.0314   50.8211 H   0  0  0  0  0  0  0  0  0  0  0  0
   58.2842   29.9487   49.9686 H   0  0  0  0  0  0  0  0  0  0  0  0
   58.3152   24.3577   46.7251 H   0  0  0  0  0  0  0  0  0  0  0  0
   58.2831   25.2316   48.3072 H   0  0  0  0  0  0  0  0  0  0  0  0
   56.5741   23.3903   48.0044 H   0  0  0  0  0  0  0  0  0  0  0  0
   55.9570   25.0571   48.4734 H   0  0  0  0  0  0  0  0  0  0  0  0
   56.6118   24.7219   44.9819 H   0  0  0  0  0  0  0  0  0  0  0  0
   54.9200   25.3305   44.9459 H   0  0  0  0  0  0  0  0  0  0  0  0
   56.4152   27.2689   45.2000 H   0  0  0  0  0  0  0  0  0  0  0  0
   55.5892   27.0568   46.7393 H   0  0  0  0  0  0  0  0  0  0  0  0
   59.0583   27.0398   44.5533 H   0  0  0  0  0  0  0  0  0  0  0  0
   61.5330   29.6680   46.6720 H   0  0  0  0  0  0  0  0  0  0  0  0
   60.0920   30.8340   47.2990 H   0  0  0  0  0  0  0  0  0  0  0  0
   57.7420   31.3834   45.6833 H   0  0  0  0  0  0  0  0  0  0  0  0
   56.9951   33.1024   44.0717 H   0  0  0  0  0  0  0  0  0  0  0  0
   57.9798   35.3842   44.2248 H   0  0  0  0  0  0  0  0  0  0  0  0
   59.6591   35.8950   45.9506 H   0  0  0  0  0  0  0  0  0  0  0  0
   62.4388   33.3964   45.8574 H   0  0  0  0  0  0  0  0  0  0  0  0
   63.8043   34.1262   46.7052 H   0  0  0  0  0  0  0  0  0  0  0  0
   62.5011   31.4251   47.5116 H   0  0  0  0  0  0  0  0  0  0  0  0
   63.9567   31.5213   46.5181 H   0  0  0  0  0  0  0  0  0  0  0  0
   62.6997   32.0863   49.8439 H   0  0  0  0  0  0  0  0  0  0  0  0
   64.1987   33.0431   50.2727 H   0  0  0  0  0  0  0  0  0  0  0  0
   62.0008   34.3702   49.9390 H   0  0  0  0  0  0  0  0  0  0  0  0
   63.4504   34.9612   49.1005 H   0  0  0  0  0  0  0  0  0  0  0  0
  1  2  2  0
  2  3  1  0
  3  4  1  0
  4  5  1  0
  5  6  2  0
  6  7  1  0
  7  8  1  0
  8  9  1  0
  9 10  1  0
 10 11  1  0
 11 12  1  0
 12 13  1  0
  7 14  2  0
 14 15  1  0
 15 16  2  0
 15 17  1  0
  2 18  1  0
 18 19  1  0
 19 20  2  0
 20 21  1  0
 21 22  2  0
 22 23  1  0
 23 24  2  0
 24 25  1  0
 25 26  2  0
 25 27  1  0
 27 28  1  0
 28 29  1  0
 29 30  1  0
 30 31  1  0
 31 32  1  0
 17  5  1  0
 24 19  1  0
 32 27  1  0
 13  8  1  0
  3 33  1  0
  3 34  1  0
  9 35  1  0
  9 36  1  0
 10 37  1  0
 10 38  1  0
 12 39  1  0
 12 40  1  0
 13 41  1  0
 13 42  1  0
 14 43  1  0
 17 44  1  0
 18 45  1  0
 20 46  1  0
 21 47  1  0
 22 48  1  0
 23 49  1  0
 28 50  1  0
 28 51  1  0
 29 52  1  0
 29 53  1  0
 31 54  1  0
 31 55  1  0
 32 56  1  0
 32 57  1  0
M  END
>  <smiles>  (48) 
O=C(CSc1nc(N2CCOCC2)cc(=O)[nH]1)Nc1ccccc1C(=O)N1CCOCC1

>  <score_type>  (48) 
oracle

>  <origin>  (48) 
adg

>  <m_score__min__energy>  (48) 
-8.6899999999999995

>  <m_primary>  (48) 
energy

$$$$
49:0
     RDKit          3D

 55 58  0  0  0  0  0  0  0  0999 V2000
   63.2290   33.6320   46.3990 C   0  0  0  0  0  0  0  0  0  0  0  0
   62.0630   33.8000   47.3210 C   0  0  0  0  0  0  0  0  0  0  0  0
   62.2230   33.6520   48.7020 C   0  0  0  0  0  0  0  0  0  0  0  0
   61.1090   33.8130   49.5230 C   0  0  0  0  0  0  0  0  0  0  0  0
   59.9020   34.1080   48.9750 N   0  0  0  0  0  0  0  0  0  0  0  0
   59.7570   34.2510   47.6290 C   0  0  0  0  0  0  0  0  0  0  0  0
   58.6030   34.5380   47.1090 N   0  0  0  0  0  0  0  0  0  0  0  0
   58.1610   34.1550   45.4740 S   0  0  0  0  0  0  0  0  0  0  0  0
   56.7430   34.5920   45.2300 O   0  0  0  0  0  0  0  0  0  0  0  0
   59.0710   34.8970   44.5350 O   0  0  0  0  0  0  0  0  0  0  0  0
   58.2790   32.4190   45.2120 C   0  0  0  0  0  0  0  0  0  0  0  0
   58.7250   31.5710   46.2340 C   0  0  0  0  0  0  0  0  0  0  0  0
   58.8030   30.1920   46.0200 C   0  0  0  0  0  0  0  0  0  0  0  0
   58.4250   29.6410   44.7870 C   0  0  0  0  0  0  0  0  0  0  0  0
   58.5270   28.2190   44.5880 N   0  0  0  0  0  0  0  0  0  0  0  0
   58.0150   27.2450   45.5140 C   0  0  0  0  0  0  0  0  0  0  0  0
   57.8280   27.5680   46.7200 O   0  0  0  0  0  0  0  0  0  0  0  0
   57.7530   25.8500   45.0830 C   0  0  0  0  0  0  0  0  0  0  0  0
   57.3720   25.5800   43.7570 C   0  0  0  0  0  0  0  0  0  0  0  0
   57.1260   24.2680   43.3420 C   0  0  0  0  0  0  0  0  0  0  0  0
   57.2530   23.2030   44.2460 C   0  0  0  0  0  0  0  0  0  0  0  0
   56.9950   21.7900   43.7910 C   0  0  0  0  0  0  0  0  0  0  0  0
   55.8480   21.2470   44.4460 O   0  0  0  0  0  0  0  0  0  0  0  0
   55.4610   21.5200   45.7690 C   0  0  0  0  0  0  0  0  0  0  0  0
   56.2050   21.0780   46.8820 C   0  0  0  0  0  0  0  0  0  0  0  0
   55.7820   21.3860   48.1790 C   0  0  0  0  0  0  0  0  0  0  0  0
   54.6160   22.1280   48.3790 C   0  0  0  0  0  0  0  0  0  0  0  0
   53.8700   22.5640   47.2820 C   0  0  0  0  0  0  0  0  0  0  0  0
   54.2890   22.2610   45.9820 C   0  0  0  0  0  0  0  0  0  0  0  0
   53.5380   22.7020   44.8990 O   0  0  0  0  0  0  0  0  0  0  0  0
   57.6570   23.4650   45.5640 C   0  0  0  0  0  0  0  0  0  0  0  0
   57.9030   24.7760   45.9800 C   0  0  0  0  0  0  0  0  0  0  0  0
   58.0030   30.4970   43.7550 C   0  0  0  0  0  0  0  0  0  0  0  0
   57.9280   31.8760   43.9690 C   0  0  0  0  0  0  0  0  0  0  0  0
   60.8340   34.0960   46.8150 N   0  0  0  0  0  0  0  0  0  0  0  0
   64.1474   33.4997   46.9897 H   0  0  0  0  0  0  0  0  0  0  0  0
   63.0704   32.7474   45.7647 H   0  0  0  0  0  0  0  0  0  0  0  0
   63.3265   34.5254   45.7647 H   0  0  0  0  0  0  0  0  0  0  0  0
   63.2074   33.4135   49.1311 H   0  0  0  0  0  0  0  0  0  0  0  0
   61.2069   33.7014   50.6129 H   0  0  0  0  0  0  0  0  0  0  0  0
   59.0148   31.9918   47.2081 H   0  0  0  0  0  0  0  0  0  0  0  0
   59.1635   29.5341   46.8245 H   0  0  0  0  0  0  0  0  0  0  0  0
   59.1040   27.8790   43.7870 H   0  0  0  0  0  0  0  0  0  0  0  0
   57.2666   26.4078   43.0403 H   0  0  0  0  0  0  0  0  0  0  0  0
   56.8312   24.0697   42.3009 H   0  0  0  0  0  0  0  0  0  0  0  0
   56.8248   21.7866   42.7042 H   0  0  0  0  0  0  0  0  0  0  0  0
   57.8700   21.1732   44.0439 H   0  0  0  0  0  0  0  0  0  0  0  0
   57.1214   20.4888   46.7298 H   0  0  0  0  0  0  0  0  0  0  0  0
   56.3692   21.0430   49.0436 H   0  0  0  0  0  0  0  0  0  0  0  0
   54.2854   22.3689   49.4001 H   0  0  0  0  0  0  0  0  0  0  0  0
   52.9508   23.1470   47.4404 H   0  0  0  0  0  0  0  0  0  0  0  0
   57.7807   22.6337   46.2736 H   0  0  0  0  0  0  0  0  0  0  0  0
   58.2163   24.9701   47.0164 H   0  0  0  0  0  0  0  0  0  0  0  0
   57.7305   30.0795   42.7745 H   0  0  0  0  0  0  0  0  0  0  0  0
   57.5918   32.5383   43.1577 H   0  0  0  0  0  0  0  0  0  0  0  0
  1  2  1  0
  2  3  1  0
  3  4  2  0
  4  5  1  0
  5  6  1  0
  6  7  2  3
  7  8  1  0
  8  9  2  0
  8 10  2  0
  8 11  1  0
 11 12  2  0
 12 13  1  0
 13 14  2  0
 14 15  1  0
 15 16  1  0
 16 17  2  0
 16 18  1  0
 18 19  2  0
 19 20  1  0
 20 21  2  0
 21 22  1  0
 22 23  1  0
 23 24  1  0
 24 25  2  0
 25 26  1  0
 26 27  2  0
 27 28  1  0
 28 29  2  0
 29 30  1  0
 21 31  1  0
 31 32  2  0
 14 33  1  0
 33 34  2  0
  6 35  1  0
 35  2  2  0
 34 11  1  0
 32 18  1  0
 29 24  1  0
  1 36  1  0
  1 37  1  0
  1 38  1  0
  3 39  1  0
  4 40  1  0
 12 41  1  0
 13 42  1  0
 15 43  1  0
 19 44  1  0
 20 45  1  0
 22 46  1  0
 22 47  1  0
 25 48  1  0
 26 49  1  0
 27 50  1  0
 28 51  1  0
 31 52  1  0
 32 53  1  0
 33 54  1  0
 34 55  1  0
M  CHG  2   5  -1  30  -1
M  END
>  <UniqueID>  (49) 
47

>  <SMILES>  (49) 
Cc1cc[n-]c(=NS(=O)(=O)c2ccc(NC(=O)c3ccc(COc4ccccc4[O-])cc3)cc2)n1

>  <Energy>  (49) 
67.95097224190846

>  <Genealogy>  (49) 
Cc1cc[n-]c(=NS(=O)(=O)c2ccc(NC(=O)c3ccc(COc4ccccc4[O-])cc3)cc2)n1 (protonated)
Cc1cc[n-]c(=NS(=O)(=O)c2ccc(NC(=O)c3ccc(COc4ccccc4[O-])cc3)cc2)n1 (3D coordinates assigned)
Cc1cc[n-]c(=NS(=O)(=O)c2ccc(NC(=O)c3ccc(COc4ccccc4[O-])cc3)cc2)n1 (optimized conformer: 67.95097224190846 kcal/mol)

>  <smiles>  (49) 
Cc1cc[nH]c(=NS(=O)(=O)c2ccc(NC(=O)c3ccc(COc4ccccc4O)cc3)cc2)n1

>  <score_type>  (49) 
oracle

>  <origin>  (49) 
adg

>  <m_score__min__energy>  (49) 
-11.880000000000001

>  <m_primary>  (49) 
energy

$$$$
50:0
     RDKit          3D

 51 54  0  0  0  0  0  0  0  0999 V2000
   62.0930   32.5450   47.9220 C   0  0  0  0  0  0  0  0  0  0  0  0
   61.0860   32.9040   48.9170 N   0  0  0  0  0  0  0  0  0  0  0  0
   59.9140   33.5590   48.7200 C   0  0  0  0  0  0  0  0  0  0  0  0
   59.3660   33.9580   47.4070 C   0  0  0  0  0  0  0  0  0  0  0  0
   60.1320   34.7300   46.5180 C   0  0  0  0  0  0  0  0  0  0  0  0
   59.6360   35.0520   45.2520 C   0  0  0  0  0  0  0  0  0  0  0  0
   58.3780   34.5950   44.8570 C   0  0  0  0  0  0  0  0  0  0  0  0
   57.6150   33.8120   45.7250 C   0  0  0  0  0  0  0  0  0  0  0  0
   58.1060   33.4870   46.9950 C   0  0  0  0  0  0  0  0  0  0  0  0
   57.3460   32.7260   47.8240 F   0  0  0  0  0  0  0  0  0  0  0  0
   59.2330   33.7590   49.8690 N   0  0  0  0  0  0  0  0  0  0  0  0
   59.9900   33.1800   50.8190 C   0  0  0  0  0  0  0  0  0  0  0  0
   59.5500   33.1760   52.5230 S   0  0  0  0  0  0  0  0  0  0  0  0
   59.1660   34.5660   52.9460 O   0  0  0  0  0  0  0  0  0  0  0  0
   60.7150   32.7210   53.3550 O   0  0  0  0  0  0  0  0  0  0  0  0
   58.1880   32.0870   52.7830 C   0  0  0  0  0  0  0  0  0  0  0  0
   57.2770   31.8180   51.7500 C   0  0  0  0  0  0  0  0  0  0  0  0
   56.1940   30.9610   51.9730 C   0  0  0  0  0  0  0  0  0  0  0  0
   56.0090   30.3780   53.2280 C   0  0  0  0  0  0  0  0  0  0  0  0
   56.9190   30.6340   54.2580 C   0  0  0  0  0  0  0  0  0  0  0  0
   58.0080   31.4810   54.0350 C   0  0  0  0  0  0  0  0  0  0  0  0
   61.1230   32.6380   50.2380 C   0  0  0  0  0  0  0  0  0  0  0  0
   62.3850   31.6500   51.0630 S   0  0  0  0  0  0  0  0  0  0  0  0
   62.1140   30.1160   50.0950 C   0  0  0  0  0  0  0  0  0  0  0  0
   60.6610   29.7910   49.9260 C   0  0  0  0  0  0  0  0  0  0  0  0
   59.8220   30.2160   50.7650 O   0  0  0  0  0  0  0  0  0  0  0  0
   60.2500   29.0380   48.7750 N   0  0  0  0  0  0  0  0  0  0  0  0
   59.5620   29.4820   47.7680 C   0  0  0  0  0  0  0  0  0  0  0  0
   59.8960   30.5620   47.0260 N   0  0  0  0  0  0  0  0  0  0  0  0
   59.0450   30.7840   46.0270 N   0  0  0  0  0  0  0  0  0  0  0  0
   58.0430   29.8800   45.9730 C   0  0  0  0  0  0  0  0  0  0  0  0
   56.8020   29.8870   44.7380 S   0  0  0  0  0  0  0  0  0  0  0  0
   55.5410   28.7880   45.1670 N   0  0  0  0  0  0  0  0  0  0  0  0
   57.4040   29.4730   43.4250 O   0  0  0  0  0  0  0  0  0  0  0  0
   56.2370   31.2730   44.5980 O   0  0  0  0  0  0  0  0  0  0  0  0
   58.1670   28.7320   47.2000 S   0  0  0  0  0  0  0  0  0  0  0  0
   63.0113   32.2176   48.4314 H   0  0  0  0  0  0  0  0  0  0  0  0
   61.7115   31.7275   47.2926 H   0  0  0  0  0  0  0  0  0  0  0  0
   62.3147   33.4195   47.2926 H   0  0  0  0  0  0  0  0  0  0  0  0
   61.1288   35.0834   46.8204 H   0  0  0  0  0  0  0  0  0  0  0  0
   60.2377   35.6663   44.5660 H   0  0  0  0  0  0  0  0  0  0  0  0
   57.9875   34.8519   43.8613 H   0  0  0  0  0  0  0  0  0  0  0  0
   56.6253   33.4494   45.4102 H   0  0  0  0  0  0  0  0  0  0  0  0
   57.4149   32.2822   50.7623 H   0  0  0  0  0  0  0  0  0  0  0  0
   55.4870   30.7461   51.1582 H   0  0  0  0  0  0  0  0  0  0  0  0
   55.1476   29.7175   53.4063 H   0  0  0  0  0  0  0  0  0  0  0  0
   56.7777   30.1684   55.2446 H   0  0  0  0  0  0  0  0  0  0  0  0
   58.7271   31.6732   54.8449 H   0  0  0  0  0  0  0  0  0  0  0  0
   62.5648   30.2431   49.0997 H   0  0  0  0  0  0  0  0  0  0  0  0
   62.5791   29.2864   50.6478 H   0  0  0  0  0  0  0  0  0  0  0  0
   54.6630   29.3470   45.2440 H   0  0  0  0  0  0  0  0  0  0  0  0
  1  2  1  0
  2  3  1  0
  3  4  1  0
  4  5  2  0
  5  6  1  0
  6  7  2  0
  7  8  1  0
  8  9  2  0
  9 10  1  0
  3 11  2  0
 11 12  1  0
 12 13  1  0
 13 14  2  0
 13 15  2  0
 13 16  1  0
 16 17  2  0
 17 18  1  0
 18 19  2  0
 19 20  1  0
 20 21  2  0
 12 22  2  0
 22 23  1  0
 23 24  1  0
 24 25  1  0
 25 26  2  0
 25 27  1  0
 27 28  2  3
 28 29  1  0
 29 30  1  0
 30 31  2  0
 31 32  1  0
 32 33  1  0
 32 34  2  0
 32 35  2  0
 31 36  1  0
 22  2  1  0
 36 28  1  0
  9  4  1  0
 21 16  1  0
  1 37  1  0
  1 38  1  0
  1 39  1  0
  5 40  1  0
  6 41  1  0
  7 42  1  0
  8 43  1  0
 17 44  1  0
 18 45  1  0
 19 46  1  0
 20 47  1  0
 21 48  1  0
 24 49  1  0
 24 50  1  0
 33 51  1  0
M  CHG  2  29  -1  33  -1
M  END
>  <UniqueID>  (50) 
48

>  <SMILES>  (50) 
Cn1c(-c2ccccc2F)nc(S(=O)(=O)c2ccccc2)c1SCC(=O)N=c1[n-]nc(S([NH-])(=O)=O)s1

>  <Energy>  (50) 
118.8438069381179

>  <Genealogy>  (50) 
Cn1c(-c2ccccc2F)nc(S(=O)(=O)c2ccccc2)c1SCC(=O)N=c1[n-]nc(S([NH-])(=O)=O)s1 (protonated)
Cn1c(-c2ccccc2F)nc(S(=O)(=O)c2ccccc2)c1SCC(=O)N=c1[n-]nc(S([NH-])(=O)=O)s1 (3D coordinates assigned)
Cn1c(-c2ccccc2F)nc(S(=O)(=O)c2ccccc2)c1SCC(=O)N=c1[n-]nc(S([NH-])(=O)=O)s1 (optimized conformer: 118.8438069381179 kcal/mol)

>  <smiles>  (50) 
Cn1c(-c2ccccc2F)nc(S(=O)(=O)c2ccccc2)c1SCC(=O)N=c1[nH]nc(S(N)(=O)=O)s1

>  <score_type>  (50) 
oracle

>  <origin>  (50) 
adg

>  <m_score__min__energy>  (50) 
-13.27

>  <m_primary>  (50) 
energy

$$$$
51:0
     RDKit          3D

 41 43  0  0  1  0  0  0  0  0999 V2000
   57.4050   25.2970   43.7720 C   0  0  0  0  0  0  0  0  0  0  0  0
   57.7900   26.4840   44.5430 C   0  0  0  0  0  0  0  0  0  0  0  0
   58.6340   27.4300   43.9460 C   0  0  0  0  0  0  0  0  0  0  0  0
   59.0290   28.5650   44.6320 C   0  0  0  0  0  0  0  0  0  0  0  0
   58.6070   28.8130   45.9320 C   0  0  0  0  0  0  0  0  0  0  0  0
   59.0500   30.0220   46.6010 C   0  0  0  0  0  0  0  0  0  0  0  0
   59.9280   30.9600   46.2150 N   0  0  0  0  0  0  0  0  0  0  0  0
   60.0310   31.9110   47.1540 C   0  0  0  0  0  0  0  0  0  0  0  0
   60.8390   33.1460   47.2130 C   0  0  0  0  0  0  0  0  0  0  0  0
   59.9720   34.5360   46.4280 S   0  0  0  0  0  0  0  0  0  0  0  0
   58.1930   34.2080   46.2940 C   0  0  0  0  0  0  0  0  0  0  0  0
   57.9030   33.3600   45.0910 C   0  0  0  0  0  0  0  0  0  0  0  0
   58.5290   33.5650   44.0110 O   0  0  0  0  0  0  0  0  0  0  0  0
   56.9180   32.3630   45.2570 N   0  0  0  0  0  0  0  0  0  0  0  0
   56.7030   31.3940   44.4660 C   0  0  0  0  0  0  0  0  0  0  0  0
   55.7300   30.4770   44.5300 N   0  0  0  0  0  0  0  0  0  0  0  0
   55.9310   29.6550   43.4600 C   0  0  0  0  0  0  0  0  0  0  0  0
   57.0140   30.0760   42.7620 N   0  0  0  0  0  0  0  0  0  0  0  0
   57.4990   31.1560   43.3810 N   0  0  0  0  0  0  0  0  0  0  0  0
   59.1610   31.5110   48.1600 C   0  0  0  0  0  0  0  0  0  0  0  0
   58.8830   32.2050   49.4450 C   0  0  0  0  0  0  0  0  0  0  0  0
   58.6060   30.3900   47.7850 O   0  0  0  0  0  0  0  0  0  0  0  0
   57.7700   27.8810   46.5310 C   0  0  0  0  0  0  0  0  0  0  0  0
   57.3870   26.7530   45.8310 C   0  0  0  0  0  0  0  0  0  0  0  0
   57.1406   24.4818   44.4615 H   0  0  0  0  0  0  0  0  0  0  0  0
   56.5385   25.5366   43.1381 H   0  0  0  0  0  0  0  0  0  0  0  0
   58.2472   24.9824   43.1381 H   0  0  0  0  0  0  0  0  0  0  0  0
   58.9877   27.2680   42.9171 H   0  0  0  0  0  0  0  0  0  0  0  0
   59.6931   29.2882   44.1360 H   0  0  0  0  0  0  0  0  0  0  0  0
   61.0372   33.3952   48.2659 H   0  0  0  0  0  0  0  0  0  0  0  0
   61.7808   32.9724   46.6718 H   0  0  0  0  0  0  0  0  0  0  0  0
   57.8531   33.6816   47.1981 H   0  0  0  0  0  0  0  0  0  0  0  0
   57.6621   35.1657   46.1898 H   0  0  0  0  0  0  0  0  0  0  0  0
   55.3097   28.7844   43.2031 H   0  0  0  0  0  0  0  0  0  0  0  0
   57.4100   29.6400   41.8920 H   0  0  0  0  0  0  0  0  0  0  0  0
   58.3370   31.7400   43.1070 H   0  0  0  0  0  0  0  0  0  0  0  0
   59.1478   31.5440   50.2835 H   0  0  0  0  0  0  0  0  0  0  0  0
   59.4815   33.1262   49.5012 H   0  0  0  0  0  0  0  0  0  0  0  0
   57.8140   32.4583   49.5012 H   0  0  0  0  0  0  0  0  0  0  0  0
   57.4131   28.0401   47.5592 H   0  0  0  0  0  0  0  0  0  0  0  0
   56.7241   26.0310   46.3303 H   0  0  0  0  0  0  0  0  0  0  0  0
  1  2  1  0
  2  3  2  0
  3  4  1  0
  4  5  2  0
  5  6  1  0
  6  7  2  0
  7  8  1  0
  8  9  1  0
  9 10  1  0
 10 11  1  0
 11 12  1  0
 12 13  2  0
 12 14  1  0
 14 15  2  0
 15 16  1  0
 16 17  2  0
 17 18  1  0
 18 19  1  0
  8 20  2  0
 20 21  1  0
 20 22  1  0
  5 23  1  0
 23 24  2  0
 24  2  1  0
 22  6  1  0
 19 15  1  0
  1 25  1  0
  1 26  1  0
  1 27  1  0
  3 28  1  0
  4 29  1  0
  9 30  1  0
  9 31  1  0
 11 32  1  0
 11 33  1  0
 17 34  1  0
 18 35  1  0
 19 36  1  0
 21 37  1  0
 21 38  1  0
 21 39  1  0
 23 40  1  0
 24 41  1  0
M  END
>  <smiles>  (51) 
Cc1ccc(-c2nc(CSCC(=O)N=c3nc[nH][nH]3)c(C)o2)cc1

>  <score_type>  (51) 
oracle

>  <origin>  (51) 
adg

>  <m_score__min__energy>  (51) 
-8.0600000000000005

>  <m_primary>  (51) 
energy

$$$$
52:0
     RDKit          3D

 51 53  0  0  0  0  0  0  0  0999 V2000
   56.2800   25.4620   45.4470 O   0  0  0  0  0  0  0  0  0  0  0  0
   56.5630   26.5460   46.0210 C   0  0  0  0  0  0  0  0  0  0  0  0
   57.5780   26.5590   47.1390 C   0  0  0  0  0  0  0  0  0  0  0  0
   58.8940   25.8630   46.7540 C   0  0  0  0  0  0  0  0  0  0  0  0
   60.1340   27.0170   46.1760 S   0  0  0  0  0  0  0  0  0  0  0  0
   61.4700   26.3430   46.0400 O   0  0  0  0  0  0  0  0  0  0  0  0
   59.7320   27.5630   44.8330 O   0  0  0  0  0  0  0  0  0  0  0  0
   60.2620   28.3370   47.3340 C   0  0  0  0  0  0  0  0  0  0  0  0
   59.8600   28.1460   48.6640 C   0  0  0  0  0  0  0  0  0  0  0  0
   59.9450   29.1990   49.5810 C   0  0  0  0  0  0  0  0  0  0  0  0
   60.4290   30.4460   49.1730 C   0  0  0  0  0  0  0  0  0  0  0  0
   60.8230   30.6420   47.8470 C   0  0  0  0  0  0  0  0  0  0  0  0
   60.7390   29.5920   46.9270 C   0  0  0  0  0  0  0  0  0  0  0  0
   55.8790   27.7380   45.6120 N   0  0  0  0  0  0  0  0  0  0  0  0
   56.4850   28.9750   45.2140 C   0  0  0  0  0  0  0  0  0  0  0  0
   57.6230   29.4810   45.8650 C   0  0  0  0  0  0  0  0  0  0  0  0
   58.2090   30.6740   45.4340 C   0  0  0  0  0  0  0  0  0  0  0  0
   57.6800   31.3680   44.3340 C   0  0  0  0  0  0  0  0  0  0  0  0
   58.3230   32.6540   43.8670 C   0  0  0  0  0  0  0  0  0  0  0  0
   57.7710   33.8410   44.5730 N   0  0  0  0  0  0  0  0  0  0  0  0
   58.8310   34.8280   44.8730 C   0  0  0  0  0  0  0  0  0  0  0  0
   59.7950   34.3270   45.9760 C   0  0  0  0  0  0  0  0  0  0  0  0
   59.2730   33.2430   46.7270 O   0  0  0  0  0  0  0  0  0  0  0  0
   57.9280   33.4950   47.0680 C   0  0  0  0  0  0  0  0  0  0  0  0
   57.0320   33.4760   45.8110 C   0  0  0  0  0  0  0  0  0  0  0  0
   56.5590   30.8460   43.6690 C   0  0  0  0  0  0  0  0  0  0  0  0
   55.9740   29.6520   44.1020 C   0  0  0  0  0  0  0  0  0  0  0  0
   57.7969   27.6041   47.4034 H   0  0  0  0  0  0  0  0  0  0  0  0
   57.1458   26.0069   47.9865 H   0  0  0  0  0  0  0  0  0  0  0  0
   59.2861   25.3362   47.6365 H   0  0  0  0  0  0  0  0  0  0  0  0
   58.6760   25.1659   45.9315 H   0  0  0  0  0  0  0  0  0  0  0  0
   59.4772   27.1665   48.9866 H   0  0  0  0  0  0  0  0  0  0  0  0
   59.6308   29.0460   50.6240 H   0  0  0  0  0  0  0  0  0  0  0  0
   60.4995   31.2722   49.8958 H   0  0  0  0  0  0  0  0  0  0  0  0
   61.2001   31.6242   47.5259 H   0  0  0  0  0  0  0  0  0  0  0  0
   61.0473   29.7504   45.8830 H   0  0  0  0  0  0  0  0  0  0  0  0
   58.0542   28.9356   46.7174 H   0  0  0  0  0  0  0  0  0  0  0  0
   59.0897   31.0717   45.9594 H   0  0  0  0  0  0  0  0  0  0  0  0
   59.4051   32.5994   44.0567 H   0  0  0  0  0  0  0  0  0  0  0  0
   58.1127   32.7688   42.7934 H   0  0  0  0  0  0  0  0  0  0  0  0
   57.0980   34.3180   43.9280 H   0  0  0  0  0  0  0  0  0  0  0  0
   59.4085   35.0185   43.9564 H   0  0  0  0  0  0  0  0  0  0  0  0
   58.3469   35.7464   45.2365 H   0  0  0  0  0  0  0  0  0  0  0  0
   60.7321   34.0027   45.4998 H   0  0  0  0  0  0  0  0  0  0  0  0
   59.9525   35.1617   46.6749 H   0  0  0  0  0  0  0  0  0  0  0  0
   57.5824   32.7211   47.7691 H   0  0  0  0  0  0  0  0  0  0  0  0
   57.8622   34.4895   47.5334 H   0  0  0  0  0  0  0  0  0  0  0  0
   56.6190   32.4639   45.6887 H   0  0  0  0  0  0  0  0  0  0  0  0
   56.2392   34.2244   45.9572 H   0  0  0  0  0  0  0  0  0  0  0  0
   56.1389   31.3789   42.8032 H   0  0  0  0  0  0  0  0  0  0  0  0
   55.1061   29.2425   43.5644 H   0  0  0  0  0  0  0  0  0  0  0  0
  1  2  2  0
  2  3  1  0
  3  4  1  0
  4  5  1  0
  5  6  2  0
  5  7  2  0
  5  8  1  0
  8  9  2  0
  9 10  1  0
 10 11  2  0
 11 12  1  0
 12 13  2  0
  2 14  1  0
 14 15  1  0
 15 16  2  0
 16 17  1  0
 17 18  2  0
 18 19  1  0
 19 20  1  0
 20 21  1  0
 21 22  1  0
 22 23  1  0
 23 24  1  0
 24 25  1  0
 18 26  1  0
 26 27  2  0
 13  8  1  0
 27 15  1  0
 25 20  1  0
  3 28  1  0
  3 29  1  0
  4 30  1  0
  4 31  1  0
  9 32  1  0
 10 33  1  0
 11 34  1  0
 12 35  1  0
 13 36  1  0
 16 37  1  0
 17 38  1  0
 19 39  1  0
 19 40  1  0
 20 41  1  0
 21 42  1  0
 21 43  1  0
 22 44  1  0
 22 45  1  0
 24 46  1  0
 24 47  1  0
 25 48  1  0
 25 49  1  0
 26 50  1  0
 27 51  1  0
M  CHG  2  14  -1  20   1
M  END
>  <UniqueID>  (52) 
49

>  <SMILES>  (52) 
O=C(CCS(=O)(=O)c1ccccc1)[N-]c1ccc(C[NH+]2CCOCC2)cc1

>  <Energy>  (52) 
67.61640575811558

>  <Genealogy>  (52) 
O=C(CCS(=O)(=O)c1ccccc1)[N-]c1ccc(C[NH+]2CCOCC2)cc1 (protonated)
O=C(CCS(=O)(=O)c1ccccc1)[N-]c1ccc(C[NH+]2CCOCC2)cc1 (3D coordinates assigned)
O=C(CCS(=O)(=O)c1ccccc1)[N-]c1ccc(C[NH+]2CCOCC2)cc1 (nonaromatic ring conformer: 67.61640575811558 kcal/mol)

>  <smiles>  (52) 
O=C(CCS(=O)(=O)c1ccccc1)Nc1ccc(CN2CCOCC2)cc1

>  <score_type>  (52) 
oracle

>  <origin>  (52) 
adg

>  <m_score__min__energy>  (52) 
-8.9399999999999995

>  <m_primary>  (52) 
energy

$$$$
53:0
     RDKit          3D

 52 54  0  0  0  0  0  0  0  0999 V2000
   63.7350   34.0660   50.8450 C   0  0  0  0  0  0  0  0  0  0  0  0
   64.1880   33.5450   49.5440 N   0  0  0  0  0  0  0  0  0  0  0  0
   63.4790   34.1700   48.4060 C   0  0  0  0  0  0  0  0  0  0  0  0
   62.0370   33.6640   48.2580 C   0  0  0  0  0  0  0  0  0  0  0  0
   62.0210   32.1990   48.2740 N   0  0  0  0  0  0  0  0  0  0  0  0
   61.3110   31.4460   47.2720 C   0  0  0  0  0  0  0  0  0  0  0  0
   61.8380   30.4020   46.7990 O   0  0  0  0  0  0  0  0  0  0  0  0
   59.9770   31.8680   46.7850 C   0  0  0  0  0  0  0  0  0  0  0  0
   59.3570   33.0070   47.3210 C   0  0  0  0  0  0  0  0  0  0  0  0
   58.1130   33.4250   46.8430 C   0  0  0  0  0  0  0  0  0  0  0  0
   57.4720   32.7140   45.8230 C   0  0  0  0  0  0  0  0  0  0  0  0
   56.2690   33.1940   45.3210 O   0  0  0  0  0  0  0  0  0  0  0  0
   58.0700   31.5520   45.2960 C   0  0  0  0  0  0  0  0  0  0  0  0
   57.4700   30.8000   44.2340 N   0  0  0  0  0  0  0  0  0  0  0  0
   56.8730   29.5030   44.3500 C   0  0  0  0  0  0  0  0  0  0  0  0
   55.9480   29.3070   45.1830 O   0  0  0  0  0  0  0  0  0  0  0  0
   57.4010   28.3560   43.5860 C   0  0  0  0  0  0  0  0  0  0  0  0
   58.1600   27.3740   44.0980 C   0  0  0  0  0  0  0  0  0  0  0  0
   58.6580   27.3420   45.4890 C   0  0  0  0  0  0  0  0  0  0  0  0
   59.8140   28.0720   45.8200 C   0  0  0  0  0  0  0  0  0  0  0  0
   60.3120   28.0580   47.1230 C   0  0  0  0  0  0  0  0  0  0  0  0
   59.6720   27.3030   48.1070 C   0  0  0  0  0  0  0  0  0  0  0  0
   58.5340   26.5590   47.7900 C   0  0  0  0  0  0  0  0  0  0  0  0
   58.0200   26.5630   46.4830 C   0  0  0  0  0  0  0  0  0  0  0  0
   56.5560   25.6360   46.1190 S   0  0  0  0  0  0  0  0  0  0  0  0
   55.1780   26.6750   46.0010 N   0  0  0  0  0  0  0  0  0  0  0  0
   56.3150   24.6290   47.2100 O   0  0  0  0  0  0  0  0  0  0  0  0
   56.7310   24.9240   44.8070 O   0  0  0  0  0  0  0  0  0  0  0  0
   59.3340   31.1600   45.7550 C   0  0  0  0  0  0  0  0  0  0  0  0
   62.7290   31.5150   49.3570 C   0  0  0  0  0  0  0  0  0  0  0  0
   64.1540   32.0690   49.4800 C   0  0  0  0  0  0  0  0  0  0  0  0
   64.2233   33.5044   51.6550 H   0  0  0  0  0  0  0  0  0  0  0  0
   63.9995   35.1307   50.9258 H   0  0  0  0  0  0  0  0  0  0  0  0
   62.6439   33.9521   50.9258 H   0  0  0  0  0  0  0  0  0  0  0  0
   63.4560   35.2588   48.5605 H   0  0  0  0  0  0  0  0  0  0  0  0
   64.0218   33.9015   47.4877 H   0  0  0  0  0  0  0  0  0  0  0  0
   61.4289   34.0450   49.0917 H   0  0  0  0  0  0  0  0  0  0  0  0
   61.6228   34.0213   47.3036 H   0  0  0  0  0  0  0  0  0  0  0  0
   59.8536   33.5739   48.1222 H   0  0  0  0  0  0  0  0  0  0  0  0
   57.6346   34.3183   47.2710 H   0  0  0  0  0  0  0  0  0  0  0  0
   57.1539   28.3015   42.5155 H   0  0  0  0  0  0  0  0  0  0  0  0
   58.4294   26.5367   43.4375 H   0  0  0  0  0  0  0  0  0  0  0  0
   60.3294   28.6586   45.0452 H   0  0  0  0  0  0  0  0  0  0  0  0
   61.2094   28.6422   47.3750 H   0  0  0  0  0  0  0  0  0  0  0  0
   60.0650   27.2941   49.1344 H   0  0  0  0  0  0  0  0  0  0  0  0
   58.0359   25.9648   48.5703 H   0  0  0  0  0  0  0  0  0  0  0  0
   55.2550   27.1850   45.0940 H   0  0  0  0  0  0  0  0  0  0  0  0
   59.8294   30.2876   45.3039 H   0  0  0  0  0  0  0  0  0  0  0  0
   62.1918   31.6765   50.3032 H   0  0  0  0  0  0  0  0  0  0  0  0
   62.7765   30.4385   49.1358 H   0  0  0  0  0  0  0  0  0  0  0  0
   64.6103   31.6663   50.3963 H   0  0  0  0  0  0  0  0  0  0  0  0
   64.7087   31.7623   48.5809 H   0  0  0  0  0  0  0  0  0  0  0  0
  1  2  1  0
  2  3  1  0
  3  4  1  0
  4  5  1  0
  5  6  1  0
  6  7  2  0
  6  8  1  0
  8  9  2  0
  9 10  1  0
 10 11  2  0
 11 12  1  0
 11 13  1  0
 13 14  1  0
 14 15  1  0
 15 16  2  0
 15 17  1  0
 17 18  2  3
 18 19  1  0
 19 20  2  0
 20 21  1  0
 21 22  2  0
 22 23  1  0
 23 24  2  0
 24 25  1  0
 25 26  1  0
 25 27  2  0
 25 28  2  0
 13 29  2  0
  5 30  1  0
 30 31  1  0
 31  2  1  0
 29  8  1  0
 24 19  1  0
  1 32  1  0
  1 33  1  0
  1 34  1  0
  3 35  1  0
  3 36  1  0
  4 37  1  0
  4 38  1  0
  9 39  1  0
 10 40  1  0
 17 41  1  0
 18 42  1  0
 20 43  1  0
 21 44  1  0
 22 45  1  0
 23 46  1  0
 26 47  1  0
 29 48  1  0
 30 49  1  0
 30 50  1  0
 31 51  1  0
 31 52  1  0
M  CHG  3  12  -1  14  -1  26  -1
M  END
>  <UniqueID>  (53) 
50

>  <SMILES>  (53) 
CN1CCN(C(=O)c2ccc([O-])c([N-]C(=O)C=Cc3ccccc3S([NH-])(=O)=O)c2)CC1

>  <Energy>  (53) 
74.42744281014328

>  <Genealogy>  (53) 
CN1CCN(C(=O)c2ccc([O-])c([N-]C(=O)C=Cc3ccccc3S([NH-])(=O)=O)c2)CC1 (protonated)
CN1CCN(C(=O)c2ccc([O-])c([N-]C(=O)C=Cc3ccccc3S([NH-])(=O)=O)c2)CC1 (3D coordinates assigned)
CN1CCN(C(=O)c2ccc([O-])c([N-]C(=O)C=Cc3ccccc3S([NH-])(=O)=O)c2)CC1 (nonaromatic ring conformer: 74.42744281014328 kcal/mol)

>  <smiles>  (53) 
CN1CCN(C(=O)c2ccc(O)c(NC(=O)C=Cc3ccccc3S(N)(=O)=O)c2)CC1

>  <score_type>  (53) 
oracle

>  <origin>  (53) 
adg

>  <m_score__min__energy>  (53) 
-15.300000000000001

>  <m_primary>  (53) 
energy

$$$$
54:0
     RDKit          3D

 46 49  0  0  0  0  0  0  0  0999 V2000
   59.2040   29.6220   47.6610 C   0  0  0  0  0  0  0  0  0  0  0  0
   58.9690   29.8230   46.3560 C   0  0  0  0  0  0  0  0  0  0  0  0
   58.5140   28.8810   45.4200 C   0  0  0  0  0  0  0  0  0  0  0  0
   58.4060   27.5400   45.4970 C   0  0  0  0  0  0  0  0  0  0  0  0
   57.1870   26.7970   45.8520 C   0  0  0  0  0  0  0  0  0  0  0  0
   57.1580   25.5080   46.2390 N   0  0  0  0  0  0  0  0  0  0  0  0
   55.8370   25.2350   46.3140 C   0  0  0  0  0  0  0  0  0  0  0  0
   55.3960   24.1100   46.6650 O   0  0  0  0  0  0  0  0  0  0  0  0
   55.0260   26.2580   45.9710 N   0  0  0  0  0  0  0  0  0  0  0  0
   55.8970   27.2340   45.6680 C   0  0  0  0  0  0  0  0  0  0  0  0
   55.5220   28.4970   45.2260 O   0  0  0  0  0  0  0  0  0  0  0  0
   58.1750   29.5960   44.2830 C   0  0  0  0  0  0  0  0  0  0  0  0
   58.5010   30.9130   44.5270 C   0  0  0  0  0  0  0  0  0  0  0  0
   58.3170   32.0320   43.5450 C   0  0  0  0  0  0  0  0  0  0  0  0
   58.9780   31.0550   45.7840 N   0  0  0  0  0  0  0  0  0  0  0  0
   59.3830   32.2910   46.3960 C   0  0  0  0  0  0  0  0  0  0  0  0
   60.6150   32.3750   47.0530 C   0  0  0  0  0  0  0  0  0  0  0  0
   61.0060   33.5830   47.6530 C   0  0  0  0  0  0  0  0  0  0  0  0
   62.2690   33.6870   48.3370 N   0  0  0  0  0  0  0  0  0  0  0  0
   62.4240   34.5900   49.4810 C   0  0  0  0  0  0  0  0  0  0  0  0
   63.5190   34.0600   50.4100 C   0  0  0  0  0  0  0  0  0  0  0  0
   64.7130   33.8120   49.6910 O   0  0  0  0  0  0  0  0  0  0  0  0
   64.5020   32.7700   48.7570 C   0  0  0  0  0  0  0  0  0  0  0  0
   63.4890   33.1940   47.6900 C   0  0  0  0  0  0  0  0  0  0  0  0
   60.1760   34.6660   47.5810 N   0  0  0  0  0  0  0  0  0  0  0  0
   58.9720   34.6040   46.9510 C   0  0  0  0  0  0  0  0  0  0  0  0
   58.5510   33.4170   46.3490 C   0  0  0  0  0  0  0  0  0  0  0  0
   57.3380   33.3580   45.7460 F   0  0  0  0  0  0  0  0  0  0  0  0
   59.5613   30.4510   48.2896 H   0  0  0  0  0  0  0  0  0  0  0  0
   59.0394   28.6282   48.1028 H   0  0  0  0  0  0  0  0  0  0  0  0
   59.3074   26.9498   45.2752 H   0  0  0  0  0  0  0  0  0  0  0  0
   57.7308   29.1906   43.3620 H   0  0  0  0  0  0  0  0  0  0  0  0
   58.1619   32.9754   44.0890 H   0  0  0  0  0  0  0  0  0  0  0  0
   59.2133   32.1163   42.9130 H   0  0  0  0  0  0  0  0  0  0  0  0
   57.4409   31.8248   42.9130 H   0  0  0  0  0  0  0  0  0  0  0  0
   61.2760   31.4970   47.0996 H   0  0  0  0  0  0  0  0  0  0  0  0
   62.7023   35.5916   49.1215 H   0  0  0  0  0  0  0  0  0  0  0  0
   61.4738   34.6470   50.0323 H   0  0  0  0  0  0  0  0  0  0  0  0
   63.7185   34.8054   51.1939 H   0  0  0  0  0  0  0  0  0  0  0  0
   63.1748   33.1159   50.8573 H   0  0  0  0  0  0  0  0  0  0  0  0
   65.4569   32.5232   48.2700 H   0  0  0  0  0  0  0  0  0  0  0  0
   64.1066   31.8929   49.2902 H   0  0  0  0  0  0  0  0  0  0  0  0
   63.9229   33.9926   47.0703 H   0  0  0  0  0  0  0  0  0  0  0  0
   63.2423   32.3290   47.0569 H   0  0  0  0  0  0  0  0  0  0  0  0
   60.4700   35.5760   48.0010 H   0  0  0  0  0  0  0  0  0  0  0  0
   58.3266   35.4941   46.9157 H   0  0  0  0  0  0  0  0  0  0  0  0
  1  2  2  0
  2  3  1  0
  3  4  2  3
  4  5  1  0
  5  6  1  0
  6  7  1  0
  7  8  2  0
  7  9  1  0
  9 10  1  0
 10 11  1  0
  3 12  1  0
 12 13  2  0
 13 14  1  0
 13 15  1  0
 15 16  1  0
 16 17  2  0
 17 18  1  0
 18 19  1  0
 19 20  1  0
 20 21  1  0
 21 22  1  0
 22 23  1  0
 23 24  1  0
 18 25  2  0
 25 26  1  0
 26 27  2  0
 27 28  1  0
 15  2  1  0
 27 16  1  0
 10  5  2  0
 24 19  1  0
  1 29  1  0
  1 30  1  0
  4 31  1  0
 12 32  1  0
 14 33  1  0
 14 34  1  0
 14 35  1  0
 17 36  1  0
 20 37  1  0
 20 38  1  0
 21 39  1  0
 21 40  1  0
 23 41  1  0
 23 42  1  0
 24 43  1  0
 24 44  1  0
 25 45  1  0
 26 46  1  0
M  CHG  4   6  -1   9  -1  11  -1  25   1
M  END
>  <UniqueID>  (54) 
51

>  <SMILES>  (54) 
C=c1c(=Cc2[n-]c(=O)[n-]c2[O-])cc(C)n1-c1cc(N2CCOCC2)[nH+]cc1F

>  <Energy>  (54) 
129.12343717660553

>  <Genealogy>  (54) 
C=c1c(=Cc2[n-]c(=O)[n-]c2[O-])cc(C)n1-c1cc(N2CCOCC2)[nH+]cc1F (protonated)
C=c1c(=Cc2[n-]c(=O)[n-]c2[O-])cc(C)n1-c1cc(N2CCOCC2)[nH+]cc1F (3D coordinates assigned)
C=c1c(=Cc2[n-]c(=O)[n-]c2[O-])cc(C)n1-c1cc(N2CCOCC2)[nH+]cc1F (nonaromatic ring conformer: 129.12343717660553 kcal/mol)

>  <smiles>  (54) 
C=c1c(=Cc2[nH]c(=O)[nH]c2O)cc(C)n1-c1cc(N2CCOCC2)ncc1F

>  <score_type>  (54) 
oracle

>  <origin>  (54) 
adg

>  <m_score__min__energy>  (54) 
-14.550000000000001

>  <m_primary>  (54) 
energy

$$$$
55:0
     RDKit          3D

 57 61  0  0  0  0  0  0  0  0999 V2000
   60.7230   33.5990   51.4100 C   0  0  0  0  0  0  0  0  0  0  0  0
   59.5680   33.1840   50.8750 C   0  0  0  0  0  0  0  0  0  0  0  0
   58.5250   32.5720   51.7700 C   0  0  0  0  0  0  0  0  0  0  0  0
   59.2700   33.4130   49.4340 C   0  0  0  0  0  0  0  0  0  0  0  0
   59.8260   34.5080   48.7440 C   0  0  0  0  0  0  0  0  0  0  0  0
   59.5380   34.7140   47.3920 C   0  0  0  0  0  0  0  0  0  0  0  0
   58.7010   33.8290   46.7050 C   0  0  0  0  0  0  0  0  0  0  0  0
   58.3250   34.1130   45.0110 S   0  0  0  0  0  0  0  0  0  0  0  0
   59.2170   35.2100   44.4970 O   0  0  0  0  0  0  0  0  0  0  0  0
   56.8830   34.5100   44.8670 O   0  0  0  0  0  0  0  0  0  0  0  0
   58.6010   32.6520   44.1170 N   0  0  0  0  0  0  0  0  0  0  0  0
   57.9450   31.3990   44.3500 C   0  0  0  0  0  0  0  0  0  0  0  0
   56.5590   31.3250   44.1610 C   0  0  0  0  0  0  0  0  0  0  0  0
   55.8770   30.1290   44.3930 C   0  0  0  0  0  0  0  0  0  0  0  0
   56.5720   28.9960   44.8200 C   0  0  0  0  0  0  0  0  0  0  0  0
   57.9610   29.0510   45.0180 C   0  0  0  0  0  0  0  0  0  0  0  0
   58.7050   27.8600   45.4820 C   0  0  0  0  0  0  0  0  0  0  0  0
   59.6700   27.8190   46.4030 C   0  0  0  0  0  0  0  0  0  0  0  0
   60.2960   28.9740   47.0780 C   0  0  0  0  0  0  0  0  0  0  0  0
   60.9000   30.0650   46.4570 C   0  0  0  0  0  0  0  0  0  0  0  0
   61.4100   30.9080   47.3850 N   0  0  0  0  0  0  0  0  0  0  0  0
   62.0900   32.1730   47.1210 C   0  0  0  0  0  0  0  0  0  0  0  0
   61.1300   30.3680   48.5870 C   0  0  0  0  0  0  0  0  0  0  0  0
   61.4400   30.8800   49.8500 C   0  0  0  0  0  0  0  0  0  0  0  0
   61.0370   30.1400   50.9760 C   0  0  0  0  0  0  0  0  0  0  0  0
   60.3320   28.9270   50.8210 C   0  0  0  0  0  0  0  0  0  0  0  0
   60.0260   28.4390   49.5390 C   0  0  0  0  0  0  0  0  0  0  0  0
   60.4540   29.1820   48.4380 C   0  0  0  0  0  0  0  0  0  0  0  0
   60.1140   26.4280   46.5070 C   0  0  0  0  0  0  0  0  0  0  0  0
   61.0690   26.0240   47.2210 O   0  0  0  0  0  0  0  0  0  0  0  0
   59.3830   25.5710   45.6390 N   0  0  0  0  0  0  0  0  0  0  0  0
   58.5050   26.4910   45.0030 C   0  0  0  0  0  0  0  0  0  0  0  0
   57.6500   26.1420   44.1480 O   0  0  0  0  0  0  0  0  0  0  0  0
   58.6450   30.2520   44.7670 C   0  0  0  0  0  0  0  0  0  0  0  0
   58.1450   32.7370   47.3810 C   0  0  0  0  0  0  0  0  0  0  0  0
   58.4300   32.5270   48.7340 C   0  0  0  0  0  0  0  0  0  0  0  0
   61.4958   34.0486   50.7692 H   0  0  0  0  0  0  0  0  0  0  0  0
   60.8992   33.4904   52.4904 H   0  0  0  0  0  0  0  0  0  0  0  0
   58.8029   32.7351   52.8217 H   0  0  0  0  0  0  0  0  0  0  0  0
   57.5502   33.0414   51.5713 H   0  0  0  0  0  0  0  0  0  0  0  0
   58.4593   31.4921   51.5713 H   0  0  0  0  0  0  0  0  0  0  0  0
   60.4916   35.2059   49.2731 H   0  0  0  0  0  0  0  0  0  0  0  0
   59.9720   35.5768   46.8655 H   0  0  0  0  0  0  0  0  0  0  0  0
   56.0045   32.2147   43.8277 H   0  0  0  0  0  0  0  0  0  0  0  0
   54.7890   30.0793   44.2389 H   0  0  0  0  0  0  0  0  0  0  0  0
   56.0294   28.0566   45.0020 H   0  0  0  0  0  0  0  0  0  0  0  0
   60.9546   30.2191   45.3692 H   0  0  0  0  0  0  0  0  0  0  0  0
   62.3495   32.6558   48.0747 H   0  0  0  0  0  0  0  0  0  0  0  0
   63.0075   31.9828   46.5447 H   0  0  0  0  0  0  0  0  0  0  0  0
   61.4253   32.8333   46.5447 H   0  0  0  0  0  0  0  0  0  0  0  0
   61.9817   31.8311   49.9598 H   0  0  0  0  0  0  0  0  0  0  0  0
   61.2729   30.5092   51.9850 H   0  0  0  0  0  0  0  0  0  0  0  0
   60.0198   28.3595   51.7101 H   0  0  0  0  0  0  0  0  0  0  0  0
   59.4667   27.5009   49.4076 H   0  0  0  0  0  0  0  0  0  0  0  0
   59.7363   30.2960   44.8975 H   0  0  0  0  0  0  0  0  0  0  0  0
   57.4815   32.0414   46.8463 H   0  0  0  0  0  0  0  0  0  0  0  0
   57.9940   31.6621   49.2554 H   0  0  0  0  0  0  0  0  0  0  0  0
  1  2  2  0
  2  3  1  0
  2  4  1  0
  4  5  2  0
  5  6  1  0
  6  7  2  0
  7  8  1  0
  8  9  2  0
  8 10  2  0
  8 11  1  0
 11 12  1  0
 12 13  2  0
 13 14  1  0
 14 15  2  0
 15 16  1  0
 16 17  1  0
 17 18  2  0
 18 19  1  0
 19 20  2  0
 20 21  1  0
 21 22  1  0
 21 23  1  0
 23 24  2  0
 24 25  1  0
 25 26  2  0
 26 27  1  0
 27 28  2  0
 18 29  1  0
 29 30  2  0
 29 31  1  0
 31 32  1  0
 32 33  2  0
 16 34  2  0
  7 35  1  0
 35 36  2  0
 36  4  1  0
 34 12  1  0
 32 17  1  0
 28 19  1  0
 28 23  1  0
  1 37  1  0
  1 38  1  0
  3 39  1  0
  3 40  1  0
  3 41  1  0
  5 42  1  0
  6 43  1  0
 13 44  1  0
 14 45  1  0
 15 46  1  0
 20 47  1  0
 22 48  1  0
 22 49  1  0
 22 50  1  0
 24 51  1  0
 25 52  1  0
 26 53  1  0
 27 54  1  0
 34 55  1  0
 35 56  1  0
 36 57  1  0
M  CHG  2  11  -1  31  -1
M  END
>  <UniqueID>  (55) 
52

>  <SMILES>  (55) 
C=C(C)c1ccc(S(=O)(=O)[N-]c2cccc(C3=C(c4cn(C)c5ccccc45)C(=O)[N-]C3=O)c2)cc1

>  <Energy>  (55) 
136.29040561980537

>  <Genealogy>  (55) 
C=C(C)c1ccc(S(=O)(=O)[N-]c2cccc(C3=C(c4cn(C)c5ccccc45)C(=O)[N-]C3=O)c2)cc1 (protonated)
C=C(C)c1ccc(S(=O)(=O)[N-]c2cccc(C3=C(c4cn(C)c5ccccc45)C(=O)[N-]C3=O)c2)cc1 (3D coordinates assigned)
C=C(C)c1ccc(S(=O)(=O)[N-]c2cccc(C3=C(c4cn(C)c5ccccc45)C(=O)[N-]C3=O)c2)cc1 (nonaromatic ring conformer: 136.29040561980537 kcal/mol)

>  <smiles>  (55) 
C=C(C)c1ccc(S(=O)(=O)Nc2cccc(C3=C(c4cn(C)c5ccccc45)C(=O)NC3=O)c2)cc1

>  <score_type>  (55) 
oracle

>  <origin>  (55) 
adg

>  <m_score__min__energy>  (55) 
-12.34

>  <m_primary>  (55) 
energy

$$$$
56:0
     RDKit          3D

 38 40  0  0  0  0  0  0  0  0999 V2000
   57.5730   31.9020   42.3420 C   0  0  0  0  0  0  0  0  0  0  0  0
   57.6590   31.8240   43.8360 C   0  0  0  0  0  0  0  0  0  0  0  0
   57.2260   30.7840   44.6650 C   0  0  0  0  0  0  0  0  0  0  0  0
   56.5850   29.5280   44.2470 C   0  0  0  0  0  0  0  0  0  0  0  0
   55.3280   29.4420   44.2670 O   0  0  0  0  0  0  0  0  0  0  0  0
   57.3630   28.4450   43.8320 O   0  0  0  0  0  0  0  0  0  0  0  0
   57.3690   27.2400   44.5060 N   0  0  0  0  0  0  0  0  0  0  0  0
   58.0040   27.1390   45.7840 C   0  0  0  0  0  0  0  0  0  0  0  0
   58.5830   28.1800   46.2940 N   0  0  0  0  0  0  0  0  0  0  0  0
   57.9500   25.8430   46.5470 C   0  0  0  0  0  0  0  0  0  0  0  0
   56.7310   25.0440   46.1470 C   0  0  0  0  0  0  0  0  0  0  0  0
   55.4940   25.6750   45.9220 C   0  0  0  0  0  0  0  0  0  0  0  0
   55.3730   27.0580   46.0290 O   0  0  0  0  0  0  0  0  0  0  0  0
   54.4040   24.9320   45.5950 N   0  0  0  0  0  0  0  0  0  0  0  0
   54.4810   23.5820   45.4850 C   0  0  0  0  0  0  0  0  0  0  0  0
   53.4560   22.9180   45.1790 O   0  0  0  0  0  0  0  0  0  0  0  0
   55.6590   22.9490   45.7030 N   0  0  0  0  0  0  0  0  0  0  0  0
   56.7800   23.6420   46.0330 C   0  0  0  0  0  0  0  0  0  0  0  0
   57.8540   23.0160   46.2320 O   0  0  0  0  0  0  0  0  0  0  0  0
   57.4720   31.0770   45.9300 O   0  0  0  0  0  0  0  0  0  0  0  0
   58.0450   32.2560   45.9640 C   0  0  0  0  0  0  0  0  0  0  0  0
   58.4760   32.9550   47.0900 C   0  0  0  0  0  0  0  0  0  0  0  0
   59.0680   34.2150   46.8940 C   0  0  0  0  0  0  0  0  0  0  0  0
   59.2140   34.7430   45.5910 C   0  0  0  0  0  0  0  0  0  0  0  0
   58.7700   34.0140   44.4730 C   0  0  0  0  0  0  0  0  0  0  0  0
   58.1850   32.7660   44.6990 C   0  0  0  0  0  0  0  0  0  0  0  0
   56.7861   32.6157   42.0568 H   0  0  0  0  0  0  0  0  0  0  0  0
   58.5383   32.2390   41.9363 H   0  0  0  0  0  0  0  0  0  0  0  0
   57.3315   30.9085   41.9363 H   0  0  0  0  0  0  0  0  0  0  0  0
   56.9150   26.3960   44.0890 H   0  0  0  0  0  0  0  0  0  0  0  0
   58.4530   29.1370   45.8980 H   0  0  0  0  0  0  0  0  0  0  0  0
   58.8548   25.2566   46.3291 H   0  0  0  0  0  0  0  0  0  0  0  0
   57.8925   26.0655   47.6227 H   0  0  0  0  0  0  0  0  0  0  0  0
   55.1440   27.6250   45.2220 H   0  0  0  0  0  0  0  0  0  0  0  0
   58.3568   32.5345   48.0994 H   0  0  0  0  0  0  0  0  0  0  0  0
   59.4200   34.7939   47.7606 H   0  0  0  0  0  0  0  0  0  0  0  0
   59.6779   35.7304   45.4504 H   0  0  0  0  0  0  0  0  0  0  0  0
   58.8799   34.4137   43.4541 H   0  0  0  0  0  0  0  0  0  0  0  0
  1  2  1  0
  2  3  2  0
  3  4  1  0
  4  5  2  0
  4  6  1  0
  6  7  1  0
  7  8  1  0
  8  9  2  3
  8 10  1  0
 10 11  1  0
 11 12  2  0
 12 13  1  0
 12 14  1  0
 14 15  1  0
 15 16  2  0
 15 17  1  0
 17 18  1  0
 18 19  2  0
  3 20  1  0
 20 21  1  0
 21 22  2  0
 22 23  1  0
 23 24  2  0
 24 25  1  0
 25 26  2  0
 26  2  1  0
 18 11  1  0
 26 21  1  0
  1 27  1  0
  1 28  1  0
  1 29  1  0
  7 30  1  0
  9 31  1  0
 10 32  1  0
 10 33  1  0
 13 34  1  0
 22 35  1  0
 23 36  1  0
 24 37  1  0
 25 38  1  0
M  CHG  2  14  -1  17  -1
M  END
>  <UniqueID>  (56) 
53

>  <SMILES>  (56) 
Cc1c(C(=O)ONC(=N)Cc2c(O)[n-]c(=O)[n-]c2=O)oc2ccccc12

>  <Energy>  (56) 
71.24593134501411

>  <Genealogy>  (56) 
Cc1c(C(=O)ONC(=N)Cc2c(O)[n-]c(=O)[n-]c2=O)oc2ccccc12 (protonated)
Cc1c(C(=O)ONC(=N)Cc2c(O)[n-]c(=O)[n-]c2=O)oc2ccccc12 (3D coordinates assigned)
Cc1c(C(=O)ONC(=N)Cc2c(O)[n-]c(=O)[n-]c2=O)oc2ccccc12 (optimized conformer: 71.24593134501411 kcal/mol)

>  <smiles>  (56) 
Cc1c(C(=O)ONC(=N)Cc2c(O)[nH]c(=O)[nH]c2=O)oc2ccccc12

>  <score_type>  (56) 
oracle

>  <origin>  (56) 
adg

>  <m_score__min__energy>  (56) 
-13.369999999999999

>  <m_primary>  (56) 
energy

$$$$
57:0
     RDKit          3D

 51 54  0  0  0  0  0  0  0  0999 V2000
   59.8370   30.1310   45.2610 C   0  0  0  0  0  0  0  0  0  0  0  0
   59.4910   29.8240   46.5210 C   0  0  0  0  0  0  0  0  0  0  0  0
   58.5760   28.8440   46.9180 C   0  0  0  0  0  0  0  0  0  0  0  0
   57.8990   27.9880   46.1280 C   0  0  0  0  0  0  0  0  0  0  0  0
   57.4700   26.6390   46.5630 C   0  0  0  0  0  0  0  0  0  0  0  0
   56.1280   26.2290   46.4830 C   0  0  0  0  0  0  0  0  0  0  0  0
   55.1510   27.0840   45.9910 O   0  0  0  0  0  0  0  0  0  0  0  0
   55.7780   24.9760   46.8720 N   0  0  0  0  0  0  0  0  0  0  0  0
   56.7090   24.0970   47.3230 C   0  0  0  0  0  0  0  0  0  0  0  0
   56.3610   22.9420   47.6810 O   0  0  0  0  0  0  0  0  0  0  0  0
   58.0150   24.4590   47.3810 N   0  0  0  0  0  0  0  0  0  0  0  0
   58.4170   25.7010   47.0060 C   0  0  0  0  0  0  0  0  0  0  0  0
   59.6390   26.0020   47.0700 O   0  0  0  0  0  0  0  0  0  0  0  0
   58.5560   28.8720   48.3080 C   0  0  0  0  0  0  0  0  0  0  0  0
   59.4370   29.8600   48.6980 C   0  0  0  0  0  0  0  0  0  0  0  0
   59.8450   30.1150   50.1170 C   0  0  0  0  0  0  0  0  0  0  0  0
   60.0020   30.4390   47.6150 N   0  0  0  0  0  0  0  0  0  0  0  0
   61.0610   31.4100   47.6380 C   0  0  0  0  0  0  0  0  0  0  0  0
   62.3660   31.0050   47.3320 C   0  0  0  0  0  0  0  0  0  0  0  0
   63.4070   31.9290   47.3520 C   0  0  0  0  0  0  0  0  0  0  0  0
   63.1360   33.2550   47.6800 C   0  0  0  0  0  0  0  0  0  0  0  0
   61.8650   33.6440   47.9740 N   0  0  0  0  0  0  0  0  0  0  0  0
   60.8220   32.7640   47.9560 C   0  0  0  0  0  0  0  0  0  0  0  0
   59.1970   33.3390   48.3490 S   0  0  0  0  0  0  0  0  0  0  0  0
   59.2340   34.8140   48.6400 O   0  0  0  0  0  0  0  0  0  0  0  0
   58.7080   32.6070   49.5670 O   0  0  0  0  0  0  0  0  0  0  0  0
   58.1320   33.0600   47.0080 N   0  0  0  0  0  0  0  0  0  0  0  0
   58.5030   33.2060   45.6320 C   0  0  0  0  0  0  0  0  0  0  0  0
   59.3720   34.0630   45.3270 O   0  0  0  0  0  0  0  0  0  0  0  0
   57.8970   32.3850   44.5650 C   0  0  0  0  0  0  0  0  0  0  0  0
   58.1340   32.6970   43.2160 C   0  0  0  0  0  0  0  0  0  0  0  0
   57.5570   31.9280   42.2020 C   0  0  0  0  0  0  0  0  0  0  0  0
   56.7270   30.8500   42.5250 C   0  0  0  0  0  0  0  0  0  0  0  0
   56.1660   30.1060   41.5410 F   0  0  0  0  0  0  0  0  0  0  0  0
   56.4690   30.5460   43.8650 C   0  0  0  0  0  0  0  0  0  0  0  0
   57.0470   31.3120   44.8820 C   0  0  0  0  0  0  0  0  0  0  0  0
   60.5727   30.9264   45.0709 H   0  0  0  0  0  0  0  0  0  0  0  0
   59.3849   29.5872   44.4185 H   0  0  0  0  0  0  0  0  0  0  0  0
   57.6517   28.3083   45.1051 H   0  0  0  0  0  0  0  0  0  0  0  0
   57.9544   28.2307   48.9689 H   0  0  0  0  0  0  0  0  0  0  0  0
   59.1120   29.6569   50.7973 H   0  0  0  0  0  0  0  0  0  0  0  0
   60.8373   29.6760   50.2977 H   0  0  0  0  0  0  0  0  0  0  0  0
   59.8853   31.1993   50.2977 H   0  0  0  0  0  0  0  0  0  0  0  0
   62.5690   29.9548   47.0753 H   0  0  0  0  0  0  0  0  0  0  0  0
   64.4333   31.6149   47.1111 H   0  0  0  0  0  0  0  0  0  0  0  0
   63.9528   33.9915   47.7016 H   0  0  0  0  0  0  0  0  0  0  0  0
   61.7010   34.6460   48.2190 H   0  0  0  0  0  0  0  0  0  0  0  0
   58.7770   33.5510   42.9566 H   0  0  0  0  0  0  0  0  0  0  0  0
   57.7560   32.1711   41.1478 H   0  0  0  0  0  0  0  0  0  0  0  0
   55.8102   29.7028   44.1197 H   0  0  0  0  0  0  0  0  0  0  0  0
   56.8354   31.0736   45.9348 H   0  0  0  0  0  0  0  0  0  0  0  0
  1  2  2  0
  2  3  1  0
  3  4  2  3
  4  5  1  0
  5  6  2  0
  6  7  1  0
  6  8  1  0
  8  9  1  0
  9 10  2  0
  9 11  1  0
 11 12  1  0
 12 13  2  0
  3 14  1  0
 14 15  2  0
 15 16  1  0
 15 17  1  0
 17 18  1  0
 18 19  2  0
 19 20  1  0
 20 21  2  0
 21 22  1  0
 22 23  2  0
 23 24  1  0
 24 25  2  0
 24 26  2  0
 24 27  1  0
 27 28  1  0
 28 29  2  0
 28 30  1  0
 30 31  2  0
 31 32  1  0
 32 33  2  0
 33 34  1  0
 33 35  1  0
 35 36  2  0
 17  2  1  0
 23 18  1  0
 36 30  1  0
 12  5  1  0
  1 37  1  0
  1 38  1  0
  4 39  1  0
 14 40  1  0
 16 41  1  0
 16 42  1  0
 16 43  1  0
 19 44  1  0
 20 45  1  0
 21 46  1  0
 22 47  1  0
 31 48  1  0
 32 49  1  0
 35 50  1  0
 36 51  1  0
M  CHG  5   7  -1   8  -1  11  -1  22   1  27  -1
M  END
>  <UniqueID>  (57) 
54

>  <SMILES>  (57) 
C=c1c(=Cc2c([O-])[n-]c(=O)[n-]c2=O)cc(C)n1-c1ccc[nH+]c1S(=O)(=O)[N-]C(=O)c1ccc(F)cc1

>  <Energy>  (57) 
107.63268873589087

>  <Genealogy>  (57) 
C=c1c(=Cc2c([O-])[n-]c(=O)[n-]c2=O)cc(C)n1-c1ccc[nH+]c1S(=O)(=O)[N-]C(=O)c1ccc(F)cc1 (protonated)
C=c1c(=Cc2c([O-])[n-]c(=O)[n-]c2=O)cc(C)n1-c1ccc[nH+]c1S(=O)(=O)[N-]C(=O)c1ccc(F)cc1 (3D coordinates assigned)
C=c1c(=Cc2c([O-])[n-]c(=O)[n-]c2=O)cc(C)n1-c1ccc[nH+]c1S(=O)(=O)[N-]C(=O)c1ccc(F)cc1 (optimized conformer: 107.63268873589087 kcal/mol)

>  <smiles>  (57) 
C=c1c(=Cc2c(O)[nH]c(=O)[nH]c2=O)cc(C)n1-c1cccnc1S(=O)(=O)NC(=O)c1ccc(F)cc1

>  <score_type>  (57) 
oracle

>  <origin>  (57) 
adg

>  <m_score__min__energy>  (57) 
-15.960000000000001

>  <m_primary>  (57) 
energy

$$$$
58:0
     RDKit          3D

 44 46  0  0  0  0  0  0  0  0999 V2000
   57.8880   27.2680   43.0480 C   0  0  0  0  0  0  0  0  0  0  0  0
   57.9730   27.4650   44.3750 C   0  0  0  0  0  0  0  0  0  0  0  0
   57.7300   26.5240   45.3940 C   0  0  0  0  0  0  0  0  0  0  0  0
   57.4460   25.2060   45.3430 C   0  0  0  0  0  0  0  0  0  0  0  0
   56.0930   24.6250   45.2740 C   0  0  0  0  0  0  0  0  0  0  0  0
   54.9610   25.3850   45.6080 C   0  0  0  0  0  0  0  0  0  0  0  0
   55.0910   26.7130   46.0060 O   0  0  0  0  0  0  0  0  0  0  0  0
   53.7260   24.8210   45.5490 N   0  0  0  0  0  0  0  0  0  0  0  0
   53.5620   23.5290   45.1580 C   0  0  0  0  0  0  0  0  0  0  0  0
   52.4090   23.0200   45.1270 O   0  0  0  0  0  0  0  0  0  0  0  0
   54.6400   22.7820   44.8040 N   0  0  0  0  0  0  0  0  0  0  0  0
   55.8960   23.3020   44.8430 C   0  0  0  0  0  0  0  0  0  0  0  0
   56.8750   22.5860   44.5020 O   0  0  0  0  0  0  0  0  0  0  0  0
   57.8650   27.2070   46.5910 C   0  0  0  0  0  0  0  0  0  0  0  0
   58.2150   28.5020   46.2790 C   0  0  0  0  0  0  0  0  0  0  0  0
   58.5280   29.5630   47.2910 C   0  0  0  0  0  0  0  0  0  0  0  0
   58.2680   28.6700   44.9360 N   0  0  0  0  0  0  0  0  0  0  0  0
   58.6700   29.9090   44.2530 C   0  0  0  0  0  0  0  0  0  0  0  0
   57.4590   30.7110   43.8950 C   0  0  0  0  0  0  0  0  0  0  0  0
   56.9820   30.6400   42.7300 O   0  0  0  0  0  0  0  0  0  0  0  0
   56.8500   31.5550   44.8800 N   0  0  0  0  0  0  0  0  0  0  0  0
   57.0020   33.0050   44.8910 C   0  0  0  0  0  0  0  0  0  0  0  0
   58.1020   33.3940   45.8390 C   0  0  0  0  0  0  0  0  0  0  0  0
   58.0550   33.0030   47.1880 C   0  0  0  0  0  0  0  0  0  0  0  0
   59.0580   33.4070   48.0760 C   0  0  0  0  0  0  0  0  0  0  0  0
   60.1080   34.2140   47.6270 C   0  0  0  0  0  0  0  0  0  0  0  0
   61.0750   34.6140   48.4870 F   0  0  0  0  0  0  0  0  0  0  0  0
   60.1580   34.6150   46.2870 C   0  0  0  0  0  0  0  0  0  0  0  0
   59.1530   34.2160   45.3980 C   0  0  0  0  0  0  0  0  0  0  0  0
   58.1056   28.0935   42.3544 H   0  0  0  0  0  0  0  0  0  0  0  0
   57.6008   26.2813   42.6557 H   0  0  0  0  0  0  0  0  0  0  0  0
   58.2950   24.5066   45.3538 H   0  0  0  0  0  0  0  0  0  0  0  0
   57.7201   26.7935   47.6000 H   0  0  0  0  0  0  0  0  0  0  0  0
   58.4065   29.1511   48.3037 H   0  0  0  0  0  0  0  0  0  0  0  0
   59.5650   29.9041   47.1559 H   0  0  0  0  0  0  0  0  0  0  0  0
   57.8421   30.4123   47.1559 H   0  0  0  0  0  0  0  0  0  0  0  0
   59.3145   30.5002   44.9201 H   0  0  0  0  0  0  0  0  0  0  0  0
   59.2189   29.6536   43.3345 H   0  0  0  0  0  0  0  0  0  0  0  0
   57.2523   33.3537   43.8782 H   0  0  0  0  0  0  0  0  0  0  0  0
   56.0591   33.4668   45.2193 H   0  0  0  0  0  0  0  0  0  0  0  0
   57.2256   32.3762   47.5476 H   0  0  0  0  0  0  0  0  0  0  0  0
   59.0205   33.0894   49.1285 H   0  0  0  0  0  0  0  0  0  0  0  0
   60.9876   35.2441   45.9322 H   0  0  0  0  0  0  0  0  0  0  0  0
   59.1861   34.5474   44.3496 H   0  0  0  0  0  0  0  0  0  0  0  0
  1  2  2  0
  2  3  1  0
  3  4  2  3
  4  5  1  0
  5  6  2  0
  6  7  1  0
  6  8  1  0
  8  9  1  0
  9 10  2  0
  9 11  1  0
 11 12  1  0
 12 13  2  0
  3 14  1  0
 14 15  2  0
 15 16  1  0
 15 17  1  0
 17 18  1  0
 18 19  1  0
 19 20  2  0
 19 21  1  0
 21 22  1  0
 22 23  1  0
 23 24  2  0
 24 25  1  0
 25 26  2  0
 26 27  1  0
 26 28  1  0
 28 29  2  0
 17  2  1  0
 29 23  1  0
 12  5  1  0
  1 30  1  0
  1 31  1  0
  4 32  1  0
 14 33  1  0
 16 34  1  0
 16 35  1  0
 16 36  1  0
 18 37  1  0
 18 38  1  0
 22 39  1  0
 22 40  1  0
 24 41  1  0
 25 42  1  0
 28 43  1  0
 29 44  1  0
M  CHG  4   7  -1   8  -1  11  -1  21  -1
M  END
>  <UniqueID>  (58) 
55

>  <SMILES>  (58) 
C=c1c(=Cc2c([O-])[n-]c(=O)[n-]c2=O)cc(C)n1CC(=O)[N-]Cc1ccc(F)cc1

>  <Energy>  (58) 
85.14543830726615

>  <Genealogy>  (58) 
C=c1c(=Cc2c([O-])[n-]c(=O)[n-]c2=O)cc(C)n1CC(=O)[N-]Cc1ccc(F)cc1 (protonated)
C=c1c(=Cc2c([O-])[n-]c(=O)[n-]c2=O)cc(C)n1CC(=O)[N-]Cc1ccc(F)cc1 (3D coordinates assigned)
C=c1c(=Cc2c([O-])[n-]c(=O)[n-]c2=O)cc(C)n1CC(=O)[N-]Cc1ccc(F)cc1 (optimized conformer: 85.14543830726615 kcal/mol)

>  <smiles>  (58) 
C=c1c(=Cc2c(O)[nH]c(=O)[nH]c2=O)cc(C)n1CC(=O)NCc1ccc(F)cc1

>  <score_type>  (58) 
oracle

>  <origin>  (58) 
adg

>  <m_score__min__energy>  (58) 
-17.460000000000001

>  <m_primary>  (58) 
energy

$$$$
59:0
     RDKit          3D

 44 47  0  0  0  0  0  0  0  0999 V2000
   57.3840   24.6400   48.3970 O   0  0  0  0  0  0  0  0  0  0  0  0
   57.2310   24.2680   47.2010 C   0  0  0  0  0  0  0  0  0  0  0  0
   58.3460   23.7570   46.4620 N   0  0  0  0  0  0  0  0  0  0  0  0
   59.2310   24.5880   45.6550 C   0  0  0  0  0  0  0  0  0  0  0  0
   58.6520   25.9680   45.4970 C   0  0  0  0  0  0  0  0  0  0  0  0
   58.6240   26.8600   46.5800 C   0  0  0  0  0  0  0  0  0  0  0  0
   58.1060   28.1490   46.4190 C   0  0  0  0  0  0  0  0  0  0  0  0
   57.6000   28.5600   45.1760 C   0  0  0  0  0  0  0  0  0  0  0  0
   57.0670   29.9250   44.9930 C   0  0  0  0  0  0  0  0  0  0  0  0
   55.8510   30.0680   44.6880 O   0  0  0  0  0  0  0  0  0  0  0  0
   57.8940   31.0880   45.1730 N   0  0  0  0  0  0  0  0  0  0  0  0
   57.4720   32.4300   44.7620 C   0  0  0  0  0  0  0  0  0  0  0  0
   58.4910   33.3090   45.3820 C   0  0  0  0  0  0  0  0  0  0  0  0
   58.5830   34.7000   45.3090 C   0  0  0  0  0  0  0  0  0  0  0  0
   59.6350   35.3390   45.9860 C   0  0  0  0  0  0  0  0  0  0  0  0
   60.5690   34.5820   46.7200 C   0  0  0  0  0  0  0  0  0  0  0  0
   60.4560   33.1850   46.7800 C   0  0  0  0  0  0  0  0  0  0  0  0
   59.4030   32.5710   46.1000 C   0  0  0  0  0  0  0  0  0  0  0  0
   59.0900   31.1250   46.0190 C   0  0  0  0  0  0  0  0  0  0  0  0
   57.6550   27.6760   44.0870 C   0  0  0  0  0  0  0  0  0  0  0  0
   58.1720   26.3880   44.2470 C   0  0  0  0  0  0  0  0  0  0  0  0
   55.9010   24.3690   46.5740 C   0  0  0  0  0  0  0  0  0  0  0  0
   55.1460   23.2280   46.2710 C   0  0  0  0  0  0  0  0  0  0  0  0
   53.8920   23.3760   45.6790 C   0  0  0  0  0  0  0  0  0  0  0  0
   53.4190   24.6590   45.4040 C   0  0  0  0  0  0  0  0  0  0  0  0
   52.2920   24.8220   44.8700 O   0  0  0  0  0  0  0  0  0  0  0  0
   54.1860   25.7350   45.7150 N   0  0  0  0  0  0  0  0  0  0  0  0
   55.3860   25.5950   46.2810 N   0  0  0  0  0  0  0  0  0  0  0  0
   60.2112   24.6602   46.1489 H   0  0  0  0  0  0  0  0  0  0  0  0
   59.3426   24.1310   44.6607 H   0  0  0  0  0  0  0  0  0  0  0  0
   59.0112   26.5439   47.5599 H   0  0  0  0  0  0  0  0  0  0  0  0
   58.0951   28.8445   47.2711 H   0  0  0  0  0  0  0  0  0  0  0  0
   57.4803   32.5280   43.6664 H   0  0  0  0  0  0  0  0  0  0  0  0
   56.4452   32.6737   45.0723 H   0  0  0  0  0  0  0  0  0  0  0  0
   57.8481   35.2827   44.7342 H   0  0  0  0  0  0  0  0  0  0  0  0
   59.7297   36.4341   45.9428 H   0  0  0  0  0  0  0  0  0  0  0  0
   61.3903   35.0883   47.2483 H   0  0  0  0  0  0  0  0  0  0  0  0
   61.1815   32.5865   47.3505 H   0  0  0  0  0  0  0  0  0  0  0  0
   59.9178   30.5676   45.5563 H   0  0  0  0  0  0  0  0  0  0  0  0
   58.9358   30.6612   47.0045 H   0  0  0  0  0  0  0  0  0  0  0  0
   57.2887   27.9994   43.1015 H   0  0  0  0  0  0  0  0  0  0  0  0
   58.2030   25.7000   43.3893 H   0  0  0  0  0  0  0  0  0  0  0  0
   55.5385   22.2257   46.4978 H   0  0  0  0  0  0  0  0  0  0  0  0
   53.2842   22.4930   45.4323 H   0  0  0  0  0  0  0  0  0  0  0  0
  1  2  2  0
  2  3  1  0
  3  4  1  0
  4  5  1  0
  5  6  2  0
  6  7  1  0
  7  8  2  0
  8  9  1  0
  9 10  2  0
  9 11  1  0
 11 12  1  0
 12 13  1  0
 13 14  2  0
 14 15  1  0
 15 16  2  0
 16 17  1  0
 17 18  2  0
 18 19  1  0
  8 20  1  0
 20 21  2  0
  2 22  1  0
 22 23  1  0
 23 24  2  0
 24 25  1  0
 25 26  2  0
 25 27  1  0
 27 28  1  0
 21  5  1  0
 28 22  2  0
 19 11  1  0
 18 13  1  0
  4 29  1  0
  4 30  1  0
  6 31  1  0
  7 32  1  0
 12 33  1  0
 12 34  1  0
 14 35  1  0
 15 36  1  0
 16 37  1  0
 17 38  1  0
 19 39  1  0
 19 40  1  0
 20 41  1  0
 21 42  1  0
 23 43  1  0
 24 44  1  0
M  CHG  2   3  -1  27  -1
M  END
>  <UniqueID>  (59) 
56

>  <SMILES>  (59) 
O=C([N-]Cc1ccc(C(=O)N2Cc3ccccc3C2)cc1)c1ccc(=O)[n-]n1

>  <Energy>  (59) 
61.939331697192486

>  <Genealogy>  (59) 
O=C([N-]Cc1ccc(C(=O)N2Cc3ccccc3C2)cc1)c1ccc(=O)[n-]n1 (protonated)
O=C([N-]Cc1ccc(C(=O)N2Cc3ccccc3C2)cc1)c1ccc(=O)[n-]n1 (3D coordinates assigned)
O=C([N-]Cc1ccc(C(=O)N2Cc3ccccc3C2)cc1)c1ccc(=O)[n-]n1 (nonaromatic ring conformer: 61.939331697192486 kcal/mol)

>  <smiles>  (59) 
O=C(NCc1ccc(C(=O)N2Cc3ccccc3C2)cc1)c1ccc(=O)[nH]n1

>  <score_type>  (59) 
oracle

>  <origin>  (59) 
adg

>  <m_score__min__energy>  (59) 
-12.81

>  <m_primary>  (59) 
energy

$$$$
60:0
     RDKit          3D

 34 36  0  0  0  0  0  0  0  0999 V2000
   59.3591   31.1938   44.5863 H   0  0  0  0  0  0  0  0  0  0  0  0
   58.8440   30.2390   44.7680 C   0  0  0  0  0  0  0  0  0  0  0  0
   58.2182   29.7932   43.9808 H   0  0  0  0  0  0  0  0  0  0  0  0
   58.9790   29.6180   45.9500 C   0  0  0  0  0  0  0  0  0  0  0  0
   58.3950   28.4030   46.3430 C   0  0  0  0  0  0  0  0  0  0  0  0
   57.7500   27.4620   45.6270 C   0  0  0  0  0  0  0  0  0  0  0  0
   57.6074   27.6543   44.5534 H   0  0  0  0  0  0  0  0  0  0  0  0
   57.2200   26.1970   46.1630 C   0  0  0  0  0  0  0  0  0  0  0  0
   55.8940   25.8980   46.3780 C   0  0  0  0  0  0  0  0  0  0  0  0
   54.8140   26.6920   46.0120 O   0  0  0  0  0  0  0  0  0  0  0  0
   55.7720   24.7150   47.0100 N   0  0  0  0  0  0  0  0  0  0  0  0
   57.0560   24.3360   47.1850 C   0  0  0  0  0  0  0  0  0  0  0  0
   57.3800   23.2650   47.7630 O   0  0  0  0  0  0  0  0  0  0  0  0
   57.9580   25.2110   46.7000 N   0  0  0  0  0  0  0  0  0  0  0  0
   59.0000   25.1510   46.7640 H   0  0  0  0  0  0  0  0  0  0  0  0
   58.6050   28.2950   47.7090 C   0  0  0  0  0  0  0  0  0  0  0  0
   58.2391   27.4933   48.3673 H   0  0  0  0  0  0  0  0  0  0  0  0
   59.3610   29.3860   48.0840 C   0  0  0  0  0  0  0  0  0  0  0  0
   59.8150   29.6720   49.4820 C   0  0  0  0  0  0  0  0  0  0  0  0
   59.1069   29.2260   50.1959 H   0  0  0  0  0  0  0  0  0  0  0  0
   60.8145   29.2401   49.6385 H   0  0  0  0  0  0  0  0  0  0  0  0
   59.8571   30.7600   49.6385 H   0  0  0  0  0  0  0  0  0  0  0  0
   59.5930   30.1840   47.0190 N   0  0  0  0  0  0  0  0  0  0  0  0
   60.2910   31.4420   47.0540 C   0  0  0  0  0  0  0  0  0  0  0  0
   61.6880   31.4580   47.1900 C   0  0  0  0  0  0  0  0  0  0  0  0
   62.2423   30.5108   47.2653 H   0  0  0  0  0  0  0  0  0  0  0  0
   62.3770   32.6730   47.2300 C   0  0  0  0  0  0  0  0  0  0  0  0
   63.4715   32.6807   47.3395 H   0  0  0  0  0  0  0  0  0  0  0  0
   61.6770   33.8780   47.1310 C   0  0  0  0  0  0  0  0  0  0  0  0
   62.2209   34.8335   47.1648 H   0  0  0  0  0  0  0  0  0  0  0  0
   60.2860   33.8710   46.9890 C   0  0  0  0  0  0  0  0  0  0  0  0
   59.7381   34.8214   46.9077 H   0  0  0  0  0  0  0  0  0  0  0  0
   59.5890   32.6580   46.9500 C   0  0  0  0  0  0  0  0  0  0  0  0
   57.8440   32.6820   46.7380 Cl  0  0  0  0  0  0  0  0  0  0  0  0
  1  2  1  0
  2  3  1  0
  2  4  2  0
  4  5  1  0
  5  6  2  0
  6  7  1  0
  6  8  1  0
  8  9  2  0
  9 10  1  0
  9 11  1  0
 11 12  1  0
 12 13  2  0
 12 14  1  0
 14 15  1  0
  5 16  1  0
 16 17  1  0
 16 18  2  0
 18 19  1  0
 19 20  1  0
 19 21  1  0
 19 22  1  0
 18 23  1  0
 23 24  1  0
 24 25  2  0
 25 26  1  0
 25 27  1  0
 27 28  1  0
 27 29  2  0
 29 30  1  0
 29 31  1  0
 31 32  1  0
 31 33  2  0
 33 34  1  0
 23  4  1  0
 33 24  1  0
 14  8  1  0
M  CHG  2  10  -1  11  -1
M  END
>  <UniqueID>  (60) 
57

>  <SMILES>  (60) 
C=c1/c(=C\c2[nH]c(=O)[n-]c2[O-])cc(C)n1-c1ccccc1Cl

>  <Energy>  (60) 
112.70403662476913

>  <Genealogy>  (60) 
C=c1c(=Cc2[nH]c(=O)[n-]c2[O-])cc(C)n1-c1ccccc1Cl (protonated)
C=c1/c(=C\c2[nH]c(=O)[n-]c2[O-])cc(C)n1-c1ccccc1Cl (cis-trans isomerization)
C=c1/c(=C\c2[nH]c(=O)[n-]c2[O-])cc(C)n1-c1ccccc1Cl (3D coordinates assigned)
C=c1/c(=C\c2[nH]c(=O)[n-]c2[O-])cc(C)n1-c1ccccc1Cl (optimized conformer: 112.70403662476913 kcal/mol)

>  <smiles>  (60) 
C=c1c(=Cc2[nH]c(=O)[nH]c2O)cc(C)n1-c1ccccc1Cl

>  <score_type>  (60) 
oracle

>  <origin>  (60) 
adg

>  <m_score__min__energy>  (60) 
-14

>  <m_primary>  (60) 
energy

$$$$
61:0
     RDKit          3D

 72 76  0  0  0  0  0  0  0  0999 V2000
   61.7650   30.4140   46.3750 O   0  0  0  0  0  0  0  0  0  0  0  0
   60.9880   30.0670   47.3040 C   0  0  0  0  0  0  0  0  0  0  0  0
   60.9610   30.7800   48.5110 O   0  0  0  0  0  0  0  0  0  0  0  0
   61.8730   31.7810   48.8810 C   0  0  0  0  0  0  0  0  0  0  0  0
   63.2290   31.4810   49.1150 C   0  0  0  0  0  0  0  0  0  0  0  0
   64.1250   32.4880   49.4770 C   0  0  0  0  0  0  0  0  0  0  0  0
   63.6800   33.8050   49.6070 C   0  0  0  0  0  0  0  0  0  0  0  0
   62.3350   34.1140   49.3950 C   0  0  0  0  0  0  0  0  0  0  0  0
   61.4140   33.1050   49.0570 C   0  0  0  0  0  0  0  0  0  0  0  0
   59.9900   33.4540   48.8230 C   0  0  0  0  0  0  0  0  0  0  0  0
   59.2810   33.8270   49.8000 O   0  0  0  0  0  0  0  0  0  0  0  0
   59.3860   33.3450   47.5190 N   0  0  0  0  0  0  0  0  0  0  0  0
   60.1700   33.6000   46.2980 C   0  0  0  0  0  0  0  0  0  0  0  0
   59.3160   34.3340   45.2590 C   0  0  0  0  0  0  0  0  0  0  0  0
   58.0090   33.5690   44.9080 C   0  0  0  0  0  0  0  0  0  0  0  0
   58.1490   32.8310   43.5570 C   0  0  0  0  0  0  0  0  0  0  0  0
   57.8730   31.3530   43.6840 C   0  0  0  0  0  0  0  0  0  0  0  0
   56.6160   30.8290   43.3360 C   0  0  0  0  0  0  0  0  0  0  0  0
   56.3760   29.4550   43.4270 C   0  0  0  0  0  0  0  0  0  0  0  0
   57.3850   28.5930   43.8630 C   0  0  0  0  0  0  0  0  0  0  0  0
   58.6390   29.1050   44.2060 C   0  0  0  0  0  0  0  0  0  0  0  0
   58.8850   30.4800   44.1160 C   0  0  0  0  0  0  0  0  0  0  0  0
   57.5630   32.5990   46.0330 C   0  0  0  0  0  0  0  0  0  0  0  0
   57.9370   33.1210   47.4220 C   0  0  0  0  0  0  0  0  0  0  0  0
   60.0480   28.9430   47.0960 C   0  0  0  0  0  0  0  0  0  0  0  0
   58.6770   29.0930   47.3720 C   0  0  0  0  0  0  0  0  0  0  0  0
   57.7960   28.0220   47.2000 C   0  0  0  0  0  0  0  0  0  0  0  0
   58.2710   26.7850   46.7440 C   0  0  0  0  0  0  0  0  0  0  0  0
   57.1650   25.4270   46.5400 S   0  0  0  0  0  0  0  0  0  0  0  0
   57.2620   24.5100   47.7290 O   0  0  0  0  0  0  0  0  0  0  0  0
   55.7620   25.9560   46.4510 O   0  0  0  0  0  0  0  0  0  0  0  0
   57.5500   24.5330   45.0880 N   0  0  0  0  0  0  0  0  0  0  0  0
   56.3620   24.4570   44.2200 C   0  0  0  0  0  0  0  0  0  0  0  0
   56.6430   23.5600   43.0060 C   0  0  0  0  0  0  0  0  0  0  0  0
   57.0300   22.2660   43.4230 O   0  0  0  0  0  0  0  0  0  0  0  0
   58.2350   22.3480   44.1620 C   0  0  0  0  0  0  0  0  0  0  0  0
   58.0330   23.1840   45.4350 C   0  0  0  0  0  0  0  0  0  0  0  0
   59.6310   26.6340   46.4500 C   0  0  0  0  0  0  0  0  0  0  0  0
   60.5160   27.7020   46.6310 C   0  0  0  0  0  0  0  0  0  0  0  0
   63.5846   30.4452   49.0117 H   0  0  0  0  0  0  0  0  0  0  0  0
   65.1819   32.2440   49.6599 H   0  0  0  0  0  0  0  0  0  0  0  0
   64.3902   34.6005   49.8769 H   0  0  0  0  0  0  0  0  0  0  0  0
   61.9924   35.1547   49.4930 H   0  0  0  0  0  0  0  0  0  0  0  0
   61.0440   34.2181   46.5509 H   0  0  0  0  0  0  0  0  0  0  0  0
   60.4969   32.6381   45.8762 H   0  0  0  0  0  0  0  0  0  0  0  0
   59.0482   35.3231   45.6589 H   0  0  0  0  0  0  0  0  0  0  0  0
   59.9111   34.4153   44.3374 H   0  0  0  0  0  0  0  0  0  0  0  0
   57.2140   34.3232   44.8127 H   0  0  0  0  0  0  0  0  0  0  0  0
   57.4353   33.2644   42.8409 H   0  0  0  0  0  0  0  0  0  0  0  0
   59.1863   32.9525   43.2116 H   0  0  0  0  0  0  0  0  0  0  0  0
   55.8181   31.5028   42.9907 H   0  0  0  0  0  0  0  0  0  0  0  0
   55.3897   29.0513   43.1545 H   0  0  0  0  0  0  0  0  0  0  0  0
   57.1926   27.5124   43.9362 H   0  0  0  0  0  0  0  0  0  0  0  0
   59.4344   28.4262   44.5474 H   0  0  0  0  0  0  0  0  0  0  0  0
   59.8745   30.8784   44.3846 H   0  0  0  0  0  0  0  0  0  0  0  0
   56.4712   32.4747   45.9825 H   0  0  0  0  0  0  0  0  0  0  0  0
   58.0803   31.6404   45.8798 H   0  0  0  0  0  0  0  0  0  0  0  0
   57.4117   34.0700   47.6048 H   0  0  0  0  0  0  0  0  0  0  0  0
   57.6435   32.3722   48.1724 H   0  0  0  0  0  0  0  0  0  0  0  0
   58.2950   30.0618   47.7263 H   0  0  0  0  0  0  0  0  0  0  0  0
   56.7266   28.1503   47.4232 H   0  0  0  0  0  0  0  0  0  0  0  0
   58.3100   25.0500   44.5850 H   0  0  0  0  0  0  0  0  0  0  0  0
   55.5209   24.0391   44.7926 H   0  0  0  0  0  0  0  0  0  0  0  0
   56.1129   25.4684   43.8665 H   0  0  0  0  0  0  0  0  0  0  0  0
   55.7326   23.4852   42.3932 H   0  0  0  0  0  0  0  0  0  0  0  0
   57.4611   24.0032   42.4192 H   0  0  0  0  0  0  0  0  0  0  0  0
   58.5567   21.3342   44.4426 H   0  0  0  0  0  0  0  0  0  0  0  0
   59.0013   22.8315   43.5382 H   0  0  0  0  0  0  0  0  0  0  0  0
   57.2935   22.6886   46.0813 H   0  0  0  0  0  0  0  0  0  0  0  0
   58.9943   23.2720   45.9624 H   0  0  0  0  0  0  0  0  0  0  0  0
   60.0059   25.6704   46.0746 H   0  0  0  0  0  0  0  0  0  0  0  0
   61.5850   27.5698   46.4080 H   0  0  0  0  0  0  0  0  0  0  0  0
  1  2  2  0
  2  3  1  0
  3  4  1  0
  4  5  2  0
  5  6  1  0
  6  7  2  0
  7  8  1  0
  8  9  2  0
  9 10  1  0
 10 11  2  0
 10 12  1  0
 12 13  1  0
 13 14  1  0
 14 15  1  0
 15 16  1  0
 16 17  1  0
 17 18  2  0
 18 19  1  0
 19 20  2  0
 20 21  1  0
 21 22  2  0
 15 23  1  0
 23 24  1  0
  2 25  1  0
 25 26  2  0
 26 27  1  0
 27 28  2  0
 28 29  1  0
 29 30  2  0
 29 31  2  0
 29 32  1  0
 32 33  1  0
 33 34  1  0
 34 35  1  0
 35 36  1  0
 36 37  1  0
 28 38  1  0
 38 39  2  0
  9  4  1  0
 24 12  1  0
 39 25  1  0
 22 17  1  0
 37 32  1  0
  5 40  1  0
  6 41  1  0
  7 42  1  0
  8 43  1  0
 13 44  1  0
 13 45  1  0
 14 46  1  0
 14 47  1  0
 15 48  1  0
 16 49  1  0
 16 50  1  0
 18 51  1  0
 19 52  1  0
 20 53  1  0
 21 54  1  0
 22 55  1  0
 23 56  1  0
 23 57  1  0
 24 58  1  0
 24 59  1  0
 26 60  1  0
 27 61  1  0
 32 62  1  0
 33 63  1  0
 33 64  1  0
 34 65  1  0
 34 66  1  0
 36 67  1  0
 36 68  1  0
 37 69  1  0
 37 70  1  0
 38 71  1  0
 39 72  1  0
M  CHG  1  32   1
M  END
>  <UniqueID>  (61) 
58

>  <SMILES>  (61) 
O=C(Oc1ccccc1C(=O)N1CCC(Cc2ccccc2)CC1)c1ccc(S(=O)(=O)[NH+]2CCOCC2)cc1

>  <Energy>  (61) 
87.7619667653478

>  <Genealogy>  (61) 
O=C(Oc1ccccc1C(=O)N1CCC(Cc2ccccc2)CC1)c1ccc(S(=O)(=O)[NH+]2CCOCC2)cc1 (protonated)
O=C(Oc1ccccc1C(=O)N1CCC(Cc2ccccc2)CC1)c1ccc(S(=O)(=O)[NH+]2CCOCC2)cc1 (3D coordinates assigned)
O=C(Oc1ccccc1C(=O)N1CCC(Cc2ccccc2)CC1)c1ccc(S(=O)(=O)[NH+]2CCOCC2)cc1 (nonaromatic ring conformer: 87.7619667653478 kcal/mol)

>  <smiles>  (61) 
O=C(Oc1ccccc1C(=O)N1CCC(Cc2ccccc2)CC1)c1ccc(S(=O)(=O)N2CCOCC2)cc1

>  <score_type>  (61) 
oracle

>  <origin>  (61) 
adg

>  <m_score__min__energy>  (61) 
-9.8100000000000005

>  <m_primary>  (61) 
energy

$$$$
62:0
     RDKit          3D

 49 51  0  0  0  0  0  0  0  0999 V2000
   58.0060   32.6840   48.0400 C   0  0  0  0  0  0  0  0  0  0  0  0
   58.9760   33.4370   47.2450 N   0  0  0  0  0  0  0  0  0  0  0  0
   58.5760   34.4770   46.5310 N   0  0  0  0  0  0  0  0  0  0  0  0
   59.6500   35.0440   45.9640 C   0  0  0  0  0  0  0  0  0  0  0  0
   60.7770   34.3560   46.3370 C   0  0  0  0  0  0  0  0  0  0  0  0
   60.3370   33.3210   47.1620 C   0  0  0  0  0  0  0  0  0  0  0  0
   61.2500   32.2710   47.8540 C   0  0  0  0  0  0  0  0  0  0  0  0
   60.5390   30.8870   47.8740 C   0  0  0  0  0  0  0  0  0  0  0  0
   61.2230   29.8970   47.0520 N   0  0  0  0  0  0  0  0  0  0  0  0
   60.7190   29.3660   45.8200 C   0  0  0  0  0  0  0  0  0  0  0  0
   61.5390   29.0100   44.9340 O   0  0  0  0  0  0  0  0  0  0  0  0
   59.2730   29.2630   45.5410 C   0  0  0  0  0  0  0  0  0  0  0  0
   58.5630   30.3520   45.0100 C   0  0  0  0  0  0  0  0  0  0  0  0
   57.1920   30.2450   44.7620 C   0  0  0  0  0  0  0  0  0  0  0  0
   56.5170   29.0560   45.0550 C   0  0  0  0  0  0  0  0  0  0  0  0
   55.1540   28.9500   44.8060 O   0  0  0  0  0  0  0  0  0  0  0  0
   57.2130   27.9750   45.6030 C   0  0  0  0  0  0  0  0  0  0  0  0
   58.5850   28.0790   45.8540 C   0  0  0  0  0  0  0  0  0  0  0  0
   62.6420   32.1920   47.1310 C   0  0  0  0  0  0  0  0  0  0  0  0
   63.8390   32.1460   48.0920 C   0  0  0  0  0  0  0  0  0  0  0  0
   63.8790   33.3390   48.9640 N   0  0  0  0  0  0  0  0  0  0  0  0
   65.0130   33.0780   50.2690 S   0  0  0  0  0  0  0  0  0  0  0  0
   64.6750   31.5380   51.0960 C   0  0  0  0  0  0  0  0  0  0  0  0
   64.9240   34.2030   51.2620 O   0  0  0  0  0  0  0  0  0  0  0  0
   66.4080   33.0210   49.7130 O   0  0  0  0  0  0  0  0  0  0  0  0
   62.5530   33.7500   49.4920 C   0  0  0  0  0  0  0  0  0  0  0  0
   61.4950   32.6460   49.3560 C   0  0  0  0  0  0  0  0  0  0  0  0
   58.2081   32.8409   49.1098 H   0  0  0  0  0  0  0  0  0  0  0  0
   56.9895   33.0319   47.8040 H   0  0  0  0  0  0  0  0  0  0  0  0
   58.0910   31.6130   47.8040 H   0  0  0  0  0  0  0  0  0  0  0  0
   59.6309   35.9232   45.3032 H   0  0  0  0  0  0  0  0  0  0  0  0
   61.8146   34.5756   46.0453 H   0  0  0  0  0  0  0  0  0  0  0  0
   60.5058   30.5223   48.9112 H   0  0  0  0  0  0  0  0  0  0  0  0
   59.5286   31.0240   47.4613 H   0  0  0  0  0  0  0  0  0  0  0  0
   59.0881   31.2928   44.7884 H   0  0  0  0  0  0  0  0  0  0  0  0
   56.6429   31.0975   44.3356 H   0  0  0  0  0  0  0  0  0  0  0  0
   56.6810   27.0411   45.8372 H   0  0  0  0  0  0  0  0  0  0  0  0
   59.1270   27.2309   46.2979 H   0  0  0  0  0  0  0  0  0  0  0  0
   62.6597   31.2832   46.5115 H   0  0  0  0  0  0  0  0  0  0  0  0
   62.7455   33.1106   46.5349 H   0  0  0  0  0  0  0  0  0  0  0  0
   63.7589   31.2465   48.7201 H   0  0  0  0  0  0  0  0  0  0  0  0
   64.7617   32.1244   47.4936 H   0  0  0  0  0  0  0  0  0  0  0  0
   64.7087   31.6914   52.1847 H   0  0  0  0  0  0  0  0  0  0  0  0
   63.6765   31.1781   50.8071 H   0  0  0  0  0  0  0  0  0  0  0  0
   65.4310   30.7930   50.8071 H   0  0  0  0  0  0  0  0  0  0  0  0
   62.6614   34.0048   50.5566 H   0  0  0  0  0  0  0  0  0  0  0  0
   62.2120   34.6127   48.9008 H   0  0  0  0  0  0  0  0  0  0  0  0
   61.8391   31.7519   49.8966 H   0  0  0  0  0  0  0  0  0  0  0  0
   60.5500   33.0180   49.7787 H   0  0  0  0  0  0  0  0  0  0  0  0
  1  2  1  0
  2  3  1  0
  3  4  2  0
  4  5  1  0
  5  6  2  0
  6  7  1  0
  7  8  1  0
  8  9  1  0
  9 10  1  0
 10 11  2  0
 10 12  1  0
 12 13  2  0
 13 14  1  0
 14 15  2  0
 15 16  1  0
 15 17  1  0
 17 18  2  0
  7 19  1  0
 19 20  1  0
 20 21  1  0
 21 22  1  0
 22 23  1  0
 22 24  2  0
 22 25  2  0
 21 26  1  0
 26 27  1  0
  6  2  1  0
 27  7  1  0
 18 12  1  0
  1 28  1  0
  1 29  1  0
  1 30  1  0
  4 31  1  0
  5 32  1  0
  8 33  1  0
  8 34  1  0
 13 35  1  0
 14 36  1  0
 17 37  1  0
 18 38  1  0
 19 39  1  0
 19 40  1  0
 20 41  1  0
 20 42  1  0
 23 43  1  0
 23 44  1  0
 23 45  1  0
 26 46  1  0
 26 47  1  0
 27 48  1  0
 27 49  1  0
M  CHG  2   9  -1  16  -1
M  END
>  <UniqueID>  (62) 
59

>  <SMILES>  (62) 
Cn1nccc1C1(C[N-]C(=O)c2ccc([O-])cc2)CCN(S(C)(=O)=O)CC1

>  <Energy>  (62) 
97.10266783074108

>  <Genealogy>  (62) 
Cn1nccc1C1(C[N-]C(=O)c2ccc([O-])cc2)CCN(S(C)(=O)=O)CC1 (protonated)
Cn1nccc1C1(C[N-]C(=O)c2ccc([O-])cc2)CCN(S(C)(=O)=O)CC1 (3D coordinates assigned)
Cn1nccc1C1(C[N-]C(=O)c2ccc([O-])cc2)CCN(S(C)(=O)=O)CC1 (nonaromatic ring conformer: 97.10266783074108 kcal/mol)

>  <smiles>  (62) 
Cn1nccc1C1(CNC(=O)c2ccc(O)cc2)CCN(S(C)(=O)=O)CC1

>  <score_type>  (62) 
oracle

>  <origin>  (62) 
adg

>  <m_score__min__energy>  (62) 
-12.24

>  <m_primary>  (62) 
energy

$$$$
63:0
     RDKit          3D

 31 32  0  0  0  0  0  0  0  0999 V2000
   59.9250   26.7180   46.3980 C   0  0  0  0  0  0  0  0  0  0  0  0
   58.6440   26.9840   46.1240 C   0  0  0  0  0  0  0  0  0  0  0  0
   57.6940   26.1010   46.5290 N   0  0  0  0  0  0  0  0  0  0  0  0
   56.3790   26.3160   46.2850 C   0  0  0  0  0  0  0  0  0  0  0  0
   55.5220   25.4830   46.6790 O   0  0  0  0  0  0  0  0  0  0  0  0
   55.9850   27.4260   45.6140 N   0  0  0  0  0  0  0  0  0  0  0  0
   56.8760   28.3520   45.1640 C   0  0  0  0  0  0  0  0  0  0  0  0
   56.3780   29.4140   44.4960 C   0  0  0  0  0  0  0  0  0  0  0  0
   57.0750   30.6980   44.2840 C   0  0  0  0  0  0  0  0  0  0  0  0
   57.1050   31.2370   42.9910 C   0  0  0  0  0  0  0  0  0  0  0  0
   57.7740   32.4350   42.7430 C   0  0  0  0  0  0  0  0  0  0  0  0
   58.4160   33.1090   43.7830 C   0  0  0  0  0  0  0  0  0  0  0  0
   58.3930   32.5930   45.0850 C   0  0  0  0  0  0  0  0  0  0  0  0
   59.1130   33.3260   46.1500 C   0  0  0  0  0  0  0  0  0  0  0  0
   60.2530   32.9010   46.7180 C   0  0  0  0  0  0  0  0  0  0  0  0
   60.2570   31.6700   47.4640 C   0  0  0  0  0  0  0  0  0  0  0  0
   60.2610   30.6800   48.0630 N   0  0  0  0  0  0  0  0  0  0  0  0
   61.5070   33.5930   46.5500 C   0  0  0  0  0  0  0  0  0  0  0  0
   62.5120   34.1510   46.4170 N   0  0  0  0  0  0  0  0  0  0  0  0
   57.7540   31.3580   45.3350 C   0  0  0  0  0  0  0  0  0  0  0  0
   57.8300   30.7940   46.6130 O   0  0  0  0  0  0  0  0  0  0  0  0
   58.2550   28.1520   45.4350 C   0  0  0  0  0  0  0  0  0  0  0  0
   59.1230   29.0020   45.0900 O   0  0  0  0  0  0  0  0  0  0  0  0
   60.7121   27.4177   46.0804 H   0  0  0  0  0  0  0  0  0  0  0  0
   60.1920   25.7994   46.9411 H   0  0  0  0  0  0  0  0  0  0  0  0
   55.3672   29.3143   44.0738 H   0  0  0  0  0  0  0  0  0  0  0  0
   56.5983   30.7125   42.1675 H   0  0  0  0  0  0  0  0  0  0  0  0
   57.7959   32.8502   41.7246 H   0  0  0  0  0  0  0  0  0  0  0  0
   58.9438   34.0522   43.5787 H   0  0  0  0  0  0  0  0  0  0  0  0
   58.6876   34.2788   46.4981 H   0  0  0  0  0  0  0  0  0  0  0  0
   58.5300   30.1110   46.8730 H   0  0  0  0  0  0  0  0  0  0  0  0
  1  2  2  0
  2  3  1  0
  3  4  1  0
  4  5  2  0
  4  6  1  0
  6  7  1  0
  7  8  2  3
  8  9  1  0
  9 10  2  0
 10 11  1  0
 11 12  2  0
 12 13  1  0
 13 14  1  0
 14 15  2  3
 15 16  1  0
 16 17  3  0
 15 18  1  0
 18 19  3  0
 13 20  2  0
 20 21  1  0
  7 22  1  0
 22 23  2  0
 22  2  1  0
 20  9  1  0
  1 24  1  0
  1 25  1  0
  8 26  1  0
 10 27  1  0
 11 28  1  0
 12 29  1  0
 14 30  1  0
 21 31  1  0
M  CHG  2   3  -1   6  -1
M  END
>  <UniqueID>  (63) 
60

>  <SMILES>  (63) 
C=c1[n-]c(=O)[n-]c(=Cc2cccc(C=C(C#N)C#N)c2O)c1=O

>  <Energy>  (63) 
51.93336948035692

>  <Genealogy>  (63) 
C=c1[n-]c(=O)[n-]c(=Cc2cccc(C=C(C#N)C#N)c2O)c1=O (protonated)
C=c1[n-]c(=O)[n-]c(=Cc2cccc(C=C(C#N)C#N)c2O)c1=O (3D coordinates assigned)
C=c1[n-]c(=O)[n-]c(=Cc2cccc(C=C(C#N)C#N)c2O)c1=O (optimized conformer: 51.93336948035692 kcal/mol)

>  <smiles>  (63) 
C=c1[nH]c(=O)[nH]c(=Cc2cccc(C=C(C#N)C#N)c2O)c1=O

>  <score_type>  (63) 
oracle

>  <origin>  (63) 
adg

>  <m_score__min__energy>  (63) 
-12.08

>  <m_primary>  (63) 
energy

$$$$
64:0
     RDKit          3D

 57 60  0  0  0  0  0  0  0  0999 V2000
   56.0790   30.6670   44.8430 O   0  0  0  0  0  0  0  0  0  0  0  0
   57.0290   30.9430   44.0590 C   0  0  0  0  0  0  0  0  0  0  0  0
   57.3940   32.3790   43.8210 C   0  0  0  0  0  0  0  0  0  0  0  0
   58.6440   32.7590   44.6280 C   0  0  0  0  0  0  0  0  0  0  0  0
   58.3310   33.0060   46.1110 C   0  0  0  0  0  0  0  0  0  0  0  0
   59.5080   32.7330   46.9710 N   0  0  0  0  0  0  0  0  0  0  0  0
   60.6670   33.4270   46.7630 C   0  0  0  0  0  0  0  0  0  0  0  0
   60.7160   34.3250   45.8740 O   0  0  0  0  0  0  0  0  0  0  0  0
   61.8090   33.1340   47.5170 C   0  0  0  0  0  0  0  0  0  0  0  0
   63.0240   33.8070   47.2710 C   0  0  0  0  0  0  0  0  0  0  0  0
   64.1720   33.4770   47.9850 C   0  0  0  0  0  0  0  0  0  0  0  0
   64.1300   32.4640   48.9350 C   0  0  0  0  0  0  0  0  0  0  0  0
   62.9350   31.7910   49.1990 C   0  0  0  0  0  0  0  0  0  0  0  0
   61.7320   32.1360   48.5220 C   0  0  0  0  0  0  0  0  0  0  0  0
   60.5130   31.5340   48.7880 N   0  0  0  0  0  0  0  0  0  0  0  0
   60.2880   30.6170   49.9410 C   0  0  0  0  0  0  0  0  0  0  0  0
   59.1140   31.0650   50.7910 C   0  0  0  0  0  0  0  0  0  0  0  0
   58.0940   30.1460   51.1030 C   0  0  0  0  0  0  0  0  0  0  0  0
   57.0030   30.5320   51.8850 C   0  0  0  0  0  0  0  0  0  0  0  0
   56.9200   31.8350   52.3770 C   0  0  0  0  0  0  0  0  0  0  0  0
   57.9300   32.7560   52.0880 C   0  0  0  0  0  0  0  0  0  0  0  0
   59.0270   32.3810   51.3030 C   0  0  0  0  0  0  0  0  0  0  0  0
   60.2770   33.5830   51.0070 Cl  0  0  0  0  0  0  0  0  0  0  0  0
   59.4400   31.7820   47.9580 C   0  0  0  0  0  0  0  0  0  0  0  0
   58.3720   31.1220   48.1070 O   0  0  0  0  0  0  0  0  0  0  0  0
   57.7580   29.8920   43.4080 N   0  0  0  0  0  0  0  0  0  0  0  0
   57.5970   28.4880   43.7760 C   0  0  0  0  0  0  0  0  0  0  0  0
   58.3200   28.2110   45.0670 C   0  0  0  0  0  0  0  0  0  0  0  0
   59.5810   28.7850   45.3030 C   0  0  0  0  0  0  0  0  0  0  0  0
   60.2440   28.5580   46.5130 C   0  0  0  0  0  0  0  0  0  0  0  0
   59.6500   27.7640   47.5000 C   0  0  0  0  0  0  0  0  0  0  0  0
   60.4840   27.4820   49.0200 Cl  0  0  0  0  0  0  0  0  0  0  0  0
   58.3890   27.1990   47.2770 C   0  0  0  0  0  0  0  0  0  0  0  0
   57.7230   27.4240   46.0670 C   0  0  0  0  0  0  0  0  0  0  0  0
   57.5958   32.5281   42.7500 H   0  0  0  0  0  0  0  0  0  0  0  0
   56.5568   33.0160   44.1424 H   0  0  0  0  0  0  0  0  0  0  0  0
   59.3752   31.9406   44.5529 H   0  0  0  0  0  0  0  0  0  0  0  0
   59.0419   33.6950   44.2089 H   0  0  0  0  0  0  0  0  0  0  0  0
   58.0291   34.0556   46.2420 H   0  0  0  0  0  0  0  0  0  0  0  0
   57.5214   32.3238   46.4097 H   0  0  0  0  0  0  0  0  0  0  0  0
   63.0644   34.5990   46.5087 H   0  0  0  0  0  0  0  0  0  0  0  0
   65.1115   34.0175   47.7975 H   0  0  0  0  0  0  0  0  0  0  0  0
   65.0438   32.1903   49.4827 H   0  0  0  0  0  0  0  0  0  0  0  0
   62.9237   30.9806   49.9428 H   0  0  0  0  0  0  0  0  0  0  0  0
   60.0862   29.6056   49.5585 H   0  0  0  0  0  0  0  0  0  0  0  0
   61.1908   30.6269   50.5693 H   0  0  0  0  0  0  0  0  0  0  0  0
   58.1569   29.1141   50.7273 H   0  0  0  0  0  0  0  0  0  0  0  0
   56.2076   29.8073   52.1134 H   0  0  0  0  0  0  0  0  0  0  0  0
   56.0596   32.1370   52.9922 H   0  0  0  0  0  0  0  0  0  0  0  0
   57.8630   33.7818   52.4795 H   0  0  0  0  0  0  0  0  0  0  0  0
   58.4800   30.1360   42.6910 H   0  0  0  0  0  0  0  0  0  0  0  0
   56.5274   28.2641   43.9016 H   0  0  0  0  0  0  0  0  0  0  0  0
   58.0185   27.8546   42.9816 H   0  0  0  0  0  0  0  0  0  0  0  0
   60.0485   29.4156   44.5324 H   0  0  0  0  0  0  0  0  0  0  0  0
   61.2339   29.0043   46.6891 H   0  0  0  0  0  0  0  0  0  0  0  0
   57.9207   26.5771   48.0541 H   0  0  0  0  0  0  0  0  0  0  0  0
   56.7293   26.9836   45.8979 H   0  0  0  0  0  0  0  0  0  0  0  0
  1  2  2  0
  2  3  1  0
  3  4  1  0
  4  5  1  0
  5  6  1  0
  6  7  1  0
  7  8  2  0
  7  9  1  0
  9 10  2  0
 10 11  1  0
 11 12  2  0
 12 13  1  0
 13 14  2  0
 14 15  1  0
 15 16  1  0
 16 17  1  0
 17 18  2  0
 18 19  1  0
 19 20  2  0
 20 21  1  0
 21 22  2  0
 22 23  1  0
 15 24  1  0
 24 25  2  0
  2 26  1  0
 26 27  1  0
 27 28  1  0
 28 29  2  0
 29 30  1  0
 30 31  2  0
 31 32  1  0
 31 33  1  0
 33 34  2  0
 24  6  1  0
 34 28  1  0
 14  9  1  0
 22 17  1  0
  3 35  1  0
  3 36  1  0
  4 37  1  0
  4 38  1  0
  5 39  1  0
  5 40  1  0
 10 41  1  0
 11 42  1  0
 12 43  1  0
 13 44  1  0
 16 45  1  0
 16 46  1  0
 18 47  1  0
 19 48  1  0
 20 49  1  0
 21 50  1  0
 26 51  1  0
 27 52  1  0
 27 53  1  0
 29 54  1  0
 30 55  1  0
 33 56  1  0
 34 57  1  0
M  END
>  <UniqueID>  (64) 
61

>  <SMILES>  (64) 
O=C(CCCn1c(=O)c2ccccc2n(Cc2ccccc2Cl)c1=O)NCc1ccc(Cl)cc1

>  <Energy>  (64) 
75.275708235269

>  <Genealogy>  (64) 
O=C(CCCn1c(=O)c2ccccc2n(Cc2ccccc2Cl)c1=O)NCc1ccc(Cl)cc1 (3D coordinates assigned)
O=C(CCCn1c(=O)c2ccccc2n(Cc2ccccc2Cl)c1=O)NCc1ccc(Cl)cc1 (optimized conformer: 75.275708235269 kcal/mol)

>  <smiles>  (64) 
O=C(CCCn1c(=O)c2ccccc2n(Cc2ccccc2Cl)c1=O)NCc1ccc(Cl)cc1

>  <score_type>  (64) 
oracle

>  <origin>  (64) 
adg

>  <m_score__min__energy>  (64) 
-9.5500000000000007

>  <m_primary>  (64) 
energy

$$$$
65:0
     RDKit          3D

 51 54  0  0  0  0  0  0  0  0999 V2000
   56.0930   21.7400   48.3460 C   0  0  0  0  0  0  0  0  0  0  0  0
   57.0700   22.3690   47.5250 O   0  0  0  0  0  0  0  0  0  0  0  0
   57.0310   22.4020   46.1230 C   0  0  0  0  0  0  0  0  0  0  0  0
   57.9470   21.6700   45.3400 C   0  0  0  0  0  0  0  0  0  0  0  0
   57.9020   21.7430   43.9460 C   0  0  0  0  0  0  0  0  0  0  0  0
   56.9430   22.5360   43.3150 C   0  0  0  0  0  0  0  0  0  0  0  0
   56.0240   23.2600   44.0770 C   0  0  0  0  0  0  0  0  0  0  0  0
   56.0530   23.1900   45.4800 C   0  0  0  0  0  0  0  0  0  0  0  0
   55.1020   24.0420   46.2760 C   0  0  0  0  0  0  0  0  0  0  0  0
   55.8680   24.9290   47.1380 N   0  0  0  0  0  0  0  0  0  0  0  0
   56.9490   25.7380   46.6750 C   0  0  0  0  0  0  0  0  0  0  0  0
   58.0290   25.7940   47.3240 O   0  0  0  0  0  0  0  0  0  0  0  0
   56.8060   26.5120   45.4030 C   0  0  0  0  0  0  0  0  0  0  0  0
   56.0170   27.7210   45.6200 N   0  0  0  0  0  0  0  0  0  0  0  0
   56.1420   28.9520   44.8950 C   0  0  0  0  0  0  0  0  0  0  0  0
   55.1450   29.7200   44.8390 O   0  0  0  0  0  0  0  0  0  0  0  0
   57.4380   29.3790   44.2550 C   0  0  0  0  0  0  0  0  0  0  0  0
   58.0650   30.4900   45.0070 N   0  0  0  0  0  0  0  0  0  0  0  0
   57.9420   31.7750   44.5220 C   0  0  0  0  0  0  0  0  0  0  0  0
   57.3630   32.0080   43.4250 O   0  0  0  0  0  0  0  0  0  0  0  0
   58.4700   32.8330   45.2560 C   0  0  0  0  0  0  0  0  0  0  0  0
   58.4220   34.1820   44.9680 C   0  0  0  0  0  0  0  0  0  0  0  0
   59.0830   34.8100   46.0100 C   0  0  0  0  0  0  0  0  0  0  0  0
   59.5050   33.8190   46.8790 C   0  0  0  0  0  0  0  0  0  0  0  0
   59.1200   32.6140   46.4060 N   0  0  0  0  0  0  0  0  0  0  0  0
   59.3140   31.3610   46.9070 C   0  0  0  0  0  0  0  0  0  0  0  0
   60.0280   31.1410   48.0990 C   0  0  0  0  0  0  0  0  0  0  0  0
   60.2390   29.8440   48.5610 C   0  0  0  0  0  0  0  0  0  0  0  0
   59.7430   28.7540   47.8470 C   0  0  0  0  0  0  0  0  0  0  0  0
   59.9660   27.4950   48.2970 F   0  0  0  0  0  0  0  0  0  0  0  0
   59.0230   28.9520   46.6680 C   0  0  0  0  0  0  0  0  0  0  0  0
   58.7820   30.2580   46.1750 C   0  0  0  0  0  0  0  0  0  0  0  0
   56.3444   21.9019   49.4046 H   0  0  0  0  0  0  0  0  0  0  0  0
   55.1034   22.1711   48.1341 H   0  0  0  0  0  0  0  0  0  0  0  0
   56.0758   20.6607   48.1341 H   0  0  0  0  0  0  0  0  0  0  0  0
   58.7018   21.0375   45.8301 H   0  0  0  0  0  0  0  0  0  0  0  0
   58.6250   21.1734   43.3436 H   0  0  0  0  0  0  0  0  0  0  0  0
   56.9110   22.5908   42.2168 H   0  0  0  0  0  0  0  0  0  0  0  0
   55.2731   23.8887   43.5762 H   0  0  0  0  0  0  0  0  0  0  0  0
   54.4806   24.6386   45.5920 H   0  0  0  0  0  0  0  0  0  0  0  0
   54.4514   23.4000   46.8880 H   0  0  0  0  0  0  0  0  0  0  0  0
   57.8046   26.7934   45.0374 H   0  0  0  0  0  0  0  0  0  0  0  0
   56.2915   25.8824   44.6621 H   0  0  0  0  0  0  0  0  0  0  0  0
   58.1286   28.5230   44.2370 H   0  0  0  0  0  0  0  0  0  0  0  0
   57.2246   29.7262   43.2333 H   0  0  0  0  0  0  0  0  0  0  0  0
   57.9558   34.6587   44.0931 H   0  0  0  0  0  0  0  0  0  0  0  0
   59.2426   35.8922   46.1253 H   0  0  0  0  0  0  0  0  0  0  0  0
   60.0665   33.9867   47.8099 H   0  0  0  0  0  0  0  0  0  0  0  0
   60.4211   31.9963   48.6682 H   0  0  0  0  0  0  0  0  0  0  0  0
   60.7993   29.6790   49.4931 H   0  0  0  0  0  0  0  0  0  0  0  0
   58.6378   28.0829   46.1145 H   0  0  0  0  0  0  0  0  0  0  0  0
  1  2  1  0
  2  3  1  0
  3  4  2  0
  4  5  1  0
  5  6  2  0
  6  7  1  0
  7  8  2  0
  8  9  1  0
  9 10  1  0
 10 11  1  0
 11 12  2  0
 11 13  1  0
 13 14  1  0
 14 15  1  0
 15 16  2  0
 15 17  1  0
 17 18  1  0
 18 19  1  0
 19 20  2  0
 19 21  1  0
 21 22  2  0
 22 23  1  0
 23 24  2  0
 24 25  1  0
 25 26  1  0
 26 27  2  0
 27 28  1  0
 28 29  2  0
 29 30  1  0
 29 31  1  0
 31 32  2  0
  8  3  1  0
 32 18  1  0
 25 21  1  0
 32 26  1  0
  1 33  1  0
  1 34  1  0
  1 35  1  0
  4 36  1  0
  5 37  1  0
  6 38  1  0
  7 39  1  0
  9 40  1  0
  9 41  1  0
 13 42  1  0
 13 43  1  0
 17 44  1  0
 17 45  1  0
 22 46  1  0
 23 47  1  0
 24 48  1  0
 27 49  1  0
 28 50  1  0
 31 51  1  0
M  CHG  2  10  -1  14  -1
M  END
>  <UniqueID>  (65) 
62

>  <SMILES>  (65) 
COc1ccccc1C[N-]C(=O)C[N-]C(=O)Cn1c(=O)c2cccn2c2ccc(F)cc21

>  <Energy>  (65) 
90.79271657019855

>  <Genealogy>  (65) 
COc1ccccc1C[N-]C(=O)C[N-]C(=O)Cn1c(=O)c2cccn2c2ccc(F)cc21 (protonated)
COc1ccccc1C[N-]C(=O)C[N-]C(=O)Cn1c(=O)c2cccn2c2ccc(F)cc21 (3D coordinates assigned)
COc1ccccc1C[N-]C(=O)C[N-]C(=O)Cn1c(=O)c2cccn2c2ccc(F)cc21 (optimized conformer: 90.79271657019855 kcal/mol)

>  <smiles>  (65) 
COc1ccccc1CNC(=O)CNC(=O)Cn1c(=O)c2cccn2c2ccc(F)cc21

>  <score_type>  (65) 
oracle

>  <origin>  (65) 
adg

>  <m_score__min__energy>  (65) 
-13.69

>  <m_primary>  (65) 
energy

$$$$
66:0
     RDKit          3D

 27 28  0  0  0  0  0  0  0  0999 V2000
   59.1707   27.8696   48.0219 H   0  0  0  0  0  0  0  0  0  0  0  0
   59.6150   26.8850   47.8140 C   0  0  0  0  0  0  0  0  0  0  0  0
   60.7840   26.6230   48.2010 O   0  0  0  0  0  0  0  0  0  0  0  0
   58.8680   25.8940   47.1020 N   0  0  0  0  0  0  0  0  0  0  0  0
   58.2030   26.0890   46.0000 C   0  0  0  0  0  0  0  0  0  0  0  0
   58.0519   25.2330   45.3259 H   0  0  0  0  0  0  0  0  0  0  0  0
   57.6390   27.3990   45.6040 C   0  0  0  0  0  0  0  0  0  0  0  0
   56.2580   27.6280   45.6230 C   0  0  0  0  0  0  0  0  0  0  0  0
   55.3800   26.6250   46.0210 O   0  0  0  0  0  0  0  0  0  0  0  0
   55.7680   28.8320   45.2380 N   0  0  0  0  0  0  0  0  0  0  0  0
   54.7350   28.9940   45.2720 H   0  0  0  0  0  0  0  0  0  0  0  0
   56.5900   29.8260   44.8070 C   0  0  0  0  0  0  0  0  0  0  0  0
   56.0850   30.9330   44.4690 O   0  0  0  0  0  0  0  0  0  0  0  0
   57.9470   29.6250   44.7350 N   0  0  0  0  0  0  0  0  0  0  0  0
   58.8360   30.7150   44.2860 C   0  0  0  0  0  0  0  0  0  0  0  0
   59.8834   30.4148   44.4368 H   0  0  0  0  0  0  0  0  0  0  0  0
   58.6511   30.9122   43.2197 H   0  0  0  0  0  0  0  0  0  0  0  0
   58.5610   31.9660   45.0700 C   0  0  0  0  0  0  0  0  0  0  0  0
   58.7350   32.0540   46.4470 C   0  0  0  0  0  0  0  0  0  0  0  0
   59.0489   31.2369   47.1133 H   0  0  0  0  0  0  0  0  0  0  0  0
   58.3810   33.6290   46.9130 S   0  0  0  0  0  0  0  0  0  0  0  0
   58.0120   34.2140   45.3820 C   0  0  0  0  0  0  0  0  0  0  0  0
   57.7036   35.2419   45.1403 H   0  0  0  0  0  0  0  0  0  0  0  0
   58.1640   33.1750   44.4760 C   0  0  0  0  0  0  0  0  0  0  0  0
   57.9902   33.2872   43.3956 H   0  0  0  0  0  0  0  0  0  0  0  0
   58.4750   28.4210   45.1300 C   0  0  0  0  0  0  0  0  0  0  0  0
   59.7220   28.2250   45.0820 O   0  0  0  0  0  0  0  0  0  0  0  0
  1  2  1  0
  2  3  2  0
  2  4  1  0
  4  5  2  0
  5  6  1  0
  5  7  1  0
  7  8  2  0
  8  9  1  0
  8 10  1  0
 10 11  1  0
 10 12  1  0
 12 13  2  0
 12 14  1  0
 14 15  1  0
 15 16  1  0
 15 17  1  0
 15 18  1  0
 18 19  2  0
 19 20  1  0
 19 21  1  0
 21 22  1  0
 22 23  1  0
 22 24  2  0
 24 25  1  0
 14 26  1  0
 26 27  2  0
 26  7  1  0
 24 18  1  0
M  CHG  1   9  -1
M  END
>  <UniqueID>  (66) 
63

>  <SMILES>  (66) 
O=C/N=C\c1c([O-])[nH]c(=O)n(Cc2ccsc2)c1=O

>  <Energy>  (66) 
64.43238059594012

>  <Genealogy>  (66) 
O=CN=Cc1c([O-])[nH]c(=O)n(Cc2ccsc2)c1=O (protonated)
O=C/N=C\c1c([O-])[nH]c(=O)n(Cc2ccsc2)c1=O (cis-trans isomerization)
O=C/N=C\c1c([O-])[nH]c(=O)n(Cc2ccsc2)c1=O (3D coordinates assigned)
O=C/N=C\c1c([O-])[nH]c(=O)n(Cc2ccsc2)c1=O (optimized conformer: 64.43238059594012 kcal/mol)

>  <smiles>  (66) 
O=CN=Cc1c(O)[nH]c(=O)n(Cc2ccsc2)c1=O

>  <score_type>  (66) 
oracle

>  <origin>  (66) 
adg

>  <m_score__min__energy>  (66) 
-9.6099999999999994

>  <m_primary>  (66) 
energy

$$$$
67:0
     RDKit          3D

 44 46  0  0  0  0  0  0  0  0999 V2000
   57.2810   22.8130   47.5540 N   0  0  0  0  0  0  0  0  0  0  0  0
   57.5000   23.9600   46.7380 C   0  0  0  0  0  0  0  0  0  0  0  0
   58.6570   24.1910   46.2950 O   0  0  0  0  0  0  0  0  0  0  0  0
   56.3790   24.8780   46.4530 C   0  0  0  0  0  0  0  0  0  0  0  0
   55.2050   24.4700   46.6490 O   0  0  0  0  0  0  0  0  0  0  0  0
   56.5680   26.2610   45.9630 C   0  0  0  0  0  0  0  0  0  0  0  0
   57.7730   26.8720   45.6420 C   0  0  0  0  0  0  0  0  0  0  0  0
   57.4520   28.1370   45.1990 C   0  0  0  0  0  0  0  0  0  0  0  0
   58.4270   29.2000   44.7810 C   0  0  0  0  0  0  0  0  0  0  0  0
   58.0420   30.5530   45.3270 C   0  0  0  0  0  0  0  0  0  0  0  0
   56.9810   31.1000   44.9190 O   0  0  0  0  0  0  0  0  0  0  0  0
   58.8970   31.2580   46.2540 N   0  0  0  0  0  0  0  0  0  0  0  0
   60.3200   30.9010   46.3730 C   0  0  0  0  0  0  0  0  0  0  0  0
   61.1330   32.0160   47.0390 C   0  0  0  0  0  0  0  0  0  0  0  0
   60.4860   32.4600   48.2840 N   0  0  0  0  0  0  0  0  0  0  0  0
   61.2850   32.9380   49.3890 C   0  0  0  0  0  0  0  0  0  0  0  0
   62.6090   33.3760   49.1840 C   0  0  0  0  0  0  0  0  0  0  0  0
   63.3760   33.8420   50.2560 C   0  0  0  0  0  0  0  0  0  0  0  0
   62.8340   33.8800   51.5420 C   0  0  0  0  0  0  0  0  0  0  0  0
   63.5800   34.3320   52.5800 F   0  0  0  0  0  0  0  0  0  0  0  0
   61.5220   33.4520   51.7590 C   0  0  0  0  0  0  0  0  0  0  0  0
   60.7500   32.9860   50.6910 C   0  0  0  0  0  0  0  0  0  0  0  0
   59.0190   32.5350   48.3610 C   0  0  0  0  0  0  0  0  0  0  0  0
   58.3740   32.4260   46.9760 C   0  0  0  0  0  0  0  0  0  0  0  0
   56.0760   28.2370   45.2840 C   0  0  0  0  0  0  0  0  0  0  0  0
   55.3180   29.3580   44.9580 O   0  0  0  0  0  0  0  0  0  0  0  0
   55.5300   27.0940   45.7360 N   0  0  0  0  0  0  0  0  0  0  0  0
   56.3620   22.6540   48.0220 H   0  0  0  0  0  0  0  0  0  0  0  0
   58.7792   26.4352   45.7245 H   0  0  0  0  0  0  0  0  0  0  0  0
   59.4265   28.9350   45.1561 H   0  0  0  0  0  0  0  0  0  0  0  0
   58.4222   29.2583   43.6826 H   0  0  0  0  0  0  0  0  0  0  0  0
   60.4082   29.9863   46.9777 H   0  0  0  0  0  0  0  0  0  0  0  0
   60.7192   30.7454   45.3599 H   0  0  0  0  0  0  0  0  0  0  0  0
   62.1404   31.6394   47.2701 H   0  0  0  0  0  0  0  0  0  0  0  0
   61.1935   32.8700   46.3483 H   0  0  0  0  0  0  0  0  0  0  0  0
   63.0420   33.3510   48.1731 H   0  0  0  0  0  0  0  0  0  0  0  0
   64.4090   34.1795   50.0858 H   0  0  0  0  0  0  0  0  0  0  0  0
   61.0955   33.4818   52.7725 H   0  0  0  0  0  0  0  0  0  0  0  0
   59.7164   32.6541   50.8688 H   0  0  0  0  0  0  0  0  0  0  0  0
   58.6523   31.7113   48.9911 H   0  0  0  0  0  0  0  0  0  0  0  0
   58.7470   33.5104   48.7907 H   0  0  0  0  0  0  0  0  0  0  0  0
   57.2850   32.3223   47.0912 H   0  0  0  0  0  0  0  0  0  0  0  0
   58.6104   33.3338   46.4016 H   0  0  0  0  0  0  0  0  0  0  0  0
   55.1740   30.1120   45.6190 H   0  0  0  0  0  0  0  0  0  0  0  0
  1  2  1  0
  2  3  2  0
  2  4  1  0
  4  5  2  0
  4  6  1  0
  6  7  2  0
  7  8  1  0
  8  9  1  0
  9 10  1  0
 10 11  2  0
 10 12  1  0
 12 13  1  0
 13 14  1  0
 14 15  1  0
 15 16  1  0
 16 17  2  0
 17 18  1  0
 18 19  2  0
 19 20  1  0
 19 21  1  0
 21 22  2  0
 15 23  1  0
 23 24  1  0
  8 25  2  0
 25 26  1  0
 25 27  1  0
 27  6  1  0
 24 12  1  0
 22 16  1  0
  1 28  1  0
  7 29  1  0
  9 30  1  0
  9 31  1  0
 13 32  1  0
 13 33  1  0
 14 34  1  0
 14 35  1  0
 17 36  1  0
 18 37  1  0
 21 38  1  0
 22 39  1  0
 23 40  1  0
 23 41  1  0
 24 42  1  0
 24 43  1  0
 26 44  1  0
M  CHG  2   1  -1  27  -1
M  END
>  <UniqueID>  (67) 
64

>  <SMILES>  (67) 
[NH-]C(=O)C(=O)c1cc(CC(=O)N2CCN(c3ccc(F)cc3)CC2)c(O)[n-]1

>  <Energy>  (67) 
74.27252088059018

>  <Genealogy>  (67) 
[NH-]C(=O)C(=O)c1cc(CC(=O)N2CCN(c3ccc(F)cc3)CC2)c(O)[n-]1 (protonated)
[NH-]C(=O)C(=O)c1cc(CC(=O)N2CCN(c3ccc(F)cc3)CC2)c(O)[n-]1 (3D coordinates assigned)
[NH-]C(=O)C(=O)c1cc(CC(=O)N2CCN(c3ccc(F)cc3)CC2)c(O)[n-]1 (nonaromatic ring conformer: 74.27252088059018 kcal/mol)

>  <smiles>  (67) 
NC(=O)C(=O)c1cc(CC(=O)N2CCN(c3ccc(F)cc3)CC2)c(O)[nH]1

>  <score_type>  (67) 
oracle

>  <origin>  (67) 
adg

>  <m_score__min__energy>  (67) 
-12.74

>  <m_primary>  (67) 
energy

$$$$
68:0
     RDKit          3D

 53 56  0  0  0  0  0  0  0  0999 V2000
   62.7960   33.8400   46.3750 C   0  0  0  0  0  0  0  0  0  0  0  0
   62.8200   34.0320   47.8390 N   0  0  0  0  0  0  0  0  0  0  0  0
   63.5820   32.9700   48.5320 C   0  0  0  0  0  0  0  0  0  0  0  0
   62.8980   31.5980   48.4010 C   0  0  0  0  0  0  0  0  0  0  0  0
   61.4400   31.7340   48.4950 N   0  0  0  0  0  0  0  0  0  0  0  0
   60.5860   30.6460   48.0960 C   0  0  0  0  0  0  0  0  0  0  0  0
   60.7210   29.3990   48.7220 C   0  0  0  0  0  0  0  0  0  0  0  0
   59.9910   28.2960   48.2770 C   0  0  0  0  0  0  0  0  0  0  0  0
   59.1100   28.4220   47.1960 C   0  0  0  0  0  0  0  0  0  0  0  0
   58.4200   27.2260   46.6540 C   0  0  0  0  0  0  0  0  0  0  0  0
   57.0220   27.2680   46.5420 C   0  0  0  0  0  0  0  0  0  0  0  0
   56.3510   26.1420   46.0890 C   0  0  0  0  0  0  0  0  0  0  0  0
   55.0970   26.1470   45.9970 O   0  0  0  0  0  0  0  0  0  0  0  0
   57.0500   25.0300   45.7580 N   0  0  0  0  0  0  0  0  0  0  0  0
   58.4030   24.9880   45.8490 C   0  0  0  0  0  0  0  0  0  0  0  0
   59.0000   23.9230   45.5330 O   0  0  0  0  0  0  0  0  0  0  0  0
   59.1050   26.0880   46.2800 N   0  0  0  0  0  0  0  0  0  0  0  0
   60.5750   26.0270   46.3860 C   0  0  0  0  0  0  0  0  0  0  0  0
   58.9510   29.6700   46.5770 C   0  0  0  0  0  0  0  0  0  0  0  0
   59.6630   30.7960   47.0350 C   0  0  0  0  0  0  0  0  0  0  0  0
   59.5390   32.0790   46.3960 N   0  0  0  0  0  0  0  0  0  0  0  0
   58.3910   32.6230   45.7320 C   0  0  0  0  0  0  0  0  0  0  0  0
   57.8290   33.6350   46.2320 O   0  0  0  0  0  0  0  0  0  0  0  0
   57.8050   31.9970   44.5320 C   0  0  0  0  0  0  0  0  0  0  0  0
   58.0720   32.5240   43.2600 C   0  0  0  0  0  0  0  0  0  0  0  0
   57.4970   31.9490   42.1270 C   0  0  0  0  0  0  0  0  0  0  0  0
   56.6430   30.8500   42.2790 C   0  0  0  0  0  0  0  0  0  0  0  0
   56.3810   30.3530   43.5200 N   0  0  0  0  0  0  0  0  0  0  0  0
   56.9410   30.8930   44.6370 C   0  0  0  0  0  0  0  0  0  0  0  0
   60.8620   32.9600   49.0630 C   0  0  0  0  0  0  0  0  0  0  0  0
   61.4530   34.2230   48.3950 C   0  0  0  0  0  0  0  0  0  0  0  0
   62.6625   32.7721   46.1474 H   0  0  0  0  0  0  0  0  0  0  0  0
   61.9626   34.4138   45.9435 H   0  0  0  0  0  0  0  0  0  0  0  0
   63.7450   34.1910   45.9435 H   0  0  0  0  0  0  0  0  0  0  0  0
   64.5886   32.9095   48.0926 H   0  0  0  0  0  0  0  0  0  0  0  0
   63.6319   33.2266   49.6005 H   0  0  0  0  0  0  0  0  0  0  0  0
   63.1574   31.1567   47.4274 H   0  0  0  0  0  0  0  0  0  0  0  0
   63.2461   30.9499   49.2188 H   0  0  0  0  0  0  0  0  0  0  0  0
   61.4095   29.2888   49.5728 H   0  0  0  0  0  0  0  0  0  0  0  0
   60.1082   27.3235   48.7776 H   0  0  0  0  0  0  0  0  0  0  0  0
   56.4671   28.1794   46.8092 H   0  0  0  0  0  0  0  0  0  0  0  0
   60.8659   26.0149   47.4468 H   0  0  0  0  0  0  0  0  0  0  0  0
   60.9404   25.1129   45.8951 H   0  0  0  0  0  0  0  0  0  0  0  0
   61.0149   26.9077   45.8951 H   0  0  0  0  0  0  0  0  0  0  0  0
   58.2630   29.7709   45.7247 H   0  0  0  0  0  0  0  0  0  0  0  0
   58.7372   33.3938   43.1556 H   0  0  0  0  0  0  0  0  0  0  0  0
   57.7116   32.3537   41.1269 H   0  0  0  0  0  0  0  0  0  0  0  0
   56.1824   30.3867   41.3940 H   0  0  0  0  0  0  0  0  0  0  0  0
   56.7168   30.4642   45.6249 H   0  0  0  0  0  0  0  0  0  0  0  0
   59.7732   32.9484   48.9066 H   0  0  0  0  0  0  0  0  0  0  0  0
   61.1014   32.9912   50.1362 H   0  0  0  0  0  0  0  0  0  0  0  0
   60.7852   34.5246   47.5746 H   0  0  0  0  0  0  0  0  0  0  0  0
   61.5337   34.9893   49.1801 H   0  0  0  0  0  0  0  0  0  0  0  0
  1  2  1  0
  2  3  1  0
  3  4  1  0
  4  5  1  0
  5  6  1  0
  6  7  2  0
  7  8  1  0
  8  9  2  0
  9 10  1  0
 10 11  2  0
 11 12  1  0
 12 13  2  0
 12 14  1  0
 14 15  1  0
 15 16  2  0
 15 17  1  0
 17 18  1  0
  9 19  1  0
 19 20  2  0
 20 21  1  0
 21 22  1  0
 22 23  2  0
 22 24  1  0
 24 25  2  0
 25 26  1  0
 26 27  2  0
 27 28  1  0
 28 29  2  0
  5 30  1  0
 30 31  1  0
 31  2  1  0
 20  6  1  0
 29 24  1  0
 17 10  1  0
  1 32  1  0
  1 33  1  0
  1 34  1  0
  3 35  1  0
  3 36  1  0
  4 37  1  0
  4 38  1  0
  7 39  1  0
  8 40  1  0
 11 41  1  0
 18 42  1  0
 18 43  1  0
 18 44  1  0
 19 45  1  0
 25 46  1  0
 26 47  1  0
 27 48  1  0
 29 49  1  0
 30 50  1  0
 30 51  1  0
 31 52  1  0
 31 53  1  0
M  CHG  2  14  -1  21  -1
M  END
>  <UniqueID>  (68) 
65

>  <SMILES>  (68) 
CN1CCN(c2ccc(-c3cc(=O)[n-]c(=O)n3C)cc2[N-]C(=O)c2cccnc2)CC1

>  <Energy>  (68) 
88.6164797155815

>  <Genealogy>  (68) 
CN1CCN(c2ccc(-c3cc(=O)[n-]c(=O)n3C)cc2[N-]C(=O)c2cccnc2)CC1 (protonated)
CN1CCN(c2ccc(-c3cc(=O)[n-]c(=O)n3C)cc2[N-]C(=O)c2cccnc2)CC1 (3D coordinates assigned)
CN1CCN(c2ccc(-c3cc(=O)[n-]c(=O)n3C)cc2[N-]C(=O)c2cccnc2)CC1 (nonaromatic ring conformer: 88.6164797155815 kcal/mol)

>  <smiles>  (68) 
CN1CCN(c2ccc(-c3cc(=O)[nH]c(=O)n3C)cc2NC(=O)c2cccnc2)CC1

>  <score_type>  (68) 
oracle

>  <origin>  (68) 
adg

>  <m_score__min__energy>  (68) 
-11.369999999999999

>  <m_primary>  (68) 
energy

$$$$
69:0
     RDKit          3D

 42 44  0  0  0  0  0  0  0  0999 V2000
   55.1440   29.3150   44.8700 N   0  0  0  0  0  0  0  0  0  0  0  0
   56.7820   29.7920   44.5890 S   0  0  0  0  0  0  0  0  0  0  0  0
   56.9500   31.2360   44.9660 O   0  0  0  0  0  0  0  0  0  0  0  0
   57.0930   29.6150   43.1280 O   0  0  0  0  0  0  0  0  0  0  0  0
   57.8800   28.8060   45.5490 C   0  0  0  0  0  0  0  0  0  0  0  0
   58.3860   27.6050   45.0380 C   0  0  0  0  0  0  0  0  0  0  0  0
   59.2500   26.8240   45.8070 C   0  0  0  0  0  0  0  0  0  0  0  0
   59.6060   27.2300   47.0960 C   0  0  0  0  0  0  0  0  0  0  0  0
   59.0990   28.4290   47.6310 C   0  0  0  0  0  0  0  0  0  0  0  0
   59.4610   28.8530   49.0030 C   0  0  0  0  0  0  0  0  0  0  0  0
   60.5790   28.5260   49.4860 O   0  0  0  0  0  0  0  0  0  0  0  0
   58.5180   29.5790   49.8010 N   0  0  0  0  0  0  0  0  0  0  0  0
   58.6520   30.9240   50.2930 C   0  0  0  0  0  0  0  0  0  0  0  0
   59.6110   31.7940   49.7380 C   0  0  0  0  0  0  0  0  0  0  0  0
   59.7450   33.0980   50.2120 C   0  0  0  0  0  0  0  0  0  0  0  0
   58.9170   33.5590   51.2320 C   0  0  0  0  0  0  0  0  0  0  0  0
   57.9420   32.7230   51.7730 C   0  0  0  0  0  0  0  0  0  0  0  0
   57.7850   31.4000   51.3100 C   0  0  0  0  0  0  0  0  0  0  0  0
   56.7230   30.5470   51.9140 C   0  0  0  0  0  0  0  0  0  0  0  0
   56.8730   29.2970   51.9930 O   0  0  0  0  0  0  0  0  0  0  0  0
   55.5370   31.1540   52.4440 N   0  0  0  0  0  0  0  0  0  0  0  0
   54.1880   30.7080   52.2410 C   0  0  0  0  0  0  0  0  0  0  0  0
   53.2830   31.5720   51.6070 C   0  0  0  0  0  0  0  0  0  0  0  0
   51.9630   31.1700   51.3790 C   0  0  0  0  0  0  0  0  0  0  0  0
   51.0910   32.0150   50.7760 F   0  0  0  0  0  0  0  0  0  0  0  0
   51.5410   29.8970   51.7730 C   0  0  0  0  0  0  0  0  0  0  0  0
   52.4430   29.0200   52.3830 C   0  0  0  0  0  0  0  0  0  0  0  0
   52.0400   27.7750   52.7410 F   0  0  0  0  0  0  0  0  0  0  0  0
   53.7640   29.4190   52.6130 C   0  0  0  0  0  0  0  0  0  0  0  0
   58.2340   29.2130   46.8430 C   0  0  0  0  0  0  0  0  0  0  0  0
   55.1580   28.6070   45.6380 H   0  0  0  0  0  0  0  0  0  0  0  0
   58.1019   27.2759   44.0276 H   0  0  0  0  0  0  0  0  0  0  0  0
   59.6521   25.8857   45.3972 H   0  0  0  0  0  0  0  0  0  0  0  0
   60.2868   26.6085   47.6963 H   0  0  0  0  0  0  0  0  0  0  0  0
   60.2601   31.4410   48.9231 H   0  0  0  0  0  0  0  0  0  0  0  0
   60.5062   33.7639   49.7795 H   0  0  0  0  0  0  0  0  0  0  0  0
   59.0326   34.5850   51.6115 H   0  0  0  0  0  0  0  0  0  0  0  0
   57.2862   33.0999   52.5717 H   0  0  0  0  0  0  0  0  0  0  0  0
   53.6133   32.5713   51.2873 H   0  0  0  0  0  0  0  0  0  0  0  0
   50.4998   29.5854   51.6032 H   0  0  0  0  0  0  0  0  0  0  0  0
   54.4729   28.7233   53.0858 H   0  0  0  0  0  0  0  0  0  0  0  0
   57.8322   30.1540   47.2469 H   0  0  0  0  0  0  0  0  0  0  0  0
  1  2  1  0
  2  3  2  0
  2  4  2  0
  2  5  1  0
  5  6  2  0
  6  7  1  0
  7  8  2  0
  8  9  1  0
  9 10  1  0
 10 11  2  0
 10 12  1  0
 12 13  1  0
 13 14  2  0
 14 15  1  0
 15 16  2  0
 16 17  1  0
 17 18  2  0
 18 19  1  0
 19 20  2  0
 19 21  1  0
 21 22  1  0
 22 23  2  0
 23 24  1  0
 24 25  1  0
 24 26  2  0
 26 27  1  0
 27 28  1  0
 27 29  2  0
  9 30  2  0
 30  5  1  0
 18 13  1  0
 29 22  1  0
  1 31  1  0
  6 32  1  0
  7 33  1  0
  8 34  1  0
 14 35  1  0
 15 36  1  0
 16 37  1  0
 17 38  1  0
 23 39  1  0
 26 40  1  0
 29 41  1  0
 30 42  1  0
M  CHG  3   1  -1  12  -1  21  -1
M  END
>  <UniqueID>  (69) 
66

>  <SMILES>  (69) 
[NH-]S(=O)(=O)c1cccc(C(=O)[N-]c2ccccc2C(=O)[N-]c2cc(F)cc(F)c2)c1

>  <Energy>  (69) 
56.0255242800269

>  <Genealogy>  (69) 
[NH-]S(=O)(=O)c1cccc(C(=O)[N-]c2ccccc2C(=O)[N-]c2cc(F)cc(F)c2)c1 (protonated)
[NH-]S(=O)(=O)c1cccc(C(=O)[N-]c2ccccc2C(=O)[N-]c2cc(F)cc(F)c2)c1 (3D coordinates assigned)
[NH-]S(=O)(=O)c1cccc(C(=O)[N-]c2ccccc2C(=O)[N-]c2cc(F)cc(F)c2)c1 (optimized conformer: 56.0255242800269 kcal/mol)

>  <smiles>  (69) 
NS(=O)(=O)c1cccc(C(=O)Nc2ccccc2C(=O)Nc2cc(F)cc(F)c2)c1

>  <score_type>  (69) 
oracle

>  <origin>  (69) 
adg

>  <m_score__min__energy>  (69) 
-14.18

>  <m_primary>  (69) 
energy

$$$$
70:0
     RDKit          3D

 48 51  0  0  0  0  0  0  0  0999 V2000
   60.2860   33.0342   48.3448 H   0  0  0  0  0  0  0  0  0  0  0  0
   59.8580   32.0260   48.2430 C   0  0  0  0  0  0  0  0  0  0  0  0
   59.2130   31.4940   49.2970 C   0  0  0  0  0  0  0  0  0  0  0  0
   59.0320   32.2800   50.5470 C   0  0  0  0  0  0  0  0  0  0  0  0
   60.0610   33.1120   51.0330 C   0  0  0  0  0  0  0  0  0  0  0  0
   61.0087   33.1887   50.4799 H   0  0  0  0  0  0  0  0  0  0  0  0
   59.8850   33.8400   52.2130 C   0  0  0  0  0  0  0  0  0  0  0  0
   60.6923   34.4894   52.5825 H   0  0  0  0  0  0  0  0  0  0  0  0
   58.6870   33.7450   52.9240 C   0  0  0  0  0  0  0  0  0  0  0  0
   58.5507   34.3196   53.8521 H   0  0  0  0  0  0  0  0  0  0  0  0
   57.6620   32.9200   52.4560 C   0  0  0  0  0  0  0  0  0  0  0  0
   56.7185   32.8455   53.0166 H   0  0  0  0  0  0  0  0  0  0  0  0
   57.8320   32.1880   51.2760 C   0  0  0  0  0  0  0  0  0  0  0  0
   57.0224   31.5363   50.9158 H   0  0  0  0  0  0  0  0  0  0  0  0
   58.5980   30.1230   49.1840 C   0  0  0  0  0  0  0  0  0  0  0  0
   58.5296   29.6729   50.1853 H   0  0  0  0  0  0  0  0  0  0  0  0
   57.5949   30.2174   48.7425 H   0  0  0  0  0  0  0  0  0  0  0  0
   59.4500   29.2300   48.2890 C   0  0  0  0  0  0  0  0  0  0  0  0
   60.4266   29.0596   48.7657 H   0  0  0  0  0  0  0  0  0  0  0  0
   58.9382   28.2676   48.1414 H   0  0  0  0  0  0  0  0  0  0  0  0
   59.6490   29.8800   46.9870 N   0  0  0  0  0  0  0  0  0  0  0  0
   59.5260   29.1150   45.7660 C   0  0  0  0  0  0  0  0  0  0  0  0
   60.3770   29.2530   44.8450 O   0  0  0  0  0  0  0  0  0  0  0  0
   58.4660   28.0980   45.5920 C   0  0  0  0  0  0  0  0  0  0  0  0
   58.8730   26.7570   45.6120 C   0  0  0  0  0  0  0  0  0  0  0  0
   59.9456   26.5129   45.6135 H   0  0  0  0  0  0  0  0  0  0  0  0
   57.9330   25.7320   45.6300 C   0  0  0  0  0  0  0  0  0  0  0  0
   58.2567   24.6807   45.6370 H   0  0  0  0  0  0  0  0  0  0  0  0
   56.5790   26.0510   45.6390 C   0  0  0  0  0  0  0  0  0  0  0  0
   55.8273   25.2490   45.6803 H   0  0  0  0  0  0  0  0  0  0  0  0
   56.1820   27.3490   45.5970 N   0  0  0  0  0  0  0  0  0  0  0  0
   55.1550   27.5460   45.5830 H   0  0  0  0  0  0  0  0  0  0  0  0
   57.0680   28.3880   45.5270 C   0  0  0  0  0  0  0  0  0  0  0  0
   56.5700   29.5920   45.4040 N   0  0  0  0  0  0  0  0  0  0  0  0
   56.9880   30.6820   44.5720 C   0  0  0  0  0  0  0  0  0  0  0  0
   56.9410   30.5370   43.1790 C   0  0  0  0  0  0  0  0  0  0  0  0
   56.5281   29.6181   42.7372 H   0  0  0  0  0  0  0  0  0  0  0  0
   57.4170   31.5560   42.3490 C   0  0  0  0  0  0  0  0  0  0  0  0
   57.3625   31.4447   41.2560 H   0  0  0  0  0  0  0  0  0  0  0  0
   57.9620   32.7160   42.9060 C   0  0  0  0  0  0  0  0  0  0  0  0
   58.3211   33.5239   42.2516 H   0  0  0  0  0  0  0  0  0  0  0  0
   58.0510   32.8500   44.2960 C   0  0  0  0  0  0  0  0  0  0  0  0
   58.7540   34.2960   44.9960 Cl  0  0  0  0  0  0  0  0  0  0  0  0
   57.5840   31.8250   45.1280 C   0  0  0  0  0  0  0  0  0  0  0  0
   57.6844   31.9156   46.2197 H   0  0  0  0  0  0  0  0  0  0  0  0
   60.0220   31.3050   46.9280 C   0  0  0  0  0  0  0  0  0  0  0  0
   61.0759   31.3764   46.6211 H   0  0  0  0  0  0  0  0  0  0  0  0
   59.3438   31.7870   46.2085 H   0  0  0  0  0  0  0  0  0  0  0  0
  1  2  1  0
  2  3  2  0
  3  4  1  0
  4  5  2  0
  5  6  1  0
  5  7  1  0
  7  8  1  0
  7  9  2  0
  9 10  1  0
  9 11  1  0
 11 12  1  0
 11 13  2  0
 13 14  1  0
  3 15  1  0
 15 16  1  0
 15 17  1  0
 15 18  1  0
 18 19  1  0
 18 20  1  0
 18 21  1  0
 21 22  1  0
 22 23  2  0
 22 24  1  0
 24 25  2  0
 25 26  1  0
 25 27  1  0
 27 28  1  0
 27 29  2  0
 29 30  1  0
 29 31  1  0
 31 32  1  0
 31 33  1  0
 33 34  2  0
 34 35  1  0
 35 36  2  0
 36 37  1  0
 36 38  1  0
 38 39  1  0
 38 40  2  0
 40 41  1  0
 40 42  1  0
 42 43  1  0
 42 44  2  0
 44 45  1  0
 21 46  1  0
 46 47  1  0
 46 48  1  0
 46  2  1  0
 13  4  1  0
 33 24  1  0
 44 35  1  0
M  END
>  <UniqueID>  (70) 
67

>  <SMILES>  (70) 
O=C(c1ccc[nH]/c1=N/c1cccc(Cl)c1)N1CC=C(c2ccccc2)CC1

>  <Energy>  (70) 
77.42657470919238

>  <Genealogy>  (70) 
O=C(c1ccc[nH]/c1=N/c1cccc(Cl)c1)N1CC=C(c2ccccc2)CC1 (cis-trans isomerization)
O=C(c1ccc[nH]/c1=N/c1cccc(Cl)c1)N1CC=C(c2ccccc2)CC1 (3D coordinates assigned)
O=C(c1ccc[nH]/c1=N/c1cccc(Cl)c1)N1CC=C(c2ccccc2)CC1 (nonaromatic ring conformer: 77.42657470919238 kcal/mol)

>  <smiles>  (70) 
O=C(c1ccc[nH]c1=Nc1cccc(Cl)c1)N1CC=C(c2ccccc2)CC1

>  <score_type>  (70) 
oracle

>  <origin>  (70) 
adg

>  <m_score__min__energy>  (70) 
-8.9900000000000002

>  <m_primary>  (70) 
energy

$$$$
71:0
     RDKit          3D

 55 58  0  0  0  0  0  0  0  0999 V2000
   57.0590   28.0890   44.8610 C   0  0  0  0  0  0  0  0  0  0  0  0
   57.9200   27.2110   45.4010 C   0  0  0  0  0  0  0  0  0  0  0  0
   57.9160   25.8250   45.2160 C   0  0  0  0  0  0  0  0  0  0  0  0
   57.0670   25.1030   44.4600 C   0  0  0  0  0  0  0  0  0  0  0  0
   55.8050   24.5350   44.9660 C   0  0  0  0  0  0  0  0  0  0  0  0
   55.3970   23.2850   44.6840 N   0  0  0  0  0  0  0  0  0  0  0  0
   54.2000   23.1990   45.3050 C   0  0  0  0  0  0  0  0  0  0  0  0
   53.4980   22.1540   45.2810 O   0  0  0  0  0  0  0  0  0  0  0  0
   53.8120   24.3220   45.9470 N   0  0  0  0  0  0  0  0  0  0  0  0
   54.8310   25.1650   45.7150 C   0  0  0  0  0  0  0  0  0  0  0  0
   54.8340   26.4900   46.1450 O   0  0  0  0  0  0  0  0  0  0  0  0
   59.0050   25.3330   45.9230 C   0  0  0  0  0  0  0  0  0  0  0  0
   59.6130   26.4190   46.5200 C   0  0  0  0  0  0  0  0  0  0  0  0
   60.8470   26.3410   47.3660 C   0  0  0  0  0  0  0  0  0  0  0  0
   58.9610   27.5600   46.2000 N   0  0  0  0  0  0  0  0  0  0  0  0
   59.3180   28.8840   46.6370 C   0  0  0  0  0  0  0  0  0  0  0  0
   58.6750   29.4610   47.7400 C   0  0  0  0  0  0  0  0  0  0  0  0
   59.0120   30.7520   48.1580 C   0  0  0  0  0  0  0  0  0  0  0  0
   60.0090   31.4780   47.4860 C   0  0  0  0  0  0  0  0  0  0  0  0
   60.3620   32.8490   47.9150 C   0  0  0  0  0  0  0  0  0  0  0  0
   59.5540   33.7910   47.6880 O   0  0  0  0  0  0  0  0  0  0  0  0
   61.6020   33.1290   48.5910 N   0  0  0  0  0  0  0  0  0  0  0  0
   61.6510   34.2130   49.5780 C   0  0  0  0  0  0  0  0  0  0  0  0
   62.6960   33.9050   50.6540 C   0  0  0  0  0  0  0  0  0  0  0  0
   63.9800   33.4840   50.0680 N   0  0  0  0  0  0  0  0  0  0  0  0
   65.1310   33.3820   50.9340 C   0  0  0  0  0  0  0  0  0  0  0  0
   66.5270   33.2880   50.3910 C   0  0  0  0  0  0  0  0  0  0  0  0
   64.9710   33.3550   52.1850 O   0  0  0  0  0  0  0  0  0  0  0  0
   64.0870   33.2760   48.6160 C   0  0  0  0  0  0  0  0  0  0  0  0
   62.8520   32.5360   48.0880 C   0  0  0  0  0  0  0  0  0  0  0  0
   60.6360   30.9050   46.3670 C   0  0  0  0  0  0  0  0  0  0  0  0
   60.2950   29.6170   45.9470 C   0  0  0  0  0  0  0  0  0  0  0  0
   57.1595   29.1626   45.0784 H   0  0  0  0  0  0  0  0  0  0  0  0
   56.2533   27.7345   44.2013 H   0  0  0  0  0  0  0  0  0  0  0  0
   57.3302   24.9276   43.4065 H   0  0  0  0  0  0  0  0  0  0  0  0
   54.7490   26.7310   47.1240 H   0  0  0  0  0  0  0  0  0  0  0  0
   59.3217   24.2820   45.9937 H   0  0  0  0  0  0  0  0  0  0  0  0
   60.5645   26.3589   48.4290 H   0  0  0  0  0  0  0  0  0  0  0  0
   61.3846   25.4071   47.1451 H   0  0  0  0  0  0  0  0  0  0  0  0
   61.4979   27.1998   47.1451 H   0  0  0  0  0  0  0  0  0  0  0  0
   57.9012   28.8955   48.2798 H   0  0  0  0  0  0  0  0  0  0  0  0
   58.4935   31.2015   49.0177 H   0  0  0  0  0  0  0  0  0  0  0  0
   61.9172   35.1527   49.0720 H   0  0  0  0  0  0  0  0  0  0  0  0
   60.6641   34.3081   50.0544 H   0  0  0  0  0  0  0  0  0  0  0  0
   62.8605   34.8088   51.2590 H   0  0  0  0  0  0  0  0  0  0  0  0
   62.3157   33.0781   51.2718 H   0  0  0  0  0  0  0  0  0  0  0  0
   67.2424   33.2398   51.2252 H   0  0  0  0  0  0  0  0  0  0  0  0
   66.6205   32.3815   49.7749 H   0  0  0  0  0  0  0  0  0  0  0  0
   66.7412   34.1738   49.7749 H   0  0  0  0  0  0  0  0  0  0  0  0
   64.1659   34.2522   48.1151 H   0  0  0  0  0  0  0  0  0  0  0  0
   64.9812   32.6702   48.4079 H   0  0  0  0  0  0  0  0  0  0  0  0
   62.8515   32.5834   46.9890 H   0  0  0  0  0  0  0  0  0  0  0  0
   62.9016   31.4947   48.4391 H   0  0  0  0  0  0  0  0  0  0  0  0
   61.4005   31.4743   45.8179 H   0  0  0  0  0  0  0  0  0  0  0  0
   60.7945   29.1759   45.0718 H   0  0  0  0  0  0  0  0  0  0  0  0
  1  2  2  0
  2  3  1  0
  3  4  2  3
  4  5  1  0
  5  6  1  0
  6  7  1  0
  7  8  2  0
  7  9  1  0
  9 10  1  0
 10 11  1  0
  3 12  1  0
 12 13  2  0
 13 14  1  0
 13 15  1  0
 15 16  1  0
 16 17  2  0
 17 18  1  0
 18 19  2  0
 19 20  1  0
 20 21  2  0
 20 22  1  0
 22 23  1  0
 23 24  1  0
 24 25  1  0
 25 26  1  0
 26 27  1  0
 26 28  2  0
 25 29  1  0
 29 30  1  0
 19 31  1  0
 31 32  2  0
 15  2  1  0
 32 16  1  0
 10  5  2  0
 30 22  1  0
  1 33  1  0
  1 34  1  0
  4 35  1  0
 11 36  1  0
 12 37  1  0
 14 38  1  0
 14 39  1  0
 14 40  1  0
 17 41  1  0
 18 42  1  0
 23 43  1  0
 23 44  1  0
 24 45  1  0
 24 46  1  0
 27 47  1  0
 27 48  1  0
 27 49  1  0
 29 50  1  0
 29 51  1  0
 30 52  1  0
 30 53  1  0
 31 54  1  0
 32 55  1  0
M  CHG  2   6  -1   9  -1
M  END
>  <UniqueID>  (71) 
68

>  <SMILES>  (71) 
C=c1c(=Cc2[n-]c(=O)[n-]c2O)cc(C)n1-c1ccc(C(=O)N2CCN(C(C)=O)CC2)cc1

>  <Energy>  (71) 
132.87535694430966

>  <Genealogy>  (71) 
C=c1c(=Cc2[n-]c(=O)[n-]c2O)cc(C)n1-c1ccc(C(=O)N2CCN(C(C)=O)CC2)cc1 (protonated)
C=c1c(=Cc2[n-]c(=O)[n-]c2O)cc(C)n1-c1ccc(C(=O)N2CCN(C(C)=O)CC2)cc1 (3D coordinates assigned)
C=c1c(=Cc2[n-]c(=O)[n-]c2O)cc(C)n1-c1ccc(C(=O)N2CCN(C(C)=O)CC2)cc1 (nonaromatic ring conformer: 132.87535694430966 kcal/mol)

>  <smiles>  (71) 
C=c1c(=Cc2[nH]c(=O)[nH]c2O)cc(C)n1-c1ccc(C(=O)N2CCN(C(C)=O)CC2)cc1

>  <score_type>  (71) 
oracle

>  <origin>  (71) 
adg

>  <m_score__min__energy>  (71) 
-13.960000000000001

>  <m_primary>  (71) 
energy

$$$$
72:0
     RDKit          3D

 45 47  0  0  0  0  0  0  0  0999 V2000
   54.8640   22.0630   48.8630 C   0  0  0  0  0  0  0  0  0  0  0  0
   55.0200   22.2900   47.5560 C   0  0  0  0  0  0  0  0  0  0  0  0
   53.9020   22.7210   46.7760 N   0  0  0  0  0  0  0  0  0  0  0  0
   54.0700   22.9690   45.3780 C   0  0  0  0  0  0  0  0  0  0  0  0
   53.0880   23.3400   44.6840 O   0  0  0  0  0  0  0  0  0  0  0  0
   55.3570   22.7990   44.7650 N   0  0  0  0  0  0  0  0  0  0  0  0
   56.4140   22.4180   45.4280 C   0  0  0  0  0  0  0  0  0  0  0  0
   57.7130   22.2400   44.6860 C   0  0  0  0  0  0  0  0  0  0  0  0
   58.8430   22.8570   45.4520 C   0  0  0  0  0  0  0  0  0  0  0  0
   60.0250   22.4840   45.2210 O   0  0  0  0  0  0  0  0  0  0  0  0
   58.5740   23.9240   46.3730 N   0  0  0  0  0  0  0  0  0  0  0  0
   57.9720   25.1920   46.0730 C   0  0  0  0  0  0  0  0  0  0  0  0
   58.7430   26.1580   45.4160 C   0  0  0  0  0  0  0  0  0  0  0  0
   58.1960   27.4040   45.0910 C   0  0  0  0  0  0  0  0  0  0  0  0
   56.8650   27.6980   45.4240 C   0  0  0  0  0  0  0  0  0  0  0  0
   56.2950   29.0150   45.0800 C   0  0  0  0  0  0  0  0  0  0  0  0
   55.1700   29.0670   44.5170 O   0  0  0  0  0  0  0  0  0  0  0  0
   57.0030   30.2380   45.3290 N   0  0  0  0  0  0  0  0  0  0  0  0
   57.1260   31.3310   44.3720 C   0  0  0  0  0  0  0  0  0  0  0  0
   57.8150   32.4930   45.0270 C   0  0  0  0  0  0  0  0  0  0  0  0
   57.8560   32.6020   46.4270 C   0  0  0  0  0  0  0  0  0  0  0  0
   58.4810   33.6970   47.0330 C   0  0  0  0  0  0  0  0  0  0  0  0
   59.0600   34.6990   46.2460 C   0  0  0  0  0  0  0  0  0  0  0  0
   59.6810   35.7840   46.8620 O   0  0  0  0  0  0  0  0  0  0  0  0
   59.0080   34.6030   44.8480 C   0  0  0  0  0  0  0  0  0  0  0  0
   58.3820   33.5100   44.2400 C   0  0  0  0  0  0  0  0  0  0  0  0
   56.0760   26.7140   46.0410 C   0  0  0  0  0  0  0  0  0  0  0  0
   56.6230   25.4680   46.3590 C   0  0  0  0  0  0  0  0  0  0  0  0
   56.3210   22.1140   46.8770 C   0  0  0  0  0  0  0  0  0  0  0  0
   57.3350   21.7150   47.5160 O   0  0  0  0  0  0  0  0  0  0  0  0
   55.7196   21.7312   49.4696 H   0  0  0  0  0  0  0  0  0  0  0  0
   53.8800   22.2078   49.3328 H   0  0  0  0  0  0  0  0  0  0  0  0
   57.9097   21.1660   44.5528 H   0  0  0  0  0  0  0  0  0  0  0  0
   57.6344   22.7351   43.7069 H   0  0  0  0  0  0  0  0  0  0  0  0
   59.7877   25.9356   45.1530 H   0  0  0  0  0  0  0  0  0  0  0  0
   58.8108   28.1549   44.5732 H   0  0  0  0  0  0  0  0  0  0  0  0
   57.7154   30.9957   43.5059 H   0  0  0  0  0  0  0  0  0  0  0  0
   56.1249   31.6395   44.0363 H   0  0  0  0  0  0  0  0  0  0  0  0
   57.3941   31.8220   47.0501 H   0  0  0  0  0  0  0  0  0  0  0  0
   58.5174   33.7706   48.1299 H   0  0  0  0  0  0  0  0  0  0  0  0
   59.1670   36.6240   47.1000 H   0  0  0  0  0  0  0  0  0  0  0  0
   59.4611   35.3901   44.2273 H   0  0  0  0  0  0  0  0  0  0  0  0
   58.3333   33.4462   43.1429 H   0  0  0  0  0  0  0  0  0  0  0  0
   55.0221   26.9249   46.2752 H   0  0  0  0  0  0  0  0  0  0  0  0
   55.9958   24.6999   46.8350 H   0  0  0  0  0  0  0  0  0  0  0  0
  1  2  2  0
  2  3  1  0
  3  4  1  0
  4  5  2  0
  4  6  1  0
  6  7  2  0
  7  8  1  0
  8  9  1  0
  9 10  2  0
  9 11  1  0
 11 12  1  0
 12 13  2  0
 13 14  1  0
 14 15  2  0
 15 16  1  0
 16 17  2  0
 16 18  1  0
 18 19  1  0
 19 20  1  0
 20 21  2  0
 21 22  1  0
 22 23  2  0
 23 24  1  0
 23 25  1  0
 25 26  2  0
 15 27  1  0
 27 28  2  0
  7 29  1  0
 29 30  2  0
 29  2  1  0
 28 12  1  0
 26 20  1  0
  1 31  1  0
  1 32  1  0
  8 33  1  0
  8 34  1  0
 13 35  1  0
 14 36  1  0
 19 37  1  0
 19 38  1  0
 21 39  1  0
 22 40  1  0
 24 41  1  0
 25 42  1  0
 26 43  1  0
 27 44  1  0
 28 45  1  0
M  CHG  3   3  -1  11  -1  18  -1
M  END
>  <UniqueID>  (72) 
69

>  <SMILES>  (72) 
C=C1[N-]C(=O)N=C(CC(=O)[N-]c2ccc(C(=O)[N-]Cc3ccc(O)cc3)cc2)C1=O

>  <Energy>  (72) 
49.914306223231236

>  <Genealogy>  (72) 
C=C1[N-]C(=O)N=C(CC(=O)[N-]c2ccc(C(=O)[N-]Cc3ccc(O)cc3)cc2)C1=O (protonated)
C=C1[N-]C(=O)N=C(CC(=O)[N-]c2ccc(C(=O)[N-]Cc3ccc(O)cc3)cc2)C1=O (3D coordinates assigned)
C=C1[N-]C(=O)N=C(CC(=O)[N-]c2ccc(C(=O)[N-]Cc3ccc(O)cc3)cc2)C1=O (nonaromatic ring conformer: 49.914306223231236 kcal/mol)

>  <smiles>  (72) 
C=C1NC(=O)N=C(CC(=O)Nc2ccc(C(=O)NCc3ccc(O)cc3)cc2)C1=O

>  <score_type>  (72) 
oracle

>  <origin>  (72) 
adg

>  <m_score__min__energy>  (72) 
-13.050000000000001

>  <m_primary>  (72) 
energy

$$$$
73:0
     RDKit          3D

 50 53  0  0  0  0  0  0  0  0999 V2000
   55.2149   27.6203   53.5603 H   0  0  0  0  0  0  0  0  0  0  0  0
   54.4360   28.2780   53.1470 C   0  0  0  0  0  0  0  0  0  0  0  0
   53.4084   27.9048   53.0258 H   0  0  0  0  0  0  0  0  0  0  0  0
   54.7400   29.5380   52.7900 C   0  0  0  0  0  0  0  0  0  0  0  0
   53.8470   30.4770   52.2530 C   0  0  0  0  0  0  0  0  0  0  0  0
   52.5330   30.2920   51.9930 C   0  0  0  0  0  0  0  0  0  0  0  0
   51.9428   29.7584   52.7526 H   0  0  0  0  0  0  0  0  0  0  0  0
   51.8170   30.7430   50.7780 C   0  0  0  0  0  0  0  0  0  0  0  0
   51.7230   30.0700   49.6180 N   0  0  0  0  0  0  0  0  0  0  0  0
   51.0110   30.9000   48.8250 C   0  0  0  0  0  0  0  0  0  0  0  0
   50.7090   30.6110   47.6390 O   0  0  0  0  0  0  0  0  0  0  0  0
   50.6500   32.0640   49.4050 N   0  0  0  0  0  0  0  0  0  0  0  0
   51.1710   31.9500   50.6370 C   0  0  0  0  0  0  0  0  0  0  0  0
   51.0570   32.9290   51.6150 O   0  0  0  0  0  0  0  0  0  0  0  0
   54.5930   31.6250   52.0190 C   0  0  0  0  0  0  0  0  0  0  0  0
   54.2252   32.5701   51.5930 H   0  0  0  0  0  0  0  0  0  0  0  0
   55.8830   31.3530   52.4230 C   0  0  0  0  0  0  0  0  0  0  0  0
   57.0270   32.3150   52.2940 C   0  0  0  0  0  0  0  0  0  0  0  0
   57.3748   32.6075   53.2957 H   0  0  0  0  0  0  0  0  0  0  0  0
   57.8505   31.8340   51.7458 H   0  0  0  0  0  0  0  0  0  0  0  0
   56.6944   33.2088   51.7458 H   0  0  0  0  0  0  0  0  0  0  0  0
   55.9810   30.0880   52.8940 N   0  0  0  0  0  0  0  0  0  0  0  0
   57.2280   29.4510   53.3520 C   0  0  0  0  0  0  0  0  0  0  0  0
   57.6574   30.0454   54.1720 H   0  0  0  0  0  0  0  0  0  0  0  0
   56.9990   28.4327   53.6992 H   0  0  0  0  0  0  0  0  0  0  0  0
   58.2260   29.3670   52.2260 C   0  0  0  0  0  0  0  0  0  0  0  0
   59.4010   28.6140   52.3720 C   0  0  0  0  0  0  0  0  0  0  0  0
   59.5901   28.0707   53.3096 H   0  0  0  0  0  0  0  0  0  0  0  0
   60.3320   28.5510   51.3320 C   0  0  0  0  0  0  0  0  0  0  0  0
   61.8030   27.6170   51.5320 Cl  0  0  0  0  0  0  0  0  0  0  0  0
   60.0990   29.2390   50.1390 C   0  0  0  0  0  0  0  0  0  0  0  0
   60.8377   29.1881   49.3256 H   0  0  0  0  0  0  0  0  0  0  0  0
   58.9250   29.9970   49.9710 C   0  0  0  0  0  0  0  0  0  0  0  0
   58.6810   30.7410   48.7080 C   0  0  0  0  0  0  0  0  0  0  0  0
   58.5150   32.1370   48.7220 C   0  0  0  0  0  0  0  0  0  0  0  0
   58.5672   32.6838   49.6751 H   0  0  0  0  0  0  0  0  0  0  0  0
   58.2840   32.8350   47.5330 C   0  0  0  0  0  0  0  0  0  0  0  0
   58.1578   33.9275   47.5559 H   0  0  0  0  0  0  0  0  0  0  0  0
   58.2120   32.1480   46.3070 C   0  0  0  0  0  0  0  0  0  0  0  0
   57.9800   32.8030   45.0890 O   0  0  0  0  0  0  0  0  0  0  0  0
   57.7200   34.1960   44.9620 C   0  0  0  0  0  0  0  0  0  0  0  0
   57.6360   34.6460   45.9622 H   0  0  0  0  0  0  0  0  0  0  0  0
   58.5444   34.6743   44.4128 H   0  0  0  0  0  0  0  0  0  0  0  0
   56.7786   34.3447   44.4128 H   0  0  0  0  0  0  0  0  0  0  0  0
   58.3770   30.7590   46.2940 C   0  0  0  0  0  0  0  0  0  0  0  0
   58.3229   30.2127   45.3408 H   0  0  0  0  0  0  0  0  0  0  0  0
   58.6100   30.0590   47.4810 C   0  0  0  0  0  0  0  0  0  0  0  0
   58.7387   28.9669   47.4548 H   0  0  0  0  0  0  0  0  0  0  0  0
   57.9920   30.0480   51.0210 C   0  0  0  0  0  0  0  0  0  0  0  0
   57.0663   30.6292   50.8969 H   0  0  0  0  0  0  0  0  0  0  0  0
  1  2  1  0
  2  3  1  0
  2  4  2  0
  4  5  1  0
  5  6  2  0
  6  7  1  0
  6  8  1  0
  8  9  1  0
  9 10  1  0
 10 11  2  0
 10 12  1  0
 12 13  1  0
 13 14  1  0
  5 15  1  0
 15 16  1  0
 15 17  2  0
 17 18  1  0
 18 19  1  0
 18 20  1  0
 18 21  1  0
 17 22  1  0
 22 23  1  0
 23 24  1  0
 23 25  1  0
 23 26  1  0
 26 27  2  0
 27 28  1  0
 27 29  1  0
 29 30  1  0
 29 31  2  0
 31 32  1  0
 31 33  1  0
 33 34  1  0
 34 35  2  0
 35 36  1  0
 35 37  1  0
 37 38  1  0
 37 39  2  0
 39 40  1  0
 40 41  1  0
 41 42  1  0
 41 43  1  0
 41 44  1  0
 39 45  1  0
 45 46  1  0
 45 47  2  0
 47 48  1  0
 33 49  2  0
 49 50  1  0
 22  4  1  0
 49 26  1  0
 13  8  2  0
 47 34  1  0
M  CHG  3   9  -1  12  -1  14  -1
M  END
>  <UniqueID>  (73) 
70

>  <SMILES>  (73) 
C=c1/c(=C/c2[n-]c(=O)[n-]c2[O-])cc(C)n1Cc1cc(Cl)cc(-c2ccc(OC)cc2)c1

>  <Energy>  (73) 
120.05734489980972

>  <Genealogy>  (73) 
C=c1c(=Cc2[n-]c(=O)[n-]c2[O-])cc(C)n1Cc1cc(Cl)cc(-c2ccc(OC)cc2)c1 (protonated)
C=c1/c(=C/c2[n-]c(=O)[n-]c2[O-])cc(C)n1Cc1cc(Cl)cc(-c2ccc(OC)cc2)c1 (cis-trans isomerization)
C=c1/c(=C/c2[n-]c(=O)[n-]c2[O-])cc(C)n1Cc1cc(Cl)cc(-c2ccc(OC)cc2)c1 (3D coordinates assigned)
C=c1/c(=C/c2[n-]c(=O)[n-]c2[O-])cc(C)n1Cc1cc(Cl)cc(-c2ccc(OC)cc2)c1 (optimized conformer: 120.05734489980972 kcal/mol)

>  <smiles>  (73) 
C=c1c(=Cc2[nH]c(=O)[nH]c2O)cc(C)n1Cc1cc(Cl)cc(-c2ccc(OC)cc2)c1

>  <score_type>  (73) 
oracle

>  <origin>  (73) 
adg

>  <m_score__min__energy>  (73) 
-17.09

>  <m_primary>  (73) 
energy

$$$$
74:0
     RDKit          3D

 31 32  0  0  0  0  0  0  0  0999 V2000
   54.6430   25.3540   45.6290 C   0  0  0  0  0  0  0  0  0  0  0  0
   55.3890   26.5590   45.9630 N   0  0  0  0  0  0  0  0  0  0  0  0
   56.7660   26.7730   45.6280 C   0  0  0  0  0  0  0  0  0  0  0  0
   57.4620   25.7950   45.2510 O   0  0  0  0  0  0  0  0  0  0  0  0
   57.3980   28.1000   45.7490 C   0  0  0  0  0  0  0  0  0  0  0  0
   58.6660   28.2130   46.3320 C   0  0  0  0  0  0  0  0  0  0  0  0
   59.2620   29.4290   46.4490 N   0  0  0  0  0  0  0  0  0  0  0  0
   58.6760   30.5740   46.0010 C   0  0  0  0  0  0  0  0  0  0  0  0
   59.3900   31.8640   46.1730 C   0  0  0  0  0  0  0  0  0  0  0  0
   58.7590   33.0880   45.8860 C   0  0  0  0  0  0  0  0  0  0  0  0
   59.4650   34.2810   46.0390 C   0  0  0  0  0  0  0  0  0  0  0  0
   60.7880   34.2550   46.4710 C   0  0  0  0  0  0  0  0  0  0  0  0
   61.3970   33.0270   46.7570 C   0  0  0  0  0  0  0  0  0  0  0  0
   62.8350   32.9800   47.1860 C   0  0  0  0  0  0  0  0  0  0  0  0
   63.2750   31.6520   47.1820 O   0  0  0  0  0  0  0  0  0  0  0  0
   60.6950   31.8680   46.5840 N   0  0  0  0  0  0  0  0  0  0  0  0
   57.4070   30.5020   45.4000 C   0  0  0  0  0  0  0  0  0  0  0  0
   56.7730   29.2620   45.2640 C   0  0  0  0  0  0  0  0  0  0  0  0
   55.6520   29.1980   44.6910 O   0  0  0  0  0  0  0  0  0  0  0  0
   54.3299   24.8483   46.5543 H   0  0  0  0  0  0  0  0  0  0  0  0
   53.7541   25.6245   45.0402 H   0  0  0  0  0  0  0  0  0  0  0  0
   55.2814   24.6789   45.0402 H   0  0  0  0  0  0  0  0  0  0  0  0
   59.1825   27.3131   46.6972 H   0  0  0  0  0  0  0  0  0  0  0  0
   57.7141   33.1041   45.5427 H   0  0  0  0  0  0  0  0  0  0  0  0
   58.9767   35.2417   45.8185 H   0  0  0  0  0  0  0  0  0  0  0  0
   61.3512   35.1927   46.5869 H   0  0  0  0  0  0  0  0  0  0  0  0
   63.4461   33.5718   46.4886 H   0  0  0  0  0  0  0  0  0  0  0  0
   62.9313   33.3973   48.1992 H   0  0  0  0  0  0  0  0  0  0  0  0
   64.2580   31.6880   47.0520 H   0  0  0  0  0  0  0  0  0  0  0  0
   61.1710   30.9590   46.7880 H   0  0  0  0  0  0  0  0  0  0  0  0
   56.9146   31.4167   45.0382 H   0  0  0  0  0  0  0  0  0  0  0  0
  1  2  1  0
  2  3  1  0
  3  4  2  0
  3  5  1  0
  5  6  2  0
  6  7  1  0
  7  8  1  0
  8  9  1  0
  9 10  2  0
 10 11  1  0
 11 12  2  0
 12 13  1  0
 13 14  1  0
 14 15  1  0
 13 16  2  0
  8 17  2  0
 17 18  1  0
 18 19  2  0
 18  5  1  0
 16  9  1  0
  1 20  1  0
  1 21  1  0
  1 22  1  0
  6 23  1  0
 10 24  1  0
 11 25  1  0
 12 26  1  0
 14 27  1  0
 14 28  1  0
 15 29  1  0
 16 30  1  0
 17 31  1  0
M  CHG  3   2  -1   7  -1  16   1
M  END
>  <UniqueID>  (74) 
71

>  <SMILES>  (74) 
C[N-]C(=O)c1c[n-]c(-c2cccc(CO)[nH+]2)cc1=O

>  <Energy>  (74) 
40.44685557972413

>  <Genealogy>  (74) 
C[N-]C(=O)c1c[n-]c(-c2cccc(CO)[nH+]2)cc1=O (protonated)
C[N-]C(=O)c1c[n-]c(-c2cccc(CO)[nH+]2)cc1=O (3D coordinates assigned)
C[N-]C(=O)c1c[n-]c(-c2cccc(CO)[nH+]2)cc1=O (optimized conformer: 40.44685557972413 kcal/mol)

>  <smiles>  (74) 
CNC(=O)c1c[nH]c(-c2cccc(CO)n2)cc1=O

>  <score_type>  (74) 
oracle

>  <origin>  (74) 
adg

>  <m_score__min__energy>  (74) 
-8.0199999999999996

>  <m_primary>  (74) 
energy

$$$$
75:0
     RDKit          3D

 48 51  0  0  0  0  0  0  0  0999 V2000
   54.6050   29.6815   55.7672 H   0  0  0  0  0  0  0  0  0  0  0  0
   53.9680   29.7900   54.8770 C   0  0  0  0  0  0  0  0  0  0  0  0
   52.9140   29.4773   54.9134 H   0  0  0  0  0  0  0  0  0  0  0  0
   54.4770   30.3040   53.7460 C   0  0  0  0  0  0  0  0  0  0  0  0
   53.7990   30.5060   52.5330 C   0  0  0  0  0  0  0  0  0  0  0  0
   52.4880   30.4430   52.2280 C   0  0  0  0  0  0  0  0  0  0  0  0
   51.8128   30.0414   52.9979 H   0  0  0  0  0  0  0  0  0  0  0  0
   51.8800   30.8640   50.9560 C   0  0  0  0  0  0  0  0  0  0  0  0
   51.7540   30.0800   49.8700 N   0  0  0  0  0  0  0  0  0  0  0  0
   51.0220   30.8360   49.0230 C   0  0  0  0  0  0  0  0  0  0  0  0
   50.7020   30.4440   47.8700 O   0  0  0  0  0  0  0  0  0  0  0  0
   50.6510   32.0370   49.5120 N   0  0  0  0  0  0  0  0  0  0  0  0
   51.1900   32.0330   50.7420 C   0  0  0  0  0  0  0  0  0  0  0  0
   51.0500   33.0720   51.6520 O   0  0  0  0  0  0  0  0  0  0  0  0
   54.7650   30.8440   51.6020 C   0  0  0  0  0  0  0  0  0  0  0  0
   54.6038   31.0335   50.5305 H   0  0  0  0  0  0  0  0  0  0  0  0
   55.9680   30.8980   52.2730 C   0  0  0  0  0  0  0  0  0  0  0  0
   57.2680   31.3060   51.6460 C   0  0  0  0  0  0  0  0  0  0  0  0
   57.9995   31.5356   52.4348 H   0  0  0  0  0  0  0  0  0  0  0  0
   57.6479   30.4839   51.0217 H   0  0  0  0  0  0  0  0  0  0  0  0
   57.1100   32.1978   51.0217 H   0  0  0  0  0  0  0  0  0  0  0  0
   55.7980   30.5790   53.5780 N   0  0  0  0  0  0  0  0  0  0  0  0
   56.8640   30.4770   54.5890 C   0  0  0  0  0  0  0  0  0  0  0  0
   57.5304   31.3473   54.4967 H   0  0  0  0  0  0  0  0  0  0  0  0
   56.3976   30.4490   55.5848 H   0  0  0  0  0  0  0  0  0  0  0  0
   57.6730   29.2160   54.4050 C   0  0  0  0  0  0  0  0  0  0  0  0
   57.0360   27.9640   54.4040 C   0  0  0  0  0  0  0  0  0  0  0  0
   55.9441   27.9069   54.5246 H   0  0  0  0  0  0  0  0  0  0  0  0
   57.7790   26.7910   54.2510 C   0  0  0  0  0  0  0  0  0  0  0  0
   57.2669   25.8176   54.2313 H   0  0  0  0  0  0  0  0  0  0  0  0
   59.1780   26.8480   54.1220 C   0  0  0  0  0  0  0  0  0  0  0  0
   59.9640   25.6560   53.9400 N   0  0  0  0  0  0  0  0  0  0  0  0
   59.5680   24.7500   54.2800 H   0  0  0  0  0  0  0  0  0  0  0  0
   61.2980   25.6430   53.4080 C   0  0  0  0  0  0  0  0  0  0  0  0
   62.3690   26.0130   54.2350 C   0  0  0  0  0  0  0  0  0  0  0  0
   62.1774   26.3182   55.2743 H   0  0  0  0  0  0  0  0  0  0  0  0
   63.6780   25.9960   53.7460 C   0  0  0  0  0  0  0  0  0  0  0  0
   64.5114   26.2982   54.3973 H   0  0  0  0  0  0  0  0  0  0  0  0
   63.9300   25.5960   52.4320 C   0  0  0  0  0  0  0  0  0  0  0  0
   64.9599   25.5933   52.0456 H   0  0  0  0  0  0  0  0  0  0  0  0
   62.8730   25.1990   51.6080 C   0  0  0  0  0  0  0  0  0  0  0  0
   63.0735   24.8785   50.5750 H   0  0  0  0  0  0  0  0  0  0  0  0
   61.5610   25.2080   52.0930 C   0  0  0  0  0  0  0  0  0  0  0  0
   60.5300   24.7620   51.2720 O   0  0  0  0  0  0  0  0  0  0  0  0
   59.8130   28.0980   54.1190 C   0  0  0  0  0  0  0  0  0  0  0  0
   60.9045   28.1558   53.9953 H   0  0  0  0  0  0  0  0  0  0  0  0
   59.0690   29.2710   54.2720 C   0  0  0  0  0  0  0  0  0  0  0  0
   59.5812   30.2443   54.2883 H   0  0  0  0  0  0  0  0  0  0  0  0
  1  2  1  0
  2  3  1  0
  2  4  2  0
  4  5  1  0
  5  6  2  0
  6  7  1  0
  6  8  1  0
  8  9  1  0
  9 10  1  0
 10 11  2  0
 10 12  1  0
 12 13  1  0
 13 14  1  0
  5 15  1  0
 15 16  1  0
 15 17  2  0
 17 18  1  0
 18 19  1  0
 18 20  1  0
 18 21  1  0
 17 22  1  0
 22 23  1  0
 23 24  1  0
 23 25  1  0
 23 26  1  0
 26 27  2  0
 27 28  1  0
 27 29  1  0
 29 30  1  0
 29 31  2  0
 31 32  1  0
 32 33  1  0
 32 34  1  0
 34 35  2  0
 35 36  1  0
 35 37  1  0
 37 38  1  0
 37 39  2  0
 39 40  1  0
 39 41  1  0
 41 42  1  0
 41 43  2  0
 43 44  1  0
 31 45  1  0
 45 46  1  0
 45 47  2  0
 47 48  1  0
 22  4  1  0
 47 26  1  0
 13  8  2  0
 43 34  1  0
M  CHG  4   9  -1  12  -1  14  -1  44  -1
M  END
>  <UniqueID>  (75) 
72

>  <SMILES>  (75) 
C=c1/c(=C\c2[n-]c(=O)[n-]c2[O-])cc(C)n1Cc1ccc(Nc2ccccc2[O-])cc1

>  <Energy>  (75) 
127.1544663770639

>  <Genealogy>  (75) 
C=c1c(=Cc2[n-]c(=O)[n-]c2[O-])cc(C)n1Cc1ccc(Nc2ccccc2[O-])cc1 (protonated)
C=c1/c(=C\c2[n-]c(=O)[n-]c2[O-])cc(C)n1Cc1ccc(Nc2ccccc2[O-])cc1 (cis-trans isomerization)
C=c1/c(=C\c2[n-]c(=O)[n-]c2[O-])cc(C)n1Cc1ccc(Nc2ccccc2[O-])cc1 (3D coordinates assigned)
C=c1/c(=C\c2[n-]c(=O)[n-]c2[O-])cc(C)n1Cc1ccc(Nc2ccccc2[O-])cc1 (optimized conformer: 127.1544663770639 kcal/mol)

>  <smiles>  (75) 
C=c1c(=Cc2[nH]c(=O)[nH]c2O)cc(C)n1Cc1ccc(Nc2ccccc2O)cc1

>  <score_type>  (75) 
oracle

>  <origin>  (75) 
adg

>  <m_score__min__energy>  (75) 
-18.329999999999998

>  <m_primary>  (75) 
energy

$$$$
76:0
     RDKit          3D

 34 36  0  0  0  0  0  0  0  0999 V2000
   54.8050   26.3580   45.9950 N   0  0  0  0  0  0  0  0  0  0  0  0
   55.9990   25.1110   46.0430 S   0  0  0  0  0  0  0  0  0  0  0  0
   55.9440   24.3130   44.7700 O   0  0  0  0  0  0  0  0  0  0  0  0
   55.7240   24.1940   47.2020 O   0  0  0  0  0  0  0  0  0  0  0  0
   57.5930   25.8360   46.2250 C   0  0  0  0  0  0  0  0  0  0  0  0
   58.7380   25.0300   46.2410 C   0  0  0  0  0  0  0  0  0  0  0  0
   60.0020   25.6100   46.3620 C   0  0  0  0  0  0  0  0  0  0  0  0
   60.1310   26.9970   46.4710 C   0  0  0  0  0  0  0  0  0  0  0  0
   58.9910   27.8190   46.4660 C   0  0  0  0  0  0  0  0  0  0  0  0
   59.1310   29.2890   46.5710 C   0  0  0  0  0  0  0  0  0  0  0  0
   59.8800   29.7770   47.4600 O   0  0  0  0  0  0  0  0  0  0  0  0
   58.4170   30.1760   45.6880 N   0  0  0  0  0  0  0  0  0  0  0  0
   57.5450   29.6080   44.6460 C   0  0  0  0  0  0  0  0  0  0  0  0
   56.2930   30.4210   44.4840 C   0  0  0  0  0  0  0  0  0  0  0  0
   55.2550   29.8910   44.0090 O   0  0  0  0  0  0  0  0  0  0  0  0
   56.3000   31.8140   44.7920 N   0  0  0  0  0  0  0  0  0  0  0  0
   57.4390   32.4170   45.4080 C   0  0  0  0  0  0  0  0  0  0  0  0
   57.4840   33.8050   45.5810 C   0  0  0  0  0  0  0  0  0  0  0  0
   58.5970   34.3980   46.1850 C   0  0  0  0  0  0  0  0  0  0  0  0
   59.6640   33.6070   46.6160 C   0  0  0  0  0  0  0  0  0  0  0  0
   59.6200   32.2180   46.4540 C   0  0  0  0  0  0  0  0  0  0  0  0
   58.5000   31.6100   45.8550 C   0  0  0  0  0  0  0  0  0  0  0  0
   57.7230   27.2280   46.3260 C   0  0  0  0  0  0  0  0  0  0  0  0
   55.1510   27.0860   45.3310 H   0  0  0  0  0  0  0  0  0  0  0  0
   58.6412   23.9374   46.1580 H   0  0  0  0  0  0  0  0  0  0  0  0
   60.8990   24.9733   46.3716 H   0  0  0  0  0  0  0  0  0  0  0  0
   61.1302   27.4480   46.5612 H   0  0  0  0  0  0  0  0  0  0  0  0
   58.0899   29.5938   43.6905 H   0  0  0  0  0  0  0  0  0  0  0  0
   57.2621   28.5882   44.9460 H   0  0  0  0  0  0  0  0  0  0  0  0
   56.6441   34.4292   45.2420 H   0  0  0  0  0  0  0  0  0  0  0  0
   58.6321   35.4890   46.3208 H   0  0  0  0  0  0  0  0  0  0  0  0
   60.5414   34.0772   47.0841 H   0  0  0  0  0  0  0  0  0  0  0  0
   60.4628   31.5991   46.7956 H   0  0  0  0  0  0  0  0  0  0  0  0
   56.8255   27.8633   46.2955 H   0  0  0  0  0  0  0  0  0  0  0  0
  1  2  1  0
  2  3  2  0
  2  4  2  0
  2  5  1  0
  5  6  2  0
  6  7  1  0
  7  8  2  0
  8  9  1  0
  9 10  1  0
 10 11  2  0
 10 12  1  0
 12 13  1  0
 13 14  1  0
 14 15  2  0
 14 16  1  0
 16 17  1  0
 17 18  2  0
 18 19  1  0
 19 20  2  0
 20 21  1  0
 21 22  2  0
  9 23  2  0
 23  5  1  0
 22 12  1  0
 22 17  1  0
  1 24  1  0
  6 25  1  0
  7 26  1  0
  8 27  1  0
 13 28  1  0
 13 29  1  0
 18 30  1  0
 19 31  1  0
 20 32  1  0
 21 33  1  0
 23 34  1  0
M  CHG  2   1  -1  16  -1
M  END
>  <UniqueID>  (76) 
73

>  <SMILES>  (76) 
[NH-]S(=O)(=O)c1cccc(C(=O)N2CC(=O)[N-]c3ccccc32)c1

>  <Energy>  (76) 
45.64456217415709

>  <Genealogy>  (76) 
[NH-]S(=O)(=O)c1cccc(C(=O)N2CC(=O)[N-]c3ccccc32)c1 (protonated)
[NH-]S(=O)(=O)c1cccc(C(=O)N2CC(=O)[N-]c3ccccc32)c1 (3D coordinates assigned)
[NH-]S(=O)(=O)c1cccc(C(=O)N2CC(=O)[N-]c3ccccc32)c1 (nonaromatic ring conformer: 45.64456217415709 kcal/mol)

>  <smiles>  (76) 
NS(=O)(=O)c1cccc(C(=O)N2CC(=O)Nc3ccccc32)c1

>  <score_type>  (76) 
oracle

>  <origin>  (76) 
adg

>  <m_score__min__energy>  (76) 
-13.1

>  <m_primary>  (76) 
energy

$$$$
77:0
     RDKit          3D

 55 57  0  0  0  0  0  0  0  0999 V2000
   60.4490   30.7040   47.5500 C   0  0  0  0  0  0  0  0  0  0  0  0
   59.6960   31.3460   46.6420 C   0  0  0  0  0  0  0  0  0  0  0  0
   59.1530   30.7900   45.4770 C   0  0  0  0  0  0  0  0  0  0  0  0
   59.2300   29.5030   45.0780 C   0  0  0  0  0  0  0  0  0  0  0  0
   58.3260   28.4240   45.5260 C   0  0  0  0  0  0  0  0  0  0  0  0
   56.6590   28.3340   45.2740 S   0  0  0  0  0  0  0  0  0  0  0  0
   56.5410   26.7890   45.9150 C   0  0  0  0  0  0  0  0  0  0  0  0
   55.4630   26.1440   46.0050 O   0  0  0  0  0  0  0  0  0  0  0  0
   57.7450   26.3070   46.3130 N   0  0  0  0  0  0  0  0  0  0  0  0
   57.9470   24.9630   46.8670 C   0  0  0  0  0  0  0  0  0  0  0  0
   58.6520   24.0740   45.8750 C   0  0  0  0  0  0  0  0  0  0  0  0
   59.9140   24.0280   45.8820 O   0  0  0  0  0  0  0  0  0  0  0  0
   57.9190   23.2960   44.9080 N   0  0  0  0  0  0  0  0  0  0  0  0
   58.5610   22.1140   44.3130 C   0  0  0  0  0  0  0  0  0  0  0  0
   57.5260   21.1870   43.6630 C   0  0  0  0  0  0  0  0  0  0  0  0
   56.6550   21.9290   42.6360 C   0  0  0  0  0  0  0  0  0  0  0  0
   56.3130   23.3770   43.0420 C   0  0  0  0  0  0  0  0  0  0  0  0
   56.5420   23.6510   44.5330 C   0  0  0  0  0  0  0  0  0  0  0  0
   58.7460   27.2110   46.0740 C   0  0  0  0  0  0  0  0  0  0  0  0
   60.0910   26.9490   46.3400 O   0  0  0  0  0  0  0  0  0  0  0  0
   58.4810   31.8210   44.8330 C   0  0  0  0  0  0  0  0  0  0  0  0
   58.6520   32.9510   45.6060 C   0  0  0  0  0  0  0  0  0  0  0  0
   58.0800   34.2960   45.2770 C   0  0  0  0  0  0  0  0  0  0  0  0
   59.3720   32.6640   46.7160 N   0  0  0  0  0  0  0  0  0  0  0  0
   59.7790   33.6320   47.7450 C   0  0  0  0  0  0  0  0  0  0  0  0
   61.2990   33.8100   47.7370 C   0  0  0  0  0  0  0  0  0  0  0  0
   61.8050   33.6260   46.4270 O   0  0  0  0  0  0  0  0  0  0  0  0
   63.2010   33.8390   46.4040 C   0  0  0  0  0  0  0  0  0  0  0  0
   60.8245   31.2423   48.4327 H   0  0  0  0  0  0  0  0  0  0  0  0
   60.6902   29.6398   47.4110 H   0  0  0  0  0  0  0  0  0  0  0  0
   60.0254   29.2377   44.3660 H   0  0  0  0  0  0  0  0  0  0  0  0
   58.5556   25.0374   47.7803 H   0  0  0  0  0  0  0  0  0  0  0  0
   56.9641   24.5252   47.0955 H   0  0  0  0  0  0  0  0  0  0  0  0
   59.2786   22.4432   43.5470 H   0  0  0  0  0  0  0  0  0  0  0  0
   59.0732   21.5575   45.1117 H   0  0  0  0  0  0  0  0  0  0  0  0
   58.0535   20.3663   43.1548 H   0  0  0  0  0  0  0  0  0  0  0  0
   56.8663   20.8044   44.4557 H   0  0  0  0  0  0  0  0  0  0  0  0
   57.1947   21.9555   41.6779 H   0  0  0  0  0  0  0  0  0  0  0  0
   55.7033   21.3817   42.5674 H   0  0  0  0  0  0  0  0  0  0  0  0
   56.9445   24.0631   42.4585 H   0  0  0  0  0  0  0  0  0  0  0  0
   55.2429   23.5315   42.8396 H   0  0  0  0  0  0  0  0  0  0  0  0
   56.3736   24.7188   44.7364 H   0  0  0  0  0  0  0  0  0  0  0  0
   55.8407   23.0418   45.1222 H   0  0  0  0  0  0  0  0  0  0  0  0
   60.5390   26.0820   46.0750 H   0  0  0  0  0  0  0  0  0  0  0  0
   57.9207   31.7503   43.8890 H   0  0  0  0  0  0  0  0  0  0  0  0
   57.8509   34.8348   46.2083 H   0  0  0  0  0  0  0  0  0  0  0  0
   58.8111   34.8719   44.6906 H   0  0  0  0  0  0  0  0  0  0  0  0
   57.1581   34.1689   44.6906 H   0  0  0  0  0  0  0  0  0  0  0  0
   59.2993   34.6008   47.5415 H   0  0  0  0  0  0  0  0  0  0  0  0
   59.4684   33.2568   48.7313 H   0  0  0  0  0  0  0  0  0  0  0  0
   61.5482   34.8237   48.0839 H   0  0  0  0  0  0  0  0  0  0  0  0
   61.7519   33.0630   48.4055 H   0  0  0  0  0  0  0  0  0  0  0  0
   63.5801   33.8968   47.4350 H   0  0  0  0  0  0  0  0  0  0  0  0
   63.6905   33.0052   45.8796 H   0  0  0  0  0  0  0  0  0  0  0  0
   63.4196   34.7809   45.8796 H   0  0  0  0  0  0  0  0  0  0  0  0
  1  2  2  0
  2  3  1  0
  3  4  2  3
  4  5  1  0
  5  6  1  0
  6  7  1  0
  7  8  2  0
  7  9  1  0
  9 10  1  0
 10 11  1  0
 11 12  2  0
 11 13  1  0
 13 14  1  0
 14 15  1  0
 15 16  1  0
 16 17  1  0
 17 18  1  0
  9 19  1  0
 19 20  1  0
  3 21  1  0
 21 22  2  0
 22 23  1  0
 22 24  1  0
 24 25  1  0
 25 26  1  0
 26 27  1  0
 27 28  1  0
 24  2  1  0
 19  5  2  0
 18 13  1  0
  1 29  1  0
  1 30  1  0
  4 31  1  0
 10 32  1  0
 10 33  1  0
 14 34  1  0
 14 35  1  0
 15 36  1  0
 15 37  1  0
 16 38  1  0
 16 39  1  0
 17 40  1  0
 17 41  1  0
 18 42  1  0
 18 43  1  0
 20 44  1  0
 21 45  1  0
 23 46  1  0
 23 47  1  0
 23 48  1  0
 25 49  1  0
 25 50  1  0
 26 51  1  0
 26 52  1  0
 28 53  1  0
 28 54  1  0
 28 55  1  0
M  END
>  <UniqueID>  (77) 
74

>  <SMILES>  (77) 
C=c1c(=Cc2sc(=O)n(CC(=O)N3CCCCC3)c2O)cc(C)n1CCOC

>  <Energy>  (77) 
121.6843737275981

>  <Genealogy>  (77) 
C=c1c(=Cc2sc(=O)n(CC(=O)N3CCCCC3)c2O)cc(C)n1CCOC (3D coordinates assigned)
C=c1c(=Cc2sc(=O)n(CC(=O)N3CCCCC3)c2O)cc(C)n1CCOC (nonaromatic ring conformer: 121.6843737275981 kcal/mol)

>  <smiles>  (77) 
C=c1c(=Cc2sc(=O)n(CC(=O)N3CCCCC3)c2O)cc(C)n1CCOC

>  <score_type>  (77) 
oracle

>  <origin>  (77) 
adg

>  <m_score__min__energy>  (77) 
-8.5299999999999994

>  <m_primary>  (77) 
energy

$$$$
78:0
     RDKit          3D

 52 54  0  0  0  0  0  0  0  0999 V2000
   58.9350   31.5530   54.1840 C   0  0  0  0  0  0  0  0  0  0  0  0
   58.6490   32.6020   53.1880 N   0  0  0  0  0  0  0  0  0  0  0  0
   57.4090   32.2920   52.4250 C   0  0  0  0  0  0  0  0  0  0  0  0
   57.7130   31.7100   51.0370 C   0  0  0  0  0  0  0  0  0  0  0  0
   58.4800   32.6710   50.2160 N   0  0  0  0  0  0  0  0  0  0  0  0
   59.2730   31.8310   48.9060 S   0  0  0  0  0  0  0  0  0  0  0  0
   58.8300   30.3930   48.8740 O   0  0  0  0  0  0  0  0  0  0  0  0
   60.7620   31.8700   49.1080 O   0  0  0  0  0  0  0  0  0  0  0  0
   58.8900   32.6120   47.3720 C   0  0  0  0  0  0  0  0  0  0  0  0
   59.3120   33.9230   47.1170 C   0  0  0  0  0  0  0  0  0  0  0  0
   59.0220   34.5260   45.8910 C   0  0  0  0  0  0  0  0  0  0  0  0
   58.3150   33.8230   44.9120 C   0  0  0  0  0  0  0  0  0  0  0  0
   57.8920   32.5030   45.1510 C   0  0  0  0  0  0  0  0  0  0  0  0
   57.1480   31.7610   44.1090 C   0  0  0  0  0  0  0  0  0  0  0  0
   57.6050   31.6820   42.9360 O   0  0  0  0  0  0  0  0  0  0  0  0
   55.9360   31.1420   44.4320 O   0  0  0  0  0  0  0  0  0  0  0  0
   55.7240   29.7400   44.3030 C   0  0  0  0  0  0  0  0  0  0  0  0
   57.0060   29.0630   43.8220 C   0  0  0  0  0  0  0  0  0  0  0  0
   57.6650   28.2900   44.9380 C   0  0  0  0  0  0  0  0  0  0  0  0
   59.0580   28.3630   45.1090 C   0  0  0  0  0  0  0  0  0  0  0  0
   59.6870   27.6210   46.1130 C   0  0  0  0  0  0  0  0  0  0  0  0
   58.9330   26.7970   46.9510 C   0  0  0  0  0  0  0  0  0  0  0  0
   57.5480   26.7090   46.7840 C   0  0  0  0  0  0  0  0  0  0  0  0
   56.9120   27.4470   45.7790 C   0  0  0  0  0  0  0  0  0  0  0  0
   55.5350   27.3330   45.6210 O   0  0  0  0  0  0  0  0  0  0  0  0
   58.1870   31.9040   46.3890 C   0  0  0  0  0  0  0  0  0  0  0  0
   59.4490   33.4810   50.9930 C   0  0  0  0  0  0  0  0  0  0  0  0
   59.8360   32.8170   52.3230 C   0  0  0  0  0  0  0  0  0  0  0  0
   58.8219   31.9680   55.1964 H   0  0  0  0  0  0  0  0  0  0  0  0
   58.2317   30.7180   54.0493 H   0  0  0  0  0  0  0  0  0  0  0  0
   59.9648   31.1905   54.0493 H   0  0  0  0  0  0  0  0  0  0  0  0
   58.4800   33.4900   53.7210 H   0  0  0  0  0  0  0  0  0  0  0  0
   56.8164   31.5605   52.9939 H   0  0  0  0  0  0  0  0  0  0  0  0
   56.8554   33.2319   52.2835 H   0  0  0  0  0  0  0  0  0  0  0  0
   58.3009   30.7877   51.1545 H   0  0  0  0  0  0  0  0  0  0  0  0
   56.7604   31.4977   50.5297 H   0  0  0  0  0  0  0  0  0  0  0  0
   59.8726   34.4784   47.8833 H   0  0  0  0  0  0  0  0  0  0  0  0
   59.3511   35.5573   45.6956 H   0  0  0  0  0  0  0  0  0  0  0  0
   58.0880   34.3044   43.9493 H   0  0  0  0  0  0  0  0  0  0  0  0
   55.4355   29.3233   45.2793 H   0  0  0  0  0  0  0  0  0  0  0  0
   54.9228   29.5605   43.5710 H   0  0  0  0  0  0  0  0  0  0  0  0
   56.7612   28.3717   43.0022 H   0  0  0  0  0  0  0  0  0  0  0  0
   57.7032   29.8409   43.4772 H   0  0  0  0  0  0  0  0  0  0  0  0
   59.6569   29.0078   44.4490 H   0  0  0  0  0  0  0  0  0  0  0  0
   60.7773   27.6864   46.2430 H   0  0  0  0  0  0  0  0  0  0  0  0
   59.4292   26.2168   47.7430 H   0  0  0  0  0  0  0  0  0  0  0  0
   56.9562   26.0579   47.4442 H   0  0  0  0  0  0  0  0  0  0  0  0
   57.8631   30.8715   46.5867 H   0  0  0  0  0  0  0  0  0  0  0  0
   60.3583   33.6184   50.3894 H   0  0  0  0  0  0  0  0  0  0  0  0
   58.9698   34.4433   51.2263 H   0  0  0  0  0  0  0  0  0  0  0  0
   60.3069   31.8451   52.1139 H   0  0  0  0  0  0  0  0  0  0  0  0
   60.5331   33.4834   52.8521 H   0  0  0  0  0  0  0  0  0  0  0  0
  1  2  1  0
  2  3  1  0
  3  4  1  0
  4  5  1  0
  5  6  1  0
  6  7  2  0
  6  8  2  0
  6  9  1  0
  9 10  2  0
 10 11  1  0
 11 12  2  0
 12 13  1  0
 13 14  1  0
 14 15  2  0
 14 16  1  0
 16 17  1  0
 17 18  1  0
 18 19  1  0
 19 20  2  0
 20 21  1  0
 21 22  2  0
 22 23  1  0
 23 24  2  0
 24 25  1  0
 13 26  2  0
  5 27  1  0
 27 28  1  0
 28  2  1  0
 26  9  1  0
 24 19  1  0
  1 29  1  0
  1 30  1  0
  1 31  1  0
  2 32  1  0
  3 33  1  0
  3 34  1  0
  4 35  1  0
  4 36  1  0
 10 37  1  0
 11 38  1  0
 12 39  1  0
 17 40  1  0
 17 41  1  0
 18 42  1  0
 18 43  1  0
 20 44  1  0
 21 45  1  0
 22 46  1  0
 23 47  1  0
 26 48  1  0
 27 49  1  0
 27 50  1  0
 28 51  1  0
 28 52  1  0
M  CHG  2   2   1  25  -1
M  END
>  <UniqueID>  (78) 
75

>  <SMILES>  (78) 
C[NH+]1CCN(S(=O)(=O)c2cccc(C(=O)OCCc3ccccc3[O-])c2)CC1

>  <Energy>  (78) 
59.277826217263836

>  <Genealogy>  (78) 
C[NH+]1CCN(S(=O)(=O)c2cccc(C(=O)OCCc3ccccc3[O-])c2)CC1 (protonated)
C[NH+]1CCN(S(=O)(=O)c2cccc(C(=O)OCCc3ccccc3[O-])c2)CC1 (3D coordinates assigned)
C[NH+]1CCN(S(=O)(=O)c2cccc(C(=O)OCCc3ccccc3[O-])c2)CC1 (nonaromatic ring conformer: 59.277826217263836 kcal/mol)

>  <smiles>  (78) 
CN1CCN(S(=O)(=O)c2cccc(C(=O)OCCc3ccccc3O)c2)CC1

>  <score_type>  (78) 
oracle

>  <origin>  (78) 
adg

>  <m_score__min__energy>  (78) 
-11.93

>  <m_primary>  (78) 
energy

$$$$
79:0
     RDKit          3D

 41 43  0  0  0  0  0  0  0  0999 V2000
   57.6704   34.3345   47.6606 H   0  0  0  0  0  0  0  0  0  0  0  0
   58.7480   34.2260   47.4680 C   0  0  0  0  0  0  0  0  0  0  0  0
   59.6580   34.3060   48.5250 C   0  0  0  0  0  0  0  0  0  0  0  0
   59.2961   34.4818   49.5488 H   0  0  0  0  0  0  0  0  0  0  0  0
   61.0280   34.1630   48.2840 C   0  0  0  0  0  0  0  0  0  0  0  0
   61.7416   34.2323   49.1182 H   0  0  0  0  0  0  0  0  0  0  0  0
   61.4960   33.9310   46.9790 C   0  0  0  0  0  0  0  0  0  0  0  0
   62.9740   33.8080   46.7160 C   0  0  0  0  0  0  0  0  0  0  0  0
   63.4055   34.8131   46.5996 H   0  0  0  0  0  0  0  0  0  0  0  0
   63.1234   33.2214   45.7975 H   0  0  0  0  0  0  0  0  0  0  0  0
   63.6580   33.1050   47.8580 C   0  0  0  0  0  0  0  0  0  0  0  0
   64.4250   33.7580   48.6130 O   0  0  0  0  0  0  0  0  0  0  0  0
   63.4000   31.7260   48.1580 N   0  0  0  0  0  0  0  0  0  0  0  0
   62.2500   31.1220   48.0840 C   0  0  0  0  0  0  0  0  0  0  0  0
   61.2680   31.0560   49.0620 C   0  0  0  0  0  0  0  0  0  0  0  0
   61.2940   31.4766   50.0781 H   0  0  0  0  0  0  0  0  0  0  0  0
   60.2480   30.3380   48.4620 C   0  0  0  0  0  0  0  0  0  0  0  0
   58.9450   29.9840   49.1090 C   0  0  0  0  0  0  0  0  0  0  0  0
   59.0584   30.0148   50.2027 H   0  0  0  0  0  0  0  0  0  0  0  0
   58.1742   30.7053   48.7998 H   0  0  0  0  0  0  0  0  0  0  0  0
   58.6451   28.9718   48.7998 H   0  0  0  0  0  0  0  0  0  0  0  0
   60.6130   30.0130   47.2000 N   0  0  0  0  0  0  0  0  0  0  0  0
   59.8630   29.2330   46.2520 C   0  0  0  0  0  0  0  0  0  0  0  0
   60.2130   28.0460   46.0090 O   0  0  0  0  0  0  0  0  0  0  0  0
   58.6930   29.7990   45.5430 C   0  0  0  0  0  0  0  0  0  0  0  0
   58.8110   31.0100   44.8360 C   0  0  0  0  0  0  0  0  0  0  0  0
   59.7736   31.5420   44.8198 H   0  0  0  0  0  0  0  0  0  0  0  0
   57.7120   31.5410   44.1540 C   0  0  0  0  0  0  0  0  0  0  0  0
   57.8110   32.4919   43.6099 H   0  0  0  0  0  0  0  0  0  0  0  0
   56.4890   30.8670   44.1620 C   0  0  0  0  0  0  0  0  0  0  0  0
   55.6247   31.2897   43.6288 H   0  0  0  0  0  0  0  0  0  0  0  0
   56.3630   29.6560   44.8470 C   0  0  0  0  0  0  0  0  0  0  0  0
   55.1490   28.9810   44.8460 O   0  0  0  0  0  0  0  0  0  0  0  0
   57.4600   29.1210   45.5310 C   0  0  0  0  0  0  0  0  0  0  0  0
   57.3579   28.1637   46.0631 H   0  0  0  0  0  0  0  0  0  0  0  0
   61.8280   30.4930   46.9730 N   0  0  0  0  0  0  0  0  0  0  0  0
   62.3700   30.3710   46.0880 H   0  0  0  0  0  0  0  0  0  0  0  0
   60.5760   33.8640   45.9200 C   0  0  0  0  0  0  0  0  0  0  0  0
   60.9340   33.6975   44.8933 H   0  0  0  0  0  0  0  0  0  0  0  0
   59.2070   34.0080   46.1650 C   0  0  0  0  0  0  0  0  0  0  0  0
   58.4905   33.9498   45.3324 H   0  0  0  0  0  0  0  0  0  0  0  0
  1  2  1  0
  2  3  2  0
  3  4  1  0
  3  5  1  0
  5  6  1  0
  5  7  2  0
  7  8  1  0
  8  9  1  0
  8 10  1  0
  8 11  1  0
 11 12  2  0
 11 13  1  0
 13 14  2  0
 14 15  1  0
 15 16  1  0
 15 17  2  0
 17 18  1  0
 18 19  1  0
 18 20  1  0
 18 21  1  0
 17 22  1  0
 22 23  1  0
 23 24  2  0
 23 25  1  0
 25 26  2  0
 26 27  1  0
 26 28  1  0
 28 29  1  0
 28 30  2  0
 30 31  1  0
 30 32  1  0
 32 33  1  0
 32 34  2  0
 34 35  1  0
 22 36  1  0
 36 37  1  0
  7 38  1  0
 38 39  1  0
 38 40  2  0
 40 41  1  0
 40  2  1  0
 36 14  1  0
 34 25  1  0
M  CHG  1  33  -1
M  END
>  <UniqueID>  (79) 
76

>  <SMILES>  (79) 
Cc1c/c(=N\C(=O)Cc2ccccc2)[nH]n1C(=O)c1cccc([O-])c1

>  <Energy>  (79) 
85.5771929908298

>  <Genealogy>  (79) 
Cc1cc(=NC(=O)Cc2ccccc2)[nH]n1C(=O)c1cccc([O-])c1 (protonated)
Cc1c/c(=N\C(=O)Cc2ccccc2)[nH]n1C(=O)c1cccc([O-])c1 (cis-trans isomerization)
Cc1c/c(=N\C(=O)Cc2ccccc2)[nH]n1C(=O)c1cccc([O-])c1 (3D coordinates assigned)
Cc1c/c(=N\C(=O)Cc2ccccc2)[nH]n1C(=O)c1cccc([O-])c1 (optimized conformer: 85.5771929908298 kcal/mol)

>  <smiles>  (79) 
Cc1cc(=NC(=O)Cc2ccccc2)[nH]n1C(=O)c1cccc(O)c1

>  <score_type>  (79) 
oracle

>  <origin>  (79) 
adg

>  <m_score__min__energy>  (79) 
-12.34

>  <m_primary>  (79) 
energy

$$$$
80:0
     RDKit          3D

 60 63  0  0  0  0  0  0  0  0999 V2000
   58.0990   30.4730   46.4470 O   0  0  0  0  0  0  0  0  0  0  0  0
   58.3900   29.2670   46.6670 C   0  0  0  0  0  0  0  0  0  0  0  0
   59.7050   28.9170   47.1310 N   0  0  0  0  0  0  0  0  0  0  0  0
   60.6600   29.8760   47.6140 C   0  0  0  0  0  0  0  0  0  0  0  0
   60.9150   29.9620   48.9910 C   0  0  0  0  0  0  0  0  0  0  0  0
   61.8340   30.8940   49.4840 C   0  0  0  0  0  0  0  0  0  0  0  0
   62.5000   31.7610   48.6080 C   0  0  0  0  0  0  0  0  0  0  0  0
   63.6850   32.9150   49.2270 S   0  0  0  0  0  0  0  0  0  0  0  0
   64.0830   33.8550   48.1230 O   0  0  0  0  0  0  0  0  0  0  0  0
   63.0590   33.7290   50.3260 O   0  0  0  0  0  0  0  0  0  0  0  0
   65.1070   32.1070   49.8450 N   0  0  0  0  0  0  0  0  0  0  0  0
   66.1840   33.0830   50.1030 C   0  0  0  0  0  0  0  0  0  0  0  0
   67.2160   32.5030   51.0830 C   0  0  0  0  0  0  0  0  0  0  0  0
   66.6770   32.1500   52.3530 O   0  0  0  0  0  0  0  0  0  0  0  0
   65.2780   31.9050   52.3350 C   0  0  0  0  0  0  0  0  0  0  0  0
   64.7920   31.2670   51.0210 C   0  0  0  0  0  0  0  0  0  0  0  0
   62.2190   31.7050   47.2360 C   0  0  0  0  0  0  0  0  0  0  0  0
   61.3040   30.7700   46.7410 C   0  0  0  0  0  0  0  0  0  0  0  0
   57.3920   28.2070   46.4150 C   0  0  0  0  0  0  0  0  0  0  0  0
   57.4470   26.9960   47.0020 N   0  0  0  0  0  0  0  0  0  0  0  0
   56.3770   26.3490   46.4980 C   0  0  0  0  0  0  0  0  0  0  0  0
   56.0870   25.1650   46.8150 O   0  0  0  0  0  0  0  0  0  0  0  0
   55.6450   27.0680   45.6250 N   0  0  0  0  0  0  0  0  0  0  0  0
   56.2840   28.2520   45.5790 C   0  0  0  0  0  0  0  0  0  0  0  0
   55.8550   29.3700   44.6730 C   0  0  0  0  0  0  0  0  0  0  0  0
   56.8410   29.5330   43.5150 C   0  0  0  0  0  0  0  0  0  0  0  0
   57.7050   31.0930   43.6250 S   0  0  0  0  0  0  0  0  0  0  0  0
   59.0980   30.8600   44.1370 O   0  0  0  0  0  0  0  0  0  0  0  0
   57.7780   31.7280   42.2650 O   0  0  0  0  0  0  0  0  0  0  0  0
   56.8400   32.1970   44.7310 C   0  0  0  0  0  0  0  0  0  0  0  0
   57.7970   33.1560   45.3820 C   0  0  0  0  0  0  0  0  0  0  0  0
   57.8410   33.2760   46.7820 C   0  0  0  0  0  0  0  0  0  0  0  0
   58.7570   34.1420   47.3870 C   0  0  0  0  0  0  0  0  0  0  0  0
   59.6360   34.8900   46.6010 C   0  0  0  0  0  0  0  0  0  0  0  0
   59.6040   34.7720   45.2080 C   0  0  0  0  0  0  0  0  0  0  0  0
   58.6910   33.9060   44.5990 C   0  0  0  0  0  0  0  0  0  0  0  0
   60.0250   27.9310   47.0040 H   0  0  0  0  0  0  0  0  0  0  0  0
   60.3889   29.2923   49.6872 H   0  0  0  0  0  0  0  0  0  0  0  0
   62.0347   30.9465   50.5643 H   0  0  0  0  0  0  0  0  0  0  0  0
   66.6842   33.3285   49.1546 H   0  0  0  0  0  0  0  0  0  0  0  0
   65.7436   33.9883   50.5463 H   0  0  0  0  0  0  0  0  0  0  0  0
   67.6533   31.6008   50.6304 H   0  0  0  0  0  0  0  0  0  0  0  0
   67.9613   33.2918   51.2627 H   0  0  0  0  0  0  0  0  0  0  0  0
   65.0309   31.2272   53.1653 H   0  0  0  0  0  0  0  0  0  0  0  0
   64.7740   32.8779   52.4325 H   0  0  0  0  0  0  0  0  0  0  0  0
   65.2807   30.2890   50.8995 H   0  0  0  0  0  0  0  0  0  0  0  0
   63.6986   31.1622   51.0794 H   0  0  0  0  0  0  0  0  0  0  0  0
   62.7202   32.3993   46.5456 H   0  0  0  0  0  0  0  0  0  0  0  0
   61.0873   30.7341   45.6632 H   0  0  0  0  0  0  0  0  0  0  0  0
   54.8569   29.1452   44.2690 H   0  0  0  0  0  0  0  0  0  0  0  0
   55.8296   30.3053   45.2514 H   0  0  0  0  0  0  0  0  0  0  0  0
   57.5734   28.7130   43.5480 H   0  0  0  0  0  0  0  0  0  0  0  0
   56.2787   29.5095   42.5698 H   0  0  0  0  0  0  0  0  0  0  0  0
   56.0913   32.7659   44.1603 H   0  0  0  0  0  0  0  0  0  0  0  0
   56.3506   31.5999   45.5146 H   0  0  0  0  0  0  0  0  0  0  0  0
   57.1518   32.6861   47.4041 H   0  0  0  0  0  0  0  0  0  0  0  0
   58.7852   34.2341   48.4828 H   0  0  0  0  0  0  0  0  0  0  0  0
   60.3544   35.5728   47.0782 H   0  0  0  0  0  0  0  0  0  0  0  0
   60.2980   35.3613   44.5907 H   0  0  0  0  0  0  0  0  0  0  0  0
   58.6723   33.8113   43.5032 H   0  0  0  0  0  0  0  0  0  0  0  0
  1  2  2  0
  2  3  1  0
  3  4  1  0
  4  5  2  0
  5  6  1  0
  6  7  2  0
  7  8  1  0
  8  9  2  0
  8 10  2  0
  8 11  1  0
 11 12  1  0
 12 13  1  0
 13 14  1  0
 14 15  1  0
 15 16  1  0
  7 17  1  0
 17 18  2  0
  2 19  1  0
 19 20  1  0
 20 21  1  0
 21 22  2  0
 21 23  1  0
 23 24  1  0
 24 25  1  0
 25 26  1  0
 26 27  1  0
 27 28  2  0
 27 29  2  0
 27 30  1  0
 30 31  1  0
 31 32  2  0
 32 33  1  0
 33 34  2  0
 34 35  1  0
 35 36  2  0
 18  4  1  0
 24 19  2  0
 36 31  1  0
 16 11  1  0
  3 37  1  0
  5 38  1  0
  6 39  1  0
 12 40  1  0
 12 41  1  0
 13 42  1  0
 13 43  1  0
 15 44  1  0
 15 45  1  0
 16 46  1  0
 16 47  1  0
 17 48  1  0
 18 49  1  0
 25 50  1  0
 25 51  1  0
 26 52  1  0
 26 53  1  0
 30 54  1  0
 30 55  1  0
 32 56  1  0
 33 57  1  0
 34 58  1  0
 35 59  1  0
 36 60  1  0
M  CHG  2  20  -1  23  -1
M  END
>  <UniqueID>  (80) 
77

>  <SMILES>  (80) 
O=C(Nc1ccc(S(=O)(=O)N2CCOCC2)cc1)c1[n-]c(=O)[n-]c1CCS(=O)(=O)Cc1ccccc1

>  <Energy>  (80) 
95.51586350285699

>  <Genealogy>  (80) 
O=C(Nc1ccc(S(=O)(=O)N2CCOCC2)cc1)c1[n-]c(=O)[n-]c1CCS(=O)(=O)Cc1ccccc1 (protonated)
O=C(Nc1ccc(S(=O)(=O)N2CCOCC2)cc1)c1[n-]c(=O)[n-]c1CCS(=O)(=O)Cc1ccccc1 (3D coordinates assigned)
O=C(Nc1ccc(S(=O)(=O)N2CCOCC2)cc1)c1[n-]c(=O)[n-]c1CCS(=O)(=O)Cc1ccccc1 (nonaromatic ring conformer: 95.51586350285699 kcal/mol)

>  <smiles>  (80) 
O=C(Nc1ccc(S(=O)(=O)N2CCOCC2)cc1)c1[nH]c(=O)[nH]c1CCS(=O)(=O)Cc1ccccc1

>  <score_type>  (80) 
oracle

>  <origin>  (80) 
adg

>  <m_score__min__energy>  (80) 
-13.26

>  <m_primary>  (80) 
energy

$$$$
81:0
     RDKit          3D

 48 50  0  0  0  0  0  0  0  0999 V2000
   54.7610   27.0860   44.9260 H   0  0  0  0  0  0  0  0  0  0  0  0
   54.7430   26.3410   45.6110 O   0  0  0  0  0  0  0  0  0  0  0  0
   55.9070   25.8890   46.2270 C   0  0  0  0  0  0  0  0  0  0  0  0
   55.9130   24.9630   47.2000 N   0  0  0  0  0  0  0  0  0  0  0  0
   57.2300   24.8020   47.4520 C   0  0  0  0  0  0  0  0  0  0  0  0
   57.6610   23.9950   48.3160 O   0  0  0  0  0  0  0  0  0  0  0  0
   58.0490   25.5640   46.6960 N   0  0  0  0  0  0  0  0  0  0  0  0
   57.1990   26.2760   45.9360 C   0  0  0  0  0  0  0  0  0  0  0  0
   57.6380   27.1920   44.8740 C   0  0  0  0  0  0  0  0  0  0  0  0
   57.7558   26.7701   43.8650 H   0  0  0  0  0  0  0  0  0  0  0  0
   57.9090   28.5030   45.0270 C   0  0  0  0  0  0  0  0  0  0  0  0
   57.4740   29.4660   44.1320 C   0  0  0  0  0  0  0  0  0  0  0  0
   56.9236   29.2890   43.1962 H   0  0  0  0  0  0  0  0  0  0  0  0
   57.8620   30.6890   44.6370 C   0  0  0  0  0  0  0  0  0  0  0  0
   57.5780   32.0080   43.9840 C   0  0  0  0  0  0  0  0  0  0  0  0
   57.4134   32.7723   44.7578 H   0  0  0  0  0  0  0  0  0  0  0  0
   58.4341   32.2989   43.3575 H   0  0  0  0  0  0  0  0  0  0  0  0
   56.6781   31.9208   43.3575 H   0  0  0  0  0  0  0  0  0  0  0  0
   58.5540   30.5250   45.7870 N   0  0  0  0  0  0  0  0  0  0  0  0
   59.1310   31.5790   46.5770 C   0  0  0  0  0  0  0  0  0  0  0  0
   58.3040   32.5160   47.2130 C   0  0  0  0  0  0  0  0  0  0  0  0
   57.2112   32.4383   47.1142 H   0  0  0  0  0  0  0  0  0  0  0  0
   58.8620   33.5470   47.9710 C   0  0  0  0  0  0  0  0  0  0  0  0
   58.2081   34.2790   48.4677 H   0  0  0  0  0  0  0  0  0  0  0  0
   60.2490   33.6510   48.1000 C   0  0  0  0  0  0  0  0  0  0  0  0
   60.6832   34.4667   48.6968 H   0  0  0  0  0  0  0  0  0  0  0  0
   61.0920   32.7200   47.4720 C   0  0  0  0  0  0  0  0  0  0  0  0
   62.5240   32.8230   47.6000 N   0  0  0  0  0  0  0  0  0  0  0  0
   63.1970   32.1620   48.6950 C   0  0  0  0  0  0  0  0  0  0  0  0
   62.6420   31.1900   49.2790 O   0  0  0  0  0  0  0  0  0  0  0  0
   64.5380   32.6200   49.1940 C   0  0  0  0  0  0  0  0  0  0  0  0
   65.3334   32.1511   48.5961 H   0  0  0  0  0  0  0  0  0  0  0  0
   64.6137   33.7136   49.1030 H   0  0  0  0  0  0  0  0  0  0  0  0
   64.6800   32.2440   50.5480 O   0  0  0  0  0  0  0  0  0  0  0  0
   65.9500   31.6630   50.7400 C   0  0  0  0  0  0  0  0  0  0  0  0
   66.1519   31.5706   51.8174 H   0  0  0  0  0  0  0  0  0  0  0  0
   65.9709   30.6658   50.2762 H   0  0  0  0  0  0  0  0  0  0  0  0
   66.7182   32.2992   50.2762 H   0  0  0  0  0  0  0  0  0  0  0  0
   63.2600   33.7130   46.6940 C   0  0  0  0  0  0  0  0  0  0  0  0
   63.8518   34.4286   47.2837 H   0  0  0  0  0  0  0  0  0  0  0  0
   63.9320   33.1163   46.0597 H   0  0  0  0  0  0  0  0  0  0  0  0
   62.5477   34.2610   46.0597 H   0  0  0  0  0  0  0  0  0  0  0  0
   60.5240   31.6850   46.7080 C   0  0  0  0  0  0  0  0  0  0  0  0
   61.1765   30.9531   46.2094 H   0  0  0  0  0  0  0  0  0  0  0  0
   58.6150   29.1900   46.0300 C   0  0  0  0  0  0  0  0  0  0  0  0
   59.3640   28.6540   47.0080 C   0  0  0  0  0  0  0  0  0  0  0  0
   59.8682   29.3072   47.7354 H   0  0  0  0  0  0  0  0  0  0  0  0
   59.4731   27.5619   47.0814 H   0  0  0  0  0  0  0  0  0  0  0  0
  1  2  1  0
  2  3  1  0
  3  4  1  0
  4  5  1  0
  5  6  2  0
  5  7  1  0
  7  8  1  0
  8  9  1  0
  9 10  1  0
  9 11  2  0
 11 12  1  0
 12 13  1  0
 12 14  2  0
 14 15  1  0
 15 16  1  0
 15 17  1  0
 15 18  1  0
 14 19  1  0
 19 20  1  0
 20 21  2  0
 21 22  1  0
 21 23  1  0
 23 24  1  0
 23 25  2  0
 25 26  1  0
 25 27  1  0
 27 28  1  0
 28 29  1  0
 29 30  2  0
 29 31  1  0
 31 32  1  0
 31 33  1  0
 31 34  1  0
 34 35  1  0
 35 36  1  0
 35 37  1  0
 35 38  1  0
 28 39  1  0
 39 40  1  0
 39 41  1  0
 39 42  1  0
 27 43  2  0
 43 44  1  0
 19 45  1  0
 45 46  2  0
 46 47  1  0
 46 48  1  0
  8  3  2  0
 45 11  1  0
 43 20  1  0
M  CHG  2   4  -1   7  -1
M  END
>  <UniqueID>  (81) 
78

>  <SMILES>  (81) 
C=c1/c(=C\c2[n-]c(=O)[n-]c2O)cc(C)n1-c1cccc(N(C)C(=O)COC)c1

>  <Energy>  (81) 
129.92733299148148

>  <Genealogy>  (81) 
C=c1c(=Cc2[n-]c(=O)[n-]c2O)cc(C)n1-c1cccc(N(C)C(=O)COC)c1 (protonated)
C=c1/c(=C\c2[n-]c(=O)[n-]c2O)cc(C)n1-c1cccc(N(C)C(=O)COC)c1 (cis-trans isomerization)
C=c1/c(=C\c2[n-]c(=O)[n-]c2O)cc(C)n1-c1cccc(N(C)C(=O)COC)c1 (3D coordinates assigned)
C=c1/c(=C\c2[n-]c(=O)[n-]c2O)cc(C)n1-c1cccc(N(C)C(=O)COC)c1 (optimized conformer: 129.92733299148148 kcal/mol)

>  <smiles>  (81) 
C=c1c(=Cc2[nH]c(=O)[nH]c2O)cc(C)n1-c1cccc(N(C)C(=O)COC)c1

>  <score_type>  (81) 
oracle

>  <origin>  (81) 
adg

>  <m_score__min__energy>  (81) 
-12.59

>  <m_primary>  (81) 
energy

$$$$
82:0
     RDKit          3D

 70 74  0  0  0  0  0  0  0  0999 V2000
   66.2440   32.7720   49.8000 C   0  0  0  0  0  0  0  0  0  0  0  0
   64.8260   32.9720   49.3870 C   0  0  0  0  0  0  0  0  0  0  0  0
   64.4390   33.0980   48.0990 N   0  0  0  0  0  0  0  0  0  0  0  0
   63.1030   33.2560   48.1950 C   0  0  0  0  0  0  0  0  0  0  0  0
   62.2110   33.4160   47.0050 C   0  0  0  0  0  0  0  0  0  0  0  0
   62.7380   33.2380   49.5310 C   0  0  0  0  0  0  0  0  0  0  0  0
   61.4020   33.3950   50.1290 C   0  0  0  0  0  0  0  0  0  0  0  0
   60.4370   33.6480   49.3580 O   0  0  0  0  0  0  0  0  0  0  0  0
   61.1650   33.2060   51.5410 N   0  0  0  0  0  0  0  0  0  0  0  0
   61.9470   32.2150   52.3050 C   0  0  0  0  0  0  0  0  0  0  0  0
   61.0210   31.1700   52.9620 C   0  0  0  0  0  0  0  0  0  0  0  0
   59.6560   31.0910   52.2270 C   0  0  0  0  0  0  0  0  0  0  0  0
   59.8070   30.7940   50.7650 N   0  0  0  0  0  0  0  0  0  0  0  0
   58.5490   31.0680   50.0170 C   0  0  0  0  0  0  0  0  0  0  0  0
   58.5370   30.4320   48.6140 C   0  0  0  0  0  0  0  0  0  0  0  0
   59.9230   30.2410   48.1600 N   0  0  0  0  0  0  0  0  0  0  0  0
   60.0270   30.0000   46.7070 C   0  0  0  0  0  0  0  0  0  0  0  0
   58.6510   29.7960   46.1080 C   0  0  0  0  0  0  0  0  0  0  0  0
   58.1410   28.4870   46.0520 C   0  0  0  0  0  0  0  0  0  0  0  0
   56.9270   28.2190   45.4220 C   0  0  0  0  0  0  0  0  0  0  0  0
   56.2010   29.2560   44.8320 C   0  0  0  0  0  0  0  0  0  0  0  0
   54.9980   28.9850   44.1950 O   0  0  0  0  0  0  0  0  0  0  0  0
   56.6870   30.5650   44.8830 C   0  0  0  0  0  0  0  0  0  0  0  0
   57.9020   30.8520   45.5260 C   0  0  0  0  0  0  0  0  0  0  0  0
   58.3560   32.2570   45.5700 C   0  0  0  0  0  0  0  0  0  0  0  0
   58.5890   32.8890   46.7990 C   0  0  0  0  0  0  0  0  0  0  0  0
   59.0040   34.2230   46.8190 C   0  0  0  0  0  0  0  0  0  0  0  0
   59.1710   34.9020   45.6530 N   0  0  0  0  0  0  0  0  0  0  0  0
   58.9400   34.3160   44.4470 C   0  0  0  0  0  0  0  0  0  0  0  0
   58.5240   32.9840   44.3830 C   0  0  0  0  0  0  0  0  0  0  0  0
   60.6330   29.2410   49.0010 C   0  0  2  0  0  0  0  0  0  0  0  0
   60.4000   27.7780   48.5640 C   0  0  0  0  0  0  0  0  0  0  0  0
   60.2540   29.4080   50.4970 C   0  0  0  0  0  0  0  0  0  0  0  0
   58.9720   32.4700   52.4680 C   0  0  0  0  0  0  0  0  0  0  0  0
   59.9030   33.6660   52.1430 C   0  0  0  0  0  0  0  0  0  0  0  0
   63.8250   33.0450   50.2350 O   0  0  0  0  0  0  0  0  0  0  0  0
   66.3083   32.7629   50.8981 H   0  0  0  0  0  0  0  0  0  0  0  0
   66.6097   31.8134   49.4034 H   0  0  0  0  0  0  0  0  0  0  0  0
   66.8606   33.5921   49.4034 H   0  0  0  0  0  0  0  0  0  0  0  0
   61.1802   33.6009   47.3416 H   0  0  0  0  0  0  0  0  0  0  0  0
   62.5570   34.2664   46.3991 H   0  0  0  0  0  0  0  0  0  0  0  0
   62.2398   32.4984   46.3991 H   0  0  0  0  0  0  0  0  0  0  0  0
   62.6422   31.7024   51.6239 H   0  0  0  0  0  0  0  0  0  0  0  0
   62.5015   32.7400   53.0968 H   0  0  0  0  0  0  0  0  0  0  0  0
   61.5074   30.1842   52.9230 H   0  0  0  0  0  0  0  0  0  0  0  0
   60.8393   31.4710   54.0043 H   0  0  0  0  0  0  0  0  0  0  0  0
   59.0478   30.2615   52.6169 H   0  0  0  0  0  0  0  0  0  0  0  0
   57.7030   30.6646   50.5928 H   0  0  0  0  0  0  0  0  0  0  0  0
   58.4721   32.1576   49.8869 H   0  0  0  0  0  0  0  0  0  0  0  0
   58.0255   29.4590   48.6550 H   0  0  0  0  0  0  0  0  0  0  0  0
   58.0050   31.0917   47.9127 H   0  0  0  0  0  0  0  0  0  0  0  0
   60.5060   30.8671   46.2288 H   0  0  0  0  0  0  0  0  0  0  0  0
   60.6290   29.0953   46.5366 H   0  0  0  0  0  0  0  0  0  0  0  0
   58.7075   27.6636   46.5114 H   0  0  0  0  0  0  0  0  0  0  0  0
   56.5403   27.1897   45.3894 H   0  0  0  0  0  0  0  0  0  0  0  0
   56.1126   31.3782   44.4152 H   0  0  0  0  0  0  0  0  0  0  0  0
   58.4462   32.3389   47.7408 H   0  0  0  0  0  0  0  0  0  0  0  0
   59.1958   34.7244   47.7791 H   0  0  0  0  0  0  0  0  0  0  0  0
   59.0811   34.8922   43.5207 H   0  0  0  0  0  0  0  0  0  0  0  0
   58.3299   32.5096   43.4097 H   0  0  0  0  0  0  0  0  0  0  0  0
   61.7044   29.4463   48.8594 H   0  0  0  0  0  0  0  0  0  0  0  0
   60.2985   27.1409   49.4550 H   0  0  0  0  0  0  0  0  0  0  0  0
   59.4808   27.7168   47.9629 H   0  0  0  0  0  0  0  0  0  0  0  0
   61.2547   27.4343   47.9629 H   0  0  0  0  0  0  0  0  0  0  0  0
   59.4403   28.7105   50.7447 H   0  0  0  0  0  0  0  0  0  0  0  0
   61.1381   29.1926   51.1151 H   0  0  0  0  0  0  0  0  0  0  0  0
   58.0788   32.5359   51.8293 H   0  0  0  0  0  0  0  0  0  0  0  0
   58.7148   32.5305   53.5358 H   0  0  0  0  0  0  0  0  0  0  0  0
   59.3921   34.3377   51.4375 H   0  0  0  0  0  0  0  0  0  0  0  0
   60.1345   34.1936   53.0800 H   0  0  0  0  0  0  0  0  0  0  0  0
  1  2  1  0
  2  3  2  0
  3  4  1  0
  4  5  1  0
  4  6  2  0
  6  7  1  0
  7  8  2  0
  7  9  1  0
  9 10  1  0
 10 11  1  0
 11 12  1  0
 12 13  1  0
 13 14  1  0
 14 15  1  0
 15 16  1  0
 16 17  1  0
 17 18  1  0
 18 19  2  0
 19 20  1  0
 20 21  2  0
 21 22  1  0
 21 23  1  0
 23 24  2  0
 24 25  1  0
 25 26  2  0
 26 27  1  0
 27 28  2  0
 28 29  1  0
 29 30  2  0
 16 31  1  0
 31 32  1  0
 31 33  1  0
 12 34  1  0
 34 35  1  0
  6 36  1  0
 36  2  1  0
 35  9  1  0
 33 13  1  0
 24 18  1  0
 30 25  1  0
  1 37  1  0
  1 38  1  0
  1 39  1  0
  5 40  1  0
  5 41  1  0
  5 42  1  0
 10 43  1  0
 10 44  1  0
 11 45  1  0
 11 46  1  0
 12 47  1  0
 14 48  1  0
 14 49  1  0
 15 50  1  0
 15 51  1  0
 17 52  1  0
 17 53  1  0
 19 54  1  0
 20 55  1  0
 23 56  1  0
 26 57  1  0
 27 58  1  0
 29 59  1  0
 30 60  1  0
 31 61  1  1
 32 62  1  0
 32 63  1  0
 32 64  1  0
 33 65  1  0
 33 66  1  0
 34 67  1  0
 34 68  1  0
 35 69  1  0
 35 70  1  0
M  CHG  1  22  -1
M  END
>  <UniqueID>  (82) 
79

>  <SMILES>  (82) 
Cc1nc(C)c(C(=O)N2CCC(N3CCN(Cc4ccc([O-])cc4-c4ccncc4)[C@H](C)C3)CC2)o1

>  <Energy>  (82) 
135.21144868680346

>  <Genealogy>  (82) 
Cc1nc(C)c(C(=O)N2CCC(N3CCN(Cc4ccc([O-])cc4-c4ccncc4)C(C)C3)CC2)o1 (protonated)
Cc1nc(C)c(C(=O)N2CCC(N3CCN(Cc4ccc([O-])cc4-c4ccncc4)[C@H](C)C3)CC2)o1 (chirality)
Cc1nc(C)c(C(=O)N2CCC(N3CCN(Cc4ccc([O-])cc4-c4ccncc4)[C@H](C)C3)CC2)o1 (3D coordinates assigned)
Cc1nc(C)c(C(=O)N2CCC(N3CCN(Cc4ccc([O-])cc4-c4ccncc4)[C@H](C)C3)CC2)o1 (nonaromatic ring conformer: 135.21144868680346 kcal/mol)

>  <smiles>  (82) 
Cc1nc(C)c(C(=O)N2CCC(N3CCN(Cc4ccc(O)cc4-c4ccncc4)C(C)C3)CC2)o1

>  <score_type>  (82) 
oracle

>  <origin>  (82) 
adg

>  <m_score__min__energy>  (82) 
-11.77

>  <m_primary>  (82) 
energy

$$$$
83:0
     RDKit          3D

 32 33  0  0  0  0  0  0  0  0999 V2000
   58.3106   28.0014   42.3985 H   0  0  0  0  0  0  0  0  0  0  0  0
   57.9410   27.1460   42.9830 C   0  0  0  0  0  0  0  0  0  0  0  0
   57.5256   26.2668   42.4687 H   0  0  0  0  0  0  0  0  0  0  0  0
   57.9970   27.1750   44.3250 C   0  0  0  0  0  0  0  0  0  0  0  0
   57.5660   26.1640   45.1960 C   0  0  0  0  0  0  0  0  0  0  0  0
   57.0110   24.9800   44.8510 C   0  0  0  0  0  0  0  0  0  0  0  0
   57.6453   24.2705   44.2995 H   0  0  0  0  0  0  0  0  0  0  0  0
   55.6260   24.5550   45.1500 C   0  0  0  0  0  0  0  0  0  0  0  0
   55.1060   23.3350   44.9260 N   0  0  0  0  0  0  0  0  0  0  0  0
   53.8210   23.4600   45.3200 C   0  0  0  0  0  0  0  0  0  0  0  0
   53.0000   22.5080   45.2660 O   0  0  0  0  0  0  0  0  0  0  0  0
   53.4850   24.6850   45.7730 N   0  0  0  0  0  0  0  0  0  0  0  0
   54.6360   25.3670   45.6540 C   0  0  0  0  0  0  0  0  0  0  0  0
   54.7790   26.7040   46.0010 O   0  0  0  0  0  0  0  0  0  0  0  0
   57.8000   26.6390   46.4800 C   0  0  0  0  0  0  0  0  0  0  0  0
   57.5836   26.1145   47.4224 H   0  0  0  0  0  0  0  0  0  0  0  0
   58.3560   27.8950   46.3470 C   0  0  0  0  0  0  0  0  0  0  0  0
   58.7600   28.7680   47.4970 C   0  0  0  0  0  0  0  0  0  0  0  0
   58.5247   28.2596   48.4436 H   0  0  0  0  0  0  0  0  0  0  0  0
   59.8409   28.9653   47.4455 H   0  0  0  0  0  0  0  0  0  0  0  0
   58.2107   29.7197   47.4455 H   0  0  0  0  0  0  0  0  0  0  0  0
   58.4900   28.2200   45.0400 N   0  0  0  0  0  0  0  0  0  0  0  0
   59.0090   29.4920   44.5180 C   0  0  0  0  0  0  0  0  0  0  0  0
   59.8340   29.8379   45.1581 H   0  0  0  0  0  0  0  0  0  0  0  0
   59.3702   29.3377   43.4905 H   0  0  0  0  0  0  0  0  0  0  0  0
   57.9260   30.5260   44.5050 C   0  0  0  0  0  0  0  0  0  0  0  0
   58.1620   31.6780   44.0490 O   0  0  0  0  0  0  0  0  0  0  0  0
   56.6280   30.1970   45.0030 N   0  0  0  0  0  0  0  0  0  0  0  0
   55.5350   29.7830   44.1360 C   0  0  0  0  0  0  0  0  0  0  0  0
   54.6818   29.4598   44.7505 H   0  0  0  0  0  0  0  0  0  0  0  0
   55.2304   30.6280   43.5011 H   0  0  0  0  0  0  0  0  0  0  0  0
   55.8666   28.9482   43.5011 H   0  0  0  0  0  0  0  0  0  0  0  0
  1  2  1  0
  2  3  1  0
  2  4  2  0
  4  5  1  0
  5  6  2  0
  6  7  1  0
  6  8  1  0
  8  9  1  0
  9 10  1  0
 10 11  2  0
 10 12  1  0
 12 13  1  0
 13 14  1  0
  5 15  1  0
 15 16  1  0
 15 17  2  0
 17 18  1  0
 18 19  1  0
 18 20  1  0
 18 21  1  0
 17 22  1  0
 22 23  1  0
 23 24  1  0
 23 25  1  0
 23 26  1  0
 26 27  2  0
 26 28  1  0
 28 29  1  0
 29 30  1  0
 29 31  1  0
 29 32  1  0
 22  4  1  0
 13  8  2  0
M  CHG  4   9  -1  12  -1  14  -1  28  -1
M  END
>  <UniqueID>  (83) 
80

>  <SMILES>  (83) 
C=c1/c(=C/c2[n-]c(=O)[n-]c2[O-])cc(C)n1CC(=O)[N-]C

>  <Energy>  (83) 
89.63948572452489

>  <Genealogy>  (83) 
C=c1c(=Cc2[n-]c(=O)[n-]c2[O-])cc(C)n1CC(=O)[N-]C (protonated)
C=c1/c(=C/c2[n-]c(=O)[n-]c2[O-])cc(C)n1CC(=O)[N-]C (cis-trans isomerization)
C=c1/c(=C/c2[n-]c(=O)[n-]c2[O-])cc(C)n1CC(=O)[N-]C (3D coordinates assigned)
C=c1/c(=C/c2[n-]c(=O)[n-]c2[O-])cc(C)n1CC(=O)[N-]C (optimized conformer: 89.63948572452489 kcal/mol)

>  <smiles>  (83) 
C=c1c(=Cc2[nH]c(=O)[nH]c2O)cc(C)n1CC(=O)NC

>  <score_type>  (83) 
oracle

>  <origin>  (83) 
adg

>  <m_score__min__energy>  (83) 
-15.43

>  <m_primary>  (83) 
energy

$$$$
84:0
     RDKit          3D

 73 77  0  0  0  0  0  0  0  0999 V2000
   60.6880   26.5420   46.8360 O   0  0  0  0  0  0  0  0  0  0  0  0
   59.9030   27.1820   47.5870 C   0  0  0  0  0  0  0  0  0  0  0  0
   58.5240   26.7950   47.6420 N   0  0  0  0  0  0  0  0  0  0  0  0
   57.9350   25.9160   46.6770 C   0  0  0  0  0  0  0  0  0  0  0  0
   57.6570   24.5920   47.0380 C   0  0  0  0  0  0  0  0  0  0  0  0
   57.2020   23.6780   46.0800 C   0  0  0  0  0  0  0  0  0  0  0  0
   56.8820   22.0070   46.5410 S   0  0  0  0  0  0  0  0  0  0  0  0
   55.4100   21.7460   46.3760 O   0  0  0  0  0  0  0  0  0  0  0  0
   57.2340   21.8070   47.9900 O   0  0  0  0  0  0  0  0  0  0  0  0
   57.7830   20.8970   45.5240 N   0  0  0  0  0  0  0  0  0  0  0  0
   58.2340   21.5540   44.2720 C   0  0  0  0  0  0  0  0  0  0  0  0
   57.3100   21.2500   43.0770 C   0  0  0  0  0  0  0  0  0  0  0  0
   55.9780   21.0920   43.5130 O   0  0  0  0  0  0  0  0  0  0  0  0
   55.8490   19.9010   44.2730 C   0  0  0  0  0  0  0  0  0  0  0  0
   57.0250   19.6600   45.2510 C   0  0  0  0  0  0  0  0  0  0  0  0
   56.9920   24.1030   44.7620 C   0  0  0  0  0  0  0  0  0  0  0  0
   57.2230   25.4330   44.4060 C   0  0  0  0  0  0  0  0  0  0  0  0
   57.6790   26.3530   45.3620 C   0  0  0  0  0  0  0  0  0  0  0  0
   57.8170   27.7380   45.0050 N   0  0  0  0  0  0  0  0  0  0  0  0
   56.6920   28.6620   45.2030 C   0  0  0  0  0  0  0  0  0  0  0  0
   56.6320   29.6660   44.0490 C   0  0  0  0  0  0  0  0  0  0  0  0
   57.9580   30.4330   43.8650 C   0  0  0  0  0  0  0  0  0  0  0  0
   59.1770   29.7370   44.4970 C   0  0  0  0  0  0  0  0  0  0  0  0
   59.0720   28.2110   44.4110 C   0  0  0  0  0  0  0  0  0  0  0  0
   60.4100   28.3410   48.3550 C   0  0  0  0  0  0  0  0  0  0  0  0
   60.6100   28.2390   49.7420 C   0  0  0  0  0  0  0  0  0  0  0  0
   61.0120   29.3520   50.4830 C   0  0  0  0  0  0  0  0  0  0  0  0
   61.2190   30.5780   49.8490 C   0  0  0  0  0  0  0  0  0  0  0  0
   61.0590   30.6920   48.4620 C   0  0  0  0  0  0  0  0  0  0  0  0
   61.3270   32.2450   47.6660 S   0  0  0  0  0  0  0  0  0  0  0  0
   61.2220   33.3320   48.7000 O   0  0  0  0  0  0  0  0  0  0  0  0
   62.7290   32.2720   47.1190 O   0  0  0  0  0  0  0  0  0  0  0  0
   60.1710   32.5940   46.3940 N   0  0  0  0  0  0  0  0  0  0  0  0
   58.8000   32.1190   46.6630 C   0  0  0  0  0  0  0  0  0  0  0  0
   57.9400   33.1770   47.3670 C   0  0  0  0  0  0  0  0  0  0  0  0
   57.9590   34.3920   46.6520 O   0  0  0  0  0  0  0  0  0  0  0  0
   59.2700   34.9140   46.6630 C   0  0  0  0  0  0  0  0  0  0  0  0
   60.2340   33.9850   45.9090 C   0  0  0  0  0  0  0  0  0  0  0  0
   60.6330   29.5760   47.7210 C   0  0  0  0  0  0  0  0  0  0  0  0
   57.7968   24.2682   48.0799 H   0  0  0  0  0  0  0  0  0  0  0  0
   58.6330   20.6290   46.0720 H   0  0  0  0  0  0  0  0  0  0  0  0
   58.2553   22.6419   44.4330 H   0  0  0  0  0  0  0  0  0  0  0  0
   59.2321   21.1600   44.0300 H   0  0  0  0  0  0  0  0  0  0  0  0
   57.3601   22.0821   42.3593 H   0  0  0  0  0  0  0  0  0  0  0  0
   57.6416   20.3170   42.5979 H   0  0  0  0  0  0  0  0  0  0  0  0
   54.9181   19.9595   44.8561 H   0  0  0  0  0  0  0  0  0  0  0  0
   55.8443   19.0626   43.5609 H   0  0  0  0  0  0  0  0  0  0  0  0
   56.6239   19.2732   46.1994 H   0  0  0  0  0  0  0  0  0  0  0  0
   57.7114   18.9384   44.7839 H   0  0  0  0  0  0  0  0  0  0  0  0
   56.6436   23.3858   44.0042 H   0  0  0  0  0  0  0  0  0  0  0  0
   57.0466   25.7612   43.3710 H   0  0  0  0  0  0  0  0  0  0  0  0
   55.7527   28.0906   45.2383 H   0  0  0  0  0  0  0  0  0  0  0  0
   56.8326   29.2058   46.1488 H   0  0  0  0  0  0  0  0  0  0  0  0
   56.4068   29.1224   43.1196 H   0  0  0  0  0  0  0  0  0  0  0  0
   55.8497   30.4021   44.2861 H   0  0  0  0  0  0  0  0  0  0  0  0
   58.1451   30.5467   42.7870 H   0  0  0  0  0  0  0  0  0  0  0  0
   57.8410   31.3985   44.3789 H   0  0  0  0  0  0  0  0  0  0  0  0
   60.0854   30.0613   43.9682 H   0  0  0  0  0  0  0  0  0  0  0  0
   59.2158   30.0166   45.5602 H   0  0  0  0  0  0  0  0  0  0  0  0
   59.1075   27.9066   43.3546 H   0  0  0  0  0  0  0  0  0  0  0  0
   59.9122   27.7692   44.9668 H   0  0  0  0  0  0  0  0  0  0  0  0
   60.4487   27.2755   50.2476 H   0  0  0  0  0  0  0  0  0  0  0  0
   61.1658   29.2624   51.5685 H   0  0  0  0  0  0  0  0  0  0  0  0
   61.5090   31.4586   50.4410 H   0  0  0  0  0  0  0  0  0  0  0  0
   58.3237   31.8561   45.7070 H   0  0  0  0  0  0  0  0  0  0  0  0
   58.8726   31.2482   47.3311 H   0  0  0  0  0  0  0  0  0  0  0  0
   56.9039   32.8137   47.4339 H   0  0  0  0  0  0  0  0  0  0  0  0
   58.3490   33.3526   48.3729 H   0  0  0  0  0  0  0  0  0  0  0  0
   59.2688   35.9018   46.1791 H   0  0  0  0  0  0  0  0  0  0  0  0
   59.6067   34.9991   47.7067 H   0  0  0  0  0  0  0  0  0  0  0  0
   59.9736   33.9983   44.8403 H   0  0  0  0  0  0  0  0  0  0  0  0
   61.2563   34.3532   46.0802 H   0  0  0  0  0  0  0  0  0  0  0  0
   60.4729   29.6696   46.6368 H   0  0  0  0  0  0  0  0  0  0  0  0
  1  2  2  0
  2  3  1  0
  3  4  1  0
  4  5  2  0
  5  6  1  0
  6  7  1  0
  7  8  2  0
  7  9  2  0
  7 10  1  0
 10 11  1  0
 11 12  1  0
 12 13  1  0
 13 14  1  0
 14 15  1  0
  6 16  2  0
 16 17  1  0
 17 18  2  0
 18 19  1  0
 19 20  1  0
 20 21  1  0
 21 22  1  0
 22 23  1  0
 23 24  1  0
  2 25  1  0
 25 26  2  0
 26 27  1  0
 27 28  2  0
 28 29  1  0
 29 30  1  0
 30 31  2  0
 30 32  2  0
 30 33  1  0
 33 34  1  0
 34 35  1  0
 35 36  1  0
 36 37  1  0
 37 38  1  0
 29 39  2  0
 18  4  1  0
 24 19  1  0
 39 25  1  0
 15 10  1  0
 38 33  1  0
  5 40  1  0
 10 41  1  0
 11 42  1  0
 11 43  1  0
 12 44  1  0
 12 45  1  0
 14 46  1  0
 14 47  1  0
 15 48  1  0
 15 49  1  0
 16 50  1  0
 17 51  1  0
 20 52  1  0
 20 53  1  0
 21 54  1  0
 21 55  1  0
 22 56  1  0
 22 57  1  0
 23 58  1  0
 23 59  1  0
 24 60  1  0
 24 61  1  0
 26 62  1  0
 27 63  1  0
 28 64  1  0
 34 65  1  0
 34 66  1  0
 35 67  1  0
 35 68  1  0
 37 69  1  0
 37 70  1  0
 38 71  1  0
 38 72  1  0
 39 73  1  0
M  CHG  2   3  -1  10   1
M  END
>  <UniqueID>  (84) 
81

>  <SMILES>  (84) 
O=C([N-]c1cc(S(=O)(=O)[NH+]2CCOCC2)ccc1N1CCCCC1)c1cccc(S(=O)(=O)N2CCOCC2)c1

>  <Energy>  (84) 
105.01449766178618

>  <Genealogy>  (84) 
O=C([N-]c1cc(S(=O)(=O)[NH+]2CCOCC2)ccc1N1CCCCC1)c1cccc(S(=O)(=O)N2CCOCC2)c1 (protonated)
O=C([N-]c1cc(S(=O)(=O)[NH+]2CCOCC2)ccc1N1CCCCC1)c1cccc(S(=O)(=O)N2CCOCC2)c1 (3D coordinates assigned)
O=C([N-]c1cc(S(=O)(=O)[NH+]2CCOCC2)ccc1N1CCCCC1)c1cccc(S(=O)(=O)N2CCOCC2)c1 (nonaromatic ring conformer: 105.01449766178618 kcal/mol)

>  <smiles>  (84) 
O=C(Nc1cc(S(=O)(=O)N2CCOCC2)ccc1N1CCCCC1)c1cccc(S(=O)(=O)N2CCOCC2)c1

>  <score_type>  (84) 
oracle

>  <origin>  (84) 
adg

>  <m_score__min__energy>  (84) 
-10.74

>  <m_primary>  (84) 
energy

$$$$
85:0
     RDKit          3D

 16 17  0  0  0  0  0  0  0  0999 V2000
   50.5270   32.5030   53.7990 O   0  0  0  0  0  0  0  0  0  0  0  0
   51.0940   32.0180   52.7840 C   0  0  0  0  0  0  0  0  0  0  0  0
   50.6390   32.3470   51.5470 N   0  0  0  0  0  0  0  0  0  0  0  0
   51.2190   31.8490   50.4250 C   0  0  0  0  0  0  0  0  0  0  0  0
   50.6440   32.2670   48.9560 S   0  0  0  0  0  0  0  0  0  0  0  0
   52.2770   31.0020   50.5210 N   0  0  0  0  0  0  0  0  0  0  0  0
   52.7740   30.6400   51.7330 C   0  0  0  0  0  0  0  0  0  0  0  0
   53.8650   29.7670   51.8110 C   0  0  0  0  0  0  0  0  0  0  0  0
   54.3750   29.3940   53.0580 C   0  0  0  0  0  0  0  0  0  0  0  0
   53.7980   29.8920   54.2300 C   0  0  0  0  0  0  0  0  0  0  0  0
   52.7080   30.7650   54.1640 C   0  0  0  0  0  0  0  0  0  0  0  0
   52.1870   31.1450   52.9140 C   0  0  0  0  0  0  0  0  0  0  0  0
   54.3215   29.3741   50.8906 H   0  0  0  0  0  0  0  0  0  0  0  0
   55.2322   28.7072   53.1172 H   0  0  0  0  0  0  0  0  0  0  0  0
   54.2035   29.5956   55.2086 H   0  0  0  0  0  0  0  0  0  0  0  0
   52.2581   31.1545   55.0891 H   0  0  0  0  0  0  0  0  0  0  0  0
  1  2  2  0
  2  3  1  0
  3  4  1  0
  4  5  2  0
  4  6  1  0
  6  7  1  0
  7  8  2  0
  8  9  1  0
  9 10  2  0
 10 11  1  0
 11 12  2  0
 12  2  1  0
 12  7  1  0
  8 13  1  0
  9 14  1  0
 10 15  1  0
 11 16  1  0
M  CHG  2   3  -1   6  -1
M  END
>  <UniqueID>  (85) 
82

>  <SMILES>  (85) 
O=c1[n-]c(=S)[n-]c2ccccc12

>  <Energy>  (85) 
21.395810459668382

>  <Genealogy>  (85) 
O=c1[n-]c(=S)[n-]c2ccccc12 (protonated)
O=c1[n-]c(=S)[n-]c2ccccc12 (3D coordinates assigned)
O=c1[n-]c(=S)[n-]c2ccccc12 (optimized conformer: 21.395810459668382 kcal/mol)

>  <smiles>  (85) 
O=c1[nH]c(=S)[nH]c2ccccc12

>  <score_type>  (85) 
oracle

>  <origin>  (85) 
adg

>  <m_score__min__energy>  (85) 
-9.3399999999999999

>  <m_primary>  (85) 
energy

$$$$
86:0
     RDKit          3D

 44 46  0  0  0  0  0  0  0  0999 V2000
   57.8270   27.5980   43.3690 C   0  0  0  0  0  0  0  0  0  0  0  0
   58.5550   28.4030   44.4150 C   0  0  0  0  0  0  0  0  0  0  0  0
   59.7900   27.9340   44.8920 C   0  0  0  0  0  0  0  0  0  0  0  0
   60.4970   28.6490   45.8580 C   0  0  0  0  0  0  0  0  0  0  0  0
   59.9820   29.8440   46.3730 C   0  0  0  0  0  0  0  0  0  0  0  0
   60.7270   30.5890   47.4080 C   0  0  0  0  0  0  0  0  0  0  0  0
   61.9080   30.9650   47.1780 O   0  0  0  0  0  0  0  0  0  0  0  0
   60.1290   30.8780   48.6790 N   0  0  0  0  0  0  0  0  0  0  0  0
   59.0420   30.1060   49.2600 C   0  0  0  0  0  0  0  0  0  0  0  0
   59.0480   30.5110   50.7400 C   0  0  0  0  0  0  0  0  0  0  0  0
   60.2350   31.3410   50.8990 N   0  0  0  0  0  0  0  0  0  0  0  0
   60.7830   31.5410   49.7530 C   0  0  0  0  0  0  0  0  0  0  0  0
   62.3310   32.4390   49.5890 S   0  0  0  0  0  0  0  0  0  0  0  0
   61.5560   34.0700   49.2980 C   0  0  0  0  0  0  0  0  0  0  0  0
   60.6710   34.0340   48.0780 C   0  0  0  0  0  0  0  0  0  0  0  0
   59.2750   34.1130   48.2360 C   0  0  0  0  0  0  0  0  0  0  0  0
   58.4330   34.1050   47.1220 C   0  0  0  0  0  0  0  0  0  0  0  0
   58.9730   34.0170   45.8380 C   0  0  0  0  0  0  0  0  0  0  0  0
   60.3570   33.9380   45.6650 C   0  0  0  0  0  0  0  0  0  0  0  0
   61.2100   33.9470   46.7750 C   0  0  0  0  0  0  0  0  0  0  0  0
   62.9460   33.8490   46.4930 Cl  0  0  0  0  0  0  0  0  0  0  0  0
   58.7640   30.3360   45.8820 C   0  0  0  0  0  0  0  0  0  0  0  0
   58.0450   29.6310   44.9020 C   0  0  0  0  0  0  0  0  0  0  0  0
   56.5050   30.2950   44.3260 S   0  0  0  0  0  0  0  0  0  0  0  0
   55.1770   29.3290   44.8700 N   0  0  0  0  0  0  0  0  0  0  0  0
   56.3210   31.6920   44.8490 O   0  0  0  0  0  0  0  0  0  0  0  0
   56.5020   30.3160   42.8240 O   0  0  0  0  0  0  0  0  0  0  0  0
   57.1672   26.8684   43.8613 H   0  0  0  0  0  0  0  0  0  0  0  0
   57.2251   28.2715   42.7412 H   0  0  0  0  0  0  0  0  0  0  0  0
   58.5574   27.0666   42.7412 H   0  0  0  0  0  0  0  0  0  0  0  0
   60.2036   26.9933   44.4996 H   0  0  0  0  0  0  0  0  0  0  0  0
   61.4656   28.2714   46.2175 H   0  0  0  0  0  0  0  0  0  0  0  0
   58.0828   30.3648   48.7878 H   0  0  0  0  0  0  0  0  0  0  0  0
   59.1689   29.0227   49.1172 H   0  0  0  0  0  0  0  0  0  0  0  0
   58.1410   31.0817   50.9883 H   0  0  0  0  0  0  0  0  0  0  0  0
   59.0626   29.6368   51.4075 H   0  0  0  0  0  0  0  0  0  0  0  0
   60.9502   34.3426   50.1747 H   0  0  0  0  0  0  0  0  0  0  0  0
   62.3505   34.8130   49.1346 H   0  0  0  0  0  0  0  0  0  0  0  0
   58.8434   34.1816   49.2454 H   0  0  0  0  0  0  0  0  0  0  0  0
   57.3431   34.1681   47.2566 H   0  0  0  0  0  0  0  0  0  0  0  0
   58.3083   34.0098   44.9616 H   0  0  0  0  0  0  0  0  0  0  0  0
   60.7787   33.8684   44.6514 H   0  0  0  0  0  0  0  0  0  0  0  0
   58.3665   31.2859   46.2690 H   0  0  0  0  0  0  0  0  0  0  0  0
   54.5190   29.9670   45.3720 H   0  0  0  0  0  0  0  0  0  0  0  0
  1  2  1  0
  2  3  2  0
  3  4  1  0
  4  5  2  0
  5  6  1  0
  6  7  2  0
  6  8  1  0
  8  9  1  0
  9 10  1  0
 10 11  1  0
 11 12  2  0
 12 13  1  0
 13 14  1  0
 14 15  1  0
 15 16  2  0
 16 17  1  0
 17 18  2  0
 18 19  1  0
 19 20  2  0
 20 21  1  0
  5 22  1  0
 22 23  2  0
 23 24  1  0
 24 25  1  0
 24 26  2  0
 24 27  2  0
 23  2  1  0
 12  8  1  0
 20 15  1  0
  1 28  1  0
  1 29  1  0
  1 30  1  0
  3 31  1  0
  4 32  1  0
  9 33  1  0
  9 34  1  0
 10 35  1  0
 10 36  1  0
 14 37  1  0
 14 38  1  0
 16 39  1  0
 17 40  1  0
 18 41  1  0
 19 42  1  0
 22 43  1  0
 25 44  1  0
M  CHG  1  25  -1
M  END
>  <UniqueID>  (86) 
83

>  <SMILES>  (86) 
Cc1ccc(C(=O)N2CCN=C2SCc2ccccc2Cl)cc1S([NH-])(=O)=O

>  <Energy>  (86) 
61.97136158531726

>  <Genealogy>  (86) 
Cc1ccc(C(=O)N2CCN=C2SCc2ccccc2Cl)cc1S([NH-])(=O)=O (protonated)
Cc1ccc(C(=O)N2CCN=C2SCc2ccccc2Cl)cc1S([NH-])(=O)=O (3D coordinates assigned)
Cc1ccc(C(=O)N2CCN=C2SCc2ccccc2Cl)cc1S([NH-])(=O)=O (nonaromatic ring conformer: 61.97136158531726 kcal/mol)

>  <smiles>  (86) 
Cc1ccc(C(=O)N2CCN=C2SCc2ccccc2Cl)cc1S(N)(=O)=O

>  <score_type>  (86) 
oracle

>  <origin>  (86) 
adg

>  <m_score__min__energy>  (86) 
-12.75

>  <m_primary>  (86) 
energy

$$$$
87:0
     RDKit          3D

 56 59  0  0  0  0  0  0  0  0999 V2000
   56.3430   30.5320   54.8220 O   0  0  0  0  0  0  0  0  0  0  0  0
   55.5640   30.2250   53.8810 C   0  0  0  0  0  0  0  0  0  0  0  0
   54.0800   30.1610   54.1390 C   0  0  0  0  0  0  0  0  0  0  0  0
   53.2810   30.4120   52.8860 C   0  0  0  0  0  0  0  0  0  0  0  0
   53.4700   29.6020   51.7590 C   0  0  0  0  0  0  0  0  0  0  0  0
   52.7270   29.8240   50.5970 C   0  0  0  0  0  0  0  0  0  0  0  0
   51.7900   30.8560   50.5430 C   0  0  0  0  0  0  0  0  0  0  0  0
   51.0640   31.0570   49.3710 O   0  0  0  0  0  0  0  0  0  0  0  0
   51.5990   31.6750   51.6630 C   0  0  0  0  0  0  0  0  0  0  0  0
   50.6770   32.7080   51.6260 O   0  0  0  0  0  0  0  0  0  0  0  0
   52.3440   31.4570   52.8280 C   0  0  0  0  0  0  0  0  0  0  0  0
   56.1300   29.7980   52.6360 N   0  0  0  0  0  0  0  0  0  0  0  0
   56.9860   30.5810   51.7970 C   0  0  0  0  0  0  0  0  0  0  0  0
   57.0850   31.9680   51.9600 C   0  0  0  0  0  0  0  0  0  0  0  0
   57.9390   32.7120   51.1450 C   0  0  0  0  0  0  0  0  0  0  0  0
   58.7270   32.0780   50.1750 C   0  0  0  0  0  0  0  0  0  0  0  0
   59.5930   32.8760   49.3560 N   0  0  0  0  0  0  0  0  0  0  0  0
   60.8300   33.3980   49.9550 C   0  0  0  0  0  0  0  0  0  0  0  0
   61.6400   34.1930   48.9410 C   0  0  0  0  0  0  0  0  0  0  0  0
   60.7690   34.9770   48.1590 O   0  0  0  0  0  0  0  0  0  0  0  0
   60.0950   34.1390   47.2380 C   0  0  0  0  0  0  0  0  0  0  0  0
   59.2760   33.0190   47.9270 C   0  0  0  0  0  0  0  0  0  0  0  0
   58.6580   30.6730   50.0270 C   0  0  0  0  0  0  0  0  0  0  0  0
   59.6800   29.7890   48.8840 S   0  0  0  0  0  0  0  0  0  0  0  0
   59.8050   28.3470   49.2880 O   0  0  0  0  0  0  0  0  0  0  0  0
   61.0600   30.3900   48.8540 O   0  0  0  0  0  0  0  0  0  0  0  0
   58.9690   29.8810   47.3110 N   0  0  0  0  0  0  0  0  0  0  0  0
   58.7540   28.6950   46.5470 C   0  0  0  0  0  0  0  0  0  0  0  0
   59.6800   27.6450   46.6240 C   0  0  0  0  0  0  0  0  0  0  0  0
   59.4540   26.4570   45.9210 C   0  0  0  0  0  0  0  0  0  0  0  0
   58.3080   26.3180   45.1300 C   0  0  0  0  0  0  0  0  0  0  0  0
   57.3900   27.3690   45.0400 C   0  0  0  0  0  0  0  0  0  0  0  0
   57.6100   28.5590   45.7470 C   0  0  0  0  0  0  0  0  0  0  0  0
   56.6930   29.6010   45.6460 O   0  0  0  0  0  0  0  0  0  0  0  0
   57.7940   29.9380   50.8550 C   0  0  0  0  0  0  0  0  0  0  0  0
   53.8291   29.1627   54.5269 H   0  0  0  0  0  0  0  0  0  0  0  0
   53.8264   30.9447   54.8681 H   0  0  0  0  0  0  0  0  0  0  0  0
   54.2076   28.7865   51.7891 H   0  0  0  0  0  0  0  0  0  0  0  0
   52.8819   29.1805   49.7184 H   0  0  0  0  0  0  0  0  0  0  0  0
   50.0790   30.8540   49.3060 H   0  0  0  0  0  0  0  0  0  0  0  0
   52.1949   32.1074   53.7025 H   0  0  0  0  0  0  0  0  0  0  0  0
   56.4875   32.4730   52.7333 H   0  0  0  0  0  0  0  0  0  0  0  0
   57.9941   33.8041   51.2648 H   0  0  0  0  0  0  0  0  0  0  0  0
   60.5709   34.0529   50.7999 H   0  0  0  0  0  0  0  0  0  0  0  0
   61.4379   32.5470   50.2960 H   0  0  0  0  0  0  0  0  0  0  0  0
   62.3488   34.8476   49.4693 H   0  0  0  0  0  0  0  0  0  0  0  0
   62.1962   33.5015   48.2910 H   0  0  0  0  0  0  0  0  0  0  0  0
   59.4098   34.7564   46.6386 H   0  0  0  0  0  0  0  0  0  0  0  0
   60.8598   33.6521   46.6150 H   0  0  0  0  0  0  0  0  0  0  0  0
   58.2061   33.2538   47.8264 H   0  0  0  0  0  0  0  0  0  0  0  0
   59.5344   32.0699   47.4345 H   0  0  0  0  0  0  0  0  0  0  0  0
   60.5858   27.7557   47.2383 H   0  0  0  0  0  0  0  0  0  0  0  0
   60.1776   25.6314   45.9900 H   0  0  0  0  0  0  0  0  0  0  0  0
   58.1294   25.3826   44.5794 H   0  0  0  0  0  0  0  0  0  0  0  0
   56.4928   27.2615   44.4127 H   0  0  0  0  0  0  0  0  0  0  0  0
   57.7526   28.8428   50.7610 H   0  0  0  0  0  0  0  0  0  0  0  0
  1  2  2  0
  2  3  1  0
  3  4  1  0
  4  5  2  0
  5  6  1  0
  6  7  2  0
  7  8  1  0
  7  9  1  0
  9 10  1  0
  9 11  2  0
  2 12  1  0
 12 13  1  0
 13 14  2  0
 14 15  1  0
 15 16  2  0
 16 17  1  0
 17 18  1  0
 18 19  1  0
 19 20  1  0
 20 21  1  0
 21 22  1  0
 16 23  1  0
 23 24  1  0
 24 25  2  0
 24 26  2  0
 24 27  1  0
 27 28  1  0
 28 29  2  0
 29 30  1  0
 30 31  2  0
 31 32  1  0
 32 33  2  0
 33 34  1  0
 23 35  2  0
 11  4  1  0
 35 13  1  0
 22 17  1  0
 33 28  1  0
  3 36  1  0
  3 37  1  0
  5 38  1  0
  6 39  1  0
  8 40  1  0
 11 41  1  0
 14 42  1  0
 15 43  1  0
 18 44  1  0
 18 45  1  0
 19 46  1  0
 19 47  1  0
 21 48  1  0
 21 49  1  0
 22 50  1  0
 22 51  1  0
 29 52  1  0
 30 53  1  0
 31 54  1  0
 32 55  1  0
 35 56  1  0
M  CHG  4  10  -1  12  -1  27  -1  34  -1
M  END
>  <UniqueID>  (87) 
84

>  <SMILES>  (87) 
O=C(Cc1ccc(O)c([O-])c1)[N-]c1ccc(N2CCOCC2)c(S(=O)(=O)[N-]c2ccccc2[O-])c1

>  <Energy>  (87) 
84.72952309632998

>  <Genealogy>  (87) 
O=C(Cc1ccc(O)c([O-])c1)[N-]c1ccc(N2CCOCC2)c(S(=O)(=O)[N-]c2ccccc2[O-])c1 (protonated)
O=C(Cc1ccc(O)c([O-])c1)[N-]c1ccc(N2CCOCC2)c(S(=O)(=O)[N-]c2ccccc2[O-])c1 (3D coordinates assigned)
O=C(Cc1ccc(O)c([O-])c1)[N-]c1ccc(N2CCOCC2)c(S(=O)(=O)[N-]c2ccccc2[O-])c1 (nonaromatic ring conformer: 84.72952309632998 kcal/mol)

>  <smiles>  (87) 
O=C(Cc1ccc(O)c(O)c1)Nc1ccc(N2CCOCC2)c(S(=O)(=O)Nc2ccccc2O)c1

>  <score_type>  (87) 
oracle

>  <origin>  (87) 
adg

>  <m_score__min__energy>  (87) 
-18.379999999999999

>  <m_primary>  (87) 
energy

$$$$
88:0
     RDKit          3D

 59 63  0  0  0  0  0  0  0  0999 V2000
   60.5180   25.9460   46.3680 C   0  0  0  0  0  0  0  0  0  0  0  0
   59.8690   27.1250   47.0180 C   0  0  0  0  0  0  0  0  0  0  0  0
   60.6820   28.4980   47.5520 S   0  0  0  0  0  0  0  0  0  0  0  0
   59.2930   29.2120   48.1810 C   0  0  0  0  0  0  0  0  0  0  0  0
   59.2660   30.5150   48.8770 C   0  0  0  0  0  0  0  0  0  0  0  0
   59.3890   30.5220   50.1330 O   0  0  0  0  0  0  0  0  0  0  0  0
   59.1140   31.7660   48.1690 N   0  0  0  0  0  0  0  0  0  0  0  0
   59.5790   31.9090   46.7790 C   0  0  0  0  0  0  0  0  0  0  0  0
   59.8370   33.3800   46.4120 C   0  0  0  0  0  0  0  0  0  0  0  0
   60.5220   34.1390   47.5660 C   0  0  0  0  0  0  0  0  0  0  0  0
   61.9530   33.6690   47.7330 C   0  0  0  0  0  0  0  0  0  0  0  0
   62.8690   33.3460   46.7280 C   0  0  0  0  0  0  0  0  0  0  0  0
   64.0810   33.0710   47.2590 N   0  0  0  0  0  0  0  0  0  0  0  0
   63.9510   33.2340   48.5860 C   0  0  0  0  0  0  0  0  0  0  0  0
   64.9440   33.0910   49.5540 C   0  0  0  0  0  0  0  0  0  0  0  0
   64.5990   33.3480   50.8940 C   0  0  0  0  0  0  0  0  0  0  0  0
   63.2860   33.7410   51.2320 C   0  0  0  0  0  0  0  0  0  0  0  0
   62.3030   33.8770   50.2340 C   0  0  0  0  0  0  0  0  0  0  0  0
   62.6720   33.6080   48.9130 C   0  0  0  0  0  0  0  0  0  0  0  0
   59.7060   34.0570   48.8880 C   0  0  0  0  0  0  0  0  0  0  0  0
   58.6310   32.9600   48.8760 C   0  0  0  0  0  0  0  0  0  0  0  0
   58.2160   28.4140   48.0170 N   0  0  0  0  0  0  0  0  0  0  0  0
   58.5220   27.2580   47.3660 C   0  0  0  0  0  0  0  0  0  0  0  0
   57.4810   26.2060   47.1180 C   0  0  0  0  0  0  0  0  0  0  0  0
   56.8130   26.4440   45.7930 C   0  0  0  0  0  0  0  0  0  0  0  0
   56.8320   25.5330   44.9250 O   0  0  0  0  0  0  0  0  0  0  0  0
   56.2350   27.7100   45.4540 N   0  0  0  0  0  0  0  0  0  0  0  0
   56.9230   28.8180   44.8580 C   0  0  0  0  0  0  0  0  0  0  0  0
   58.3220   28.9260   44.9300 C   0  0  0  0  0  0  0  0  0  0  0  0
   58.9730   30.0290   44.3690 C   0  0  0  0  0  0  0  0  0  0  0  0
   58.2330   31.0360   43.7460 C   0  0  0  0  0  0  0  0  0  0  0  0
   56.8400   30.9490   43.6920 C   0  0  0  0  0  0  0  0  0  0  0  0
   56.1800   29.8450   44.2530 C   0  0  0  0  0  0  0  0  0  0  0  0
   54.7910   29.7570   44.2030 O   0  0  0  0  0  0  0  0  0  0  0  0
   60.8947   25.2616   47.1424 H   0  0  0  0  0  0  0  0  0  0  0  0
   59.7817   25.4212   45.7416 H   0  0  0  0  0  0  0  0  0  0  0  0
   61.3553   26.2874   45.7416 H   0  0  0  0  0  0  0  0  0  0  0  0
   60.5136   31.3421   46.6560 H   0  0  0  0  0  0  0  0  0  0  0  0
   58.7924   31.5233   46.1137 H   0  0  0  0  0  0  0  0  0  0  0  0
   60.4856   33.4184   45.5244 H   0  0  0  0  0  0  0  0  0  0  0  0
   58.8681   33.8603   46.2104 H   0  0  0  0  0  0  0  0  0  0  0  0
   60.5526   35.2064   47.3020 H   0  0  0  0  0  0  0  0  0  0  0  0
   62.6357   33.3193   45.6534 H   0  0  0  0  0  0  0  0  0  0  0  0
   64.9460   32.8060   46.7360 H   0  0  0  0  0  0  0  0  0  0  0  0
   65.9648   32.7869   49.2792 H   0  0  0  0  0  0  0  0  0  0  0  0
   65.3577   33.2419   51.6834 H   0  0  0  0  0  0  0  0  0  0  0  0
   63.0294   33.9423   52.2825 H   0  0  0  0  0  0  0  0  0  0  0  0
   61.2774   34.1851   50.4855 H   0  0  0  0  0  0  0  0  0  0  0  0
   60.4021   33.8536   49.7151 H   0  0  0  0  0  0  0  0  0  0  0  0
   59.1861   35.0189   49.0081 H   0  0  0  0  0  0  0  0  0  0  0  0
   58.3802   32.6891   49.9122 H   0  0  0  0  0  0  0  0  0  0  0  0
   57.7411   33.3431   48.3551 H   0  0  0  0  0  0  0  0  0  0  0  0
   57.9589   25.2153   47.1119 H   0  0  0  0  0  0  0  0  0  0  0  0
   56.7253   26.2516   47.9160 H   0  0  0  0  0  0  0  0  0  0  0  0
   58.9073   28.1399   45.4295 H   0  0  0  0  0  0  0  0  0  0  0  0
   60.0694   30.1035   44.4185 H   0  0  0  0  0  0  0  0  0  0  0  0
   58.7475   31.8985   43.2974 H   0  0  0  0  0  0  0  0  0  0  0  0
   56.2588   31.7480   43.2084 H   0  0  0  0  0  0  0  0  0  0  0  0
   54.3010   28.9270   44.5190 H   0  0  0  0  0  0  0  0  0  0  0  0
  1  2  1  0
  2  3  1  0
  3  4  1  0
  4  5  1  0
  5  6  2  0
  5  7  1  0
  7  8  1  0
  8  9  1  0
  9 10  1  0
 10 11  1  0
 11 12  2  0
 12 13  1  0
 13 14  1  0
 14 15  2  0
 15 16  1  0
 16 17  2  0
 17 18  1  0
 18 19  2  0
 10 20  1  0
 20 21  1  0
  4 22  2  0
 22 23  1  0
 23 24  1  0
 24 25  1  0
 25 26  2  0
 25 27  1  0
 27 28  1  0
 28 29  2  0
 29 30  1  0
 30 31  2  0
 31 32  1  0
 32 33  2  0
 33 34  1  0
 23  2  2  0
 33 28  1  0
 21  7  1  0
 19 11  1  0
 19 14  1  0
  1 35  1  0
  1 36  1  0
  1 37  1  0
  8 38  1  0
  8 39  1  0
  9 40  1  0
  9 41  1  0
 10 42  1  0
 12 43  1  0
 13 44  1  0
 15 45  1  0
 16 46  1  0
 17 47  1  0
 18 48  1  0
 20 49  1  0
 20 50  1  0
 21 51  1  0
 21 52  1  0
 24 53  1  0
 24 54  1  0
 29 55  1  0
 30 56  1  0
 31 57  1  0
 32 58  1  0
 34 59  1  0
M  CHG  1  27  -1
M  END
>  <UniqueID>  (88) 
85

>  <SMILES>  (88) 
Cc1sc(C(=O)N2CCC(c3c[nH]c4ccccc34)CC2)nc1CC(=O)[N-]c1ccccc1O

>  <Energy>  (88) 
132.59280355682398

>  <Genealogy>  (88) 
Cc1sc(C(=O)N2CCC(c3c[nH]c4ccccc34)CC2)nc1CC(=O)[N-]c1ccccc1O (protonated)
Cc1sc(C(=O)N2CCC(c3c[nH]c4ccccc34)CC2)nc1CC(=O)[N-]c1ccccc1O (3D coordinates assigned)
Cc1sc(C(=O)N2CCC(c3c[nH]c4ccccc34)CC2)nc1CC(=O)[N-]c1ccccc1O (nonaromatic ring conformer: 132.59280355682398 kcal/mol)

>  <smiles>  (88) 
Cc1sc(C(=O)N2CCC(c3c[nH]c4ccccc34)CC2)nc1CC(=O)Nc1ccccc1O

>  <score_type>  (88) 
oracle

>  <origin>  (88) 
adg

>  <m_score__min__energy>  (88) 
-13.66

>  <m_primary>  (88) 
energy

$$$$
