0:0
     RDKit          3D

 50 53  0  0  0  0  0  0  0  0999 V2000
   54.0940   25.3010   46.3660 H   0  0  0  0  0  0  0  0  0  0  0  0
   54.8220   24.6030   46.2620 O   0  0  0  0  0  0  0  0  0  0  0  0
   56.1320   24.9600   46.0210 N   0  0  0  0  0  0  0  0  0  0  0  0
   57.1590   24.0780   46.0230 C   0  0  0  0  0  0  0  0  0  0  0  0
   57.0360   22.7740   46.2620 C   0  0  0  0  0  0  0  0  0  0  0  0
   56.0472   22.3465   46.4844 H   0  0  0  0  0  0  0  0  0  0  0  0
   57.9232   22.1242   46.2370 H   0  0  0  0  0  0  0  0  0  0  0  0
   58.6120   24.8490   45.6720 S   0  0  0  0  0  0  0  0  0  0  0  0
   57.9120   26.3780   45.5220 C   0  0  0  0  0  0  0  0  0  0  0  0
   58.6120   27.4810   45.2130 C   0  0  0  0  0  0  0  0  0  0  0  0
   59.6928   27.4713   45.4174 H   0  0  0  0  0  0  0  0  0  0  0  0
   58.0410   28.7050   44.6200 C   0  0  0  0  0  0  0  0  0  0  0  0
   57.3220   28.6580   43.4150 C   0  0  0  0  0  0  0  0  0  0  0  0
   57.2028   27.7017   42.8846 H   0  0  0  0  0  0  0  0  0  0  0  0
   56.7580   29.8210   42.8880 C   0  0  0  0  0  0  0  0  0  0  0  0
   56.2141   29.7823   41.9326 H   0  0  0  0  0  0  0  0  0  0  0  0
   56.8820   31.0340   43.5700 C   0  0  0  0  0  0  0  0  0  0  0  0
   56.4493   31.9498   43.1409 H   0  0  0  0  0  0  0  0  0  0  0  0
   57.5570   31.0900   44.8020 C   0  0  0  0  0  0  0  0  0  0  0  0
   57.6840   32.3740   45.5280 C   0  0  0  0  0  0  0  0  0  0  0  0
   56.6440   33.0200   45.8320 O   0  0  0  0  0  0  0  0  0  0  0  0
   58.9700   32.9010   45.8890 N   0  0  0  0  0  0  0  0  0  0  0  0
   59.3010   34.2990   45.6090 C   0  0  0  0  0  0  0  0  0  0  0  0
   60.0004   34.3495   44.7615 H   0  0  0  0  0  0  0  0  0  0  0  0
   58.3853   34.8535   45.3559 H   0  0  0  0  0  0  0  0  0  0  0  0
   59.9530   34.9170   46.8500 C   0  0  0  0  0  0  0  0  0  0  0  0
   60.2419   35.9516   46.6132 H   0  0  0  0  0  0  0  0  0  0  0  0
   59.2143   34.8669   47.6635 H   0  0  0  0  0  0  0  0  0  0  0  0
   61.1650   34.1820   47.3110 N   0  0  0  0  0  0  0  0  0  0  0  0
   61.2770   34.2150   48.7890 C   0  0  0  0  0  0  0  0  0  0  0  0
   61.9242   35.0960   48.9113 H   0  0  0  0  0  0  0  0  0  0  0  0
   61.6660   32.8660   49.4060 C   0  0  0  0  0  0  0  0  0  0  0  0
   61.8144   32.0626   48.6695 H   0  0  0  0  0  0  0  0  0  0  0  0
   62.6061   32.7638   49.9679 H   0  0  0  0  0  0  0  0  0  0  0  0
   60.3310   32.8040   50.1290 C   0  0  0  0  0  0  0  0  0  0  0  0
   59.7017   31.9506   49.8361 H   0  0  0  0  0  0  0  0  0  0  0  0
   60.2965   32.6790   51.2213 H   0  0  0  0  0  0  0  0  0  0  0  0
   59.9210   34.1220   49.4950 C   0  0  0  0  0  0  0  0  0  0  0  0
   59.0641   34.0419   48.8099 H   0  0  0  0  0  0  0  0  0  0  0  0
   59.5660   34.9520   50.1236 H   0  0  0  0  0  0  0  0  0  0  0  0
   61.2610   32.7880   46.7990 C   0  0  0  0  0  0  0  0  0  0  0  0
   61.7227   32.8121   45.8009 H   0  0  0  0  0  0  0  0  0  0  0  0
   61.8655   32.2145   47.5171 H   0  0  0  0  0  0  0  0  0  0  0  0
   59.8960   32.0940   46.6900 C   0  0  0  0  0  0  0  0  0  0  0  0
   60.0267   31.1121   46.2117 H   0  0  0  0  0  0  0  0  0  0  0  0
   59.4781   31.9722   47.7002 H   0  0  0  0  0  0  0  0  0  0  0  0
   58.1360   29.9170   45.3200 C   0  0  0  0  0  0  0  0  0  0  0  0
   58.6678   29.9506   46.2823 H   0  0  0  0  0  0  0  0  0  0  0  0
   56.5330   26.2320   45.7360 C   0  0  0  0  0  0  0  0  0  0  0  0
   55.7060   27.1780   45.6380 O   0  0  0  0  0  0  0  0  0  0  0  0
  1  2  1  0
  2  3  1  0
  3  4  1  0
  4  5  2  0
  5  6  1  0
  5  7  1  0
  4  8  1  0
  8  9  1  0
  9 10  2  0
 10 11  1  0
 10 12  1  0
 12 13  2  0
 13 14  1  0
 13 15  1  0
 15 16  1  0
 15 17  2  0
 17 18  1  0
 17 19  1  0
 19 20  1  0
 20 21  2  0
 20 22  1  0
 22 23  1  0
 23 24  1  0
 23 25  1  0
 23 26  1  0
 26 27  1  0
 26 28  1  0
 26 29  1  0
 29 30  1  0
 30 31  1  0
 30 32  1  0
 32 33  1  0
 32 34  1  0
 32 35  1  0
 35 36  1  0
 35 37  1  0
 35 38  1  0
 38 39  1  0
 38 40  1  0
 29 41  1  0
 41 42  1  0
 41 43  1  0
 41 44  1  0
 44 45  1  0
 44 46  1  0
 19 47  2  0
 47 48  1  0
  9 49  1  0
 49 50  2  0
 49  3  1  0
 47 12  1  0
 44 22  1  0
 38 30  1  0
M  END
>  <UniqueID>  (1) 
1

>  <SMILES>  (1) 
C=c1s/c(=C/c2cccc(C(=O)N3CCN(C4CCC4)CC3)c2)c(=O)n1O

>  <Energy>  (1) 
165.08562797382342

>  <Genealogy>  (1) 
C=c1s/c(=C/c2cccc(C(=O)N3CCN(C4CCC4)CC3)c2)c(=O)n1O (cis-trans isomerization)
C=c1s/c(=C/c2cccc(C(=O)N3CCN(C4CCC4)CC3)c2)c(=O)n1O (3D coordinates assigned)
C=c1s/c(=C/c2cccc(C(=O)N3CCN(C4CCC4)CC3)c2)c(=O)n1O (nonaromatic ring conformer: 165.08562797382342 kcal/mol)

>  <smiles>  (1) 
C=c1sc(=Cc2cccc(C(=O)N3CCN(C4CCC4)CC3)c2)c(=O)n1O

>  <score_type>  (1) 
oracle

>  <origin>  (1) 
adg

>  <m_score__min__energy>  (1) 
-10.800000000000001

>  <m_primary>  (1) 
energy

$$$$
1:0
     RDKit          3D

 39 41  0  0  1  0  0  0  0  0999 V2000
   63.4980   33.4550   46.7470 C   0  0  0  0  0  0  0  0  0  0  0  0
   62.3200   33.7480   47.6130 C   0  0  0  0  0  0  0  0  0  0  0  0
   62.3580   33.5560   48.9780 C   0  0  0  0  0  0  0  0  0  0  0  0
   61.2430   33.8410   49.7370 C   0  0  0  0  0  0  0  0  0  0  0  0
   60.0620   34.3220   49.1900 C   0  0  0  0  0  0  0  0  0  0  0  0
   60.0230   34.5100   47.8400 C   0  0  0  0  0  0  0  0  0  0  0  0
   58.8900   34.9930   47.1370 N   0  0  0  0  0  0  0  0  0  0  0  0
   58.3430   34.1970   46.2840 C   0  0  0  0  0  0  0  0  0  0  0  0
   57.2380   33.5020   46.2630 N   0  0  0  0  0  0  0  0  0  0  0  0
   57.0050   32.7920   45.2120 N   0  0  0  0  0  0  0  0  0  0  0  0
   57.6580   32.6680   44.2320 C   0  0  0  0  0  0  0  0  0  0  0  0
   57.6020   31.8250   42.6760 S   0  0  0  0  0  0  0  0  0  0  0  0
   56.4140   30.4610   42.7470 C   0  0  0  0  0  0  0  0  0  0  0  0
   56.9140   29.3950   43.7100 C   0  0  0  0  0  0  0  0  0  0  0  0
   57.4340   28.3430   43.3100 O   0  0  0  0  0  0  0  0  0  0  0  0
   56.7280   29.7360   45.0850 N   0  0  0  0  0  0  0  0  0  0  0  0
   57.6450   29.5730   45.9030 C   0  0  0  0  0  0  0  0  0  0  0  0
   58.4500   30.4120   46.5050 N   0  0  0  0  0  0  0  0  0  0  0  0
   59.3630   30.0240   47.3420 C   0  0  0  0  0  0  0  0  0  0  0  0
   60.3010   30.9700   48.0570 C   0  0  0  0  0  0  0  0  0  0  0  0
   59.4710   28.6440   47.5920 C   0  0  0  0  0  0  0  0  0  0  0  0
   58.1790   27.9070   46.5550 S   0  0  0  0  0  0  0  0  0  0  0  0
   59.1220   33.8050   44.6620 S   0  0  0  0  0  0  0  0  0  0  0  0
   61.1490   34.2210   47.0810 C   0  0  0  0  0  0  0  0  0  0  0  0
   64.3722   33.2376   47.3783 H   0  0  0  0  0  0  0  0  0  0  0  0
   63.2786   32.5841   46.1119 H   0  0  0  0  0  0  0  0  0  0  0  0
   63.7122   34.3272   46.1119 H   0  0  0  0  0  0  0  0  0  0  0  0
   63.2724   33.1777   49.4583 H   0  0  0  0  0  0  0  0  0  0  0  0
   61.2917   33.6800   50.8241 H   0  0  0  0  0  0  0  0  0  0  0  0
   59.1894   34.5435   49.8221 H   0  0  0  0  0  0  0  0  0  0  0  0
   56.5430   33.5180   47.0890 H   0  0  0  0  0  0  0  0  0  0  0  0
   55.4418   30.8406   43.0945 H   0  0  0  0  0  0  0  0  0  0  0  0
   56.3025   30.0226   41.7443 H   0  0  0  0  0  0  0  0  0  0  0  0
   58.3330   31.4800   46.2810 H   0  0  0  0  0  0  0  0  0  0  0  0
   60.1832   30.8512   49.1442 H   0  0  0  0  0  0  0  0  0  0  0  0
   61.3389   30.7412   47.7735 H   0  0  0  0  0  0  0  0  0  0  0  0
   60.0634   32.0059   47.7735 H   0  0  0  0  0  0  0  0  0  0  0  0
   60.1764   28.1305   48.2619 H   0  0  0  0  0  0  0  0  0  0  0  0
   61.0985   34.3803   45.9938 H   0  0  0  0  0  0  0  0  0  0  0  0
  1  2  1  0
  2  3  2  0
  3  4  1  0
  4  5  2  0
  5  6  1  0
  6  7  1  0
  7  8  2  0
  8  9  1  0
  9 10  1  0
 10 11  2  0
 11 12  1  0
 12 13  1  0
 13 14  1  0
 14 15  2  0
 14 16  1  0
 16 17  2  0
 17 18  1  0
 18 19  1  0
 19 20  1  0
 19 21  2  0
 21 22  1  0
 11 23  1  0
  6 24  2  0
 24  2  1  0
 23  8  1  0
 22 17  1  0
  1 25  1  0
  1 26  1  0
  1 27  1  0
  3 28  1  0
  4 29  1  0
  5 30  1  0
  9 31  1  0
 13 32  1  0
 13 33  1  0
 18 34  1  0
 20 35  1  0
 20 36  1  0
 20 37  1  0
 21 38  1  0
 24 39  1  0
M  END
>  <smiles>  (2) 
Cc1cccc(N=c2[nH]nc(SCC(=O)N=c3[nH]c(C)cs3)s2)c1

>  <score_type>  (2) 
oracle

>  <origin>  (2) 
adg

>  <m_score__min__energy>  (2) 
-8.3399999999999999

>  <m_primary>  (2) 
energy

$$$$
2:0
     RDKit          3D

 33 35  0  0  0  0  0  0  0  0999 V2000
   58.1940   33.3470   44.4280 C   0  0  0  0  0  0  0  0  0  0  0  0
   57.9360   32.0580   44.6850 C   0  0  0  0  0  0  0  0  0  0  0  0
   57.3440   31.2550   43.6950 C   0  0  0  0  0  0  0  0  0  0  0  0
   57.0680   29.9080   43.9430 C   0  0  0  0  0  0  0  0  0  0  0  0
   57.3750   29.3240   45.1890 C   0  0  0  0  0  0  0  0  0  0  0  0
   57.1080   28.0210   45.4290 C   0  0  0  0  0  0  0  0  0  0  0  0
   55.8550   27.5390   45.6150 N   0  0  0  0  0  0  0  0  0  0  0  0
   56.0490   26.2260   45.8150 C   0  0  0  0  0  0  0  0  0  0  0  0
   55.1040   25.4110   45.9860 O   0  0  0  0  0  0  0  0  0  0  0  0
   57.3960   25.9270   45.7570 C   0  0  0  0  0  0  0  0  0  0  0  0
   58.0080   24.7380   45.8830 C   0  0  0  0  0  0  0  0  0  0  0  0
   57.5620   23.4900   45.2320 C   0  0  0  0  0  0  0  0  0  0  0  0
   57.3660   23.4410   43.8400 C   0  0  0  0  0  0  0  0  0  0  0  0
   56.8970   22.2710   43.2350 C   0  0  0  0  0  0  0  0  0  0  0  0
   56.5960   21.1470   44.0140 C   0  0  0  0  0  0  0  0  0  0  0  0
   56.1280   19.9760   43.4220 O   0  0  0  0  0  0  0  0  0  0  0  0
   56.7640   21.2000   45.4020 C   0  0  0  0  0  0  0  0  0  0  0  0
   57.2350   22.3680   46.0130 C   0  0  0  0  0  0  0  0  0  0  0  0
   57.3840   22.4020   47.3960 O   0  0  0  0  0  0  0  0  0  0  0  0
   58.0670   27.0640   45.5020 N   0  0  0  0  0  0  0  0  0  0  0  0
   57.9700   30.1350   46.1790 C   0  0  0  0  0  0  0  0  0  0  0  0
   58.2480   31.4850   45.9340 C   0  0  0  0  0  0  0  0  0  0  0  0
   58.8350   32.2430   46.9440 O   0  0  0  0  0  0  0  0  0  0  0  0
   58.6572   33.9796   45.1995 H   0  0  0  0  0  0  0  0  0  0  0  0
   57.9427   33.7729   43.4455 H   0  0  0  0  0  0  0  0  0  0  0  0
   57.0957   31.6910   42.7161 H   0  0  0  0  0  0  0  0  0  0  0  0
   56.6050   29.2950   43.1557 H   0  0  0  0  0  0  0  0  0  0  0  0
   58.9059   24.6906   46.5167 H   0  0  0  0  0  0  0  0  0  0  0  0
   57.5826   24.3268   43.2248 H   0  0  0  0  0  0  0  0  0  0  0  0
   56.7641   22.2334   42.1437 H   0  0  0  0  0  0  0  0  0  0  0  0
   56.6040   19.0920   43.5480 H   0  0  0  0  0  0  0  0  0  0  0  0
   56.5247   20.3194   46.0162 H   0  0  0  0  0  0  0  0  0  0  0  0
   58.2191   29.6997   47.1580 H   0  0  0  0  0  0  0  0  0  0  0  0
  1  2  2  0
  2  3  1  0
  3  4  2  0
  4  5  1  0
  5  6  2  3
  6  7  1  0
  7  8  1  0
  8  9  2  0
  8 10  1  0
 10 11  2  3
 11 12  1  0
 12 13  2  0
 13 14  1  0
 14 15  2  0
 15 16  1  0
 15 17  1  0
 17 18  2  0
 18 19  1  0
 10 20  1  0
  5 21  1  0
 21 22  2  0
 22 23  1  0
 22  2  1  0
 20  6  1  0
 18 12  1  0
  1 24  1  0
  1 25  1  0
  3 26  1  0
  4 27  1  0
 11 28  1  0
 13 29  1  0
 14 30  1  0
 16 31  1  0
 17 32  1  0
 21 33  1  0
M  CHG  4   7  -1  19  -1  20  -1  23  -1
M  END
>  <UniqueID>  (3) 
2

>  <SMILES>  (3) 
C=c1ccc(=c2[n-]c(=O)c(=Cc3ccc(O)cc3[O-])[n-]2)cc1[O-]

>  <Energy>  (3) 
79.51351845473282

>  <Genealogy>  (3) 
C=c1ccc(=c2[n-]c(=O)c(=Cc3ccc(O)cc3[O-])[n-]2)cc1[O-] (protonated)
C=c1ccc(=c2[n-]c(=O)c(=Cc3ccc(O)cc3[O-])[n-]2)cc1[O-] (3D coordinates assigned)
C=c1ccc(=c2[n-]c(=O)c(=Cc3ccc(O)cc3[O-])[n-]2)cc1[O-] (optimized conformer: 79.51351845473282 kcal/mol)

>  <smiles>  (3) 
C=c1ccc(=c2[nH]c(=O)c(=Cc3ccc(O)cc3O)[nH]2)cc1O

>  <score_type>  (3) 
oracle

>  <origin>  (3) 
adg

>  <m_score__min__energy>  (3) 
-14.48

>  <m_primary>  (3) 
energy

$$$$
3:0
     RDKit          3D

 54 57  0  0  0  0  0  0  0  0999 V2000
   57.8040   25.8710   47.5730 C   0  0  0  0  0  0  0  0  0  0  0  0
   58.0550   26.8350   46.5100 N   0  0  0  0  0  0  0  0  0  0  0  0
   57.1700   27.3840   45.6530 C   0  0  0  0  0  0  0  0  0  0  0  0
   55.8080   27.0780   45.6310 O   0  0  0  0  0  0  0  0  0  0  0  0
   57.8330   28.2750   44.8380 C   0  0  0  0  0  0  0  0  0  0  0  0
   57.2080   29.1980   43.8330 C   0  0  0  0  0  0  0  0  0  0  0  0
   56.0980   29.9610   44.4810 C   0  0  0  0  0  0  0  0  0  0  0  0
   55.1280   29.3350   44.9930 O   0  0  0  0  0  0  0  0  0  0  0  0
   56.1630   31.3910   44.5240 N   0  0  0  0  0  0  0  0  0  0  0  0
   57.3130   32.2180   44.7880 C   0  0  0  0  0  0  0  0  0  0  0  0
   57.9080   33.0180   43.7980 C   0  0  0  0  0  0  0  0  0  0  0  0
   58.9910   33.8450   44.1250 C   0  0  0  0  0  0  0  0  0  0  0  0
   59.4660   33.8940   45.4340 C   0  0  0  0  0  0  0  0  0  0  0  0
   58.8600   33.1250   46.4390 C   0  0  0  0  0  0  0  0  0  0  0  0
   59.2900   33.2470   47.8540 C   0  0  0  0  0  0  0  0  0  0  0  0
   59.8280   34.3150   48.2430 O   0  0  0  0  0  0  0  0  0  0  0  0
   59.2550   32.1120   48.7330 N   0  0  0  0  0  0  0  0  0  0  0  0
   58.9820   32.3140   50.1670 C   0  0  0  0  0  0  0  0  0  0  0  0
   60.3010   32.3680   50.9660 C   0  0  0  0  0  0  0  0  0  0  0  0
   61.4470   32.2450   50.0480 N   0  0  0  0  0  0  0  0  0  0  0  0
   62.3900   33.3460   49.9520 C   0  0  0  0  0  0  0  0  0  0  0  0
   62.5900   34.0420   50.9970 O   0  0  0  0  0  0  0  0  0  0  0  0
   63.0780   33.8710   48.6910 C   0  0  0  0  0  0  0  0  0  0  0  0
   63.7650   32.8000   47.8500 C   0  0  0  0  0  0  0  0  0  0  0  0
   62.5910   33.5900   47.2800 C   0  0  0  0  0  0  0  0  0  0  0  0
   61.4240   31.0170   49.2340 C   0  0  0  0  0  0  0  0  0  0  0  0
   60.1170   30.9600   48.4060 C   0  0  0  0  0  0  0  0  0  0  0  0
   57.7910   32.2750   46.1010 C   0  0  0  0  0  0  0  0  0  0  0  0
   59.1380   28.3240   45.1800 N   0  0  0  0  0  0  0  0  0  0  0  0
   59.2270   27.4260   46.1980 C   0  0  0  0  0  0  0  0  0  0  0  0
   60.3170   27.1510   46.7590 O   0  0  0  0  0  0  0  0  0  0  0  0
   57.9315   26.3607   48.5497 H   0  0  0  0  0  0  0  0  0  0  0  0
   56.7763   25.4885   47.4860 H   0  0  0  0  0  0  0  0  0  0  0  0
   58.5147   25.0359   47.4860 H   0  0  0  0  0  0  0  0  0  0  0  0
   55.1420   27.7210   45.2260 H   0  0  0  0  0  0  0  0  0  0  0  0
   57.9668   29.9010   43.4590 H   0  0  0  0  0  0  0  0  0  0  0  0
   56.8081   28.6101   42.9937 H   0  0  0  0  0  0  0  0  0  0  0  0
   57.5241   32.9952   42.7674 H   0  0  0  0  0  0  0  0  0  0  0  0
   59.4678   34.4576   43.3456 H   0  0  0  0  0  0  0  0  0  0  0  0
   60.3216   34.5397   45.6811 H   0  0  0  0  0  0  0  0  0  0  0  0
   58.4380   33.2605   50.3021 H   0  0  0  0  0  0  0  0  0  0  0  0
   58.3769   31.4727   50.5359 H   0  0  0  0  0  0  0  0  0  0  0  0
   60.3640   33.3264   51.5022 H   0  0  0  0  0  0  0  0  0  0  0  0
   60.3228   31.5374   51.6869 H   0  0  0  0  0  0  0  0  0  0  0  0
   63.3241   34.8171   49.1953 H   0  0  0  0  0  0  0  0  0  0  0  0
   64.7815   32.9696   47.4655 H   0  0  0  0  0  0  0  0  0  0  0  0
   63.9948   31.7326   47.9834 H   0  0  0  0  0  0  0  0  0  0  0  0
   62.7608   34.3285   46.4826 H   0  0  0  0  0  0  0  0  0  0  0  0
   61.6223   33.3265   46.8303 H   0  0  0  0  0  0  0  0  0  0  0  0
   62.2879   31.0142   48.5531 H   0  0  0  0  0  0  0  0  0  0  0  0
   61.4717   30.1409   49.8975 H   0  0  0  0  0  0  0  0  0  0  0  0
   60.3645   30.9842   47.3345 H   0  0  0  0  0  0  0  0  0  0  0  0
   59.5801   30.0306   48.6470 H   0  0  0  0  0  0  0  0  0  0  0  0
   57.3266   31.6491   46.8772 H   0  0  0  0  0  0  0  0  0  0  0  0
  1  2  1  0
  2  3  1  0
  3  4  1  0
  3  5  2  0
  5  6  1  0
  6  7  1  0
  7  8  2  0
  7  9  1  0
  9 10  1  0
 10 11  2  0
 11 12  1  0
 12 13  2  0
 13 14  1  0
 14 15  1  0
 15 16  2  0
 15 17  1  0
 17 18  1  0
 18 19  1  0
 19 20  1  0
 20 21  1  0
 21 22  2  0
 21 23  1  0
 23 24  1  0
 24 25  1  0
 20 26  1  0
 26 27  1  0
 14 28  2  0
  5 29  1  0
 29 30  1  0
 30 31  2  0
 30  2  1  0
 28 10  1  0
 27 17  1  0
 25 23  1  0
  1 32  1  0
  1 33  1  0
  1 34  1  0
  4 35  1  0
  6 36  1  0
  6 37  1  0
 11 38  1  0
 12 39  1  0
 13 40  1  0
 18 41  1  0
 18 42  1  0
 19 43  1  0
 19 44  1  0
 23 45  1  0
 24 46  1  0
 24 47  1  0
 25 48  1  0
 25 49  1  0
 26 50  1  0
 26 51  1  0
 27 52  1  0
 27 53  1  0
 28 54  1  0
M  CHG  2   9  -1  29  -1
M  END
>  <UniqueID>  (4) 
3

>  <SMILES>  (4) 
Cn1c(O)c(CC(=O)[N-]c2cccc(C(=O)N3CCN(C(=O)C4CC4)CC3)c2)[n-]c1=O

>  <Energy>  (4) 
381.2230628667744

>  <Genealogy>  (4) 
Cn1c(O)c(CC(=O)[N-]c2cccc(C(=O)N3CCN(C(=O)C4CC4)CC3)c2)[n-]c1=O (protonated)
Cn1c(O)c(CC(=O)[N-]c2cccc(C(=O)N3CCN(C(=O)C4CC4)CC3)c2)[n-]c1=O (3D coordinates assigned)
Cn1c(O)c(CC(=O)[N-]c2cccc(C(=O)N3CCN(C(=O)C4CC4)CC3)c2)[n-]c1=O (nonaromatic ring conformer: 381.2230628667744 kcal/mol)

>  <smiles>  (4) 
Cn1c(O)c(CC(=O)Nc2cccc(C(=O)N3CCN(C(=O)C4CC4)CC3)c2)[nH]c1=O

>  <score_type>  (4) 
oracle

>  <origin>  (4) 
adg

>  <m_score__min__energy>  (4) 
-13.1

>  <m_primary>  (4) 
energy

$$$$
4:0
     RDKit          3D

 32 34  0  0  0  0  0  0  0  0999 V2000
   56.2660   30.9740   44.5020 N   0  0  0  0  0  0  0  0  0  0  0  0
   57.1530   32.3730   44.9940 S   0  0  0  0  0  0  0  0  0  0  0  0
   57.5740   33.1540   43.7810 O   0  0  0  0  0  0  0  0  0  0  0  0
   56.2770   33.2470   45.8480 O   0  0  0  0  0  0  0  0  0  0  0  0
   58.5780   31.8800   45.9040 C   0  0  0  0  0  0  0  0  0  0  0  0
   59.5900   32.8070   46.1910 C   0  0  0  0  0  0  0  0  0  0  0  0
   60.7150   32.4140   46.9200 C   0  0  0  0  0  0  0  0  0  0  0  0
   60.8380   31.0950   47.3620 C   0  0  0  0  0  0  0  0  0  0  0  0
   59.8340   30.1560   47.0740 C   0  0  0  0  0  0  0  0  0  0  0  0
   59.9610   28.7560   47.5150 C   0  0  0  0  0  0  0  0  0  0  0  0
   60.6290   28.4390   48.6580 N   0  0  0  0  0  0  0  0  0  0  0  0
   60.5880   27.1140   48.9030 C   0  0  0  0  0  0  0  0  0  0  0  0
   61.1400   26.5840   49.9010 O   0  0  0  0  0  0  0  0  0  0  0  0
   59.7160   26.2700   47.7450 S   0  0  0  0  0  0  0  0  0  0  0  0
   59.3730   27.6630   46.8600 C   0  0  0  0  0  0  0  0  0  0  0  0
   58.4650   27.6970   45.6630 C   0  0  0  0  0  0  0  0  0  0  0  0
   57.2140   26.9160   45.9270 C   0  0  0  0  0  0  0  0  0  0  0  0
   57.1960   25.6430   46.3630 N   0  0  0  0  0  0  0  0  0  0  0  0
   55.8800   25.3420   46.3860 C   0  0  0  0  0  0  0  0  0  0  0  0
   55.4500   24.2150   46.7460 O   0  0  0  0  0  0  0  0  0  0  0  0
   55.0610   26.3400   45.9870 N   0  0  0  0  0  0  0  0  0  0  0  0
   55.9230   27.3270   45.6970 C   0  0  0  0  0  0  0  0  0  0  0  0
   55.5400   28.5750   45.2230 O   0  0  0  0  0  0  0  0  0  0  0  0
   58.6960   30.5600   46.3610 C   0  0  0  0  0  0  0  0  0  0  0  0
   56.9270   30.1660   44.5330 H   0  0  0  0  0  0  0  0  0  0  0  0
   55.5420   30.7980   45.2360 H   0  0  0  0  0  0  0  0  0  0  0  0
   59.4979   33.8459   45.8414 H   0  0  0  0  0  0  0  0  0  0  0  0
   61.5054   33.1448   47.1463 H   0  0  0  0  0  0  0  0  0  0  0  0
   61.7244   30.7904   47.9378 H   0  0  0  0  0  0  0  0  0  0  0  0
   58.1991   28.7410   45.4406 H   0  0  0  0  0  0  0  0  0  0  0  0
   58.9897   27.2471   44.8073 H   0  0  0  0  0  0  0  0  0  0  0  0
   57.8917   29.8373   46.1593 H   0  0  0  0  0  0  0  0  0  0  0  0
  1  2  1  0
  2  3  2  0
  2  4  2  0
  2  5  1  0
  5  6  2  0
  6  7  1  0
  7  8  2  0
  8  9  1  0
  9 10  1  0
 10 11  1  0
 11 12  1  0
 12 13  2  0
 12 14  1  0
 14 15  1  0
 15 16  1  0
 16 17  1  0
 17 18  1  0
 18 19  1  0
 19 20  2  0
 19 21  1  0
 21 22  1  0
 22 23  1  0
  9 24  2  0
 24  5  1  0
 15 10  2  0
 22 17  2  0
  1 25  1  0
  1 26  1  0
  6 27  1  0
  7 28  1  0
  8 29  1  0
 16 30  1  0
 16 31  1  0
 24 32  1  0
M  CHG  4  11  -1  18  -1  21  -1  23  -1
M  END
>  <UniqueID>  (5) 
4

>  <SMILES>  (5) 
NS(=O)(=O)c1cccc(-c2[n-]c(=O)sc2Cc2[n-]c(=O)[n-]c2[O-])c1

>  <Energy>  (5) 
95.33224443330437

>  <Genealogy>  (5) 
NS(=O)(=O)c1cccc(-c2[n-]c(=O)sc2Cc2[n-]c(=O)[n-]c2[O-])c1 (protonated)
NS(=O)(=O)c1cccc(-c2[n-]c(=O)sc2Cc2[n-]c(=O)[n-]c2[O-])c1 (3D coordinates assigned)
NS(=O)(=O)c1cccc(-c2[n-]c(=O)sc2Cc2[n-]c(=O)[n-]c2[O-])c1 (optimized conformer: 95.33224443330437 kcal/mol)

>  <smiles>  (5) 
NS(=O)(=O)c1cccc(-c2[nH]c(=O)sc2Cc2[nH]c(=O)[nH]c2O)c1

>  <score_type>  (5) 
oracle

>  <origin>  (5) 
adg

>  <m_score__min__energy>  (5) 
-16.870000000000001

>  <m_primary>  (5) 
energy

$$$$
5:0
     RDKit          3D

 65 68  0  0  0  0  0  0  0  0999 V2000
   61.7060   30.4640   46.9590 O   0  0  0  0  0  0  0  0  0  0  0  0
   60.9220   31.2970   47.4880 C   0  0  0  0  0  0  0  0  0  0  0  0
   61.4450   32.6360   47.9140 C   0  0  0  0  0  0  0  0  0  0  0  0
   60.3660   33.4090   48.5640 N   0  0  0  0  0  0  0  0  0  0  0  0
   60.7380   33.8060   49.9390 C   0  0  0  0  0  0  0  0  0  0  0  0
   59.6690   33.3520   50.8970 C   0  0  0  0  0  0  0  0  0  0  0  0
   59.5620   33.9220   52.1770 C   0  0  0  0  0  0  0  0  0  0  0  0
   58.5420   33.5150   53.0430 C   0  0  0  0  0  0  0  0  0  0  0  0
   57.6240   32.5430   52.6390 C   0  0  0  0  0  0  0  0  0  0  0  0
   57.7220   31.9760   51.3650 C   0  0  0  0  0  0  0  0  0  0  0  0
   58.7380   32.3790   50.4950 C   0  0  0  0  0  0  0  0  0  0  0  0
   59.9790   34.5800   47.7500 C   0  0  0  0  0  0  0  0  0  0  0  0
   59.1330   34.1360   46.5870 C   0  0  0  0  0  0  0  0  0  0  0  0
   59.6370   34.2290   45.2800 C   0  0  0  0  0  0  0  0  0  0  0  0
   58.8500   33.8400   44.1930 C   0  0  0  0  0  0  0  0  0  0  0  0
   57.5560   33.3550   44.4020 C   0  0  0  0  0  0  0  0  0  0  0  0
   57.0470   33.2600   45.7000 C   0  0  0  0  0  0  0  0  0  0  0  0
   57.8310   33.6500   46.7910 C   0  0  0  0  0  0  0  0  0  0  0  0
   59.5470   30.9600   47.7320 N   0  0  0  0  0  0  0  0  0  0  0  0
   58.9500   29.7090   47.3560 C   0  0  0  0  0  0  0  0  0  0  0  0
   59.1950   28.5690   48.1340 C   0  0  0  0  0  0  0  0  0  0  0  0
   58.6060   27.3470   47.8030 C   0  0  0  0  0  0  0  0  0  0  0  0
   57.7370   27.2540   46.7060 C   0  0  0  0  0  0  0  0  0  0  0  0
   56.9830   25.7120   46.2960 S   0  0  0  0  0  0  0  0  0  0  0  0
   57.0740   24.7960   47.4830 O   0  0  0  0  0  0  0  0  0  0  0  0
   55.5260   25.9410   46.0030 O   0  0  0  0  0  0  0  0  0  0  0  0
   57.7350   24.9420   44.9150 N   0  0  0  0  0  0  0  0  0  0  0  0
   56.7670   24.5860   43.8490 C   0  0  0  0  0  0  0  0  0  0  0  0
   56.8390   23.1160   43.4130 C   0  0  0  0  0  0  0  0  0  0  0  0
   56.8610   22.2130   44.6400 C   0  0  0  0  0  0  0  0  0  0  0  0
   58.0750   22.5070   45.5340 C   0  0  0  0  0  0  0  0  0  0  0  0
   58.7060   23.8950   45.2940 C   0  0  0  0  0  0  0  0  0  0  0  0
   57.4870   28.3920   45.9280 C   0  0  0  0  0  0  0  0  0  0  0  0
   58.0810   29.6150   46.2550 C   0  0  0  0  0  0  0  0  0  0  0  0
   62.2732   32.4959   48.6243 H   0  0  0  0  0  0  0  0  0  0  0  0
   61.8043   33.1843   47.0307 H   0  0  0  0  0  0  0  0  0  0  0  0
   61.6961   33.3381   50.2096 H   0  0  0  0  0  0  0  0  0  0  0  0
   60.8376   34.9002   49.9913 H   0  0  0  0  0  0  0  0  0  0  0  0
   60.2816   34.6894   52.4983 H   0  0  0  0  0  0  0  0  0  0  0  0
   58.4625   33.9617   54.0451 H   0  0  0  0  0  0  0  0  0  0  0  0
   56.8240   32.2237   53.3232 H   0  0  0  0  0  0  0  0  0  0  0  0
   56.9980   31.2113   51.0471 H   0  0  0  0  0  0  0  0  0  0  0  0
   58.8095   31.9332   49.4919 H   0  0  0  0  0  0  0  0  0  0  0  0
   59.4051   35.2831   48.3715 H   0  0  0  0  0  0  0  0  0  0  0  0
   60.8857   35.0745   47.3714 H   0  0  0  0  0  0  0  0  0  0  0  0
   60.6552   34.6095   45.1111 H   0  0  0  0  0  0  0  0  0  0  0  0
   59.2496   33.9156   43.1709 H   0  0  0  0  0  0  0  0  0  0  0  0
   56.9384   33.0481   43.5450 H   0  0  0  0  0  0  0  0  0  0  0  0
   56.0286   32.8781   45.8641 H   0  0  0  0  0  0  0  0  0  0  0  0
   57.4268   33.5759   47.8113 H   0  0  0  0  0  0  0  0  0  0  0  0
   58.9880   31.6050   48.3340 H   0  0  0  0  0  0  0  0  0  0  0  0
   59.8555   28.6375   49.0109 H   0  0  0  0  0  0  0  0  0  0  0  0
   58.8246   26.4530   48.4055 H   0  0  0  0  0  0  0  0  0  0  0  0
   55.7517   24.7882   44.2208 H   0  0  0  0  0  0  0  0  0  0  0  0
   57.0217   25.1943   42.9686 H   0  0  0  0  0  0  0  0  0  0  0  0
   55.9598   22.8743   42.7977 H   0  0  0  0  0  0  0  0  0  0  0  0
   57.7568   22.9557   42.8282 H   0  0  0  0  0  0  0  0  0  0  0  0
   55.9414   22.3769   45.2209 H   0  0  0  0  0  0  0  0  0  0  0  0
   56.9283   21.1693   44.2991 H   0  0  0  0  0  0  0  0  0  0  0  0
   57.7538   22.4494   46.5845 H   0  0  0  0  0  0  0  0  0  0  0  0
   58.8430   21.7596   45.2860 H   0  0  0  0  0  0  0  0  0  0  0  0
   59.2099   24.2100   46.2196 H   0  0  0  0  0  0  0  0  0  0  0  0
   59.4006   23.7855   44.4481 H   0  0  0  0  0  0  0  0  0  0  0  0
   56.8203   28.3231   45.0558 H   0  0  0  0  0  0  0  0  0  0  0  0
   57.8674   30.5072   45.6481 H   0  0  0  0  0  0  0  0  0  0  0  0
  1  2  2  0
  2  3  1  0
  3  4  1  0
  4  5  1  0
  5  6  1  0
  6  7  2  0
  7  8  1  0
  8  9  2  0
  9 10  1  0
 10 11  2  0
  4 12  1  0
 12 13  1  0
 13 14  2  0
 14 15  1  0
 15 16  2  0
 16 17  1  0
 17 18  2  0
  2 19  1  0
 19 20  1  0
 20 21  2  0
 21 22  1  0
 22 23  2  0
 23 24  1  0
 24 25  2  0
 24 26  2  0
 24 27  1  0
 27 28  1  0
 28 29  1  0
 29 30  1  0
 30 31  1  0
 31 32  1  0
 23 33  1  0
 33 34  2  0
 11  6  1  0
 18 13  1  0
 34 20  1  0
 32 27  1  0
  3 35  1  0
  3 36  1  0
  5 37  1  0
  5 38  1  0
  7 39  1  0
  8 40  1  0
  9 41  1  0
 10 42  1  0
 11 43  1  0
 12 44  1  0
 12 45  1  0
 14 46  1  0
 15 47  1  0
 16 48  1  0
 17 49  1  0
 18 50  1  0
 19 51  1  0
 21 52  1  0
 22 53  1  0
 28 54  1  0
 28 55  1  0
 29 56  1  0
 29 57  1  0
 30 58  1  0
 30 59  1  0
 31 60  1  0
 31 61  1  0
 32 62  1  0
 32 63  1  0
 33 64  1  0
 34 65  1  0
M  END
>  <UniqueID>  (6) 
5

>  <SMILES>  (6) 
O=C(CN(Cc1ccccc1)Cc1ccccc1)Nc1ccc(S(=O)(=O)N2CCCCC2)cc1

>  <Energy>  (6) 
77.22193258914629

>  <Genealogy>  (6) 
O=C(CN(Cc1ccccc1)Cc1ccccc1)Nc1ccc(S(=O)(=O)N2CCCCC2)cc1 (3D coordinates assigned)
O=C(CN(Cc1ccccc1)Cc1ccccc1)Nc1ccc(S(=O)(=O)N2CCCCC2)cc1 (nonaromatic ring conformer: 77.22193258914629 kcal/mol)

>  <smiles>  (6) 
O=C(CN(Cc1ccccc1)Cc1ccccc1)Nc1ccc(S(=O)(=O)N2CCCCC2)cc1

>  <score_type>  (6) 
oracle

>  <origin>  (6) 
adg

>  <m_score__min__energy>  (6) 
-9.9100000000000001

>  <m_primary>  (6) 
energy

$$$$
6:0
     RDKit          3D

 50 53  0  0  0  0  0  0  0  0999 V2000
   60.2810   30.4150   49.4310 H   0  0  0  0  0  0  0  0  0  0  0  0
   60.1320   31.2340   48.8530 O   0  0  0  0  0  0  0  0  0  0  0  0
   59.4170   31.1790   47.6560 C   0  0  0  0  0  0  0  0  0  0  0  0
   58.8960   30.0180   47.1210 C   0  0  0  0  0  0  0  0  0  0  0  0
   59.0660   28.7120   47.6800 N   0  0  0  0  0  0  0  0  0  0  0  0
   58.1250   27.8590   47.7000 N   0  0  0  0  0  0  0  0  0  0  0  0
   58.2850   26.5650   47.1200 C   0  0  0  0  0  0  0  0  0  0  0  0
   58.1310   25.5270   47.8210 O   0  0  0  0  0  0  0  0  0  0  0  0
   58.6700   26.4420   45.6780 C   0  0  0  0  0  0  0  0  0  0  0  0
   59.3050   27.2975   45.4042 H   0  0  0  0  0  0  0  0  0  0  0  0
   59.2100   25.4927   45.5468 H   0  0  0  0  0  0  0  0  0  0  0  0
   57.4360   26.4230   44.7600 C   0  0  0  0  0  0  0  0  0  0  0  0
   56.8580   27.3446   44.9230 H   0  0  0  0  0  0  0  0  0  0  0  0
   57.7876   26.3521   43.7201 H   0  0  0  0  0  0  0  0  0  0  0  0
   56.5450   25.2340   45.0330 C   0  0  0  0  0  0  0  0  0  0  0  0
   56.9680   23.9390   44.6720 C   0  0  0  0  0  0  0  0  0  0  0  0
   57.9572   23.7944   44.2132 H   0  0  0  0  0  0  0  0  0  0  0  0
   56.1370   22.8380   44.8940 C   0  0  0  0  0  0  0  0  0  0  0  0
   56.4708   21.8310   44.6033 H   0  0  0  0  0  0  0  0  0  0  0  0
   54.8860   23.0130   45.4830 C   0  0  0  0  0  0  0  0  0  0  0  0
   54.2346   22.1444   45.6594 H   0  0  0  0  0  0  0  0  0  0  0  0
   54.4600   24.2910   45.8490 C   0  0  0  0  0  0  0  0  0  0  0  0
   53.4730   24.4257   46.3155 H   0  0  0  0  0  0  0  0  0  0  0  0
   55.2810   25.4010   45.6260 C   0  0  0  0  0  0  0  0  0  0  0  0
   54.8380   26.6620   45.9940 O   0  0  0  0  0  0  0  0  0  0  0  0
   58.2950   30.3800   45.9290 C   0  0  0  0  0  0  0  0  0  0  0  0
   57.6420   29.6260   44.9480 C   0  0  0  0  0  0  0  0  0  0  0  0
   57.4931   28.5432   45.0721 H   0  0  0  0  0  0  0  0  0  0  0  0
   57.1820   30.2920   43.8000 C   0  0  0  0  0  0  0  0  0  0  0  0
   56.6660   29.7256   43.0108 H   0  0  0  0  0  0  0  0  0  0  0  0
   57.3760   31.6790   43.6510 C   0  0  0  0  0  0  0  0  0  0  0  0
   57.0210   32.1848   42.7410 H   0  0  0  0  0  0  0  0  0  0  0  0
   58.0210   32.4240   44.6580 C   0  0  0  0  0  0  0  0  0  0  0  0
   58.1639   33.5097   44.5540 H   0  0  0  0  0  0  0  0  0  0  0  0
   58.4760   31.7430   45.7970 C   0  0  0  0  0  0  0  0  0  0  0  0
   59.1610   32.2450   46.8550 N   0  0  0  0  0  0  0  0  0  0  0  0
   59.5720   33.6350   47.0900 C   0  0  0  0  0  0  0  0  0  0  0  0
   59.4406   34.2111   46.1622 H   0  0  0  0  0  0  0  0  0  0  0  0
   58.9495   34.0541   47.8943 H   0  0  0  0  0  0  0  0  0  0  0  0
   61.0180   33.7050   47.5140 C   0  0  0  0  0  0  0  0  0  0  0  0
   62.0410   33.4860   46.5730 C   0  0  0  0  0  0  0  0  0  0  0  0
   61.7823   33.2572   45.5286 H   0  0  0  0  0  0  0  0  0  0  0  0
   63.3820   33.5570   46.9550 C   0  0  0  0  0  0  0  0  0  0  0  0
   64.1750   33.3851   46.2123 H   0  0  0  0  0  0  0  0  0  0  0  0
   63.7170   33.8460   48.2790 C   0  0  0  0  0  0  0  0  0  0  0  0
   64.7738   33.8926   48.5807 H   0  0  0  0  0  0  0  0  0  0  0  0
   62.7120   34.0760   49.2210 C   0  0  0  0  0  0  0  0  0  0  0  0
   62.9792   34.3097   50.2622 H   0  0  0  0  0  0  0  0  0  0  0  0
   61.3660   34.0100   48.8440 C   0  0  0  0  0  0  0  0  0  0  0  0
   60.4070   34.2510   49.7720 F   0  0  0  0  0  0  0  0  0  0  0  0
  1  2  1  0
  2  3  1  0
  3  4  2  0
  4  5  1  0
  5  6  2  0
  6  7  1  0
  7  8  2  0
  7  9  1  0
  9 10  1  0
  9 11  1  0
  9 12  1  0
 12 13  1  0
 12 14  1  0
 12 15  1  0
 15 16  2  0
 16 17  1  0
 16 18  1  0
 18 19  1  0
 18 20  2  0
 20 21  1  0
 20 22  1  0
 22 23  1  0
 22 24  2  0
 24 25  1  0
  4 26  1  0
 26 27  2  0
 27 28  1  0
 27 29  1  0
 29 30  1  0
 29 31  2  0
 31 32  1  0
 31 33  1  0
 33 34  1  0
 33 35  2  0
 35 36  1  0
 36 37  1  0
 37 38  1  0
 37 39  1  0
 37 40  1  0
 40 41  2  0
 41 42  1  0
 41 43  1  0
 43 44  1  0
 43 45  2  0
 45 46  1  0
 45 47  1  0
 47 48  1  0
 47 49  2  0
 49 50  1  0
 36  3  1  0
 49 40  1  0
 24 15  1  0
 35 26  1  0
M  CHG  1  25  -1
M  END
>  <UniqueID>  (7) 
6

>  <SMILES>  (7) 
O=C(CCc1ccccc1[O-])/N=N/c1c(O)n(Cc2ccccc2F)c2ccccc12

>  <Energy>  (7) 
85.14861657438193

>  <Genealogy>  (7) 
O=C(CCc1ccccc1[O-])N=Nc1c(O)n(Cc2ccccc2F)c2ccccc12 (protonated)
O=C(CCc1ccccc1[O-])/N=N/c1c(O)n(Cc2ccccc2F)c2ccccc12 (cis-trans isomerization)
O=C(CCc1ccccc1[O-])/N=N/c1c(O)n(Cc2ccccc2F)c2ccccc12 (3D coordinates assigned)
O=C(CCc1ccccc1[O-])/N=N/c1c(O)n(Cc2ccccc2F)c2ccccc12 (optimized conformer: 85.14861657438193 kcal/mol)

>  <smiles>  (7) 
O=C(CCc1ccccc1O)N=Nc1c(O)n(Cc2ccccc2F)c2ccccc12

>  <score_type>  (7) 
oracle

>  <origin>  (7) 
adg

>  <m_score__min__energy>  (7) 
-12.470000000000001

>  <m_primary>  (7) 
energy

$$$$
7:0
     RDKit          3D

 62 65  0  0  0  0  0  0  0  0999 V2000
   64.4270   33.4620   48.9830 C   0  0  0  0  0  0  0  0  0  0  0  0
   63.4570   32.5000   48.3670 C   0  0  0  0  0  0  0  0  0  0  0  0
   63.7390   31.7310   47.2970 N   0  0  0  0  0  0  0  0  0  0  0  0
   62.7050   30.9770   47.0540 O   0  0  0  0  0  0  0  0  0  0  0  0
   61.7470   31.2090   47.9270 C   0  0  0  0  0  0  0  0  0  0  0  0
   60.4310   30.4990   47.9370 C   0  0  0  0  0  0  0  0  0  0  0  0
   62.1880   32.1730   48.8240 C   0  0  0  0  0  0  0  0  0  0  0  0
   61.4500   32.7530   50.0020 C   0  0  0  0  0  0  0  0  0  0  0  0
   60.6050   33.8360   49.6100 O   0  0  0  0  0  0  0  0  0  0  0  0
   59.7760   33.8520   48.4760 C   0  0  0  0  0  0  0  0  0  0  0  0
   60.1530   34.6510   47.3900 C   0  0  0  0  0  0  0  0  0  0  0  0
   59.3640   34.7020   46.2370 C   0  0  0  0  0  0  0  0  0  0  0  0
   58.1910   33.9260   46.1330 C   0  0  0  0  0  0  0  0  0  0  0  0
   57.3890   33.9560   44.8760 C   0  0  0  0  0  0  0  0  0  0  0  0
   56.6560   34.9550   44.6260 O   0  0  0  0  0  0  0  0  0  0  0  0
   57.4680   32.9110   43.8990 N   0  0  0  0  0  0  0  0  0  0  0  0
   57.6470   31.5200   44.1890 C   0  0  0  0  0  0  0  0  0  0  0  0
   58.7800   31.0510   44.8720 C   0  0  0  0  0  0  0  0  0  0  0  0
   58.9440   29.6810   45.1080 C   0  0  0  0  0  0  0  0  0  0  0  0
   57.9910   28.7550   44.6400 C   0  0  0  0  0  0  0  0  0  0  0  0
   58.2030   27.3320   44.8240 N   0  0  0  0  0  0  0  0  0  0  0  0
   58.5600   26.7610   46.1310 C   0  0  0  0  0  0  0  0  0  0  0  0
   57.3590   25.9670   46.6880 C   0  0  0  0  0  0  0  0  0  0  0  0
   56.4540   25.4860   45.6160 N   0  0  0  0  0  0  0  0  0  0  0  0
   55.5050   24.1370   46.1870 S   0  0  0  0  0  0  0  0  0  0  0  0
   55.9650   22.6650   45.2940 C   0  0  0  0  0  0  0  0  0  0  0  0
   54.0360   24.4030   45.9910 O   0  0  0  0  0  0  0  0  0  0  0  0
   55.7730   23.9120   47.6480 O   0  0  0  0  0  0  0  0  0  0  0  0
   57.1970   25.1110   44.3990 C   0  0  0  0  0  0  0  0  0  0  0  0
   57.8210   26.3740   43.7730 C   0  0  0  0  0  0  0  0  0  0  0  0
   56.8580   29.2410   43.9560 C   0  0  0  0  0  0  0  0  0  0  0  0
   56.6770   30.6110   43.7590 C   0  0  0  0  0  0  0  0  0  0  0  0
   57.8350   33.1030   47.2190 C   0  0  0  0  0  0  0  0  0  0  0  0
   58.5950   33.0930   48.3880 C   0  0  0  0  0  0  0  0  0  0  0  0
   64.3616   33.3972   50.0791 H   0  0  0  0  0  0  0  0  0  0  0  0
   65.4481   33.2098   48.6610 H   0  0  0  0  0  0  0  0  0  0  0  0
   64.1832   34.4852   48.6610 H   0  0  0  0  0  0  0  0  0  0  0  0
   64.6280   31.7230   46.7470 H   0  0  0  0  0  0  0  0  0  0  0  0
   60.1144   30.3282   48.9765 H   0  0  0  0  0  0  0  0  0  0  0  0
   59.6788   31.1137   47.4209 H   0  0  0  0  0  0  0  0  0  0  0  0
   60.5317   29.5328   47.4209 H   0  0  0  0  0  0  0  0  0  0  0  0
   60.8328   31.9659   50.4597 H   0  0  0  0  0  0  0  0  0  0  0  0
   62.1914   33.1362   50.7185 H   0  0  0  0  0  0  0  0  0  0  0  0
   61.0780   35.2438   47.4444 H   0  0  0  0  0  0  0  0  0  0  0  0
   59.6611   35.3540   45.4024 H   0  0  0  0  0  0  0  0  0  0  0  0
   59.5418   31.7626   45.2231 H   0  0  0  0  0  0  0  0  0  0  0  0
   59.8241   29.3246   45.6634 H   0  0  0  0  0  0  0  0  0  0  0  0
   59.4226   26.0884   46.0146 H   0  0  0  0  0  0  0  0  0  0  0  0
   58.8201   27.5715   46.8278 H   0  0  0  0  0  0  0  0  0  0  0  0
   57.7380   25.0985   47.2466 H   0  0  0  0  0  0  0  0  0  0  0  0
   56.7818   26.6424   47.3366 H   0  0  0  0  0  0  0  0  0  0  0  0
   56.2147   21.8661   46.0078 H   0  0  0  0  0  0  0  0  0  0  0  0
   55.1249   22.3423   44.6615 H   0  0  0  0  0  0  0  0  0  0  0  0
   56.8394   22.8780   44.6615 H   0  0  0  0  0  0  0  0  0  0  0  0
   57.9934   24.3984   44.6597 H   0  0  0  0  0  0  0  0  0  0  0  0
   56.5106   24.6432   43.6779 H   0  0  0  0  0  0  0  0  0  0  0  0
   58.7152   26.0901   43.1988 H   0  0  0  0  0  0  0  0  0  0  0  0
   57.0812   26.8470   43.1105 H   0  0  0  0  0  0  0  0  0  0  0  0
   56.1084   28.5327   43.5734 H   0  0  0  0  0  0  0  0  0  0  0  0
   55.7660   30.9768   43.2627 H   0  0  0  0  0  0  0  0  0  0  0  0
   56.9458   32.4597   47.1440 H   0  0  0  0  0  0  0  0  0  0  0  0
   58.2690   32.4878   49.2467 H   0  0  0  0  0  0  0  0  0  0  0  0
  1  2  1  0
  2  3  2  0
  3  4  1  0
  4  5  1  0
  5  6  1  0
  5  7  2  0
  7  8  1  0
  8  9  1  0
  9 10  1  0
 10 11  2  0
 11 12  1  0
 12 13  2  0
 13 14  1  0
 14 15  2  0
 14 16  1  0
 16 17  1  0
 17 18  2  0
 18 19  1  0
 19 20  2  0
 20 21  1  0
 21 22  1  0
 22 23  1  0
 23 24  1  0
 24 25  1  0
 25 26  1  0
 25 27  2  0
 25 28  2  0
 24 29  1  0
 29 30  1  0
 20 31  1  0
 31 32  2  0
 13 33  1  0
 33 34  2  0
  7  2  1  0
 34 10  1  0
 32 17  1  0
 30 21  1  0
  1 35  1  0
  1 36  1  0
  1 37  1  0
  3 38  1  0
  6 39  1  0
  6 40  1  0
  6 41  1  0
  8 42  1  0
  8 43  1  0
 11 44  1  0
 12 45  1  0
 18 46  1  0
 19 47  1  0
 22 48  1  0
 22 49  1  0
 23 50  1  0
 23 51  1  0
 26 52  1  0
 26 53  1  0
 26 54  1  0
 29 55  1  0
 29 56  1  0
 30 57  1  0
 30 58  1  0
 31 59  1  0
 32 60  1  0
 33 61  1  0
 34 62  1  0
M  CHG  2   3   1  16  -1
M  END
>  <UniqueID>  (8) 
7

>  <SMILES>  (8) 
Cc1[nH+]oc(C)c1COc1ccc(C(=O)[N-]c2ccc(N3CCN(S(C)(=O)=O)CC3)cc2)cc1

>  <Energy>  (8) 
108.13392600735224

>  <Genealogy>  (8) 
Cc1[nH+]oc(C)c1COc1ccc(C(=O)[N-]c2ccc(N3CCN(S(C)(=O)=O)CC3)cc2)cc1 (protonated)
Cc1[nH+]oc(C)c1COc1ccc(C(=O)[N-]c2ccc(N3CCN(S(C)(=O)=O)CC3)cc2)cc1 (3D coordinates assigned)
Cc1[nH+]oc(C)c1COc1ccc(C(=O)[N-]c2ccc(N3CCN(S(C)(=O)=O)CC3)cc2)cc1 (nonaromatic ring conformer: 108.13392600735224 kcal/mol)

>  <smiles>  (8) 
Cc1noc(C)c1COc1ccc(C(=O)Nc2ccc(N3CCN(S(C)(=O)=O)CC3)cc2)cc1

>  <score_type>  (8) 
oracle

>  <origin>  (8) 
adg

>  <m_score__min__energy>  (8) 
-10.390000000000001

>  <m_primary>  (8) 
energy

$$$$
8:0
     RDKit          3D

 47 49  0  0  0  0  0  0  0  0999 V2000
   54.7130   28.5520   44.4950 H   0  0  0  0  0  0  0  0  0  0  0  0
   55.5950   28.8340   44.9060 O   0  0  0  0  0  0  0  0  0  0  0  0
   56.3920   27.9460   45.6290 C   0  0  0  0  0  0  0  0  0  0  0  0
   57.6950   28.3260   45.9740 C   0  0  0  0  0  0  0  0  0  0  0  0
   58.0778   29.3085   45.6606 H   0  0  0  0  0  0  0  0  0  0  0  0
   58.5160   27.4640   46.7160 C   0  0  0  0  0  0  0  0  0  0  0  0
   59.8980   27.8860   47.0340 C   0  0  0  0  0  0  0  0  0  0  0  0
   60.6623   27.1026   47.1441 H   0  0  0  0  0  0  0  0  0  0  0  0
   60.2800   29.1630   47.1970 C   0  0  0  0  0  0  0  0  0  0  0  0
   61.1240   30.1180   46.0950 S   0  0  0  0  0  0  0  0  0  0  0  0
   61.1930   31.4560   47.1100 C   0  0  0  0  0  0  0  0  0  0  0  0
   61.7170   32.6250   46.7330 C   0  0  0  0  0  0  0  0  0  0  0  0
   61.7380   33.4706   47.4362 H   0  0  0  0  0  0  0  0  0  0  0  0
   62.1276   32.7423   45.7193 H   0  0  0  0  0  0  0  0  0  0  0  0
   60.6100   31.1940   48.3160 N   0  0  0  0  0  0  0  0  0  0  0  0
   60.5200   32.1400   49.4450 C   0  0  0  0  0  0  0  0  0  0  0  0
   59.7844   31.7598   50.1691 H   0  0  0  0  0  0  0  0  0  0  0  0
   61.5186   32.2234   49.8988 H   0  0  0  0  0  0  0  0  0  0  0  0
   60.0950   33.5180   48.9960 C   0  0  0  0  0  0  0  0  0  0  0  0
   60.5890   34.5210   49.5810 O   0  0  0  0  0  0  0  0  0  0  0  0
   59.1880   33.7200   47.8910 N   0  0  0  0  0  0  0  0  0  0  0  0
   59.2100   34.9930   47.1560 C   0  0  0  0  0  0  0  0  0  0  0  0
   58.3813   35.6291   47.5005 H   0  0  0  0  0  0  0  0  0  0  0  0
   60.1668   35.5040   47.3388 H   0  0  0  0  0  0  0  0  0  0  0  0
   59.0560   34.7230   45.6580 C   0  0  0  0  0  0  0  0  0  0  0  0
   59.0247   35.6861   45.1275 H   0  0  0  0  0  0  0  0  0  0  0  0
   59.9137   34.1127   45.3388 H   0  0  0  0  0  0  0  0  0  0  0  0
   57.7640   33.9300   45.3260 C   0  0  0  0  0  0  0  0  0  0  0  0
   57.0243   34.6674   44.9810 H   0  0  0  0  0  0  0  0  0  0  0  0
   58.0200   32.9190   44.1980 C   0  0  0  0  0  0  0  0  0  0  0  0
   58.2680   31.9395   44.6328 H   0  0  0  0  0  0  0  0  0  0  0  0
   57.1170   32.8263   43.5767 H   0  0  0  0  0  0  0  0  0  0  0  0
   58.8583   33.2673   43.5767 H   0  0  0  0  0  0  0  0  0  0  0  0
   57.1410   33.2380   46.5610 C   0  0  0  0  0  0  0  0  0  0  0  0
   56.5165   33.9684   47.0963 H   0  0  0  0  0  0  0  0  0  0  0  0
   56.5486   32.3841   46.2006 H   0  0  0  0  0  0  0  0  0  0  0  0
   58.2000   32.6930   47.5300 C   0  0  0  0  0  0  0  0  0  0  0  0
   57.6994   32.3430   48.4448 H   0  0  0  0  0  0  0  0  0  0  0  0
   58.7298   31.8688   47.0300 H   0  0  0  0  0  0  0  0  0  0  0  0
   60.0840   29.9280   48.3500 C   0  0  0  0  0  0  0  0  0  0  0  0
   59.4600   29.4860   49.3550 O   0  0  0  0  0  0  0  0  0  0  0  0
   58.0340   26.1910   47.0690 C   0  0  0  0  0  0  0  0  0  0  0  0
   58.6827   25.4928   47.6182 H   0  0  0  0  0  0  0  0  0  0  0  0
   56.7340   25.8090   46.7250 C   0  0  0  0  0  0  0  0  0  0  0  0
   56.3585   24.8172   47.0173 H   0  0  0  0  0  0  0  0  0  0  0  0
   55.9100   26.6830   46.0110 C   0  0  0  0  0  0  0  0  0  0  0  0
   54.6190   26.2900   45.6770 O   0  0  0  0  0  0  0  0  0  0  0  0
  1  2  1  0
  2  3  1  0
  3  4  2  0
  4  5  1  0
  4  6  1  0
  6  7  1  0
  7  8  1  0
  7  9  2  0
  9 10  1  0
 10 11  1  0
 11 12  2  0
 12 13  1  0
 12 14  1  0
 11 15  1  0
 15 16  1  0
 16 17  1  0
 16 18  1  0
 16 19  1  0
 19 20  2  0
 19 21  1  0
 21 22  1  0
 22 23  1  0
 22 24  1  0
 22 25  1  0
 25 26  1  0
 25 27  1  0
 25 28  1  0
 28 29  1  0
 28 30  1  0
 30 31  1  0
 30 32  1  0
 30 33  1  0
 28 34  1  0
 34 35  1  0
 34 36  1  0
 34 37  1  0
 37 38  1  0
 37 39  1  0
 15 40  1  0
 40 41  2  0
  6 42  2  0
 42 43  1  0
 42 44  1  0
 44 45  1  0
 44 46  2  0
 46 47  1  0
 46  3  1  0
 40  9  1  0
 37 21  1  0
M  CHG  1  47  -1
M  END
>  <UniqueID>  (9) 
8

>  <SMILES>  (9) 
C=c1s/c(=C\c2ccc([O-])c(O)c2)c(=O)n1CC(=O)N1CCC(C)CC1

>  <Energy>  (9) 
88.20484700941294

>  <Genealogy>  (9) 
C=c1sc(=Cc2ccc([O-])c(O)c2)c(=O)n1CC(=O)N1CCC(C)CC1 (protonated)
C=c1s/c(=C\c2ccc([O-])c(O)c2)c(=O)n1CC(=O)N1CCC(C)CC1 (cis-trans isomerization)
C=c1s/c(=C\c2ccc([O-])c(O)c2)c(=O)n1CC(=O)N1CCC(C)CC1 (3D coordinates assigned)
C=c1s/c(=C\c2ccc([O-])c(O)c2)c(=O)n1CC(=O)N1CCC(C)CC1 (nonaromatic ring conformer: 88.20484700941294 kcal/mol)

>  <smiles>  (9) 
C=c1sc(=Cc2ccc(O)c(O)c2)c(=O)n1CC(=O)N1CCC(C)CC1

>  <score_type>  (9) 
oracle

>  <origin>  (9) 
adg

>  <m_score__min__energy>  (9) 
-12.67

>  <m_primary>  (9) 
energy

$$$$
9:0
     RDKit          3D

 54 56  0  0  0  0  0  0  0  0999 V2000
   56.6790   22.5500   46.0290 C   0  0  0  0  0  0  0  0  0  0  0  0
   55.6200   23.2150   46.9160 C   0  0  0  0  0  0  0  0  0  0  0  0
   54.3940   23.5960   46.0730 C   0  0  0  0  0  0  0  0  0  0  0  0
   56.2200   24.4420   47.6340 C   0  0  0  0  0  0  0  0  0  0  0  0
   56.8790   25.3800   46.6670 C   0  0  0  0  0  0  0  0  0  0  0  0
   58.2120   25.4260   46.4510 N   0  0  0  0  0  0  0  0  0  0  0  0
   58.3620   26.4800   45.6180 C   0  0  0  0  0  0  0  0  0  0  0  0
   59.4870   26.8620   45.1990 O   0  0  0  0  0  0  0  0  0  0  0  0
   57.2020   27.0910   45.3000 N   0  0  0  0  0  0  0  0  0  0  0  0
   57.0110   28.3320   44.5500 C   0  0  0  0  0  0  0  0  0  0  0  0
   57.7780   29.4360   45.2060 C   0  0  0  0  0  0  0  0  0  0  0  0
   57.1790   30.4890   45.5600 O   0  0  0  0  0  0  0  0  0  0  0  0
   59.1830   29.2880   45.4430 N   0  0  0  0  0  0  0  0  0  0  0  0
   59.8720   29.9280   46.5290 C   0  0  0  0  0  0  0  0  0  0  0  0
   60.1230   29.2120   47.7080 C   0  0  0  0  0  0  0  0  0  0  0  0
   60.7690   29.8270   48.7820 C   0  0  0  0  0  0  0  0  0  0  0  0
   61.1580   31.1650   48.6940 C   0  0  0  0  0  0  0  0  0  0  0  0
   60.8980   31.9000   47.5290 C   0  0  0  0  0  0  0  0  0  0  0  0
   61.3930   33.5910   47.4120 S   0  0  0  0  0  0  0  0  0  0  0  0
   61.7570   34.0970   48.7810 O   0  0  0  0  0  0  0  0  0  0  0  0
   62.6130   33.6930   46.5380 O   0  0  0  0  0  0  0  0  0  0  0  0
   60.1200   34.5880   46.7470 N   0  0  0  0  0  0  0  0  0  0  0  0
   59.8840   34.2430   45.3330 C   0  0  0  0  0  0  0  0  0  0  0  0
   58.4890   34.7140   44.8880 C   0  0  0  0  0  0  0  0  0  0  0  0
   57.4180   34.1390   45.6270 O   0  0  0  0  0  0  0  0  0  0  0  0
   57.7950   33.6740   46.9160 C   0  0  0  0  0  0  0  0  0  0  0  0
   58.8920   34.5320   47.5720 C   0  0  0  0  0  0  0  0  0  0  0  0
   60.2430   31.2820   46.4550 C   0  0  0  0  0  0  0  0  0  0  0  0
   56.2700   26.4030   45.9760 C   0  0  0  0  0  0  0  0  0  0  0  0
   54.9150   26.7160   45.9950 O   0  0  0  0  0  0  0  0  0  0  0  0
   57.4404   22.0719   46.6628 H   0  0  0  0  0  0  0  0  0  0  0  0
   56.2006   21.7899   45.3939 H   0  0  0  0  0  0  0  0  0  0  0  0
   57.1558   23.3111   45.3939 H   0  0  0  0  0  0  0  0  0  0  0  0
   55.2918   22.5040   47.6885 H   0  0  0  0  0  0  0  0  0  0  0  0
   53.5577   23.8559   46.7387 H   0  0  0  0  0  0  0  0  0  0  0  0
   54.6396   24.4602   45.4383 H   0  0  0  0  0  0  0  0  0  0  0  0
   54.1066   22.7448   45.4383 H   0  0  0  0  0  0  0  0  0  0  0  0
   55.4150   24.9776   48.1586 H   0  0  0  0  0  0  0  0  0  0  0  0
   56.9826   24.0870   48.3428 H   0  0  0  0  0  0  0  0  0  0  0  0
   57.3722   28.1968   43.5198 H   0  0  0  0  0  0  0  0  0  0  0  0
   55.9415   28.5888   44.5337 H   0  0  0  0  0  0  0  0  0  0  0  0
   59.7280   28.6640   44.8060 H   0  0  0  0  0  0  0  0  0  0  0  0
   59.8094   28.1606   47.7872 H   0  0  0  0  0  0  0  0  0  0  0  0
   60.9720   29.2559   49.7000 H   0  0  0  0  0  0  0  0  0  0  0  0
   61.6701   31.6439   49.5415 H   0  0  0  0  0  0  0  0  0  0  0  0
   60.6469   34.7317   44.7092 H   0  0  0  0  0  0  0  0  0  0  0  0
   59.9432   33.1505   45.2192 H   0  0  0  0  0  0  0  0  0  0  0  0
   58.4405   35.8069   45.0033 H   0  0  0  0  0  0  0  0  0  0  0  0
   58.3633   34.3905   43.8442 H   0  0  0  0  0  0  0  0  0  0  0  0
   56.9072   33.6850   47.5653 H   0  0  0  0  0  0  0  0  0  0  0  0
   58.2029   32.6600   46.7919 H   0  0  0  0  0  0  0  0  0  0  0  0
   58.5091   35.5541   47.7087 H   0  0  0  0  0  0  0  0  0  0  0  0
   59.1516   34.0719   48.5368 H   0  0  0  0  0  0  0  0  0  0  0  0
   60.0175   31.8609   45.5472 H   0  0  0  0  0  0  0  0  0  0  0  0
  1  2  1  0
  2  3  1  0
  2  4  1  0
  4  5  1  0
  5  6  1  0
  6  7  1  0
  7  8  2  0
  7  9  1  0
  9 10  1  0
 10 11  1  0
 11 12  2  0
 11 13  1  0
 13 14  1  0
 14 15  2  0
 15 16  1  0
 16 17  2  0
 17 18  1  0
 18 19  1  0
 19 20  2  0
 19 21  2  0
 19 22  1  0
 22 23  1  0
 23 24  1  0
 24 25  1  0
 25 26  1  0
 26 27  1  0
 18 28  2  0
  9 29  1  0
 29 30  1  0
 29  5  2  0
 28 14  1  0
 27 22  1  0
  1 31  1  0
  1 32  1  0
  1 33  1  0
  2 34  1  0
  3 35  1  0
  3 36  1  0
  3 37  1  0
  4 38  1  0
  4 39  1  0
 10 40  1  0
 10 41  1  0
 13 42  1  0
 15 43  1  0
 16 44  1  0
 17 45  1  0
 23 46  1  0
 23 47  1  0
 24 48  1  0
 24 49  1  0
 26 50  1  0
 26 51  1  0
 27 52  1  0
 27 53  1  0
 28 54  1  0
M  CHG  2   6  -1  30  -1
M  END
>  <UniqueID>  (10) 
9

>  <SMILES>  (10) 
CC(C)Cc1[n-]c(=O)n(CC(=O)Nc2cccc(S(=O)(=O)N3CCOCC3)c2)c1[O-]

>  <Energy>  (10) 
91.26683944695837

>  <Genealogy>  (10) 
CC(C)Cc1[n-]c(=O)n(CC(=O)Nc2cccc(S(=O)(=O)N3CCOCC3)c2)c1[O-] (protonated)
CC(C)Cc1[n-]c(=O)n(CC(=O)Nc2cccc(S(=O)(=O)N3CCOCC3)c2)c1[O-] (3D coordinates assigned)
CC(C)Cc1[n-]c(=O)n(CC(=O)Nc2cccc(S(=O)(=O)N3CCOCC3)c2)c1[O-] (nonaromatic ring conformer: 91.26683944695837 kcal/mol)

>  <smiles>  (10) 
CC(C)Cc1[nH]c(=O)n(CC(=O)Nc2cccc(S(=O)(=O)N3CCOCC3)c2)c1O

>  <score_type>  (10) 
oracle

>  <origin>  (10) 
adg

>  <m_score__min__energy>  (10) 
-13.57

>  <m_primary>  (10) 
energy

$$$$
10:0
     RDKit          3D

 58 62  0  0  1  0  0  0  0  0999 V2000
   56.7180   21.7640   43.1490 C   0  0  0  0  0  0  0  0  0  0  0  0
   56.8700   22.9910   43.8720 N   0  0  0  0  0  0  0  0  0  0  0  0
   56.9080   24.1480   42.9970 C   0  0  0  0  0  0  0  0  0  0  0  0
   57.4460   25.3080   43.7830 C   0  0  0  0  0  0  0  0  0  0  0  0
   57.1950   25.2040   45.2070 N   0  0  0  0  0  0  0  0  0  0  0  0
   57.9560   26.0160   46.0930 C   0  0  0  0  0  0  0  0  0  0  0  0
   59.2290   25.6670   46.4960 C   0  0  0  0  0  0  0  0  0  0  0  0
   59.9680   26.4600   47.3600 C   0  0  0  0  0  0  0  0  0  0  0  0
   59.4520   27.6430   47.8560 C   0  0  0  0  0  0  0  0  0  0  0  0
   60.2150   28.4550   48.7430 N   0  0  0  0  0  0  0  0  0  0  0  0
   60.5900   29.6330   48.4340 C   0  0  0  0  0  0  0  0  0  0  0  0
   60.0180   30.5340   47.6170 N   0  0  0  0  0  0  0  0  0  0  0  0
   60.8130   31.6180   47.6400 C   0  0  0  0  0  0  0  0  0  0  0  0
   60.7220   32.8350   46.9970 C   0  0  0  0  0  0  0  0  0  0  0  0
   59.5890   33.0850   46.1120 C   0  0  0  0  0  0  0  0  0  0  0  0
   59.1390   34.3510   45.8000 C   0  0  0  0  0  0  0  0  0  0  0  0
   58.0630   34.5700   44.9610 C   0  0  0  0  0  0  0  0  0  0  0  0
   57.3950   33.4850   44.3950 C   0  0  0  0  0  0  0  0  0  0  0  0
   57.8450   32.2160   44.7050 C   0  0  0  0  0  0  0  0  0  0  0  0
   57.0820   30.7680   44.0520 S   0  0  0  0  0  0  0  0  0  0  0  0
   58.2040   29.4740   44.1110 N   0  0  0  0  0  0  0  0  0  0  0  0
   55.8520   30.4790   44.8490 O   0  0  0  0  0  0  0  0  0  0  0  0
   56.6630   31.0330   42.6390 O   0  0  0  0  0  0  0  0  0  0  0  0
   58.9180   32.0220   45.5450 C   0  0  0  0  0  0  0  0  0  0  0  0
   61.6640   33.8320   47.1590 C   0  0  0  0  0  0  0  0  0  0  0  0
   62.7520   33.5980   48.0080 C   0  0  0  0  0  0  0  0  0  0  0  0
   62.8050   32.3630   48.6320 C   0  0  0  0  0  0  0  0  0  0  0  0
   61.8700   31.4180   48.4490 N   0  0  0  0  0  0  0  0  0  0  0  0
   61.7300   30.1840   48.9430 N   0  0  0  0  0  0  0  0  0  0  0  0
   58.1800   28.0090   47.4640 C   0  0  0  0  0  0  0  0  0  0  0  0
   57.4520   27.2000   46.5960 C   0  0  0  0  0  0  0  0  0  0  0  0
   56.2050   24.3110   45.7610 C   0  0  0  0  0  0  0  0  0  0  0  0
   55.7540   23.2540   44.7910 C   0  0  0  0  0  0  0  0  0  0  0  0
   56.6147   20.9303   43.8592 H   0  0  0  0  0  0  0  0  0  0  0  0
   55.8199   21.8201   42.5163 H   0  0  0  0  0  0  0  0  0  0  0  0
   57.6026   21.5992   42.5163 H   0  0  0  0  0  0  0  0  0  0  0  0
   57.5630   23.9441   42.1371 H   0  0  0  0  0  0  0  0  0  0  0  0
   55.8994   24.3761   42.6220 H   0  0  0  0  0  0  0  0  0  0  0  0
   58.5330   25.3631   43.6236 H   0  0  0  0  0  0  0  0  0  0  0  0
   56.9274   26.2103   43.4267 H   0  0  0  0  0  0  0  0  0  0  0  0
   59.6702   24.7319   46.1205 H   0  0  0  0  0  0  0  0  0  0  0  0
   60.9793   26.1436   47.6552 H   0  0  0  0  0  0  0  0  0  0  0  0
   59.6560   35.2188   46.2354 H   0  0  0  0  0  0  0  0  0  0  0  0
   57.7348   35.5965   44.7405 H   0  0  0  0  0  0  0  0  0  0  0  0
   56.5370   33.6345   43.7230 H   0  0  0  0  0  0  0  0  0  0  0  0
   58.5640   29.2630   43.1540 H   0  0  0  0  0  0  0  0  0  0  0  0
   58.9560   29.6770   44.7780 H   0  0  0  0  0  0  0  0  0  0  0  0
   59.2475   30.9967   45.7689 H   0  0  0  0  0  0  0  0  0  0  0  0
   61.5612   34.7915   46.6310 H   0  0  0  0  0  0  0  0  0  0  0  0
   63.5286   34.3596   48.1718 H   0  0  0  0  0  0  0  0  0  0  0  0
   63.6479   32.1478   49.3052 H   0  0  0  0  0  0  0  0  0  0  0  0
   62.3960   29.7250   49.6140 H   0  0  0  0  0  0  0  0  0  0  0  0
   57.7395   28.9445   47.8393 H   0  0  0  0  0  0  0  0  0  0  0  0
   56.4402   27.5144   46.3003 H   0  0  0  0  0  0  0  0  0  0  0  0
   56.6357   23.8152   46.6435 H   0  0  0  0  0  0  0  0  0  0  0  0
   55.3239   24.9174   46.0177 H   0  0  0  0  0  0  0  0  0  0  0  0
   55.4901   22.3344   45.3339 H   0  0  0  0  0  0  0  0  0  0  0  0
   54.8668   23.5919   44.2355 H   0  0  0  0  0  0  0  0  0  0  0  0
  1  2  1  0
  2  3  1  0
  3  4  1  0
  4  5  1  0
  5  6  1  0
  6  7  2  0
  7  8  1  0
  8  9  2  0
  9 10  1  0
 10 11  2  0
 11 12  1  0
 12 13  2  0
 13 14  1  0
 14 15  1  0
 15 16  2  0
 16 17  1  0
 17 18  2  0
 18 19  1  0
 19 20  1  0
 20 21  1  0
 20 22  2  0
 20 23  2  0
 19 24  2  0
 14 25  2  0
 25 26  1  0
 26 27  2  0
 27 28  1  0
 28 29  1  0
  9 30  1  0
 30 31  2  0
  5 32  1  0
 32 33  1  0
 33  2  1  0
 31  6  1  0
 29 11  1  0
 28 13  1  0
 24 15  1  0
  1 34  1  0
  1 35  1  0
  1 36  1  0
  3 37  1  0
  3 38  1  0
  4 39  1  0
  4 40  1  0
  7 41  1  0
  8 42  1  0
 16 43  1  0
 17 44  1  0
 18 45  1  0
 21 46  1  0
 21 47  1  0
 24 48  1  0
 25 49  1  0
 26 50  1  0
 27 51  1  0
 29 52  1  0
 30 53  1  0
 31 54  1  0
 32 55  1  0
 32 56  1  0
 33 57  1  0
 33 58  1  0
M  END
>  <smiles>  (11) 
CN1CCN(c2ccc(N=c3nc4c(-c5cccc(S(N)(=O)=O)c5)cccn4[nH]3)cc2)CC1

>  <score_type>  (11) 
oracle

>  <origin>  (11) 
adg

>  <m_score__min__energy>  (11) 
-10.68

>  <m_primary>  (11) 
energy

$$$$
11:0
     RDKit          3D

 41 43  0  0  0  0  0  0  0  0999 V2000
   57.3990   33.0470   47.8090 O   0  0  0  0  0  0  0  0  0  0  0  0
   58.6220   33.2990   47.8190 C   0  0  0  0  0  0  0  0  0  0  0  0
   59.3770   33.1720   48.9990 N   0  0  0  0  0  0  0  0  0  0  0  0
   58.9030   32.7660   50.2640 C   0  0  0  0  0  0  0  0  0  0  0  0
   58.2960   31.5040   50.3550 C   0  0  0  0  0  0  0  0  0  0  0  0
   57.8010   31.0070   51.5300 C   0  0  0  0  0  0  0  0  0  0  0  0
   57.8760   31.7380   52.6970 C   0  0  0  0  0  0  0  0  0  0  0  0
   57.2410   31.0980   54.1830 Cl  0  0  0  0  0  0  0  0  0  0  0  0
   58.4690   32.9780   52.6130 C   0  0  0  0  0  0  0  0  0  0  0  0
   58.9710   33.4750   51.4220 C   0  0  0  0  0  0  0  0  0  0  0  0
   59.1800   33.7210   46.5550 N   0  0  0  0  0  0  0  0  0  0  0  0
   58.3920   33.3970   45.3880 C   0  0  0  0  0  0  0  0  0  0  0  0
   58.2900   31.9890   45.0350 C   0  0  0  0  0  0  0  0  0  0  0  0
   59.1450   31.0660   45.6490 C   0  0  0  0  0  0  0  0  0  0  0  0
   59.1090   29.7240   45.3590 C   0  0  0  0  0  0  0  0  0  0  0  0
   58.2190   29.2130   44.4380 C   0  0  0  0  0  0  0  0  0  0  0  0
   58.1240   27.3640   43.9960 Br  0  0  0  0  0  0  0  0  0  0  0  0
   57.3650   30.1000   43.8180 C   0  0  0  0  0  0  0  0  0  0  0  0
   57.4110   31.4490   44.1180 C   0  0  0  0  0  0  0  0  0  0  0  0
   60.4360   34.4420   46.4790 C   0  0  0  0  0  0  0  0  0  0  0  0
   61.6320   33.6300   46.7570 C   0  0  0  0  0  0  0  0  0  0  0  0
   62.9570   33.8440   46.3780 C   0  0  0  0  0  0  0  0  0  0  0  0
   63.7360   32.8460   46.8300 N   0  0  0  0  0  0  0  0  0  0  0  0
   62.9170   32.0080   47.4880 C   0  0  0  0  0  0  0  0  0  0  0  0
   61.6650   32.4750   47.4440 N   0  0  0  0  0  0  0  0  0  0  0  0
   60.4020   33.4130   48.9180 H   0  0  0  0  0  0  0  0  0  0  0  0
   58.2149   30.8900   49.4459 H   0  0  0  0  0  0  0  0  0  0  0  0
   57.3365   30.0100   51.5439 H   0  0  0  0  0  0  0  0  0  0  0  0
   58.5464   33.5936   53.5213 H   0  0  0  0  0  0  0  0  0  0  0  0
   59.4377   34.4710   51.4126 H   0  0  0  0  0  0  0  0  0  0  0  0
   57.3722   33.7714   45.5607 H   0  0  0  0  0  0  0  0  0  0  0  0
   58.9194   33.8674   44.5451 H   0  0  0  0  0  0  0  0  0  0  0  0
   59.8720   31.4287   46.3906 H   0  0  0  0  0  0  0  0  0  0  0  0
   59.8042   29.0430   45.8718 H   0  0  0  0  0  0  0  0  0  0  0  0
   56.6400   29.7310   43.0775 H   0  0  0  0  0  0  0  0  0  0  0  0
   56.7135   32.1244   43.6009 H   0  0  0  0  0  0  0  0  0  0  0  0
   60.5319   34.8562   45.4645 H   0  0  0  0  0  0  0  0  0  0  0  0
   60.3974   35.2143   47.2614 H   0  0  0  0  0  0  0  0  0  0  0  0
   63.3132   34.7051   45.7936 H   0  0  0  0  0  0  0  0  0  0  0  0
   64.7660   32.7110   46.7150 H   0  0  0  0  0  0  0  0  0  0  0  0
   63.2293   31.0788   47.9871 H   0  0  0  0  0  0  0  0  0  0  0  0
  1  2  2  0
  2  3  1  0
  3  4  1  0
  4  5  2  0
  5  6  1  0
  6  7  2  0
  7  8  1  0
  7  9  1  0
  9 10  2  0
  2 11  1  0
 11 12  1  0
 12 13  1  0
 13 14  2  0
 14 15  1  0
 15 16  2  0
 16 17  1  0
 16 18  1  0
 18 19  2  0
 11 20  1  0
 20 21  1  0
 21 22  2  0
 22 23  1  0
 23 24  1  0
 24 25  2  0
 10  4  1  0
 19 13  1  0
 25 21  1  0
  3 26  1  0
  5 27  1  0
  6 28  1  0
  9 29  1  0
 10 30  1  0
 12 31  1  0
 12 32  1  0
 14 33  1  0
 15 34  1  0
 18 35  1  0
 19 36  1  0
 20 37  1  0
 20 38  1  0
 22 39  1  0
 23 40  1  0
 24 41  1  0
M  END
>  <smiles>  (12) 
O=C(Nc1ccc(Cl)cc1)N(Cc1ccc(Br)cc1)Cc1c[nH]cn1

>  <score_type>  (12) 
oracle

>  <origin>  (12) 
adg

>  <m_score__min__energy>  (12) 
-7.7999999999999998

>  <m_primary>  (12) 
energy

$$$$
12:0
     RDKit          3D

 56 59  0  0  0  0  0  0  0  0999 V2000
   57.7350   31.9880   42.2920 C   0  0  0  0  0  0  0  0  0  0  0  0
   57.8010   32.3190   43.7430 C   0  0  0  0  0  0  0  0  0  0  0  0
   58.2550   33.4940   44.2200 N   0  0  0  0  0  0  0  0  0  0  0  0
   58.1300   33.3500   45.5540 C   0  0  0  0  0  0  0  0  0  0  0  0
   58.4950   34.4170   46.5380 C   0  0  0  0  0  0  0  0  0  0  0  0
   59.8470   34.1410   47.1390 C   0  0  0  0  0  0  0  0  0  0  0  0
   60.0860   34.4180   48.4980 C   0  0  0  0  0  0  0  0  0  0  0  0
   61.3540   34.2120   49.0420 C   0  0  0  0  0  0  0  0  0  0  0  0
   62.3960   33.7340   48.2370 C   0  0  0  0  0  0  0  0  0  0  0  0
   62.1700   33.4720   46.8860 C   0  0  0  0  0  0  0  0  0  0  0  0
   60.9040   33.6870   46.3330 C   0  0  0  0  0  0  0  0  0  0  0  0
   57.6230   32.1880   45.8960 O   0  0  0  0  0  0  0  0  0  0  0  0
   57.4180   31.5140   44.7990 C   0  0  0  0  0  0  0  0  0  0  0  0
   56.8610   30.1520   44.7610 C   0  0  0  0  0  0  0  0  0  0  0  0
   55.6620   29.9750   44.4220 O   0  0  0  0  0  0  0  0  0  0  0  0
   57.6700   29.0260   45.1320 N   0  0  0  0  0  0  0  0  0  0  0  0
   57.0620   27.8980   45.8430 C   0  0  0  0  0  0  0  0  0  0  0  0
   58.0590   27.2640   46.8360 C   0  0  0  0  0  0  0  0  0  0  0  0
   59.4860   27.3620   46.4240 N   0  0  0  0  0  0  0  0  0  0  0  0
   60.2540   28.3630   47.2070 C   0  0  0  0  0  0  0  0  0  0  0  0
   59.3830   29.5860   47.5230 C   0  0  0  0  0  0  0  0  0  0  0  0
   59.8230   30.2940   48.7790 C   0  0  0  0  0  0  0  0  0  0  0  0
   61.1520   30.2050   49.2130 C   0  0  0  0  0  0  0  0  0  0  0  0
   61.5480   30.8860   50.3680 C   0  0  0  0  0  0  0  0  0  0  0  0
   60.6510   31.6380   51.0590 N   0  0  0  0  0  0  0  0  0  0  0  0
   59.3610   31.7530   50.6510 C   0  0  0  0  0  0  0  0  0  0  0  0
   58.9230   31.0830   49.5060 C   0  0  0  0  0  0  0  0  0  0  0  0
   59.6450   27.5460   44.9670 C   0  0  0  0  0  0  0  0  0  0  0  0
   58.9860   28.8530   44.5030 C   0  0  0  0  0  0  0  0  0  0  0  0
   57.5212   30.9159   42.1698 H   0  0  0  0  0  0  0  0  0  0  0  0
   56.9367   32.5775   41.8174 H   0  0  0  0  0  0  0  0  0  0  0  0
   58.6983   32.2262   41.8174 H   0  0  0  0  0  0  0  0  0  0  0  0
   58.5189   35.3896   46.0248 H   0  0  0  0  0  0  0  0  0  0  0  0
   57.7447   34.4304   47.3422 H   0  0  0  0  0  0  0  0  0  0  0  0
   59.2715   34.7976   49.1324 H   0  0  0  0  0  0  0  0  0  0  0  0
   61.5360   34.4254   50.1056 H   0  0  0  0  0  0  0  0  0  0  0  0
   63.3928   33.5653   48.6706 H   0  0  0  0  0  0  0  0  0  0  0  0
   62.9886   33.0958   46.2548 H   0  0  0  0  0  0  0  0  0  0  0  0
   60.7350   33.4998   45.2623 H   0  0  0  0  0  0  0  0  0  0  0  0
   56.1814   28.2552   46.3970 H   0  0  0  0  0  0  0  0  0  0  0  0
   56.7717   27.1357   45.1050 H   0  0  0  0  0  0  0  0  0  0  0  0
   57.9459   27.7694   47.8064 H   0  0  0  0  0  0  0  0  0  0  0  0
   57.8185   26.1915   46.8795 H   0  0  0  0  0  0  0  0  0  0  0  0
   60.5892   27.9049   48.1492 H   0  0  0  0  0  0  0  0  0  0  0  0
   61.1203   28.6889   46.6127 H   0  0  0  0  0  0  0  0  0  0  0  0
   59.4437   30.2905   46.6803 H   0  0  0  0  0  0  0  0  0  0  0  0
   58.3528   29.2335   47.6793 H   0  0  0  0  0  0  0  0  0  0  0  0
   61.8794   29.6031   48.6486 H   0  0  0  0  0  0  0  0  0  0  0  0
   62.5881   30.8131   50.7184 H   0  0  0  0  0  0  0  0  0  0  0  0
   60.9610   32.1460   51.9200 H   0  0  0  0  0  0  0  0  0  0  0  0
   58.6584   32.3759   51.2240 H   0  0  0  0  0  0  0  0  0  0  0  0
   57.8772   31.1747   49.1774 H   0  0  0  0  0  0  0  0  0  0  0  0
   60.7172   27.5772   44.7231 H   0  0  0  0  0  0  0  0  0  0  0  0
   59.1574   26.7052   44.4520 H   0  0  0  0  0  0  0  0  0  0  0  0
   59.6315   29.6999   44.7787 H   0  0  0  0  0  0  0  0  0  0  0  0
   58.8525   28.8123   43.4119 H   0  0  0  0  0  0  0  0  0  0  0  0
  1  2  1  0
  2  3  1  0
  3  4  2  0
  4  5  1  0
  5  6  1  0
  6  7  2  0
  7  8  1  0
  8  9  2  0
  9 10  1  0
 10 11  2  0
  4 12  1  0
 12 13  1  0
 13 14  1  0
 14 15  2  0
 14 16  1  0
 16 17  1  0
 17 18  1  0
 18 19  1  0
 19 20  1  0
 20 21  1  0
 21 22  1  0
 22 23  2  0
 23 24  1  0
 24 25  2  0
 25 26  1  0
 26 27  2  0
 19 28  1  0
 28 29  1  0
 13  2  2  0
 29 16  1  0
 11  6  1  0
 27 22  1  0
  1 30  1  0
  1 31  1  0
  1 32  1  0
  5 33  1  0
  5 34  1  0
  7 35  1  0
  8 36  1  0
  9 37  1  0
 10 38  1  0
 11 39  1  0
 17 40  1  0
 17 41  1  0
 18 42  1  0
 18 43  1  0
 20 44  1  0
 20 45  1  0
 21 46  1  0
 21 47  1  0
 23 48  1  0
 24 49  1  0
 25 50  1  0
 26 51  1  0
 27 52  1  0
 28 53  1  0
 28 54  1  0
 29 55  1  0
 29 56  1  0
M  CHG  1  25   1
M  END
>  <UniqueID>  (13) 
10

>  <SMILES>  (13) 
Cc1nc(Cc2ccccc2)oc1C(=O)N1CCN(CCc2cc[nH+]cc2)CC1

>  <Energy>  (13) 
92.8424588402086

>  <Genealogy>  (13) 
Cc1nc(Cc2ccccc2)oc1C(=O)N1CCN(CCc2cc[nH+]cc2)CC1 (protonated)
Cc1nc(Cc2ccccc2)oc1C(=O)N1CCN(CCc2cc[nH+]cc2)CC1 (3D coordinates assigned)
Cc1nc(Cc2ccccc2)oc1C(=O)N1CCN(CCc2cc[nH+]cc2)CC1 (nonaromatic ring conformer: 92.8424588402086 kcal/mol)

>  <smiles>  (13) 
Cc1nc(Cc2ccccc2)oc1C(=O)N1CCN(CCc2ccncc2)CC1

>  <score_type>  (13) 
oracle

>  <origin>  (13) 
adg

>  <m_score__min__energy>  (13) 
-7.6799999999999997

>  <m_primary>  (13) 
energy

$$$$
13:0
     RDKit          3D

 61 64  0  0  0  0  0  0  0  0999 V2000
   56.1830   30.3490   52.6910 C   0  0  0  0  0  0  0  0  0  0  0  0
   57.0280   29.7730   51.7000 O   0  0  0  0  0  0  0  0  0  0  0  0
   57.9340   30.4990   50.9120 C   0  0  0  0  0  0  0  0  0  0  0  0
   57.9420   31.9060   50.8720 C   0  0  0  0  0  0  0  0  0  0  0  0
   58.8600   32.5830   50.0620 C   0  0  0  0  0  0  0  0  0  0  0  0
   59.7680   31.8640   49.2730 C   0  0  0  0  0  0  0  0  0  0  0  0
   60.6940   32.5830   48.3810 C   0  0  0  0  0  0  0  0  0  0  0  0
   61.8420   33.1390   48.8580 N   0  0  0  0  0  0  0  0  0  0  0  0
   62.5180   33.7830   47.8850 C   0  0  0  0  0  0  0  0  0  0  0  0
   63.6130   34.3710   48.0830 O   0  0  0  0  0  0  0  0  0  0  0  0
   61.7320   33.7220   46.4030 S   0  0  0  0  0  0  0  0  0  0  0  0
   60.4550   32.8100   47.0180 C   0  0  0  0  0  0  0  0  0  0  0  0
   59.2220   32.4480   46.2370 C   0  0  0  0  0  0  0  0  0  0  0  0
   59.1550   30.9650   46.0280 C   0  0  0  0  0  0  0  0  0  0  0  0
   60.2260   30.3040   45.9400 O   0  0  0  0  0  0  0  0  0  0  0  0
   57.8820   30.3020   46.0070 N   0  0  0  0  0  0  0  0  0  0  0  0
   57.7480   28.8810   46.1610 C   0  0  0  0  0  0  0  0  0  0  0  0
   58.7090   28.1920   46.9110 C   0  0  0  0  0  0  0  0  0  0  0  0
   58.6100   26.8140   47.0990 C   0  0  0  0  0  0  0  0  0  0  0  0
   57.5500   26.0980   46.5290 C   0  0  0  0  0  0  0  0  0  0  0  0
   57.4340   24.6100   46.7320 C   0  0  0  0  0  0  0  0  0  0  0  0
   56.0780   24.0270   46.2680 C   0  0  0  0  0  0  0  0  0  0  0  0
   56.1230   23.1380   45.0840 N   0  0  0  0  0  0  0  0  0  0  0  0
   57.1900   22.1250   45.0950 C   0  0  0  0  0  0  0  0  0  0  0  0
   56.9340   21.0940   43.9750 C   0  0  0  0  0  0  0  0  0  0  0  0
   55.9460   21.5220   43.0510 O   0  0  0  0  0  0  0  0  0  0  0  0
   56.2170   22.8420   42.6260 C   0  0  0  0  0  0  0  0  0  0  0  0
   56.0310   23.8370   43.7890 C   0  0  0  0  0  0  0  0  0  0  0  0
   56.5720   26.7850   45.7920 C   0  0  0  0  0  0  0  0  0  0  0  0
   56.6480   28.1820   45.6220 C   0  0  0  0  0  0  0  0  0  0  0  0
   55.6170   28.9190   44.9420 N   0  0  0  0  0  0  0  0  0  0  0  0
   55.8000   30.0070   44.0330 C   0  0  0  0  0  0  0  0  0  0  0  0
   55.8950   31.1780   44.4800 O   0  0  0  0  0  0  0  0  0  0  0  0
   59.7720   30.4630   49.3260 C   0  0  0  0  0  0  0  0  0  0  0  0
   58.8600   29.7880   50.1420 C   0  0  0  0  0  0  0  0  0  0  0  0
   56.5618   30.0908   53.6909 H   0  0  0  0  0  0  0  0  0  0  0  0
   56.1731   31.4427   52.5738 H   0  0  0  0  0  0  0  0  0  0  0  0
   55.1614   29.9584   52.5738 H   0  0  0  0  0  0  0  0  0  0  0  0
   57.2236   32.4754   51.4800 H   0  0  0  0  0  0  0  0  0  0  0  0
   58.8691   33.6828   50.0444 H   0  0  0  0  0  0  0  0  0  0  0  0
   58.3312   32.7768   46.7923 H   0  0  0  0  0  0  0  0  0  0  0  0
   59.2603   32.9460   45.2569 H   0  0  0  0  0  0  0  0  0  0  0  0
   57.0290   30.8870   46.1590 H   0  0  0  0  0  0  0  0  0  0  0  0
   59.5503   28.7433   47.3562 H   0  0  0  0  0  0  0  0  0  0  0  0
   59.3677   26.2871   47.6975 H   0  0  0  0  0  0  0  0  0  0  0  0
   58.2372   24.1176   46.1641 H   0  0  0  0  0  0  0  0  0  0  0  0
   57.5127   24.4241   47.8133 H   0  0  0  0  0  0  0  0  0  0  0  0
   55.6554   23.4515   47.1048 H   0  0  0  0  0  0  0  0  0  0  0  0
   55.4716   24.8932   45.9648 H   0  0  0  0  0  0  0  0  0  0  0  0
   58.1612   22.6139   44.9281 H   0  0  0  0  0  0  0  0  0  0  0  0
   57.1990   21.6133   46.0687 H   0  0  0  0  0  0  0  0  0  0  0  0
   57.8749   20.9249   43.4308 H   0  0  0  0  0  0  0  0  0  0  0  0
   56.5670   20.1722   44.4500 H   0  0  0  0  0  0  0  0  0  0  0  0
   57.2541   22.8992   42.2640 H   0  0  0  0  0  0  0  0  0  0  0  0
   55.5167   23.1051   41.8195 H   0  0  0  0  0  0  0  0  0  0  0  0
   56.8151   24.6067   43.7362 H   0  0  0  0  0  0  0  0  0  0  0  0
   55.0378   24.3023   43.7048 H   0  0  0  0  0  0  0  0  0  0  0  0
   55.7375   26.2268   45.3425 H   0  0  0  0  0  0  0  0  0  0  0  0
   55.8573   29.8209   42.9504 H   0  0  0  0  0  0  0  0  0  0  0  0
   60.4950   29.8934   48.7236 H   0  0  0  0  0  0  0  0  0  0  0  0
   58.8706   28.6887   50.1789 H   0  0  0  0  0  0  0  0  0  0  0  0
  1  2  1  0
  2  3  1  0
  3  4  2  0
  4  5  1  0
  5  6  2  0
  6  7  1  0
  7  8  1  0
  8  9  1  0
  9 10  2  0
  9 11  1  0
 11 12  1  0
 12 13  1  0
 13 14  1  0
 14 15  2  0
 14 16  1  0
 16 17  1  0
 17 18  2  0
 18 19  1  0
 19 20  2  0
 20 21  1  0
 21 22  1  0
 22 23  1  0
 23 24  1  0
 24 25  1  0
 25 26  1  0
 26 27  1  0
 27 28  1  0
 20 29  1  0
 29 30  2  0
 30 31  1  0
 31 32  1  0
 32 33  2  0
  6 34  1  0
 34 35  2  0
 35  3  1  0
 12  7  2  0
 30 17  1  0
 28 23  1  0
  1 36  1  0
  1 37  1  0
  1 38  1  0
  4 39  1  0
  5 40  1  0
 13 41  1  0
 13 42  1  0
 16 43  1  0
 18 44  1  0
 19 45  1  0
 21 46  1  0
 21 47  1  0
 22 48  1  0
 22 49  1  0
 24 50  1  0
 24 51  1  0
 25 52  1  0
 25 53  1  0
 27 54  1  0
 27 55  1  0
 28 56  1  0
 28 57  1  0
 29 58  1  0
 32 59  1  0
 34 60  1  0
 35 61  1  0
M  CHG  2   8  -1  31  -1
M  END
>  <UniqueID>  (14) 
11

>  <SMILES>  (14) 
COc1ccc(-c2[n-]c(=O)sc2CC(=O)Nc2ccc(CCN3CCOCC3)cc2[N-]C=O)cc1

>  <Energy>  (14) 
113.40818319653877

>  <Genealogy>  (14) 
COc1ccc(-c2[n-]c(=O)sc2CC(=O)Nc2ccc(CCN3CCOCC3)cc2[N-]C=O)cc1 (protonated)
COc1ccc(-c2[n-]c(=O)sc2CC(=O)Nc2ccc(CCN3CCOCC3)cc2[N-]C=O)cc1 (3D coordinates assigned)
COc1ccc(-c2[n-]c(=O)sc2CC(=O)Nc2ccc(CCN3CCOCC3)cc2[N-]C=O)cc1 (nonaromatic ring conformer: 113.40818319653877 kcal/mol)

>  <smiles>  (14) 
COc1ccc(-c2[nH]c(=O)sc2CC(=O)Nc2ccc(CCN3CCOCC3)cc2NC=O)cc1

>  <score_type>  (14) 
oracle

>  <origin>  (14) 
adg

>  <m_score__min__energy>  (14) 
-12.27

>  <m_primary>  (14) 
energy

$$$$
14:0
     RDKit          3D

 50 53  0  0  0  0  0  0  0  0999 V2000
   57.4260   31.3517   42.5968 H   0  0  0  0  0  0  0  0  0  0  0  0
   57.1860   30.7700   43.4990 C   0  0  0  0  0  0  0  0  0  0  0  0
   56.5330   29.5940   43.5170 N   0  0  0  0  0  0  0  0  0  0  0  0
   56.4880   29.2730   44.8250 C   0  0  0  0  0  0  0  0  0  0  0  0
   55.9040   28.1930   45.2520 N   0  0  0  0  0  0  0  0  0  0  0  0
   56.5660   27.1140   45.9240 C   0  0  0  0  0  0  0  0  0  0  0  0
   55.8940   26.1050   46.2640 O   0  0  0  0  0  0  0  0  0  0  0  0
   57.9870   27.1310   46.1380 N   0  0  0  0  0  0  0  0  0  0  0  0
   58.6520   27.8370   47.1740 C   0  0  0  0  0  0  0  0  0  0  0  0
   58.1670   28.9310   47.8930 C   0  0  0  0  0  0  0  0  0  0  0  0
   57.1610   29.3290   47.6941 H   0  0  0  0  0  0  0  0  0  0  0  0
   58.9900   29.5190   48.8810 C   0  0  0  0  0  0  0  0  0  0  0  0
   58.5560   30.6210   49.6380 O   0  0  0  0  0  0  0  0  0  0  0  0
   57.8390   30.5230   50.8640 C   0  0  0  0  0  0  0  0  0  0  0  0
   58.5392   30.6187   51.7069 H   0  0  0  0  0  0  0  0  0  0  0  0
   57.0903   31.3272   50.9162 H   0  0  0  0  0  0  0  0  0  0  0  0
   57.3335   29.5474   50.9162 H   0  0  0  0  0  0  0  0  0  0  0  0
   60.2900   28.9930   49.1180 C   0  0  0  0  0  0  0  0  0  0  0  0
   61.1780   29.6180   50.1700 C   0  0  0  0  0  0  0  0  0  0  0  0
   61.7410   30.7810   49.6770 F   0  0  0  0  0  0  0  0  0  0  0  0
   62.1860   28.7340   50.5050 F   0  0  0  0  0  0  0  0  0  0  0  0
   60.4700   29.9340   51.3180 F   0  0  0  0  0  0  0  0  0  0  0  0
   60.7530   27.9050   48.3430 C   0  0  0  0  0  0  0  0  0  0  0  0
   61.7647   27.5013   48.4963 H   0  0  0  0  0  0  0  0  0  0  0  0
   59.9100   27.3520   47.3830 C   0  0  0  0  0  0  0  0  0  0  0  0
   60.1930   26.2180   46.4620 C   0  0  0  0  0  0  0  0  0  0  0  0
   60.4077   25.2978   47.0252 H   0  0  0  0  0  0  0  0  0  0  0  0
   61.0742   26.3907   45.8266 H   0  0  0  0  0  0  0  0  0  0  0  0
   58.8830   26.0780   45.6520 C   0  0  0  0  0  0  0  0  0  0  0  0
   58.4344   25.0879   45.8206 H   0  0  0  0  0  0  0  0  0  0  0  0
   59.0673   26.1755   44.5719 H   0  0  0  0  0  0  0  0  0  0  0  0
   57.0600   30.1860   45.6390 N   0  0  0  0  0  0  0  0  0  0  0  0
   57.5080   31.1320   44.7950 C   0  0  0  0  0  0  0  0  0  0  0  0
   58.2190   32.3560   45.2360 C   0  0  0  0  0  0  0  0  0  0  0  0
   58.1120   33.5370   44.4850 C   0  0  0  0  0  0  0  0  0  0  0  0
   57.4926   33.5584   43.5762 H   0  0  0  0  0  0  0  0  0  0  0  0
   58.7930   34.6830   44.8940 C   0  0  0  0  0  0  0  0  0  0  0  0
   58.7148   35.6063   44.3012 H   0  0  0  0  0  0  0  0  0  0  0  0
   59.5530   34.6660   46.0210 N   0  0  0  0  0  0  0  0  0  0  0  0
   60.0600   35.5390   46.2950 H   0  0  0  0  0  0  0  0  0  0  0  0
   59.6630   33.5450   46.7890 C   0  0  0  0  0  0  0  0  0  0  0  0
   60.5240   33.5570   48.0240 C   0  0  0  0  0  0  0  0  0  0  0  0
   61.1672   34.4492   48.0068 H   0  0  0  0  0  0  0  0  0  0  0  0
   61.1371   32.6438   48.0358 H   0  0  0  0  0  0  0  0  0  0  0  0
   59.6630   33.5850   49.2830 C   0  0  0  0  0  0  0  0  0  0  0  0
   60.3115   33.5639   50.1713 H   0  0  0  0  0  0  0  0  0  0  0  0
   59.0575   34.5033   49.2928 H   0  0  0  0  0  0  0  0  0  0  0  0
   58.9991   32.7080   49.2928 H   0  0  0  0  0  0  0  0  0  0  0  0
   59.0070   32.3680   46.4000 C   0  0  0  0  0  0  0  0  0  0  0  0
   59.1090   31.4551   47.0052 H   0  0  0  0  0  0  0  0  0  0  0  0
  1  2  1  0
  2  3  1  0
  3  4  1  0
  4  5  2  0
  5  6  1  0
  6  7  2  0
  6  8  1  0
  8  9  1  0
  9 10  2  0
 10 11  1  0
 10 12  1  0
 12 13  1  0
 13 14  1  0
 14 15  1  0
 14 16  1  0
 14 17  1  0
 12 18  2  0
 18 19  1  0
 19 20  1  0
 19 21  1  0
 19 22  1  0
 18 23  1  0
 23 24  1  0
 23 25  2  0
 25 26  1  0
 26 27  1  0
 26 28  1  0
 26 29  1  0
 29 30  1  0
 29 31  1  0
  4 32  1  0
 32 33  1  0
 33 34  1  0
 34 35  2  0
 35 36  1  0
 35 37  1  0
 37 38  1  0
 37 39  2  0
 39 40  1  0
 39 41  1  0
 41 42  1  0
 42 43  1  0
 42 44  1  0
 42 45  1  0
 45 46  1  0
 45 47  1  0
 45 48  1  0
 41 49  2  0
 49 50  1  0
 33  2  2  0
 49 34  1  0
 29  8  1  0
 25  9  1  0
M  CHG  3   3  -1  32  -1  39   1
M  END
>  <UniqueID>  (15) 
12

>  <SMILES>  (15) 
CCc1cc(-c2c[n-]/c(=N/C(=O)N3CCc4cc(C(F)(F)F)c(OC)cc43)[n-]2)cc[nH+]1

>  <Energy>  (15) 
100.86244727746885

>  <Genealogy>  (15) 
CCc1cc(-c2c[n-]c(=NC(=O)N3CCc4cc(C(F)(F)F)c(OC)cc43)[n-]2)cc[nH+]1 (protonated)
CCc1cc(-c2c[n-]/c(=N/C(=O)N3CCc4cc(C(F)(F)F)c(OC)cc43)[n-]2)cc[nH+]1 (cis-trans isomerization)
CCc1cc(-c2c[n-]/c(=N/C(=O)N3CCc4cc(C(F)(F)F)c(OC)cc43)[n-]2)cc[nH+]1 (3D coordinates assigned)
CCc1cc(-c2c[n-]/c(=N/C(=O)N3CCc4cc(C(F)(F)F)c(OC)cc43)[n-]2)cc[nH+]1 (nonaromatic ring conformer: 100.86244727746885 kcal/mol)

>  <smiles>  (15) 
CCc1cc(-c2c[nH]c(=NC(=O)N3CCc4cc(C(F)(F)F)c(OC)cc43)[nH]2)ccn1

>  <score_type>  (15) 
oracle

>  <origin>  (15) 
adg

>  <m_score__min__energy>  (15) 
-10.699999999999999

>  <m_primary>  (15) 
energy

$$$$
15:0
     RDKit          3D

 28 29  0  0  0  0  0  0  0  0999 V2000
   58.8050   34.3700   45.9180 C   0  0  0  0  0  0  0  0  0  0  0  0
   58.4120   33.6590   44.8600 C   0  0  0  0  0  0  0  0  0  0  0  0
   58.0800   32.2130   44.9030 C   0  0  0  0  0  0  0  0  0  0  0  0
   57.3770   31.6540   43.8250 C   0  0  0  0  0  0  0  0  0  0  0  0
   57.0460   30.2960   43.8150 C   0  0  0  0  0  0  0  0  0  0  0  0
   57.4140   29.4630   44.8860 C   0  0  0  0  0  0  0  0  0  0  0  0
   57.0650   28.0220   44.8650 C   0  0  0  0  0  0  0  0  0  0  0  0
   57.7330   27.2310   44.1430 O   0  0  0  0  0  0  0  0  0  0  0  0
   55.9430   27.5250   45.6140 N   0  0  0  0  0  0  0  0  0  0  0  0
   55.7710   26.1480   45.9860 C   0  0  0  0  0  0  0  0  0  0  0  0
   56.7300   25.4650   46.7500 C   0  0  0  0  0  0  0  0  0  0  0  0
   56.4840   24.1350   47.0980 C   0  0  0  0  0  0  0  0  0  0  0  0
   57.3260   23.4920   47.7770 O   0  0  0  0  0  0  0  0  0  0  0  0
   55.3300   23.5350   46.7080 N   0  0  0  0  0  0  0  0  0  0  0  0
   54.4020   24.2130   45.9840 C   0  0  0  0  0  0  0  0  0  0  0  0
   53.3350   23.6420   45.6380 O   0  0  0  0  0  0  0  0  0  0  0  0
   54.6230   25.5070   45.6350 N   0  0  0  0  0  0  0  0  0  0  0  0
   58.1400   30.0160   45.9560 C   0  0  0  0  0  0  0  0  0  0  0  0
   58.4700   31.3740   45.9650 C   0  0  0  0  0  0  0  0  0  0  0  0
   59.0339   35.4402   45.8072 H   0  0  0  0  0  0  0  0  0  0  0  0
   58.9002   33.8861   46.9013 H   0  0  0  0  0  0  0  0  0  0  0  0
   58.3286   34.1777   43.8936 H   0  0  0  0  0  0  0  0  0  0  0  0
   57.0830   32.2916   42.9782 H   0  0  0  0  0  0  0  0  0  0  0  0
   56.4930   29.8756   42.9621 H   0  0  0  0  0  0  0  0  0  0  0  0
   55.1460   28.1740   45.7990 H   0  0  0  0  0  0  0  0  0  0  0  0
   57.6559   25.9667   47.0680 H   0  0  0  0  0  0  0  0  0  0  0  0
   58.4509   29.3739   46.7933 H   0  0  0  0  0  0  0  0  0  0  0  0
   59.0392   31.7912   46.8087 H   0  0  0  0  0  0  0  0  0  0  0  0
  1  2  2  0
  2  3  1  0
  3  4  2  0
  4  5  1  0
  5  6  2  0
  6  7  1  0
  7  8  2  0
  7  9  1  0
  9 10  1  0
 10 11  2  0
 11 12  1  0
 12 13  2  0
 12 14  1  0
 14 15  1  0
 15 16  2  0
 15 17  1  0
  6 18  1  0
 18 19  2  0
 19  3  1  0
 17 10  1  0
  1 20  1  0
  1 21  1  0
  2 22  1  0
  4 23  1  0
  5 24  1  0
  9 25  1  0
 11 26  1  0
 18 27  1  0
 19 28  1  0
M  CHG  2  14  -1  17  -1
M  END
>  <UniqueID>  (16) 
13

>  <SMILES>  (16) 
C=Cc1ccc(C(=O)Nc2cc(=O)[n-]c(=O)[n-]2)cc1

>  <Energy>  (16) 
36.77231128753331

>  <Genealogy>  (16) 
C=Cc1ccc(C(=O)Nc2cc(=O)[n-]c(=O)[n-]2)cc1 (protonated)
C=Cc1ccc(C(=O)Nc2cc(=O)[n-]c(=O)[n-]2)cc1 (3D coordinates assigned)
C=Cc1ccc(C(=O)Nc2cc(=O)[n-]c(=O)[n-]2)cc1 (optimized conformer: 36.77231128753331 kcal/mol)

>  <smiles>  (16) 
C=Cc1ccc(C(=O)Nc2cc(=O)[nH]c(=O)[nH]2)cc1

>  <score_type>  (16) 
oracle

>  <origin>  (16) 
adg

>  <m_score__min__energy>  (16) 
-10.970000000000001

>  <m_primary>  (16) 
energy

$$$$
16:0
     RDKit          3D

 46 49  0  0  0  0  0  0  0  0999 V2000
   59.6980   26.5680   46.8430 C   0  0  0  0  0  0  0  0  0  0  0  0
   58.4190   26.5760   46.4760 C   0  0  0  0  0  0  0  0  0  0  0  0
   57.3630   25.6070   46.5130 C   0  0  0  0  0  0  0  0  0  0  0  0
   57.2610   24.3950   46.8420 O   0  0  0  0  0  0  0  0  0  0  0  0
   56.4550   26.6310   46.0170 C   0  0  0  0  0  0  0  0  0  0  0  0
   57.4600   27.5310   45.8930 C   0  0  0  0  0  0  0  0  0  0  0  0
   57.5390   28.9200   45.3830 C   0  0  0  0  0  0  0  0  0  0  0  0
   58.7740   29.5960   45.3690 C   0  0  0  0  0  0  0  0  0  0  0  0
   58.8670   30.9010   44.8830 C   0  0  0  0  0  0  0  0  0  0  0  0
   57.7390   31.5600   44.3840 C   0  0  0  0  0  0  0  0  0  0  0  0
   57.8940   32.8730   43.8980 O   0  0  0  0  0  0  0  0  0  0  0  0
   58.7690   33.8600   44.4550 C   0  0  0  0  0  0  0  0  0  0  0  0
   58.3720   34.1480   45.8810 C   0  0  0  0  0  0  0  0  0  0  0  0
   57.1860   34.0730   46.1830 O   0  0  0  0  0  0  0  0  0  0  0  0
   59.3630   34.4620   46.9010 N   0  0  2  0  0  0  0  0  0  0  0  0
   60.7450   34.2260   46.3670 C   0  0  0  0  0  0  0  0  0  0  0  0
   61.6430   33.3610   47.2730 C   0  0  0  0  0  0  0  0  0  0  0  0
   60.8830   32.1510   47.7220 C   0  0  0  0  0  0  0  0  0  0  0  0
   61.4430   30.8660   47.7080 C   0  0  0  0  0  0  0  0  0  0  0  0
   60.6820   29.7710   48.1260 C   0  0  0  0  0  0  0  0  0  0  0  0
   59.3700   29.9580   48.5670 C   0  0  0  0  0  0  0  0  0  0  0  0
   58.8140   31.2420   48.5940 C   0  0  0  0  0  0  0  0  0  0  0  0
   59.5700   32.3380   48.1600 C   0  0  0  0  0  0  0  0  0  0  0  0
   59.0300   33.7430   48.1650 C   0  0  0  0  0  0  0  0  0  0  0  0
   56.5000   30.8960   44.3960 C   0  0  0  0  0  0  0  0  0  0  0  0
   56.3970   29.5870   44.8880 C   0  0  0  0  0  0  0  0  0  0  0  0
   55.1490   28.9740   44.8890 O   0  0  0  0  0  0  0  0  0  0  0  0
   60.3154   27.4679   46.7052 H   0  0  0  0  0  0  0  0  0  0  0  0
   60.1379   25.6615   47.2842 H   0  0  0  0  0  0  0  0  0  0  0  0
   55.3733   26.6620   45.8196 H   0  0  0  0  0  0  0  0  0  0  0  0
   59.6754   29.0901   45.7452 H   0  0  0  0  0  0  0  0  0  0  0  0
   59.8384   31.4170   44.8926 H   0  0  0  0  0  0  0  0  0  0  0  0
   59.8032   33.4858   44.4323 H   0  0  0  0  0  0  0  0  0  0  0  0
   58.6965   34.7848   43.8639 H   0  0  0  0  0  0  0  0  0  0  0  0
   59.2900   35.4840   47.1250 H   0  0  0  0  0  0  0  0  0  0  0  0
   60.6553   33.7238   45.3925 H   0  0  0  0  0  0  0  0  0  0  0  0
   61.2267   35.2127   46.3007 H   0  0  0  0  0  0  0  0  0  0  0  0
   62.5350   33.0461   46.7116 H   0  0  0  0  0  0  0  0  0  0  0  0
   61.9502   33.9474   48.1515 H   0  0  0  0  0  0  0  0  0  0  0  0
   62.4791   30.7199   47.3687 H   0  0  0  0  0  0  0  0  0  0  0  0
   61.1167   28.7607   48.1077 H   0  0  0  0  0  0  0  0  0  0  0  0
   58.7725   29.0942   48.8938 H   0  0  0  0  0  0  0  0  0  0  0  0
   57.7856   31.3900   48.9553 H   0  0  0  0  0  0  0  0  0  0  0  0
   57.9364   33.7051   48.2770 H   0  0  0  0  0  0  0  0  0  0  0  0
   59.4912   34.2867   49.0027 H   0  0  0  0  0  0  0  0  0  0  0  0
   55.6035   31.4078   44.0161 H   0  0  0  0  0  0  0  0  0  0  0  0
  1  2  2  0
  2  3  1  0
  3  4  2  0
  3  5  1  0
  5  6  2  0
  6  7  1  0
  7  8  2  0
  8  9  1  0
  9 10  2  0
 10 11  1  0
 11 12  1  0
 12 13  1  0
 13 14  2  0
 13 15  1  0
 15 16  1  0
 16 17  1  0
 17 18  1  0
 18 19  2  0
 19 20  1  0
 20 21  2  0
 21 22  1  0
 22 23  2  0
 23 24  1  0
 10 25  1  0
 25 26  2  0
 26 27  1  0
  6  2  1  0
 26  7  1  0
 24 15  1  0
 23 18  1  0
  1 28  1  0
  1 29  1  0
  5 30  1  0
  8 31  1  0
  9 32  1  0
 12 33  1  0
 12 34  1  0
 15 35  1  1
 16 36  1  0
 16 37  1  0
 17 38  1  0
 17 39  1  0
 19 40  1  0
 20 41  1  0
 21 42  1  0
 22 43  1  0
 24 44  1  0
 24 45  1  0
 25 46  1  0
M  CHG  2  15   1  27  -1
M  END
>  <UniqueID>  (17) 
14

>  <SMILES>  (17) 
C=C1C(=O)C=C1c1ccc(OCC(=O)[N@@H+]2CCc3ccccc3C2)cc1[O-]

>  <Energy>  (17) 
55.42446762833493

>  <Genealogy>  (17) 
C=C1C(=O)C=C1c1ccc(OCC(=O)[NH+]2CCc3ccccc3C2)cc1[O-] (protonated)
C=C1C(=O)C=C1c1ccc(OCC(=O)[N@@H+]2CCc3ccccc3C2)cc1[O-] (chirality)
C=C1C(=O)C=C1c1ccc(OCC(=O)[N@@H+]2CCc3ccccc3C2)cc1[O-] (3D coordinates assigned)
C=C1C(=O)C=C1c1ccc(OCC(=O)[N@@H+]2CCc3ccccc3C2)cc1[O-] (nonaromatic ring conformer: 55.42446762833493 kcal/mol)

>  <smiles>  (17) 
C=C1C(=O)C=C1c1ccc(OCC(=O)N2CCc3ccccc3C2)cc1O

>  <score_type>  (17) 
oracle

>  <origin>  (17) 
adg

>  <m_score__min__energy>  (17) 
-11.19

>  <m_primary>  (17) 
energy

$$$$
17:0
     RDKit          3D

 40 42  0  0  0  0  0  0  0  0999 V2000
   58.3057   32.8965   42.9225 H   0  0  0  0  0  0  0  0  0  0  0  0
   57.8010   32.0360   43.3860 C   0  0  0  0  0  0  0  0  0  0  0  0
   57.9510   31.7830   44.7610 C   0  0  0  0  0  0  0  0  0  0  0  0
   58.7680   32.6610   45.6370 C   0  0  0  0  0  0  0  0  0  0  0  0
   58.3010   33.9230   46.0560 C   0  0  0  0  0  0  0  0  0  0  0  0
   57.3220   34.2858   45.7097 H   0  0  0  0  0  0  0  0  0  0  0  0
   59.0730   34.7160   46.9080 C   0  0  0  0  0  0  0  0  0  0  0  0
   58.7023   35.7022   47.2240 H   0  0  0  0  0  0  0  0  0  0  0  0
   60.3130   34.2620   47.3600 C   0  0  0  0  0  0  0  0  0  0  0  0
   60.9144   34.8888   48.0349 H   0  0  0  0  0  0  0  0  0  0  0  0
   60.7930   33.0100   46.9560 C   0  0  0  0  0  0  0  0  0  0  0  0
   62.3420   32.4210   47.5520 S   0  0  0  0  0  0  0  0  0  0  0  0
   62.4920   30.9630   47.2250 O   0  0  0  0  0  0  0  0  0  0  0  0
   62.4100   32.5890   49.0450 O   0  0  0  0  0  0  0  0  0  0  0  0
   63.6250   33.3140   46.8130 N   0  0  0  0  0  0  0  0  0  0  0  0
   64.5010   32.7650   46.9570 H   0  0  0  0  0  0  0  0  0  0  0  0
   63.4400   33.3190   45.7850 H   0  0  0  0  0  0  0  0  0  0  0  0
   60.0190   32.2130   46.1030 C   0  0  0  0  0  0  0  0  0  0  0  0
   60.3927   31.2258   45.7936 H   0  0  0  0  0  0  0  0  0  0  0  0
   57.3290   30.6990   45.3040 N   0  0  0  0  0  0  0  0  0  0  0  0
   56.5460   29.8580   44.5720 C   0  0  0  0  0  0  0  0  0  0  0  0
   55.9520   28.8440   45.1310 N   0  0  0  0  0  0  0  0  0  0  0  0
   56.6290   27.6420   45.6190 C   0  0  0  0  0  0  0  0  0  0  0  0
   56.1050   27.2723   46.5127 H   0  0  0  0  0  0  0  0  0  0  0  0
   56.6145   26.8846   44.8214 H   0  0  0  0  0  0  0  0  0  0  0  0
   58.0660   27.9350   45.9760 C   0  0  0  0  0  0  0  0  0  0  0  0
   58.4060   28.2310   47.3060 C   0  0  0  0  0  0  0  0  0  0  0  0
   57.6263   28.2331   48.0819 H   0  0  0  0  0  0  0  0  0  0  0  0
   59.7290   28.5230   47.6500 C   0  0  0  0  0  0  0  0  0  0  0  0
   59.9866   28.7577   48.6933 H   0  0  0  0  0  0  0  0  0  0  0  0
   60.7240   28.5170   46.6700 C   0  0  0  0  0  0  0  0  0  0  0  0
   61.7641   28.7510   46.9411 H   0  0  0  0  0  0  0  0  0  0  0  0
   60.3990   28.2140   45.3460 C   0  0  0  0  0  0  0  0  0  0  0  0
   61.1850   28.2074   44.5765 H   0  0  0  0  0  0  0  0  0  0  0  0
   59.0780   27.9190   44.9950 C   0  0  0  0  0  0  0  0  0  0  0  0
   58.7920   27.6140   43.7030 F   0  0  0  0  0  0  0  0  0  0  0  0
   56.3700   30.0950   43.2060 C   0  0  0  0  0  0  0  0  0  0  0  0
   55.7359   29.4276   42.6040 H   0  0  0  0  0  0  0  0  0  0  0  0
   57.0060   31.1860   42.6130 C   0  0  0  0  0  0  0  0  0  0  0  0
   56.8815   31.3770   41.5369 H   0  0  0  0  0  0  0  0  0  0  0  0
  1  2  1  0
  2  3  2  0
  3  4  1  0
  4  5  2  0
  5  6  1  0
  5  7  1  0
  7  8  1  0
  7  9  2  0
  9 10  1  0
  9 11  1  0
 11 12  1  0
 12 13  2  0
 12 14  2  0
 12 15  1  0
 15 16  1  0
 15 17  1  0
 11 18  2  0
 18 19  1  0
  3 20  1  0
 20 21  1  0
 21 22  2  0
 22 23  1  0
 23 24  1  0
 23 25  1  0
 23 26  1  0
 26 27  2  0
 27 28  1  0
 27 29  1  0
 29 30  1  0
 29 31  2  0
 31 32  1  0
 31 33  1  0
 33 34  1  0
 33 35  2  0
 35 36  1  0
 21 37  1  0
 37 38  1  0
 37 39  2  0
 39 40  1  0
 39  2  1  0
 18  4  1  0
 35 26  1  0
M  CHG  1  20  -1
M  END
>  <UniqueID>  (18) 
15

>  <SMILES>  (18) 
NS(=O)(=O)c1cccc(-c2ccc/c(=N/Cc3ccccc3F)[n-]2)c1

>  <Energy>  (18) 
43.73310071967227

>  <Genealogy>  (18) 
NS(=O)(=O)c1cccc(-c2cccc(=NCc3ccccc3F)[n-]2)c1 (protonated)
NS(=O)(=O)c1cccc(-c2ccc/c(=N/Cc3ccccc3F)[n-]2)c1 (cis-trans isomerization)
NS(=O)(=O)c1cccc(-c2ccc/c(=N/Cc3ccccc3F)[n-]2)c1 (3D coordinates assigned)
NS(=O)(=O)c1cccc(-c2ccc/c(=N/Cc3ccccc3F)[n-]2)c1 (optimized conformer: 43.73310071967227 kcal/mol)

>  <smiles>  (18) 
NS(=O)(=O)c1cccc(-c2cccc(=NCc3ccccc3F)[nH]2)c1

>  <score_type>  (18) 
oracle

>  <origin>  (18) 
adg

>  <m_score__min__energy>  (18) 
-10.17

>  <m_primary>  (18) 
energy

$$$$
18:0
     RDKit          3D

 55 58  0  0  0  0  0  0  0  0999 V2000
   50.4010   33.4060   51.9980 H   0  0  0  0  0  0  0  0  0  0  0  0
   50.2490   32.3720   52.0230 N   0  0  0  0  0  0  0  0  0  0  0  0
   51.4660   31.6660   51.0210 S   0  0  0  0  0  0  0  0  0  0  0  0
   52.5280   32.6870   50.7260 O   0  0  0  0  0  0  0  0  0  0  0  0
   50.8540   31.2190   49.7220 O   0  0  0  0  0  0  0  0  0  0  0  0
   52.1740   30.2830   51.8480 C   0  0  0  0  0  0  0  0  0  0  0  0
   51.3620   29.2380   52.3080 C   0  0  0  0  0  0  0  0  0  0  0  0
   50.2725   29.2855   52.1637 H   0  0  0  0  0  0  0  0  0  0  0  0
   51.9330   28.1350   52.9500 C   0  0  0  0  0  0  0  0  0  0  0  0
   51.2920   27.3158   53.3078 H   0  0  0  0  0  0  0  0  0  0  0  0
   53.3150   28.0710   53.1380 C   0  0  0  0  0  0  0  0  0  0  0  0
   53.7619   27.1935   53.6281 H   0  0  0  0  0  0  0  0  0  0  0  0
   54.1360   29.1240   52.7030 C   0  0  0  0  0  0  0  0  0  0  0  0
   55.5650   29.0560   52.8300 N   0  0  0  0  0  0  0  0  0  0  0  0
   56.4240   30.0240   52.6740 C   0  0  0  0  0  0  0  0  0  0  0  0
   57.1020   30.1040   51.5000 N   0  0  0  0  0  0  0  0  0  0  0  0
   57.9960   31.0920   51.2380 C   0  0  0  0  0  0  0  0  0  0  0  0
   58.5286   31.1040   50.2756 H   0  0  0  0  0  0  0  0  0  0  0  0
   58.2470   32.1000   52.1860 C   0  0  0  0  0  0  0  0  0  0  0  0
   59.2390   33.1680   51.8670 C   0  0  0  0  0  0  0  0  0  0  0  0
   59.5640   33.9660   52.7920 O   0  0  0  0  0  0  0  0  0  0  0  0
   59.8610   33.3300   50.5650 N   0  0  0  0  0  0  0  0  0  0  0  0
   60.1340   34.3410   50.4950 H   0  0  0  0  0  0  0  0  0  0  0  0
   61.1300   32.5720   50.4460 C   0  0  0  0  0  0  0  0  0  0  0  0
   61.7743   32.8045   51.3067 H   0  0  0  0  0  0  0  0  0  0  0  0
   60.9048   31.4955   50.4257 H   0  0  0  0  0  0  0  0  0  0  0  0
   61.8580   32.9570   49.1480 C   0  0  0  0  0  0  0  0  0  0  0  0
   62.3715   33.9189   49.2935 H   0  0  0  0  0  0  0  0  0  0  0  0
   62.5859   32.1693   48.9035 H   0  0  0  0  0  0  0  0  0  0  0  0
   60.9050   33.0820   48.0360 N   0  0  0  0  0  0  0  0  0  0  0  0
   61.3460   33.6590   46.7940 C   0  0  0  0  0  0  0  0  0  0  0  0
   62.5330   33.4730   46.4110 O   0  0  0  0  0  0  0  0  0  0  0  0
   60.4110   34.5030   45.9560 C   0  0  0  0  0  0  0  0  0  0  0  0
   61.1540   35.0690   45.3751 H   0  0  0  0  0  0  0  0  0  0  0  0
   59.3440   35.2240   46.7750 C   0  0  0  0  0  0  0  0  0  0  0  0
   59.4015   35.0313   47.8565 H   0  0  0  0  0  0  0  0  0  0  0  0
   59.3074   36.3232   46.7973 H   0  0  0  0  0  0  0  0  0  0  0  0
   58.2590   34.4310   46.0590 C   0  0  0  0  0  0  0  0  0  0  0  0
   57.6763   33.7716   46.7191 H   0  0  0  0  0  0  0  0  0  0  0  0
   57.4303   34.9524   45.5576 H   0  0  0  0  0  0  0  0  0  0  0  0
   59.3200   33.7080   45.2390 C   0  0  0  0  0  0  0  0  0  0  0  0
   59.3637   32.6233   45.4167 H   0  0  0  0  0  0  0  0  0  0  0  0
   59.2664   33.6999   44.1403 H   0  0  0  0  0  0  0  0  0  0  0  0
   59.5560   32.5210   48.1900 C   0  0  0  0  0  0  0  0  0  0  0  0
   58.9476   32.7915   47.3144 H   0  0  0  0  0  0  0  0  0  0  0  0
   59.6290   31.4265   48.2721 H   0  0  0  0  0  0  0  0  0  0  0  0
   58.8920   33.0780   49.4630 C   0  0  0  0  0  0  0  0  0  0  0  0
   58.3934   34.0258   49.2117 H   0  0  0  0  0  0  0  0  0  0  0  0
   58.1795   32.3197   49.8199 H   0  0  0  0  0  0  0  0  0  0  0  0
   57.5610   32.0350   53.4100 C   0  0  0  0  0  0  0  0  0  0  0  0
   57.7454   32.7978   54.1808 H   0  0  0  0  0  0  0  0  0  0  0  0
   56.6460   31.0080   53.6550 C   0  0  0  0  0  0  0  0  0  0  0  0
   56.1018   30.9689   54.6101 H   0  0  0  0  0  0  0  0  0  0  0  0
   53.5620   30.2150   52.0390 C   0  0  0  0  0  0  0  0  0  0  0  0
   54.2047   31.0252   51.6642 H   0  0  0  0  0  0  0  0  0  0  0  0
  1  2  1  0
  2  3  1  0
  3  4  2  0
  3  5  2  0
  3  6  1  0
  6  7  2  0
  7  8  1  0
  7  9  1  0
  9 10  1  0
  9 11  2  0
 11 12  1  0
 11 13  1  0
 13 14  1  0
 14 15  2  0
 15 16  1  0
 16 17  1  0
 17 18  1  0
 17 19  2  0
 19 20  1  0
 20 21  2  0
 20 22  1  0
 22 23  1  0
 22 24  1  0
 24 25  1  0
 24 26  1  0
 24 27  1  0
 27 28  1  0
 27 29  1  0
 27 30  1  0
 30 31  1  0
 31 32  2  0
 31 33  1  0
 33 34  1  0
 33 35  1  0
 35 36  1  0
 35 37  1  0
 35 38  1  0
 38 39  1  0
 38 40  1  0
 38 41  1  0
 41 42  1  0
 41 43  1  0
 30 44  1  0
 44 45  1  0
 44 46  1  0
 44 47  1  0
 47 48  1  0
 47 49  1  0
 19 50  1  0
 50 51  1  0
 50 52  2  0
 52 53  1  0
 13 54  2  0
 54 55  1  0
 54  6  1  0
 52 15  1  0
 47 22  1  0
 41 33  1  0
M  CHG  3   2  -1  16  -1  22   1
M  END
>  <UniqueID>  (19) 
16

>  <SMILES>  (19) 
[NH-]S(=O)(=O)c1cccc(/N=c2\ccc(C(=O)[NH+]3CCN(C(=O)C4CCC4)CC3)c[n-]2)c1

>  <Energy>  (19) 
143.4423813814119

>  <Genealogy>  (19) 
[NH-]S(=O)(=O)c1cccc(N=c2ccc(C(=O)[NH+]3CCN(C(=O)C4CCC4)CC3)c[n-]2)c1 (protonated)
[NH-]S(=O)(=O)c1cccc(/N=c2\ccc(C(=O)[NH+]3CCN(C(=O)C4CCC4)CC3)c[n-]2)c1 (cis-trans isomerization)
[NH-]S(=O)(=O)c1cccc(/N=c2\ccc(C(=O)[NH+]3CCN(C(=O)C4CCC4)CC3)c[n-]2)c1 (3D coordinates assigned)
[NH-]S(=O)(=O)c1cccc(/N=c2\ccc(C(=O)[NH+]3CCN(C(=O)C4CCC4)CC3)c[n-]2)c1 (nonaromatic ring conformer: 143.4423813814119 kcal/mol)

>  <smiles>  (19) 
NS(=O)(=O)c1cccc(N=c2ccc(C(=O)N3CCN(C(=O)C4CCC4)CC3)c[nH]2)c1

>  <score_type>  (19) 
oracle

>  <origin>  (19) 
adg

>  <m_score__min__energy>  (19) 
-11.83

>  <m_primary>  (19) 
energy

$$$$
19:0
     RDKit          3D

 41 44  0  0  0  0  0  0  0  0999 V2000
   60.7043   34.5832   49.6116 H   0  0  0  0  0  0  0  0  0  0  0  0
   61.6910   34.1890   49.3270 C   0  0  0  0  0  0  0  0  0  0  0  0
   61.8980   33.2880   48.3910 C   0  0  0  0  0  0  0  0  0  0  0  0
   60.8220   32.6830   47.6470 C   0  0  0  0  0  0  0  0  0  0  0  0
   59.9210   32.1860   47.0210 C   0  0  0  0  0  0  0  0  0  0  0  0
   58.8490   31.5890   46.2660 C   0  0  0  0  0  0  0  0  0  0  0  0
   57.7710   32.2260   45.6530 C   0  0  0  0  0  0  0  0  0  0  0  0
   57.5220   33.5350   45.6540 C   0  0  0  0  0  0  0  0  0  0  0  0
   58.2022   34.2239   46.1762 H   0  0  0  0  0  0  0  0  0  0  0  0
   56.6362   33.9268   45.1326 H   0  0  0  0  0  0  0  0  0  0  0  0
   57.0000   31.3390   45.0480 O   0  0  0  0  0  0  0  0  0  0  0  0
   57.5310   30.1540   45.2440 C   0  0  0  0  0  0  0  0  0  0  0  0
   57.0590   28.9280   44.7830 C   0  0  0  0  0  0  0  0  0  0  0  0
   56.1417   28.8686   44.1788 H   0  0  0  0  0  0  0  0  0  0  0  0
   57.7910   27.7550   45.1120 C   0  0  0  0  0  0  0  0  0  0  0  0
   57.4080   26.5280   44.6990 C   0  0  0  0  0  0  0  0  0  0  0  0
   57.5245   26.2944   43.6304 H   0  0  0  0  0  0  0  0  0  0  0  0
   56.8460   25.4760   45.5660 C   0  0  0  0  0  0  0  0  0  0  0  0
   57.5790   24.4800   46.0900 N   0  0  0  0  0  0  0  0  0  0  0  0
   56.7010   23.8270   46.8830 C   0  0  0  0  0  0  0  0  0  0  0  0
   57.0180   22.8050   47.5460 O   0  0  0  0  0  0  0  0  0  0  0  0
   55.4630   24.3610   46.9160 N   0  0  0  0  0  0  0  0  0  0  0  0
   55.5730   25.4110   46.0890 C   0  0  0  0  0  0  0  0  0  0  0  0
   54.5430   26.3140   45.8510 O   0  0  0  0  0  0  0  0  0  0  0  0
   58.9880   27.8810   45.8720 C   0  0  0  0  0  0  0  0  0  0  0  0
   59.5732   26.9811   46.1121 H   0  0  0  0  0  0  0  0  0  0  0  0
   59.4350   29.1360   46.3210 C   0  0  0  0  0  0  0  0  0  0  0  0
   60.3554   29.2316   46.9157 H   0  0  0  0  0  0  0  0  0  0  0  0
   58.6760   30.2520   45.9890 C   0  0  0  0  0  0  0  0  0  0  0  0
   63.2730   32.9280   48.2040 N   0  0  1  0  0  0  0  0  0  0  0  0
   63.3880   31.8960   48.3470 H   0  0  0  0  0  0  0  0  0  0  0  0
   63.7290   33.3020   46.8550 C   0  0  0  0  0  0  0  0  0  0  0  0
   64.5773   33.9977   46.9345 H   0  0  0  0  0  0  0  0  0  0  0  0
   64.0448   32.3994   46.3113 H   0  0  0  0  0  0  0  0  0  0  0  0
   62.9056   33.7883   46.3113 H   0  0  0  0  0  0  0  0  0  0  0  0
   63.9910   33.6810   49.2570 C   0  0  0  0  0  0  0  0  0  0  0  0
   64.7941   34.2835   48.8076 H   0  0  0  0  0  0  0  0  0  0  0  0
   64.4467   32.9937   49.9850 H   0  0  0  0  0  0  0  0  0  0  0  0
   62.9690   34.5960   49.9410 C   0  0  0  0  0  0  0  0  0  0  0  0
   63.1866   35.6544   49.7350 H   0  0  0  0  0  0  0  0  0  0  0  0
   62.9709   34.5027   51.0370 H   0  0  0  0  0  0  0  0  0  0  0  0
  1  2  1  0
  2  3  2  0
  3  4  1  0
  4  5  3  0
  5  6  1  0
  6  7  1  0
  7  8  2  0
  8  9  1  0
  8 10  1  0
  7 11  1  0
 11 12  1  0
 12 13  2  0
 13 14  1  0
 13 15  1  0
 15 16  2  0
 16 17  1  0
 16 18  1  0
 18 19  1  0
 19 20  1  0
 20 21  2  0
 20 22  1  0
 22 23  1  0
 23 24  1  0
 15 25  1  0
 25 26  1  0
 25 27  2  0
 27 28  1  0
 27 29  1  0
  3 30  1  0
 30 31  1  1
 30 32  1  0
 32 33  1  0
 32 34  1  0
 32 35  1  0
 30 36  1  0
 36 37  1  0
 36 38  1  0
 36 39  1  0
 39 40  1  0
 39 41  1  0
 39  2  1  0
 29  6  2  0
 29 12  1  0
 23 18  2  0
M  CHG  4  19  -1  22  -1  24  -1  30   1
M  END
>  <UniqueID>  (20) 
17

>  <SMILES>  (20) 
C=c1oc2c/c(=C\c3[n-]c(=O)[n-]c3[O-])ccc2c1C#CC1=CCC[N@@H+]1C

>  <Energy>  (20) 
119.95807010386467

>  <Genealogy>  (20) 
C=c1oc2cc(=Cc3[n-]c(=O)[n-]c3[O-])ccc2c1C#CC1=CCC[NH+]1C (protonated)
C=c1oc2cc(=Cc3[n-]c(=O)[n-]c3[O-])ccc2c1C#CC1=CCC[N@@H+]1C (chirality)
C=c1oc2c/c(=C\c3[n-]c(=O)[n-]c3[O-])ccc2c1C#CC1=CCC[N@@H+]1C (cis-trans isomerization)
C=c1oc2c/c(=C\c3[n-]c(=O)[n-]c3[O-])ccc2c1C#CC1=CCC[N@@H+]1C (3D coordinates assigned)
C=c1oc2c/c(=C\c3[n-]c(=O)[n-]c3[O-])ccc2c1C#CC1=CCC[N@@H+]1C (nonaromatic ring conformer: 119.95807010386467 kcal/mol)

>  <smiles>  (20) 
C=c1oc2cc(=Cc3[nH]c(=O)[nH]c3O)ccc2c1C#CC1=CCCN1C

>  <score_type>  (20) 
oracle

>  <origin>  (20) 
adg

>  <m_score__min__energy>  (20) 
-14.58

>  <m_primary>  (20) 
energy

$$$$
20:0
     RDKit          3D

 53 56  0  0  0  0  0  0  0  0999 V2000
   60.4450   27.9510   49.7340 C   0  0  0  0  0  0  0  0  0  0  0  0
   59.8780   28.7140   48.6170 N   0  0  0  0  0  0  0  0  0  0  0  0
   59.7390   28.1200   47.3080 C   0  0  0  0  0  0  0  0  0  0  0  0
   60.7560   27.7110   46.6870 O   0  0  0  0  0  0  0  0  0  0  0  0
   58.4150   27.9710   46.6690 C   0  0  0  0  0  0  0  0  0  0  0  0
   57.6680   26.8180   46.9440 C   0  0  0  0  0  0  0  0  0  0  0  0
   56.4000   26.6610   46.3810 C   0  0  0  0  0  0  0  0  0  0  0  0
   55.7200   25.6330   46.6350 O   0  0  0  0  0  0  0  0  0  0  0  0
   55.8950   27.6170   45.5580 N   0  0  0  0  0  0  0  0  0  0  0  0
   56.5930   28.7410   45.2510 C   0  0  0  0  0  0  0  0  0  0  0  0
   56.0340   29.6900   44.3870 C   0  0  0  0  0  0  0  0  0  0  0  0
   56.7500   30.8390   44.0470 C   0  0  0  0  0  0  0  0  0  0  0  0
   58.0320   31.0440   44.5620 C   0  0  0  0  0  0  0  0  0  0  0  0
   58.6030   30.1050   45.4270 C   0  0  0  0  0  0  0  0  0  0  0  0
   57.8860   28.9480   45.7930 C   0  0  0  0  0  0  0  0  0  0  0  0
   59.4360   30.0640   48.8470 C   0  0  0  0  0  0  0  0  0  0  0  0
   59.9080   31.1050   48.0340 C   0  0  0  0  0  0  0  0  0  0  0  0
   59.4950   32.4240   48.2570 C   0  0  0  0  0  0  0  0  0  0  0  0
   60.1270   33.7190   47.2420 S   0  0  0  0  0  0  0  0  0  0  0  0
   59.3180   34.9710   47.4460 O   0  0  0  0  0  0  0  0  0  0  0  0
   60.0090   33.3010   45.8020 O   0  0  0  0  0  0  0  0  0  0  0  0
   61.8040   34.0210   47.6350 N   0  0  0  0  0  0  0  0  0  0  0  0
   62.6520   32.9480   47.0580 C   0  0  0  0  0  0  0  0  0  0  0  0
   64.0170   32.8740   47.7520 C   0  0  0  0  0  0  0  0  0  0  0  0
   63.8610   32.5300   49.2440 C   0  0  0  0  0  0  0  0  0  0  0  0
   62.4990   32.9640   49.8150 C   0  0  0  0  0  0  0  0  0  0  0  0
   61.9760   34.2190   49.1000 C   0  0  0  0  0  0  0  0  0  0  0  0
   58.6160   32.7060   49.3100 C   0  0  0  0  0  0  0  0  0  0  0  0
   58.1430   31.6750   50.1250 C   0  0  0  0  0  0  0  0  0  0  0  0
   58.5480   30.3560   49.8990 C   0  0  0  0  0  0  0  0  0  0  0  0
   58.0580   29.3410   50.7130 O   0  0  0  0  0  0  0  0  0  0  0  0
   60.1157   28.3942   50.6854 H   0  0  0  0  0  0  0  0  0  0  0  0
   60.1014   26.9076   49.6772 H   0  0  0  0  0  0  0  0  0  0  0  0
   61.5432   27.9790   49.6772 H   0  0  0  0  0  0  0  0  0  0  0  0
   58.0795   26.0383   47.6019 H   0  0  0  0  0  0  0  0  0  0  0  0
   55.0269   29.5297   43.9745 H   0  0  0  0  0  0  0  0  0  0  0  0
   56.3038   31.5844   43.3722 H   0  0  0  0  0  0  0  0  0  0  0  0
   58.5950   31.9478   44.2861 H   0  0  0  0  0  0  0  0  0  0  0  0
   59.6158   30.2701   45.8233 H   0  0  0  0  0  0  0  0  0  0  0  0
   60.6080   30.8833   47.2149 H   0  0  0  0  0  0  0  0  0  0  0  0
   62.0580   34.9190   47.1600 H   0  0  0  0  0  0  0  0  0  0  0  0
   62.1377   31.9831   47.1778 H   0  0  0  0  0  0  0  0  0  0  0  0
   62.8182   33.1748   45.9945 H   0  0  0  0  0  0  0  0  0  0  0  0
   64.6258   32.0974   47.2658 H   0  0  0  0  0  0  0  0  0  0  0  0
   64.5055   33.8561   47.6687 H   0  0  0  0  0  0  0  0  0  0  0  0
   63.9632   31.4416   49.3667 H   0  0  0  0  0  0  0  0  0  0  0  0
   64.6411   33.0767   49.7941 H   0  0  0  0  0  0  0  0  0  0  0  0
   61.7758   32.1461   49.6809 H   0  0  0  0  0  0  0  0  0  0  0  0
   62.6250   33.1963   50.8828 H   0  0  0  0  0  0  0  0  0  0  0  0
   61.0025   34.4904   49.5343 H   0  0  0  0  0  0  0  0  0  0  0  0
   62.7227   35.0145   49.2404 H   0  0  0  0  0  0  0  0  0  0  0  0
   58.2972   33.7423   49.4958 H   0  0  0  0  0  0  0  0  0  0  0  0
   57.4491   31.9017   50.9479 H   0  0  0  0  0  0  0  0  0  0  0  0
  1  2  1  0
  2  3  1  0
  3  4  2  0
  3  5  1  0
  5  6  2  0
  6  7  1  0
  7  8  2  0
  7  9  1  0
  9 10  1  0
 10 11  2  0
 11 12  1  0
 12 13  2  0
 13 14  1  0
 14 15  2  0
  2 16  1  0
 16 17  2  0
 17 18  1  0
 18 19  1  0
 19 20  2  0
 19 21  2  0
 19 22  1  0
 22 23  1  0
 23 24  1  0
 24 25  1  0
 25 26  1  0
 26 27  1  0
 18 28  2  0
 28 29  1  0
 29 30  2  0
 30 31  1  0
 15  5  1  0
 30 16  1  0
 15 10  1  0
 27 22  1  0
  1 32  1  0
  1 33  1  0
  1 34  1  0
  6 35  1  0
 11 36  1  0
 12 37  1  0
 13 38  1  0
 14 39  1  0
 17 40  1  0
 22 41  1  0
 23 42  1  0
 23 43  1  0
 24 44  1  0
 24 45  1  0
 25 46  1  0
 25 47  1  0
 26 48  1  0
 26 49  1  0
 27 50  1  0
 27 51  1  0
 28 52  1  0
 29 53  1  0
M  CHG  3   9  -1  22   1  31  -1
M  END
>  <UniqueID>  (21) 
18

>  <SMILES>  (21) 
CN(C(=O)c1cc(=O)[n-]c2ccccc12)c1cc(S(=O)(=O)[NH+]2CCCCC2)ccc1[O-]

>  <Energy>  (21) 
78.71104187238669

>  <Genealogy>  (21) 
CN(C(=O)c1cc(=O)[n-]c2ccccc12)c1cc(S(=O)(=O)[NH+]2CCCCC2)ccc1[O-] (protonated)
CN(C(=O)c1cc(=O)[n-]c2ccccc12)c1cc(S(=O)(=O)[NH+]2CCCCC2)ccc1[O-] (3D coordinates assigned)
CN(C(=O)c1cc(=O)[n-]c2ccccc12)c1cc(S(=O)(=O)[NH+]2CCCCC2)ccc1[O-] (nonaromatic ring conformer: 78.71104187238669 kcal/mol)

>  <smiles>  (21) 
CN(C(=O)c1cc(=O)[nH]c2ccccc12)c1cc(S(=O)(=O)N2CCCCC2)ccc1O

>  <score_type>  (21) 
oracle

>  <origin>  (21) 
adg

>  <m_score__min__energy>  (21) 
-13.01

>  <m_primary>  (21) 
energy

$$$$
21:0
     RDKit          3D

 49 51  0  0  0  0  0  0  0  0999 V2000
   59.8560   27.4200   46.5240 O   0  0  0  0  0  0  0  0  0  0  0  0
   58.7670   27.2450   45.9120 C   0  0  0  0  0  0  0  0  0  0  0  0
   58.4820   25.9300   45.2600 C   0  0  0  0  0  0  0  0  0  0  0  0
   57.5590   25.1160   46.1140 C   0  0  0  0  0  0  0  0  0  0  0  0
   57.9270   23.9870   46.7470 N   0  0  0  0  0  0  0  0  0  0  0  0
   56.8090   23.6280   47.4160 C   0  0  0  0  0  0  0  0  0  0  0  0
   56.7510   22.5970   48.1350 O   0  0  0  0  0  0  0  0  0  0  0  0
   55.7590   24.4620   47.2550 N   0  0  0  0  0  0  0  0  0  0  0  0
   56.2480   25.4020   46.4300 C   0  0  0  0  0  0  0  0  0  0  0  0
   55.5060   26.4940   45.9880 O   0  0  0  0  0  0  0  0  0  0  0  0
   57.7970   28.2940   45.8500 N   0  0  0  0  0  0  0  0  0  0  0  0
   57.6250   29.1440   44.6800 C   0  0  0  0  0  0  0  0  0  0  0  0
   56.3200   29.8770   44.7890 C   0  0  0  0  0  0  0  0  0  0  0  0
   55.2520   29.2180   44.8830 O   0  0  0  0  0  0  0  0  0  0  0  0
   56.2460   31.3040   44.6570 N   0  0  0  0  0  0  0  0  0  0  0  0
   57.2970   32.2190   44.9840 C   0  0  0  0  0  0  0  0  0  0  0  0
   57.9250   32.9860   43.9930 C   0  0  0  0  0  0  0  0  0  0  0  0
   58.9540   33.8680   44.3320 C   0  0  0  0  0  0  0  0  0  0  0  0
   59.3700   33.9790   45.6610 C   0  0  0  0  0  0  0  0  0  0  0  0
   58.7690   33.1970   46.6570 C   0  0  0  0  0  0  0  0  0  0  0  0
   59.2790   33.3530   48.3390 S   0  0  0  0  0  0  0  0  0  0  0  0
   59.3080   34.8090   48.7150 O   0  0  0  0  0  0  0  0  0  0  0  0
   58.2790   32.6650   49.2270 O   0  0  0  0  0  0  0  0  0  0  0  0
   60.8590   32.6490   48.5980 N   0  0  0  0  0  0  0  0  0  0  0  0
   61.9070   33.6900   48.7550 C   0  0  0  0  0  0  0  0  0  0  0  0
   62.7830   33.8570   47.5050 C   0  0  0  0  0  0  0  0  0  0  0  0
   63.4720   32.5350   47.1240 C   0  0  0  0  0  0  0  0  0  0  0  0
   62.6380   31.2980   47.5050 C   0  0  0  0  0  0  0  0  0  0  0  0
   61.1440   31.6360   47.5590 C   0  0  0  0  0  0  0  0  0  0  0  0
   57.7460   32.3010   46.3080 C   0  0  0  0  0  0  0  0  0  0  0  0
   58.0114   26.1046   44.2812 H   0  0  0  0  0  0  0  0  0  0  0  0
   59.4270   25.3820   45.1311 H   0  0  0  0  0  0  0  0  0  0  0  0
   55.9220   27.2190   45.4170 H   0  0  0  0  0  0  0  0  0  0  0  0
   58.4507   29.8689   44.6275 H   0  0  0  0  0  0  0  0  0  0  0  0
   57.6259   28.5250   43.7707 H   0  0  0  0  0  0  0  0  0  0  0  0
   57.6064   32.8931   42.9443 H   0  0  0  0  0  0  0  0  0  0  0  0
   59.4368   34.4753   43.5522 H   0  0  0  0  0  0  0  0  0  0  0  0
   60.1724   34.6829   45.9269 H   0  0  0  0  0  0  0  0  0  0  0  0
   61.4164   34.6509   48.9695 H   0  0  0  0  0  0  0  0  0  0  0  0
   62.5654   33.3709   49.5764 H   0  0  0  0  0  0  0  0  0  0  0  0
   62.1518   34.1866   46.6666 H   0  0  0  0  0  0  0  0  0  0  0  0
   63.5609   34.6034   47.7236 H   0  0  0  0  0  0  0  0  0  0  0  0
   63.6385   32.5257   46.0367 H   0  0  0  0  0  0  0  0  0  0  0  0
   64.4188   32.4815   47.6814 H   0  0  0  0  0  0  0  0  0  0  0  0
   62.8013   30.5097   46.7554 H   0  0  0  0  0  0  0  0  0  0  0  0
   62.9553   30.9556   48.5010 H   0  0  0  0  0  0  0  0  0  0  0  0
   60.8299   32.0283   46.5805 H   0  0  0  0  0  0  0  0  0  0  0  0
   60.5895   30.7189   47.8071 H   0  0  0  0  0  0  0  0  0  0  0  0
   57.2944   31.6595   47.0791 H   0  0  0  0  0  0  0  0  0  0  0  0
  1  2  2  0
  2  3  1  0
  3  4  1  0
  4  5  1  0
  5  6  1  0
  6  7  2  0
  6  8  1  0
  8  9  1  0
  9 10  1  0
  2 11  1  0
 11 12  1  0
 12 13  1  0
 13 14  2  0
 13 15  1  0
 15 16  1  0
 16 17  2  0
 17 18  1  0
 18 19  2  0
 19 20  1  0
 20 21  1  0
 21 22  2  0
 21 23  2  0
 21 24  1  0
 24 25  1  0
 25 26  1  0
 26 27  1  0
 27 28  1  0
 28 29  1  0
 20 30  2  0
  9  4  2  0
 30 16  1  0
 29 24  1  0
  3 31  1  0
  3 32  1  0
 10 33  1  0
 12 34  1  0
 12 35  1  0
 17 36  1  0
 18 37  1  0
 19 38  1  0
 25 39  1  0
 25 40  1  0
 26 41  1  0
 26 42  1  0
 27 43  1  0
 27 44  1  0
 28 45  1  0
 28 46  1  0
 29 47  1  0
 29 48  1  0
 30 49  1  0
M  CHG  4   5  -1   8  -1  11  -1  15  -1
M  END
>  <UniqueID>  (22) 
19

>  <SMILES>  (22) 
O=C(Cc1[n-]c(=O)[n-]c1O)[N-]CC(=O)[N-]c1cccc(S(=O)(=O)N2CCCCC2)c1

>  <Energy>  (22) 
81.23082663916189

>  <Genealogy>  (22) 
O=C(Cc1[n-]c(=O)[n-]c1O)[N-]CC(=O)[N-]c1cccc(S(=O)(=O)N2CCCCC2)c1 (protonated)
O=C(Cc1[n-]c(=O)[n-]c1O)[N-]CC(=O)[N-]c1cccc(S(=O)(=O)N2CCCCC2)c1 (3D coordinates assigned)
O=C(Cc1[n-]c(=O)[n-]c1O)[N-]CC(=O)[N-]c1cccc(S(=O)(=O)N2CCCCC2)c1 (nonaromatic ring conformer: 81.23082663916189 kcal/mol)

>  <smiles>  (22) 
O=C(Cc1[nH]c(=O)[nH]c1O)NCC(=O)Nc1cccc(S(=O)(=O)N2CCCCC2)c1

>  <score_type>  (22) 
oracle

>  <origin>  (22) 
adg

>  <m_score__min__energy>  (22) 
-17.16

>  <m_primary>  (22) 
energy

$$$$
22:0
     RDKit          3D

 59 62  0  0  0  0  0  0  0  0999 V2000
   55.2220   26.4350   45.9670 N   0  0  0  0  0  0  0  0  0  0  0  0
   56.8950   26.8660   45.9690 S   0  0  0  0  0  0  0  0  0  0  0  0
   57.6910   25.8020   45.2650 O   0  0  0  0  0  0  0  0  0  0  0  0
   57.3820   26.9730   47.3860 O   0  0  0  0  0  0  0  0  0  0  0  0
   57.1050   28.4070   45.1450 C   0  0  0  0  0  0  0  0  0  0  0  0
   55.9890   29.1420   44.7220 C   0  0  0  0  0  0  0  0  0  0  0  0
   56.1610   30.3450   44.0300 C   0  0  0  0  0  0  0  0  0  0  0  0
   57.4500   30.8230   43.7490 C   0  0  0  0  0  0  0  0  0  0  0  0
   57.6320   32.0780   42.9300 C   0  0  0  0  0  0  0  0  0  0  0  0
   57.6620   33.2660   43.7870 N   0  0  0  0  0  0  0  0  0  0  0  0
   58.2690   33.3400   44.9360 C   0  0  0  0  0  0  0  0  0  0  0  0
   57.6620   32.8100   46.0780 C   0  0  0  0  0  0  0  0  0  0  0  0
   58.2970   32.9390   47.3160 C   0  0  0  0  0  0  0  0  0  0  0  0
   59.5310   33.6070   47.4190 C   0  0  0  0  0  0  0  0  0  0  0  0
   60.1700   33.7950   48.7570 C   0  0  0  0  0  0  0  0  0  0  0  0
   59.6230   34.5820   49.5800 O   0  0  0  0  0  0  0  0  0  0  0  0
   61.3970   33.1160   49.1490 N   0  0  0  0  0  0  0  0  0  0  0  0
   62.2560   32.8510   47.9530 C   0  0  0  0  0  0  0  0  0  0  0  0
   63.7660   33.0640   48.1470 C   0  0  0  0  0  0  0  0  0  0  0  0
   64.1470   32.9050   49.5530 N   0  0  0  0  0  0  0  0  0  0  0  0
   65.6180   32.8820   49.7400 C   0  0  0  0  0  0  0  0  0  0  0  0
   66.0990   31.8500   50.7430 C   0  0  0  0  0  0  0  0  0  0  0  0
   65.2380   30.8300   51.1860 C   0  0  0  0  0  0  0  0  0  0  0  0
   65.6940   29.8620   52.0850 C   0  0  0  0  0  0  0  0  0  0  0  0
   67.0080   29.9090   52.5580 C   0  0  0  0  0  0  0  0  0  0  0  0
   67.8660   30.9280   52.1370 C   0  0  0  0  0  0  0  0  0  0  0  0
   67.4150   31.8960   51.2360 C   0  0  0  0  0  0  0  0  0  0  0  0
   63.5000   33.9610   50.3350 C   0  0  0  0  0  0  0  0  0  0  0  0
   61.9890   33.7380   50.3750 C   0  0  0  0  0  0  0  0  0  0  0  0
   60.1110   34.1000   46.2380 C   0  0  0  0  0  0  0  0  0  0  0  0
   59.4770   33.9550   45.0470 N   0  0  0  0  0  0  0  0  0  0  0  0
   58.5660   30.0880   44.1820 C   0  0  0  0  0  0  0  0  0  0  0  0
   58.3930   28.8850   44.8720 C   0  0  0  0  0  0  0  0  0  0  0  0
   54.7390   27.0780   46.6330 H   0  0  0  0  0  0  0  0  0  0  0  0
   54.9753   28.7716   44.9349 H   0  0  0  0  0  0  0  0  0  0  0  0
   55.2813   30.9195   43.7043 H   0  0  0  0  0  0  0  0  0  0  0  0
   58.5795   32.0109   42.3752 H   0  0  0  0  0  0  0  0  0  0  0  0
   56.7837   32.1688   42.2357 H   0  0  0  0  0  0  0  0  0  0  0  0
   56.6926   32.2957   46.0028 H   0  0  0  0  0  0  0  0  0  0  0  0
   57.8287   32.5152   48.2166 H   0  0  0  0  0  0  0  0  0  0  0  0
   61.0970   32.1620   49.4680 H   0  0  0  0  0  0  0  0  0  0  0  0
   62.0997   31.8047   47.6517 H   0  0  0  0  0  0  0  0  0  0  0  0
   61.9473   33.5882   47.1971 H   0  0  0  0  0  0  0  0  0  0  0  0
   64.3132   32.3266   47.5413 H   0  0  0  0  0  0  0  0  0  0  0  0
   64.0169   34.0875   47.8316 H   0  0  0  0  0  0  0  0  0  0  0  0
   66.0863   32.6642   48.7688 H   0  0  0  0  0  0  0  0  0  0  0  0
   65.9026   33.8674   50.1375 H   0  0  0  0  0  0  0  0  0  0  0  0
   64.2002   30.7939   50.8230 H   0  0  0  0  0  0  0  0  0  0  0  0
   65.0176   29.0621   52.4207 H   0  0  0  0  0  0  0  0  0  0  0  0
   67.3669   29.1436   53.2619 H   0  0  0  0  0  0  0  0  0  0  0  0
   68.8981   30.9683   52.5154 H   0  0  0  0  0  0  0  0  0  0  0  0
   68.0932   32.6985   50.9105 H   0  0  0  0  0  0  0  0  0  0  0  0
   63.8964   33.9480   51.3610 H   0  0  0  0  0  0  0  0  0  0  0  0
   63.7068   34.9336   49.8646 H   0  0  0  0  0  0  0  0  0  0  0  0
   61.7657   33.0821   51.2294 H   0  0  0  0  0  0  0  0  0  0  0  0
   61.5380   34.7382   50.4542 H   0  0  0  0  0  0  0  0  0  0  0  0
   61.0862   34.6072   46.2792 H   0  0  0  0  0  0  0  0  0  0  0  0
   59.5804   30.4609   43.9771 H   0  0  0  0  0  0  0  0  0  0  0  0
   59.2717   28.3114   45.2019 H   0  0  0  0  0  0  0  0  0  0  0  0
  1  2  1  0
  2  3  2  0
  2  4  2  0
  2  5  1  0
  5  6  2  0
  6  7  1  0
  7  8  2  0
  8  9  1  0
  9 10  1  0
 10 11  2  3
 11 12  1  0
 12 13  2  0
 13 14  1  0
 14 15  1  0
 15 16  2  0
 15 17  1  0
 17 18  1  0
 18 19  1  0
 19 20  1  0
 20 21  1  0
 21 22  1  0
 22 23  2  0
 23 24  1  0
 24 25  2  0
 25 26  1  0
 26 27  2  0
 20 28  1  0
 28 29  1  0
 14 30  2  0
 30 31  1  0
  8 32  1  0
 32 33  2  0
 33  5  1  0
 31 11  1  0
 29 17  1  0
 27 22  1  0
  1 34  1  0
  6 35  1  0
  7 36  1  0
  9 37  1  0
  9 38  1  0
 12 39  1  0
 13 40  1  0
 17 41  1  0
 18 42  1  0
 18 43  1  0
 19 44  1  0
 19 45  1  0
 21 46  1  0
 21 47  1  0
 23 48  1  0
 24 49  1  0
 25 50  1  0
 26 51  1  0
 27 52  1  0
 28 53  1  0
 28 54  1  0
 29 55  1  0
 29 56  1  0
 30 57  1  0
 32 58  1  0
 33 59  1  0
M  CHG  3   1  -1  17   1  31  -1
M  END
>  <UniqueID>  (23) 
20

>  <SMILES>  (23) 
[NH-]S(=O)(=O)c1ccc(CN=c2ccc(C(=O)[NH+]3CCN(Cc4ccccc4)CC3)c[n-]2)cc1

>  <Energy>  (23) 
85.1622547036127

>  <Genealogy>  (23) 
[NH-]S(=O)(=O)c1ccc(CN=c2ccc(C(=O)[NH+]3CCN(Cc4ccccc4)CC3)c[n-]2)cc1 (protonated)
[NH-]S(=O)(=O)c1ccc(CN=c2ccc(C(=O)[NH+]3CCN(Cc4ccccc4)CC3)c[n-]2)cc1 (3D coordinates assigned)
[NH-]S(=O)(=O)c1ccc(CN=c2ccc(C(=O)[NH+]3CCN(Cc4ccccc4)CC3)c[n-]2)cc1 (nonaromatic ring conformer: 85.1622547036127 kcal/mol)

>  <smiles>  (23) 
NS(=O)(=O)c1ccc(CN=c2ccc(C(=O)N3CCN(Cc4ccccc4)CC3)c[nH]2)cc1

>  <score_type>  (23) 
oracle

>  <origin>  (23) 
adg

>  <m_score__min__energy>  (23) 
-12.16

>  <m_primary>  (23) 
energy

$$$$
23:0
     RDKit          3D

 35 37  0  0  0  0  0  0  0  0999 V2000
   59.7270   27.4260   45.9810 O   0  0  0  0  0  0  0  0  0  0  0  0
   58.5220   27.7090   45.7490 C   0  0  0  0  0  0  0  0  0  0  0  0
   58.1910   28.9210   45.1380 C   0  0  0  0  0  0  0  0  0  0  0  0
   56.8410   29.2060   44.9030 C   0  0  0  0  0  0  0  0  0  0  0  0
   56.4650   30.4630   44.2150 C   0  0  0  0  0  0  0  0  0  0  0  0
   57.3000   31.4730   43.9260 C   0  0  0  0  0  0  0  0  0  0  0  0
   57.8850   32.4060   44.9100 C   0  0  0  0  0  0  0  0  0  0  0  0
   58.4010   33.6320   44.4700 C   0  0  0  0  0  0  0  0  0  0  0  0
   58.9930   34.5140   45.3790 C   0  0  0  0  0  0  0  0  0  0  0  0
   59.0910   34.1690   46.7290 C   0  0  0  0  0  0  0  0  0  0  0  0
   58.6120   32.9260   47.1790 C   0  0  0  0  0  0  0  0  0  0  0  0
   58.7150   32.5170   48.5500 N   0  0  0  0  0  0  0  0  0  0  0  0
   60.0180   32.9260   49.6180 S   0  0  0  0  0  0  0  0  0  0  0  0
   59.7190   34.2380   50.2870 O   0  0  0  0  0  0  0  0  0  0  0  0
   60.1510   31.8580   50.6660 O   0  0  0  0  0  0  0  0  0  0  0  0
   61.5200   33.0320   48.7190 C   0  0  0  0  0  0  0  0  0  0  0  0
   62.5190   33.9710   48.9220 C   0  0  0  0  0  0  0  0  0  0  0  0
   63.6110   33.7980   48.0630 C   0  0  0  0  0  0  0  0  0  0  0  0
   63.4680   32.7250   47.1900 C   0  0  0  0  0  0  0  0  0  0  0  0
   61.9830   31.9910   47.4860 S   0  0  0  0  0  0  0  0  0  0  0  0
   58.0180   32.0480   46.2630 C   0  0  0  0  0  0  0  0  0  0  0  0
   55.8980   28.2850   45.2440 N   0  0  0  0  0  0  0  0  0  0  0  0
   56.2390   27.1130   45.8400 C   0  0  0  0  0  0  0  0  0  0  0  0
   55.3450   26.2880   46.1590 O   0  0  0  0  0  0  0  0  0  0  0  0
   57.5430   26.8320   46.0910 N   0  0  0  0  0  0  0  0  0  0  0  0
   58.9748   29.6361   44.8478 H   0  0  0  0  0  0  0  0  0  0  0  0
   55.4127   30.5781   43.9159 H   0  0  0  0  0  0  0  0  0  0  0  0
   57.5709   31.6178   42.8698 H   0  0  0  0  0  0  0  0  0  0  0  0
   58.3401   33.9016   43.4053 H   0  0  0  0  0  0  0  0  0  0  0  0
   59.3825   35.4818   45.0303 H   0  0  0  0  0  0  0  0  0  0  0  0
   59.5446   34.8724   47.4428 H   0  0  0  0  0  0  0  0  0  0  0  0
   62.4602   34.7679   49.6780 H   0  0  0  0  0  0  0  0  0  0  0  0
   64.4977   34.4489   48.0773 H   0  0  0  0  0  0  0  0  0  0  0  0
   64.2017   32.4094   46.4337 H   0  0  0  0  0  0  0  0  0  0  0  0
   57.6521   31.0689   46.6058 H   0  0  0  0  0  0  0  0  0  0  0  0
  1  2  2  0
  2  3  1  0
  3  4  2  0
  4  5  1  0
  5  6  2  3
  6  7  1  0
  7  8  2  0
  8  9  1  0
  9 10  2  0
 10 11  1  0
 11 12  1  0
 12 13  1  0
 13 14  2  0
 13 15  2  0
 13 16  1  0
 16 17  2  0
 17 18  1  0
 18 19  2  0
 19 20  1  0
 11 21  2  0
  4 22  1  0
 22 23  1  0
 23 24  2  0
 23 25  1  0
 25  2  1  0
 21  7  1  0
 20 16  1  0
  3 26  1  0
  5 27  1  0
  6 28  1  0
  8 29  1  0
  9 30  1  0
 10 31  1  0
 17 32  1  0
 18 33  1  0
 19 34  1  0
 21 35  1  0
M  CHG  3  12  -1  22  -1  25  -1
M  END
>  <UniqueID>  (24) 
21

>  <SMILES>  (24) 
O=c1cc(C=Cc2cccc([N-]S(=O)(=O)c3cccs3)c2)[n-]c(=O)[n-]1

>  <Energy>  (24) 
75.69826076815167

>  <Genealogy>  (24) 
O=c1cc(C=Cc2cccc([N-]S(=O)(=O)c3cccs3)c2)[n-]c(=O)[n-]1 (protonated)
O=c1cc(C=Cc2cccc([N-]S(=O)(=O)c3cccs3)c2)[n-]c(=O)[n-]1 (3D coordinates assigned)
O=c1cc(C=Cc2cccc([N-]S(=O)(=O)c3cccs3)c2)[n-]c(=O)[n-]1 (optimized conformer: 75.69826076815167 kcal/mol)

>  <smiles>  (24) 
O=c1cc(C=Cc2cccc(NS(=O)(=O)c3cccs3)c2)[nH]c(=O)[nH]1

>  <score_type>  (24) 
oracle

>  <origin>  (24) 
adg

>  <m_score__min__energy>  (24) 
-13.91

>  <m_primary>  (24) 
energy

$$$$
24:0
     RDKit          3D

 76 80  0  0  0  0  0  0  0  0999 V2000
   68.3950   29.5760   53.7810 C   0  0  0  0  0  0  0  0  0  0  0  0
   68.3040   30.9460   53.3890 O   0  0  0  0  0  0  0  0  0  0  0  0
   67.1390   31.5590   52.8910 C   0  0  0  0  0  0  0  0  0  0  0  0
   66.1210   30.7410   52.3840 C   0  0  0  0  0  0  0  0  0  0  0  0
   65.0050   31.3000   51.7620 C   0  0  0  0  0  0  0  0  0  0  0  0
   64.8850   32.6880   51.6510 C   0  0  0  0  0  0  0  0  0  0  0  0
   63.8860   33.2720   50.7970 N   0  0  0  0  0  0  0  0  0  0  0  0
   62.6940   33.7100   51.3260 C   0  0  0  0  0  0  0  0  0  0  0  0
   62.4380   33.6810   52.8240 C   0  0  0  0  0  0  0  0  0  0  0  0
   61.6550   32.4500   53.2980 C   0  0  0  0  0  0  0  0  0  0  0  0
   60.7970   31.8220   52.2210 C   0  0  0  0  0  0  0  0  0  0  0  0
   60.9490   30.6340   51.9650 O   0  0  0  0  0  0  0  0  0  0  0  0
   59.7640   32.6150   51.5600 N   0  0  0  0  0  0  0  0  0  0  0  0
   59.1140   31.8740   50.4540 C   0  0  0  0  0  0  0  0  0  0  0  0
   58.1370   30.7930   50.9420 C   0  0  0  0  0  0  0  0  0  0  0  0
   57.0990   31.3890   51.8890 C   0  0  0  0  0  0  0  0  0  0  0  0
   57.7790   32.1250   53.0460 C   0  0  0  0  0  0  0  0  0  0  0  0
   58.7810   33.1700   52.5220 C   0  0  0  0  0  0  0  0  0  0  0  0
   61.6750   34.0640   50.4930 N   0  0  0  0  0  0  0  0  0  0  0  0
   61.8150   34.0390   49.1460 C   0  0  0  0  0  0  0  0  0  0  0  0
   60.7250   34.3540   48.3230 C   0  0  0  0  0  0  0  0  0  0  0  0
   60.8380   34.2220   46.9340 C   0  0  0  0  0  0  0  0  0  0  0  0
   59.6600   34.4100   46.0740 C   0  0  0  0  0  0  0  0  0  0  0  0
   59.2870   35.5790   45.7800 O   0  0  0  0  0  0  0  0  0  0  0  0
   58.9300   33.2720   45.5810 N   0  0  0  0  0  0  0  0  0  0  0  0
   58.2120   33.3900   44.3080 C   0  0  0  0  0  0  0  0  0  0  0  0
   58.0970   32.0200   43.6430 C   0  0  0  0  0  0  0  0  0  0  0  0
   57.6140   31.0200   44.6050 N   0  0  0  0  0  0  0  0  0  0  0  0
   56.7020   29.9840   44.1590 C   0  0  0  0  0  0  0  0  0  0  0  0
   56.5680   28.6790   44.8880 C   0  0  0  0  0  0  0  0  0  0  0  0
   55.9690   30.1800   43.1520 O   0  0  0  0  0  0  0  0  0  0  0  0
   58.3490   30.9010   45.8720 C   0  0  0  0  0  0  0  0  0  0  0  0
   58.4730   32.2620   46.5450 C   0  0  0  0  0  0  0  0  0  0  0  0
   62.0630   33.8430   46.3690 C   0  0  0  0  0  0  0  0  0  0  0  0
   63.1680   33.5810   47.1840 C   0  0  0  0  0  0  0  0  0  0  0  0
   63.0410   33.6500   48.5820 C   0  0  0  0  0  0  0  0  0  0  0  0
   64.0930   33.2940   49.4460 C   0  0  0  0  0  0  0  0  0  0  0  0
   65.2200   32.9910   48.9800 O   0  0  0  0  0  0  0  0  0  0  0  0
   65.8610   33.5170   52.2250 C   0  0  0  0  0  0  0  0  0  0  0  0
   66.9760   32.9580   52.8490 C   0  0  0  0  0  0  0  0  0  0  0  0
   68.3995   29.5083   54.8789 H   0  0  0  0  0  0  0  0  0  0  0  0
   67.5316   29.0226   53.3830 H   0  0  0  0  0  0  0  0  0  0  0  0
   69.3240   29.1417   53.3830 H   0  0  0  0  0  0  0  0  0  0  0  0
   66.2027   29.6480   52.4773 H   0  0  0  0  0  0  0  0  0  0  0  0
   64.2174   30.6470   51.3579 H   0  0  0  0  0  0  0  0  0  0  0  0
   63.4086   33.6942   53.3414 H   0  0  0  0  0  0  0  0  0  0  0  0
   61.8215   34.5611   53.0592 H   0  0  0  0  0  0  0  0  0  0  0  0
   62.3739   31.6966   53.6524 H   0  0  0  0  0  0  0  0  0  0  0  0
   60.9750   32.7887   54.0935 H   0  0  0  0  0  0  0  0  0  0  0  0
   60.2370   33.4420   51.1120 H   0  0  0  0  0  0  0  0  0  0  0  0
   58.5593   32.5912   49.8311 H   0  0  0  0  0  0  0  0  0  0  0  0
   59.9093   31.3652   49.8894 H   0  0  0  0  0  0  0  0  0  0  0  0
   57.6233   30.3529   50.0746 H   0  0  0  0  0  0  0  0  0  0  0  0
   58.7055   30.0215   51.4820 H   0  0  0  0  0  0  0  0  0  0  0  0
   56.4674   32.0971   51.3325 H   0  0  0  0  0  0  0  0  0  0  0  0
   56.4873   30.5728   52.3009 H   0  0  0  0  0  0  0  0  0  0  0  0
   57.0123   32.6328   53.6495 H   0  0  0  0  0  0  0  0  0  0  0  0
   58.3254   31.3905   53.6559 H   0  0  0  0  0  0  0  0  0  0  0  0
   58.2184   33.9719   52.0216 H   0  0  0  0  0  0  0  0  0  0  0  0
   59.3487   33.5381   53.3893 H   0  0  0  0  0  0  0  0  0  0  0  0
   59.7821   34.7045   48.7680 H   0  0  0  0  0  0  0  0  0  0  0  0
   57.2044   33.7901   44.4940 H   0  0  0  0  0  0  0  0  0  0  0  0
   58.7664   34.0683   43.6428 H   0  0  0  0  0  0  0  0  0  0  0  0
   57.3908   32.0839   42.8020 H   0  0  0  0  0  0  0  0  0  0  0  0
   59.0903   31.7154   43.2817 H   0  0  0  0  0  0  0  0  0  0  0  0
   56.5867   28.8613   45.9726 H   0  0  0  0  0  0  0  0  0  0  0  0
   55.6161   28.2014   44.6128 H   0  0  0  0  0  0  0  0  0  0  0  0
   57.4030   28.0179   44.6128 H   0  0  0  0  0  0  0  0  0  0  0  0
   57.8095   30.2140   46.5406 H   0  0  0  0  0  0  0  0  0  0  0  0
   59.3571   30.5130   45.6641 H   0  0  0  0  0  0  0  0  0  0  0  0
   57.4919   32.5596   46.9436 H   0  0  0  0  0  0  0  0  0  0  0  0
   59.2074   32.1903   47.3608 H   0  0  0  0  0  0  0  0  0  0  0  0
   62.1557   33.7510   45.2768 H   0  0  0  0  0  0  0  0  0  0  0  0
   64.1363   33.3210   46.7315 H   0  0  0  0  0  0  0  0  0  0  0  0
   65.7464   34.6102   52.1827 H   0  0  0  0  0  0  0  0  0  0  0  0
   67.7310   33.6117   53.3101 H   0  0  0  0  0  0  0  0  0  0  0  0
  1  2  1  0
  2  3  1  0
  3  4  2  0
  4  5  1  0
  5  6  2  0
  6  7  1  0
  7  8  1  0
  8  9  1  0
  9 10  1  0
 10 11  1  0
 11 12  2  0
 11 13  1  0
 13 14  1  0
 14 15  1  0
 15 16  1  0
 16 17  1  0
 17 18  1  0
  8 19  2  0
 19 20  1  0
 20 21  2  0
 21 22  1  0
 22 23  1  0
 23 24  2  0
 23 25  1  0
 25 26  1  0
 26 27  1  0
 27 28  1  0
 28 29  1  0
 29 30  1  0
 29 31  2  0
 28 32  1  0
 32 33  1  0
 22 34  2  0
 34 35  1  0
 35 36  2  0
 36 37  1  0
 37 38  2  0
  6 39  1  0
 39 40  2  0
 40  3  1  0
 37  7  1  0
 18 13  1  0
 36 20  1  0
 33 25  1  0
  1 41  1  0
  1 42  1  0
  1 43  1  0
  4 44  1  0
  5 45  1  0
  9 46  1  0
  9 47  1  0
 10 48  1  0
 10 49  1  0
 13 50  1  0
 14 51  1  0
 14 52  1  0
 15 53  1  0
 15 54  1  0
 16 55  1  0
 16 56  1  0
 17 57  1  0
 17 58  1  0
 18 59  1  0
 18 60  1  0
 21 61  1  0
 26 62  1  0
 26 63  1  0
 27 64  1  0
 27 65  1  0
 30 66  1  0
 30 67  1  0
 30 68  1  0
 32 69  1  0
 32 70  1  0
 33 71  1  0
 33 72  1  0
 34 73  1  0
 35 74  1  0
 39 75  1  0
 40 76  1  0
M  CHG  1  13   1
M  END
>  <UniqueID>  (25) 
22

>  <SMILES>  (25) 
COc1ccc(-n2c(CCC(=O)[NH+]3CCCCC3)nc3cc(C(=O)N4CCN(C(C)=O)CC4)ccc3c2=O)cc1

>  <Energy>  (25) 
103.35567412044921

>  <Genealogy>  (25) 
COc1ccc(-n2c(CCC(=O)[NH+]3CCCCC3)nc3cc(C(=O)N4CCN(C(C)=O)CC4)ccc3c2=O)cc1 (protonated)
COc1ccc(-n2c(CCC(=O)[NH+]3CCCCC3)nc3cc(C(=O)N4CCN(C(C)=O)CC4)ccc3c2=O)cc1 (3D coordinates assigned)
COc1ccc(-n2c(CCC(=O)[NH+]3CCCCC3)nc3cc(C(=O)N4CCN(C(C)=O)CC4)ccc3c2=O)cc1 (nonaromatic ring conformer: 103.35567412044921 kcal/mol)

>  <smiles>  (25) 
COc1ccc(-n2c(CCC(=O)N3CCCCC3)nc3cc(C(=O)N4CCN(C(C)=O)CC4)ccc3c2=O)cc1

>  <score_type>  (25) 
oracle

>  <origin>  (25) 
adg

>  <m_score__min__energy>  (25) 
-7.7800000000000002

>  <m_primary>  (25) 
energy

$$$$
25:0
     RDKit          3D

 56 59  0  0  0  0  0  0  0  0999 V2000
   59.4211   30.7000   48.3927 H   0  0  0  0  0  0  0  0  0  0  0  0
   58.9870   29.7320   48.1020 C   0  0  0  0  0  0  0  0  0  0  0  0
   59.0138   28.8845   48.8028 H   0  0  0  0  0  0  0  0  0  0  0  0
   58.4250   29.5850   46.8930 C   0  0  0  0  0  0  0  0  0  0  0  0
   57.8360   28.4210   46.3860 C   0  0  0  0  0  0  0  0  0  0  0  0
   57.6580   27.2510   47.0280 C   0  0  0  0  0  0  0  0  0  0  0  0
   57.9291   27.2004   48.0929 H   0  0  0  0  0  0  0  0  0  0  0  0
   57.1220   26.0330   46.3920 C   0  0  0  0  0  0  0  0  0  0  0  0
   57.8960   24.9880   46.0290 N   0  0  0  0  0  0  0  0  0  0  0  0
   57.0370   24.1510   45.4070 C   0  0  0  0  0  0  0  0  0  0  0  0
   57.3960   23.0510   44.9080 O   0  0  0  0  0  0  0  0  0  0  0  0
   55.7710   24.6140   45.3550 N   0  0  0  0  0  0  0  0  0  0  0  0
   54.6340   24.0290   44.6500 C   0  0  0  0  0  0  0  0  0  0  0  0
   53.9032   23.6530   45.3812 H   0  0  0  0  0  0  0  0  0  0  0  0
   54.1602   24.7953   44.0189 H   0  0  0  0  0  0  0  0  0  0  0  0
   54.9820   23.1980   44.0189 H   0  0  0  0  0  0  0  0  0  0  0  0
   55.8320   25.8170   45.9460 C   0  0  0  0  0  0  0  0  0  0  0  0
   54.7690   26.7120   46.0180 O   0  0  0  0  0  0  0  0  0  0  0  0
   57.4150   28.7270   45.0970 C   0  0  0  0  0  0  0  0  0  0  0  0
   56.9067   28.0508   44.3939 H   0  0  0  0  0  0  0  0  0  0  0  0
   57.7590   30.0450   44.8710 C   0  0  0  0  0  0  0  0  0  0  0  0
   57.4850   30.7930   43.6020 C   0  0  0  0  0  0  0  0  0  0  0  0
   57.1158   31.8008   43.8428 H   0  0  0  0  0  0  0  0  0  0  0  0
   58.4124   30.8726   43.0158 H   0  0  0  0  0  0  0  0  0  0  0  0
   56.7257   30.2547   43.0158 H   0  0  0  0  0  0  0  0  0  0  0  0
   58.3820   30.5620   45.9530 N   0  0  0  0  0  0  0  0  0  0  0  0
   58.8650   31.9100   46.0800 C   0  0  0  0  0  0  0  0  0  0  0  0
   60.2140   32.1450   46.3820 C   0  0  0  0  0  0  0  0  0  0  0  0
   60.8972   31.2945   46.5231 H   0  0  0  0  0  0  0  0  0  0  0  0
   60.7010   33.4580   46.5060 C   0  0  0  0  0  0  0  0  0  0  0  0
   62.1250   33.6970   46.8360 C   0  0  0  0  0  0  0  0  0  0  0  0
   62.9290   33.9970   45.9130 O   0  0  0  0  0  0  0  0  0  0  0  0
   62.6150   33.5710   48.1840 N   0  0  0  0  0  0  0  0  0  0  0  0
   61.9180   34.2210   49.2980 C   0  0  0  0  0  0  0  0  0  0  0  0
   62.4375   35.1569   49.5515 H   0  0  0  0  0  0  0  0  0  0  0  0
   60.8819   34.4286   48.9923 H   0  0  0  0  0  0  0  0  0  0  0  0
   61.8930   33.3050   50.5380 C   0  0  0  0  0  0  0  0  0  0  0  0
   61.8482   33.9399   51.4352 H   0  0  0  0  0  0  0  0  0  0  0  0
   61.0127   32.6539   50.4327 H   0  0  0  0  0  0  0  0  0  0  0  0
   63.0740   32.4110   50.6580 N   0  0  0  0  0  0  0  0  0  0  0  0
   62.7430   31.0140   50.3220 C   0  0  0  0  0  0  0  0  0  0  0  0
   62.6062   30.4366   51.2482 H   0  0  0  0  0  0  0  0  0  0  0  0
   61.8140   30.9887   49.7335 H   0  0  0  0  0  0  0  0  0  0  0  0
   63.5619   30.5745   49.7335 H   0  0  0  0  0  0  0  0  0  0  0  0
   64.2530   32.8910   49.9090 C   0  0  0  0  0  0  0  0  0  0  0  0
   64.5517   33.8722   50.3066 H   0  0  0  0  0  0  0  0  0  0  0  0
   65.0586   32.1519   50.0309 H   0  0  0  0  0  0  0  0  0  0  0  0
   63.9590   33.0320   48.4070 C   0  0  0  0  0  0  0  0  0  0  0  0
   64.6983   33.7115   47.9579 H   0  0  0  0  0  0  0  0  0  0  0  0
   64.0191   32.0365   47.9429 H   0  0  0  0  0  0  0  0  0  0  0  0
   59.8100   34.5340   46.3480 C   0  0  0  0  0  0  0  0  0  0  0  0
   60.1736   35.5659   46.4621 H   0  0  0  0  0  0  0  0  0  0  0  0
   58.4660   34.3010   46.0470 C   0  0  0  0  0  0  0  0  0  0  0  0
   57.7784   35.1498   45.9174 H   0  0  0  0  0  0  0  0  0  0  0  0
   57.9920   32.9950   45.9100 C   0  0  0  0  0  0  0  0  0  0  0  0
   56.6890   32.7840   45.5980 F   0  0  0  0  0  0  0  0  0  0  0  0
  1  2  1  0
  2  3  1  0
  2  4  2  0
  4  5  1  0
  5  6  2  0
  6  7  1  0
  6  8  1  0
  8  9  1  0
  9 10  1  0
 10 11  2  0
 10 12  1  0
 12 13  1  0
 13 14  1  0
 13 15  1  0
 13 16  1  0
 12 17  1  0
 17 18  1  0
  5 19  1  0
 19 20  1  0
 19 21  2  0
 21 22  1  0
 22 23  1  0
 22 24  1  0
 22 25  1  0
 21 26  1  0
 26 27  1  0
 27 28  2  0
 28 29  1  0
 28 30  1  0
 30 31  1  0
 31 32  2  0
 31 33  1  0
 33 34  1  0
 34 35  1  0
 34 36  1  0
 34 37  1  0
 37 38  1  0
 37 39  1  0
 37 40  1  0
 40 41  1  0
 41 42  1  0
 41 43  1  0
 41 44  1  0
 40 45  1  0
 45 46  1  0
 45 47  1  0
 45 48  1  0
 48 49  1  0
 48 50  1  0
 30 51  2  0
 51 52  1  0
 51 53  1  0
 53 54  1  0
 53 55  2  0
 55 56  1  0
 26  4  1  0
 55 27  1  0
 17  8  2  0
 48 33  1  0
M  CHG  2   9  -1  18  -1
M  END
>  <UniqueID>  (26) 
23

>  <SMILES>  (26) 
C=c1/c(=C/c2[n-]c(=O)n(C)c2[O-])cc(C)n1-c1cc(C(=O)N2CCN(C)CC2)ccc1F

>  <Energy>  (26) 
143.7577335445685

>  <Genealogy>  (26) 
C=c1c(=Cc2[n-]c(=O)n(C)c2[O-])cc(C)n1-c1cc(C(=O)N2CCN(C)CC2)ccc1F (protonated)
C=c1/c(=C/c2[n-]c(=O)n(C)c2[O-])cc(C)n1-c1cc(C(=O)N2CCN(C)CC2)ccc1F (cis-trans isomerization)
C=c1/c(=C/c2[n-]c(=O)n(C)c2[O-])cc(C)n1-c1cc(C(=O)N2CCN(C)CC2)ccc1F (3D coordinates assigned)
C=c1/c(=C/c2[n-]c(=O)n(C)c2[O-])cc(C)n1-c1cc(C(=O)N2CCN(C)CC2)ccc1F (nonaromatic ring conformer: 143.7577335445685 kcal/mol)

>  <smiles>  (26) 
C=c1c(=Cc2[nH]c(=O)n(C)c2O)cc(C)n1-c1cc(C(=O)N2CCN(C)CC2)ccc1F

>  <score_type>  (26) 
oracle

>  <origin>  (26) 
adg

>  <m_score__min__energy>  (26) 
-14.81

>  <m_primary>  (26) 
energy

$$$$
26:0
     RDKit          3D

 49 52  0  0  0  0  0  0  0  0999 V2000
   56.6490   29.8990   42.9350 C   0  0  0  0  0  0  0  0  0  0  0  0
   57.4070   30.3720   43.9300 C   0  0  0  0  0  0  0  0  0  0  0  0
   57.5160   31.6950   44.1690 N   0  0  0  0  0  0  0  0  0  0  0  0
   58.4890   31.8620   45.0810 C   0  0  0  0  0  0  0  0  0  0  0  0
   58.9410   33.2110   45.5500 C   0  0  0  0  0  0  0  0  0  0  0  0
   59.0020   30.6320   45.4650 C   0  0  0  0  0  0  0  0  0  0  0  0
   60.1030   30.4060   46.4260 C   0  0  0  0  0  0  0  0  0  0  0  0
   61.1810   29.9080   45.9980 O   0  0  0  0  0  0  0  0  0  0  0  0
   59.9830   30.7680   47.8180 N   0  0  0  0  0  0  0  0  0  0  0  0
   61.2080   31.0230   48.5930 C   0  0  0  0  0  0  0  0  0  0  0  0
   60.9290   31.1290   50.0980 C   0  0  0  0  0  0  0  0  0  0  0  0
   59.7600   31.9820   50.3590 N   0  0  0  0  0  0  0  0  0  0  0  0
   59.7040   32.7940   51.5540 C   0  0  0  0  0  0  0  0  0  0  0  0
   60.7910   32.8360   52.4480 C   0  0  0  0  0  0  0  0  0  0  0  0
   60.7290   33.6160   53.6070 C   0  0  0  0  0  0  0  0  0  0  0  0
   59.5830   34.3610   53.8890 C   0  0  0  0  0  0  0  0  0  0  0  0
   58.4950   34.3270   53.0140 C   0  0  0  0  0  0  0  0  0  0  0  0
   58.5520   33.5480   51.8530 C   0  0  0  0  0  0  0  0  0  0  0  0
   58.5730   31.8860   49.4930 C   0  0  0  0  0  0  0  0  0  0  0  0
   58.6850   30.7210   48.5060 C   0  0  0  0  0  0  0  0  0  0  0  0
   58.2930   29.6600   44.7570 C   0  0  0  0  0  0  0  0  0  0  0  0
   58.4580   28.3290   44.9150 C   0  0  0  0  0  0  0  0  0  0  0  0
   57.4730   27.4140   45.5140 C   0  0  0  0  0  0  0  0  0  0  0  0
   57.7590   25.8090   45.9490 S   0  0  0  0  0  0  0  0  0  0  0  0
   56.1380   25.5280   46.2910 C   0  0  0  0  0  0  0  0  0  0  0  0
   55.6820   24.4350   46.7160 O   0  0  0  0  0  0  0  0  0  0  0  0
   55.3600   26.6050   46.0540 N   0  0  0  0  0  0  0  0  0  0  0  0
   56.1040   27.6490   45.6020 C   0  0  0  0  0  0  0  0  0  0  0  0
   55.5220   28.8620   45.2550 O   0  0  0  0  0  0  0  0  0  0  0  0
   56.5795   28.8146   42.7642 H   0  0  0  0  0  0  0  0  0  0  0  0
   56.0950   30.5944   42.2873 H   0  0  0  0  0  0  0  0  0  0  0  0
   56.9970   32.4610   43.6830 H   0  0  0  0  0  0  0  0  0  0  0  0
   58.9485   33.2333   46.6497 H   0  0  0  0  0  0  0  0  0  0  0  0
   59.9548   33.4098   45.1723 H   0  0  0  0  0  0  0  0  0  0  0  0
   58.2516   33.9805   45.1723 H   0  0  0  0  0  0  0  0  0  0  0  0
   61.9146   30.1977   48.4208 H   0  0  0  0  0  0  0  0  0  0  0  0
   61.6261   31.9838   48.2581 H   0  0  0  0  0  0  0  0  0  0  0  0
   60.7372   30.1232   50.4999 H   0  0  0  0  0  0  0  0  0  0  0  0
   61.8064   31.5784   50.5860 H   0  0  0  0  0  0  0  0  0  0  0  0
   61.6968   32.2502   52.2329 H   0  0  0  0  0  0  0  0  0  0  0  0
   61.5848   33.6424   54.2975 H   0  0  0  0  0  0  0  0  0  0  0  0
   59.5367   34.9750   54.8005 H   0  0  0  0  0  0  0  0  0  0  0  0
   57.5918   34.9136   53.2379 H   0  0  0  0  0  0  0  0  0  0  0  0
   57.6911   33.5241   51.1687 H   0  0  0  0  0  0  0  0  0  0  0  0
   57.6836   31.7356   50.1226 H   0  0  0  0  0  0  0  0  0  0  0  0
   58.4937   32.8186   48.9151 H   0  0  0  0  0  0  0  0  0  0  0  0
   58.5967   29.7706   49.0528 H   0  0  0  0  0  0  0  0  0  0  0  0
   57.8788   30.7995   47.7618 H   0  0  0  0  0  0  0  0  0  0  0  0
   59.4062   27.8930   44.5676 H   0  0  0  0  0  0  0  0  0  0  0  0
  1  2  2  0
  2  3  1  0
  3  4  1  0
  4  5  1  0
  4  6  2  0
  6  7  1  0
  7  8  2  0
  7  9  1  0
  9 10  1  0
 10 11  1  0
 11 12  1  0
 12 13  1  0
 13 14  2  0
 14 15  1  0
 15 16  2  0
 16 17  1  0
 17 18  2  0
 12 19  1  0
 19 20  1  0
  6 21  1  0
 21 22  2  3
 22 23  1  0
 23 24  1  0
 24 25  1  0
 25 26  2  0
 25 27  1  0
 27 28  1  0
 28 29  1  0
 21  2  1  0
 28 23  2  0
 20  9  1  0
 18 13  1  0
  1 30  1  0
  1 31  1  0
  3 32  1  0
  5 33  1  0
  5 34  1  0
  5 35  1  0
 10 36  1  0
 10 37  1  0
 11 38  1  0
 11 39  1  0
 14 40  1  0
 15 41  1  0
 16 42  1  0
 17 43  1  0
 18 44  1  0
 19 45  1  0
 19 46  1  0
 20 47  1  0
 20 48  1  0
 22 49  1  0
M  CHG  2  27  -1  29  -1
M  END
>  <UniqueID>  (27) 
24

>  <SMILES>  (27) 
C=c1[nH]c(C)c(C(=O)N2CCN(c3ccccc3)CC2)c1=Cc1sc(=O)[n-]c1[O-]

>  <Energy>  (27) 
131.7107040931512

>  <Genealogy>  (27) 
C=c1[nH]c(C)c(C(=O)N2CCN(c3ccccc3)CC2)c1=Cc1sc(=O)[n-]c1[O-] (protonated)
C=c1[nH]c(C)c(C(=O)N2CCN(c3ccccc3)CC2)c1=Cc1sc(=O)[n-]c1[O-] (3D coordinates assigned)
C=c1[nH]c(C)c(C(=O)N2CCN(c3ccccc3)CC2)c1=Cc1sc(=O)[n-]c1[O-] (nonaromatic ring conformer: 131.7107040931512 kcal/mol)

>  <smiles>  (27) 
C=c1[nH]c(C)c(C(=O)N2CCN(c3ccccc3)CC2)c1=Cc1sc(=O)[nH]c1O

>  <score_type>  (27) 
oracle

>  <origin>  (27) 
adg

>  <m_score__min__energy>  (27) 
-14.380000000000001

>  <m_primary>  (27) 
energy

$$$$
27:0
     RDKit          3D

 40 42  0  0  1  0  0  0  0  0999 V2000
   55.9850   28.3570   45.2470 N   0  0  0  0  0  0  0  0  0  0  0  0
   56.7730   29.4300   44.1820 S   0  0  0  0  0  0  0  0  0  0  0  0
   57.8010   28.6960   43.3490 O   0  0  0  0  0  0  0  0  0  0  0  0
   55.7640   30.0610   43.2320 O   0  0  0  0  0  0  0  0  0  0  0  0
   57.5480   30.7740   44.9970 C   0  0  0  0  0  0  0  0  0  0  0  0
   57.0760   32.0660   44.8540 C   0  0  0  0  0  0  0  0  0  0  0  0
   57.7220   33.1060   45.5210 C   0  0  0  0  0  0  0  0  0  0  0  0
   58.8240   32.7980   46.3090 C   0  0  0  0  0  0  0  0  0  0  0  0
   59.3060   31.5270   46.4640 C   0  0  0  0  0  0  0  0  0  0  0  0
   60.4580   31.1380   47.3020 C   0  0  0  0  0  0  0  0  0  0  0  0
   60.2430   29.6500   48.2440 S   0  0  0  0  0  0  0  0  0  0  0  0
   59.5000   28.3150   47.3700 C   0  0  0  0  0  0  0  0  0  0  0  0
   58.1900   27.9570   47.5550 N   0  0  0  0  0  0  0  0  0  0  0  0
   57.9120   26.9100   46.7640 C   0  0  0  0  0  0  0  0  0  0  0  0
   56.8020   26.2690   46.6350 N   0  0  0  0  0  0  0  0  0  0  0  0
   56.7040   25.0800   45.8460 C   0  0  0  0  0  0  0  0  0  0  0  0
   56.2290   23.9150   46.4160 C   0  0  0  0  0  0  0  0  0  0  0  0
   56.1070   22.7320   45.7160 C   0  0  0  0  0  0  0  0  0  0  0  0
   56.4780   22.7150   44.3840 C   0  0  0  0  0  0  0  0  0  0  0  0
   56.9590   23.8680   43.7820 C   0  0  0  0  0  0  0  0  0  0  0  0
   57.0680   25.0400   44.5160 C   0  0  0  0  0  0  0  0  0  0  0  0
   57.5490   26.1890   43.9030 O   0  0  0  0  0  0  0  0  0  0  0  0
   59.0190   26.5970   46.0810 N   0  0  0  0  0  0  0  0  0  0  0  0
   59.9510   27.4510   46.4610 N   0  0  0  0  0  0  0  0  0  0  0  0
   58.6460   30.5150   45.7910 C   0  0  0  0  0  0  0  0  0  0  0  0
   56.0410   27.3650   44.9320 H   0  0  0  0  0  0  0  0  0  0  0  0
   56.5030   28.4040   46.1730 H   0  0  0  0  0  0  0  0  0  0  0  0
   56.2002   32.2710   44.2208 H   0  0  0  0  0  0  0  0  0  0  0  0
   57.3684   34.1433   45.4258 H   0  0  0  0  0  0  0  0  0  0  0  0
   59.3350   33.6178   46.8351 H   0  0  0  0  0  0  0  0  0  0  0  0
   61.3270   30.9996   46.6419 H   0  0  0  0  0  0  0  0  0  0  0  0
   60.5864   31.9468   48.0364 H   0  0  0  0  0  0  0  0  0  0  0  0
   55.9347   23.9309   47.4758 H   0  0  0  0  0  0  0  0  0  0  0  0
   55.7239   21.8246   46.2057 H   0  0  0  0  0  0  0  0  0  0  0  0
   56.3915   21.7860   43.8013 H   0  0  0  0  0  0  0  0  0  0  0  0
   57.2541   23.8532   42.7224 H   0  0  0  0  0  0  0  0  0  0  0  0
   56.9490   27.0150   43.8490 H   0  0  0  0  0  0  0  0  0  0  0  0
   59.1350   25.8240   45.3770 H   0  0  0  0  0  0  0  0  0  0  0  0
   60.9120   27.4350   46.0780 H   0  0  0  0  0  0  0  0  0  0  0  0
   59.0047   29.4800   45.8911 H   0  0  0  0  0  0  0  0  0  0  0  0
  1  2  1  0
  2  3  2  0
  2  4  2  0
  2  5  1  0
  5  6  2  0
  6  7  1  0
  7  8  2  0
  8  9  1  0
  9 10  1  0
 10 11  1  0
 11 12  1  0
 12 13  2  0
 13 14  1  0
 14 15  2  0
 15 16  1  0
 16 17  2  0
 17 18  1  0
 18 19  2  0
 19 20  1  0
 20 21  2  0
 21 22  1  0
 14 23  1  0
 23 24  1  0
  9 25  2  0
 25  5  1  0
 24 12  1  0
 21 16  1  0
  1 26  1  0
  1 27  1  0
  6 28  1  0
  7 29  1  0
  8 30  1  0
 10 31  1  0
 10 32  1  0
 17 33  1  0
 18 34  1  0
 19 35  1  0
 20 36  1  0
 22 37  1  0
 23 38  1  0
 24 39  1  0
 25 40  1  0
M  END
>  <smiles>  (28) 
NS(=O)(=O)c1cccc(CSc2nc(=Nc3ccccc3O)[nH][nH]2)c1

>  <score_type>  (28) 
oracle

>  <origin>  (28) 
adg

>  <m_score__min__energy>  (28) 
-10.140000000000001

>  <m_primary>  (28) 
energy

$$$$
28:0
     RDKit          3D

 67 72  0  0  1  0  0  0  0  0999 V2000
   62.2870   33.1960   51.3840 O   0  0  0  0  0  0  0  0  0  0  0  0
   61.4840   32.8810   50.4010 C   0  0  0  0  0  0  0  0  0  0  0  0
   60.3490   32.0730   50.7900 C   0  0  0  0  0  0  0  0  0  0  0  0
   60.5740   30.6800   50.9700 N   0  0  0  0  0  0  0  0  0  0  0  0
   61.4680   30.1280   50.0080 C   0  0  0  0  0  0  0  0  0  0  0  0
   60.7270   29.3750   48.9090 C   0  0  0  0  0  0  0  0  0  0  0  0
   59.3600   29.8420   48.8720 N   0  0  0  0  0  0  0  0  0  0  0  0
   58.7580   30.5230   47.7910 C   0  0  0  0  0  0  0  0  0  0  0  0
   56.8190   30.9270   43.7590 C   0  0  0  0  0  0  0  0  0  0  0  0
   57.3190   29.8600   44.4980 C   0  0  0  0  0  0  0  0  0  0  0  0
   57.7740   33.7920   46.6990 N   0  0  0  0  0  0  0  0  0  0  0  0
   58.3090   34.5970   45.6170 C   0  0  0  0  0  0  0  0  0  0  0  0
   59.6440   35.3030   45.9040 C   0  0  0  0  0  0  0  0  0  0  0  0
   59.5640   34.1750   44.9330 C   0  0  0  0  0  0  0  0  0  0  0  0
   57.5640   31.7600   45.6140 N   0  0  0  0  0  0  0  0  0  0  0  0
   56.9830   32.0560   44.4630 N   0  0  0  0  0  0  0  0  0  0  0  0
   58.5410   31.8800   47.7490 C   0  0  0  0  0  0  0  0  0  0  0  0
   57.9420   32.5120   46.6610 C   0  0  0  0  0  0  0  0  0  0  0  0
   57.3400   28.5710   44.1480 C   0  0  0  0  0  0  0  0  0  0  0  0
   57.7770   27.5430   45.0810 C   0  0  0  0  0  0  0  0  0  0  0  0
   59.0130   27.1040   45.3660 N   0  0  0  0  0  0  0  0  0  0  0  0
   58.9470   26.1330   46.2990 C   0  0  0  0  0  0  0  0  0  0  0  0
   59.9720   25.5450   46.7490 O   0  0  0  0  0  0  0  0  0  0  0  0
   57.6610   25.9430   46.6190 N   0  0  0  0  0  0  0  0  0  0  0  0
   56.9160   26.7930   45.8890 C   0  0  0  0  0  0  0  0  0  0  0  0
   55.5320   26.9280   45.9120 O   0  0  0  0  0  0  0  0  0  0  0  0
   57.7830   30.4330   45.6700 C   0  0  0  0  0  0  0  0  0  0  0  0
   58.3590   29.8170   46.7140 N   0  0  0  0  0  0  0  0  0  0  0  0
   58.5630   29.5620   50.0750 C   0  0  0  0  0  0  0  0  0  0  0  0
   59.4000   29.9340   51.2630 C   0  0  0  0  0  0  0  0  0  0  0  0
   61.8880   33.3910   49.1680 N   0  0  0  0  0  0  0  0  0  0  0  0
   63.0860   34.2400   49.1550 C   0  0  0  0  0  0  0  0  0  0  0  0
   64.1780   33.4880   48.4460 C   0  0  0  0  0  0  0  0  0  0  0  0
   63.6960   32.8610   47.1580 C   0  0  0  0  0  0  0  0  0  0  0  0
   62.3290   33.3150   46.7680 C   0  0  0  0  0  0  0  0  0  0  0  0
   61.2930   33.1570   47.8780 C   0  0  0  0  0  0  0  0  0  0  0  0
   59.9690   32.4726   51.7418 H   0  0  0  0  0  0  0  0  0  0  0  0
   59.6496   32.1403   49.9436 H   0  0  0  0  0  0  0  0  0  0  0  0
   62.0472   30.9441   49.5514 H   0  0  0  0  0  0  0  0  0  0  0  0
   62.1269   29.4148   50.5250 H   0  0  0  0  0  0  0  0  0  0  0  0
   61.2100   29.5649   47.9391 H   0  0  0  0  0  0  0  0  0  0  0  0
   60.7498   28.2942   49.1125 H   0  0  0  0  0  0  0  0  0  0  0  0
   56.3635   30.8561   42.7603 H   0  0  0  0  0  0  0  0  0  0  0  0
   57.3066   34.8799   45.2633 H   0  0  0  0  0  0  0  0  0  0  0  0
   59.8148   36.3292   45.5465 H   0  0  0  0  0  0  0  0  0  0  0  0
   60.2373   35.5221   46.8040 H   0  0  0  0  0  0  0  0  0  0  0  0
   59.6907   34.3722   43.8583 H   0  0  0  0  0  0  0  0  0  0  0  0
   60.0933   33.2165   44.8281 H   0  0  0  0  0  0  0  0  0  0  0  0
   58.8527   32.4913   48.6087 H   0  0  0  0  0  0  0  0  0  0  0  0
   57.0211   28.2812   43.1359 H   0  0  0  0  0  0  0  0  0  0  0  0
   59.8860   27.4660   44.9260 H   0  0  0  0  0  0  0  0  0  0  0  0
   57.3370   25.2430   47.3230 H   0  0  0  0  0  0  0  0  0  0  0  0
   55.1530   27.8820   45.9210 H   0  0  0  0  0  0  0  0  0  0  0  0
   57.6403   30.1607   50.0627 H   0  0  0  0  0  0  0  0  0  0  0  0
   58.2805   28.4997   50.1157 H   0  0  0  0  0  0  0  0  0  0  0  0
   58.7772   30.5338   51.9429 H   0  0  0  0  0  0  0  0  0  0  0  0
   59.7441   28.9856   51.7013 H   0  0  0  0  0  0  0  0  0  0  0  0
   62.8728   35.1790   48.6232 H   0  0  0  0  0  0  0  0  0  0  0  0
   63.3937   34.4840   50.1825 H   0  0  0  0  0  0  0  0  0  0  0  0
   64.9967   34.1857   48.2157 H   0  0  0  0  0  0  0  0  0  0  0  0
   64.5165   32.6787   49.1096 H   0  0  0  0  0  0  0  0  0  0  0  0
   64.3974   33.1277   46.3537 H   0  0  0  0  0  0  0  0  0  0  0  0
   63.6502   31.7735   47.3168 H   0  0  0  0  0  0  0  0  0  0  0  0
   62.3816   34.3780   46.4901 H   0  0  0  0  0  0  0  0  0  0  0  0
   62.0045   32.6795   45.9309 H   0  0  0  0  0  0  0  0  0  0  0  0
   60.4802   33.8809   47.7188 H   0  0  0  0  0  0  0  0  0  0  0  0
   60.9006   32.1297   47.8512 H   0  0  0  0  0  0  0  0  0  0  0  0
  1  2  2  0
  2  3  1  0
  3  4  1  0
  4  5  1  0
  5  6  1  0
  6  7  1  0
  7  8  1  0
  8  9  2  0
  9 10  1  0
 10 11  2  0
 11 12  1  0
 12 13  1  0
 13 14  1  0
 10 15  1  0
 15 16  1  0
 16 17  2  0
 17 18  1  0
 18 19  2  0
 19 20  1  0
 20 21  1  0
 21 22  1  0
 22 23  2  0
 22 24  1  0
 24 25  1  0
 25 26  1  0
 18 27  1  0
 27 28  2  0
  7 29  1  0
 29 30  1  0
  2 31  1  0
 31 32  1  0
 32 33  1  0
 33 34  1  0
 34 35  1  0
 35 36  1  0
 30  4  1  0
 36 31  1  0
 28  8  1  0
 14 12  1  0
 27 15  1  0
 25 20  2  0
  3 37  1  0
  3 38  1  0
  5 39  1  0
  5 40  1  0
  6 41  1  0
  6 42  1  0
  9 43  1  0
 12 44  1  0
 13 45  1  0
 13 46  1  0
 14 47  1  0
 14 48  1  0
 17 49  1  0
 19 50  1  0
 21 51  1  0
 24 52  1  0
 26 53  1  0
 29 54  1  0
 29 55  1  0
 30 56  1  0
 30 57  1  0
 32 58  1  0
 32 59  1  0
 33 60  1  0
 33 61  1  0
 34 62  1  0
 34 63  1  0
 35 64  1  0
 35 65  1  0
 36 66  1  0
 36 67  1  0
M  END
>  <smiles>  (29) 
O=C(CN1CCN(c2cc(=NC3CC3)n3ncc(=Cc4[nH]c(=O)[nH]c4O)c3n2)CC1)N1CCCCC1

>  <score_type>  (29) 
oracle

>  <origin>  (29) 
adg

>  <m_score__min__energy>  (29) 
-10.640000000000001

>  <m_primary>  (29) 
energy

$$$$
29:0
     RDKit          3D

 45 48  0  0  0  0  0  0  0  0999 V2000
   57.1463   22.8848   42.1018 H   0  0  0  0  0  0  0  0  0  0  0  0
   56.6530   23.2870   42.9990 C   0  0  0  0  0  0  0  0  0  0  0  0
   55.4200   22.9260   43.4200 N   0  0  0  0  0  0  0  0  0  0  0  0
   55.0490   23.5810   44.5520 C   0  0  0  0  0  0  0  0  0  0  0  0
   54.0815   23.4100   45.0466 H   0  0  0  0  0  0  0  0  0  0  0  0
   55.9890   24.4840   45.0350 C   0  0  0  0  0  0  0  0  0  0  0  0
   55.8710   25.2810   46.2980 C   0  0  0  0  0  0  0  0  0  0  0  0
   56.7394   25.0694   46.9391 H   0  0  0  0  0  0  0  0  0  0  0  0
   54.9378   24.9960   46.8058 H   0  0  0  0  0  0  0  0  0  0  0  0
   55.8260   26.7150   46.0120 N   0  0  0  0  0  0  0  0  0  0  0  0
   56.7930   27.5320   45.6840 C   0  0  0  0  0  0  0  0  0  0  0  0
   58.0590   27.1690   46.0170 N   0  0  0  0  0  0  0  0  0  0  0  0
   59.1320   27.9400   45.7220 C   0  0  0  0  0  0  0  0  0  0  0  0
   60.1426   27.6168   46.0121 H   0  0  0  0  0  0  0  0  0  0  0  0
   58.9480   29.1430   45.0500 C   0  0  0  0  0  0  0  0  0  0  0  0
   59.8147   29.7766   44.8105 H   0  0  0  0  0  0  0  0  0  0  0  0
   57.6930   29.5390   44.6870 N   0  0  0  0  0  0  0  0  0  0  0  0
   57.5280   30.8330   44.0030 C   0  0  0  0  0  0  0  0  0  0  0  0
   56.5298   30.8772   43.5430 H   0  0  0  0  0  0  0  0  0  0  0  0
   58.3012   30.9323   43.2269 H   0  0  0  0  0  0  0  0  0  0  0  0
   57.6710   31.9520   44.9840 C   0  0  0  0  0  0  0  0  0  0  0  0
   56.7000   32.8510   45.2380 N   0  0  0  0  0  0  0  0  0  0  0  0
   57.1890   33.6080   46.1720 O   0  0  0  0  0  0  0  0  0  0  0  0
   58.3910   33.1970   46.4890 C   0  0  0  0  0  0  0  0  0  0  0  0
   59.2540   33.8460   47.5230 C   0  0  0  0  0  0  0  0  0  0  0  0
   58.8585   33.6151   48.5231 H   0  0  0  0  0  0  0  0  0  0  0  0
   59.2523   34.9338   47.3599 H   0  0  0  0  0  0  0  0  0  0  0  0
   60.6700   33.3350   47.4170 C   0  0  0  0  0  0  0  0  0  0  0  0
   61.6250   34.1350   46.7640 C   0  0  0  0  0  0  0  0  0  0  0  0
   61.3310   35.1164   46.3636 H   0  0  0  0  0  0  0  0  0  0  0  0
   62.9420   33.6960   46.6190 C   0  0  0  0  0  0  0  0  0  0  0  0
   63.6804   34.3338   46.1112 H   0  0  0  0  0  0  0  0  0  0  0  0
   63.3230   32.4520   47.1160 C   0  0  0  0  0  0  0  0  0  0  0  0
   64.3631   32.1116   47.0050 H   0  0  0  0  0  0  0  0  0  0  0  0
   62.3870   31.6360   47.7550 C   0  0  0  0  0  0  0  0  0  0  0  0
   62.6952   30.6550   48.1458 H   0  0  0  0  0  0  0  0  0  0  0  0
   61.0540   32.0580   47.9030 C   0  0  0  0  0  0  0  0  0  0  0  0
   60.0750   31.1510   48.6020 C   0  0  0  0  0  0  0  0  0  0  0  0
   60.1897   31.2573   49.6908 H   0  0  0  0  0  0  0  0  0  0  0  0
   59.0498   31.4256   48.3128 H   0  0  0  0  0  0  0  0  0  0  0  0
   60.2706   30.1079   48.3128 H   0  0  0  0  0  0  0  0  0  0  0  0
   58.7600   32.1260   45.7610 N   0  0  0  0  0  0  0  0  0  0  0  0
   56.6020   28.7650   45.0040 C   0  0  0  0  0  0  0  0  0  0  0  0
   55.4470   29.1650   44.6980 O   0  0  0  0  0  0  0  0  0  0  0  0
   57.3340   24.4310   44.0260 S   0  0  0  0  0  0  0  0  0  0  0  0
  1  2  1  0
  2  3  2  0
  3  4  1  0
  4  5  1  0
  4  6  2  0
  6  7  1  0
  7  8  1  0
  7  9  1  0
  7 10  1  0
 10 11  2  0
 11 12  1  0
 12 13  1  0
 13 14  1  0
 13 15  2  0
 15 16  1  0
 15 17  1  0
 17 18  1  0
 18 19  1  0
 18 20  1  0
 18 21  1  0
 21 22  2  0
 22 23  1  0
 23 24  1  0
 24 25  1  0
 25 26  1  0
 25 27  1  0
 25 28  1  0
 28 29  2  0
 29 30  1  0
 29 31  1  0
 31 32  1  0
 31 33  2  0
 33 34  1  0
 33 35  1  0
 35 36  1  0
 35 37  2  0
 37 38  1  0
 38 39  1  0
 38 40  1  0
 38 41  1  0
 24 42  2  0
 17 43  1  0
 43 44  2  0
  6 45  1  0
 45  2  1  0
 43 11  1  0
 42 21  1  0
 37 28  1  0
M  CHG  1  12  -1
M  END
>  <UniqueID>  (30) 
25

>  <SMILES>  (30) 
Cc1ccccc1Cc1nc(Cn2cc[n-]/c(=N/Cc3cncs3)c2=O)no1

>  <Energy>  (30) 
117.98715223804042

>  <Genealogy>  (30) 
Cc1ccccc1Cc1nc(Cn2cc[n-]c(=NCc3cncs3)c2=O)no1 (protonated)
Cc1ccccc1Cc1nc(Cn2cc[n-]/c(=N/Cc3cncs3)c2=O)no1 (cis-trans isomerization)
Cc1ccccc1Cc1nc(Cn2cc[n-]/c(=N/Cc3cncs3)c2=O)no1 (3D coordinates assigned)
Cc1ccccc1Cc1nc(Cn2cc[n-]/c(=N/Cc3cncs3)c2=O)no1 (optimized conformer: 117.98715223804042 kcal/mol)

>  <smiles>  (30) 
Cc1ccccc1Cc1nc(Cn2cc[nH]c(=NCc3cncs3)c2=O)no1

>  <score_type>  (30) 
oracle

>  <origin>  (30) 
adg

>  <m_score__min__energy>  (30) 
-10.609999999999999

>  <m_primary>  (30) 
energy

$$$$
30:0
     RDKit          3D

 71 75  0  0  0  0  0  0  0  0999 V2000
   58.1320   34.6320   46.6320 N   0  0  0  0  0  0  0  0  0  0  0  0
   58.4210   34.2180   45.2960 C   0  0  0  0  0  0  0  0  0  0  0  0
   58.9920   35.0250   44.5140 O   0  0  0  0  0  0  0  0  0  0  0  0
   58.0640   32.8570   44.8260 C   0  0  0  0  0  0  0  0  0  0  0  0
   57.8030   32.6410   43.4630 C   0  0  0  0  0  0  0  0  0  0  0  0
   57.4730   31.3670   42.9940 C   0  0  0  0  0  0  0  0  0  0  0  0
   57.3740   30.2850   43.8770 C   0  0  0  0  0  0  0  0  0  0  0  0
   57.0090   28.9880   43.3650 N   0  0  0  0  0  0  0  0  0  0  0  0
   57.8090   27.7750   43.5400 C   0  0  0  0  0  0  0  0  0  0  0  0
   58.4610   27.7690   44.8970 C   0  0  0  0  0  0  0  0  0  0  0  0
   59.7840   28.2160   45.0360 C   0  0  0  0  0  0  0  0  0  0  0  0
   60.4100   28.1930   46.2850 C   0  0  0  0  0  0  0  0  0  0  0  0
   59.7230   27.7210   47.4160 C   0  0  0  0  0  0  0  0  0  0  0  0
   60.3890   27.6840   48.7370 C   0  0  0  0  0  0  0  0  0  0  0  0
   61.0710   26.6730   49.0530 O   0  0  0  0  0  0  0  0  0  0  0  0
   60.2720   28.7780   49.6660 N   0  0  0  0  0  0  0  0  0  0  0  0
   61.3560   29.0500   50.6210 C   0  0  0  0  0  0  0  0  0  0  0  0
   61.6120   30.5500   50.7080 C   0  0  0  0  0  0  0  0  0  0  0  0
   60.3380   31.2630   51.0630 C   0  0  0  0  0  0  0  0  0  0  0  0
   60.3760   32.4240   51.8500 C   0  0  0  0  0  0  0  0  0  0  0  0
   59.1920   33.0970   52.1670 C   0  0  0  0  0  0  0  0  0  0  0  0
   57.9680   32.6220   51.6900 C   0  0  0  0  0  0  0  0  0  0  0  0
   57.9230   31.4770   50.8900 C   0  0  0  0  0  0  0  0  0  0  0  0
   59.1040   30.7860   50.5720 C   0  0  0  0  0  0  0  0  0  0  0  0
   59.0340   29.5780   49.6640 C   0  0  0  0  0  0  0  0  0  0  0  0
   58.4040   27.2640   47.2740 C   0  0  0  0  0  0  0  0  0  0  0  0
   57.7720   27.2990   46.0260 C   0  0  0  0  0  0  0  0  0  0  0  0
   57.6410   30.4960   45.2400 C   0  0  0  0  0  0  0  0  0  0  0  0
   58.0100   31.7630   45.7190 C   0  0  0  0  0  0  0  0  0  0  0  0
   58.2270   31.9690   47.1250 N   0  0  0  0  0  0  0  0  0  0  0  0
   59.3890   32.5490   47.7320 C   0  0  0  0  0  0  0  0  0  0  0  0
   59.2430   33.2300   48.7830 O   0  0  0  0  0  0  0  0  0  0  0  0
   60.7490   32.4920   47.0680 C   0  0  0  0  0  0  0  0  0  0  0  0
   61.4910   33.8470   47.2260 C   0  0  0  0  0  0  0  0  0  0  0  0
   62.4870   33.8280   48.3920 C   0  0  0  0  0  0  0  0  0  0  0  0
   63.5700   32.7450   48.1990 C   0  0  0  0  0  0  0  0  0  0  0  0
   63.0770   31.5190   47.4050 C   0  0  0  0  0  0  0  0  0  0  0  0
   61.5740   31.2900   47.5980 C   0  0  0  0  0  0  0  0  0  0  0  0
   58.3590   35.6030   46.9410 H   0  0  0  0  0  0  0  0  0  0  0  0
   57.7310   33.9680   47.3320 H   0  0  0  0  0  0  0  0  0  0  0  0
   57.8590   33.4833   42.7577 H   0  0  0  0  0  0  0  0  0  0  0  0
   57.2892   31.2125   41.9205 H   0  0  0  0  0  0  0  0  0  0  0  0
   56.0760   28.8810   42.9050 H   0  0  0  0  0  0  0  0  0  0  0  0
   57.1570   26.8940   43.4470 H   0  0  0  0  0  0  0  0  0  0  0  0
   58.5916   27.7485   42.7674 H   0  0  0  0  0  0  0  0  0  0  0  0
   60.3313   28.5866   44.1567 H   0  0  0  0  0  0  0  0  0  0  0  0
   61.4470   28.5466   46.3834 H   0  0  0  0  0  0  0  0  0  0  0  0
   61.0703   28.6713   51.6135 H   0  0  0  0  0  0  0  0  0  0  0  0
   62.2725   28.5472   50.2787 H   0  0  0  0  0  0  0  0  0  0  0  0
   62.3688   30.7472   51.4815 H   0  0  0  0  0  0  0  0  0  0  0  0
   61.9735   30.9142   49.7350 H   0  0  0  0  0  0  0  0  0  0  0  0
   61.3396   32.8057   52.2185 H   0  0  0  0  0  0  0  0  0  0  0  0
   59.2245   34.0012   52.7925 H   0  0  0  0  0  0  0  0  0  0  0  0
   57.0374   33.1504   51.9447 H   0  0  0  0  0  0  0  0  0  0  0  0
   56.9574   31.1148   50.5072 H   0  0  0  0  0  0  0  0  0  0  0  0
   58.2036   28.9380   49.9969 H   0  0  0  0  0  0  0  0  0  0  0  0
   58.8852   29.9477   48.6387 H   0  0  0  0  0  0  0  0  0  0  0  0
   57.8631   26.8756   48.1496 H   0  0  0  0  0  0  0  0  0  0  0  0
   56.7311   26.9568   45.9293 H   0  0  0  0  0  0  0  0  0  0  0  0
   57.5596   29.6544   45.9437 H   0  0  0  0  0  0  0  0  0  0  0  0
   60.6124   32.3264   45.9891 H   0  0  0  0  0  0  0  0  0  0  0  0
   62.0378   34.0623   46.2961 H   0  0  0  0  0  0  0  0  0  0  0  0
   60.7391   34.6219   47.4360 H   0  0  0  0  0  0  0  0  0  0  0  0
   62.9745   34.8117   48.4607 H   0  0  0  0  0  0  0  0  0  0  0  0
   61.9322   33.5983   49.3137 H   0  0  0  0  0  0  0  0  0  0  0  0
   64.4175   33.1921   47.6589 H   0  0  0  0  0  0  0  0  0  0  0  0
   63.8551   32.3896   49.2002 H   0  0  0  0  0  0  0  0  0  0  0  0
   63.2792   31.6810   46.3359 H   0  0  0  0  0  0  0  0  0  0  0  0
   63.6109   30.6314   47.7753 H   0  0  0  0  0  0  0  0  0  0  0  0
   61.2766   30.3825   47.0520 H   0  0  0  0  0  0  0  0  0  0  0  0
   61.3747   31.1791   48.6741 H   0  0  0  0  0  0  0  0  0  0  0  0
  1  2  1  0
  2  3  2  0
  2  4  1  0
  4  5  2  0
  5  6  1  0
  6  7  2  0
  7  8  1  0
  8  9  1  0
  9 10  1  0
 10 11  2  0
 11 12  1  0
 12 13  2  0
 13 14  1  0
 14 15  2  0
 14 16  1  0
 16 17  1  0
 17 18  1  0
 18 19  1  0
 19 20  2  0
 20 21  1  0
 21 22  2  0
 22 23  1  0
 23 24  2  0
 24 25  1  0
 13 26  1  0
 26 27  2  0
  7 28  1  0
 28 29  2  0
 29 30  1  0
 30 31  1  0
 31 32  2  0
 31 33  1  0
 33 34  1  0
 34 35  1  0
 35 36  1  0
 36 37  1  0
 37 38  1  0
 29  4  1  0
 38 33  1  0
 27 10  1  0
 25 16  1  0
 24 19  1  0
  1 39  1  0
  1 40  1  0
  5 41  1  0
  6 42  1  0
  8 43  1  0
  9 44  1  0
  9 45  1  0
 11 46  1  0
 12 47  1  0
 17 48  1  0
 17 49  1  0
 18 50  1  0
 18 51  1  0
 20 52  1  0
 21 53  1  0
 22 54  1  0
 23 55  1  0
 25 56  1  0
 25 57  1  0
 26 58  1  0
 27 59  1  0
 28 60  1  0
 33 61  1  0
 34 62  1  0
 34 63  1  0
 35 64  1  0
 35 65  1  0
 36 66  1  0
 36 67  1  0
 37 68  1  0
 37 69  1  0
 38 70  1  0
 38 71  1  0
M  CHG  1  30  -1
M  END
>  <UniqueID>  (31) 
26

>  <SMILES>  (31) 
NC(=O)c1ccc(NCc2ccc(C(=O)N3CCc4ccccc4C3)cc2)cc1[N-]C(=O)C1CCCCC1

>  <Energy>  (31) 
91.03937173471974

>  <Genealogy>  (31) 
NC(=O)c1ccc(NCc2ccc(C(=O)N3CCc4ccccc4C3)cc2)cc1[N-]C(=O)C1CCCCC1 (protonated)
NC(=O)c1ccc(NCc2ccc(C(=O)N3CCc4ccccc4C3)cc2)cc1[N-]C(=O)C1CCCCC1 (3D coordinates assigned)
NC(=O)c1ccc(NCc2ccc(C(=O)N3CCc4ccccc4C3)cc2)cc1[N-]C(=O)C1CCCCC1 (nonaromatic ring conformer: 91.03937173471974 kcal/mol)

>  <smiles>  (31) 
NC(=O)c1ccc(NCc2ccc(C(=O)N3CCc4ccccc4C3)cc2)cc1NC(=O)C1CCCCC1

>  <score_type>  (31) 
oracle

>  <origin>  (31) 
adg

>  <m_score__min__energy>  (31) 
-12.67

>  <m_primary>  (31) 
energy

$$$$
31:0
     RDKit          3D

 59 62  0  0  0  0  0  0  0  0999 V2000
   62.7300   33.6930   51.4270 C   0  0  0  0  0  0  0  0  0  0  0  0
   61.2670   33.5130   51.7320 C   0  0  0  0  0  0  0  0  0  0  0  0
   60.7820   33.8300   53.0090 C   0  0  0  0  0  0  0  0  0  0  0  0
   59.4290   33.6740   53.3090 C   0  0  0  0  0  0  0  0  0  0  0  0
   58.5510   33.1750   52.3470 C   0  0  0  0  0  0  0  0  0  0  0  0
   59.0160   32.8240   51.0710 C   0  0  0  0  0  0  0  0  0  0  0  0
   58.0470   32.2400   50.0760 C   0  0  0  0  0  0  0  0  0  0  0  0
   60.3790   33.0270   50.7470 C   0  0  0  0  0  0  0  0  0  0  0  0
   60.8770   32.7050   49.4400 N   0  0  0  0  0  0  0  0  0  0  0  0
   60.5980   33.5170   48.2920 C   0  0  0  0  0  0  0  0  0  0  0  0
   60.0790   34.6580   48.4300 O   0  0  0  0  0  0  0  0  0  0  0  0
   60.9040   33.0030   46.9170 C   0  0  0  0  0  0  0  0  0  0  0  0
   60.2710   31.6830   46.7230 N   0  0  0  0  0  0  0  0  0  0  0  0
   60.7870   30.5640   47.3320 C   0  0  0  0  0  0  0  0  0  0  0  0
   61.8450   30.6290   48.0160 O   0  0  0  0  0  0  0  0  0  0  0  0
   60.1630   29.3660   47.2110 N   0  0  0  0  0  0  0  0  0  0  0  0
   59.0180   29.2300   46.5020 C   0  0  0  0  0  0  0  0  0  0  0  0
   58.3920   27.9820   46.4150 C   0  0  0  0  0  0  0  0  0  0  0  0
   57.1990   27.8350   45.6900 C   0  0  0  0  0  0  0  0  0  0  0  0
   56.5280   26.5190   45.6420 C   0  0  0  0  0  0  0  0  0  0  0  0
   57.1810   25.5160   45.2480 O   0  0  0  0  0  0  0  0  0  0  0  0
   55.1500   26.3450   45.9940 N   0  0  0  0  0  0  0  0  0  0  0  0
   54.3210   25.2120   45.6020 C   0  0  0  0  0  0  0  0  0  0  0  0
   54.8720   23.9360   46.2320 C   0  0  0  0  0  0  0  0  0  0  0  0
   55.6730   23.1490   45.2300 C   0  0  0  0  0  0  0  0  0  0  0  0
   55.4930   23.3660   43.8530 C   0  0  0  0  0  0  0  0  0  0  0  0
   56.2570   22.6540   42.9230 C   0  0  0  0  0  0  0  0  0  0  0  0
   57.2120   21.7330   43.3580 C   0  0  0  0  0  0  0  0  0  0  0  0
   57.4090   21.5240   44.7270 C   0  0  0  0  0  0  0  0  0  0  0  0
   56.6460   22.2330   45.6610 C   0  0  0  0  0  0  0  0  0  0  0  0
   56.6230   28.9600   45.0760 C   0  0  0  0  0  0  0  0  0  0  0  0
   57.2510   30.2070   45.1530 C   0  0  0  0  0  0  0  0  0  0  0  0
   58.4540   30.3510   45.8660 C   0  0  0  0  0  0  0  0  0  0  0  0
   59.1130   31.5860   45.9900 C   0  0  0  0  0  0  0  0  0  0  0  0
   58.6270   32.6110   45.4340 O   0  0  0  0  0  0  0  0  0  0  0  0
   63.2949   33.7625   52.3683 H   0  0  0  0  0  0  0  0  0  0  0  0
   63.0918   32.8326   50.8449 H   0  0  0  0  0  0  0  0  0  0  0  0
   62.8724   34.6154   50.8449 H   0  0  0  0  0  0  0  0  0  0  0  0
   61.4730   34.2040   53.7788 H   0  0  0  0  0  0  0  0  0  0  0  0
   59.0534   33.9451   54.3067 H   0  0  0  0  0  0  0  0  0  0  0  0
   57.4850   33.0557   52.5910 H   0  0  0  0  0  0  0  0  0  0  0  0
   57.2246   31.7443   50.6126 H   0  0  0  0  0  0  0  0  0  0  0  0
   57.6409   33.0439   49.4445 H   0  0  0  0  0  0  0  0  0  0  0  0
   58.5681   31.5054   49.4445 H   0  0  0  0  0  0  0  0  0  0  0  0
   61.5380   31.9020   49.3410 H   0  0  0  0  0  0  0  0  0  0  0  0
   60.5140   33.7084   46.1685 H   0  0  0  0  0  0  0  0  0  0  0  0
   61.9933   32.9035   46.8010 H   0  0  0  0  0  0  0  0  0  0  0  0
   58.8372   27.1107   46.9177 H   0  0  0  0  0  0  0  0  0  0  0  0
   53.2895   25.3756   45.9474 H   0  0  0  0  0  0  0  0  0  0  0  0
   54.3297   25.1132   44.5065 H   0  0  0  0  0  0  0  0  0  0  0  0
   55.5185   24.2029   47.0810 H   0  0  0  0  0  0  0  0  0  0  0  0
   54.0283   23.3180   46.5731 H   0  0  0  0  0  0  0  0  0  0  0  0
   54.7490   24.0981   43.5059 H   0  0  0  0  0  0  0  0  0  0  0  0
   56.1052   22.8199   41.8462 H   0  0  0  0  0  0  0  0  0  0  0  0
   57.8093   21.1719   42.6243 H   0  0  0  0  0  0  0  0  0  0  0  0
   58.1645   20.8016   45.0695 H   0  0  0  0  0  0  0  0  0  0  0  0
   56.8089   22.0723   46.7369 H   0  0  0  0  0  0  0  0  0  0  0  0
   55.6725   28.8592   44.5316 H   0  0  0  0  0  0  0  0  0  0  0  0
   56.8021   31.0784   44.6539 H   0  0  0  0  0  0  0  0  0  0  0  0
  1  2  1  0
  2  3  2  0
  3  4  1  0
  4  5  2  0
  5  6  1  0
  6  7  1  0
  6  8  2  0
  8  9  1  0
  9 10  1  0
 10 11  2  0
 10 12  1  0
 12 13  1  0
 13 14  1  0
 14 15  2  0
 14 16  1  0
 16 17  1  0
 17 18  2  0
 18 19  1  0
 19 20  1  0
 20 21  2  0
 20 22  1  0
 22 23  1  0
 23 24  1  0
 24 25  1  0
 25 26  2  0
 26 27  1  0
 27 28  2  0
 28 29  1  0
 29 30  2  0
 19 31  2  0
 31 32  1  0
 32 33  2  0
 33 34  1  0
 34 35  2  0
  8  2  1  0
 34 13  1  0
 33 17  1  0
 30 25  1  0
  1 36  1  0
  1 37  1  0
  1 38  1  0
  3 39  1  0
  4 40  1  0
  5 41  1  0
  7 42  1  0
  7 43  1  0
  7 44  1  0
  9 45  1  0
 12 46  1  0
 12 47  1  0
 18 48  1  0
 23 49  1  0
 23 50  1  0
 24 51  1  0
 24 52  1  0
 26 53  1  0
 27 54  1  0
 28 55  1  0
 29 56  1  0
 30 57  1  0
 31 58  1  0
 32 59  1  0
M  CHG  2  16  -1  22  -1
M  END
>  <UniqueID>  (32) 
27

>  <SMILES>  (32) 
Cc1cccc(C)c1NC(=O)Cn1c(=O)[n-]c2cc(C(=O)[N-]CCc3ccccc3)ccc2c1=O

>  <Energy>  (32) 
75.82181836558125

>  <Genealogy>  (32) 
Cc1cccc(C)c1NC(=O)Cn1c(=O)[n-]c2cc(C(=O)[N-]CCc3ccccc3)ccc2c1=O (protonated)
Cc1cccc(C)c1NC(=O)Cn1c(=O)[n-]c2cc(C(=O)[N-]CCc3ccccc3)ccc2c1=O (3D coordinates assigned)
Cc1cccc(C)c1NC(=O)Cn1c(=O)[n-]c2cc(C(=O)[N-]CCc3ccccc3)ccc2c1=O (optimized conformer: 75.82181836558125 kcal/mol)

>  <smiles>  (32) 
Cc1cccc(C)c1NC(=O)Cn1c(=O)[nH]c2cc(C(=O)NCCc3ccccc3)ccc2c1=O

>  <score_type>  (32) 
oracle

>  <origin>  (32) 
adg

>  <m_score__min__energy>  (32) 
-12.470000000000001

>  <m_primary>  (32) 
energy

$$$$
32:0
     RDKit          3D

 34 37  0  0  0  0  0  0  0  0999 V2000
   60.7740   27.8930   49.8140 C   0  0  0  0  0  0  0  0  0  0  0  0
   60.1360   27.6150   48.6820 C   0  0  0  0  0  0  0  0  0  0  0  0
   60.5870   26.7060   47.7880 N   0  0  0  0  0  0  0  0  0  0  0  0
   59.6530   26.7440   46.8240 C   0  0  0  0  0  0  0  0  0  0  0  0
   59.6960   26.0360   45.7830 O   0  0  0  0  0  0  0  0  0  0  0  0
   58.6680   27.6490   47.1460 C   0  0  0  0  0  0  0  0  0  0  0  0
   57.5970   27.9580   46.4030 C   0  0  0  0  0  0  0  0  0  0  0  0
   57.3720   29.2960   45.8250 C   0  0  0  0  0  0  0  0  0  0  0  0
   56.2390   29.7080   45.1370 C   0  0  0  0  0  0  0  0  0  0  0  0
   55.1440   28.8970   44.8650 O   0  0  0  0  0  0  0  0  0  0  0  0
   56.3140   30.9990   44.7430 N   0  0  0  0  0  0  0  0  0  0  0  0
   57.5100   31.4130   45.2070 C   0  0  0  0  0  0  0  0  0  0  0  0
   58.0440   32.6920   45.0840 C   0  0  0  0  0  0  0  0  0  0  0  0
   59.2920   32.9500   45.6770 C   0  0  0  0  0  0  0  0  0  0  0  0
   59.9790   31.9380   46.3990 C   0  0  0  0  0  0  0  0  0  0  0  0
   61.2920   32.2210   47.0320 C   0  0  0  0  0  0  0  0  0  0  0  0
   62.0040   33.3910   46.7160 C   0  0  0  0  0  0  0  0  0  0  0  0
   63.2370   33.6370   47.3250 C   0  0  0  0  0  0  0  0  0  0  0  0
   63.7470   32.7460   48.2170 N   0  0  0  0  0  0  0  0  0  0  0  0
   63.0850   31.6060   48.5420 C   0  0  0  0  0  0  0  0  0  0  0  0
   61.8480   31.3220   47.9580 C   0  0  0  0  0  0  0  0  0  0  0  0
   59.3970   30.6540   46.5120 C   0  0  0  0  0  0  0  0  0  0  0  0
   58.1770   30.4180   45.8770 C   0  0  0  0  0  0  0  0  0  0  0  0
   58.9760   28.2170   48.3270 N   0  0  0  0  0  0  0  0  0  0  0  0
   60.3633   28.6419   50.5072 H   0  0  0  0  0  0  0  0  0  0  0  0
   61.7128   27.3743   50.0579 H   0  0  0  0  0  0  0  0  0  0  0  0
   56.8480   27.1747   46.2146 H   0  0  0  0  0  0  0  0  0  0  0  0
   57.5043   33.4796   44.5377 H   0  0  0  0  0  0  0  0  0  0  0  0
   59.7426   33.9489   45.5806 H   0  0  0  0  0  0  0  0  0  0  0  0
   61.5921   34.1098   45.9923 H   0  0  0  0  0  0  0  0  0  0  0  0
   63.7962   34.5527   47.0827 H   0  0  0  0  0  0  0  0  0  0  0  0
   63.5236   30.9044   49.2668 H   0  0  0  0  0  0  0  0  0  0  0  0
   61.3116   30.3986   48.2219 H   0  0  0  0  0  0  0  0  0  0  0  0
   59.8947   29.8595   47.0873 H   0  0  0  0  0  0  0  0  0  0  0  0
  1  2  2  0
  2  3  1  0
  3  4  1  0
  4  5  2  0
  4  6  1  0
  6  7  2  3
  7  8  1  0
  8  9  2  0
  9 10  1  0
  9 11  1  0
 11 12  1  0
 12 13  2  0
 13 14  1  0
 14 15  2  0
 15 16  1  0
 16 17  2  0
 17 18  1  0
 18 19  2  0
 19 20  1  0
 20 21  2  0
 15 22  1  0
 22 23  2  0
  6 24  1  0
 24  2  1  0
 23  8  1  0
 23 12  1  0
 21 16  1  0
  1 25  1  0
  1 26  1  0
  7 27  1  0
 13 28  1  0
 14 29  1  0
 17 30  1  0
 18 31  1  0
 20 32  1  0
 21 33  1  0
 22 34  1  0
M  CHG  4   3  -1  10  -1  11  -1  24  -1
M  END
>  <UniqueID>  (33) 
28

>  <SMILES>  (33) 
C=c1[n-]c(=O)c(=Cc2c([O-])[n-]c3ccc(-c4ccncc4)cc23)[n-]1

>  <Energy>  (33) 
110.98464737810299

>  <Genealogy>  (33) 
C=c1[n-]c(=O)c(=Cc2c([O-])[n-]c3ccc(-c4ccncc4)cc23)[n-]1 (protonated)
C=c1[n-]c(=O)c(=Cc2c([O-])[n-]c3ccc(-c4ccncc4)cc23)[n-]1 (3D coordinates assigned)
C=c1[n-]c(=O)c(=Cc2c([O-])[n-]c3ccc(-c4ccncc4)cc23)[n-]1 (optimized conformer: 110.98464737810299 kcal/mol)

>  <smiles>  (33) 
C=c1[nH]c(=O)c(=Cc2c(O)[nH]c3ccc(-c4ccncc4)cc23)[nH]1

>  <score_type>  (33) 
oracle

>  <origin>  (33) 
adg

>  <m_score__min__energy>  (33) 
-16.140000000000001

>  <m_primary>  (33) 
energy

$$$$
33:0
     RDKit          3D

 65 69  0  0  0  0  0  0  0  0999 V2000
   59.3490   24.1310   45.9950 C   0  0  0  0  0  0  0  0  0  0  0  0
   58.5260   25.1830   46.0380 C   0  0  0  0  0  0  0  0  0  0  0  0
   57.2190   25.0700   45.7180 N   0  0  0  0  0  0  0  0  0  0  0  0
   56.7460   26.3150   45.8730 C   0  0  0  0  0  0  0  0  0  0  0  0
   55.5440   26.6270   45.6600 O   0  0  0  0  0  0  0  0  0  0  0  0
   57.7400   27.1740   46.2950 C   0  0  0  0  0  0  0  0  0  0  0  0
   57.5520   28.4910   46.5200 C   0  0  0  0  0  0  0  0  0  0  0  0
   57.4190   29.5310   45.4900 C   0  0  0  0  0  0  0  0  0  0  0  0
   56.3440   29.6970   44.6450 C   0  0  0  0  0  0  0  0  0  0  0  0
   55.1450   28.9960   44.7170 O   0  0  0  0  0  0  0  0  0  0  0  0
   56.6190   30.6190   43.7000 N   0  0  0  0  0  0  0  0  0  0  0  0
   57.8930   30.9660   43.9770 C   0  0  0  0  0  0  0  0  0  0  0  0
   58.5320   31.8050   43.2880 O   0  0  0  0  0  0  0  0  0  0  0  0
   58.4200   30.3120   45.0370 N   0  0  0  0  0  0  0  0  0  0  0  0
   59.7990   30.3900   45.5350 C   0  0  0  0  0  0  0  0  0  0  0  0
   59.9740   31.5400   46.5350 C   0  0  0  0  0  0  0  0  0  0  0  0
   59.1790   32.7570   46.1390 C   0  0  0  0  0  0  0  0  0  0  0  0
   57.8900   32.9160   46.4000 C   0  0  0  0  0  0  0  0  0  0  0  0
   57.3660   34.2060   45.8850 C   0  0  0  0  0  0  0  0  0  0  0  0
   58.5570   34.8440   45.1630 C   0  0  0  0  0  0  0  0  0  0  0  0
   59.7570   33.9320   45.4270 C   0  0  0  0  0  0  0  0  0  0  0  0
   58.8910   26.4510   46.3930 N   0  0  0  0  0  0  0  0  0  0  0  0
   60.2710   26.9340   46.5830 C   0  0  0  0  0  0  0  0  0  0  0  0
   60.5110   27.5010   47.9630 C   0  0  0  0  0  0  0  0  0  0  0  0
   60.8110   26.6810   49.0650 C   0  0  0  0  0  0  0  0  0  0  0  0
   61.0500   27.2450   50.3200 C   0  0  0  0  0  0  0  0  0  0  0  0
   60.9950   28.6300   50.4900 C   0  0  0  0  0  0  0  0  0  0  0  0
   60.7030   29.4640   49.4020 C   0  0  0  0  0  0  0  0  0  0  0  0
   60.6430   30.9310   49.5660 C   0  0  0  0  0  0  0  0  0  0  0  0
   59.7680   31.4220   50.3300 O   0  0  0  0  0  0  0  0  0  0  0  0
   61.5740   31.8030   48.9010 N   0  0  0  0  0  0  0  0  0  0  0  0
   61.4060   33.2460   48.8720 C   0  0  0  0  0  0  0  0  0  0  0  0
   62.6370   33.7880   48.1590 C   0  0  0  0  0  0  0  0  0  0  0  0
   63.6760   32.6730   48.2240 C   0  0  0  0  0  0  0  0  0  0  0  0
   62.8870   31.3870   48.4310 C   0  0  0  0  0  0  0  0  0  0  0  0
   60.4980   28.8960   48.1350 C   0  0  0  0  0  0  0  0  0  0  0  0
   60.4096   24.2512   46.2609 H   0  0  0  0  0  0  0  0  0  0  0  0
   58.9658   23.1449   45.6937 H   0  0  0  0  0  0  0  0  0  0  0  0
   57.4929   28.8158   47.5693 H   0  0  0  0  0  0  0  0  0  0  0  0
   55.1420   28.0000   44.9000 H   0  0  0  0  0  0  0  0  0  0  0  0
   60.0530   29.4424   46.0326 H   0  0  0  0  0  0  0  0  0  0  0  0
   60.4642   30.5745   44.6786 H   0  0  0  0  0  0  0  0  0  0  0  0
   59.6375   31.2029   47.5265 H   0  0  0  0  0  0  0  0  0  0  0  0
   61.0380   31.8188   46.5500 H   0  0  0  0  0  0  0  0  0  0  0  0
   57.2778   32.1766   46.9370 H   0  0  0  0  0  0  0  0  0  0  0  0
   56.5335   34.0362   45.1863 H   0  0  0  0  0  0  0  0  0  0  0  0
   56.9714   34.8469   46.6872 H   0  0  0  0  0  0  0  0  0  0  0  0
   58.3578   34.9086   44.0831 H   0  0  0  0  0  0  0  0  0  0  0  0
   58.7437   35.8658   45.5250 H   0  0  0  0  0  0  0  0  0  0  0  0
   60.2261   33.6222   44.4815 H   0  0  0  0  0  0  0  0  0  0  0  0
   60.5433   34.4318   46.0117 H   0  0  0  0  0  0  0  0  0  0  0  0
   60.9621   26.0931   46.4240 H   0  0  0  0  0  0  0  0  0  0  0  0
   60.4394   27.7450   45.8591 H   0  0  0  0  0  0  0  0  0  0  0  0
   60.8577   25.5894   48.9380 H   0  0  0  0  0  0  0  0  0  0  0  0
   61.2823   26.5962   51.1774 H   0  0  0  0  0  0  0  0  0  0  0  0
   61.1816   29.0681   51.4816 H   0  0  0  0  0  0  0  0  0  0  0  0
   60.4932   33.5152   48.3203 H   0  0  0  0  0  0  0  0  0  0  0  0
   61.3053   33.6642   49.8844 H   0  0  0  0  0  0  0  0  0  0  0  0
   62.3988   34.0298   47.1127 H   0  0  0  0  0  0  0  0  0  0  0  0
   63.0039   34.7127   48.6284 H   0  0  0  0  0  0  0  0  0  0  0  0
   64.2473   32.6257   47.2852 H   0  0  0  0  0  0  0  0  0  0  0  0
   64.4008   32.8398   49.0344 H   0  0  0  0  0  0  0  0  0  0  0  0
   62.7983   30.8346   47.4839 H   0  0  0  0  0  0  0  0  0  0  0  0
   63.3825   30.7174   49.1494 H   0  0  0  0  0  0  0  0  0  0  0  0
   60.3253   29.5496   47.2672 H   0  0  0  0  0  0  0  0  0  0  0  0
  1  2  2  0
  2  3  1  0
  3  4  1  0
  4  5  2  0
  4  6  1  0
  6  7  2  3
  7  8  1  0
  8  9  2  0
  9 10  1  0
  9 11  1  0
 11 12  1  0
 12 13  2  0
 12 14  1  0
 14 15  1  0
 15 16  1  0
 16 17  1  0
 17 18  2  0
 18 19  1  0
 19 20  1  0
 20 21  1  0
  6 22  1  0
 22 23  1  0
 23 24  1  0
 24 25  2  0
 25 26  1  0
 26 27  2  0
 27 28  1  0
 28 29  1  0
 29 30  2  0
 29 31  1  0
 31 32  1  0
 32 33  1  0
 33 34  1  0
 34 35  1  0
 28 36  2  0
 22  2  1  0
 36 24  1  0
 14  8  1  0
 21 17  1  0
 35 31  1  0
  1 37  1  0
  1 38  1  0
  7 39  1  0
 10 40  1  0
 15 41  1  0
 15 42  1  0
 16 43  1  0
 16 44  1  0
 18 45  1  0
 19 46  1  0
 19 47  1  0
 20 48  1  0
 20 49  1  0
 21 50  1  0
 21 51  1  0
 23 52  1  0
 23 53  1  0
 25 54  1  0
 26 55  1  0
 27 56  1  0
 32 57  1  0
 32 58  1  0
 33 59  1  0
 33 60  1  0
 34 61  1  0
 34 62  1  0
 35 63  1  0
 35 64  1  0
 36 65  1  0
M  CHG  2   3  -1  11  -1
M  END
>  <UniqueID>  (34) 
29

>  <SMILES>  (34) 
C=c1[n-]c(=O)c(=Cc2c(O)[n-]c(=O)n2CCC2=CCCC2)n1Cc1cccc(C(=O)N2CCCC2)c1

>  <Energy>  (34) 
144.7752502091882

>  <Genealogy>  (34) 
C=c1[n-]c(=O)c(=Cc2c(O)[n-]c(=O)n2CCC2=CCCC2)n1Cc1cccc(C(=O)N2CCCC2)c1 (protonated)
C=c1[n-]c(=O)c(=Cc2c(O)[n-]c(=O)n2CCC2=CCCC2)n1Cc1cccc(C(=O)N2CCCC2)c1 (3D coordinates assigned)
C=c1[n-]c(=O)c(=Cc2c(O)[n-]c(=O)n2CCC2=CCCC2)n1Cc1cccc(C(=O)N2CCCC2)c1 (nonaromatic ring conformer: 144.7752502091882 kcal/mol)

>  <smiles>  (34) 
C=c1[nH]c(=O)c(=Cc2c(O)[nH]c(=O)n2CCC2=CCCC2)n1Cc1cccc(C(=O)N2CCCC2)c1

>  <score_type>  (34) 
oracle

>  <origin>  (34) 
adg

>  <m_score__min__energy>  (34) 
-13.82

>  <m_primary>  (34) 
energy

$$$$
34:0
     RDKit          3D

 49 51  0  0  0  0  0  0  0  0999 V2000
   56.6960   28.6590   52.3500 O   0  0  0  0  0  0  0  0  0  0  0  0
   56.9790   29.8760   52.5290 C   0  0  0  0  0  0  0  0  0  0  0  0
   56.2290   30.6700   53.5750 C   0  0  0  0  0  0  0  0  0  0  0  0
   54.8470   30.0950   53.9350 C   0  0  0  0  0  0  0  0  0  0  0  0
   53.7400   30.6860   53.0960 C   0  0  0  0  0  0  0  0  0  0  0  0
   52.5200   31.0510   53.6910 C   0  0  0  0  0  0  0  0  0  0  0  0
   51.4940   31.6030   52.9160 C   0  0  0  0  0  0  0  0  0  0  0  0
   51.6750   31.7870   51.5430 C   0  0  0  0  0  0  0  0  0  0  0  0
   50.6560   32.3350   50.7750 O   0  0  0  0  0  0  0  0  0  0  0  0
   52.8820   31.4180   50.9420 C   0  0  0  0  0  0  0  0  0  0  0  0
   53.9110   30.8690   51.7120 C   0  0  0  0  0  0  0  0  0  0  0  0
   58.0060   30.4870   51.7140 N   0  0  0  0  0  0  0  0  0  0  0  0
   58.2430   31.9400   51.7240 C   0  0  0  0  0  0  0  0  0  0  0  0
   58.5620   32.4400   50.3110 C   0  0  0  0  0  0  0  0  0  0  0  0
   59.5730   31.6010   49.6490 N   0  0  0  0  0  0  0  0  0  0  0  0
   60.2520   32.1080   48.4870 C   0  0  0  0  0  0  0  0  0  0  0  0
   61.4640   31.8180   48.2900 O   0  0  0  0  0  0  0  0  0  0  0  0
   59.5710   32.9650   47.5590 N   0  0  0  0  0  0  0  0  0  0  0  0
   60.2740   34.1030   46.9690 C   0  0  0  0  0  0  0  0  0  0  0  0
   59.2560   35.1780   46.5660 C   0  0  0  0  0  0  0  0  0  0  0  0
   58.2320   34.6290   45.7580 O   0  0  0  0  0  0  0  0  0  0  0  0
   57.4910   33.6750   46.4980 C   0  0  0  0  0  0  0  0  0  0  0  0
   58.3720   32.4810   46.8730 C   0  0  0  0  0  0  0  0  0  0  0  0
   60.0580   30.3800   50.3020 C   0  0  0  0  0  0  0  0  0  0  0  0
   58.8890   29.6110   50.9260 C   0  0  0  0  0  0  0  0  0  0  0  0
   56.8395   30.6983   54.4896 H   0  0  0  0  0  0  0  0  0  0  0  0
   56.0537   31.6683   53.1476 H   0  0  0  0  0  0  0  0  0  0  0  0
   54.8659   29.0064   53.7783 H   0  0  0  0  0  0  0  0  0  0  0  0
   54.6424   30.3482   54.9857 H   0  0  0  0  0  0  0  0  0  0  0  0
   52.3711   30.9021   54.7707 H   0  0  0  0  0  0  0  0  0  0  0  0
   50.5437   31.8924   53.3884 H   0  0  0  0  0  0  0  0  0  0  0  0
   53.0222   31.5601   49.8603 H   0  0  0  0  0  0  0  0  0  0  0  0
   54.8582   30.5789   51.2338 H   0  0  0  0  0  0  0  0  0  0  0  0
   57.3423   32.4514   52.0945 H   0  0  0  0  0  0  0  0  0  0  0  0
   59.0986   32.1570   52.3805 H   0  0  0  0  0  0  0  0  0  0  0  0
   57.6397   32.4256   49.7117 H   0  0  0  0  0  0  0  0  0  0  0  0
   58.9651   33.4602   50.3926 H   0  0  0  0  0  0  0  0  0  0  0  0
   60.9775   34.5210   47.7041 H   0  0  0  0  0  0  0  0  0  0  0  0
   60.8290   33.7708   46.0793 H   0  0  0  0  0  0  0  0  0  0  0  0
   58.8069   35.6066   47.4741 H   0  0  0  0  0  0  0  0  0  0  0  0
   59.7777   35.9564   45.9899 H   0  0  0  0  0  0  0  0  0  0  0  0
   57.1107   34.1461   47.4164 H   0  0  0  0  0  0  0  0  0  0  0  0
   56.6549   33.3179   45.8789 H   0  0  0  0  0  0  0  0  0  0  0  0
   57.8139   31.8066   47.5391 H   0  0  0  0  0  0  0  0  0  0  0  0
   58.6616   31.9348   45.9631 H   0  0  0  0  0  0  0  0  0  0  0  0
   60.5550   29.7424   49.5561 H   0  0  0  0  0  0  0  0  0  0  0  0
   60.7687   30.6562   51.0948 H   0  0  0  0  0  0  0  0  0  0  0  0
   58.3007   29.1461   50.1212 H   0  0  0  0  0  0  0  0  0  0  0  0
   59.3067   28.8529   51.6048 H   0  0  0  0  0  0  0  0  0  0  0  0
  1  2  2  0
  2  3  1  0
  3  4  1  0
  4  5  1  0
  5  6  2  0
  6  7  1  0
  7  8  2  0
  8  9  1  0
  8 10  1  0
 10 11  2  0
  2 12  1  0
 12 13  1  0
 13 14  1  0
 14 15  1  0
 15 16  1  0
 16 17  2  0
 16 18  1  0
 18 19  1  0
 19 20  1  0
 20 21  1  0
 21 22  1  0
 22 23  1  0
 15 24  1  0
 24 25  1  0
 11  5  1  0
 25 12  1  0
 23 18  1  0
  3 26  1  0
  3 27  1  0
  4 28  1  0
  4 29  1  0
  6 30  1  0
  7 31  1  0
 10 32  1  0
 11 33  1  0
 13 34  1  0
 13 35  1  0
 14 36  1  0
 14 37  1  0
 19 38  1  0
 19 39  1  0
 20 40  1  0
 20 41  1  0
 22 42  1  0
 22 43  1  0
 23 44  1  0
 23 45  1  0
 24 46  1  0
 24 47  1  0
 25 48  1  0
 25 49  1  0
M  CHG  1   9  -1
M  END
>  <UniqueID>  (35) 
30

>  <SMILES>  (35) 
O=C(CCc1ccc([O-])cc1)N1CCN(C(=O)N2CCOCC2)CC1

>  <Energy>  (35) 
53.64846936912238

>  <Genealogy>  (35) 
O=C(CCc1ccc([O-])cc1)N1CCN(C(=O)N2CCOCC2)CC1 (protonated)
O=C(CCc1ccc([O-])cc1)N1CCN(C(=O)N2CCOCC2)CC1 (3D coordinates assigned)
O=C(CCc1ccc([O-])cc1)N1CCN(C(=O)N2CCOCC2)CC1 (nonaromatic ring conformer: 53.64846936912238 kcal/mol)

>  <smiles>  (35) 
O=C(CCc1ccc(O)cc1)N1CCN(C(=O)N2CCOCC2)CC1

>  <score_type>  (35) 
oracle

>  <origin>  (35) 
adg

>  <m_score__min__energy>  (35) 
-11.51

>  <m_primary>  (35) 
energy

$$$$
35:0
     RDKit          3D

 57 59  0  0  0  0  0  0  0  0999 V2000
   57.5500   34.1700   44.6840 C   0  0  0  0  0  0  0  0  0  0  0  0
   57.7730   33.8240   46.1260 C   0  0  0  0  0  0  0  0  0  0  0  0
   56.7850   33.4530   46.8140 O   0  0  0  0  0  0  0  0  0  0  0  0
   59.1180   33.9010   46.7510 C   0  0  0  0  0  0  0  0  0  0  0  0
   59.2930   34.3360   48.0770 C   0  0  0  0  0  0  0  0  0  0  0  0
   60.5690   34.3860   48.6410 C   0  0  0  0  0  0  0  0  0  0  0  0
   61.6770   33.9970   47.8800 C   0  0  0  0  0  0  0  0  0  0  0  0
   63.0680   34.0250   48.4640 C   0  0  0  0  0  0  0  0  0  0  0  0
   63.2560   33.0660   49.5730 N   0  0  0  0  0  0  0  0  0  0  0  0
   62.5860   33.4390   50.8420 C   0  0  0  0  0  0  0  0  0  0  0  0
   61.2270   32.7460   51.0280 C   0  0  0  0  0  0  0  0  0  0  0  0
   61.2970   31.3290   50.6720 N   0  0  0  0  0  0  0  0  0  0  0  0
   60.0830   30.5750   50.5940 C   0  0  0  0  0  0  0  0  0  0  0  0
   59.5090   30.2000   51.6520 O   0  0  0  0  0  0  0  0  0  0  0  0
   59.4930   30.2430   49.2650 C   0  0  0  0  0  0  0  0  0  0  0  0
   59.8800   31.2250   48.3240 O   0  0  0  0  0  0  0  0  0  0  0  0
   60.7180   30.6620   47.3320 C   0  0  0  0  0  0  0  0  0  0  0  0
   59.9440   29.7620   46.4040 C   0  0  0  0  0  0  0  0  0  0  0  0
   60.3830   28.4500   46.1670 C   0  0  0  0  0  0  0  0  0  0  0  0
   59.6480   27.6030   45.3320 C   0  0  0  0  0  0  0  0  0  0  0  0
   58.4670   28.0530   44.7400 C   0  0  0  0  0  0  0  0  0  0  0  0
   58.0100   29.3580   44.9810 C   0  0  0  0  0  0  0  0  0  0  0  0
   56.5160   29.9360   44.2540 S   0  0  0  0  0  0  0  0  0  0  0  0
   56.5100   29.5600   42.5660 N   0  0  0  0  0  0  0  0  0  0  0  0
   55.3320   29.2790   44.9080 O   0  0  0  0  0  0  0  0  0  0  0  0
   56.4160   31.4240   44.4390 O   0  0  0  0  0  0  0  0  0  0  0  0
   58.7500   30.2080   45.8130 C   0  0  0  0  0  0  0  0  0  0  0  0
   62.5620   30.7450   50.2370 C   0  0  0  0  0  0  0  0  0  0  0  0
   63.1840   31.6400   49.1650 C   0  0  0  0  0  0  0  0  0  0  0  0
   61.4930   33.5930   46.5930 N   0  0  0  0  0  0  0  0  0  0  0  0
   60.2630   33.5370   46.0190 C   0  0  0  0  0  0  0  0  0  0  0  0
   56.9552   35.0928   44.6161 H   0  0  0  0  0  0  0  0  0  0  0  0
   58.5205   34.3220   44.1891 H   0  0  0  0  0  0  0  0  0  0  0  0
   57.0107   33.3489   44.1891 H   0  0  0  0  0  0  0  0  0  0  0  0
   58.4194   34.6385   48.6731 H   0  0  0  0  0  0  0  0  0  0  0  0
   60.7027   34.7292   49.6775 H   0  0  0  0  0  0  0  0  0  0  0  0
   63.7862   33.7822   47.6670 H   0  0  0  0  0  0  0  0  0  0  0  0
   63.2289   35.0329   48.8741 H   0  0  0  0  0  0  0  0  0  0  0  0
   63.2407   33.1580   51.6801 H   0  0  0  0  0  0  0  0  0  0  0  0
   62.4018   34.5230   50.8113 H   0  0  0  0  0  0  0  0  0  0  0  0
   60.9206   32.8358   52.0807 H   0  0  0  0  0  0  0  0  0  0  0  0
   60.4964   33.2335   50.3657 H   0  0  0  0  0  0  0  0  0  0  0  0
   59.8555   29.2573   48.9378 H   0  0  0  0  0  0  0  0  0  0  0  0
   58.3961   30.2199   49.3439 H   0  0  0  0  0  0  0  0  0  0  0  0
   61.1737   31.4736   46.7458 H   0  0  0  0  0  0  0  0  0  0  0  0
   61.4909   30.0604   47.8327 H   0  0  0  0  0  0  0  0  0  0  0  0
   61.3078   28.0872   46.6395 H   0  0  0  0  0  0  0  0  0  0  0  0
   60.0016   26.5790   45.1411 H   0  0  0  0  0  0  0  0  0  0  0  0
   57.8929   27.3832   44.0829 H   0  0  0  0  0  0  0  0  0  0  0  0
   55.6620   30.0090   42.1540 H   0  0  0  0  0  0  0  0  0  0  0  0
   57.3340   30.0360   42.1410 H   0  0  0  0  0  0  0  0  0  0  0  0
   58.3940   31.2310   46.0048 H   0  0  0  0  0  0  0  0  0  0  0  0
   63.2463   30.6678   51.0948 H   0  0  0  0  0  0  0  0  0  0  0  0
   62.3840   29.7411   49.8240 H   0  0  0  0  0  0  0  0  0  0  0  0
   64.2034   31.2824   48.9575 H   0  0  0  0  0  0  0  0  0  0  0  0
   62.5410   31.5837   48.2743 H   0  0  0  0  0  0  0  0  0  0  0  0
   60.1616   33.2049   44.9752 H   0  0  0  0  0  0  0  0  0  0  0  0
  1  2  1  0
  2  3  2  0
  2  4  1  0
  4  5  2  0
  5  6  1  0
  6  7  2  0
  7  8  1  0
  8  9  1  0
  9 10  1  0
 10 11  1  0
 11 12  1  0
 12 13  1  0
 13 14  2  0
 13 15  1  0
 15 16  1  0
 16 17  1  0
 17 18  1  0
 18 19  2  0
 19 20  1  0
 20 21  2  0
 21 22  1  0
 22 23  1  0
 23 24  1  0
 23 25  2  0
 23 26  2  0
 22 27  2  0
 12 28  1  0
 28 29  1  0
  7 30  1  0
 30 31  2  0
 31  4  1  0
 29  9  1  0
 27 18  1  0
  1 32  1  0
  1 33  1  0
  1 34  1  0
  5 35  1  0
  6 36  1  0
  8 37  1  0
  8 38  1  0
 10 39  1  0
 10 40  1  0
 11 41  1  0
 11 42  1  0
 15 43  1  0
 15 44  1  0
 17 45  1  0
 17 46  1  0
 19 47  1  0
 20 48  1  0
 21 49  1  0
 24 50  1  0
 24 51  1  0
 27 52  1  0
 28 53  1  0
 28 54  1  0
 29 55  1  0
 29 56  1  0
 31 57  1  0
M  END
>  <UniqueID>  (36) 
31

>  <SMILES>  (36) 
CC(=O)c1ccc(CN2CCN(C(=O)COCc3cccc(S(N)(=O)=O)c3)CC2)nc1

>  <Energy>  (36) 
70.11807618810973

>  <Genealogy>  (36) 
CC(=O)c1ccc(CN2CCN(C(=O)COCc3cccc(S(N)(=O)=O)c3)CC2)nc1 (3D coordinates assigned)
CC(=O)c1ccc(CN2CCN(C(=O)COCc3cccc(S(N)(=O)=O)c3)CC2)nc1 (nonaromatic ring conformer: 70.11807618810973 kcal/mol)

>  <smiles>  (36) 
CC(=O)c1ccc(CN2CCN(C(=O)COCc3cccc(S(N)(=O)=O)c3)CC2)nc1

>  <score_type>  (36) 
oracle

>  <origin>  (36) 
adg

>  <m_score__min__energy>  (36) 
-9.4800000000000004

>  <m_primary>  (36) 
energy

$$$$
36:0
     RDKit          3D

 49 52  0  0  0  0  0  0  0  0999 V2000
   58.0000   27.1050   42.2410 C   0  0  0  0  0  0  0  0  0  0  0  0
   58.1560   27.5380   43.4970 C   0  0  0  0  0  0  0  0  0  0  0  0
   58.2640   28.8510   43.7880 N   0  0  0  0  0  0  0  0  0  0  0  0
   58.2150   28.9650   45.1270 C   0  0  0  0  0  0  0  0  0  0  0  0
   58.2080   30.2760   45.8560 C   0  0  0  0  0  0  0  0  0  0  0  0
   58.8600   30.1560   47.2100 C   0  0  0  0  0  0  0  0  0  0  0  0
   58.4170   29.3060   48.0310 O   0  0  0  0  0  0  0  0  0  0  0  0
   59.9400   31.0260   47.6050 N   0  0  0  0  0  0  0  0  0  0  0  0
   60.1530   32.3210   46.9380 C   0  0  0  0  0  0  0  0  0  0  0  0
   60.6460   33.3630   47.9420 C   0  0  0  0  0  0  0  0  0  0  0  0
   61.7560   32.8090   48.7200 N   0  0  0  0  0  0  0  0  0  0  0  0
   63.1020   33.2620   48.4920 C   0  0  0  0  0  0  0  0  0  0  0  0
   63.4760   33.5310   47.3180 O   0  0  0  0  0  0  0  0  0  0  0  0
   64.0450   33.4450   49.6090 C   0  0  0  0  0  0  0  0  0  0  0  0
   63.8040   34.1830   50.7630 C   0  0  0  0  0  0  0  0  0  0  0  0
   64.8640   34.1440   51.6760 C   0  0  0  0  0  0  0  0  0  0  0  0
   65.9380   33.3700   51.2560 C   0  0  0  0  0  0  0  0  0  0  0  0
   65.5650   32.7320   49.7460 S   0  0  0  0  0  0  0  0  0  0  0  0
   61.5000   31.5600   49.4420 C   0  0  0  0  0  0  0  0  0  0  0  0
   61.0180   30.4940   48.4560 C   0  0  0  0  0  0  0  0  0  0  0  0
   58.0700   27.7250   45.7150 C   0  0  0  0  0  0  0  0  0  0  0  0
   58.0780   26.7960   44.6860 C   0  0  0  0  0  0  0  0  0  0  0  0
   58.0240   25.4670   44.8970 C   0  0  0  0  0  0  0  0  0  0  0  0
   57.3120   24.8030   46.0010 C   0  0  0  0  0  0  0  0  0  0  0  0
   57.8340   23.8380   46.7800 N   0  0  0  0  0  0  0  0  0  0  0  0
   56.8840   23.6480   47.7200 C   0  0  0  0  0  0  0  0  0  0  0  0
   56.9990   22.7960   48.6390 O   0  0  0  0  0  0  0  0  0  0  0  0
   55.8040   24.4510   47.6050 N   0  0  0  0  0  0  0  0  0  0  0  0
   56.1000   25.1860   46.5190 C   0  0  0  0  0  0  0  0  0  0  0  0
   55.2810   26.1900   46.0130 O   0  0  0  0  0  0  0  0  0  0  0  0
   57.9150   26.0274   42.0373 H   0  0  0  0  0  0  0  0  0  0  0  0
   57.9567   27.8266   41.4119 H   0  0  0  0  0  0  0  0  0  0  0  0
   58.3050   29.6420   43.1060 H   0  0  0  0  0  0  0  0  0  0  0  0
   58.7562   31.0201   45.2595 H   0  0  0  0  0  0  0  0  0  0  0  0
   57.1626   30.5857   46.0014 H   0  0  0  0  0  0  0  0  0  0  0  0
   60.9036   32.2001   46.1431 H   0  0  0  0  0  0  0  0  0  0  0  0
   59.1994   32.6623   46.5088 H   0  0  0  0  0  0  0  0  0  0  0  0
   60.9883   34.2582   47.4022 H   0  0  0  0  0  0  0  0  0  0  0  0
   59.8238   33.6340   48.6206 H   0  0  0  0  0  0  0  0  0  0  0  0
   62.8731   34.7416   50.9404 H   0  0  0  0  0  0  0  0  0  0  0  0
   64.8480   34.6774   52.6379 H   0  0  0  0  0  0  0  0  0  0  0  0
   66.8709   33.2033   51.8145 H   0  0  0  0  0  0  0  0  0  0  0  0
   62.4268   31.2195   49.9268 H   0  0  0  0  0  0  0  0  0  0  0  0
   60.7282   31.7290   50.2074 H   0  0  0  0  0  0  0  0  0  0  0  0
   61.8599   30.1820   47.8205 H   0  0  0  0  0  0  0  0  0  0  0  0
   60.6312   29.6346   49.0233 H   0  0  0  0  0  0  0  0  0  0  0  0
   57.9680   27.5148   46.7899 H   0  0  0  0  0  0  0  0  0  0  0  0
   58.5577   24.8224   44.1831 H   0  0  0  0  0  0  0  0  0  0  0  0
   54.3440   26.3230   46.3740 H   0  0  0  0  0  0  0  0  0  0  0  0
  1  2  2  0
  2  3  1  0
  3  4  1  0
  4  5  1  0
  5  6  1  0
  6  7  2  0
  6  8  1  0
  8  9  1  0
  9 10  1  0
 10 11  1  0
 11 12  1  0
 12 13  2  0
 12 14  1  0
 14 15  2  0
 15 16  1  0
 16 17  2  0
 17 18  1  0
 11 19  1  0
 19 20  1  0
  4 21  2  0
 21 22  1  0
 22 23  2  3
 23 24  1  0
 24 25  1  0
 25 26  1  0
 26 27  2  0
 26 28  1  0
 28 29  1  0
 29 30  1  0
 22  2  1  0
 29 24  2  0
 20  8  1  0
 18 14  1  0
  1 31  1  0
  1 32  1  0
  3 33  1  0
  5 34  1  0
  5 35  1  0
  9 36  1  0
  9 37  1  0
 10 38  1  0
 10 39  1  0
 15 40  1  0
 16 41  1  0
 17 42  1  0
 19 43  1  0
 19 44  1  0
 20 45  1  0
 20 46  1  0
 21 47  1  0
 23 48  1  0
 30 49  1  0
M  CHG  2  25  -1  28  -1
M  END
>  <UniqueID>  (37) 
32

>  <SMILES>  (37) 
C=c1[nH]c(CC(=O)N2CCN(C(=O)c3cccs3)CC2)cc1=Cc1[n-]c(=O)[n-]c1O

>  <Energy>  (37) 
147.2630908130034

>  <Genealogy>  (37) 
C=c1[nH]c(CC(=O)N2CCN(C(=O)c3cccs3)CC2)cc1=Cc1[n-]c(=O)[n-]c1O (protonated)
C=c1[nH]c(CC(=O)N2CCN(C(=O)c3cccs3)CC2)cc1=Cc1[n-]c(=O)[n-]c1O (3D coordinates assigned)
C=c1[nH]c(CC(=O)N2CCN(C(=O)c3cccs3)CC2)cc1=Cc1[n-]c(=O)[n-]c1O (nonaromatic ring conformer: 147.2630908130034 kcal/mol)

>  <smiles>  (37) 
C=c1[nH]c(CC(=O)N2CCN(C(=O)c3cccs3)CC2)cc1=Cc1[nH]c(=O)[nH]c1O

>  <score_type>  (37) 
oracle

>  <origin>  (37) 
adg

>  <m_score__min__energy>  (37) 
-13.380000000000001

>  <m_primary>  (37) 
energy

$$$$
37:0
     RDKit          3D

 44 46  0  0  0  0  0  0  0  0999 V2000
   56.6460   24.8320   44.6930 C   0  0  0  0  0  0  0  0  0  0  0  0
   56.0490   25.4530   46.2530 S   0  0  0  0  0  0  0  0  0  0  0  0
   55.6040   24.3250   47.1370 O   0  0  0  0  0  0  0  0  0  0  0  0
   54.8760   26.3580   45.9910 O   0  0  0  0  0  0  0  0  0  0  0  0
   57.2920   26.3720   47.0380 N   0  0  0  0  0  0  0  0  0  0  0  0
   58.1390   27.3400   46.4050 C   0  0  0  0  0  0  0  0  0  0  0  0
   59.3610   26.9890   45.8070 C   0  0  0  0  0  0  0  0  0  0  0  0
   60.1460   27.9640   45.1900 C   0  0  0  0  0  0  0  0  0  0  0  0
   59.7250   29.2940   45.1630 C   0  0  0  0  0  0  0  0  0  0  0  0
   58.5100   29.6630   45.7600 C   0  0  0  0  0  0  0  0  0  0  0  0
   58.0700   31.0770   45.7620 C   0  0  0  0  0  0  0  0  0  0  0  0
   57.0290   31.3980   45.1240 O   0  0  0  0  0  0  0  0  0  0  0  0
   58.7850   32.0860   46.4970 N   0  0  0  0  0  0  0  0  0  0  0  0
   58.0190   33.1040   47.2350 C   0  0  0  0  0  0  0  0  0  0  0  0
   58.9460   34.1160   47.9150 C   0  0  0  0  0  0  0  0  0  0  0  0
   60.0700   33.4080   48.5490 N   0  0  0  0  0  0  0  0  0  0  0  0
   60.3520   33.5300   49.9580 C   0  0  0  0  0  0  0  0  0  0  0  0
   61.4880   33.1920   50.3960 O   0  0  0  0  0  0  0  0  0  0  0  0
   59.2810   33.9730   50.9260 C   0  0  0  0  0  0  0  0  0  0  0  0
   59.5220   33.5690   52.3740 C   0  0  0  0  0  0  0  0  0  0  0  0
   58.4410   32.8720   51.5630 C   0  0  0  0  0  0  0  0  0  0  0  0
   60.8770   32.4760   47.7450 C   0  0  0  0  0  0  0  0  0  0  0  0
   60.2440   32.2120   46.3700 C   0  0  0  0  0  0  0  0  0  0  0  0
   57.7300   28.6790   46.3920 C   0  0  0  0  0  0  0  0  0  0  0  0
   57.3980   24.0497   44.8733 H   0  0  0  0  0  0  0  0  0  0  0  0
   55.8068   24.4090   44.1214 H   0  0  0  0  0  0  0  0  0  0  0  0
   57.1017   25.6539   44.1214 H   0  0  0  0  0  0  0  0  0  0  0  0
   59.6999   25.9427   45.8252 H   0  0  0  0  0  0  0  0  0  0  0  0
   61.1012   27.6827   44.7227 H   0  0  0  0  0  0  0  0  0  0  0  0
   60.3479   30.0561   44.6719 H   0  0  0  0  0  0  0  0  0  0  0  0
   57.3616   33.6367   46.5321 H   0  0  0  0  0  0  0  0  0  0  0  0
   57.4292   32.5972   48.0130 H   0  0  0  0  0  0  0  0  0  0  0  0
   59.3337   34.8197   47.1637 H   0  0  0  0  0  0  0  0  0  0  0  0
   58.3835   34.6688   48.6818 H   0  0  0  0  0  0  0  0  0  0  0  0
   59.0500   34.9080   50.3947 H   0  0  0  0  0  0  0  0  0  0  0  0
   60.4391   33.0269   52.6481 H   0  0  0  0  0  0  0  0  0  0  0  0
   59.5496   34.1028   53.3354 H   0  0  0  0  0  0  0  0  0  0  0  0
   58.5764   31.8262   51.2501 H   0  0  0  0  0  0  0  0  0  0  0  0
   57.3636   32.6932   51.6944 H   0  0  0  0  0  0  0  0  0  0  0  0
   61.8785   32.9070   47.5990 H   0  0  0  0  0  0  0  0  0  0  0  0
   60.9329   31.5192   48.2848 H   0  0  0  0  0  0  0  0  0  0  0  0
   60.4788   33.0486   45.6955 H   0  0  0  0  0  0  0  0  0  0  0  0
   60.6505   31.2746   45.9625 H   0  0  0  0  0  0  0  0  0  0  0  0
   56.7874   28.9643   46.8820 H   0  0  0  0  0  0  0  0  0  0  0  0
  1  2  1  0
  2  3  2  0
  2  4  2  0
  2  5  1  0
  5  6  1  0
  6  7  2  0
  7  8  1  0
  8  9  2  0
  9 10  1  0
 10 11  1  0
 11 12  2  0
 11 13  1  0
 13 14  1  0
 14 15  1  0
 15 16  1  0
 16 17  1  0
 17 18  2  0
 17 19  1  0
 19 20  1  0
 20 21  1  0
 16 22  1  0
 22 23  1  0
 10 24  2  0
 24  6  1  0
 23 13  1  0
 21 19  1  0
  1 25  1  0
  1 26  1  0
  1 27  1  0
  7 28  1  0
  8 29  1  0
  9 30  1  0
 14 31  1  0
 14 32  1  0
 15 33  1  0
 15 34  1  0
 19 35  1  0
 20 36  1  0
 20 37  1  0
 21 38  1  0
 21 39  1  0
 22 40  1  0
 22 41  1  0
 23 42  1  0
 23 43  1  0
 24 44  1  0
M  CHG  1   5  -1
M  END
>  <UniqueID>  (38) 
33

>  <SMILES>  (38) 
CS(=O)(=O)[N-]c1cccc(C(=O)N2CCN(C(=O)C3CC3)CC2)c1

>  <Energy>  (38) 
313.91448018030496

>  <Genealogy>  (38) 
CS(=O)(=O)[N-]c1cccc(C(=O)N2CCN(C(=O)C3CC3)CC2)c1 (protonated)
CS(=O)(=O)[N-]c1cccc(C(=O)N2CCN(C(=O)C3CC3)CC2)c1 (3D coordinates assigned)
CS(=O)(=O)[N-]c1cccc(C(=O)N2CCN(C(=O)C3CC3)CC2)c1 (nonaromatic ring conformer: 313.91448018030496 kcal/mol)

>  <smiles>  (38) 
CS(=O)(=O)Nc1cccc(C(=O)N2CCN(C(=O)C3CC3)CC2)c1

>  <score_type>  (38) 
oracle

>  <origin>  (38) 
adg

>  <m_score__min__energy>  (38) 
-10.220000000000001

>  <m_primary>  (38) 
energy

$$$$
38:0
     RDKit          3D

 61 65  0  0  0  0  0  0  0  0999 V2000
   55.6280   29.3640   44.9700 O   0  0  0  0  0  0  0  0  0  0  0  0
   56.7180   29.9900   44.8640 C   0  0  0  0  0  0  0  0  0  0  0  0
   56.7270   31.3450   44.3940 N   0  0  0  0  0  0  0  0  0  0  0  0
   57.3710   32.3230   44.9560 C   0  0  0  0  0  0  0  0  0  0  0  0
   57.9210   33.3250   44.2380 N   0  0  0  0  0  0  0  0  0  0  0  0
   58.6470   34.1670   45.0230 C   0  0  0  0  0  0  0  0  0  0  0  0
   58.6760   33.8300   46.3740 C   0  0  0  0  0  0  0  0  0  0  0  0
   59.6130   34.4080   47.3900 C   0  0  0  0  0  0  0  0  0  0  0  0
   60.9400   33.7040   47.2920 C   0  0  0  0  0  0  0  0  0  0  0  0
   61.9120   34.1280   46.3700 C   0  0  0  0  0  0  0  0  0  0  0  0
   63.1940   33.5710   46.3920 C   0  0  0  0  0  0  0  0  0  0  0  0
   63.5280   32.6190   47.3590 C   0  0  0  0  0  0  0  0  0  0  0  0
   62.5690   32.1920   48.2830 C   0  0  0  0  0  0  0  0  0  0  0  0
   62.9600   31.3050   49.3850 C   0  0  0  0  0  0  0  0  0  0  0  0
   64.1430   31.3360   49.8150 O   0  0  0  0  0  0  0  0  0  0  0  0
   61.9910   30.4410   50.0010 N   0  0  0  0  0  0  0  0  0  0  0  0
   61.8140   30.5070   51.4560 C   0  0  0  0  0  0  0  0  0  0  0  0
   60.4870   29.8640   51.8990 C   0  0  0  0  0  0  0  0  0  0  0  0
   59.3960   30.2330   50.9770 N   0  0  0  0  0  0  0  0  0  0  0  0
   58.0730   30.5540   51.4620 C   0  0  0  0  0  0  0  0  0  0  0  0
   57.3240   31.2990   50.7690 O   0  0  0  0  0  0  0  0  0  0  0  0
   57.5940   30.0760   52.8150 C   0  0  0  0  0  0  0  0  0  0  0  0
   56.9560   31.1480   53.7010 C   0  0  0  0  0  0  0  0  0  0  0  0
   55.6430   30.3820   53.6830 C   0  0  0  0  0  0  0  0  0  0  0  0
   56.2570   29.3420   52.7590 C   0  0  0  0  0  0  0  0  0  0  0  0
   59.6090   30.1690   49.5230 C   0  0  0  0  0  0  0  0  0  0  0  0
   61.0210   29.6890   49.1930 C   0  0  0  0  0  0  0  0  0  0  0  0
   61.2660   32.6970   48.2150 C   0  0  0  0  0  0  0  0  0  0  0  0
   57.7750   32.4230   46.5940 S   0  0  0  0  0  0  0  0  0  0  0  0
   57.9760   29.3300   45.2550 C   0  0  0  0  0  0  0  0  0  0  0  0
   59.1750   29.5800   44.5660 C   0  0  0  0  0  0  0  0  0  0  0  0
   60.3690   29.0340   45.0410 C   0  0  0  0  0  0  0  0  0  0  0  0
   60.3620   28.2340   46.1840 C   0  0  0  0  0  0  0  0  0  0  0  0
   59.1490   27.9710   46.8220 C   0  0  0  0  0  0  0  0  0  0  0  0
   57.9960   28.5280   46.3550 N   0  0  0  0  0  0  0  0  0  0  0  0
   59.1710   35.0467   44.6210 H   0  0  0  0  0  0  0  0  0  0  0  0
   59.7504   35.4819   47.1956 H   0  0  0  0  0  0  0  0  0  0  0  0
   59.1953   34.2733   48.3987 H   0  0  0  0  0  0  0  0  0  0  0  0
   61.6632   34.9011   45.6281 H   0  0  0  0  0  0  0  0  0  0  0  0
   63.9410   33.8825   45.6470 H   0  0  0  0  0  0  0  0  0  0  0  0
   64.5465   32.2050   47.3934 H   0  0  0  0  0  0  0  0  0  0  0  0
   62.6465   29.9759   51.9407 H   0  0  0  0  0  0  0  0  0  0  0  0
   61.7965   31.5665   51.7512 H   0  0  0  0  0  0  0  0  0  0  0  0
   60.6001   28.7699   51.9052 H   0  0  0  0  0  0  0  0  0  0  0  0
   60.2368   30.2272   52.9067 H   0  0  0  0  0  0  0  0  0  0  0  0
   58.5135   29.5715   53.1465 H   0  0  0  0  0  0  0  0  0  0  0  0
   57.4112   31.2354   54.6986 H   0  0  0  0  0  0  0  0  0  0  0  0
   56.9869   32.2066   53.4037 H   0  0  0  0  0  0  0  0  0  0  0  0
   55.3407   29.9873   54.6642 H   0  0  0  0  0  0  0  0  0  0  0  0
   54.7079   30.8896   53.4039 H   0  0  0  0  0  0  0  0  0  0  0  0
   56.2846   28.3269   53.1818 H   0  0  0  0  0  0  0  0  0  0  0  0
   55.7886   29.1141   51.7901 H   0  0  0  0  0  0  0  0  0  0  0  0
   58.8809   29.4711   49.0839 H   0  0  0  0  0  0  0  0  0  0  0  0
   59.4777   31.1787   49.1066 H   0  0  0  0  0  0  0  0  0  0  0  0
   61.1069   28.6162   49.4202 H   0  0  0  0  0  0  0  0  0  0  0  0
   61.2256   29.8530   48.1247 H   0  0  0  0  0  0  0  0  0  0  0  0
   60.4915   32.3025   48.8892 H   0  0  0  0  0  0  0  0  0  0  0  0
   59.1728   30.2017   43.6585 H   0  0  0  0  0  0  0  0  0  0  0  0
   61.3140   29.2343   44.5148 H   0  0  0  0  0  0  0  0  0  0  0  0
   61.3004   27.8160   46.5772 H   0  0  0  0  0  0  0  0  0  0  0  0
   59.1234   27.3131   47.7032 H   0  0  0  0  0  0  0  0  0  0  0  0
  1  2  2  0
  2  3  1  0
  3  4  2  3
  4  5  1  0
  5  6  1  0
  6  7  2  0
  7  8  1  0
  8  9  1  0
  9 10  2  0
 10 11  1  0
 11 12  2  0
 12 13  1  0
 13 14  1  0
 14 15  2  0
 14 16  1  0
 16 17  1  0
 17 18  1  0
 18 19  1  0
 19 20  1  0
 20 21  2  0
 20 22  1  0
 22 23  1  0
 23 24  1  0
 24 25  1  0
 19 26  1  0
 26 27  1  0
 13 28  2  0
  7 29  1  0
  2 30  1  0
 30 31  2  0
 31 32  1  0
 32 33  2  0
 33 34  1  0
 34 35  2  0
 29  4  1  0
 35 30  1  0
 28  9  1  0
 27 16  1  0
 25 22  1  0
  6 36  1  0
  8 37  1  0
  8 38  1  0
 10 39  1  0
 11 40  1  0
 12 41  1  0
 17 42  1  0
 17 43  1  0
 18 44  1  0
 18 45  1  0
 22 46  1  0
 23 47  1  0
 23 48  1  0
 24 49  1  0
 24 50  1  0
 25 51  1  0
 25 52  1  0
 26 53  1  0
 26 54  1  0
 27 55  1  0
 27 56  1  0
 28 57  1  0
 31 58  1  0
 32 59  1  0
 33 60  1  0
 34 61  1  0
M  CHG  1   5  -1
M  END
>  <UniqueID>  (39) 
34

>  <SMILES>  (39) 
O=C(N=c1[n-]cc(Cc2cccc(C(=O)N3CCN(C(=O)C4CCC4)CC3)c2)s1)c1ccccn1

>  <Energy>  (39) 
169.65356941754428

>  <Genealogy>  (39) 
O=C(N=c1[n-]cc(Cc2cccc(C(=O)N3CCN(C(=O)C4CCC4)CC3)c2)s1)c1ccccn1 (protonated)
O=C(N=c1[n-]cc(Cc2cccc(C(=O)N3CCN(C(=O)C4CCC4)CC3)c2)s1)c1ccccn1 (3D coordinates assigned)
O=C(N=c1[n-]cc(Cc2cccc(C(=O)N3CCN(C(=O)C4CCC4)CC3)c2)s1)c1ccccn1 (nonaromatic ring conformer: 169.65356941754428 kcal/mol)

>  <smiles>  (39) 
O=C(N=c1[nH]cc(Cc2cccc(C(=O)N3CCN(C(=O)C4CCC4)CC3)c2)s1)c1ccccn1

>  <score_type>  (39) 
oracle

>  <origin>  (39) 
adg

>  <m_score__min__energy>  (39) 
-12.73

>  <m_primary>  (39) 
energy

$$$$
39:0
     RDKit          3D

 32 35  0  0  0  0  0  0  0  0999 V2000
   51.8160   22.8330   45.3910 C   0  0  0  0  0  0  0  0  0  0  0  0
   53.0030   23.4240   45.2960 C   0  0  0  0  0  0  0  0  0  0  0  0
   53.3250   24.5420   45.9870 N   0  0  0  0  0  0  0  0  0  0  0  0
   54.5870   24.7830   45.5960 C   0  0  0  0  0  0  0  0  0  0  0  0
   55.2730   25.7520   46.0160 O   0  0  0  0  0  0  0  0  0  0  0  0
   54.9980   23.8320   44.6900 C   0  0  0  0  0  0  0  0  0  0  0  0
   56.2050   23.7510   44.1160 C   0  0  0  0  0  0  0  0  0  0  0  0
   57.4570   24.0970   44.8150 C   0  0  0  0  0  0  0  0  0  0  0  0
   58.3300   23.2000   45.4110 C   0  0  0  0  0  0  0  0  0  0  0  0
   58.1660   21.8190   45.4060 O   0  0  0  0  0  0  0  0  0  0  0  0
   59.3790   23.8190   46.0030 N   0  0  0  0  0  0  0  0  0  0  0  0
   59.1500   25.1280   45.7880 C   0  0  0  0  0  0  0  0  0  0  0  0
   59.9390   26.1860   46.2290 C   0  0  0  0  0  0  0  0  0  0  0  0
   59.5100   27.4950   45.9490 C   0  0  0  0  0  0  0  0  0  0  0  0
   58.2940   27.7300   45.2570 C   0  0  0  0  0  0  0  0  0  0  0  0
   57.8530   29.1200   44.9810 C   0  0  0  0  0  0  0  0  0  0  0  0
   58.7520   30.1740   44.8230 C   0  0  0  0  0  0  0  0  0  0  0  0
   57.8000   31.5080   44.5230 S   0  0  0  0  0  0  0  0  0  0  0  0
   56.2820   30.8420   44.5900 N   0  0  0  0  0  0  0  0  0  0  0  0
   56.4980   29.5290   44.8540 C   0  0  0  0  0  0  0  0  0  0  0  0
   55.5320   28.7350   44.9990 O   0  0  0  0  0  0  0  0  0  0  0  0
   57.5190   26.6300   44.8230 C   0  0  0  0  0  0  0  0  0  0  0  0
   57.9900   25.3420   45.0840 C   0  0  0  0  0  0  0  0  0  0  0  0
   53.9940   22.9570   44.5020 N   0  0  0  0  0  0  0  0  0  0  0  0
   51.6053   21.9251   44.8068 H   0  0  0  0  0  0  0  0  0  0  0  0
   51.0445   23.2519   46.0538 H   0  0  0  0  0  0  0  0  0  0  0  0
   56.2659   23.4097   43.0721 H   0  0  0  0  0  0  0  0  0  0  0  0
   58.8610   21.2170   44.9810 H   0  0  0  0  0  0  0  0  0  0  0  0
   60.8725   26.0031   46.7814 H   0  0  0  0  0  0  0  0  0  0  0  0
   60.1252   28.3483   46.2706 H   0  0  0  0  0  0  0  0  0  0  0  0
   59.8496   30.1336   44.8832 H   0  0  0  0  0  0  0  0  0  0  0  0
   56.5680   26.7853   44.2925 H   0  0  0  0  0  0  0  0  0  0  0  0
  1  2  2  0
  2  3  1  0
  3  4  1  0
  4  5  2  0
  4  6  1  0
  6  7  2  3
  7  8  1  0
  8  9  2  0
  9 10  1  0
  9 11  1  0
 11 12  1  0
 12 13  2  0
 13 14  1  0
 14 15  2  0
 15 16  1  0
 16 17  2  0
 17 18  1  0
 18 19  1  0
 19 20  1  0
 20 21  2  0
 15 22  1  0
 22 23  2  0
  6 24  1  0
 24  2  1  0
 23  8  1  0
 23 12  1  0
 20 16  1  0
  1 25  1  0
  1 26  1  0
  7 27  1  0
 10 28  1  0
 13 29  1  0
 14 30  1  0
 17 31  1  0
 22 32  1  0
M  CHG  4   3  -1  11  -1  19  -1  24  -1
M  END
>  <UniqueID>  (40) 
35

>  <SMILES>  (40) 
C=c1[n-]c(=O)c(=Cc2c(O)[n-]c3ccc(-c4cs[n-]c4=O)cc23)[n-]1

>  <Energy>  (40) 
138.8470390585824

>  <Genealogy>  (40) 
C=c1[n-]c(=O)c(=Cc2c(O)[n-]c3ccc(-c4cs[n-]c4=O)cc23)[n-]1 (protonated)
C=c1[n-]c(=O)c(=Cc2c(O)[n-]c3ccc(-c4cs[n-]c4=O)cc23)[n-]1 (3D coordinates assigned)
C=c1[n-]c(=O)c(=Cc2c(O)[n-]c3ccc(-c4cs[n-]c4=O)cc23)[n-]1 (optimized conformer: 138.8470390585824 kcal/mol)

>  <smiles>  (40) 
C=c1[nH]c(=O)c(=Cc2c(O)[nH]c3ccc(-c4cs[nH]c4=O)cc23)[nH]1

>  <score_type>  (40) 
oracle

>  <origin>  (40) 
adg

>  <m_score__min__energy>  (40) 
-14.050000000000001

>  <m_primary>  (40) 
energy

$$$$
40:0
     RDKit          3D

 45 47  0  0  0  0  0  0  0  0999 V2000
   57.4888   31.0260   44.8849 H   0  0  0  0  0  0  0  0  0  0  0  0
   56.9920   30.0460   44.8320 C   0  0  0  0  0  0  0  0  0  0  0  0
   56.1602   29.8883   44.1297 H   0  0  0  0  0  0  0  0  0  0  0  0
   57.3990   29.0470   45.6210 C   0  0  0  0  0  0  0  0  0  0  0  0
   58.4520   29.1100   46.4770 N   0  0  0  0  0  0  0  0  0  0  0  0
   59.2960   30.2330   46.7920 C   0  0  0  0  0  0  0  0  0  0  0  0
   60.6920   30.0890   46.8150 C   0  0  0  0  0  0  0  0  0  0  0  0
   61.1436   29.1084   46.6041 H   0  0  0  0  0  0  0  0  0  0  0  0
   61.5120   31.1830   47.1040 C   0  0  0  0  0  0  0  0  0  0  0  0
   62.6045   31.0564   47.1267 H   0  0  0  0  0  0  0  0  0  0  0  0
   60.9490   32.4450   47.3660 C   0  0  0  0  0  0  0  0  0  0  0  0
   61.8190   33.6020   47.6710 C   0  0  0  0  0  0  0  0  0  0  0  0
   61.5410   34.3790   48.6220 O   0  0  0  0  0  0  0  0  0  0  0  0
   62.9560   33.8480   46.9110 O   0  0  0  0  0  0  0  0  0  0  0  0
   59.5510   32.5890   47.3290 C   0  0  0  0  0  0  0  0  0  0  0  0
   59.0976   33.5714   47.5272 H   0  0  0  0  0  0  0  0  0  0  0  0
   58.7330   31.4920   47.0420 C   0  0  0  0  0  0  0  0  0  0  0  0
   57.6406   31.6178   47.0122 H   0  0  0  0  0  0  0  0  0  0  0  0
   58.5430   27.8690   46.9930 C   0  0  0  0  0  0  0  0  0  0  0  0
   59.4060   27.5110   47.8420 O   0  0  0  0  0  0  0  0  0  0  0  0
   57.5440   27.0730   46.4690 C   0  0  0  0  0  0  0  0  0  0  0  0
   57.3490   25.7720   46.7360 C   0  0  0  0  0  0  0  0  0  0  0  0
   57.9074   25.3265   47.5725 H   0  0  0  0  0  0  0  0  0  0  0  0
   56.4320   24.9050   45.9760 C   0  0  0  0  0  0  0  0  0  0  0  0
   56.7330   23.6360   45.6300 N   0  0  0  0  0  0  0  0  0  0  0  0
   55.6040   23.1860   45.0390 C   0  0  0  0  0  0  0  0  0  0  0  0
   55.4950   22.0200   44.5750 O   0  0  0  0  0  0  0  0  0  0  0  0
   54.6080   24.0960   45.0110 N   0  0  0  0  0  0  0  0  0  0  0  0
   53.2420   23.9260   44.5090 C   0  0  0  0  0  0  0  0  0  0  0  0
   52.9414   24.8382   43.9729 H   0  0  0  0  0  0  0  0  0  0  0  0
   53.2255   23.0555   43.8367 H   0  0  0  0  0  0  0  0  0  0  0  0
   52.2490   23.6700   45.6600 C   0  0  0  0  0  0  0  0  0  0  0  0
   52.3630   24.4850   46.3899 H   0  0  0  0  0  0  0  0  0  0  0  0
   52.5500   22.3480   46.3800 C   0  0  0  0  0  0  0  0  0  0  0  0
   52.5139   22.5065   47.4679 H   0  0  0  0  0  0  0  0  0  0  0  0
   51.8002   21.5957   46.0940 H   0  0  0  0  0  0  0  0  0  0  0  0
   53.5516   21.9945   46.0940 H   0  0  0  0  0  0  0  0  0  0  0  0
   50.8120   23.6660   45.1280 C   0  0  0  0  0  0  0  0  0  0  0  0
   50.1081   23.6640   45.9733 H   0  0  0  0  0  0  0  0  0  0  0  0
   50.6457   24.5637   44.5144 H   0  0  0  0  0  0  0  0  0  0  0  0
   50.6507   22.7674   44.5144 H   0  0  0  0  0  0  0  0  0  0  0  0
   55.1240   25.1740   45.6220 C   0  0  0  0  0  0  0  0  0  0  0  0
   54.4140   26.3390   45.8930 O   0  0  0  0  0  0  0  0  0  0  0  0
   56.8270   27.8200   45.6010 N   0  0  0  0  0  0  0  0  0  0  0  0
   56.0430   27.5120   44.9830 H   0  0  0  0  0  0  0  0  0  0  0  0
  1  2  1  0
  2  3  1  0
  2  4  2  0
  4  5  1  0
  5  6  1  0
  6  7  2  0
  7  8  1  0
  7  9  1  0
  9 10  1  0
  9 11  2  0
 11 12  1  0
 12 13  2  0
 12 14  1  0
 11 15  1  0
 15 16  1  0
 15 17  2  0
 17 18  1  0
  5 19  1  0
 19 20  2  0
 19 21  1  0
 21 22  2  0
 22 23  1  0
 22 24  1  0
 24 25  1  0
 25 26  1  0
 26 27  2  0
 26 28  1  0
 28 29  1  0
 29 30  1  0
 29 31  1  0
 29 32  1  0
 32 33  1  0
 32 34  1  0
 34 35  1  0
 34 36  1  0
 34 37  1  0
 32 38  1  0
 38 39  1  0
 38 40  1  0
 38 41  1  0
 28 42  1  0
 42 43  1  0
 21 44  1  0
 44 45  1  0
 44  4  1  0
 17  6  1  0
 42 24  2  0
M  CHG  3  14  -1  25  -1  43  -1
M  END
>  <UniqueID>  (41) 
36

>  <SMILES>  (41) 
C=c1[nH]/c(=C\c2[n-]c(=O)n(CC(C)C)c2[O-])c(=O)n1-c1ccc(C(=O)[O-])cc1

>  <Energy>  (41) 
119.92772282416638

>  <Genealogy>  (41) 
C=c1[nH]c(=Cc2[n-]c(=O)n(CC(C)C)c2[O-])c(=O)n1-c1ccc(C(=O)[O-])cc1 (protonated)
C=c1[nH]/c(=C\c2[n-]c(=O)n(CC(C)C)c2[O-])c(=O)n1-c1ccc(C(=O)[O-])cc1 (cis-trans isomerization)
C=c1[nH]/c(=C\c2[n-]c(=O)n(CC(C)C)c2[O-])c(=O)n1-c1ccc(C(=O)[O-])cc1 (3D coordinates assigned)
C=c1[nH]/c(=C\c2[n-]c(=O)n(CC(C)C)c2[O-])c(=O)n1-c1ccc(C(=O)[O-])cc1 (optimized conformer: 119.92772282416638 kcal/mol)

>  <smiles>  (41) 
C=c1[nH]c(=Cc2[nH]c(=O)n(CC(C)C)c2O)c(=O)n1-c1ccc(C(=O)O)cc1

>  <score_type>  (41) 
oracle

>  <origin>  (41) 
adg

>  <m_score__min__energy>  (41) 
-13.48

>  <m_primary>  (41) 
energy

$$$$
41:0
     RDKit          3D

 53 55  0  0  0  0  0  0  0  0999 V2000
   61.0870   28.8690   51.3890 C   0  0  0  0  0  0  0  0  0  0  0  0
   61.2820   30.2150   50.8470 N   0  0  0  0  0  0  0  0  0  0  0  0
   60.2050   31.2070   50.9470 C   0  0  0  0  0  0  0  0  0  0  0  0
   62.5890   30.5960   50.3720 C   0  0  0  0  0  0  0  0  0  0  0  0
   63.6100   30.0310   50.8500 O   0  0  0  0  0  0  0  0  0  0  0  0
   62.7710   31.6390   49.3370 C   0  0  0  0  0  0  0  0  0  0  0  0
   63.9930   32.3190   49.2130 C   0  0  0  0  0  0  0  0  0  0  0  0
   64.1430   33.3320   48.2610 C   0  0  0  0  0  0  0  0  0  0  0  0
   63.0760   33.6780   47.4320 C   0  0  0  0  0  0  0  0  0  0  0  0
   61.8470   33.0120   47.5390 C   0  0  0  0  0  0  0  0  0  0  0  0
   60.7530   33.4150   46.6980 N   0  0  0  0  0  0  0  0  0  0  0  0
   59.5480   34.0260   47.1800 C   0  0  0  0  0  0  0  0  0  0  0  0
   59.3090   34.0880   48.4170 O   0  0  0  0  0  0  0  0  0  0  0  0
   58.5970   34.5340   46.2390 N   0  0  0  0  0  0  0  0  0  0  0  0
   58.7170   34.3620   44.7950 C   0  0  0  0  0  0  0  0  0  0  0  0
   58.3370   32.9600   44.4050 C   0  0  0  0  0  0  0  0  0  0  0  0
   57.7410   32.7050   43.1610 C   0  0  0  0  0  0  0  0  0  0  0  0
   57.3760   31.4040   42.8120 C   0  0  0  0  0  0  0  0  0  0  0  0
   57.5950   30.3500   43.7010 C   0  0  0  0  0  0  0  0  0  0  0  0
   58.1740   30.5840   44.9620 C   0  0  0  0  0  0  0  0  0  0  0  0
   58.4020   29.4470   45.8910 C   0  0  0  0  0  0  0  0  0  0  0  0
   59.3860   29.4950   46.8980 C   0  0  0  0  0  0  0  0  0  0  0  0
   59.5590   28.3990   47.7450 C   0  0  0  0  0  0  0  0  0  0  0  0
   58.7520   27.2710   47.5980 C   0  0  0  0  0  0  0  0  0  0  0  0
   57.7720   27.2570   46.6020 C   0  0  0  0  0  0  0  0  0  0  0  0
   56.7330   25.8570   46.4010 S   0  0  0  0  0  0  0  0  0  0  0  0
   55.1390   26.3750   45.9790 N   0  0  0  0  0  0  0  0  0  0  0  0
   57.2730   24.9840   45.3020 O   0  0  0  0  0  0  0  0  0  0  0  0
   56.6940   25.0740   47.6830 O   0  0  0  0  0  0  0  0  0  0  0  0
   57.6240   28.3320   45.7820 N   0  0  0  0  0  0  0  0  0  0  0  0
   58.5500   31.9000   45.3010 C   0  0  0  0  0  0  0  0  0  0  0  0
   61.6940   32.0050   48.5100 C   0  0  0  0  0  0  0  0  0  0  0  0
   61.0932   28.9119   52.4881 H   0  0  0  0  0  0  0  0  0  0  0  0
   60.1218   28.4707   51.0430 H   0  0  0  0  0  0  0  0  0  0  0  0
   61.8995   28.2131   51.0430 H   0  0  0  0  0  0  0  0  0  0  0  0
   59.9879   31.4070   52.0067 H   0  0  0  0  0  0  0  0  0  0  0  0
   60.5184   32.1394   50.4546 H   0  0  0  0  0  0  0  0  0  0  0  0
   59.3015   30.8182   50.4546 H   0  0  0  0  0  0  0  0  0  0  0  0
   64.8362   32.0537   49.8677 H   0  0  0  0  0  0  0  0  0  0  0  0
   65.1047   33.8573   48.1656 H   0  0  0  0  0  0  0  0  0  0  0  0
   63.1997   34.4794   46.6887 H   0  0  0  0  0  0  0  0  0  0  0  0
   60.7890   33.1600   45.6840 H   0  0  0  0  0  0  0  0  0  0  0  0
   58.0492   35.0738   44.2877 H   0  0  0  0  0  0  0  0  0  0  0  0
   59.7596   34.5471   44.4972 H   0  0  0  0  0  0  0  0  0  0  0  0
   57.5609   33.5324   42.4589 H   0  0  0  0  0  0  0  0  0  0  0  0
   56.9141   31.2083   41.8330 H   0  0  0  0  0  0  0  0  0  0  0  0
   57.3122   29.3268   43.4129 H   0  0  0  0  0  0  0  0  0  0  0  0
   60.0140   30.3904   47.0161 H   0  0  0  0  0  0  0  0  0  0  0  0
   60.3313   28.4250   48.5279 H   0  0  0  0  0  0  0  0  0  0  0  0
   58.8855   26.4019   48.2589 H   0  0  0  0  0  0  0  0  0  0  0  0
   55.1440   27.4180   45.9930 H   0  0  0  0  0  0  0  0  0  0  0  0
   59.0152   32.0984   46.2778 H   0  0  0  0  0  0  0  0  0  0  0  0
   60.7235   31.4997   48.6231 H   0  0  0  0  0  0  0  0  0  0  0  0
  1  2  1  0
  2  3  1  0
  2  4  1  0
  4  5  2  0
  4  6  1  0
  6  7  2  0
  7  8  1  0
  8  9  2  0
  9 10  1  0
 10 11  1  0
 11 12  1  0
 12 13  2  0
 12 14  1  0
 14 15  1  0
 15 16  1  0
 16 17  2  0
 17 18  1  0
 18 19  2  0
 19 20  1  0
 20 21  1  0
 21 22  2  0
 22 23  1  0
 23 24  2  0
 24 25  1  0
 25 26  1  0
 26 27  1  0
 26 28  2  0
 26 29  2  0
 25 30  2  0
 20 31  2  0
 10 32  2  0
 32  6  1  0
 31 16  1  0
 30 21  1  0
  1 33  1  0
  1 34  1  0
  1 35  1  0
  3 36  1  0
  3 37  1  0
  3 38  1  0
  7 39  1  0
  8 40  1  0
  9 41  1  0
 11 42  1  0
 15 43  1  0
 15 44  1  0
 17 45  1  0
 18 46  1  0
 19 47  1  0
 22 48  1  0
 23 49  1  0
 24 50  1  0
 27 51  1  0
 31 52  1  0
 32 53  1  0
M  CHG  2  14  -1  27  -1
M  END
>  <UniqueID>  (42) 
37

>  <SMILES>  (42) 
CN(C)C(=O)c1cccc(NC(=O)[N-]Cc2cccc(-c3cccc(S([NH-])(=O)=O)n3)c2)c1

>  <Energy>  (42) 
63.03407878193264

>  <Genealogy>  (42) 
CN(C)C(=O)c1cccc(NC(=O)[N-]Cc2cccc(-c3cccc(S([NH-])(=O)=O)n3)c2)c1 (protonated)
CN(C)C(=O)c1cccc(NC(=O)[N-]Cc2cccc(-c3cccc(S([NH-])(=O)=O)n3)c2)c1 (3D coordinates assigned)
CN(C)C(=O)c1cccc(NC(=O)[N-]Cc2cccc(-c3cccc(S([NH-])(=O)=O)n3)c2)c1 (optimized conformer: 63.03407878193264 kcal/mol)

>  <smiles>  (42) 
CN(C)C(=O)c1cccc(NC(=O)NCc2cccc(-c3cccc(S(N)(=O)=O)n3)c2)c1

>  <score_type>  (42) 
oracle

>  <origin>  (42) 
adg

>  <m_score__min__energy>  (42) 
-13.77

>  <m_primary>  (42) 
energy

$$$$
42:0
     RDKit          3D

 46 48  0  0  0  0  0  0  0  0999 V2000
   55.9690   31.9820   52.3550 C   0  0  0  0  0  0  0  0  0  0  0  0
   55.4330   30.8210   52.7610 C   0  0  0  0  0  0  0  0  0  0  0  0
   54.0720   30.4730   52.7720 C   0  0  0  0  0  0  0  0  0  0  0  0
   52.9660   31.2090   52.5430 C   0  0  0  0  0  0  0  0  0  0  0  0
   52.2570   31.3180   51.2600 C   0  0  0  0  0  0  0  0  0  0  0  0
   52.2560   30.3520   50.3250 N   0  0  0  0  0  0  0  0  0  0  0  0
   51.3880   30.8160   49.3990 C   0  0  0  0  0  0  0  0  0  0  0  0
   51.1280   30.1870   48.3410 O   0  0  0  0  0  0  0  0  0  0  0  0
   50.8140   32.0000   49.7010 N   0  0  0  0  0  0  0  0  0  0  0  0
   51.3620   32.2970   50.8900 C   0  0  0  0  0  0  0  0  0  0  0  0
   51.0320   33.4250   51.6320 O   0  0  0  0  0  0  0  0  0  0  0  0
   54.0170   29.1330   53.1160 C   0  0  0  0  0  0  0  0  0  0  0  0
   55.3110   28.7290   53.3620 C   0  0  0  0  0  0  0  0  0  0  0  0
   55.6990   27.3540   53.8180 C   0  0  0  0  0  0  0  0  0  0  0  0
   56.1750   29.7450   53.1360 N   0  0  0  0  0  0  0  0  0  0  0  0
   57.6380   29.6800   53.2980 C   0  0  0  0  0  0  0  0  0  0  0  0
   58.3450   29.8090   51.9720 C   0  0  0  0  0  0  0  0  0  0  0  0
   57.8100   29.3920   50.9510 O   0  0  0  0  0  0  0  0  0  0  0  0
   59.6350   30.4690   51.9070 N   0  0  1  0  0  0  0  0  0  0  0  0
   60.7470   29.5550   52.2080 C   0  0  0  0  0  0  0  0  0  0  0  0
   61.9680   30.0780   51.4540 C   0  0  0  0  0  0  0  0  0  0  0  0
   61.4390   31.1130   50.4700 C   0  0  0  0  0  0  0  0  0  0  0  0
   59.9190   31.0010   50.5660 C   0  0  2  0  0  0  0  0  0  0  0  0
   59.2220   32.3270   50.3250 C   0  0  0  0  0  0  0  0  0  0  0  0
   59.0030   32.8490   48.9350 C   0  0  0  0  0  0  0  0  0  0  0  0
   58.8110   32.9830   51.2720 O   0  0  0  0  0  0  0  0  0  0  0  0
   57.0582   32.1296   52.3975 H   0  0  0  0  0  0  0  0  0  0  0  0
   55.3192   32.7863   51.9796 H   0  0  0  0  0  0  0  0  0  0  0  0
   52.5581   31.7783   53.3912 H   0  0  0  0  0  0  0  0  0  0  0  0
   53.1128   28.5099   53.1806 H   0  0  0  0  0  0  0  0  0  0  0  0
   55.7082   27.3213   54.9175 H   0  0  0  0  0  0  0  0  0  0  0  0
   54.9723   26.6222   53.4355 H   0  0  0  0  0  0  0  0  0  0  0  0
   56.7011   27.1100   53.4355 H   0  0  0  0  0  0  0  0  0  0  0  0
   57.9618   30.4988   53.9573 H   0  0  0  0  0  0  0  0  0  0  0  0
   57.8949   28.7031   53.7336 H   0  0  0  0  0  0  0  0  0  0  0  0
   59.6660   31.2480   52.6090 H   0  0  0  0  0  0  0  0  0  0  0  0
   60.9462   29.5450   53.2898 H   0  0  0  0  0  0  0  0  0  0  0  0
   60.5055   28.5267   51.9010 H   0  0  0  0  0  0  0  0  0  0  0  0
   62.6791   30.5428   52.1528 H   0  0  0  0  0  0  0  0  0  0  0  0
   62.5024   29.2665   50.9383 H   0  0  0  0  0  0  0  0  0  0  0  0
   61.7719   32.1225   50.7531 H   0  0  0  0  0  0  0  0  0  0  0  0
   61.8045   30.9386   49.4473 H   0  0  0  0  0  0  0  0  0  0  0  0
   59.5294   30.3356   49.7815 H   0  0  0  0  0  0  0  0  0  0  0  0
   58.5779   33.8622   48.9866 H   0  0  0  0  0  0  0  0  0  0  0  0
   59.9635   32.8811   48.3998 H   0  0  0  0  0  0  0  0  0  0  0  0
   58.3071   32.1862   48.3998 H   0  0  0  0  0  0  0  0  0  0  0  0
  1  2  2  0
  2  3  1  0
  3  4  2  3
  4  5  1  0
  5  6  1  0
  6  7  1  0
  7  8  2  0
  7  9  1  0
  9 10  1  0
 10 11  1  0
  3 12  1  0
 12 13  2  0
 13 14  1  0
 13 15  1  0
 15 16  1  0
 16 17  1  0
 17 18  2  0
 17 19  1  0
 19 20  1  0
 20 21  1  0
 21 22  1  0
 22 23  1  0
 23 24  1  0
 24 25  1  0
 24 26  2  0
 15  2  1  0
 23 19  1  0
 10  5  2  0
  1 27  1  0
  1 28  1  0
  4 29  1  0
 12 30  1  0
 14 31  1  0
 14 32  1  0
 14 33  1  0
 16 34  1  0
 16 35  1  0
 19 36  1  1
 20 37  1  0
 20 38  1  0
 21 39  1  0
 21 40  1  0
 22 41  1  0
 22 42  1  0
 23 43  1  6
 25 44  1  0
 25 45  1  0
 25 46  1  0
M  CHG  4   6  -1   9  -1  11  -1  19   1
M  END
>  <UniqueID>  (43) 
38

>  <SMILES>  (43) 
C=c1c(=Cc2[n-]c(=O)[n-]c2[O-])cc(C)n1CC(=O)[N@H+]1CCC[C@@H]1C(C)=O

>  <Energy>  (43) 
116.96429841729329

>  <Genealogy>  (43) 
C=c1c(=Cc2[n-]c(=O)[n-]c2[O-])cc(C)n1CC(=O)[NH+]1CCCC1C(C)=O (protonated)
C=c1c(=Cc2[n-]c(=O)[n-]c2[O-])cc(C)n1CC(=O)[N@H+]1CCC[C@@H]1C(C)=O (chirality)
C=c1c(=Cc2[n-]c(=O)[n-]c2[O-])cc(C)n1CC(=O)[N@H+]1CCC[C@@H]1C(C)=O (3D coordinates assigned)
C=c1c(=Cc2[n-]c(=O)[n-]c2[O-])cc(C)n1CC(=O)[N@H+]1CCC[C@@H]1C(C)=O (nonaromatic ring conformer: 116.96429841729329 kcal/mol)

>  <smiles>  (43) 
C=c1c(=Cc2[nH]c(=O)[nH]c2O)cc(C)n1CC(=O)N1CCCC1C(C)=O

>  <score_type>  (43) 
oracle

>  <origin>  (43) 
adg

>  <m_score__min__energy>  (43) 
-14.699999999999999

>  <m_primary>  (43) 
energy

$$$$
43:0
     RDKit          3D

 34 35  0  0  0  0  0  0  0  0999 V2000
   57.7650   32.0140   42.7440 C   0  0  0  0  0  0  0  0  0  0  0  0
   57.5670   30.9540   43.7740 C   0  0  0  0  0  0  0  0  0  0  0  0
   58.4710   29.9700   44.1130 C   0  0  0  0  0  0  0  0  0  0  0  0
   57.8160   29.2670   45.1030 C   0  0  0  0  0  0  0  0  0  0  0  0
   58.3180   28.0700   45.7820 C   0  0  0  0  0  0  0  0  0  0  0  0
   58.7860   27.1170   45.1020 O   0  0  0  0  0  0  0  0  0  0  0  0
   58.2820   27.9990   47.1800 O   0  0  0  0  0  0  0  0  0  0  0  0
   59.4030   28.3000   48.0060 C   0  0  0  0  0  0  0  0  0  0  0  0
   59.6700   29.7720   47.9600 C   0  0  0  0  0  0  0  0  0  0  0  0
   60.7900   30.2120   48.3370 O   0  0  0  0  0  0  0  0  0  0  0  0
   58.6280   30.6810   47.5840 N   0  0  0  0  0  0  0  0  0  0  0  0
   58.5400   32.0220   48.1560 C   0  0  0  0  0  0  0  0  0  0  0  0
   58.5500   33.0430   47.0500 C   0  0  0  0  0  0  0  0  0  0  0  0
   59.7500   33.6690   46.6790 C   0  0  0  0  0  0  0  0  0  0  0  0
   59.7740   34.5700   45.6100 C   0  0  0  0  0  0  0  0  0  0  0  0
   58.6030   34.8420   44.8970 C   0  0  0  0  0  0  0  0  0  0  0  0
   57.4070   34.2090   45.2500 C   0  0  0  0  0  0  0  0  0  0  0  0
   57.3800   33.3100   46.3200 C   0  0  0  0  0  0  0  0  0  0  0  0
   56.6040   29.8130   45.3270 N   0  0  0  0  0  0  0  0  0  0  0  0
   56.4930   30.8240   44.5160 O   0  0  0  0  0  0  0  0  0  0  0  0
   57.9452   32.9788   43.2407 H   0  0  0  0  0  0  0  0  0  0  0  0
   58.6308   31.7576   42.1158 H   0  0  0  0  0  0  0  0  0  0  0  0
   56.8650   32.0875   42.1158 H   0  0  0  0  0  0  0  0  0  0  0  0
   59.4724   29.7891   43.6952 H   0  0  0  0  0  0  0  0  0  0  0  0
   59.1881   27.9977   49.0416 H   0  0  0  0  0  0  0  0  0  0  0  0
   60.2859   27.7537   47.6426 H   0  0  0  0  0  0  0  0  0  0  0  0
   57.7930   30.3090   47.0790 H   0  0  0  0  0  0  0  0  0  0  0  0
   57.6070   32.1143   48.7314 H   0  0  0  0  0  0  0  0  0  0  0  0
   59.3999   32.1936   48.8201 H   0  0  0  0  0  0  0  0  0  0  0  0
   60.6756   33.4499   47.2315 H   0  0  0  0  0  0  0  0  0  0  0  0
   60.7154   35.0652   45.3299 H   0  0  0  0  0  0  0  0  0  0  0  0
   58.6222   35.5537   44.0585 H   0  0  0  0  0  0  0  0  0  0  0  0
   56.4867   34.4187   44.6851 H   0  0  0  0  0  0  0  0  0  0  0  0
   56.4388   32.8096   46.5915 H   0  0  0  0  0  0  0  0  0  0  0  0
  1  2  1  0
  2  3  2  0
  3  4  1  0
  4  5  1  0
  5  6  2  0
  5  7  1  0
  7  8  1  0
  8  9  1  0
  9 10  2  0
  9 11  1  0
 11 12  1  0
 12 13  1  0
 13 14  2  0
 14 15  1  0
 15 16  2  0
 16 17  1  0
 17 18  2  0
  4 19  2  0
 19 20  1  0
 20  2  1  0
 18 13  1  0
  1 21  1  0
  1 22  1  0
  1 23  1  0
  3 24  1  0
  8 25  1  0
  8 26  1  0
 11 27  1  0
 12 28  1  0
 12 29  1  0
 14 30  1  0
 15 31  1  0
 16 32  1  0
 17 33  1  0
 18 34  1  0
M  END
>  <UniqueID>  (44) 
39

>  <SMILES>  (44) 
Cc1cc(C(=O)OCC(=O)NCc2ccccc2)no1

>  <Energy>  (44) 
54.334753171991956

>  <Genealogy>  (44) 
Cc1cc(C(=O)OCC(=O)NCc2ccccc2)no1 (3D coordinates assigned)
Cc1cc(C(=O)OCC(=O)NCc2ccccc2)no1 (optimized conformer: 54.334753171991956 kcal/mol)

>  <smiles>  (44) 
Cc1cc(C(=O)OCC(=O)NCc2ccccc2)no1

>  <score_type>  (44) 
oracle

>  <origin>  (44) 
adg

>  <m_score__min__energy>  (44) 
-6.75

>  <m_primary>  (44) 
energy

$$$$
44:0
     RDKit          3D

 40 42  0  0  0  0  0  0  0  0999 V2000
   56.6520   23.8880   42.9960 C   0  0  0  0  0  0  0  0  0  0  0  0
   56.4390   22.8850   44.0350 N   0  0  0  0  0  0  0  0  0  0  0  0
   56.2300   21.6070   43.7630 N   0  0  0  0  0  0  0  0  0  0  0  0
   56.0190   20.9670   44.9300 C   0  0  0  0  0  0  0  0  0  0  0  0
   56.0940   21.8670   45.9740 C   0  0  0  0  0  0  0  0  0  0  0  0
   56.3810   23.0750   45.3720 C   0  0  0  0  0  0  0  0  0  0  0  0
   56.5390   24.3580   46.0860 C   0  0  0  0  0  0  0  0  0  0  0  0
   55.5240   25.0820   46.2740 O   0  0  0  0  0  0  0  0  0  0  0  0
   57.8140   24.7650   46.6010 N   0  0  0  0  0  0  0  0  0  0  0  0
   58.0940   26.1450   46.9870 C   0  0  0  0  0  0  0  0  0  0  0  0
   57.9420   27.0520   45.7980 C   0  0  0  0  0  0  0  0  0  0  0  0
   58.2640   26.5860   44.5140 C   0  0  0  0  0  0  0  0  0  0  0  0
   58.0730   27.4040   43.3990 C   0  0  0  0  0  0  0  0  0  0  0  0
   57.5600   28.6940   43.5560 C   0  0  0  0  0  0  0  0  0  0  0  0
   57.2410   29.1800   44.8300 C   0  0  0  0  0  0  0  0  0  0  0  0
   56.7090   30.4730   44.9430 O   0  0  0  0  0  0  0  0  0  0  0  0
   57.4420   31.6300   45.2420 C   0  0  0  0  0  0  0  0  0  0  0  0
   58.1560   31.6820   46.4450 C   0  0  0  0  0  0  0  0  0  0  0  0
   58.8890   32.8240   46.7850 C   0  0  0  0  0  0  0  0  0  0  0  0
   58.9030   33.9290   45.9280 C   0  0  0  0  0  0  0  0  0  0  0  0
   59.8200   35.3610   46.3550 Cl  0  0  0  0  0  0  0  0  0  0  0  0
   58.1750   33.8930   44.7330 C   0  0  0  0  0  0  0  0  0  0  0  0
   57.4420   32.7530   44.3920 C   0  0  0  0  0  0  0  0  0  0  0  0
   57.4150   28.3460   45.9500 C   0  0  0  0  0  0  0  0  0  0  0  0
   56.8588   24.8620   43.4635 H   0  0  0  0  0  0  0  0  0  0  0  0
   57.5074   23.5923   42.3708 H   0  0  0  0  0  0  0  0  0  0  0  0
   55.7503   23.9655   42.3708 H   0  0  0  0  0  0  0  0  0  0  0  0
   55.8176   19.8907   45.0348 H   0  0  0  0  0  0  0  0  0  0  0  0
   55.9558   21.6660   47.0466 H   0  0  0  0  0  0  0  0  0  0  0  0
   58.5650   24.0520   46.7330 H   0  0  0  0  0  0  0  0  0  0  0  0
   57.3892   26.4536   47.7731 H   0  0  0  0  0  0  0  0  0  0  0  0
   59.1254   26.2126   47.3634 H   0  0  0  0  0  0  0  0  0  0  0  0
   58.6688   25.5713   44.3855 H   0  0  0  0  0  0  0  0  0  0  0  0
   58.3268   27.0323   42.3953 H   0  0  0  0  0  0  0  0  0  0  0  0
   57.4057   29.3320   42.6733 H   0  0  0  0  0  0  0  0  0  0  0  0
   58.1406   30.8193   47.1273 H   0  0  0  0  0  0  0  0  0  0  0  0
   59.4551   32.8528   47.7277 H   0  0  0  0  0  0  0  0  0  0  0  0
   58.1798   34.7638   44.0609 H   0  0  0  0  0  0  0  0  0  0  0  0
   56.8632   32.7327   43.4568 H   0  0  0  0  0  0  0  0  0  0  0  0
   57.1369   28.7090   46.9504 H   0  0  0  0  0  0  0  0  0  0  0  0
  1  2  1  0
  2  3  1  0
  3  4  2  0
  4  5  1  0
  5  6  2  0
  6  7  1  0
  7  8  2  0
  7  9  1  0
  9 10  1  0
 10 11  1  0
 11 12  2  0
 12 13  1  0
 13 14  2  0
 14 15  1  0
 15 16  1  0
 16 17  1  0
 17 18  2  0
 18 19  1  0
 19 20  2  0
 20 21  1  0
 20 22  1  0
 22 23  2  0
 15 24  2  0
  6  2  1  0
 24 11  1  0
 23 17  1  0
  1 25  1  0
  1 26  1  0
  1 27  1  0
  4 28  1  0
  5 29  1  0
  9 30  1  0
 10 31  1  0
 10 32  1  0
 12 33  1  0
 13 34  1  0
 14 35  1  0
 18 36  1  0
 19 37  1  0
 22 38  1  0
 23 39  1  0
 24 40  1  0
M  END
>  <UniqueID>  (45) 
40

>  <SMILES>  (45) 
Cn1nccc1C(=O)NCc1cccc(Oc2ccc(Cl)cc2)c1

>  <Energy>  (45) 
77.66922117413608

>  <Genealogy>  (45) 
Cn1nccc1C(=O)NCc1cccc(Oc2ccc(Cl)cc2)c1 (3D coordinates assigned)
Cn1nccc1C(=O)NCc1cccc(Oc2ccc(Cl)cc2)c1 (optimized conformer: 77.66922117413608 kcal/mol)

>  <smiles>  (45) 
Cn1nccc1C(=O)NCc1cccc(Oc2ccc(Cl)cc2)c1

>  <score_type>  (45) 
oracle

>  <origin>  (45) 
adg

>  <m_score__min__energy>  (45) 
-8.1400000000000006

>  <m_primary>  (45) 
energy

$$$$
45:0
     RDKit          3D

 50 53  0  0  0  0  0  0  0  0999 V2000
   58.4690   21.8900   45.3220 O   0  0  0  0  0  0  0  0  0  0  0  0
   58.3320   23.1280   45.1410 C   0  0  0  0  0  0  0  0  0  0  0  0
   57.7870   23.6130   43.8260 C   0  0  0  0  0  0  0  0  0  0  0  0
   56.3270   24.0810   43.9460 C   0  0  0  0  0  0  0  0  0  0  0  0
   55.6440   23.4190   45.0680 N   0  0  0  0  0  0  0  0  0  0  0  0
   55.4670   22.0660   45.2070 C   0  0  0  0  0  0  0  0  0  0  0  0
   55.9380   21.1180   44.2960 O   0  0  0  0  0  0  0  0  0  0  0  0
   54.7870   21.6790   46.3580 C   0  0  0  0  0  0  0  0  0  0  0  0
   54.4080   23.0640   47.2440 S   0  0  0  0  0  0  0  0  0  0  0  0
   55.1180   24.0930   46.1240 C   0  0  0  0  0  0  0  0  0  0  0  0
   55.1610   25.3480   46.2510 O   0  0  0  0  0  0  0  0  0  0  0  0
   58.7380   24.0270   46.1830 N   0  0  0  0  0  0  0  0  0  0  0  0
   59.6620   25.1440   46.0190 C   0  0  0  0  0  0  0  0  0  0  0  0
   58.8880   26.3770   45.6600 C   0  0  0  0  0  0  0  0  0  0  0  0
   58.4760   27.2610   46.6690 C   0  0  0  0  0  0  0  0  0  0  0  0
   57.7170   28.3880   46.3510 C   0  0  0  0  0  0  0  0  0  0  0  0
   57.3260   28.6350   45.0240 C   0  0  0  0  0  0  0  0  0  0  0  0
   56.5070   29.8250   44.6920 C   0  0  0  0  0  0  0  0  0  0  0  0
   55.2550   29.7820   44.8410 O   0  0  0  0  0  0  0  0  0  0  0  0
   57.1020   31.0090   44.1420 N   0  0  0  0  0  0  0  0  0  0  0  0
   57.2630   31.2500   42.7080 C   0  0  0  0  0  0  0  0  0  0  0  0
   58.1440   32.5200   42.5850 C   0  0  0  0  0  0  0  0  0  0  0  0
   58.3550   32.9310   44.0020 C   0  0  0  0  0  0  0  0  0  0  0  0
   59.0600   34.0400   44.4810 C   0  0  0  0  0  0  0  0  0  0  0  0
   59.1320   34.2410   45.8670 C   0  0  0  0  0  0  0  0  0  0  0  0
   58.4860   33.3510   46.7480 C   0  0  0  0  0  0  0  0  0  0  0  0
   57.7760   32.2480   46.2430 C   0  0  0  0  0  0  0  0  0  0  0  0
   57.7470   32.0530   44.8560 C   0  0  0  0  0  0  0  0  0  0  0  0
   57.7430   27.7490   44.0140 C   0  0  0  0  0  0  0  0  0  0  0  0
   58.5090   26.6230   44.3310 C   0  0  0  0  0  0  0  0  0  0  0  0
   58.4022   24.4547   43.4751 H   0  0  0  0  0  0  0  0  0  0  0  0
   57.8181   22.7744   43.1148 H   0  0  0  0  0  0  0  0  0  0  0  0
   56.3116   25.1688   44.1087 H   0  0  0  0  0  0  0  0  0  0  0  0
   55.8009   23.8191   43.0161 H   0  0  0  0  0  0  0  0  0  0  0  0
   56.8930   20.7970   44.2740 H   0  0  0  0  0  0  0  0  0  0  0  0
   54.5388   20.6457   46.6419 H   0  0  0  0  0  0  0  0  0  0  0  0
   60.2060   25.3124   46.9601 H   0  0  0  0  0  0  0  0  0  0  0  0
   60.3811   24.9137   45.2191 H   0  0  0  0  0  0  0  0  0  0  0  0
   58.7526   27.0647   47.7154 H   0  0  0  0  0  0  0  0  0  0  0  0
   57.4223   29.0890   47.1458 H   0  0  0  0  0  0  0  0  0  0  0  0
   57.7592   30.3927   42.2296 H   0  0  0  0  0  0  0  0  0  0  0  0
   56.2913   31.3836   42.2100 H   0  0  0  0  0  0  0  0  0  0  0  0
   59.1015   32.2892   42.0951 H   0  0  0  0  0  0  0  0  0  0  0  0
   57.6798   33.3077   41.9734 H   0  0  0  0  0  0  0  0  0  0  0  0
   59.5474   34.7393   43.7857 H   0  0  0  0  0  0  0  0  0  0  0  0
   59.6949   35.0967   46.2680 H   0  0  0  0  0  0  0  0  0  0  0  0
   58.5375   33.5199   47.8337 H   0  0  0  0  0  0  0  0  0  0  0  0
   57.2558   31.5548   46.9204 H   0  0  0  0  0  0  0  0  0  0  0  0
   57.4646   27.9433   42.9677 H   0  0  0  0  0  0  0  0  0  0  0  0
   58.8157   25.9274   43.5360 H   0  0  0  0  0  0  0  0  0  0  0  0
  1  2  2  0
  2  3  1  0
  3  4  1  0
  4  5  1  0
  5  6  1  0
  6  7  1  0
  6  8  2  0
  8  9  1  0
  9 10  1  0
 10 11  2  0
  2 12  1  0
 12 13  1  0
 13 14  1  0
 14 15  2  0
 15 16  1  0
 16 17  2  0
 17 18  1  0
 18 19  2  0
 18 20  1  0
 20 21  1  0
 21 22  1  0
 22 23  1  0
 23 24  2  0
 24 25  1  0
 25 26  2  0
 26 27  1  0
 27 28  2  0
 17 29  1  0
 29 30  2  0
 10  5  1  0
 30 14  1  0
 28 20  1  0
 28 23  1  0
  3 31  1  0
  3 32  1  0
  4 33  1  0
  4 34  1  0
  7 35  1  0
  8 36  1  0
 13 37  1  0
 13 38  1  0
 15 39  1  0
 16 40  1  0
 21 41  1  0
 21 42  1  0
 22 43  1  0
 22 44  1  0
 24 45  1  0
 25 46  1  0
 26 47  1  0
 27 48  1  0
 29 49  1  0
 30 50  1  0
M  CHG  1  12  -1
M  END
>  <UniqueID>  (46) 
41

>  <SMILES>  (46) 
O=C(CCn1c(O)csc1=O)[N-]Cc1ccc(C(=O)N2CCc3ccccc32)cc1

>  <Energy>  (46) 
101.06762985935468

>  <Genealogy>  (46) 
O=C(CCn1c(O)csc1=O)[N-]Cc1ccc(C(=O)N2CCc3ccccc32)cc1 (protonated)
O=C(CCn1c(O)csc1=O)[N-]Cc1ccc(C(=O)N2CCc3ccccc32)cc1 (3D coordinates assigned)
O=C(CCn1c(O)csc1=O)[N-]Cc1ccc(C(=O)N2CCc3ccccc32)cc1 (nonaromatic ring conformer: 101.06762985935468 kcal/mol)

>  <smiles>  (46) 
O=C(CCn1c(O)csc1=O)NCc1ccc(C(=O)N2CCc3ccccc32)cc1

>  <score_type>  (46) 
oracle

>  <origin>  (46) 
adg

>  <m_score__min__energy>  (46) 
-11.44

>  <m_primary>  (46) 
energy

$$$$
46:0
     RDKit          3D

 49 52  0  0  0  0  0  0  0  0999 V2000
   60.4700   31.0970   47.5370 C   0  0  0  0  0  0  0  0  0  0  0  0
   59.4120   30.8150   46.7720 C   0  0  0  0  0  0  0  0  0  0  0  0
   58.9650   29.5530   46.5780 N   0  0  0  0  0  0  0  0  0  0  0  0
   57.8410   29.6770   45.8360 C   0  0  0  0  0  0  0  0  0  0  0  0
   57.0380   28.6810   45.4170 C   0  0  0  0  0  0  0  0  0  0  0  0
   57.1760   27.2540   45.7760 C   0  0  0  0  0  0  0  0  0  0  0  0
   58.3370   26.5680   45.8590 N   0  0  0  0  0  0  0  0  0  0  0  0
   57.9510   25.3080   46.1560 C   0  0  0  0  0  0  0  0  0  0  0  0
   58.7660   24.3610   46.3070 O   0  0  0  0  0  0  0  0  0  0  0  0
   56.6130   25.1650   46.2650 N   0  0  0  0  0  0  0  0  0  0  0  0
   55.8560   23.9340   46.4920 C   0  0  0  0  0  0  0  0  0  0  0  0
   56.1040   22.9620   45.3720 C   0  0  0  0  0  0  0  0  0  0  0  0
   56.0060   23.3820   44.0350 C   0  0  0  0  0  0  0  0  0  0  0  0
   56.2760   22.4870   42.9950 C   0  0  0  0  0  0  0  0  0  0  0  0
   56.6540   21.1730   43.2820 C   0  0  0  0  0  0  0  0  0  0  0  0
   56.9170   20.3060   42.2720 F   0  0  0  0  0  0  0  0  0  0  0  0
   56.7660   20.7510   44.6100 C   0  0  0  0  0  0  0  0  0  0  0  0
   56.4970   21.6440   45.6530 C   0  0  0  0  0  0  0  0  0  0  0  0
   56.1270   26.3900   46.0090 C   0  0  0  0  0  0  0  0  0  0  0  0
   54.7750   26.7130   45.9780 O   0  0  0  0  0  0  0  0  0  0  0  0
   57.6380   31.0230   45.5980 C   0  0  0  0  0  0  0  0  0  0  0  0
   56.6870   31.5240   44.9380 O   0  0  0  0  0  0  0  0  0  0  0  0
   58.6240   31.7400   46.1680 N   0  0  0  0  0  0  0  0  0  0  0  0
   58.7700   33.1690   46.1150 C   0  0  0  0  0  0  0  0  0  0  0  0
   57.7670   33.8970   46.3430 O   0  0  0  0  0  0  0  0  0  0  0  0
   60.0500   33.7910   45.6210 C   0  0  0  0  0  0  0  0  0  0  0  0
   61.0760   33.9150   46.7200 C   0  0  0  0  0  0  0  0  0  0  0  0
   62.4400   33.7300   46.4350 C   0  0  0  0  0  0  0  0  0  0  0  0
   63.3960   33.8510   47.4480 C   0  0  0  0  0  0  0  0  0  0  0  0
   62.9990   34.1540   48.7530 C   0  0  0  0  0  0  0  0  0  0  0  0
   61.6450   34.3320   49.0480 C   0  0  0  0  0  0  0  0  0  0  0  0
   60.6860   34.2120   48.0370 C   0  0  0  0  0  0  0  0  0  0  0  0
   60.7947   32.1403   47.6636 H   0  0  0  0  0  0  0  0  0  0  0  0
   61.0166   30.2859   48.0404 H   0  0  0  0  0  0  0  0  0  0  0  0
   59.3900   28.6900   46.9800 H   0  0  0  0  0  0  0  0  0  0  0  0
   56.2070   28.9529   44.7495 H   0  0  0  0  0  0  0  0  0  0  0  0
   56.1732   23.4818   47.4433 H   0  0  0  0  0  0  0  0  0  0  0  0
   54.7829   24.1728   46.5310 H   0  0  0  0  0  0  0  0  0  0  0  0
   55.7160   24.4180   43.8055 H   0  0  0  0  0  0  0  0  0  0  0  0
   56.1906   22.8180   41.9495 H   0  0  0  0  0  0  0  0  0  0  0  0
   57.0656   19.7168   44.8350 H   0  0  0  0  0  0  0  0  0  0  0  0
   56.5939   21.3120   46.6972 H   0  0  0  0  0  0  0  0  0  0  0  0
   60.4634   33.1635   44.8177 H   0  0  0  0  0  0  0  0  0  0  0  0
   59.8186   34.8022   45.2550 H   0  0  0  0  0  0  0  0  0  0  0  0
   62.7569   33.4888   45.4096 H   0  0  0  0  0  0  0  0  0  0  0  0
   64.4619   33.7075   47.2174 H   0  0  0  0  0  0  0  0  0  0  0  0
   63.7526   34.2524   49.5482 H   0  0  0  0  0  0  0  0  0  0  0  0
   61.3329   34.5667   50.0763 H   0  0  0  0  0  0  0  0  0  0  0  0
   59.6209   34.3508   48.2740 H   0  0  0  0  0  0  0  0  0  0  0  0
  1  2  2  0
  2  3  1  0
  3  4  1  0
  4  5  2  3
  5  6  1  0
  6  7  1  0
  7  8  1  0
  8  9  2  0
  8 10  1  0
 10 11  1  0
 11 12  1  0
 12 13  2  0
 13 14  1  0
 14 15  2  0
 15 16  1  0
 15 17  1  0
 17 18  2  0
 10 19  1  0
 19 20  1  0
  4 21  1  0
 21 22  2  0
 21 23  1  0
 23 24  1  0
 24 25  2  0
 24 26  1  0
 26 27  1  0
 27 28  2  0
 28 29  1  0
 29 30  2  0
 30 31  1  0
 31 32  2  0
 23  2  1  0
 32 27  1  0
 19  6  2  0
 18 12  1  0
  1 33  1  0
  1 34  1  0
  3 35  1  0
  5 36  1  0
 11 37  1  0
 11 38  1  0
 13 39  1  0
 14 40  1  0
 17 41  1  0
 18 42  1  0
 26 43  1  0
 26 44  1  0
 28 45  1  0
 29 46  1  0
 30 47  1  0
 31 48  1  0
 32 49  1  0
M  CHG  2   7  -1  20  -1
M  END
>  <UniqueID>  (47) 
42

>  <SMILES>  (47) 
C=c1[nH]c(=Cc2[n-]c(=O)n(Cc3ccc(F)cc3)c2[O-])c(=O)n1C(=O)Cc1ccccc1

>  <Energy>  (47) 
127.66234426917495

>  <Genealogy>  (47) 
C=c1[nH]c(=Cc2[n-]c(=O)n(Cc3ccc(F)cc3)c2[O-])c(=O)n1C(=O)Cc1ccccc1 (protonated)
C=c1[nH]c(=Cc2[n-]c(=O)n(Cc3ccc(F)cc3)c2[O-])c(=O)n1C(=O)Cc1ccccc1 (3D coordinates assigned)
C=c1[nH]c(=Cc2[n-]c(=O)n(Cc3ccc(F)cc3)c2[O-])c(=O)n1C(=O)Cc1ccccc1 (optimized conformer: 127.66234426917495 kcal/mol)

>  <smiles>  (47) 
C=c1[nH]c(=Cc2[nH]c(=O)n(Cc3ccc(F)cc3)c2O)c(=O)n1C(=O)Cc1ccccc1

>  <score_type>  (47) 
oracle

>  <origin>  (47) 
adg

>  <m_score__min__energy>  (47) 
-14.52

>  <m_primary>  (47) 
energy

$$$$
47:0
     RDKit          3D

 52 55  0  0  0  0  0  0  0  0999 V2000
   58.7170   29.4170   48.0570 O   0  0  0  0  0  0  0  0  0  0  0  0
   59.7600   30.0690   48.3360 C   0  0  0  0  0  0  0  0  0  0  0  0
   60.3190   30.9530   47.4060 O   0  0  0  0  0  0  0  0  0  0  0  0
   61.2500   31.9410   47.7440 C   0  0  0  0  0  0  0  0  0  0  0  0
   62.5140   31.8900   47.1420 C   0  0  0  0  0  0  0  0  0  0  0  0
   63.5000   32.8180   47.4800 C   0  0  0  0  0  0  0  0  0  0  0  0
   63.2280   33.8140   48.4180 C   0  0  0  0  0  0  0  0  0  0  0  0
   61.9640   33.8980   49.0060 C   0  0  0  0  0  0  0  0  0  0  0  0
   60.9520   32.9800   48.6640 C   0  0  0  0  0  0  0  0  0  0  0  0
   59.5950   33.1560   49.2330 C   0  0  0  0  0  0  0  0  0  0  0  0
   59.3970   32.9770   50.4640 O   0  0  0  0  0  0  0  0  0  0  0  0
   58.4920   33.4550   48.3680 N   0  0  0  0  0  0  0  0  0  0  0  0
   58.5320   33.4860   46.9350 C   0  0  0  0  0  0  0  0  0  0  0  0
   59.2130   34.4970   46.2330 C   0  0  0  0  0  0  0  0  0  0  0  0
   59.2580   34.4740   44.8350 C   0  0  0  0  0  0  0  0  0  0  0  0
   58.6330   33.4420   44.1300 C   0  0  0  0  0  0  0  0  0  0  0  0
   57.9630   32.4240   44.8190 C   0  0  0  0  0  0  0  0  0  0  0  0
   57.2060   31.1060   43.9260 S   0  0  0  0  0  0  0  0  0  0  0  0
   57.0620   31.5140   42.4860 O   0  0  0  0  0  0  0  0  0  0  0  0
   55.8340   30.8390   44.4850 O   0  0  0  0  0  0  0  0  0  0  0  0
   58.1920   29.6700   44.0350 N   0  0  0  0  0  0  0  0  0  0  0  0
   57.3960   28.5500   44.5670 C   0  0  0  0  0  0  0  0  0  0  0  0
   58.2630   27.2750   44.6960 C   0  0  0  0  0  0  0  0  0  0  0  0
   59.6440   27.5340   44.5050 O   0  0  0  0  0  0  0  0  0  0  0  0
   60.0480   28.6090   45.3260 C   0  0  0  0  0  0  0  0  0  0  0  0
   59.3780   29.9250   44.8780 C   0  0  0  0  0  0  0  0  0  0  0  0
   57.9290   32.4410   46.2210 C   0  0  0  0  0  0  0  0  0  0  0  0
   60.3880   29.9050   49.6510 C   0  0  0  0  0  0  0  0  0  0  0  0
   59.7220   29.8020   50.8560 C   0  0  0  0  0  0  0  0  0  0  0  0
   60.7070   29.6650   51.8100 C   0  0  0  0  0  0  0  0  0  0  0  0
   61.9080   29.6950   51.1310 C   0  0  0  0  0  0  0  0  0  0  0  0
   61.6850   29.8400   49.8440 O   0  0  0  0  0  0  0  0  0  0  0  0
   62.7313   31.1113   46.3960 H   0  0  0  0  0  0  0  0  0  0  0  0
   64.4915   32.7641   47.0068 H   0  0  0  0  0  0  0  0  0  0  0  0
   64.0111   34.5351   48.6953 H   0  0  0  0  0  0  0  0  0  0  0  0
   61.7570   34.6881   49.7428 H   0  0  0  0  0  0  0  0  0  0  0  0
   59.7114   35.3077   46.7847 H   0  0  0  0  0  0  0  0  0  0  0  0
   59.7864   35.2698   44.2896 H   0  0  0  0  0  0  0  0  0  0  0  0
   58.6675   33.4295   43.0306 H   0  0  0  0  0  0  0  0  0  0  0  0
   58.5050   29.4320   43.0650 H   0  0  0  0  0  0  0  0  0  0  0  0
   57.0060   28.8232   45.5586 H   0  0  0  0  0  0  0  0  0  0  0  0
   56.5669   28.3450   43.8738 H   0  0  0  0  0  0  0  0  0  0  0  0
   58.1195   26.8514   45.7010 H   0  0  0  0  0  0  0  0  0  0  0  0
   57.9435   26.5736   43.9112 H   0  0  0  0  0  0  0  0  0  0  0  0
   59.7620   28.3951   46.3664 H   0  0  0  0  0  0  0  0  0  0  0  0
   61.1389   28.7238   45.2437 H   0  0  0  0  0  0  0  0  0  0  0  0
   59.0678   30.4896   45.7696 H   0  0  0  0  0  0  0  0  0  0  0  0
   60.1059   30.4979   44.2848 H   0  0  0  0  0  0  0  0  0  0  0  0
   57.4253   31.6281   46.7646 H   0  0  0  0  0  0  0  0  0  0  0  0
   58.6345   29.8245   51.0200 H   0  0  0  0  0  0  0  0  0  0  0  0
   60.5645   29.5540   52.8951 H   0  0  0  0  0  0  0  0  0  0  0  0
   62.9011   29.6104   51.5963 H   0  0  0  0  0  0  0  0  0  0  0  0
  1  2  2  0
  2  3  1  0
  3  4  1  0
  4  5  2  0
  5  6  1  0
  6  7  2  0
  7  8  1  0
  8  9  2  0
  9 10  1  0
 10 11  2  0
 10 12  1  0
 12 13  1  0
 13 14  2  0
 14 15  1  0
 15 16  2  0
 16 17  1  0
 17 18  1  0
 18 19  2  0
 18 20  2  0
 18 21  1  0
 21 22  1  0
 22 23  1  0
 23 24  1  0
 24 25  1  0
 25 26  1  0
 17 27  2  0
  2 28  1  0
 28 29  2  0
 29 30  1  0
 30 31  2  0
 31 32  1  0
  9  4  1  0
 27 13  1  0
 32 28  1  0
 26 21  1  0
  5 33  1  0
  6 34  1  0
  7 35  1  0
  8 36  1  0
 14 37  1  0
 15 38  1  0
 16 39  1  0
 21 40  1  0
 22 41  1  0
 22 42  1  0
 23 43  1  0
 23 44  1  0
 25 45  1  0
 25 46  1  0
 26 47  1  0
 26 48  1  0
 27 49  1  0
 29 50  1  0
 30 51  1  0
 31 52  1  0
M  CHG  2  12  -1  21   1
M  END
>  <UniqueID>  (48) 
43

>  <SMILES>  (48) 
O=C(Oc1ccccc1C(=O)[N-]c1cccc(S(=O)(=O)[NH+]2CCOCC2)c1)c1ccco1

>  <Energy>  (48) 
100.41774345682157

>  <Genealogy>  (48) 
O=C(Oc1ccccc1C(=O)[N-]c1cccc(S(=O)(=O)[NH+]2CCOCC2)c1)c1ccco1 (protonated)
O=C(Oc1ccccc1C(=O)[N-]c1cccc(S(=O)(=O)[NH+]2CCOCC2)c1)c1ccco1 (3D coordinates assigned)
O=C(Oc1ccccc1C(=O)[N-]c1cccc(S(=O)(=O)[NH+]2CCOCC2)c1)c1ccco1 (nonaromatic ring conformer: 100.41774345682157 kcal/mol)

>  <smiles>  (48) 
O=C(Oc1ccccc1C(=O)Nc1cccc(S(=O)(=O)N2CCOCC2)c1)c1ccco1

>  <score_type>  (48) 
oracle

>  <origin>  (48) 
adg

>  <m_score__min__energy>  (48) 
-10.33

>  <m_primary>  (48) 
energy

$$$$
48:0
     RDKit          3D

 62 65  0  0  0  0  0  0  0  0999 V2000
   66.2060   33.0580   49.6980 N   0  0  0  0  0  0  0  0  0  0  0  0
   64.6150   32.7340   50.2910 S   0  0  0  0  0  0  0  0  0  0  0  0
   64.3700   33.5220   51.5490 O   0  0  0  0  0  0  0  0  0  0  0  0
   64.4990   31.2680   50.6080 O   0  0  0  0  0  0  0  0  0  0  0  0
   63.4290   33.1910   49.0730 C   0  0  0  0  0  0  0  0  0  0  0  0
   63.6410   32.8430   47.7330 C   0  0  0  0  0  0  0  0  0  0  0  0
   62.6980   33.1830   46.7580 C   0  0  0  0  0  0  0  0  0  0  0  0
   61.5300   33.8730   47.1120 C   0  0  0  0  0  0  0  0  0  0  0  0
   60.4930   34.2090   46.0700 C   0  0  0  0  0  0  0  0  0  0  0  0
   59.1240   33.8700   46.5220 N   0  0  0  0  0  0  0  0  0  0  0  0
   58.0820   34.2090   45.5190 C   0  0  0  0  0  0  0  0  0  0  0  0
   57.9080   33.1180   44.4550 C   0  0  0  0  0  0  0  0  0  0  0  0
   57.6450   31.7170   45.0690 C   0  0  0  0  0  0  0  0  0  0  0  0
   56.3080   31.2400   44.7260 N   0  0  0  0  0  0  0  0  0  0  0  0
   56.0440   29.9770   44.1110 C   0  0  0  0  0  0  0  0  0  0  0  0
   55.7690   29.9340   42.8830 O   0  0  0  0  0  0  0  0  0  0  0  0
   56.0620   28.7760   44.8890 N   0  0  0  0  0  0  0  0  0  0  0  0
   57.2060   28.2710   45.5880 C   0  0  0  0  0  0  0  0  0  0  0  0
   57.0430   27.2230   46.5020 C   0  0  0  0  0  0  0  0  0  0  0  0
   58.1330   26.7450   47.2320 C   0  0  0  0  0  0  0  0  0  0  0  0
   59.3990   27.3200   47.0770 C   0  0  0  0  0  0  0  0  0  0  0  0
   60.4560   26.8160   47.8550 O   0  0  0  0  0  0  0  0  0  0  0  0
   60.7060   27.1440   49.2220 C   0  0  0  0  0  0  0  0  0  0  0  0
   60.4420   28.6010   49.4860 C   0  0  0  0  0  0  0  0  0  0  0  0
   59.1290   29.0990   49.5120 C   0  0  0  0  0  0  0  0  0  0  0  0
   58.8920   30.4510   49.7840 C   0  0  0  0  0  0  0  0  0  0  0  0
   59.9620   31.3110   50.0480 C   0  0  0  0  0  0  0  0  0  0  0  0
   61.2710   30.8220   50.0300 C   0  0  0  0  0  0  0  0  0  0  0  0
   61.5120   29.4710   49.7520 C   0  0  0  0  0  0  0  0  0  0  0  0
   59.5610   28.3820   46.1680 C   0  0  0  0  0  0  0  0  0  0  0  0
   58.4730   28.8540   45.4320 C   0  0  0  0  0  0  0  0  0  0  0  0
   57.7950   31.7170   46.5990 C   0  0  0  0  0  0  0  0  0  0  0  0
   59.0670   32.4650   47.0170 C   0  0  0  0  0  0  0  0  0  0  0  0
   61.3250   34.2300   48.4540 C   0  0  0  0  0  0  0  0  0  0  0  0
   62.2690   33.8900   49.4270 C   0  0  0  0  0  0  0  0  0  0  0  0
   66.1440   33.0770   48.6550 H   0  0  0  0  0  0  0  0  0  0  0  0
   64.5535   32.2997   47.4462 H   0  0  0  0  0  0  0  0  0  0  0  0
   62.8736   32.9076   45.7076 H   0  0  0  0  0  0  0  0  0  0  0  0
   60.5400   35.2871   45.8565 H   0  0  0  0  0  0  0  0  0  0  0  0
   60.7107   33.6159   45.1695 H   0  0  0  0  0  0  0  0  0  0  0  0
   57.1235   34.3482   46.0405 H   0  0  0  0  0  0  0  0  0  0  0  0
   58.4020   35.1271   45.0045 H   0  0  0  0  0  0  0  0  0  0  0  0
   57.0562   33.3859   43.8126 H   0  0  0  0  0  0  0  0  0  0  0  0
   58.8463   33.0590   43.8840 H   0  0  0  0  0  0  0  0  0  0  0  0
   58.4031   31.0436   44.6426 H   0  0  0  0  0  0  0  0  0  0  0  0
   56.0495   26.7732   46.6459 H   0  0  0  0  0  0  0  0  0  0  0  0
   57.9953   25.9098   47.9345 H   0  0  0  0  0  0  0  0  0  0  0  0
   60.0488   26.5379   49.8629 H   0  0  0  0  0  0  0  0  0  0  0  0
   61.7628   26.9345   49.4441 H   0  0  0  0  0  0  0  0  0  0  0  0
   58.2831   28.4232   49.3177 H   0  0  0  0  0  0  0  0  0  0  0  0
   57.8622   30.8377   49.7901 H   0  0  0  0  0  0  0  0  0  0  0  0
   59.7737   32.3718   50.2697 H   0  0  0  0  0  0  0  0  0  0  0  0
   62.1132   31.4994   50.2345 H   0  0  0  0  0  0  0  0  0  0  0  0
   62.5437   29.0895   49.7419 H   0  0  0  0  0  0  0  0  0  0  0  0
   60.5511   28.8430   46.0367 H   0  0  0  0  0  0  0  0  0  0  0  0
   58.6093   29.6868   44.7264 H   0  0  0  0  0  0  0  0  0  0  0  0
   56.9209   32.2115   47.0479 H   0  0  0  0  0  0  0  0  0  0  0  0
   57.8648   30.6763   46.9484 H   0  0  0  0  0  0  0  0  0  0  0  0
   59.1154   32.4814   48.1158 H   0  0  0  0  0  0  0  0  0  0  0  0
   59.9173   31.9305   46.5682 H   0  0  0  0  0  0  0  0  0  0  0  0
   60.4168   34.7801   48.7413 H   0  0  0  0  0  0  0  0  0  0  0  0
   62.0995   34.1731   50.4763 H   0  0  0  0  0  0  0  0  0  0  0  0
  1  2  1  0
  2  3  2  0
  2  4  2  0
  2  5  1  0
  5  6  2  0
  6  7  1  0
  7  8  2  0
  8  9  1  0
  9 10  1  0
 10 11  1  0
 11 12  1  0
 12 13  1  0
 13 14  1  0
 14 15  1  0
 15 16  2  0
 15 17  1  0
 17 18  1  0
 18 19  2  0
 19 20  1  0
 20 21  2  0
 21 22  1  0
 22 23  1  0
 23 24  1  0
 24 25  2  0
 25 26  1  0
 26 27  2  0
 27 28  1  0
 28 29  2  0
 21 30  1  0
 30 31  2  0
 13 32  1  0
 32 33  1  0
  8 34  1  0
 34 35  2  0
 35  5  1  0
 33 10  1  0
 31 18  1  0
 29 24  1  0
  1 36  1  0
  6 37  1  0
  7 38  1  0
  9 39  1  0
  9 40  1  0
 11 41  1  0
 11 42  1  0
 12 43  1  0
 12 44  1  0
 13 45  1  0
 19 46  1  0
 20 47  1  0
 23 48  1  0
 23 49  1  0
 25 50  1  0
 26 51  1  0
 27 52  1  0
 28 53  1  0
 29 54  1  0
 30 55  1  0
 31 56  1  0
 32 57  1  0
 32 58  1  0
 33 59  1  0
 33 60  1  0
 34 61  1  0
 35 62  1  0
M  CHG  3   1  -1  14  -1  17  -1
M  END
>  <UniqueID>  (49) 
44

>  <SMILES>  (49) 
[NH-]S(=O)(=O)c1ccc(CN2CCC([N-]C(=O)[N-]c3ccc(OCc4ccccc4)cc3)CC2)cc1

>  <Energy>  (49) 
77.45788559062183

>  <Genealogy>  (49) 
[NH-]S(=O)(=O)c1ccc(CN2CCC([N-]C(=O)[N-]c3ccc(OCc4ccccc4)cc3)CC2)cc1 (protonated)
[NH-]S(=O)(=O)c1ccc(CN2CCC([N-]C(=O)[N-]c3ccc(OCc4ccccc4)cc3)CC2)cc1 (3D coordinates assigned)
[NH-]S(=O)(=O)c1ccc(CN2CCC([N-]C(=O)[N-]c3ccc(OCc4ccccc4)cc3)CC2)cc1 (nonaromatic ring conformer: 77.45788559062183 kcal/mol)

>  <smiles>  (49) 
NS(=O)(=O)c1ccc(CN2CCC(NC(=O)Nc3ccc(OCc4ccccc4)cc3)CC2)cc1

>  <score_type>  (49) 
oracle

>  <origin>  (49) 
adg

>  <m_score__min__energy>  (49) 
-14.73

>  <m_primary>  (49) 
energy

$$$$
49:0
     RDKit          3D

 72 76  0  0  0  0  0  0  0  0999 V2000
   61.2260   26.3850   50.7830 C   0  0  0  0  0  0  0  0  0  0  0  0
   60.8240   27.7060   50.2000 C   0  0  0  0  0  0  0  0  0  0  0  0
   60.7030   28.8290   51.0280 C   0  0  0  0  0  0  0  0  0  0  0  0
   60.2960   30.0560   50.4960 C   0  0  0  0  0  0  0  0  0  0  0  0
   60.0730   30.2080   49.1160 C   0  0  0  0  0  0  0  0  0  0  0  0
   59.5750   31.5420   48.5530 C   0  0  2  0  0  0  0  0  0  0  0  0
   58.5200   31.5170   47.4720 C   0  0  0  0  0  0  0  0  0  0  0  0
   58.2200   30.5130   46.6090 N   0  0  0  0  0  0  0  0  0  0  0  0
   57.9350   31.1200   45.4420 C   0  0  0  0  0  0  0  0  0  0  0  0
   57.6870   30.5060   44.2160 C   0  0  0  0  0  0  0  0  0  0  0  0
   57.6010   31.3230   43.0740 C   0  0  0  0  0  0  0  0  0  0  0  0
   57.7990   32.7180   43.1760 C   0  0  0  0  0  0  0  0  0  0  0  0
   58.0900   33.3050   44.4210 C   0  0  0  0  0  0  0  0  0  0  0  0
   58.1200   32.4770   45.5400 C   0  0  0  0  0  0  0  0  0  0  0  0
   58.5180   32.7280   46.8350 C   0  0  0  0  0  0  0  0  0  0  0  0
   59.7470   33.3800   47.2440 C   0  0  0  0  0  0  0  0  0  0  0  0
   60.0850   34.5360   46.8780 O   0  0  0  0  0  0  0  0  0  0  0  0
   60.5960   32.5060   48.0270 N   0  0  2  0  0  0  0  0  0  0  0  0
   61.6090   31.8840   47.1130 C   0  0  0  0  0  0  0  0  0  0  0  0
   63.0660   31.9800   47.6560 C   0  0  0  0  0  0  0  0  0  0  0  0
   63.5110   33.4500   47.7540 C   0  0  0  0  0  0  0  0  0  0  0  0
   62.7840   34.2020   48.8900 C   0  0  0  0  0  0  0  0  0  0  0  0
   62.4510   33.3480   50.0620 N   0  0  0  0  0  0  0  0  0  0  0  0
   62.3920   34.1880   51.2830 C   0  0  0  0  0  0  0  0  0  0  0  0
   61.7920   33.4620   52.5020 C   0  0  0  0  0  0  0  0  0  0  0  0
   60.3190   33.8250   52.7540 C   0  0  0  0  0  0  0  0  0  0  0  0
   59.4030   33.2950   51.6700 C   0  0  0  0  0  0  0  0  0  0  0  0
   59.6430   33.5770   50.4610 O   0  0  0  0  0  0  0  0  0  0  0  0
   58.2870   32.4320   51.9860 N   0  0  0  0  0  0  0  0  0  0  0  0
   57.4540   31.9100   50.8970 C   0  0  0  0  0  0  0  0  0  0  0  0
   57.9990   32.0570   53.3740 C   0  0  0  0  0  0  0  0  0  0  0  0
   63.4040   32.2290   50.2020 C   0  0  0  0  0  0  0  0  0  0  0  0
   63.2550   31.2600   49.0160 C   0  0  0  0  0  0  0  0  0  0  0  0
   60.0580   29.0430   48.3230 C   0  0  0  0  0  0  0  0  0  0  0  0
   60.4590   27.8110   48.8520 C   0  0  0  0  0  0  0  0  0  0  0  0
   61.2069   26.4478   51.8810 H   0  0  0  0  0  0  0  0  0  0  0  0
   60.5238   25.6074   50.4479 H   0  0  0  0  0  0  0  0  0  0  0  0
   62.2423   26.1304   50.4479 H   0  0  0  0  0  0  0  0  0  0  0  0
   60.9291   28.7452   52.1012 H   0  0  0  0  0  0  0  0  0  0  0  0
   60.1480   30.9152   51.1668 H   0  0  0  0  0  0  0  0  0  0  0  0
   59.1527   31.8780   49.5115 H   0  0  0  0  0  0  0  0  0  0  0  0
   58.3770   29.4880   46.7250 H   0  0  0  0  0  0  0  0  0  0  0  0
   57.5622   29.4155   44.1433 H   0  0  0  0  0  0  0  0  0  0  0  0
   57.3782   30.8727   42.0954 H   0  0  0  0  0  0  0  0  0  0  0  0
   57.7253   33.3484   42.2776 H   0  0  0  0  0  0  0  0  0  0  0  0
   58.2875   34.3836   44.5076 H   0  0  0  0  0  0  0  0  0  0  0  0
   61.0320   33.0470   48.8120 H   0  0  0  0  0  0  0  0  0  0  0  0
   61.3546   30.8221   46.9801 H   0  0  0  0  0  0  0  0  0  0  0  0
   61.5767   32.4385   46.1635 H   0  0  0  0  0  0  0  0  0  0  0  0
   63.7068   31.4554   46.9320 H   0  0  0  0  0  0  0  0  0  0  0  0
   64.5940   33.4809   47.9443 H   0  0  0  0  0  0  0  0  0  0  0  0
   63.2586   33.9445   46.8044 H   0  0  0  0  0  0  0  0  0  0  0  0
   63.4319   35.0224   49.2323 H   0  0  0  0  0  0  0  0  0  0  0  0
   61.8305   34.5614   48.4757 H   0  0  0  0  0  0  0  0  0  0  0  0
   63.4141   34.5062   51.5360 H   0  0  0  0  0  0  0  0  0  0  0  0
   61.7328   35.0393   51.0576 H   0  0  0  0  0  0  0  0  0  0  0  0
   61.8615   32.3773   52.3329 H   0  0  0  0  0  0  0  0  0  0  0  0
   62.3642   33.7777   53.3868 H   0  0  0  0  0  0  0  0  0  0  0  0
   60.0094   33.3975   53.7191 H   0  0  0  0  0  0  0  0  0  0  0  0
   60.2383   34.9220   52.7563 H   0  0  0  0  0  0  0  0  0  0  0  0
   56.5935   31.3708   51.3198 H   0  0  0  0  0  0  0  0  0  0  0  0
   57.0951   32.7450   50.2774 H   0  0  0  0  0  0  0  0  0  0  0  0
   58.0489   31.2229   50.2774 H   0  0  0  0  0  0  0  0  0  0  0  0
   58.5249   32.7418   54.0555 H   0  0  0  0  0  0  0  0  0  0  0  0
   56.9157   32.1210   53.5539 H   0  0  0  0  0  0  0  0  0  0  0  0
   58.3403   31.0269   53.5539 H   0  0  0  0  0  0  0  0  0  0  0  0
   64.4301   32.6247   50.2225 H   0  0  0  0  0  0  0  0  0  0  0  0
   63.1935   31.6901   51.1375 H   0  0  0  0  0  0  0  0  0  0  0  0
   64.1597   30.6369   48.9584 H   0  0  0  0  0  0  0  0  0  0  0  0
   62.3501   30.6611   49.1962 H   0  0  0  0  0  0  0  0  0  0  0  0
   59.7271   29.1028   47.2757 H   0  0  0  0  0  0  0  0  0  0  0  0
   60.4876   26.9211   48.2061 H   0  0  0  0  0  0  0  0  0  0  0  0
  1  2  1  0
  2  3  2  0
  3  4  1  0
  4  5  2  0
  5  6  1  0
  6  7  1  0
  7  8  1  0
  8  9  1  0
  9 10  2  0
 10 11  1  0
 11 12  2  0
 12 13  1  0
 13 14  2  0
 14 15  1  0
 15 16  1  0
 16 17  2  0
 16 18  1  0
 18 19  1  0
 19 20  1  0
 20 21  1  0
 21 22  1  0
 22 23  1  0
 23 24  1  0
 24 25  1  0
 25 26  1  0
 26 27  1  0
 27 28  2  0
 27 29  1  0
 29 30  1  0
 29 31  1  0
 23 32  1  0
 32 33  1  0
  5 34  1  0
 34 35  2  0
 35  2  1  0
 18  6  1  0
 33 20  1  0
 15  7  2  0
 14  9  1  0
  1 36  1  0
  1 37  1  0
  1 38  1  0
  3 39  1  0
  4 40  1  0
  6 41  1  1
  8 42  1  0
 10 43  1  0
 11 44  1  0
 12 45  1  0
 13 46  1  0
 18 47  1  1
 19 48  1  0
 19 49  1  0
 20 50  1  0
 21 51  1  0
 21 52  1  0
 22 53  1  0
 22 54  1  0
 24 55  1  0
 24 56  1  0
 25 57  1  0
 25 58  1  0
 26 59  1  0
 26 60  1  0
 30 61  1  0
 30 62  1  0
 30 63  1  0
 31 64  1  0
 31 65  1  0
 31 66  1  0
 32 67  1  0
 32 68  1  0
 33 69  1  0
 33 70  1  0
 34 71  1  0
 35 72  1  0
M  CHG  1  18   1
M  END
>  <UniqueID>  (50) 
45

>  <SMILES>  (50) 
Cc1ccc([C@@H]2c3[nH]c4ccccc4c3C(=O)[N@@H+]2CC2CCN(CCCC(=O)N(C)C)CC2)cc1

>  <Energy>  (50) 
170.97030169829912

>  <Genealogy>  (50) 
Cc1ccc(C2c3[nH]c4ccccc4c3C(=O)[NH+]2CC2CCN(CCCC(=O)N(C)C)CC2)cc1 (protonated)
Cc1ccc([C@@H]2c3[nH]c4ccccc4c3C(=O)[N@@H+]2CC2CCN(CCCC(=O)N(C)C)CC2)cc1 (chirality)
Cc1ccc([C@@H]2c3[nH]c4ccccc4c3C(=O)[N@@H+]2CC2CCN(CCCC(=O)N(C)C)CC2)cc1 (3D coordinates assigned)
Cc1ccc([C@@H]2c3[nH]c4ccccc4c3C(=O)[N@@H+]2CC2CCN(CCCC(=O)N(C)C)CC2)cc1 (nonaromatic ring conformer: 170.97030169829912 kcal/mol)

>  <smiles>  (50) 
Cc1ccc(C2c3[nH]c4ccccc4c3C(=O)N2CC2CCN(CCCC(=O)N(C)C)CC2)cc1

>  <score_type>  (50) 
oracle

>  <origin>  (50) 
adg

>  <m_score__min__energy>  (50) 
-8.6699999999999999

>  <m_primary>  (50) 
energy

$$$$
50:0
     RDKit          3D

 44 47  0  0  0  0  0  0  0  0999 V2000
   55.0730   29.1200   54.8660 C   0  0  0  0  0  0  0  0  0  0  0  0
   54.8430   29.7840   53.5430 C   0  0  0  0  0  0  0  0  0  0  0  0
   55.7510   30.0020   52.5010 C   0  0  0  0  0  0  0  0  0  0  0  0
   57.1660   29.5920   52.4440 C   0  0  0  0  0  0  0  0  0  0  0  0
   57.5270   28.5950   53.1240 O   0  0  0  0  0  0  0  0  0  0  0  0
   58.1380   30.3150   51.6680 N   0  0  0  0  0  0  0  0  0  0  0  0
   58.2050   31.7810   51.7530 C   0  0  0  0  0  0  0  0  0  0  0  0
   58.7050   32.3720   50.4320 C   0  0  0  0  0  0  0  0  0  0  0  0
   59.9220   31.6940   49.9560 N   0  0  0  0  0  0  0  0  0  0  0  0
   60.7250   32.3180   48.9290 C   0  0  0  0  0  0  0  0  0  0  0  0
   60.1910   33.3420   48.1250 C   0  0  0  0  0  0  0  0  0  0  0  0
   60.9710   33.9480   47.1360 C   0  0  0  0  0  0  0  0  0  0  0  0
   62.2920   33.5430   46.9400 C   0  0  0  0  0  0  0  0  0  0  0  0
   63.0480   34.1330   45.9800 F   0  0  0  0  0  0  0  0  0  0  0  0
   62.8370   32.5310   47.7330 C   0  0  0  0  0  0  0  0  0  0  0  0
   62.0610   31.9210   48.7230 C   0  0  0  0  0  0  0  0  0  0  0  0
   60.3960   30.4770   50.6280 C   0  0  0  0  0  0  0  0  0  0  0  0
   59.2210   29.5690   51.0090 C   0  0  0  0  0  0  0  0  0  0  0  0
   55.1680   30.6790   51.5270 O   0  0  0  0  0  0  0  0  0  0  0  0
   53.9220   30.8920   51.8740 C   0  0  0  0  0  0  0  0  0  0  0  0
   52.9400   31.5600   51.1470 C   0  0  0  0  0  0  0  0  0  0  0  0
   51.6590   31.6740   51.7200 C   0  0  0  0  0  0  0  0  0  0  0  0
   50.6500   32.3330   51.0300 O   0  0  0  0  0  0  0  0  0  0  0  0
   51.3960   31.1220   52.9940 C   0  0  0  0  0  0  0  0  0  0  0  0
   52.4090   30.4530   53.7050 C   0  0  0  0  0  0  0  0  0  0  0  0
   53.6660   30.3550   53.1080 C   0  0  0  0  0  0  0  0  0  0  0  0
   54.8295   29.8229   55.6763 H   0  0  0  0  0  0  0  0  0  0  0  0
   54.4305   28.2308   54.9466 H   0  0  0  0  0  0  0  0  0  0  0  0
   56.1279   28.8187   54.9466 H   0  0  0  0  0  0  0  0  0  0  0  0
   57.2022   32.1773   51.9704 H   0  0  0  0  0  0  0  0  0  0  0  0
   58.9046   32.0594   52.5549 H   0  0  0  0  0  0  0  0  0  0  0  0
   57.9168   32.2637   49.6724 H   0  0  0  0  0  0  0  0  0  0  0  0
   58.9477   33.4314   50.6014 H   0  0  0  0  0  0  0  0  0  0  0  0
   59.1514   33.6682   48.2760 H   0  0  0  0  0  0  0  0  0  0  0  0
   60.5428   34.7456   46.5111 H   0  0  0  0  0  0  0  0  0  0  0  0
   63.8787   32.2132   47.5784 H   0  0  0  0  0  0  0  0  0  0  0  0
   62.4965   31.1255   49.3455 H   0  0  0  0  0  0  0  0  0  0  0  0
   61.0686   29.9304   49.9506 H   0  0  0  0  0  0  0  0  0  0  0  0
   60.9278   30.7672   51.5461 H   0  0  0  0  0  0  0  0  0  0  0  0
   58.8246   29.0998   50.0965 H   0  0  0  0  0  0  0  0  0  0  0  0
   59.5919   28.8131   51.7168 H   0  0  0  0  0  0  0  0  0  0  0  0
   53.1582   31.9852   50.1563 H   0  0  0  0  0  0  0  0  0  0  0  0
   50.3918   31.2161   53.4330 H   0  0  0  0  0  0  0  0  0  0  0  0
   52.2163   30.0216   54.6984 H   0  0  0  0  0  0  0  0  0  0  0  0
  1  2  1  0
  2  3  2  0
  3  4  1  0
  4  5  2  0
  4  6  1  0
  6  7  1  0
  7  8  1  0
  8  9  1  0
  9 10  1  0
 10 11  2  0
 11 12  1  0
 12 13  2  0
 13 14  1  0
 13 15  1  0
 15 16  2  0
  9 17  1  0
 17 18  1  0
  3 19  1  0
 19 20  1  0
 20 21  2  0
 21 22  1  0
 22 23  1  0
 22 24  2  0
 24 25  1  0
 25 26  2  0
 26  2  1  0
 18  6  1  0
 26 20  1  0
 16 10  1  0
  1 27  1  0
  1 28  1  0
  1 29  1  0
  7 30  1  0
  7 31  1  0
  8 32  1  0
  8 33  1  0
 11 34  1  0
 12 35  1  0
 15 36  1  0
 16 37  1  0
 17 38  1  0
 17 39  1  0
 18 40  1  0
 18 41  1  0
 21 42  1  0
 24 43  1  0
 25 44  1  0
M  CHG  1  23  -1
M  END
>  <UniqueID>  (51) 
46

>  <SMILES>  (51) 
Cc1c(C(=O)N2CCN(c3ccc(F)cc3)CC2)oc2cc([O-])ccc12

>  <Energy>  (51) 
89.38079535612214

>  <Genealogy>  (51) 
Cc1c(C(=O)N2CCN(c3ccc(F)cc3)CC2)oc2cc([O-])ccc12 (protonated)
Cc1c(C(=O)N2CCN(c3ccc(F)cc3)CC2)oc2cc([O-])ccc12 (3D coordinates assigned)
Cc1c(C(=O)N2CCN(c3ccc(F)cc3)CC2)oc2cc([O-])ccc12 (nonaromatic ring conformer: 89.38079535612214 kcal/mol)

>  <smiles>  (51) 
Cc1c(C(=O)N2CCN(c3ccc(F)cc3)CC2)oc2cc(O)ccc12

>  <score_type>  (51) 
oracle

>  <origin>  (51) 
adg

>  <m_score__min__energy>  (51) 
-11.51

>  <m_primary>  (51) 
energy

$$$$
51:0
     RDKit          3D

 60 63  0  0  0  0  0  0  0  0999 V2000
   57.0250   21.6490   42.9990 C   0  0  0  0  0  0  0  0  0  0  0  0
   56.5920   22.6370   44.0360 C   0  0  0  0  0  0  0  0  0  0  0  0
   55.5160   22.3510   44.8810 C   0  0  0  0  0  0  0  0  0  0  0  0
   55.1430   23.3050   45.8310 C   0  0  0  0  0  0  0  0  0  0  0  0
   53.9870   23.0520   46.7470 C   0  0  0  0  0  0  0  0  0  0  0  0
   55.8130   24.4850   45.8990 N   0  0  0  0  0  0  0  0  0  0  0  0
   56.8570   24.7570   45.0690 C   0  0  0  0  0  0  0  0  0  0  0  0
   57.5540   26.0160   45.1560 N   0  0  0  0  0  0  0  0  0  0  0  0
   57.8580   26.5780   46.4830 C   0  0  0  0  0  0  0  0  0  0  0  0
   58.7670   27.8070   46.3790 C   0  0  0  0  0  0  0  0  0  0  0  0
   58.2460   28.7330   45.3640 N   0  0  0  0  0  0  0  0  0  0  0  0
   58.0570   30.1440   45.6210 C   0  0  0  0  0  0  0  0  0  0  0  0
   57.0540   30.7230   45.1230 O   0  0  0  0  0  0  0  0  0  0  0  0
   59.0120   30.9800   46.4510 C   0  0  0  0  0  0  0  0  0  0  0  0
   60.4740   30.5120   46.3650 C   0  0  0  0  0  0  0  0  0  0  0  0
   61.3850   31.4850   47.1330 C   0  0  0  0  0  0  0  0  0  0  0  0
   60.8690   31.8690   48.4730 N   0  0  0  0  0  0  0  0  0  0  0  0
   60.6150   33.5960   48.6040 S   0  0  0  0  0  0  0  0  0  0  0  0
   59.7730   33.9190   49.8060 O   0  0  0  0  0  0  0  0  0  0  0  0
   61.9330   34.3100   48.7280 O   0  0  0  0  0  0  0  0  0  0  0  0
   59.7980   34.1770   47.1660 C   0  0  0  0  0  0  0  0  0  0  0  0
   58.4630   34.0070   46.8760 C   0  0  0  0  0  0  0  0  0  0  0  0
   58.2350   34.5910   45.6910 N   0  0  0  0  0  0  0  0  0  0  0  0
   56.9880   34.5810   44.9390 C   0  0  0  0  0  0  0  0  0  0  0  0
   59.4220   35.0790   45.2810 C   0  0  0  0  0  0  0  0  0  0  0  0
   60.4110   34.8480   46.1710 N   0  0  0  0  0  0  0  0  0  0  0  0
   59.6870   31.1070   48.9260 C   0  0  0  0  0  0  0  0  0  0  0  0
   58.5290   31.1430   47.9110 C   0  0  0  0  0  0  0  0  0  0  0  0
   57.8150   28.2050   44.0590 C   0  0  0  0  0  0  0  0  0  0  0  0
   58.0440   26.6930   43.9470 C   0  0  0  0  0  0  0  0  0  0  0  0
   57.2350   23.8290   44.1460 N   0  0  0  0  0  0  0  0  0  0  0  0
   57.4196   20.7486   43.4925 H   0  0  0  0  0  0  0  0  0  0  0  0
   56.1642   21.3755   42.3711 H   0  0  0  0  0  0  0  0  0  0  0  0
   57.8095   22.0966   42.3711 H   0  0  0  0  0  0  0  0  0  0  0  0
   54.9752   21.3966   44.7999 H   0  0  0  0  0  0  0  0  0  0  0  0
   54.3239   23.1257   47.7915 H   0  0  0  0  0  0  0  0  0  0  0  0
   53.2017   23.7995   46.5614 H   0  0  0  0  0  0  0  0  0  0  0  0
   53.5857   22.0448   46.5614 H   0  0  0  0  0  0  0  0  0  0  0  0
   56.9167   26.8703   46.9713 H   0  0  0  0  0  0  0  0  0  0  0  0
   58.3827   25.8101   47.0704 H   0  0  0  0  0  0  0  0  0  0  0  0
   58.8030   28.3169   47.3530 H   0  0  0  0  0  0  0  0  0  0  0  0
   59.7780   27.4849   46.0889 H   0  0  0  0  0  0  0  0  0  0  0  0
   59.0002   31.9814   45.9960 H   0  0  0  0  0  0  0  0  0  0  0  0
   60.5612   29.5075   46.8048 H   0  0  0  0  0  0  0  0  0  0  0  0
   60.7828   30.4858   45.3096 H   0  0  0  0  0  0  0  0  0  0  0  0
   62.3673   31.0077   47.2647 H   0  0  0  0  0  0  0  0  0  0  0  0
   61.4380   32.4079   46.5368 H   0  0  0  0  0  0  0  0  0  0  0  0
   57.7210   33.4882   47.5007 H   0  0  0  0  0  0  0  0  0  0  0  0
   56.1385   34.5742   45.6378 H   0  0  0  0  0  0  0  0  0  0  0  0
   56.9346   35.4787   44.3056 H   0  0  0  0  0  0  0  0  0  0  0  0
   56.9490   33.6825   44.3056 H   0  0  0  0  0  0  0  0  0  0  0  0
   59.5692   35.6069   44.3273 H   0  0  0  0  0  0  0  0  0  0  0  0
   59.9835   30.0596   49.0840 H   0  0  0  0  0  0  0  0  0  0  0  0
   59.3279   31.5739   49.8550 H   0  0  0  0  0  0  0  0  0  0  0  0
   57.8306   30.3258   48.1443 H   0  0  0  0  0  0  0  0  0  0  0  0
   58.0444   32.1271   47.9935 H   0  0  0  0  0  0  0  0  0  0  0  0
   56.7426   28.4124   43.9286 H   0  0  0  0  0  0  0  0  0  0  0  0
   58.4134   28.6980   43.2787 H   0  0  0  0  0  0  0  0  0  0  0  0
   57.5036   26.3074   43.0700 H   0  0  0  0  0  0  0  0  0  0  0  0
   59.1214   26.4996   43.8382 H   0  0  0  0  0  0  0  0  0  0  0  0
  1  2  1  0
  2  3  2  0
  3  4  1  0
  4  5  1  0
  4  6  2  0
  6  7  1  0
  7  8  1  0
  8  9  1  0
  9 10  1  0
 10 11  1  0
 11 12  1  0
 12 13  2  0
 12 14  1  0
 14 15  1  0
 15 16  1  0
 16 17  1  0
 17 18  1  0
 18 19  2  0
 18 20  2  0
 18 21  1  0
 21 22  2  0
 22 23  1  0
 23 24  1  0
 23 25  1  0
 25 26  2  0
 17 27  1  0
 27 28  1  0
 11 29  1  0
 29 30  1  0
  7 31  2  0
 31  2  1  0
 30  8  1  0
 28 14  1  0
 26 21  1  0
  1 32  1  0
  1 33  1  0
  1 34  1  0
  3 35  1  0
  5 36  1  0
  5 37  1  0
  5 38  1  0
  9 39  1  0
  9 40  1  0
 10 41  1  0
 10 42  1  0
 14 43  1  0
 15 44  1  0
 15 45  1  0
 16 46  1  0
 16 47  1  0
 22 48  1  0
 24 49  1  0
 24 50  1  0
 24 51  1  0
 25 52  1  0
 27 53  1  0
 27 54  1  0
 28 55  1  0
 28 56  1  0
 29 57  1  0
 29 58  1  0
 30 59  1  0
 30 60  1  0
M  END
>  <UniqueID>  (52) 
47

>  <SMILES>  (52) 
Cc1cc(C)nc(N2CCN(C(=O)C3CCN(S(=O)(=O)c4cn(C)cn4)CC3)CC2)n1

>  <Energy>  (52) 
100.8549588848686

>  <Genealogy>  (52) 
Cc1cc(C)nc(N2CCN(C(=O)C3CCN(S(=O)(=O)c4cn(C)cn4)CC3)CC2)n1 (3D coordinates assigned)
Cc1cc(C)nc(N2CCN(C(=O)C3CCN(S(=O)(=O)c4cn(C)cn4)CC3)CC2)n1 (nonaromatic ring conformer: 100.8549588848686 kcal/mol)

>  <smiles>  (52) 
Cc1cc(C)nc(N2CCN(C(=O)C3CCN(S(=O)(=O)c4cn(C)cn4)CC3)CC2)n1

>  <score_type>  (52) 
oracle

>  <origin>  (52) 
adg

>  <m_score__min__energy>  (52) 
-9.2599999999999998

>  <m_primary>  (52) 
energy

$$$$
52:0
     RDKit          3D

 49 52  0  0  0  0  0  0  0  0999 V2000
   52.1380   28.7110   54.7490 C   0  0  0  0  0  0  0  0  0  0  0  0
   53.2540   29.0270   54.0860 C   0  0  0  0  0  0  0  0  0  0  0  0
   54.3790   28.2910   54.1970 N   0  0  0  0  0  0  0  0  0  0  0  0
   55.3590   28.9680   53.5710 C   0  0  0  0  0  0  0  0  0  0  0  0
   56.7930   28.5310   53.5440 C   0  0  0  0  0  0  0  0  0  0  0  0
   57.7270   29.7110   53.6350 C   0  0  0  0  0  0  0  0  0  0  0  0
   58.3150   29.9460   54.7270 O   0  0  0  0  0  0  0  0  0  0  0  0
   57.9970   30.5480   52.4920 N   0  0  0  0  0  0  0  0  0  0  0  0
   57.7610   30.0630   51.1240 C   0  0  0  0  0  0  0  0  0  0  0  0
   58.7850   30.6590   50.1520 C   0  0  0  0  0  0  0  0  0  0  0  0
   58.8710   32.1220   50.2820 N   0  0  0  0  0  0  0  0  0  0  0  0
   59.4190   32.9050   49.1980 C   0  0  0  0  0  0  0  0  0  0  0  0
   58.6630   33.1400   48.0320 C   0  0  0  0  0  0  0  0  0  0  0  0
   59.1920   33.9010   46.9850 C   0  0  0  0  0  0  0  0  0  0  0  0
   60.4780   34.4350   47.0870 C   0  0  0  0  0  0  0  0  0  0  0  0
   61.2370   34.2120   48.2380 C   0  0  0  0  0  0  0  0  0  0  0  0
   60.7130   33.4520   49.2880 C   0  0  0  0  0  0  0  0  0  0  0  0
   58.3130   32.7880   51.4670 C   0  0  0  0  0  0  0  0  0  0  0  0
   58.4830   31.9170   52.7150 C   0  0  0  0  0  0  0  0  0  0  0  0
   54.8750   30.1520   53.0520 C   0  0  0  0  0  0  0  0  0  0  0  0
   53.5180   30.1830   53.3340 C   0  0  0  0  0  0  0  0  0  0  0  0
   52.7050   31.1710   52.9130 C   0  0  0  0  0  0  0  0  0  0  0  0
   51.9660   31.1880   51.6400 C   0  0  0  0  0  0  0  0  0  0  0  0
   52.1870   30.3440   50.6140 N   0  0  0  0  0  0  0  0  0  0  0  0
   51.3900   30.8280   49.6370 C   0  0  0  0  0  0  0  0  0  0  0  0
   51.3060   30.2890   48.5030 O   0  0  0  0  0  0  0  0  0  0  0  0
   50.7010   31.9410   49.9660 N   0  0  0  0  0  0  0  0  0  0  0  0
   51.0900   32.1620   51.2330 C   0  0  0  0  0  0  0  0  0  0  0  0
   50.6550   33.2370   51.9980 O   0  0  0  0  0  0  0  0  0  0  0  0
   51.2370   29.3320   54.6367 H   0  0  0  0  0  0  0  0  0  0  0  0
   52.1201   27.8298   55.4071 H   0  0  0  0  0  0  0  0  0  0  0  0
   54.4930   27.3980   54.7280 H   0  0  0  0  0  0  0  0  0  0  0  0
   56.9792   27.8601   54.3956 H   0  0  0  0  0  0  0  0  0  0  0  0
   56.9802   28.0126   52.5920 H   0  0  0  0  0  0  0  0  0  0  0  0
   57.8463   28.9664   51.1103 H   0  0  0  0  0  0  0  0  0  0  0  0
   56.7535   30.3723   50.8088 H   0  0  0  0  0  0  0  0  0  0  0  0
   59.7728   30.2236   50.3635 H   0  0  0  0  0  0  0  0  0  0  0  0
   58.4621   30.4241   49.1270 H   0  0  0  0  0  0  0  0  0  0  0  0
   57.6494   32.7217   47.9450 H   0  0  0  0  0  0  0  0  0  0  0  0
   58.5938   34.0793   46.0792 H   0  0  0  0  0  0  0  0  0  0  0  0
   60.8933   35.0312   46.2611 H   0  0  0  0  0  0  0  0  0  0  0  0
   62.2491   34.6352   48.3186 H   0  0  0  0  0  0  0  0  0  0  0  0
   61.3165   33.2801   50.1914 H   0  0  0  0  0  0  0  0  0  0  0  0
   58.8344   33.7442   51.6215 H   0  0  0  0  0  0  0  0  0  0  0  0
   57.2390   32.9581   51.3011 H   0  0  0  0  0  0  0  0  0  0  0  0
   59.5499   31.8779   52.9800 H   0  0  0  0  0  0  0  0  0  0  0  0
   57.8913   32.3630   53.5280 H   0  0  0  0  0  0  0  0  0  0  0  0
   55.4532   30.9209   52.5187 H   0  0  0  0  0  0  0  0  0  0  0  0
   52.5829   32.0393   53.5772 H   0  0  0  0  0  0  0  0  0  0  0  0
  1  2  2  0
  2  3  1  0
  3  4  1  0
  4  5  1  0
  5  6  1  0
  6  7  2  0
  6  8  1  0
  8  9  1  0
  9 10  1  0
 10 11  1  0
 11 12  1  0
 12 13  2  0
 13 14  1  0
 14 15  2  0
 15 16  1  0
 16 17  2  0
 11 18  1  0
 18 19  1  0
  4 20  2  0
 20 21  1  0
 21 22  2  3
 22 23  1  0
 23 24  1  0
 24 25  1  0
 25 26  2  0
 25 27  1  0
 27 28  1  0
 28 29  1  0
 21  2  1  0
 28 23  2  0
 19  8  1  0
 17 12  1  0
  1 30  1  0
  1 31  1  0
  3 32  1  0
  5 33  1  0
  5 34  1  0
  9 35  1  0
  9 36  1  0
 10 37  1  0
 10 38  1  0
 13 39  1  0
 14 40  1  0
 15 41  1  0
 16 42  1  0
 17 43  1  0
 18 44  1  0
 18 45  1  0
 19 46  1  0
 19 47  1  0
 20 48  1  0
 22 49  1  0
M  CHG  3  24  -1  27  -1  29  -1
M  END
>  <UniqueID>  (53) 
48

>  <SMILES>  (53) 
C=c1[nH]c(CC(=O)N2CCN(c3ccccc3)CC2)cc1=Cc1[n-]c(=O)[n-]c1[O-]

>  <Energy>  (53) 
122.3085436587811

>  <Genealogy>  (53) 
C=c1[nH]c(CC(=O)N2CCN(c3ccccc3)CC2)cc1=Cc1[n-]c(=O)[n-]c1[O-] (protonated)
C=c1[nH]c(CC(=O)N2CCN(c3ccccc3)CC2)cc1=Cc1[n-]c(=O)[n-]c1[O-] (3D coordinates assigned)
C=c1[nH]c(CC(=O)N2CCN(c3ccccc3)CC2)cc1=Cc1[n-]c(=O)[n-]c1[O-] (nonaromatic ring conformer: 122.3085436587811 kcal/mol)

>  <smiles>  (53) 
C=c1[nH]c(CC(=O)N2CCN(c3ccccc3)CC2)cc1=Cc1[nH]c(=O)[nH]c1O

>  <score_type>  (53) 
oracle

>  <origin>  (53) 
adg

>  <m_score__min__energy>  (53) 
-17.370000000000001

>  <m_primary>  (53) 
energy

$$$$
53:0
     RDKit          3D

 52 55  0  0  0  0  0  0  0  0999 V2000
   56.2830   29.7030   42.4880 C   0  0  0  0  0  0  0  0  0  0  0  0
   56.4260   29.8280   44.2560 S   0  0  0  0  0  0  0  0  0  0  0  0
   55.1840   29.3400   44.8910 O   0  0  0  0  0  0  0  0  0  0  0  0
   56.4860   31.3260   44.5280 O   0  0  0  0  0  0  0  0  0  0  0  0
   57.8390   29.0550   44.7520 N   0  0  0  0  0  0  0  0  0  0  0  0
   58.2250   27.8640   44.1640 C   0  0  0  0  0  0  0  0  0  0  0  0
   57.4850   26.7190   44.7500 C   0  0  0  0  0  0  0  0  0  0  0  0
   57.6050   25.4230   44.3050 C   0  0  0  0  0  0  0  0  0  0  0  0
   56.8630   24.4360   44.9270 C   0  0  0  0  0  0  0  0  0  0  0  0
   56.0270   24.7630   45.9660 C   0  0  0  0  0  0  0  0  0  0  0  0
   55.9230   26.0380   46.3900 N   0  0  0  0  0  0  0  0  0  0  0  0
   56.6290   27.0150   45.8090 C   0  0  0  0  0  0  0  0  0  0  0  0
   58.8610   29.9060   45.2820 C   0  0  0  0  0  0  0  0  0  0  0  0
   59.1310   29.6290   46.7090 C   0  0  0  0  0  0  0  0  0  0  0  0
   59.3710   28.3090   47.0530 C   0  0  0  0  0  0  0  0  0  0  0  0
   59.6400   27.9040   48.3430 C   0  0  0  0  0  0  0  0  0  0  0  0
   59.6610   28.8900   49.3050 C   0  0  0  0  0  0  0  0  0  0  0  0
   59.4220   30.2120   48.9610 C   0  0  0  0  0  0  0  0  0  0  0  0
   59.1520   30.6350   47.6840 C   0  0  0  0  0  0  0  0  0  0  0  0
   58.8970   31.9950   47.2790 C   0  0  0  0  0  0  0  0  0  0  0  0
   57.7420   32.4200   46.7630 N   0  0  0  0  0  0  0  0  0  0  0  0
   57.8260   33.7010   46.4990 N   0  0  0  0  0  0  0  0  0  0  0  0
   59.0360   34.1640   46.8290 C   0  0  0  0  0  0  0  0  0  0  0  0
   59.4630   35.3390   46.7120 O   0  0  0  0  0  0  0  0  0  0  0  0
   59.6990   33.0700   47.3200 N   0  0  0  0  0  0  0  0  0  0  0  0
   61.0400   33.1990   47.7730 C   0  0  0  0  0  0  0  0  0  0  0  0
   61.3680   33.9740   48.8940 C   0  0  0  0  0  0  0  0  0  0  0  0
   62.6860   34.0500   49.3090 C   0  0  0  0  0  0  0  0  0  0  0  0
   63.6730   33.3550   48.6120 C   0  0  0  0  0  0  0  0  0  0  0  0
   64.9480   33.4600   49.0580 F   0  0  0  0  0  0  0  0  0  0  0  0
   63.3540   32.5880   47.5030 C   0  0  0  0  0  0  0  0  0  0  0  0
   62.0470   32.5060   47.0820 C   0  0  0  0  0  0  0  0  0  0  0  0
   55.4772   28.9986   42.2342 H   0  0  0  0  0  0  0  0  0  0  0  0
   56.0506   30.6928   42.0680 H   0  0  0  0  0  0  0  0  0  0  0  0
   57.2328   29.3403   42.0680 H   0  0  0  0  0  0  0  0  0  0  0  0
   58.0183   27.9118   43.0847 H   0  0  0  0  0  0  0  0  0  0  0  0
   59.3001   27.7161   44.3435 H   0  0  0  0  0  0  0  0  0  0  0  0
   58.2781   25.1767   43.4706 H   0  0  0  0  0  0  0  0  0  0  0  0
   56.9422   23.3917   44.5904 H   0  0  0  0  0  0  0  0  0  0  0  0
   55.4360   23.9761   46.4574 H   0  0  0  0  0  0  0  0  0  0  0  0
   56.5338   28.0508   46.1670 H   0  0  0  0  0  0  0  0  0  0  0  0
   59.7865   29.7482   44.7088 H   0  0  0  0  0  0  0  0  0  0  0  0
   58.5124   30.9460   45.1990 H   0  0  0  0  0  0  0  0  0  0  0  0
   59.3458   27.5478   46.2593 H   0  0  0  0  0  0  0  0  0  0  0  0
   59.8280   26.8490   48.5912 H   0  0  0  0  0  0  0  0  0  0  0  0
   59.8687   28.6269   50.3527 H   0  0  0  0  0  0  0  0  0  0  0  0
   59.4506   30.9672   49.7603 H   0  0  0  0  0  0  0  0  0  0  0  0
   57.0850   34.3270   46.0880 H   0  0  0  0  0  0  0  0  0  0  0  0
   60.5832   34.5180   49.4400 H   0  0  0  0  0  0  0  0  0  0  0  0
   62.9540   34.6571   50.1863 H   0  0  0  0  0  0  0  0  0  0  0  0
   64.1433   32.0465   46.9610 H   0  0  0  0  0  0  0  0  0  0  0  0
   61.7903   31.8967   46.2028 H   0  0  0  0  0  0  0  0  0  0  0  0
  1  2  1  0
  2  3  2  0
  2  4  2  0
  2  5  1  0
  5  6  1  0
  6  7  1  0
  7  8  2  0
  8  9  1  0
  9 10  2  0
 10 11  1  0
 11 12  2  0
  5 13  1  0
 13 14  1  0
 14 15  2  0
 15 16  1  0
 16 17  2  0
 17 18  1  0
 18 19  2  0
 19 20  1  0
 20 21  2  0
 21 22  1  0
 22 23  1  0
 23 24  2  0
 23 25  1  0
 25 26  1  0
 26 27  2  0
 27 28  1  0
 28 29  2  0
 29 30  1  0
 29 31  1  0
 31 32  2  0
 12  7  1  0
 19 14  1  0
 25 20  1  0
 32 26  1  0
  1 33  1  0
  1 34  1  0
  1 35  1  0
  6 36  1  0
  6 37  1  0
  8 38  1  0
  9 39  1  0
 10 40  1  0
 12 41  1  0
 13 42  1  0
 13 43  1  0
 15 44  1  0
 16 45  1  0
 17 46  1  0
 18 47  1  0
 22 48  1  0
 27 49  1  0
 28 50  1  0
 31 51  1  0
 32 52  1  0
M  END
>  <smiles>  (54) 
CS(=O)(=O)N(Cc1cccnc1)Cc1ccccc1-c1n[nH]c(=O)n1-c1ccc(F)cc1

>  <score_type>  (54) 
oracle

>  <origin>  (54) 
adg

>  <m_score__min__energy>  (54) 
-10.470000000000001

>  <m_primary>  (54) 
energy

$$$$
54:0
     RDKit          3D

 40 42  0  0  0  0  0  0  0  0999 V2000
   60.3863   31.9213   50.1902 H   0  0  0  0  0  0  0  0  0  0  0  0
   59.4530   31.7040   49.6500 C   0  0  0  0  0  0  0  0  0  0  0  0
   58.4450   30.8390   50.2930 C   0  0  0  0  0  0  0  0  0  0  0  0
   58.5960   29.5860   50.3010 O   0  0  0  0  0  0  0  0  0  0  0  0
   57.2750   31.4340   50.8750 N   0  0  0  0  0  0  0  0  0  0  0  0
   57.0410   32.4160   50.6060 H   0  0  0  0  0  0  0  0  0  0  0  0
   56.3430   30.7250   51.7100 C   0  0  0  0  0  0  0  0  0  0  0  0
   56.7060   29.5390   52.3740 C   0  0  0  0  0  0  0  0  0  0  0  0
   57.7192   29.1295   52.2484 H   0  0  0  0  0  0  0  0  0  0  0  0
   55.7860   28.8790   53.1920 C   0  0  0  0  0  0  0  0  0  0  0  0
   56.0730   27.9452   53.6976 H   0  0  0  0  0  0  0  0  0  0  0  0
   54.5030   29.4010   53.3700 C   0  0  0  0  0  0  0  0  0  0  0  0
   53.7777   28.8689   54.0031 H   0  0  0  0  0  0  0  0  0  0  0  0
   54.1360   30.6020   52.7440 C   0  0  0  0  0  0  0  0  0  0  0  0
   52.7450   31.1490   52.9130 C   0  0  0  0  0  0  0  0  0  0  0  0
   52.1748   30.4911   53.5853 H   0  0  0  0  0  0  0  0  0  0  0  0
   52.8061   32.1605   53.3411 H   0  0  0  0  0  0  0  0  0  0  0  0
   52.0540   31.2200   51.5870 C   0  0  0  0  0  0  0  0  0  0  0  0
   52.1410   30.2690   50.6400 N   0  0  0  0  0  0  0  0  0  0  0  0
   51.4280   30.7860   49.6160 C   0  0  0  0  0  0  0  0  0  0  0  0
   51.2680   30.1760   48.5260 O   0  0  0  0  0  0  0  0  0  0  0  0
   50.9050   32.0090   49.8480 N   0  0  0  0  0  0  0  0  0  0  0  0
   51.3170   32.2720   51.0980 C   0  0  0  0  0  0  0  0  0  0  0  0
   51.0290   33.4490   51.7760 O   0  0  0  0  0  0  0  0  0  0  0  0
   55.0600   31.2570   51.9130 C   0  0  0  0  0  0  0  0  0  0  0  0
   54.7752   32.1963   51.4164 H   0  0  0  0  0  0  0  0  0  0  0  0
   59.2740   32.2340   48.4340 C   0  0  0  0  0  0  0  0  0  0  0  0
   59.6157   33.2625   48.2458 H   0  0  0  0  0  0  0  0  0  0  0  0
   58.6300   31.4790   47.3330 C   0  0  0  0  0  0  0  0  0  0  0  0
   57.7750   32.0850   46.3810 C   0  0  0  0  0  0  0  0  0  0  0  0
   57.4670   33.5550   46.3910 C   0  0  0  0  0  0  0  0  0  0  0  0
   57.3932   33.9071   47.4305 H   0  0  0  0  0  0  0  0  0  0  0  0
   58.2702   34.1014   45.8749 H   0  0  0  0  0  0  0  0  0  0  0  0
   56.5120   33.7331   45.8749 H   0  0  0  0  0  0  0  0  0  0  0  0
   57.2130   31.3190   45.4090 N   0  0  0  0  0  0  0  0  0  0  0  0
   57.4740   29.9920   45.3080 C   0  0  0  0  0  0  0  0  0  0  0  0
   56.9370   29.3140   44.3960 O   0  0  0  0  0  0  0  0  0  0  0  0
   58.3190   29.3990   46.1860 N   0  0  0  0  0  0  0  0  0  0  0  0
   58.9050   30.1070   47.1860 C   0  0  0  0  0  0  0  0  0  0  0  0
   59.6830   29.5180   47.9830 O   0  0  0  0  0  0  0  0  0  0  0  0
  1  2  1  0
  2  3  1  0
  3  4  2  0
  3  5  1  0
  5  6  1  0
  5  7  1  0
  7  8  2  0
  8  9  1  0
  8 10  1  0
 10 11  1  0
 10 12  2  0
 12 13  1  0
 12 14  1  0
 14 15  1  0
 15 16  1  0
 15 17  1  0
 15 18  1  0
 18 19  1  0
 19 20  1  0
 20 21  2  0
 20 22  1  0
 22 23  1  0
 23 24  1  0
 14 25  2  0
 25 26  1  0
  2 27  2  0
 27 28  1  0
 27 29  1  0
 29 30  2  0
 30 31  1  0
 31 32  1  0
 31 33  1  0
 31 34  1  0
 30 35  1  0
 35 36  1  0
 36 37  2  0
 36 38  1  0
 38 39  1  0
 39 40  2  0
 25  7  1  0
 39 29  1  0
 23 18  2  0
M  CHG  5  19  -1  22  -1  24  -1  35  -1  38  -1
M  END
>  <UniqueID>  (55) 
49

>  <SMILES>  (55) 
Cc1[n-]c(=O)[n-]c(=O)c1/C=C/C(=O)Nc1cccc(Cc2[n-]c(=O)[n-]c2[O-])c1

>  <Energy>  (55) 
80.10721823139558

>  <Genealogy>  (55) 
Cc1[n-]c(=O)[n-]c(=O)c1C=CC(=O)Nc1cccc(Cc2[n-]c(=O)[n-]c2[O-])c1 (protonated)
Cc1[n-]c(=O)[n-]c(=O)c1/C=C/C(=O)Nc1cccc(Cc2[n-]c(=O)[n-]c2[O-])c1 (cis-trans isomerization)
Cc1[n-]c(=O)[n-]c(=O)c1/C=C/C(=O)Nc1cccc(Cc2[n-]c(=O)[n-]c2[O-])c1 (3D coordinates assigned)
Cc1[n-]c(=O)[n-]c(=O)c1/C=C/C(=O)Nc1cccc(Cc2[n-]c(=O)[n-]c2[O-])c1 (optimized conformer: 80.10721823139558 kcal/mol)

>  <smiles>  (55) 
Cc1[nH]c(=O)[nH]c(=O)c1C=CC(=O)Nc1cccc(Cc2[nH]c(=O)[nH]c2O)c1

>  <score_type>  (55) 
oracle

>  <origin>  (55) 
adg

>  <m_score__min__energy>  (55) 
-20.199999999999999

>  <m_primary>  (55) 
energy

$$$$
55:0
     RDKit          3D

 47 49  0  0  0  0  0  0  0  0999 V2000
   54.8390   29.6750   43.4950 O   0  0  0  0  0  0  0  0  0  0  0  0
   55.9680   29.6150   44.0520 C   0  0  0  0  0  0  0  0  0  0  0  0
   57.1030   30.4640   43.5350 C   0  0  0  0  0  0  0  0  0  0  0  0
   57.6260   31.4020   44.5910 C   0  0  0  0  0  0  0  0  0  0  0  0
   58.7750   31.0720   45.3300 C   0  0  0  0  0  0  0  0  0  0  0  0
   59.2380   31.9340   46.3300 C   0  0  0  0  0  0  0  0  0  0  0  0
   58.5560   33.1210   46.6040 C   0  0  0  0  0  0  0  0  0  0  0  0
   57.4050   33.4490   45.8810 C   0  0  0  0  0  0  0  0  0  0  0  0
   56.9370   32.5920   44.8810 C   0  0  0  0  0  0  0  0  0  0  0  0
   56.1110   28.7920   45.2170 N   0  0  0  0  0  0  0  0  0  0  0  0
   57.0150   27.6480   45.3470 C   0  0  2  0  0  0  0  0  0  0  0  0
   56.3210   26.5330   46.0680 C   0  0  0  0  0  0  0  0  0  0  0  0
   55.0880   26.3440   45.8850 O   0  0  0  0  0  0  0  0  0  0  0  0
   57.0790   25.6260   46.8760 N   0  0  0  0  0  0  0  0  0  0  0  0
   58.1190   24.7600   46.3370 C   0  0  0  0  0  0  0  0  0  0  0  0
   57.5370   23.8840   45.2590 C   0  0  0  0  0  0  0  0  0  0  0  0
   57.2430   24.4390   44.0010 C   0  0  0  0  0  0  0  0  0  0  0  0
   56.6390   23.6630   43.0100 C   0  0  0  0  0  0  0  0  0  0  0  0
   56.3250   22.3260   43.2610 C   0  0  0  0  0  0  0  0  0  0  0  0
   56.6110   21.7640   44.5090 C   0  0  0  0  0  0  0  0  0  0  0  0
   57.2110   22.5370   45.5080 C   0  0  0  0  0  0  0  0  0  0  0  0
   57.4650   21.9730   46.7170 F   0  0  0  0  0  0  0  0  0  0  0  0
   58.2620   28.0250   46.1180 C   0  0  0  0  0  0  0  0  0  0  0  0
   59.5280   27.9930   45.5030 C   0  0  0  0  0  0  0  0  0  0  0  0
   60.6660   28.3960   46.2060 C   0  0  0  0  0  0  0  0  0  0  0  0
   60.5540   28.8370   47.5260 C   0  0  0  0  0  0  0  0  0  0  0  0
   59.3010   28.8790   48.1450 C   0  0  0  0  0  0  0  0  0  0  0  0
   59.1930   29.3140   49.4250 F   0  0  0  0  0  0  0  0  0  0  0  0
   58.1590   28.4800   47.4440 C   0  0  0  0  0  0  0  0  0  0  0  0
   57.9205   29.8047   43.2080 H   0  0  0  0  0  0  0  0  0  0  0  0
   56.7239   31.0687   42.6980 H   0  0  0  0  0  0  0  0  0  0  0  0
   59.3112   30.1344   45.1218 H   0  0  0  0  0  0  0  0  0  0  0  0
   60.1416   31.6759   46.9018 H   0  0  0  0  0  0  0  0  0  0  0  0
   58.9242   33.7982   47.3887 H   0  0  0  0  0  0  0  0  0  0  0  0
   56.8669   34.3832   46.0996 H   0  0  0  0  0  0  0  0  0  0  0  0
   56.0269   32.8497   44.3195 H   0  0  0  0  0  0  0  0  0  0  0  0
   57.3034   27.3267   44.3353 H   0  0  0  0  0  0  0  0  0  0  0  0
   58.9253   25.3763   45.9126 H   0  0  0  0  0  0  0  0  0  0  0  0
   58.5234   24.1292   47.1423 H   0  0  0  0  0  0  0  0  0  0  0  0
   57.4904   25.4911   43.7964 H   0  0  0  0  0  0  0  0  0  0  0  0
   56.4100   24.1059   42.0295 H   0  0  0  0  0  0  0  0  0  0  0  0
   55.8529   21.7151   42.4775 H   0  0  0  0  0  0  0  0  0  0  0  0
   56.3632   20.7105   44.7056 H   0  0  0  0  0  0  0  0  0  0  0  0
   59.6217   27.6486   44.4625 H   0  0  0  0  0  0  0  0  0  0  0  0
   61.6518   28.3658   45.7188 H   0  0  0  0  0  0  0  0  0  0  0  0
   61.4515   29.1514   48.0789 H   0  0  0  0  0  0  0  0  0  0  0  0
   57.1745   28.5224   47.9328 H   0  0  0  0  0  0  0  0  0  0  0  0
  1  2  2  0
  2  3  1  0
  3  4  1  0
  4  5  2  0
  5  6  1  0
  6  7  2  0
  7  8  1  0
  8  9  2  0
  2 10  1  0
 10 11  1  0
 11 12  1  0
 12 13  2  0
 12 14  1  0
 14 15  1  0
 15 16  1  0
 16 17  2  0
 17 18  1  0
 18 19  2  0
 19 20  1  0
 20 21  2  0
 21 22  1  0
 11 23  1  0
 23 24  2  0
 24 25  1  0
 25 26  2  0
 26 27  1  0
 27 28  1  0
 27 29  2  0
  9  4  1  0
 21 16  1  0
 29 23  1  0
  3 30  1  0
  3 31  1  0
  5 32  1  0
  6 33  1  0
  7 34  1  0
  8 35  1  0
  9 36  1  0
 11 37  1  6
 15 38  1  0
 15 39  1  0
 17 40  1  0
 18 41  1  0
 19 42  1  0
 20 43  1  0
 24 44  1  0
 25 45  1  0
 26 46  1  0
 29 47  1  0
M  CHG  2  10  -1  14  -1
M  END
>  <UniqueID>  (56) 
50

>  <SMILES>  (56) 
O=C(Cc1ccccc1)[N-][C@H](C(=O)[N-]Cc1ccccc1F)c1cccc(F)c1

>  <Energy>  (56) 
43.7439593745458

>  <Genealogy>  (56) 
O=C(Cc1ccccc1)[N-]C(C(=O)[N-]Cc1ccccc1F)c1cccc(F)c1 (protonated)
O=C(Cc1ccccc1)[N-][C@H](C(=O)[N-]Cc1ccccc1F)c1cccc(F)c1 (chirality)
O=C(Cc1ccccc1)[N-][C@H](C(=O)[N-]Cc1ccccc1F)c1cccc(F)c1 (3D coordinates assigned)
O=C(Cc1ccccc1)[N-][C@H](C(=O)[N-]Cc1ccccc1F)c1cccc(F)c1 (optimized conformer: 43.7439593745458 kcal/mol)

>  <smiles>  (56) 
O=C(Cc1ccccc1)NC(C(=O)NCc1ccccc1F)c1cccc(F)c1

>  <score_type>  (56) 
oracle

>  <origin>  (56) 
adg

>  <m_score__min__energy>  (56) 
-13.210000000000001

>  <m_primary>  (56) 
energy

$$$$
56:0
     RDKit          3D

 68 71  0  0  0  0  0  0  0  0999 V2000
   63.5880   30.6350   50.9270 C   0  0  0  0  0  0  0  0  0  0  0  0
   63.1460   29.3610   51.6570 C   0  0  0  0  0  0  0  0  0  0  0  0
   61.6760   29.1840   51.7850 N   0  0  0  0  0  0  0  0  0  0  0  0
   60.8930   29.8140   50.6830 C   0  0  0  0  0  0  0  0  0  0  0  0
   60.2390   28.8040   49.7280 C   0  0  0  0  0  0  0  0  0  0  0  0
   61.0830   27.6090   49.6270 N   0  0  0  0  0  0  0  0  0  0  0  0
   60.7770   26.7620   48.4530 C   0  0  0  0  0  0  0  0  0  0  0  0
   59.8920   27.4330   47.4210 C   0  0  0  0  0  0  0  0  0  0  0  0
   58.4960   27.3040   47.4900 C   0  0  0  0  0  0  0  0  0  0  0  0
   57.6800   27.9170   46.5350 C   0  0  0  0  0  0  0  0  0  0  0  0
   58.2510   28.6670   45.4930 C   0  0  0  0  0  0  0  0  0  0  0  0
   57.4490   29.3290   44.5030 N   0  0  0  0  0  0  0  0  0  0  0  0
   56.8150   30.6080   44.6340 C   0  0  0  0  0  0  0  0  0  0  0  0
   55.5870   30.7290   44.3700 O   0  0  0  0  0  0  0  0  0  0  0  0
   57.6080   31.8090   45.0050 C   0  0  0  0  0  0  0  0  0  0  0  0
   58.1050   31.9210   46.3190 C   0  0  0  0  0  0  0  0  0  0  0  0
   58.8450   33.0380   46.7160 C   0  0  0  0  0  0  0  0  0  0  0  0
   59.4550   33.1340   48.3660 S   0  0  0  0  0  0  0  0  0  0  0  0
   58.4340   32.5240   49.2860 O   0  0  0  0  0  0  0  0  0  0  0  0
   59.6680   34.5690   48.7600 O   0  0  0  0  0  0  0  0  0  0  0  0
   60.9620   32.2490   48.4820 N   0  0  0  0  0  0  0  0  0  0  0  0
   61.5390   32.0390   47.1500 C   0  0  0  0  0  0  0  0  0  0  0  0
   62.5090   33.1780   46.8700 C   0  0  0  0  0  0  0  0  0  0  0  0
   62.7880   33.8150   48.2170 C   0  0  0  0  0  0  0  0  0  0  0  0
   61.9590   33.0280   49.2220 C   0  0  0  0  0  0  0  0  0  0  0  0
   59.1020   34.0600   45.7970 C   0  0  0  0  0  0  0  0  0  0  0  0
   58.6270   33.9640   44.4900 C   0  0  0  0  0  0  0  0  0  0  0  0
   57.8830   32.8400   44.0750 C   0  0  0  0  0  0  0  0  0  0  0  0
   57.4240   32.7200   42.7520 O   0  0  0  0  0  0  0  0  0  0  0  0
   58.2260   32.3160   41.6470 C   0  0  0  0  0  0  0  0  0  0  0  0
   59.6410   28.8300   45.4490 C   0  0  0  0  0  0  0  0  0  0  0  0
   60.4570   28.2150   46.4010 C   0  0  0  0  0  0  0  0  0  0  0  0
   61.0920   26.8630   50.8980 C   0  0  0  0  0  0  0  0  0  0  0  0
   61.2650   27.7950   52.1200 C   0  0  0  0  0  0  0  0  0  0  0  0
   63.8555   31.4061   51.6645 H   0  0  0  0  0  0  0  0  0  0  0  0
   64.4613   30.4120   50.2964 H   0  0  0  0  0  0  0  0  0  0  0  0
   62.7642   31.0008   50.2964 H   0  0  0  0  0  0  0  0  0  0  0  0
   63.5464   28.4969   51.1066 H   0  0  0  0  0  0  0  0  0  0  0  0
   63.5342   29.4461   52.6827 H   0  0  0  0  0  0  0  0  0  0  0  0
   61.4380   29.7400   52.6430 H   0  0  0  0  0  0  0  0  0  0  0  0
   60.1000   30.4312   51.1305 H   0  0  0  0  0  0  0  0  0  0  0  0
   61.6020   30.4057   50.0853 H   0  0  0  0  0  0  0  0  0  0  0  0
   59.2487   28.5218   50.1149 H   0  0  0  0  0  0  0  0  0  0  0  0
   60.1279   29.2594   48.7329 H   0  0  0  0  0  0  0  0  0  0  0  0
   61.7255   26.4869   47.9686 H   0  0  0  0  0  0  0  0  0  0  0  0
   60.2228   25.8886   48.8271 H   0  0  0  0  0  0  0  0  0  0  0  0
   58.0411   26.7165   48.3011 H   0  0  0  0  0  0  0  0  0  0  0  0
   56.5869   27.8119   46.5994 H   0  0  0  0  0  0  0  0  0  0  0  0
   57.9074   31.1169   47.0432 H   0  0  0  0  0  0  0  0  0  0  0  0
   62.0741   31.0783   47.1227 H   0  0  0  0  0  0  0  0  0  0  0  0
   60.7446   32.0192   46.3894 H   0  0  0  0  0  0  0  0  0  0  0  0
   63.4390   32.7907   46.4282 H   0  0  0  0  0  0  0  0  0  0  0  0
   62.0913   33.9025   46.1554 H   0  0  0  0  0  0  0  0  0  0  0  0
   63.8580   33.7427   48.4616 H   0  0  0  0  0  0  0  0  0  0  0  0
   62.5279   34.8838   48.2233 H   0  0  0  0  0  0  0  0  0  0  0  0
   62.6109   32.3513   49.7940 H   0  0  0  0  0  0  0  0  0  0  0  0
   61.4616   33.7132   49.9242 H   0  0  0  0  0  0  0  0  0  0  0  0
   59.6809   34.9427   46.1064 H   0  0  0  0  0  0  0  0  0  0  0  0
   58.8346   34.7735   43.7747 H   0  0  0  0  0  0  0  0  0  0  0  0
   59.1513   31.8499   42.0165 H   0  0  0  0  0  0  0  0  0  0  0  0
   57.6691   31.5909   41.0354 H   0  0  0  0  0  0  0  0  0  0  0  0
   58.4772   33.1951   41.0354 H   0  0  0  0  0  0  0  0  0  0  0  0
   60.0936   29.4470   44.6588 H   0  0  0  0  0  0  0  0  0  0  0  0
   61.5483   28.3440   46.3514 H   0  0  0  0  0  0  0  0  0  0  0  0
   60.1400   26.3210   50.9976 H   0  0  0  0  0  0  0  0  0  0  0  0
   61.9462   26.1703   50.8774 H   0  0  0  0  0  0  0  0  0  0  0  0
   60.3052   27.8408   52.6554 H   0  0  0  0  0  0  0  0  0  0  0  0
   62.0769   27.3670   52.7264 H   0  0  0  0  0  0  0  0  0  0  0  0
  1  2  1  0
  2  3  1  0
  3  4  1  0
  4  5  1  0
  5  6  1  0
  6  7  1  0
  7  8  1  0
  8  9  2  0
  9 10  1  0
 10 11  2  0
 11 12  1  0
 12 13  1  0
 13 14  2  0
 13 15  1  0
 15 16  2  0
 16 17  1  0
 17 18  1  0
 18 19  2  0
 18 20  2  0
 18 21  1  0
 21 22  1  0
 22 23  1  0
 23 24  1  0
 24 25  1  0
 17 26  2  0
 26 27  1  0
 27 28  2  0
 28 29  1  0
 29 30  1  0
 11 31  1  0
 31 32  2  0
  6 33  1  0
 33 34  1  0
 34  3  1  0
 32  8  1  0
 28 15  1  0
 25 21  1  0
  1 35  1  0
  1 36  1  0
  1 37  1  0
  2 38  1  0
  2 39  1  0
  3 40  1  0
  4 41  1  0
  4 42  1  0
  5 43  1  0
  5 44  1  0
  7 45  1  0
  7 46  1  0
  9 47  1  0
 10 48  1  0
 16 49  1  0
 22 50  1  0
 22 51  1  0
 23 52  1  0
 23 53  1  0
 24 54  1  0
 24 55  1  0
 25 56  1  0
 25 57  1  0
 26 58  1  0
 27 59  1  0
 30 60  1  0
 30 61  1  0
 30 62  1  0
 31 63  1  0
 32 64  1  0
 33 65  1  0
 33 66  1  0
 34 67  1  0
 34 68  1  0
M  CHG  2   3   1  12  -1
M  END
>  <UniqueID>  (57) 
51

>  <SMILES>  (57) 
CC[NH+]1CCN(Cc2ccc([N-]C(=O)c3cc(S(=O)(=O)N4CCCC4)ccc3OC)cc2)CC1

>  <Energy>  (57) 
94.04722019075636

>  <Genealogy>  (57) 
CC[NH+]1CCN(Cc2ccc([N-]C(=O)c3cc(S(=O)(=O)N4CCCC4)ccc3OC)cc2)CC1 (protonated)
CC[NH+]1CCN(Cc2ccc([N-]C(=O)c3cc(S(=O)(=O)N4CCCC4)ccc3OC)cc2)CC1 (3D coordinates assigned)
CC[NH+]1CCN(Cc2ccc([N-]C(=O)c3cc(S(=O)(=O)N4CCCC4)ccc3OC)cc2)CC1 (nonaromatic ring conformer: 94.04722019075636 kcal/mol)

>  <smiles>  (57) 
CCN1CCN(Cc2ccc(NC(=O)c3cc(S(=O)(=O)N4CCCC4)ccc3OC)cc2)CC1

>  <score_type>  (57) 
oracle

>  <origin>  (57) 
adg

>  <m_score__min__energy>  (57) 
-9.3200000000000003

>  <m_primary>  (57) 
energy

$$$$
57:0
     RDKit          3D

 87 92  0  0  0  0  0  0  0  0999 V2000
   59.6030   33.7740   51.9980 O   0  0  0  0  0  0  0  0  0  0  0  0
   59.0300   32.9850   51.2000 C   0  0  0  0  0  0  0  0  0  0  0  0
   59.0180   33.2750   49.7910 N   0  0  0  0  0  0  0  0  0  0  0  0
   59.6390   34.4780   49.2290 C   0  0  0  0  0  0  0  0  0  0  0  0
   60.9930   34.1940   48.6030 C   0  0  0  0  0  0  0  0  0  0  0  0
   62.0660   33.7680   49.4100 C   0  0  0  0  0  0  0  0  0  0  0  0
   63.3050   33.4200   48.8460 C   0  0  0  0  0  0  0  0  0  0  0  0
   64.4200   32.9900   49.7220 C   0  0  0  0  0  0  0  0  0  0  0  0
   65.2920   33.8370   50.0590 O   0  0  0  0  0  0  0  0  0  0  0  0
   64.5170   31.6380   50.2130 N   0  0  0  0  0  0  0  0  0  0  0  0
   63.3100   30.8950   50.6070 C   0  0  0  0  0  0  0  0  0  0  0  0
   63.5410   30.1230   51.9210 C   0  0  0  0  0  0  0  0  0  0  0  0
   64.4930   30.9040   52.8630 C   0  0  0  0  0  0  0  0  0  0  0  0
   63.9390   32.2480   53.1980 N   0  0  0  0  0  0  0  0  0  0  0  0
   64.4470   32.7810   54.4760 C   0  0  0  0  0  0  0  0  0  0  0  0
   63.3100   33.5220   55.1750 C   0  0  0  0  0  0  0  0  0  0  0  0
   62.1200   33.3910   54.2530 C   0  0  0  0  0  0  0  0  0  0  0  0
   62.4770   32.2380   53.3420 C   0  0  0  0  0  0  0  0  0  0  0  0
   65.8910   31.0140   52.1740 C   0  0  0  0  0  0  0  0  0  0  0  0
   65.8160   31.1010   50.6350 C   0  0  0  0  0  0  0  0  0  0  0  0
   63.4730   33.5040   47.4590 C   0  0  0  0  0  0  0  0  0  0  0  0
   62.4060   33.8780   46.6420 C   0  0  0  0  0  0  0  0  0  0  0  0
   61.1650   34.2140   47.1970 C   0  0  0  0  0  0  0  0  0  0  0  0
   60.0550   34.5270   46.2770 C   0  0  0  0  0  0  0  0  0  0  0  0
   59.8850   35.7250   45.9240 O   0  0  0  0  0  0  0  0  0  0  0  0
   59.1570   33.5010   45.8070 N   0  0  0  0  0  0  0  0  0  0  0  0
   58.2640   33.7650   44.6750 C   0  0  0  0  0  0  0  0  0  0  0  0
   58.1030   32.4930   43.8350 C   0  0  0  0  0  0  0  0  0  0  0  0
   57.7000   31.3050   44.6370 N   0  0  0  0  0  0  0  0  0  0  0  0
   58.2040   29.9800   44.1860 C   0  0  0  0  0  0  0  0  0  0  0  0
   58.6350   29.0350   45.3090 C   0  0  0  0  0  0  0  0  0  0  0  0
   57.5710   28.0360   44.8640 C   0  0  0  0  0  0  0  0  0  0  0  0
   57.1360   28.9780   43.7460 C   0  0  0  0  0  0  0  0  0  0  0  0
   57.7670   31.4690   46.1090 C   0  0  0  0  0  0  0  0  0  0  0  0
   59.0060   32.2520   46.5630 C   0  0  0  0  0  0  0  0  0  0  0  0
   58.3690   31.7760   51.7340 C   0  0  0  0  0  0  0  0  0  0  0  0
   59.1350   30.6370   52.0390 C   0  0  0  0  0  0  0  0  0  0  0  0
   58.5180   29.4800   52.5190 C   0  0  0  0  0  0  0  0  0  0  0  0
   57.1340   29.4440   52.6980 C   0  0  0  0  0  0  0  0  0  0  0  0
   56.3500   30.5750   52.4120 C   0  0  0  0  0  0  0  0  0  0  0  0
   54.8480   30.5050   52.5330 C   0  0  0  0  0  0  0  0  0  0  0  0
   54.5020   30.4760   53.8710 F   0  0  0  0  0  0  0  0  0  0  0  0
   54.3570   29.3680   51.9130 F   0  0  0  0  0  0  0  0  0  0  0  0
   54.2610   31.6080   51.9390 F   0  0  0  0  0  0  0  0  0  0  0  0
   56.9740   31.7320   51.9090 C   0  0  0  0  0  0  0  0  0  0  0  0
   58.4760   32.6610   49.1440 H   0  0  0  0  0  0  0  0  0  0  0  0
   58.9730   34.8913   48.4572 H   0  0  0  0  0  0  0  0  0  0  0  0
   59.7939   35.1905   50.0526 H   0  0  0  0  0  0  0  0  0  0  0  0
   61.9317   33.7067   50.5001 H   0  0  0  0  0  0  0  0  0  0  0  0
   62.4809   31.6041   50.7474 H   0  0  0  0  0  0  0  0  0  0  0  0
   63.0688   30.1722   49.8136 H   0  0  0  0  0  0  0  0  0  0  0  0
   62.5752   29.9760   52.4266 H   0  0  0  0  0  0  0  0  0  0  0  0
   64.0018   29.1532   51.6819 H   0  0  0  0  0  0  0  0  0  0  0  0
   64.5978   30.3636   53.8154 H   0  0  0  0  0  0  0  0  0  0  0  0
   64.7968   31.9535   55.1108 H   0  0  0  0  0  0  0  0  0  0  0  0
   65.2879   33.4659   54.2923 H   0  0  0  0  0  0  0  0  0  0  0  0
   63.0935   33.0625   56.1507 H   0  0  0  0  0  0  0  0  0  0  0  0
   63.5648   34.5746   55.3675 H   0  0  0  0  0  0  0  0  0  0  0  0
   61.2071   33.1675   54.8246 H   0  0  0  0  0  0  0  0  0  0  0  0
   61.9157   34.3178   53.6969 H   0  0  0  0  0  0  0  0  0  0  0  0
   62.1467   31.2877   53.7867 H   0  0  0  0  0  0  0  0  0  0  0  0
   61.9833   32.3399   52.3643 H   0  0  0  0  0  0  0  0  0  0  0  0
   66.3936   31.9176   52.5493 H   0  0  0  0  0  0  0  0  0  0  0  0
   66.4444   30.0954   52.4186 H   0  0  0  0  0  0  0  0  0  0  0  0
   66.6164   31.7616   50.2704 H   0  0  0  0  0  0  0  0  0  0  0  0
   65.9368   30.0914   50.2154 H   0  0  0  0  0  0  0  0  0  0  0  0
   64.4510   33.2740   47.0111 H   0  0  0  0  0  0  0  0  0  0  0  0
   62.5408   33.9093   45.5507 H   0  0  0  0  0  0  0  0  0  0  0  0
   57.2801   34.0811   45.0517 H   0  0  0  0  0  0  0  0  0  0  0  0
   58.6943   34.5616   44.0502 H   0  0  0  0  0  0  0  0  0  0  0  0
   57.3340   32.6749   43.0697 H   0  0  0  0  0  0  0  0  0  0  0  0
   59.0843   32.2691   43.3913 H   0  0  0  0  0  0  0  0  0  0  0  0
   58.9389   30.3519   43.4569 H   0  0  0  0  0  0  0  0  0  0  0  0
   59.6669   28.6655   45.2156 H   0  0  0  0  0  0  0  0  0  0  0  0
   58.6735   29.3848   46.3512 H   0  0  0  0  0  0  0  0  0  0  0  0
   57.9780   27.0779   44.5085 H   0  0  0  0  0  0  0  0  0  0  0  0
   56.8325   27.6571   45.5859 H   0  0  0  0  0  0  0  0  0  0  0  0
   57.2865   28.5750   42.7336 H   0  0  0  0  0  0  0  0  0  0  0  0
   56.0844   29.2865   43.6518 H   0  0  0  0  0  0  0  0  0  0  0  0
   56.8683   32.0076   46.4441 H   0  0  0  0  0  0  0  0  0  0  0  0
   57.8288   30.4642   46.5523 H   0  0  0  0  0  0  0  0  0  0  0  0
   58.9066   32.4906   47.6322 H   0  0  0  0  0  0  0  0  0  0  0  0
   59.8944   31.6289   46.3830 H   0  0  0  0  0  0  0  0  0  0  0  0
   60.2258   30.6575   51.8988 H   0  0  0  0  0  0  0  0  0  0  0  0
   59.1246   28.5938   52.7569 H   0  0  0  0  0  0  0  0  0  0  0  0
   56.6540   28.5248   53.0651 H   0  0  0  0  0  0  0  0  0  0  0  0
   56.3647   32.6105   51.6502 H   0  0  0  0  0  0  0  0  0  0  0  0
  1  2  2  0
  2  3  1  0
  3  4  1  0
  4  5  1  0
  5  6  2  0
  6  7  1  0
  7  8  1  0
  8  9  2  0
  8 10  1  0
 10 11  1  0
 11 12  1  0
 12 13  1  0
 13 14  1  0
 14 15  1  0
 15 16  1  0
 16 17  1  0
 17 18  1  0
 13 19  1  0
 19 20  1  0
  7 21  2  0
 21 22  1  0
 22 23  2  0
 23 24  1  0
 24 25  2  0
 24 26  1  0
 26 27  1  0
 27 28  1  0
 28 29  1  0
 29 30  1  0
 30 31  1  0
 31 32  1  0
 32 33  1  0
 29 34  1  0
 34 35  1  0
  2 36  1  0
 36 37  2  0
 37 38  1  0
 38 39  2  0
 39 40  1  0
 40 41  1  0
 41 42  1  0
 41 43  1  0
 41 44  1  0
 40 45  2  0
 23  5  1  0
 35 26  1  0
 45 36  1  0
 20 10  1  0
 33 30  1  0
 18 14  1  0
  3 46  1  0
  4 47  1  0
  4 48  1  0
  6 49  1  0
 11 50  1  0
 11 51  1  0
 12 52  1  0
 12 53  1  0
 13 54  1  0
 15 55  1  0
 15 56  1  0
 16 57  1  0
 16 58  1  0
 17 59  1  0
 17 60  1  0
 18 61  1  0
 18 62  1  0
 19 63  1  0
 19 64  1  0
 20 65  1  0
 20 66  1  0
 21 67  1  0
 22 68  1  0
 27 69  1  0
 27 70  1  0
 28 71  1  0
 28 72  1  0
 30 73  1  0
 31 74  1  0
 31 75  1  0
 32 76  1  0
 32 77  1  0
 33 78  1  0
 33 79  1  0
 34 80  1  0
 34 81  1  0
 35 82  1  0
 35 83  1  0
 37 84  1  0
 38 85  1  0
 39 86  1  0
 45 87  1  0
M  END
>  <UniqueID>  (58) 
52

>  <SMILES>  (58) 
O=C(NCc1cc(C(=O)N2CCC(N3CCCC3)CC2)ccc1C(=O)N1CCN(C2CCC2)CC1)c1cccc(C(F)(F)F)c1

>  <Energy>  (58) 
185.66846182759383

>  <Genealogy>  (58) 
O=C(NCc1cc(C(=O)N2CCC(N3CCCC3)CC2)ccc1C(=O)N1CCN(C2CCC2)CC1)c1cccc(C(F)(F)F)c1 (3D coordinates assigned)
O=C(NCc1cc(C(=O)N2CCC(N3CCCC3)CC2)ccc1C(=O)N1CCN(C2CCC2)CC1)c1cccc(C(F)(F)F)c1 (nonaromatic ring conformer: 185.66846182759383 kcal/mol)

>  <smiles>  (58) 
O=C(NCc1cc(C(=O)N2CCC(N3CCCC3)CC2)ccc1C(=O)N1CCN(C2CCC2)CC1)c1cccc(C(F)(F)F)c1

>  <score_type>  (58) 
oracle

>  <origin>  (58) 
adg

>  <m_score__min__energy>  (58) 
-10.51

>  <m_primary>  (58) 
energy

$$$$
58:0
     RDKit          3D

 50 53  0  0  1  0  0  0  0  0999 V2000
   59.5420   34.9880   44.8700 N   0  0  0  0  0  0  0  0  0  0  0  0
   57.4400   31.9410   42.9950 C   0  0  0  0  0  0  0  0  0  0  0  0
   59.0060   33.7530   46.7390 N   0  0  0  0  0  0  0  0  0  0  0  0
   58.4140   32.6850   47.2970 C   0  0  0  0  0  0  0  0  0  0  0  0
   58.4500   32.4900   48.5860 N   0  0  0  0  0  0  0  0  0  0  0  0
   59.4320   31.6460   49.1910 C   0  0  0  0  0  0  0  0  0  0  0  0
   60.6440   31.3990   48.3520 C   0  0  0  0  0  0  0  0  0  0  0  0
   60.5340   30.0880   47.6660 C   0  0  0  0  0  0  0  0  0  0  0  0
   60.2350   28.9130   48.3320 C   0  0  0  0  0  0  0  0  0  0  0  0
   60.1510   27.7280   47.6220 C   0  0  0  0  0  0  0  0  0  0  0  0
   60.3600   27.6880   46.2390 C   0  0  0  0  0  0  0  0  0  0  0  0
   60.6580   28.8830   45.6000 C   0  0  0  0  0  0  0  0  0  0  0  0
   60.7450   30.0620   46.2910 C   0  0  0  0  0  0  0  0  0  0  0  0
   57.7710   31.7980   46.4910 N   0  0  0  0  0  0  0  0  0  0  0  0
   57.7170   31.9700   45.1620 C   0  0  0  0  0  0  0  0  0  0  0  0
   58.3250   33.0670   44.5860 C   0  0  0  0  0  0  0  0  0  0  0  0
   58.1580   33.0560   43.2480 N   0  0  0  0  0  0  0  0  0  0  0  0
   58.9750   33.9610   45.4110 C   0  0  0  0  0  0  0  0  0  0  0  0
   57.0830   31.5830   41.8460 O   0  0  0  0  0  0  0  0  0  0  0  0
   57.1670   31.2780   44.1250 N   0  0  0  0  0  0  0  0  0  0  0  0
   56.4360   30.0480   44.3410 C   0  0  1  0  0  0  0  0  0  0  0  0
   56.8160   29.0190   43.3000 C   0  0  0  0  0  0  0  0  0  0  0  0
   57.8590   28.2160   44.0440 C   0  0  2  0  0  0  0  0  0  0  0  0
   57.8170   26.8620   43.7000 O   0  0  0  0  0  0  0  0  0  0  0  0
   57.4940   28.4330   45.4760 C   0  0  2  0  0  0  0  0  0  0  0  0
   56.8300   27.1910   46.0810 C   0  0  0  0  0  0  0  0  0  0  0  0
   55.5130   27.0780   45.6320 O   0  0  0  0  0  0  0  0  0  0  0  0
   56.6270   29.4810   45.5690 O   0  0  0  0  0  0  0  0  0  0  0  0
   58.8770   35.6950   44.4740 H   0  0  0  0  0  0  0  0  0  0  0  0
   59.5030   34.4410   47.3490 H   0  0  0  0  0  0  0  0  0  0  0  0
   59.7559   32.1162   50.1312 H   0  0  0  0  0  0  0  0  0  0  0  0
   58.9521   30.6675   49.3401 H   0  0  0  0  0  0  0  0  0  0  0  0
   60.7337   32.1964   47.5996 H   0  0  0  0  0  0  0  0  0  0  0  0
   61.5333   31.3917   48.9994 H   0  0  0  0  0  0  0  0  0  0  0  0
   60.0651   28.9205   49.4188 H   0  0  0  0  0  0  0  0  0  0  0  0
   59.9146   26.7964   48.1570 H   0  0  0  0  0  0  0  0  0  0  0  0
   60.2906   26.7438   45.6789 H   0  0  0  0  0  0  0  0  0  0  0  0
   60.8283   28.8833   44.5133 H   0  0  0  0  0  0  0  0  0  0  0  0
   60.9829   30.9934   45.7562 H   0  0  0  0  0  0  0  0  0  0  0  0
   57.3160   30.9730   46.9320 H   0  0  0  0  0  0  0  0  0  0  0  0
   58.5180   33.7750   42.5580 H   0  0  0  0  0  0  0  0  0  0  0  0
   55.3774   30.3380   44.2686 H   0  0  0  0  0  0  0  0  0  0  0  0
   55.9549   28.3960   43.0165 H   0  0  0  0  0  0  0  0  0  0  0  0
   57.1701   29.4479   42.3510 H   0  0  0  0  0  0  0  0  0  0  0  0
   58.8873   28.5278   43.8088 H   0  0  0  0  0  0  0  0  0  0  0  0
   56.8840   26.5550   43.9180 H   0  0  0  0  0  0  0  0  0  0  0  0
   58.4195   28.6427   46.0324 H   0  0  0  0  0  0  0  0  0  0  0  0
   57.3938   26.2955   45.7806 H   0  0  0  0  0  0  0  0  0  0  0  0
   56.8274   27.2849   47.1770 H   0  0  0  0  0  0  0  0  0  0  0  0
   55.1570   27.9400   45.3300 H   0  0  0  0  0  0  0  0  0  0  0  0
  1  2  2  3
  2  3  1  0
  3  4  1  0
  4  5  2  0
  5  6  1  0
  6  7  1  0
  7  8  1  0
  8  9  2  0
  9 10  1  0
 10 11  2  0
 11 12  1  0
 12 13  2  0
  4 14  1  0
 14 15  1  0
 15 16  2  0
 16 17  1  0
 17 18  1  0
 18 19  2  0
 18 20  1  0
 20 21  1  0
 21 22  1  0
 22 23  1  0
 23 24  1  0
 23 25  1  0
 25 26  1  0
 26 27  1  0
 25 28  1  0
 16  2  1  0
 28 21  1  0
 13  8  1  0
 20 15  1  0
  1 29  1  0
  3 30  1  0
  6 31  1  0
  6 32  1  0
  7 33  1  0
  7 34  1  0
  9 35  1  0
 10 36  1  0
 11 37  1  0
 12 38  1  0
 13 39  1  0
 14 40  1  0
 17 41  1  0
 21 42  1  6
 22 43  1  0
 22 44  1  0
 23 45  1  1
 24 46  1  0
 25 47  1  1
 26 48  1  0
 26 49  1  0
 27 50  1  0
M  END
>  <smiles>  (59) 
N=c1[nH]c(=NCCc2ccccc2)[nH]c2c1[nH]c(=O)n2C1CC(O)C(CO)O1

>  <score_type>  (59) 
oracle

>  <origin>  (59) 
adg

>  <m_score__min__energy>  (59) 
-8.5600000000000005

>  <m_primary>  (59) 
energy

$$$$
59:0
     RDKit          3D

 52 56  0  0  0  0  0  0  0  0999 V2000
   54.3280   25.9500   45.6300 N   0  0  0  0  0  0  0  0  0  0  0  0
   54.1300   24.2370   45.4920 S   0  0  0  0  0  0  0  0  0  0  0  0
   54.6390   23.7900   44.1510 O   0  0  0  0  0  0  0  0  0  0  0  0
   52.6640   23.9270   45.6010 O   0  0  0  0  0  0  0  0  0  0  0  0
   55.0200   23.4030   46.7780 C   0  0  0  0  0  0  0  0  0  0  0  0
   54.4180   22.3080   47.4220 C   0  0  0  0  0  0  0  0  0  0  0  0
   55.1060   21.5960   48.4050 C   0  0  0  0  0  0  0  0  0  0  0  0
   56.4030   21.9640   48.7590 C   0  0  0  0  0  0  0  0  0  0  0  0
   57.0140   23.0540   48.1380 C   0  0  0  0  0  0  0  0  0  0  0  0
   56.3310   23.7900   47.1550 C   0  0  0  0  0  0  0  0  0  0  0  0
   57.0120   24.9510   46.5480 C   0  0  0  0  0  0  0  0  0  0  0  0
   57.2850   24.9670   45.1720 C   0  0  0  0  0  0  0  0  0  0  0  0
   57.9280   26.0650   44.5950 C   0  0  0  0  0  0  0  0  0  0  0  0
   58.3020   27.1620   45.3850 C   0  0  0  0  0  0  0  0  0  0  0  0
   58.9810   28.3160   44.7660 C   0  0  0  0  0  0  0  0  0  0  0  0
   60.0920   28.1330   44.1990 O   0  0  0  0  0  0  0  0  0  0  0  0
   58.3830   29.6240   44.7610 N   0  0  0  0  0  0  0  0  0  0  0  0
   57.3530   30.1200   43.8270 C   0  0  0  0  0  0  0  0  0  0  0  0
   57.1870   31.6370   44.1460 C   0  0  0  0  0  0  0  0  0  0  0  0
   58.5020   31.9130   44.8380 C   0  0  1  0  0  0  0  0  0  0  0  0
   58.8780   32.9590   45.8080 C   0  0  0  0  0  0  0  0  0  0  0  0
   58.6030   34.3240   45.7960 C   0  0  0  0  0  0  0  0  0  0  0  0
   59.2670   35.1410   46.7240 C   0  0  0  0  0  0  0  0  0  0  0  0
   60.2210   34.5920   47.6050 C   0  0  0  0  0  0  0  0  0  0  0  0
   60.5250   33.2190   47.5670 C   0  0  0  0  0  0  0  0  0  0  0  0
   61.4920   32.6990   48.4260 O   0  0  0  0  0  0  0  0  0  0  0  0
   59.8400   32.4100   46.6520 C   0  0  0  0  0  0  0  0  0  0  0  0
   59.9830   30.9230   46.4090 C   0  0  0  0  0  0  0  0  0  0  0  0
   58.6490   30.6930   45.6960 C   0  0  2  0  0  0  0  0  0  0  0  0
   58.0660   27.1270   46.7670 C   0  0  0  0  0  0  0  0  0  0  0  0
   57.4240   26.0290   47.3460 C   0  0  0  0  0  0  0  0  0  0  0  0
   53.4140   26.3430   45.9470 H   0  0  0  0  0  0  0  0  0  0  0  0
   53.3951   22.0098   47.1484 H   0  0  0  0  0  0  0  0  0  0  0  0
   54.6234   20.7416   48.9022 H   0  0  0  0  0  0  0  0  0  0  0  0
   56.9452   21.3948   49.5284 H   0  0  0  0  0  0  0  0  0  0  0  0
   58.0382   23.3393   48.4201 H   0  0  0  0  0  0  0  0  0  0  0  0
   56.9917   24.1120   44.5451 H   0  0  0  0  0  0  0  0  0  0  0  0
   58.1420   26.0692   43.5160 H   0  0  0  0  0  0  0  0  0  0  0  0
   57.6806   29.9809   42.7862 H   0  0  0  0  0  0  0  0  0  0  0  0
   56.4044   29.5753   43.9432 H   0  0  0  0  0  0  0  0  0  0  0  0
   57.0757   32.2357   43.2299 H   0  0  0  0  0  0  0  0  0  0  0  0
   56.2940   31.8881   44.7372 H   0  0  0  0  0  0  0  0  0  0  0  0
   59.0867   32.2382   43.9649 H   0  0  0  0  0  0  0  0  0  0  0  0
   57.8855   34.7500   45.0793 H   0  0  0  0  0  0  0  0  0  0  0  0
   59.0416   36.2169   46.7643 H   0  0  0  0  0  0  0  0  0  0  0  0
   60.7325   35.2434   48.3289 H   0  0  0  0  0  0  0  0  0  0  0  0
   62.1510   33.2940   48.9140 H   0  0  0  0  0  0  0  0  0  0  0  0
   60.8444   30.6869   45.7670 H   0  0  0  0  0  0  0  0  0  0  0  0
   60.1666   30.3043   47.2998 H   0  0  0  0  0  0  0  0  0  0  0  0
   57.9890   30.4417   46.5394 H   0  0  0  0  0  0  0  0  0  0  0  0
   58.3879   27.9682   47.3985 H   0  0  0  0  0  0  0  0  0  0  0  0
   57.2411   26.0098   48.4305 H   0  0  0  0  0  0  0  0  0  0  0  0
  1  2  1  0
  2  3  2  0
  2  4  2  0
  2  5  1  0
  5  6  2  0
  6  7  1  0
  7  8  2  0
  8  9  1  0
  9 10  2  0
 10 11  1  0
 11 12  2  0
 12 13  1  0
 13 14  2  0
 14 15  1  0
 15 16  2  0
 15 17  1  0
 17 18  1  0
 18 19  1  0
 19 20  1  0
 20 21  1  0
 21 22  2  0
 22 23  1  0
 23 24  2  0
 24 25  1  0
 25 26  1  0
 25 27  2  0
 27 28  1  0
 28 29  1  0
 14 30  1  0
 30 31  2  0
 10  5  1  0
 31 11  1  0
 29 17  1  0
 29 20  1  0
 27 21  1  0
  1 32  1  0
  6 33  1  0
  7 34  1  0
  8 35  1  0
  9 36  1  0
 12 37  1  0
 13 38  1  0
 18 39  1  0
 18 40  1  0
 19 41  1  0
 19 42  1  0
 20 43  1  6
 22 44  1  0
 23 45  1  0
 24 46  1  0
 26 47  1  0
 28 48  1  0
 28 49  1  0
 29 50  1  1
 30 51  1  0
 31 52  1  0
M  CHG  1   1  -1
M  END
>  <UniqueID>  (60) 
53

>  <SMILES>  (60) 
[NH-]S(=O)(=O)c1ccccc1-c1ccc(C(=O)N2CC[C@H]3c4cccc(O)c4C[C@@H]32)cc1

>  <Energy>  (60) 
124.66048251171856

>  <Genealogy>  (60) 
[NH-]S(=O)(=O)c1ccccc1-c1ccc(C(=O)N2CCC3c4cccc(O)c4CC32)cc1 (protonated)
[NH-]S(=O)(=O)c1ccccc1-c1ccc(C(=O)N2CC[C@H]3c4cccc(O)c4C[C@@H]32)cc1 (chirality)
[NH-]S(=O)(=O)c1ccccc1-c1ccc(C(=O)N2CC[C@H]3c4cccc(O)c4C[C@@H]32)cc1 (3D coordinates assigned)
[NH-]S(=O)(=O)c1ccccc1-c1ccc(C(=O)N2CC[C@H]3c4cccc(O)c4C[C@@H]32)cc1 (nonaromatic ring conformer: 124.66048251171856 kcal/mol)

>  <smiles>  (60) 
NS(=O)(=O)c1ccccc1-c1ccc(C(=O)N2CCC3c4cccc(O)c4CC32)cc1

>  <score_type>  (60) 
oracle

>  <origin>  (60) 
adg

>  <m_score__min__energy>  (60) 
-11.640000000000001

>  <m_primary>  (60) 
energy

$$$$
60:0
     RDKit          3D

 40 43  0  0  0  0  0  0  0  0999 V2000
   54.6130   27.6450   53.4910 O   0  0  0  0  0  0  0  0  0  0  0  0
   55.3950   28.6070   53.7110 C   0  0  0  0  0  0  0  0  0  0  0  0
   54.8420   29.8920   54.0260 N   0  0  0  0  0  0  0  0  0  0  0  0
   53.8020   30.5570   53.2950 C   0  0  0  0  0  0  0  0  0  0  0  0
   52.5680   30.7840   53.9200 C   0  0  0  0  0  0  0  0  0  0  0  0
   51.5190   31.3850   53.2150 C   0  0  0  0  0  0  0  0  0  0  0  0
   51.6910   31.7490   51.8750 C   0  0  0  0  0  0  0  0  0  0  0  0
   50.6450   32.3380   51.1710 O   0  0  0  0  0  0  0  0  0  0  0  0
   52.9140   31.5160   51.2410 C   0  0  0  0  0  0  0  0  0  0  0  0
   53.9660   30.9160   51.9440 C   0  0  0  0  0  0  0  0  0  0  0  0
   56.8500   28.3710   53.7040 C   0  0  0  0  0  0  0  0  0  0  0  0
   57.2920   27.1930   53.7620 O   0  0  0  0  0  0  0  0  0  0  0  0
   57.7450   29.4820   53.5530 N   0  0  0  0  0  0  0  0  0  0  0  0
   57.9470   30.2800   52.3770 C   0  0  0  0  0  0  0  0  0  0  0  0
   58.5410   29.6830   51.2580 C   0  0  0  0  0  0  0  0  0  0  0  0
   58.7570   30.4190   50.0890 C   0  0  0  0  0  0  0  0  0  0  0  0
   58.3640   31.7660   50.0120 C   0  0  0  0  0  0  0  0  0  0  0  0
   58.5970   32.5500   48.7770 C   0  0  0  0  0  0  0  0  0  0  0  0
   58.1710   32.1380   47.5510 N   0  0  0  0  0  0  0  0  0  0  0  0
   58.5770   33.1340   46.7490 C   0  0  0  0  0  0  0  0  0  0  0  0
   58.4040   33.2430   45.3710 C   0  0  0  0  0  0  0  0  0  0  0  0
   58.9150   34.3930   44.7380 C   0  0  0  0  0  0  0  0  0  0  0  0
   59.5790   35.3890   45.4920 C   0  0  0  0  0  0  0  0  0  0  0  0
   59.7340   35.2420   46.8850 C   0  0  0  0  0  0  0  0  0  0  0  0
   59.2150   34.0910   47.4750 C   0  0  0  0  0  0  0  0  0  0  0  0
   59.2440   33.7470   48.7710 N   0  0  0  0  0  0  0  0  0  0  0  0
   57.7410   32.3580   51.1250 C   0  0  0  0  0  0  0  0  0  0  0  0
   57.5270   31.6210   52.2930 C   0  0  0  0  0  0  0  0  0  0  0  0
   52.4235   30.4883   54.9696 H   0  0  0  0  0  0  0  0  0  0  0  0
   50.5573   31.5716   53.7154 H   0  0  0  0  0  0  0  0  0  0  0  0
   53.0507   31.8042   50.1883 H   0  0  0  0  0  0  0  0  0  0  0  0
   54.9240   30.7246   51.4385 H   0  0  0  0  0  0  0  0  0  0  0  0
   58.8404   28.6253   51.2992 H   0  0  0  0  0  0  0  0  0  0  0  0
   59.2380   29.9402   49.2233 H   0  0  0  0  0  0  0  0  0  0  0  0
   57.8870   32.4593   44.7979 H   0  0  0  0  0  0  0  0  0  0  0  0
   58.7971   34.5173   43.6514 H   0  0  0  0  0  0  0  0  0  0  0  0
   59.9763   36.2826   44.9885 H   0  0  0  0  0  0  0  0  0  0  0  0
   60.2463   36.0084   47.4852 H   0  0  0  0  0  0  0  0  0  0  0  0
   57.4197   33.4089   51.0760 H   0  0  0  0  0  0  0  0  0  0  0  0
   57.0271   32.0919   53.1523 H   0  0  0  0  0  0  0  0  0  0  0  0
  1  2  2  0
  2  3  1  0
  3  4  1  0
  4  5  2  0
  5  6  1  0
  6  7  2  0
  7  8  1  0
  7  9  1  0
  9 10  2  0
  2 11  1  0
 11 12  2  0
 11 13  1  0
 13 14  1  0
 14 15  2  0
 15 16  1  0
 16 17  2  0
 17 18  1  0
 18 19  2  0
 19 20  1  0
 20 21  2  0
 21 22  1  0
 22 23  2  0
 23 24  1  0
 24 25  2  0
 25 26  1  0
 17 27  1  0
 27 28  2  0
 10  4  1  0
 28 14  1  0
 26 18  1  0
 25 20  1  0
  5 29  1  0
  6 30  1  0
  9 31  1  0
 10 32  1  0
 15 33  1  0
 16 34  1  0
 21 35  1  0
 22 36  1  0
 23 37  1  0
 24 38  1  0
 27 39  1  0
 28 40  1  0
M  CHG  4   3  -1   8  -1  13  -1  26  -1
M  END
>  <UniqueID>  (61) 
54

>  <SMILES>  (61) 
O=C([N-]c1ccc([O-])cc1)C(=O)[N-]c1ccc(-c2nc3ccccc3[n-]2)cc1

>  <Energy>  (61) 
88.88929797521016

>  <Genealogy>  (61) 
O=C([N-]c1ccc([O-])cc1)C(=O)[N-]c1ccc(-c2nc3ccccc3[n-]2)cc1 (protonated)
O=C([N-]c1ccc([O-])cc1)C(=O)[N-]c1ccc(-c2nc3ccccc3[n-]2)cc1 (3D coordinates assigned)
O=C([N-]c1ccc([O-])cc1)C(=O)[N-]c1ccc(-c2nc3ccccc3[n-]2)cc1 (optimized conformer: 88.88929797521016 kcal/mol)

>  <smiles>  (61) 
O=C(Nc1ccc(O)cc1)C(=O)Nc1ccc(-c2nc3ccccc3[nH]2)cc1

>  <score_type>  (61) 
oracle

>  <origin>  (61) 
adg

>  <m_score__min__energy>  (61) 
-14.08

>  <m_primary>  (61) 
energy

$$$$
61:0
     RDKit          3D

 64 66  0  0  0  0  0  0  0  0999 V2000
   55.2700   19.5440   45.4480 C   0  0  0  0  0  0  0  0  0  0  0  0
   56.3050   20.0030   44.7290 C   0  0  0  0  0  0  0  0  0  0  0  0
   56.4430   21.3480   44.1120 C   0  0  0  0  0  0  0  0  0  0  0  0
   56.0210   21.4470   42.9280 O   0  0  0  0  0  0  0  0  0  0  0  0
   56.9150   22.5520   44.7900 N   0  0  0  0  0  0  0  0  0  0  0  0
   57.6980   23.5460   44.0250 C   0  0  0  0  0  0  0  0  0  0  0  0
   57.2770   24.9350   44.4130 C   0  0  0  0  0  0  0  0  0  0  0  0
   57.0240   25.2170   45.6980 C   0  0  0  0  0  0  0  0  0  0  0  0
   56.4210   26.5100   46.0930 C   0  0  0  0  0  0  0  0  0  0  0  0
   55.1750   26.6710   45.9860 O   0  0  0  0  0  0  0  0  0  0  0  0
   57.2520   27.5920   46.5430 N   0  0  0  0  0  0  0  0  0  0  0  0
   57.5140   28.7990   45.8120 C   0  0  0  0  0  0  0  0  0  0  0  0
   57.0700   28.8700   44.4870 C   0  0  0  0  0  0  0  0  0  0  0  0
   57.1690   30.0590   43.7680 C   0  0  0  0  0  0  0  0  0  0  0  0
   57.7120   31.2050   44.3670 C   0  0  0  0  0  0  0  0  0  0  0  0
   57.6870   32.5240   43.6350 C   0  0  0  0  0  0  0  0  0  0  0  0
   57.9300   33.6680   44.5850 C   0  0  0  0  0  0  0  0  0  0  0  0
   56.9500   34.2770   45.0970 O   0  0  0  0  0  0  0  0  0  0  0  0
   59.2710   34.0560   44.9180 N   0  0  0  0  0  0  0  0  0  0  0  0
   59.5820   35.3120   45.6000 C   0  0  0  0  0  0  0  0  0  0  0  0
   59.3240   35.1910   47.1120 C   0  0  0  0  0  0  0  0  0  0  0  0
   59.7220   33.8140   47.6610 C   0  0  0  0  0  0  0  0  0  0  0  0
   61.2150   33.6850   47.8370 C   0  0  0  0  0  0  0  0  0  0  0  0
   62.0430   33.4440   46.7270 C   0  0  0  0  0  0  0  0  0  0  0  0
   63.4250   33.3170   46.8960 C   0  0  0  0  0  0  0  0  0  0  0  0
   63.9870   33.4160   48.1720 C   0  0  0  0  0  0  0  0  0  0  0  0
   63.1710   33.6430   49.2820 C   0  0  0  0  0  0  0  0  0  0  0  0
   61.7910   33.7770   49.1170 C   0  0  0  0  0  0  0  0  0  0  0  0
   58.2210   31.1260   45.6750 C   0  0  0  0  0  0  0  0  0  0  0  0
   58.1640   29.9120   46.3950 C   0  0  0  0  0  0  0  0  0  0  0  0
   58.7540   29.7790   47.6630 O   0  0  0  0  0  0  0  0  0  0  0  0
   60.1590   29.7270   47.9000 C   0  0  0  0  0  0  0  0  0  0  0  0
   57.2730   24.1290   46.7140 C   0  0  0  0  0  0  0  0  0  0  0  0
   56.6690   22.7970   46.2250 C   0  0  0  0  0  0  0  0  0  0  0  0
   55.2916   18.5211   45.8521 H   0  0  0  0  0  0  0  0  0  0  0  0
   54.3995   20.1904   45.6336 H   0  0  0  0  0  0  0  0  0  0  0  0
   57.1440   19.3075   44.5795 H   0  0  0  0  0  0  0  0  0  0  0  0
   58.7680   23.4144   44.2438 H   0  0  0  0  0  0  0  0  0  0  0  0
   57.5182   23.3996   42.9497 H   0  0  0  0  0  0  0  0  0  0  0  0
   57.1770   25.7167   43.6456 H   0  0  0  0  0  0  0  0  0  0  0  0
   56.6386   27.9784   44.0085 H   0  0  0  0  0  0  0  0  0  0  0  0
   56.8197   30.0993   42.7257 H   0  0  0  0  0  0  0  0  0  0  0  0
   58.4711   32.5232   42.8635 H   0  0  0  0  0  0  0  0  0  0  0  0
   56.6965   32.6527   43.1742 H   0  0  0  0  0  0  0  0  0  0  0  0
   60.0680   33.4890   44.5510 H   0  0  0  0  0  0  0  0  0  0  0  0
   60.6406   35.5603   45.4335 H   0  0  0  0  0  0  0  0  0  0  0  0
   58.9347   36.1034   45.1940 H   0  0  0  0  0  0  0  0  0  0  0  0
   59.9089   35.9627   47.6338 H   0  0  0  0  0  0  0  0  0  0  0  0
   58.2451   35.3226   47.2815 H   0  0  0  0  0  0  0  0  0  0  0  0
   59.2355   33.6665   48.6365 H   0  0  0  0  0  0  0  0  0  0  0  0
   59.3986   33.0529   46.9356 H   0  0  0  0  0  0  0  0  0  0  0  0
   61.6026   33.3551   45.7230 H   0  0  0  0  0  0  0  0  0  0  0  0
   64.0710   33.1389   46.0236 H   0  0  0  0  0  0  0  0  0  0  0  0
   65.0746   33.3148   48.3020 H   0  0  0  0  0  0  0  0  0  0  0  0
   63.6150   33.7162   50.2858 H   0  0  0  0  0  0  0  0  0  0  0  0
   61.1504   33.9556   49.9932 H   0  0  0  0  0  0  0  0  0  0  0  0
   58.6672   32.0166   46.1415 H   0  0  0  0  0  0  0  0  0  0  0  0
   60.3480   29.7200   48.9836 H   0  0  0  0  0  0  0  0  0  0  0  0
   60.5732   28.8129   47.4496 H   0  0  0  0  0  0  0  0  0  0  0  0
   60.6397   30.6080   47.4496 H   0  0  0  0  0  0  0  0  0  0  0  0
   58.3567   24.0061   46.8568 H   0  0  0  0  0  0  0  0  0  0  0  0
   56.7989   24.4107   47.6658 H   0  0  0  0  0  0  0  0  0  0  0  0
   57.1152   21.9749   46.8038 H   0  0  0  0  0  0  0  0  0  0  0  0
   55.5801   22.8530   46.3704 H   0  0  0  0  0  0  0  0  0  0  0  0
  1  2  2  0
  2  3  1  0
  3  4  2  0
  3  5  1  0
  5  6  1  0
  6  7  1  0
  7  8  2  0
  8  9  1  0
  9 10  2  0
  9 11  1  0
 11 12  1  0
 12 13  2  0
 13 14  1  0
 14 15  2  0
 15 16  1  0
 16 17  1  0
 17 18  2  0
 17 19  1  0
 19 20  1  0
 20 21  1  0
 21 22  1  0
 22 23  1  0
 23 24  2  0
 24 25  1  0
 25 26  2  0
 26 27  1  0
 27 28  2  0
 15 29  1  0
 29 30  2  0
 30 31  1  0
 31 32  1  0
  8 33  1  0
 33 34  1  0
 34  5  1  0
 30 12  1  0
 28 23  1  0
  1 35  1  0
  1 36  1  0
  2 37  1  0
  6 38  1  0
  6 39  1  0
  7 40  1  0
 13 41  1  0
 14 42  1  0
 16 43  1  0
 16 44  1  0
 19 45  1  0
 20 46  1  0
 20 47  1  0
 21 48  1  0
 21 49  1  0
 22 50  1  0
 22 51  1  0
 24 52  1  0
 25 53  1  0
 26 54  1  0
 27 55  1  0
 28 56  1  0
 29 57  1  0
 32 58  1  0
 32 59  1  0
 32 60  1  0
 33 61  1  0
 33 62  1  0
 34 63  1  0
 34 64  1  0
M  CHG  1  11  -1
M  END
>  <UniqueID>  (62) 
55

>  <SMILES>  (62) 
C=CC(=O)N1CC=C(C(=O)[N-]c2ccc(CC(=O)NCCCc3ccccc3)cc2OC)CC1

>  <Energy>  (62) 
76.55053070563838

>  <Genealogy>  (62) 
C=CC(=O)N1CC=C(C(=O)[N-]c2ccc(CC(=O)NCCCc3ccccc3)cc2OC)CC1 (protonated)
C=CC(=O)N1CC=C(C(=O)[N-]c2ccc(CC(=O)NCCCc3ccccc3)cc2OC)CC1 (3D coordinates assigned)
C=CC(=O)N1CC=C(C(=O)[N-]c2ccc(CC(=O)NCCCc3ccccc3)cc2OC)CC1 (nonaromatic ring conformer: 76.55053070563838 kcal/mol)

>  <smiles>  (62) 
C=CC(=O)N1CC=C(C(=O)Nc2ccc(CC(=O)NCCCc3ccccc3)cc2OC)CC1

>  <score_type>  (62) 
oracle

>  <origin>  (62) 
adg

>  <m_score__min__energy>  (62) 
-11.27

>  <m_primary>  (62) 
energy

$$$$
62:0
     RDKit          3D

 44 46  0  0  0  0  0  0  0  0999 V2000
   54.7610   26.3370   46.0180 N   0  0  0  0  0  0  0  0  0  0  0  0
   56.1860   26.2630   46.0180 C   0  0  0  0  0  0  0  0  0  0  0  0
   56.7530   25.2320   46.4700 O   0  0  0  0  0  0  0  0  0  0  0  0
   56.9800   27.3870   45.4890 C   0  0  0  0  0  0  0  0  0  0  0  0
   58.3500   27.2490   45.2240 C   0  0  0  0  0  0  0  0  0  0  0  0
   59.0470   28.3470   44.7240 C   0  0  0  0  0  0  0  0  0  0  0  0
   58.3980   29.5200   44.5040 N   0  0  0  0  0  0  0  0  0  0  0  0
   57.0670   29.6450   44.7660 C   0  0  0  0  0  0  0  0  0  0  0  0
   56.4450   30.7660   44.5540 N   0  0  0  0  0  0  0  0  0  0  0  0
   57.0920   32.0230   44.1740 C   0  0  0  0  0  0  0  0  0  0  0  0
   56.9920   33.0450   45.3100 C   0  0  0  0  0  0  0  0  0  0  0  0
   57.5630   34.3220   44.8960 N   0  0  0  0  0  0  0  0  0  0  0  0
   58.8250   34.8160   45.3630 C   0  0  0  0  0  0  0  0  0  0  0  0
   59.3940   35.7580   44.7450 O   0  0  0  0  0  0  0  0  0  0  0  0
   59.4600   34.2240   46.5630 C   0  0  0  0  0  0  0  0  0  0  0  0
   59.5300   34.9520   47.7650 C   0  0  0  0  0  0  0  0  0  0  0  0
   60.1400   34.3980   48.8920 C   0  0  0  0  0  0  0  0  0  0  0  0
   60.6770   33.1110   48.8400 C   0  0  0  0  0  0  0  0  0  0  0  0
   60.6010   32.3570   47.6570 C   0  0  0  0  0  0  0  0  0  0  0  0
   61.1710   30.9930   47.6180 C   0  0  0  0  0  0  0  0  0  0  0  0
   62.4140   30.8450   47.4740 O   0  0  0  0  0  0  0  0  0  0  0  0
   60.3510   29.8340   47.7870 N   0  0  0  0  0  0  0  0  0  0  0  0
   58.9690   29.4900   48.1780 C   0  0  0  0  0  0  0  0  0  0  0  0
   59.1860   28.0160   48.2520 C   0  0  0  0  0  0  0  0  0  0  0  0
   60.5760   28.3780   47.8490 C   0  0  0  0  0  0  0  0  0  0  0  0
   60.0050   32.9270   46.5190 C   0  0  0  0  0  0  0  0  0  0  0  0
   56.3750   28.5820   45.2520 N   0  0  0  0  0  0  0  0  0  0  0  0
   54.2250   26.3590   45.1230 H   0  0  0  0  0  0  0  0  0  0  0  0
   58.8638   26.2938   45.4070 H   0  0  0  0  0  0  0  0  0  0  0  0
   60.1223   28.2641   44.5075 H   0  0  0  0  0  0  0  0  0  0  0  0
   58.1522   31.8314   43.9523 H   0  0  0  0  0  0  0  0  0  0  0  0
   56.5851   32.4287   43.2860 H   0  0  0  0  0  0  0  0  0  0  0  0
   55.9344   33.1898   45.5754 H   0  0  0  0  0  0  0  0  0  0  0  0
   57.5514   32.6687   46.1792 H   0  0  0  0  0  0  0  0  0  0  0  0
   59.1015   35.9638   47.8171 H   0  0  0  0  0  0  0  0  0  0  0  0
   60.1976   34.9783   49.8247 H   0  0  0  0  0  0  0  0  0  0  0  0
   61.1625   32.6845   49.7302 H   0  0  0  0  0  0  0  0  0  0  0  0
   58.6810   29.9256   49.1461 H   0  0  0  0  0  0  0  0  0  0  0  0
   58.1604   29.8444   47.5218 H   0  0  0  0  0  0  0  0  0  0  0  0
   59.0825   27.5705   49.2524 H   0  0  0  0  0  0  0  0  0  0  0  0
   58.5661   27.2765   47.7239 H   0  0  0  0  0  0  0  0  0  0  0  0
   61.3236   28.0964   48.6052 H   0  0  0  0  0  0  0  0  0  0  0  0
   60.9756   27.8954   46.9449 H   0  0  0  0  0  0  0  0  0  0  0  0
   59.9639   32.3522   45.5820 H   0  0  0  0  0  0  0  0  0  0  0  0
  1  2  1  0
  2  3  2  0
  2  4  1  0
  4  5  1  0
  5  6  2  0
  6  7  1  0
  7  8  1  0
  8  9  2  3
  9 10  1  0
 10 11  1  0
 11 12  1  0
 12 13  1  0
 13 14  2  0
 13 15  1  0
 15 16  2  0
 16 17  1  0
 17 18  2  0
 18 19  1  0
 19 20  1  0
 20 21  2  0
 20 22  1  0
 22 23  1  0
 23 24  1  0
 24 25  1  0
 19 26  2  0
  8 27  1  0
 27  4  2  0
 26 15  1  0
 25 22  1  0
  1 28  1  0
  5 29  1  0
  6 30  1  0
 10 31  1  0
 10 32  1  0
 11 33  1  0
 11 34  1  0
 16 35  1  0
 17 36  1  0
 18 37  1  0
 23 38  1  0
 23 39  1  0
 24 40  1  0
 24 41  1  0
 25 42  1  0
 25 43  1  0
 26 44  1  0
M  CHG  3   1  -1   7  -1  12  -1
M  END
>  <UniqueID>  (63) 
56

>  <SMILES>  (63) 
[NH-]C(=O)c1cc[n-]c(=NCC[N-]C(=O)c2cccc(C(=O)N3CCC3)c2)n1

>  <Energy>  (63) 
88.42016803909323

>  <Genealogy>  (63) 
[NH-]C(=O)c1cc[n-]c(=NCC[N-]C(=O)c2cccc(C(=O)N3CCC3)c2)n1 (protonated)
[NH-]C(=O)c1cc[n-]c(=NCC[N-]C(=O)c2cccc(C(=O)N3CCC3)c2)n1 (3D coordinates assigned)
[NH-]C(=O)c1cc[n-]c(=NCC[N-]C(=O)c2cccc(C(=O)N3CCC3)c2)n1 (nonaromatic ring conformer: 88.42016803909323 kcal/mol)

>  <smiles>  (63) 
NC(=O)c1cc[nH]c(=NCCNC(=O)c2cccc(C(=O)N3CCC3)c2)n1

>  <score_type>  (63) 
oracle

>  <origin>  (63) 
adg

>  <m_score__min__energy>  (63) 
-14.69

>  <m_primary>  (63) 
energy

$$$$
63:0
     RDKit          3D

 46 49  0  0  0  0  0  0  0  0999 V2000
   57.4290   25.2260   43.5110 C   0  0  0  0  0  0  0  0  0  0  0  0
   57.5140   25.5550   44.8100 C   0  0  0  0  0  0  0  0  0  0  0  0
   57.0010   24.8180   45.8910 C   0  0  0  0  0  0  0  0  0  0  0  0
   56.1240   23.7960   45.9290 C   0  0  0  0  0  0  0  0  0  0  0  0
   54.6770   23.8990   45.6640 C   0  0  0  0  0  0  0  0  0  0  0  0
   53.8980   22.8800   45.2530 N   0  0  0  0  0  0  0  0  0  0  0  0
   52.7100   23.4750   45.0110 C   0  0  0  0  0  0  0  0  0  0  0  0
   51.6990   22.8360   44.6180 O   0  0  0  0  0  0  0  0  0  0  0  0
   52.6930   24.8100   45.2130 N   0  0  0  0  0  0  0  0  0  0  0  0
   53.9500   25.0620   45.6130 C   0  0  0  0  0  0  0  0  0  0  0  0
   54.4230   26.3320   45.9200 O   0  0  0  0  0  0  0  0  0  0  0  0
   57.5560   25.3680   47.0330 C   0  0  0  0  0  0  0  0  0  0  0  0
   58.3090   26.4500   46.6300 C   0  0  0  0  0  0  0  0  0  0  0  0
   59.0700   27.3480   47.5600 C   0  0  0  0  0  0  0  0  0  0  0  0
   58.2730   26.5810   45.2840 N   0  0  0  0  0  0  0  0  0  0  0  0
   58.9500   27.6420   44.5190 C   0  0  0  0  0  0  0  0  0  0  0  0
   58.0410   28.8270   44.2960 C   0  0  0  0  0  0  0  0  0  0  0  0
   57.1160   28.8100   43.2400 C   0  0  0  0  0  0  0  0  0  0  0  0
   56.3110   29.9240   42.9920 C   0  0  0  0  0  0  0  0  0  0  0  0
   56.4130   31.0600   43.7970 C   0  0  0  0  0  0  0  0  0  0  0  0
   57.3210   31.0860   44.8710 C   0  0  0  0  0  0  0  0  0  0  0  0
   57.4760   32.2400   45.7110 N   0  0  0  0  0  0  0  0  0  0  0  0
   57.6780   33.5930   45.2780 C   0  0  0  0  0  0  0  0  0  0  0  0
   56.7020   34.3220   44.9620 O   0  0  0  0  0  0  0  0  0  0  0  0
   59.0530   34.1860   45.3010 C   0  0  0  0  0  0  0  0  0  0  0  0
   59.9700   33.5560   46.3400 C   0  0  0  0  0  0  0  0  0  0  0  0
   59.4190   34.9550   46.5640 C   0  0  0  0  0  0  0  0  0  0  0  0
   58.1470   29.9780   45.0960 C   0  0  0  0  0  0  0  0  0  0  0  0
   57.8703   25.8832   42.7472 H   0  0  0  0  0  0  0  0  0  0  0  0
   56.9181   24.2993   43.2106 H   0  0  0  0  0  0  0  0  0  0  0  0
   56.5207   22.8009   46.1787 H   0  0  0  0  0  0  0  0  0  0  0  0
   57.4220   25.0104   48.0646 H   0  0  0  0  0  0  0  0  0  0  0  0
   58.8403   27.0770   48.6011 H   0  0  0  0  0  0  0  0  0  0  0  0
   60.1490   27.2321   47.3804 H   0  0  0  0  0  0  0  0  0  0  0  0
   58.7786   28.3934   47.3804 H   0  0  0  0  0  0  0  0  0  0  0  0
   59.8390   27.9729   45.0759 H   0  0  0  0  0  0  0  0  0  0  0  0
   59.2333   27.2338   43.5376 H   0  0  0  0  0  0  0  0  0  0  0  0
   57.0250   27.9160   42.6056 H   0  0  0  0  0  0  0  0  0  0  0  0
   55.5933   29.9062   42.1586 H   0  0  0  0  0  0  0  0  0  0  0  0
   55.7817   31.9369   43.5909 H   0  0  0  0  0  0  0  0  0  0  0  0
   59.1073   34.4054   44.2245 H   0  0  0  0  0  0  0  0  0  0  0  0
   59.6099   32.7183   46.9553 H   0  0  0  0  0  0  0  0  0  0  0  0
   60.9755   33.1104   46.3212 H   0  0  0  0  0  0  0  0  0  0  0  0
   58.6602   35.1293   47.3411 H   0  0  0  0  0  0  0  0  0  0  0  0
   59.8606   35.9403   46.7741 H   0  0  0  0  0  0  0  0  0  0  0  0
   58.8878   30.0086   45.9086 H   0  0  0  0  0  0  0  0  0  0  0  0
  1  2  2  0
  2  3  1  0
  3  4  2  3
  4  5  1  0
  5  6  1  0
  6  7  1  0
  7  8  2  0
  7  9  1  0
  9 10  1  0
 10 11  1  0
  3 12  1  0
 12 13  2  0
 13 14  1  0
 13 15  1  0
 15 16  1  0
 16 17  1  0
 17 18  2  0
 18 19  1  0
 19 20  2  0
 20 21  1  0
 21 22  1  0
 22 23  1  0
 23 24  2  0
 23 25  1  0
 25 26  1  0
 26 27  1  0
 21 28  2  0
 15  2  1  0
 28 17  1  0
 10  5  2  0
 27 25  1  0
  1 29  1  0
  1 30  1  0
  4 31  1  0
 12 32  1  0
 14 33  1  0
 14 34  1  0
 14 35  1  0
 16 36  1  0
 16 37  1  0
 18 38  1  0
 19 39  1  0
 20 40  1  0
 25 41  1  0
 26 42  1  0
 26 43  1  0
 27 44  1  0
 27 45  1  0
 28 46  1  0
M  CHG  4   6  -1   9  -1  11  -1  22  -1
M  END
>  <UniqueID>  (64) 
57

>  <SMILES>  (64) 
C=c1c(=Cc2[n-]c(=O)[n-]c2[O-])cc(C)n1Cc1cccc([N-]C(=O)C2CC2)c1

>  <Energy>  (64) 
383.89808957001856

>  <Genealogy>  (64) 
C=c1c(=Cc2[n-]c(=O)[n-]c2[O-])cc(C)n1Cc1cccc([N-]C(=O)C2CC2)c1 (protonated)
C=c1c(=Cc2[n-]c(=O)[n-]c2[O-])cc(C)n1Cc1cccc([N-]C(=O)C2CC2)c1 (3D coordinates assigned)
C=c1c(=Cc2[n-]c(=O)[n-]c2[O-])cc(C)n1Cc1cccc([N-]C(=O)C2CC2)c1 (nonaromatic ring conformer: 383.89808957001856 kcal/mol)

>  <smiles>  (64) 
C=c1c(=Cc2[nH]c(=O)[nH]c2O)cc(C)n1Cc1cccc(NC(=O)C2CC2)c1

>  <score_type>  (64) 
oracle

>  <origin>  (64) 
adg

>  <m_score__min__energy>  (64) 
-17.059999999999999

>  <m_primary>  (64) 
energy

$$$$
64:0
     RDKit          3D

 53 57  0  0  0  0  0  0  0  0999 V2000
   57.9962   22.6132   46.1611 H   0  0  0  0  0  0  0  0  0  0  0  0
   58.6290   23.4510   45.8330 C   0  0  0  0  0  0  0  0  0  0  0  0
   59.6474   23.2594   45.4640 H   0  0  0  0  0  0  0  0  0  0  0  0
   58.1570   24.7110   45.8830 C   0  0  0  0  0  0  0  0  0  0  0  0
   59.0260   25.7300   45.4460 C   0  0  0  0  0  0  0  0  0  0  0  0
   60.0870   25.4967   45.2732 H   0  0  0  0  0  0  0  0  0  0  0  0
   58.5690   27.0240   45.2290 C   0  0  0  0  0  0  0  0  0  0  0  0
   59.2705   27.8006   44.8901 H   0  0  0  0  0  0  0  0  0  0  0  0
   57.2300   27.3460   45.4370 C   0  0  0  0  0  0  0  0  0  0  0  0
   56.7690   28.7280   45.1710 C   0  0  0  0  0  0  0  0  0  0  0  0
   55.5580   28.9340   44.8820 O   0  0  0  0  0  0  0  0  0  0  0  0
   57.6770   29.8420   45.2480 N   0  0  0  0  0  0  0  0  0  0  0  0
   58.2380   30.2650   46.5050 C   0  0  0  0  0  0  0  0  0  0  0  0
   58.6490   29.3240   47.4640 C   0  0  0  0  0  0  0  0  0  0  0  0
   58.4869   28.2510   47.2838 H   0  0  0  0  0  0  0  0  0  0  0  0
   59.2620   29.7460   48.6440 C   0  0  0  0  0  0  0  0  0  0  0  0
   59.5640   29.0066   49.4004 H   0  0  0  0  0  0  0  0  0  0  0  0
   59.4930   31.1050   48.8670 C   0  0  0  0  0  0  0  0  0  0  0  0
   59.9940   31.4324   49.7900 H   0  0  0  0  0  0  0  0  0  0  0  0
   59.0890   32.0500   47.9200 C   0  0  0  0  0  0  0  0  0  0  0  0
   59.2811   33.1182   48.0988 H   0  0  0  0  0  0  0  0  0  0  0  0
   58.4370   31.6450   46.7370 C   0  0  0  0  0  0  0  0  0  0  0  0
   57.9640   32.6040   45.7530 N   0  0  0  0  0  0  0  0  0  0  0  0
   58.0800   34.0560   45.9750 C   0  0  0  0  0  0  0  0  0  0  0  0
   57.1313   34.1714   46.5197 H   0  0  0  0  0  0  0  0  0  0  0  0
   58.7960   34.8000   44.8510 C   0  0  0  0  0  0  0  0  0  0  0  0
   59.1194   34.2557   43.9515 H   0  0  0  0  0  0  0  0  0  0  0  0
   58.5664   35.6829   44.2363 H   0  0  0  0  0  0  0  0  0  0  0  0
   59.5080   34.5720   46.1700 C   0  0  0  0  0  0  0  0  0  0  0  0
   60.3461   33.8618   46.2266 H   0  0  0  0  0  0  0  0  0  0  0  0
   60.0065   35.2198   46.9061 H   0  0  0  0  0  0  0  0  0  0  0  0
   57.3520   32.1380   44.4930 C   0  0  0  0  0  0  0  0  0  0  0  0
   57.6068   32.8442   43.6890 H   0  0  0  0  0  0  0  0  0  0  0  0
   56.2627   32.0854   44.6366 H   0  0  0  0  0  0  0  0  0  0  0  0
   57.8540   30.7450   44.1090 C   0  0  0  0  0  0  0  0  0  0  0  0
   58.9200   30.7979   43.8428 H   0  0  0  0  0  0  0  0  0  0  0  0
   57.2839   30.3700   43.2463 H   0  0  0  0  0  0  0  0  0  0  0  0
   56.3460   26.3630   45.9250 C   0  0  0  0  0  0  0  0  0  0  0  0
   55.0090   26.7080   46.1270 O   0  0  0  0  0  0  0  0  0  0  0  0
   56.8030   25.0480   46.2250 C   0  0  0  0  0  0  0  0  0  0  0  0
   55.9270   24.1980   46.8310 C   0  0  0  0  0  0  0  0  0  0  0  0
   56.1967   23.8383   47.8349 H   0  0  0  0  0  0  0  0  0  0  0  0
   54.6510   23.7140   46.2690 C   0  0  0  0  0  0  0  0  0  0  0  0
   53.8140   22.8590   47.0060 C   0  0  0  0  0  0  0  0  0  0  0  0
   54.1241   22.5148   48.0037 H   0  0  0  0  0  0  0  0  0  0  0  0
   52.5910   22.4450   46.4770 C   0  0  0  0  0  0  0  0  0  0  0  0
   51.9419   21.7715   47.0558 H   0  0  0  0  0  0  0  0  0  0  0  0
   52.1900   22.8850   45.2130 C   0  0  0  0  0  0  0  0  0  0  0  0
   50.9740   22.4710   44.6880 O   0  0  0  0  0  0  0  0  0  0  0  0
   53.0110   23.7480   44.4820 C   0  0  0  0  0  0  0  0  0  0  0  0
   52.6958   24.0917   43.4857 H   0  0  0  0  0  0  0  0  0  0  0  0
   54.2320   24.1760   45.0130 C   0  0  0  0  0  0  0  0  0  0  0  0
   54.8637   24.8751   44.4454 H   0  0  0  0  0  0  0  0  0  0  0  0
  1  2  1  0
  2  3  1  0
  2  4  2  0
  4  5  1  0
  5  6  1  0
  5  7  2  0
  7  8  1  0
  7  9  1  0
  9 10  1  0
 10 11  2  0
 10 12  1  0
 12 13  1  0
 13 14  2  0
 14 15  1  0
 14 16  1  0
 16 17  1  0
 16 18  2  0
 18 19  1  0
 18 20  1  0
 20 21  1  0
 20 22  2  0
 22 23  1  0
 23 24  1  0
 24 25  1  0
 24 26  1  0
 26 27  1  0
 26 28  1  0
 26 29  1  0
 29 30  1  0
 29 31  1  0
 23 32  1  0
 32 33  1  0
 32 34  1  0
 32 35  1  0
 35 36  1  0
 35 37  1  0
  9 38  2  0
 38 39  1  0
 38 40  1  0
 40 41  2  0
 41 42  1  0
 41 43  1  0
 43 44  2  0
 44 45  1  0
 44 46  1  0
 46 47  1  0
 46 48  2  0
 48 49  1  0
 48 50  1  0
 50 51  1  0
 50 52  2  0
 52 53  1  0
 40  4  1  0
 52 43  1  0
 35 12  1  0
 22 13  1  0
 29 24  1  0
M  CHG  2  39  -1  49  -1
M  END
>  <UniqueID>  (65) 
58

>  <SMILES>  (65) 
C=c1ccc(C(=O)N2CCN(C3CC3)c3ccccc32)c([O-])/c1=C/c1ccc([O-])cc1

>  <Energy>  (65) 
359.84307602703865

>  <Genealogy>  (65) 
C=c1ccc(C(=O)N2CCN(C3CC3)c3ccccc32)c([O-])c1=Cc1ccc([O-])cc1 (protonated)
C=c1ccc(C(=O)N2CCN(C3CC3)c3ccccc32)c([O-])/c1=C/c1ccc([O-])cc1 (cis-trans isomerization)
C=c1ccc(C(=O)N2CCN(C3CC3)c3ccccc32)c([O-])/c1=C/c1ccc([O-])cc1 (3D coordinates assigned)
C=c1ccc(C(=O)N2CCN(C3CC3)c3ccccc32)c([O-])/c1=C/c1ccc([O-])cc1 (nonaromatic ring conformer: 359.84307602703865 kcal/mol)

>  <smiles>  (65) 
C=c1ccc(C(=O)N2CCN(C3CC3)c3ccccc32)c(O)c1=Cc1ccc(O)cc1

>  <score_type>  (65) 
oracle

>  <origin>  (65) 
adg

>  <m_score__min__energy>  (65) 
-14.869999999999999

>  <m_primary>  (65) 
energy

$$$$
65:0
     RDKit          3D

 47 50  0  0  0  0  0  0  0  0999 V2000
   59.9946   35.5519   45.6360 H   0  0  0  0  0  0  0  0  0  0  0  0
   59.2500   35.0830   44.9760 C   0  0  0  0  0  0  0  0  0  0  0  0
   58.7754   35.6713   44.1768 H   0  0  0  0  0  0  0  0  0  0  0  0
   58.9220   33.7990   45.1450 C   0  0  0  0  0  0  0  0  0  0  0  0
   58.0120   33.1800   44.3580 N   0  0  0  0  0  0  0  0  0  0  0  0
   58.0000   31.9010   44.7960 C   0  0  0  0  0  0  0  0  0  0  0  0
   57.2120   30.9280   44.3120 C   0  0  0  0  0  0  0  0  0  0  0  0
   56.4626   31.2021   43.5549 H   0  0  0  0  0  0  0  0  0  0  0  0
   57.2860   29.5100   44.7310 C   0  0  0  0  0  0  0  0  0  0  0  0
   58.5080   28.8300   44.6050 C   0  0  0  0  0  0  0  0  0  0  0  0
   59.3900   29.3597   44.2156 H   0  0  0  0  0  0  0  0  0  0  0  0
   58.6120   27.4840   44.9710 C   0  0  0  0  0  0  0  0  0  0  0  0
   59.5771   26.9637   44.8820 H   0  0  0  0  0  0  0  0  0  0  0  0
   57.4930   26.8000   45.4490 C   0  0  0  0  0  0  0  0  0  0  0  0
   57.5786   25.7439   45.7446 H   0  0  0  0  0  0  0  0  0  0  0  0
   56.2640   27.4570   45.5520 C   0  0  0  0  0  0  0  0  0  0  0  0
   55.1460   26.7700   46.0090 O   0  0  0  0  0  0  0  0  0  0  0  0
   56.1560   28.8050   45.1890 C   0  0  0  0  0  0  0  0  0  0  0  0
   55.1844   29.3156   45.2618 H   0  0  0  0  0  0  0  0  0  0  0  0
   58.8930   31.7800   45.8380 C   0  0  0  0  0  0  0  0  0  0  0  0
   59.1240   30.7330   46.5020 O   0  0  0  0  0  0  0  0  0  0  0  0
   59.4780   32.9700   46.0670 N   0  0  0  0  0  0  0  0  0  0  0  0
   60.4470   33.2670   47.0890 C   0  0  0  0  0  0  0  0  0  0  0  0
   61.8200   33.2140   46.8060 C   0  0  0  0  0  0  0  0  0  0  0  0
   62.1613   32.9288   45.7999 H   0  0  0  0  0  0  0  0  0  0  0  0
   62.7560   33.5220   47.7970 C   0  0  0  0  0  0  0  0  0  0  0  0
   63.8309   33.4597   47.5716 H   0  0  0  0  0  0  0  0  0  0  0  0
   62.3340   33.9100   49.0770 C   0  0  0  0  0  0  0  0  0  0  0  0
   63.3300   34.2150   50.1230 C   0  0  0  0  0  0  0  0  0  0  0  0
   63.1500   35.2240   50.8590 O   0  0  0  0  0  0  0  0  0  0  0  0
   64.4900   33.3870   50.3260 N   0  0  0  0  0  0  0  0  0  0  0  0
   65.6470   33.8340   51.0850 C   0  0  0  0  0  0  0  0  0  0  0  0
   66.2533   34.5290   50.4854 H   0  0  0  0  0  0  0  0  0  0  0  0
   65.3496   34.3691   51.9989 H   0  0  0  0  0  0  0  0  0  0  0  0
   66.4440   32.5760   51.4060 C   0  0  0  0  0  0  0  0  0  0  0  0
   67.5137   32.7414   51.2103 H   0  0  0  0  0  0  0  0  0  0  0  0
   66.3447   32.2965   52.4653 H   0  0  0  0  0  0  0  0  0  0  0  0
   65.9000   31.4850   50.4880 C   0  0  0  0  0  0  0  0  0  0  0  0
   66.5612   31.3516   49.6191 H   0  0  0  0  0  0  0  0  0  0  0  0
   65.8413   30.5156   51.0046 H   0  0  0  0  0  0  0  0  0  0  0  0
   64.5260   31.9620   50.0390 C   0  0  0  0  0  0  0  0  0  0  0  0
   64.3916   31.7844   48.9618 H   0  0  0  0  0  0  0  0  0  0  0  0
   63.7199   31.4232   50.5584 H   0  0  0  0  0  0  0  0  0  0  0  0
   60.9600   33.9530   49.3620 C   0  0  0  0  0  0  0  0  0  0  0  0
   60.6188   34.2305   50.3703 H   0  0  0  0  0  0  0  0  0  0  0  0
   60.0230   33.6450   48.3710 C   0  0  0  0  0  0  0  0  0  0  0  0
   58.9481   33.6995   48.5981 H   0  0  0  0  0  0  0  0  0  0  0  0
  1  2  1  0
  2  3  1  0
  2  4  2  0
  4  5  1  0
  5  6  1  0
  6  7  2  0
  7  8  1  0
  7  9  1  0
  9 10  2  0
 10 11  1  0
 10 12  1  0
 12 13  1  0
 12 14  2  0
 14 15  1  0
 14 16  1  0
 16 17  1  0
 16 18  2  0
 18 19  1  0
  6 20  1  0
 20 21  2  0
 20 22  1  0
 22 23  1  0
 23 24  2  0
 24 25  1  0
 24 26  1  0
 26 27  1  0
 26 28  2  0
 28 29  1  0
 29 30  2  0
 29 31  1  0
 31 32  1  0
 32 33  1  0
 32 34  1  0
 32 35  1  0
 35 36  1  0
 35 37  1  0
 35 38  1  0
 38 39  1  0
 38 40  1  0
 38 41  1  0
 41 42  1  0
 41 43  1  0
 28 44  1  0
 44 45  1  0
 44 46  2  0
 46 47  1  0
 22  4  1  0
 46 23  1  0
 18  9  1  0
 41 31  1  0
M  CHG  2   5  -1  17  -1
M  END
>  <UniqueID>  (66) 
59

>  <SMILES>  (66) 
C=c1[n-]/c(=C\c2cccc([O-])c2)c(=O)n1-c1ccc(C(=O)N2CCCC2)cc1

>  <Energy>  (66) 
99.04638577393017

>  <Genealogy>  (66) 
C=c1[n-]c(=Cc2cccc([O-])c2)c(=O)n1-c1ccc(C(=O)N2CCCC2)cc1 (protonated)
C=c1[n-]/c(=C\c2cccc([O-])c2)c(=O)n1-c1ccc(C(=O)N2CCCC2)cc1 (cis-trans isomerization)
C=c1[n-]/c(=C\c2cccc([O-])c2)c(=O)n1-c1ccc(C(=O)N2CCCC2)cc1 (3D coordinates assigned)
C=c1[n-]/c(=C\c2cccc([O-])c2)c(=O)n1-c1ccc(C(=O)N2CCCC2)cc1 (nonaromatic ring conformer: 99.04638577393017 kcal/mol)

>  <smiles>  (66) 
C=c1[nH]c(=Cc2cccc(O)c2)c(=O)n1-c1ccc(C(=O)N2CCCC2)cc1

>  <score_type>  (66) 
oracle

>  <origin>  (66) 
adg

>  <m_score__min__energy>  (66) 
-13.1

>  <m_primary>  (66) 
energy

$$$$
66:0
     RDKit          3D

 69 72  0  0  0  0  0  0  0  0999 V2000
   60.8650   28.9650   44.8640 C   0  0  0  0  0  0  0  0  0  0  0  0
   60.7380   27.7180   45.7320 C   0  0  0  0  0  0  0  0  0  0  0  0
   59.2930   27.3840   45.9750 C   0  0  0  0  0  0  0  0  0  0  0  0
   58.6700   26.2200   45.5580 C   0  0  0  0  0  0  0  0  0  0  0  0
   57.3700   26.2800   46.0240 C   0  0  0  0  0  0  0  0  0  0  0  0
   56.3040   25.3180   45.6760 C   0  0  0  0  0  0  0  0  0  0  0  0
   55.2050   25.3890   46.2830 O   0  0  0  0  0  0  0  0  0  0  0  0
   56.5160   24.2740   44.7130 N   0  0  0  0  0  0  0  0  0  0  0  0
   56.0550   22.9190   45.0200 C   0  0  0  0  0  0  0  0  0  0  0  0
   57.1780   24.5400   43.4360 C   0  0  0  0  0  0  0  0  0  0  0  0
   57.1780   27.4270   46.7100 N   0  0  0  0  0  0  0  0  0  0  0  0
   58.3430   28.1050   46.6920 C   0  0  0  0  0  0  0  0  0  0  0  0
   58.4710   29.4720   47.2380 C   0  0  0  0  0  0  0  0  0  0  0  0
   58.6870   29.6320   48.4700 O   0  0  0  0  0  0  0  0  0  0  0  0
   58.2860   30.6150   46.3950 N   0  0  0  0  0  0  0  0  0  0  0  0
   58.8120   31.9180   46.6790 C   0  0  0  0  0  0  0  0  0  0  0  0
   58.0390   32.8140   47.4260 C   0  0  0  0  0  0  0  0  0  0  0  0
   58.5620   34.0570   47.7980 C   0  0  0  0  0  0  0  0  0  0  0  0
   59.8730   34.3990   47.4520 C   0  0  0  0  0  0  0  0  0  0  0  0
   60.6650   33.5090   46.7120 C   0  0  0  0  0  0  0  0  0  0  0  0
   62.1200   33.8010   46.4700 C   0  0  0  0  0  0  0  0  0  0  0  0
   62.9470   32.9250   47.3640 C   0  0  0  0  0  0  0  0  0  0  0  0
   63.9480   32.3220   46.8880 O   0  0  0  0  0  0  0  0  0  0  0  0
   62.5190   32.6400   48.7020 N   0  0  0  0  0  0  0  0  0  0  0  0
   62.2320   31.2540   49.0890 C   0  0  0  0  0  0  0  0  0  0  0  0
   60.8720   31.1880   49.7990 C   0  0  0  0  0  0  0  0  0  0  0  0
   60.6930   32.3060   50.7380 N   0  0  0  0  0  0  0  0  0  0  0  0
   59.3610   32.7000   51.1200 C   0  0  0  0  0  0  0  0  0  0  0  0
   59.0330   33.9180   51.0650 O   0  0  0  0  0  0  0  0  0  0  0  0
   58.3560   31.7120   51.5560 C   0  0  0  0  0  0  0  0  0  0  0  0
   58.7420   30.4340   51.9960 C   0  0  0  0  0  0  0  0  0  0  0  0
   57.7650   29.5460   52.4500 C   0  0  0  0  0  0  0  0  0  0  0  0
   56.4210   29.9320   52.4590 C   0  0  0  0  0  0  0  0  0  0  0  0
   56.0760   31.2130   52.0240 C   0  0  0  0  0  0  0  0  0  0  0  0
   57.0400   32.0680   51.5920 N   0  0  0  0  0  0  0  0  0  0  0  0
   61.8220   33.2090   51.0020 C   0  0  0  0  0  0  0  0  0  0  0  0
   62.3720   33.7340   49.6740 C   0  0  0  0  0  0  0  0  0  0  0  0
   60.1270   32.2710   46.3220 C   0  0  0  0  0  0  0  0  0  0  0  0
   60.9554   29.8523   45.5079 H   0  0  0  0  0  0  0  0  0  0  0  0
   61.7592   28.8802   44.2289 H   0  0  0  0  0  0  0  0  0  0  0  0
   59.9721   29.0622   44.2289 H   0  0  0  0  0  0  0  0  0  0  0  0
   61.2231   26.8725   45.2223 H   0  0  0  0  0  0  0  0  0  0  0  0
   61.2239   27.9103   46.7000 H   0  0  0  0  0  0  0  0  0  0  0  0
   59.1212   25.4066   44.9708 H   0  0  0  0  0  0  0  0  0  0  0  0
   56.0096   22.7855   46.1109 H   0  0  0  0  0  0  0  0  0  0  0  0
   55.0542   22.7659   44.5899 H   0  0  0  0  0  0  0  0  0  0  0  0
   56.7548   22.1874   44.5899 H   0  0  0  0  0  0  0  0  0  0  0  0
   58.1840   24.9442   43.6217 H   0  0  0  0  0  0  0  0  0  0  0  0
   57.2588   23.6045   42.8630 H   0  0  0  0  0  0  0  0  0  0  0  0
   56.5890   25.2713   42.8630 H   0  0  0  0  0  0  0  0  0  0  0  0
   56.2710   27.7790   47.0950 H   0  0  0  0  0  0  0  0  0  0  0  0
   57.0157   32.5397   47.7219 H   0  0  0  0  0  0  0  0  0  0  0  0
   57.9407   34.7668   48.3638 H   0  0  0  0  0  0  0  0  0  0  0  0
   60.2851   35.3707   47.7617 H   0  0  0  0  0  0  0  0  0  0  0  0
   62.3681   33.5943   45.4185 H   0  0  0  0  0  0  0  0  0  0  0  0
   62.3290   34.8587   46.6880 H   0  0  0  0  0  0  0  0  0  0  0  0
   62.2066   30.6207   48.1899 H   0  0  0  0  0  0  0  0  0  0  0  0
   63.0174   30.8951   49.7704 H   0  0  0  0  0  0  0  0  0  0  0  0
   60.0734   31.2258   49.0435 H   0  0  0  0  0  0  0  0  0  0  0  0
   60.8295   30.2496   50.3714 H   0  0  0  0  0  0  0  0  0  0  0  0
   59.8011   30.1371   51.9828 H   0  0  0  0  0  0  0  0  0  0  0  0
   58.0522   28.5436   52.8003 H   0  0  0  0  0  0  0  0  0  0  0  0
   55.6443   29.2342   52.8049 H   0  0  0  0  0  0  0  0  0  0  0  0
   55.0229   31.5306   52.0309 H   0  0  0  0  0  0  0  0  0  0  0  0
   61.4803   34.0540   51.6178 H   0  0  0  0  0  0  0  0  0  0  0  0
   62.6125   32.6631   51.5378 H   0  0  0  0  0  0  0  0  0  0  0  0
   61.6793   34.4862   49.2687 H   0  0  0  0  0  0  0  0  0  0  0  0
   63.3604   34.1820   49.8536 H   0  0  0  0  0  0  0  0  0  0  0  0
   60.7385   31.5718   45.7328 H   0  0  0  0  0  0  0  0  0  0  0  0
  1  2  1  0
  2  3  1  0
  3  4  1  0
  4  5  2  0
  5  6  1  0
  6  7  2  0
  6  8  1  0
  8  9  1  0
  8 10  1  0
  5 11  1  0
 11 12  1  0
 12 13  1  0
 13 14  2  0
 13 15  1  0
 15 16  1  0
 16 17  2  0
 17 18  1  0
 18 19  2  0
 19 20  1  0
 20 21  1  0
 21 22  1  0
 22 23  2  0
 22 24  1  0
 24 25  1  0
 25 26  1  0
 26 27  1  0
 27 28  1  0
 28 29  2  0
 28 30  1  0
 30 31  2  0
 31 32  1  0
 32 33  2  0
 33 34  1  0
 34 35  2  0
 27 36  1  0
 36 37  1  0
 20 38  2  0
 12  3  2  0
 38 16  1  0
 37 24  1  0
 35 30  1  0
  1 39  1  0
  1 40  1  0
  1 41  1  0
  2 42  1  0
  2 43  1  0
  4 44  1  0
  9 45  1  0
  9 46  1  0
  9 47  1  0
 10 48  1  0
 10 49  1  0
 10 50  1  0
 11 51  1  0
 17 52  1  0
 18 53  1  0
 19 54  1  0
 21 55  1  0
 21 56  1  0
 25 57  1  0
 25 58  1  0
 26 59  1  0
 26 60  1  0
 31 61  1  0
 32 62  1  0
 33 63  1  0
 34 64  1  0
 36 65  1  0
 36 66  1  0
 37 67  1  0
 37 68  1  0
 38 69  1  0
M  CHG  1  15  -1
M  END
>  <UniqueID>  (67) 
60

>  <SMILES>  (67) 
CCc1cc(C(=O)N(C)C)[nH]c1C(=O)[N-]c1cccc(CC(=O)N2CCN(C(=O)c3ccccn3)CC2)c1

>  <Energy>  (67) 
109.59194799154761

>  <Genealogy>  (67) 
CCc1cc(C(=O)N(C)C)[nH]c1C(=O)[N-]c1cccc(CC(=O)N2CCN(C(=O)c3ccccn3)CC2)c1 (protonated)
CCc1cc(C(=O)N(C)C)[nH]c1C(=O)[N-]c1cccc(CC(=O)N2CCN(C(=O)c3ccccn3)CC2)c1 (3D coordinates assigned)
CCc1cc(C(=O)N(C)C)[nH]c1C(=O)[N-]c1cccc(CC(=O)N2CCN(C(=O)c3ccccn3)CC2)c1 (nonaromatic ring conformer: 109.59194799154761 kcal/mol)

>  <smiles>  (67) 
CCc1cc(C(=O)N(C)C)[nH]c1C(=O)Nc1cccc(CC(=O)N2CCN(C(=O)c3ccccn3)CC2)c1

>  <score_type>  (67) 
oracle

>  <origin>  (67) 
adg

>  <m_score__min__energy>  (67) 
-11.93

>  <m_primary>  (67) 
energy

$$$$
67:0
     RDKit          3D

 39 42  0  0  0  0  0  0  0  0999 V2000
   54.6232   23.3286   45.7913 H   0  0  0  0  0  0  0  0  0  0  0  0
   54.3270   24.3730   45.9690 C   0  0  0  0  0  0  0  0  0  0  0  0
   53.2857   24.6125   46.2305 H   0  0  0  0  0  0  0  0  0  0  0  0
   55.2250   25.3430   45.8680 C   0  0  0  0  0  0  0  0  0  0  0  0
   55.1850   26.7120   46.0220 N   0  0  0  0  0  0  0  0  0  0  0  0
   56.5110   26.9840   45.7500 C   0  0  0  0  0  0  0  0  0  0  0  0
   57.2430   28.0960   45.7030 C   0  0  0  0  0  0  0  0  0  0  0  0
   58.9200   28.1900   46.3350 S   0  0  0  0  0  0  0  0  0  0  0  0
   58.9390   29.9340   45.8510 C   0  0  0  0  0  0  0  0  0  0  0  0
   59.9900   30.6960   45.9400 N   0  0  0  0  0  0  0  0  0  0  0  0
   60.7320   30.9820   47.1330 C   0  0  0  0  0  0  0  0  0  0  0  0
   61.8070   31.8910   47.1310 C   0  0  0  0  0  0  0  0  0  0  0  0
   62.0685   32.4295   46.2081 H   0  0  0  0  0  0  0  0  0  0  0  0
   62.5430   32.1110   48.2990 C   0  0  0  0  0  0  0  0  0  0  0  0
   63.3702   32.8360   48.2982 H   0  0  0  0  0  0  0  0  0  0  0  0
   62.2300   31.4120   49.4670 C   0  0  0  0  0  0  0  0  0  0  0  0
   62.8037   31.5944   50.3876 H   0  0  0  0  0  0  0  0  0  0  0  0
   61.1880   30.4810   49.4660 C   0  0  0  0  0  0  0  0  0  0  0  0
   60.9490   29.9228   50.3832 H   0  0  0  0  0  0  0  0  0  0  0  0
   60.4480   30.2580   48.2990 C   0  0  0  0  0  0  0  0  0  0  0  0
   59.6402   29.5114   48.2970 H   0  0  0  0  0  0  0  0  0  0  0  0
   57.7420   30.4020   45.2230 N   0  0  0  0  0  0  0  0  0  0  0  0
   57.4750   31.8020   44.8810 C   0  0  0  0  0  0  0  0  0  0  0  0
   57.8926   32.0197   43.8869 H   0  0  0  0  0  0  0  0  0  0  0  0
   56.3880   31.9702   44.8754 H   0  0  0  0  0  0  0  0  0  0  0  0
   58.1100   32.7140   45.8990 C   0  0  0  0  0  0  0  0  0  0  0  0
   57.8880   32.4910   47.2680 C   0  0  0  0  0  0  0  0  0  0  0  0
   57.2286   31.6707   47.5877 H   0  0  0  0  0  0  0  0  0  0  0  0
   58.4990   33.3040   48.2270 C   0  0  0  0  0  0  0  0  0  0  0  0
   58.3180   33.1236   49.2969 H   0  0  0  0  0  0  0  0  0  0  0  0
   59.3390   34.3450   47.8270 C   0  0  0  0  0  0  0  0  0  0  0  0
   59.8179   34.9856   48.5821 H   0  0  0  0  0  0  0  0  0  0  0  0
   59.5720   34.5740   46.4680 C   0  0  0  0  0  0  0  0  0  0  0  0
   60.2352   35.3941   46.1557 H   0  0  0  0  0  0  0  0  0  0  0  0
   58.9640   33.7630   45.5040 C   0  0  0  0  0  0  0  0  0  0  0  0
   59.2050   34.0070   44.1910 F   0  0  0  0  0  0  0  0  0  0  0  0
   56.7760   29.3620   45.1530 C   0  0  0  0  0  0  0  0  0  0  0  0
   55.6280   29.5290   44.6600 O   0  0  0  0  0  0  0  0  0  0  0  0
   56.8330   25.3820   45.5070 S   0  0  0  0  0  0  0  0  0  0  0  0
  1  2  1  0
  2  3  1  0
  2  4  2  0
  4  5  1  0
  5  6  1  0
  6  7  2  0
  7  8  1  0
  8  9  1  0
  9 10  2  3
 10 11  1  0
 11 12  2  0
 12 13  1  0
 12 14  1  0
 14 15  1  0
 14 16  2  0
 16 17  1  0
 16 18  1  0
 18 19  1  0
 18 20  2  0
 20 21  1  0
  9 22  1  0
 22 23  1  0
 23 24  1  0
 23 25  1  0
 23 26  1  0
 26 27  2  0
 27 28  1  0
 27 29  1  0
 29 30  1  0
 29 31  2  0
 31 32  1  0
 31 33  1  0
 33 34  1  0
 33 35  2  0
 35 36  1  0
 22 37  1  0
 37 38  2  0
  6 39  1  0
 39  4  1  0
 37  7  1  0
 20 11  1  0
 35 26  1  0
M  CHG  1   5  -1
M  END
>  <UniqueID>  (68) 
61

>  <SMILES>  (68) 
C=c1[n-]/c(=C2/SC(=Nc3ccccc3)N(Cc3ccccc3F)C2=O)s1

>  <Energy>  (68) 
74.98039832064855

>  <Genealogy>  (68) 
C=c1[n-]c(=C2SC(=Nc3ccccc3)N(Cc3ccccc3F)C2=O)s1 (protonated)
C=c1[n-]/c(=C2/SC(=Nc3ccccc3)N(Cc3ccccc3F)C2=O)s1 (cis-trans isomerization)
C=c1[n-]/c(=C2/SC(=Nc3ccccc3)N(Cc3ccccc3F)C2=O)s1 (3D coordinates assigned)
C=c1[n-]/c(=C2/SC(=Nc3ccccc3)N(Cc3ccccc3F)C2=O)s1 (nonaromatic ring conformer: 74.98039832064855 kcal/mol)

>  <smiles>  (68) 
C=c1[nH]c(=C2SC(=Nc3ccccc3)N(Cc3ccccc3F)C2=O)s1

>  <score_type>  (68) 
oracle

>  <origin>  (68) 
adg

>  <m_score__min__energy>  (68) 
-10.800000000000001

>  <m_primary>  (68) 
energy

$$$$
68:0
     RDKit          3D

 56 58  0  0  0  0  0  0  0  0999 V2000
   57.3870   31.9020   41.7090 C   0  0  0  0  0  0  0  0  0  0  0  0
   57.7500   32.0550   42.9850 C   0  0  0  0  0  0  0  0  0  0  0  0
   58.1490   33.2480   43.4850 N   0  0  0  0  0  0  0  0  0  0  0  0
   58.3900   33.0080   44.7910 C   0  0  0  0  0  0  0  0  0  0  0  0
   58.8180   33.9630   45.6310 C   0  0  0  0  0  0  0  0  0  0  0  0
   59.9070   33.7930   46.6120 C   0  0  0  0  0  0  0  0  0  0  0  0
   61.2460   34.0660   46.4020 C   0  0  0  0  0  0  0  0  0  0  0  0
   61.9040   33.6890   47.5560 C   0  0  0  0  0  0  0  0  0  0  0  0
   63.3830   33.8130   47.7660 C   0  0  0  0  0  0  0  0  0  0  0  0
   61.0280   33.1720   48.4530 N   0  0  0  0  0  0  0  0  0  0  0  0
   61.3410   32.7150   49.8140 C   0  0  0  0  0  0  0  0  0  0  0  0
   61.0810   31.2130   49.9660 C   0  0  0  0  0  0  0  0  0  0  0  0
   61.8440   30.4760   49.0290 O   0  0  0  0  0  0  0  0  0  0  0  0
   61.0550   30.1370   47.9080 C   0  0  0  0  0  0  0  0  0  0  0  0
   59.8070   33.2100   47.8670 C   0  0  0  0  0  0  0  0  0  0  0  0
   58.5210   32.7980   48.5280 C   0  0  0  0  0  0  0  0  0  0  0  0
   58.1500   31.6670   45.0460 C   0  0  0  0  0  0  0  0  0  0  0  0
   58.3090   31.0670   46.1430 O   0  0  0  0  0  0  0  0  0  0  0  0
   57.7500   31.0650   43.9120 N   0  0  0  0  0  0  0  0  0  0  0  0
   57.3370   29.6660   43.7640 C   0  0  0  0  0  0  0  0  0  0  0  0
   56.0770   29.4150   44.5310 C   0  0  0  0  0  0  0  0  0  0  0  0
   55.1650   30.2850   44.5420 O   0  0  0  0  0  0  0  0  0  0  0  0
   55.9200   28.1870   45.2490 N   0  0  0  0  0  0  0  0  0  0  0  0
   56.9970   27.4860   45.8820 C   0  0  0  0  0  0  0  0  0  0  0  0
   58.1040   28.2220   46.3240 C   0  0  0  0  0  0  0  0  0  0  0  0
   59.1700   27.5840   46.9610 C   0  0  0  0  0  0  0  0  0  0  0  0
   59.1430   26.2010   47.1520 C   0  0  0  0  0  0  0  0  0  0  0  0
   58.0610   25.4510   46.6880 C   0  0  0  0  0  0  0  0  0  0  0  0
   56.9900   26.0770   46.0270 C   0  0  0  0  0  0  0  0  0  0  0  0
   55.8670   25.2280   45.4940 C   0  0  0  0  0  0  0  0  0  0  0  0
   57.0689   30.9149   41.3422 H   0  0  0  0  0  0  0  0  0  0  0  0
   57.4060   32.7630   41.0247 H   0  0  0  0  0  0  0  0  0  0  0  0
   58.3211   34.9433   45.5849 H   0  0  0  0  0  0  0  0  0  0  0  0
   61.6972   34.4975   45.4963 H   0  0  0  0  0  0  0  0  0  0  0  0
   63.6000   33.8312   48.8442 H   0  0  0  0  0  0  0  0  0  0  0  0
   63.8922   32.9544   47.3039 H   0  0  0  0  0  0  0  0  0  0  0  0
   63.7421   34.7444   47.3039 H   0  0  0  0  0  0  0  0  0  0  0  0
   62.4008   32.9193   50.0265 H   0  0  0  0  0  0  0  0  0  0  0  0
   60.6934   33.2545   50.5208 H   0  0  0  0  0  0  0  0  0  0  0  0
   61.3580   30.8997   50.9834 H   0  0  0  0  0  0  0  0  0  0  0  0
   60.0137   31.0186   49.7841 H   0  0  0  0  0  0  0  0  0  0  0  0
   60.0937   29.7240   48.2476 H   0  0  0  0  0  0  0  0  0  0  0  0
   60.8738   31.0367   47.3016 H   0  0  0  0  0  0  0  0  0  0  0  0
   61.5829   29.3863   47.3016 H   0  0  0  0  0  0  0  0  0  0  0  0
   58.6416   32.8366   49.6207 H   0  0  0  0  0  0  0  0  0  0  0  0
   57.7162   33.4833   48.2235 H   0  0  0  0  0  0  0  0  0  0  0  0
   58.2643   31.7726   48.2235 H   0  0  0  0  0  0  0  0  0  0  0  0
   57.1637   29.4490   42.6996 H   0  0  0  0  0  0  0  0  0  0  0  0
   58.1315   29.0140   44.1559 H   0  0  0  0  0  0  0  0  0  0  0  0
   58.1335   29.3105   46.1680 H   0  0  0  0  0  0  0  0  0  0  0  0
   60.0314   28.1709   47.3125 H   0  0  0  0  0  0  0  0  0  0  0  0
   59.9758   25.7017   47.6690 H   0  0  0  0  0  0  0  0  0  0  0  0
   58.0464   24.3618   46.8408 H   0  0  0  0  0  0  0  0  0  0  0  0
   55.3005   24.7998   46.3341 H   0  0  0  0  0  0  0  0  0  0  0  0
   55.1983   25.8484   44.8792 H   0  0  0  0  0  0  0  0  0  0  0  0
   56.2816   24.4155   44.8792 H   0  0  0  0  0  0  0  0  0  0  0  0
  1  2  2  0
  2  3  1  0
  3  4  1  0
  4  5  2  3
  5  6  1  0
  6  7  1  0
  7  8  2  0
  8  9  1  0
  8 10  1  0
 10 11  1  0
 11 12  1  0
 12 13  1  0
 13 14  1  0
 10 15  1  0
 15 16  1  0
  4 17  1  0
 17 18  2  0
 17 19  1  0
 19 20  1  0
 20 21  1  0
 21 22  2  0
 21 23  1  0
 23 24  1  0
 24 25  2  0
 25 26  1  0
 26 27  2  0
 27 28  1  0
 28 29  2  0
 29 30  1  0
 19  2  1  0
 29 24  1  0
 15  6  2  0
  1 31  1  0
  1 32  1  0
  5 33  1  0
  7 34  1  0
  9 35  1  0
  9 36  1  0
  9 37  1  0
 11 38  1  0
 11 39  1  0
 12 40  1  0
 12 41  1  0
 14 42  1  0
 14 43  1  0
 14 44  1  0
 16 45  1  0
 16 46  1  0
 16 47  1  0
 20 48  1  0
 20 49  1  0
 25 50  1  0
 26 51  1  0
 27 52  1  0
 28 53  1  0
 30 54  1  0
 30 55  1  0
 30 56  1  0
M  CHG  2   3  -1  23  -1
M  END
>  <UniqueID>  (69) 
62

>  <SMILES>  (69) 
C=c1[n-]c(=Cc2cc(C)n(CCOC)c2C)c(=O)n1CC(=O)[N-]c1ccccc1C

>  <Energy>  (69) 
126.50805787970853

>  <Genealogy>  (69) 
C=c1[n-]c(=Cc2cc(C)n(CCOC)c2C)c(=O)n1CC(=O)[N-]c1ccccc1C (protonated)
C=c1[n-]c(=Cc2cc(C)n(CCOC)c2C)c(=O)n1CC(=O)[N-]c1ccccc1C (3D coordinates assigned)
C=c1[n-]c(=Cc2cc(C)n(CCOC)c2C)c(=O)n1CC(=O)[N-]c1ccccc1C (optimized conformer: 126.50805787970853 kcal/mol)

>  <smiles>  (69) 
C=c1[nH]c(=Cc2cc(C)n(CCOC)c2C)c(=O)n1CC(=O)Nc1ccccc1C

>  <score_type>  (69) 
oracle

>  <origin>  (69) 
adg

>  <m_score__min__energy>  (69) 
-11.66

>  <m_primary>  (69) 
energy

$$$$
69:0
     RDKit          3D

 45 47  0  0  0  0  0  0  0  0999 V2000
   57.7110   28.3870   43.4590 N   0  0  0  0  0  0  0  0  0  0  0  0
   57.0170   28.5670   45.0340 S   0  0  0  0  0  0  0  0  0  0  0  0
   57.7490   29.6410   45.7860 O   0  0  0  0  0  0  0  0  0  0  0  0
   55.5780   28.9750   44.8780 O   0  0  0  0  0  0  0  0  0  0  0  0
   57.1220   27.0360   45.9190 C   0  0  0  0  0  0  0  0  0  0  0  0
   55.9670   26.2490   46.0620 C   0  0  0  0  0  0  0  0  0  0  0  0
   56.0280   25.0120   46.7080 C   0  0  0  0  0  0  0  0  0  0  0  0
   57.2410   24.5440   47.2150 C   0  0  0  0  0  0  0  0  0  0  0  0
   58.3960   25.3180   47.0870 C   0  0  0  0  0  0  0  0  0  0  0  0
   58.3450   26.5690   46.4550 C   0  0  0  0  0  0  0  0  0  0  0  0
   59.5790   27.3680   46.3750 C   0  0  0  0  0  0  0  0  0  0  0  0
   60.4910   26.9980   45.5870 O   0  0  0  0  0  0  0  0  0  0  0  0
   59.7500   28.5620   47.1630 N   0  0  0  0  0  0  0  0  0  0  0  0
   59.1950   28.6520   48.5240 C   0  0  0  0  0  0  0  0  0  0  0  0
   58.5920   30.0400   48.7730 C   0  0  0  0  0  0  0  0  0  0  0  0
   59.4150   31.1080   48.1900 N   0  0  0  0  0  0  0  0  0  0  0  0
   58.9990   32.4750   48.3560 C   0  0  0  0  0  0  0  0  0  0  0  0
   58.5240   32.8460   49.4630 O   0  0  0  0  0  0  0  0  0  0  0  0
   59.0980   33.4510   47.2460 C   0  0  0  0  0  0  0  0  0  0  0  0
   58.3390   33.2810   46.0740 C   0  0  0  0  0  0  0  0  0  0  0  0
   58.4270   34.2120   45.0350 C   0  0  0  0  0  0  0  0  0  0  0  0
   59.2630   35.3230   45.1570 C   0  0  0  0  0  0  0  0  0  0  0  0
   60.0100   35.5090   46.3240 C   0  0  0  0  0  0  0  0  0  0  0  0
   59.9260   34.5810   47.3660 C   0  0  0  0  0  0  0  0  0  0  0  0
   60.7390   30.7940   47.6390 C   0  0  0  0  0  0  0  0  0  0  0  0
   60.6400   29.6180   46.6620 C   0  0  0  0  0  0  0  0  0  0  0  0
   57.0210   27.8560   42.8810 H   0  0  0  0  0  0  0  0  0  0  0  0
   57.7830   29.3430   43.0450 H   0  0  0  0  0  0  0  0  0  0  0  0
   55.0077   26.6096   45.6623 H   0  0  0  0  0  0  0  0  0  0  0  0
   55.1172   24.4050   46.8174 H   0  0  0  0  0  0  0  0  0  0  0  0
   57.2872   23.5655   47.7154 H   0  0  0  0  0  0  0  0  0  0  0  0
   59.3514   24.9445   47.4841 H   0  0  0  0  0  0  0  0  0  0  0  0
   58.4105   27.8905   48.6451 H   0  0  0  0  0  0  0  0  0  0  0  0
   60.0056   28.4835   49.2483 H   0  0  0  0  0  0  0  0  0  0  0  0
   57.5892   30.0780   48.3226 H   0  0  0  0  0  0  0  0  0  0  0  0
   58.5451   30.2010   49.8601 H   0  0  0  0  0  0  0  0  0  0  0  0
   57.6730   32.4112   45.9746 H   0  0  0  0  0  0  0  0  0  0  0  0
   57.8357   34.0686   44.1186 H   0  0  0  0  0  0  0  0  0  0  0  0
   59.3340   36.0514   44.3358 H   0  0  0  0  0  0  0  0  0  0  0  0
   60.6650   36.3872   46.4224 H   0  0  0  0  0  0  0  0  0  0  0  0
   60.5108   34.7356   48.2848 H   0  0  0  0  0  0  0  0  0  0  0  0
   61.1302   31.6749   47.1089 H   0  0  0  0  0  0  0  0  0  0  0  0
   61.4149   30.5206   48.4626 H   0  0  0  0  0  0  0  0  0  0  0  0
   60.2498   29.9857   45.7015 H   0  0  0  0  0  0  0  0  0  0  0  0
   61.6456   29.1881   46.5435 H   0  0  0  0  0  0  0  0  0  0  0  0
  1  2  1  0
  2  3  2  0
  2  4  2  0
  2  5  1  0
  5  6  2  0
  6  7  1  0
  7  8  2  0
  8  9  1  0
  9 10  2  0
 10 11  1  0
 11 12  2  0
 11 13  1  0
 13 14  1  0
 14 15  1  0
 15 16  1  0
 16 17  1  0
 17 18  2  0
 17 19  1  0
 19 20  2  0
 20 21  1  0
 21 22  2  0
 22 23  1  0
 23 24  2  0
 16 25  1  0
 25 26  1  0
 10  5  1  0
 26 13  1  0
 24 19  1  0
  1 27  1  0
  1 28  1  0
  6 29  1  0
  7 30  1  0
  8 31  1  0
  9 32  1  0
 14 33  1  0
 14 34  1  0
 15 35  1  0
 15 36  1  0
 20 37  1  0
 21 38  1  0
 22 39  1  0
 23 40  1  0
 24 41  1  0
 25 42  1  0
 25 43  1  0
 26 44  1  0
 26 45  1  0
M  END
>  <UniqueID>  (70) 
63

>  <SMILES>  (70) 
NS(=O)(=O)c1ccccc1C(=O)N1CCN(C(=O)c2ccccc2)CC1

>  <Energy>  (70) 
58.4595415152432

>  <Genealogy>  (70) 
NS(=O)(=O)c1ccccc1C(=O)N1CCN(C(=O)c2ccccc2)CC1 (3D coordinates assigned)
NS(=O)(=O)c1ccccc1C(=O)N1CCN(C(=O)c2ccccc2)CC1 (nonaromatic ring conformer: 58.4595415152432 kcal/mol)

>  <smiles>  (70) 
NS(=O)(=O)c1ccccc1C(=O)N1CCN(C(=O)c2ccccc2)CC1

>  <score_type>  (70) 
oracle

>  <origin>  (70) 
adg

>  <m_score__min__energy>  (70) 
-8.2699999999999996

>  <m_primary>  (70) 
energy

$$$$
70:0
     RDKit          3D

 49 52  0  0  0  0  0  0  0  0999 V2000
   57.0460   31.2750   46.3400 H   0  0  0  0  0  0  0  0  0  0  0  0
   57.2960   31.9410   45.6180 O   0  0  0  0  0  0  0  0  0  0  0  0
   58.0720   33.0710   45.8810 C   0  0  0  0  0  0  0  0  0  0  0  0
   58.4800   33.8770   44.8140 C   0  0  0  0  0  0  0  0  0  0  0  0
   58.1885   33.6156   43.7861 H   0  0  0  0  0  0  0  0  0  0  0  0
   59.2560   35.0120   45.0500 C   0  0  0  0  0  0  0  0  0  0  0  0
   59.5793   35.6487   44.2133 H   0  0  0  0  0  0  0  0  0  0  0  0
   59.6170   35.3300   46.3580 C   0  0  0  0  0  0  0  0  0  0  0  0
   60.2278   36.2227   46.5579 H   0  0  0  0  0  0  0  0  0  0  0  0
   59.2150   34.5380   47.3870 N   0  0  0  0  0  0  0  0  0  0  0  0
   58.4550   33.4220   47.1900 C   0  0  0  0  0  0  0  0  0  0  0  0
   58.0910   32.6730   48.1900 N   0  0  0  0  0  0  0  0  0  0  0  0
   58.9380   31.8690   49.0280 C   0  0  0  0  0  0  0  0  0  0  0  0
   59.0180   32.0850   50.2680 O   0  0  0  0  0  0  0  0  0  0  0  0
   59.6840   30.7390   48.4460 C   0  0  0  0  0  0  0  0  0  0  0  0
   60.9300   30.7340   47.8230 C   0  0  0  0  0  0  0  0  0  0  0  0
   61.9050   31.8380   47.7390 C   0  0  0  0  0  0  0  0  0  0  0  0
   61.8060   32.8100   46.7320 C   0  0  0  0  0  0  0  0  0  0  0  0
   61.0008   32.7447   45.9855 H   0  0  0  0  0  0  0  0  0  0  0  0
   62.7250   33.8600   46.6730 C   0  0  0  0  0  0  0  0  0  0  0  0
   62.6491   34.6111   45.8729 H   0  0  0  0  0  0  0  0  0  0  0  0
   63.7400   33.9590   47.6270 C   0  0  0  0  0  0  0  0  0  0  0  0
   64.4660   34.7836   47.5717 H   0  0  0  0  0  0  0  0  0  0  0  0
   63.8370   33.0060   48.6600 C   0  0  0  0  0  0  0  0  0  0  0  0
   64.8320   33.0660   49.6470 O   0  0  0  0  0  0  0  0  0  0  0  0
   65.2760   31.9490   50.4090 C   0  0  0  0  0  0  0  0  0  0  0  0
   65.1853   32.1772   51.4812 H   0  0  0  0  0  0  0  0  0  0  0  0
   64.6583   31.0715   50.1674 H   0  0  0  0  0  0  0  0  0  0  0  0
   66.3276   31.7350   50.1674 H   0  0  0  0  0  0  0  0  0  0  0  0
   62.9120   31.9550   48.7110 C   0  0  0  0  0  0  0  0  0  0  0  0
   62.9751   31.2135   49.5210 H   0  0  0  0  0  0  0  0  0  0  0  0
   61.1620   29.5120   47.3030 N   0  0  0  0  0  0  0  0  0  0  0  0
   60.1230   28.7480   47.5980 N   0  0  0  0  0  0  0  0  0  0  0  0
   59.9690   27.3760   47.1280 C   0  0  0  0  0  0  0  0  0  0  0  0
   60.6034   27.2195   46.2431 H   0  0  0  0  0  0  0  0  0  0  0  0
   60.2700   26.6820   47.9266 H   0  0  0  0  0  0  0  0  0  0  0  0
   58.5330   27.1220   46.7640 C   0  0  0  0  0  0  0  0  0  0  0  0
   57.8910   25.9470   47.1900 C   0  0  0  0  0  0  0  0  0  0  0  0
   58.4306   25.2264   47.8221 H   0  0  0  0  0  0  0  0  0  0  0  0
   56.5700   25.6900   46.8140 C   0  0  0  0  0  0  0  0  0  0  0  0
   56.0698   24.7723   47.1571 H   0  0  0  0  0  0  0  0  0  0  0  0
   55.8830   26.5980   46.0020 C   0  0  0  0  0  0  0  0  0  0  0  0
   54.5700   26.3410   45.6280 O   0  0  0  0  0  0  0  0  0  0  0  0
   56.5210   27.7620   45.5620 C   0  0  0  0  0  0  0  0  0  0  0  0
   55.9814   28.4747   44.9209 H   0  0  0  0  0  0  0  0  0  0  0  0
   57.8430   28.0220   45.9350 C   0  0  0  0  0  0  0  0  0  0  0  0
   58.3443   28.9339   45.5783 H   0  0  0  0  0  0  0  0  0  0  0  0
   59.2040   29.4550   48.2820 C   0  0  0  0  0  0  0  0  0  0  0  0
   58.2382   29.0755   48.6469 H   0  0  0  0  0  0  0  0  0  0  0  0
  1  2  1  0
  2  3  1  0
  3  4  2  0
  4  5  1  0
  4  6  1  0
  6  7  1  0
  6  8  2  0
  8  9  1  0
  8 10  1  0
 10 11  1  0
 11 12  2  0
 12 13  1  0
 13 14  2  0
 13 15  1  0
 15 16  1  0
 16 17  1  0
 17 18  2  0
 18 19  1  0
 18 20  1  0
 20 21  1  0
 20 22  2  0
 22 23  1  0
 22 24  1  0
 24 25  1  0
 25 26  1  0
 26 27  1  0
 26 28  1  0
 26 29  1  0
 24 30  2  0
 30 31  1  0
 16 32  2  0
 32 33  1  0
 33 34  1  0
 34 35  1  0
 34 36  1  0
 34 37  1  0
 37 38  2  0
 38 39  1  0
 38 40  1  0
 40 41  1  0
 40 42  2  0
 42 43  1  0
 42 44  1  0
 44 45  1  0
 44 46  2  0
 46 47  1  0
 33 48  1  0
 48 49  1  0
 11  3  1  0
 48 15  2  0
 30 17  1  0
 46 37  1  0
M  CHG  2  10  -1  43  -1
M  END
>  <UniqueID>  (71) 
64

>  <SMILES>  (71) 
COc1cccc(-c2nn(Cc3ccc([O-])cc3)cc2C(=O)/N=c2\[n-]cccc2O)c1

>  <Energy>  (71) 
89.23780325168238

>  <Genealogy>  (71) 
COc1cccc(-c2nn(Cc3ccc([O-])cc3)cc2C(=O)N=c2[n-]cccc2O)c1 (protonated)
COc1cccc(-c2nn(Cc3ccc([O-])cc3)cc2C(=O)/N=c2\[n-]cccc2O)c1 (cis-trans isomerization)
COc1cccc(-c2nn(Cc3ccc([O-])cc3)cc2C(=O)/N=c2\[n-]cccc2O)c1 (3D coordinates assigned)
COc1cccc(-c2nn(Cc3ccc([O-])cc3)cc2C(=O)/N=c2\[n-]cccc2O)c1 (optimized conformer: 89.23780325168238 kcal/mol)

>  <smiles>  (71) 
COc1cccc(-c2nn(Cc3ccc(O)cc3)cc2C(=O)N=c2[nH]cccc2O)c1

>  <score_type>  (71) 
oracle

>  <origin>  (71) 
adg

>  <m_score__min__energy>  (71) 
-12.779999999999999

>  <m_primary>  (71) 
energy

$$$$
71:0
     RDKit          3D

 50 53  0  0  0  0  0  0  0  0999 V2000
   57.8180   32.2960   42.9470 C   0  0  0  0  0  0  0  0  0  0  0  0
   57.8810   32.8280   44.3380 C   0  0  0  0  0  0  0  0  0  0  0  0
   58.8270   33.6840   44.7690 N   0  0  0  0  0  0  0  0  0  0  0  0
   58.4490   33.8850   46.0460 C   0  0  0  0  0  0  0  0  0  0  0  0
   59.2060   34.7540   47.0030 C   0  0  0  0  0  0  0  0  0  0  0  0
   59.8660   33.9250   48.1110 C   0  0  0  0  0  0  0  0  0  0  0  0
   61.1900   33.3600   47.6630 C   0  0  0  0  0  0  0  0  0  0  0  0
   62.3350   34.0650   47.7290 N   0  0  0  0  0  0  0  0  0  0  0  0
   63.3450   33.2770   47.4080 N   0  0  0  0  0  0  0  0  0  0  0  0
   62.8610   32.0510   47.1460 C   0  0  0  0  0  0  0  0  0  0  0  0
   61.4910   32.0590   47.2900 C   0  0  0  0  0  0  0  0  0  0  0  0
   60.6000   30.9030   47.0870 C   0  0  0  0  0  0  0  0  0  0  0  0
   61.0530   29.7420   47.2810 O   0  0  0  0  0  0  0  0  0  0  0  0
   59.2530   31.0790   46.6170 N   0  0  0  0  0  0  0  0  0  0  0  0
   58.2730   29.9850   46.6220 C   0  0  0  0  0  0  0  0  0  0  0  0
   58.1340   29.3890   45.2150 C   0  0  0  0  0  0  0  0  0  0  0  0
   57.0630   28.2960   45.2130 C   0  0  0  0  0  0  0  0  0  0  0  0
   57.2490   27.3470   46.3180 N   0  0  0  0  0  0  0  0  0  0  0  0
   56.3260   26.2440   46.4430 C   0  0  0  0  0  0  0  0  0  0  0  0
   55.1510   26.3540   46.0050 O   0  0  0  0  0  0  0  0  0  0  0  0
   56.7390   24.9500   47.0810 C   0  0  0  0  0  0  0  0  0  0  0  0
   56.2560   23.7000   46.3650 C   0  0  0  0  0  0  0  0  0  0  0  0
   57.7050   24.1270   46.2450 C   0  0  0  0  0  0  0  0  0  0  0  0
   58.4260   27.4540   47.1880 C   0  0  0  0  0  0  0  0  0  0  0  0
   58.6470   28.8980   47.6680 C   0  0  0  0  0  0  0  0  0  0  0  0
   57.3400   33.1980   46.3740 N   0  0  0  0  0  0  0  0  0  0  0  0
   56.9810   32.5290   45.2930 N   0  0  0  0  0  0  0  0  0  0  0  0
   57.6887   31.2041   42.9776 H   0  0  0  0  0  0  0  0  0  0  0  0
   56.9675   32.7513   42.4185 H   0  0  0  0  0  0  0  0  0  0  0  0
   58.7513   32.5401   42.4185 H   0  0  0  0  0  0  0  0  0  0  0  0
   59.9861   35.2989   46.4511 H   0  0  0  0  0  0  0  0  0  0  0  0
   58.4969   35.4532   47.4702 H   0  0  0  0  0  0  0  0  0  0  0  0
   60.0300   34.5674   48.9888 H   0  0  0  0  0  0  0  0  0  0  0  0
   59.1987   33.0864   48.3591 H   0  0  0  0  0  0  0  0  0  0  0  0
   63.4649   31.1769   46.8609 H   0  0  0  0  0  0  0  0  0  0  0  0
   59.0270   31.9840   46.1430 H   0  0  0  0  0  0  0  0  0  0  0  0
   57.2960   30.3950   46.9177 H   0  0  0  0  0  0  0  0  0  0  0  0
   57.8458   30.1827   44.5100 H   0  0  0  0  0  0  0  0  0  0  0  0
   59.0966   28.9518   44.9114 H   0  0  0  0  0  0  0  0  0  0  0  0
   56.0737   28.7669   45.3110 H   0  0  0  0  0  0  0  0  0  0  0  0
   57.1446   27.7396   44.2676 H   0  0  0  0  0  0  0  0  0  0  0  0
   56.7084   25.3105   48.1198 H   0  0  0  0  0  0  0  0  0  0  0  0
   55.9937   22.8019   46.9434 H   0  0  0  0  0  0  0  0  0  0  0  0
   55.4501   23.4759   45.6507 H   0  0  0  0  0  0  0  0  0  0  0  0
   58.4940   23.5388   46.7364 H   0  0  0  0  0  0  0  0  0  0  0  0
   58.3856   24.3410   45.4077 H   0  0  0  0  0  0  0  0  0  0  0  0
   58.2822   26.8048   48.0643 H   0  0  0  0  0  0  0  0  0  0  0  0
   59.3096   27.1449   46.6103 H   0  0  0  0  0  0  0  0  0  0  0  0
   58.0339   29.0597   48.5669 H   0  0  0  0  0  0  0  0  0  0  0  0
   59.7248   29.0041   47.8603 H   0  0  0  0  0  0  0  0  0  0  0  0
  1  2  1  0
  2  3  2  0
  3  4  1  0
  4  5  1  0
  5  6  1  0
  6  7  1  0
  7  8  1  0
  8  9  1  0
  9 10  2  0
 10 11  1  0
 11 12  1  0
 12 13  2  0
 12 14  1  0
 14 15  1  0
 15 16  1  0
 16 17  1  0
 17 18  1  0
 18 19  1  0
 19 20  2  0
 19 21  1  0
 21 22  1  0
 22 23  1  0
 18 24  1  0
 24 25  1  0
  4 26  2  0
 26 27  1  0
 27  2  1  0
 11  7  2  0
 25 15  1  0
 23 21  1  0
  1 28  1  0
  1 29  1  0
  1 30  1  0
  5 31  1  0
  5 32  1  0
  6 33  1  0
  6 34  1  0
 10 35  1  0
 14 36  1  0
 15 37  1  0
 16 38  1  0
 16 39  1  0
 17 40  1  0
 17 41  1  0
 21 42  1  0
 22 43  1  0
 22 44  1  0
 23 45  1  0
 23 46  1  0
 24 47  1  0
 24 48  1  0
 25 49  1  0
 25 50  1  0
M  CHG  2   8  -1  27  -1
M  END
>  <UniqueID>  (72) 
65

>  <SMILES>  (72) 
Cc1nc(CCc2[n-]ncc2C(=O)NC2CCN(C(=O)C3CC3)CC2)n[n-]1

>  <Energy>  (72) 
373.39824776033527

>  <Genealogy>  (72) 
Cc1nc(CCc2[n-]ncc2C(=O)NC2CCN(C(=O)C3CC3)CC2)n[n-]1 (protonated)
Cc1nc(CCc2[n-]ncc2C(=O)NC2CCN(C(=O)C3CC3)CC2)n[n-]1 (3D coordinates assigned)
Cc1nc(CCc2[n-]ncc2C(=O)NC2CCN(C(=O)C3CC3)CC2)n[n-]1 (nonaromatic ring conformer: 373.39824776033527 kcal/mol)

>  <smiles>  (72) 
Cc1nc(CCc2[nH]ncc2C(=O)NC2CCN(C(=O)C3CC3)CC2)n[nH]1

>  <score_type>  (72) 
oracle

>  <origin>  (72) 
adg

>  <m_score__min__energy>  (72) 
-11.359999999999999

>  <m_primary>  (72) 
energy

$$$$
72:0
     RDKit          3D

 55 58  0  0  0  0  0  0  0  0999 V2000
   55.5110   24.4710   46.5490 O   0  0  0  0  0  0  0  0  0  0  0  0
   55.8380   25.3630   45.7180 C   0  0  0  0  0  0  0  0  0  0  0  0
   55.5550   26.7360   45.9960 N   0  0  0  0  0  0  0  0  0  0  0  0
   56.2860   27.8340   45.3780 C   0  0  0  0  0  0  0  0  0  0  0  0
   57.7240   27.8000   45.8290 C   0  0  0  0  0  0  0  0  0  0  0  0
   58.3350   26.5490   46.0300 C   0  0  0  0  0  0  0  0  0  0  0  0
   59.6600   26.4660   46.4650 C   0  0  0  0  0  0  0  0  0  0  0  0
   60.2320   25.2520   46.6620 F   0  0  0  0  0  0  0  0  0  0  0  0
   60.3940   27.6280   46.6950 C   0  0  0  0  0  0  0  0  0  0  0  0
   59.8100   28.8780   46.4830 C   0  0  0  0  0  0  0  0  0  0  0  0
   58.4790   28.9830   46.0430 C   0  0  0  0  0  0  0  0  0  0  0  0
   57.9230   30.3350   45.7960 C   0  0  0  0  0  0  0  0  0  0  0  0
   56.9630   30.4700   44.9890 O   0  0  0  0  0  0  0  0  0  0  0  0
   58.5060   31.5030   46.4050 N   0  0  0  0  0  0  0  0  0  0  0  0
   59.0030   31.4680   47.7890 C   0  0  0  0  0  0  0  0  0  0  0  0
   60.3280   32.2510   47.9260 C   0  0  0  0  0  0  0  0  0  0  0  0
   60.5390   33.2170   46.8250 N   0  0  0  0  0  0  0  0  0  0  0  0
   61.6750   34.1270   47.1340 C   0  0  0  0  0  0  0  0  0  0  0  0
   63.0020   33.8360   46.4270 C   0  0  0  0  0  0  0  0  0  0  0  0
   63.6430   33.5350   47.7780 C   0  0  0  0  0  0  0  0  0  0  0  0
   62.3290   33.8520   48.4850 C   0  0  0  0  0  0  0  0  0  0  0  0
   59.2690   33.8500   46.4130 C   0  0  0  0  0  0  0  0  0  0  0  0
   58.4140   32.7940   45.7090 C   0  0  0  0  0  0  0  0  0  0  0  0
   56.5310   25.0200   44.5100 N   0  0  0  0  0  0  0  0  0  0  0  0
   56.6990   23.6770   44.0270 C   0  0  0  0  0  0  0  0  0  0  0  0
   57.7120   22.8340   44.5150 C   0  0  0  0  0  0  0  0  0  0  0  0
   57.8240   21.5270   44.0370 C   0  0  0  0  0  0  0  0  0  0  0  0
   56.9150   21.0660   43.0830 C   0  0  0  0  0  0  0  0  0  0  0  0
   55.9250   21.8850   42.6360 N   0  0  0  0  0  0  0  0  0  0  0  0
   55.7950   23.1610   43.0870 C   0  0  0  0  0  0  0  0  0  0  0  0
   56.2429   27.7326   44.2835 H   0  0  0  0  0  0  0  0  0  0  0  0
   55.8315   28.7901   45.6769 H   0  0  0  0  0  0  0  0  0  0  0  0
   57.7642   25.6275   45.8429 H   0  0  0  0  0  0  0  0  0  0  0  0
   61.4349   27.5601   47.0441 H   0  0  0  0  0  0  0  0  0  0  0  0
   60.3975   29.7905   46.6621 H   0  0  0  0  0  0  0  0  0  0  0  0
   58.2498   31.9182   48.4524 H   0  0  0  0  0  0  0  0  0  0  0  0
   59.1871   30.4197   48.0669 H   0  0  0  0  0  0  0  0  0  0  0  0
   60.3145   32.8010   48.8785 H   0  0  0  0  0  0  0  0  0  0  0  0
   61.1499   31.5209   47.8884 H   0  0  0  0  0  0  0  0  0  0  0  0
   61.1608   35.0767   46.9250 H   0  0  0  0  0  0  0  0  0  0  0  0
   62.9687   32.9757   45.7423 H   0  0  0  0  0  0  0  0  0  0  0  0
   63.4489   34.5763   45.7472 H   0  0  0  0  0  0  0  0  0  0  0  0
   63.9733   32.4922   47.8941 H   0  0  0  0  0  0  0  0  0  0  0  0
   64.5693   34.0474   48.0769 H   0  0  0  0  0  0  0  0  0  0  0  0
   61.8947   33.0010   49.0302 H   0  0  0  0  0  0  0  0  0  0  0  0
   62.2933   34.6046   49.2864 H   0  0  0  0  0  0  0  0  0  0  0  0
   58.7377   34.2293   47.2984 H   0  0  0  0  0  0  0  0  0  0  0  0
   59.4674   34.6923   45.7339 H   0  0  0  0  0  0  0  0  0  0  0  0
   57.3652   33.1256   45.7003 H   0  0  0  0  0  0  0  0  0  0  0  0
   58.7830   32.6684   44.6804 H   0  0  0  0  0  0  0  0  0  0  0  0
   57.0090   25.7940   43.9960 H   0  0  0  0  0  0  0  0  0  0  0  0
   58.4170   23.2041   45.2739 H   0  0  0  0  0  0  0  0  0  0  0  0
   58.6212   20.8665   44.4087 H   0  0  0  0  0  0  0  0  0  0  0  0
   56.9992   20.0409   42.6929 H   0  0  0  0  0  0  0  0  0  0  0  0
   54.9759   23.7925   42.7124 H   0  0  0  0  0  0  0  0  0  0  0  0
  1  2  2  0
  2  3  1  0
  3  4  1  0
  4  5  1  0
  5  6  2  0
  6  7  1  0
  7  8  1  0
  7  9  2  0
  9 10  1  0
 10 11  2  0
 11 12  1  0
 12 13  2  0
 12 14  1  0
 14 15  1  0
 15 16  1  0
 16 17  1  0
 17 18  1  0
 18 19  1  0
 19 20  1  0
 20 21  1  0
 17 22  1  0
 22 23  1  0
  2 24  1  0
 24 25  1  0
 25 26  2  0
 26 27  1  0
 27 28  2  0
 28 29  1  0
 29 30  2  0
 11  5  1  0
 23 14  1  0
 30 25  1  0
 21 18  1  0
  4 31  1  0
  4 32  1  0
  6 33  1  0
  9 34  1  0
 10 35  1  0
 15 36  1  0
 15 37  1  0
 16 38  1  0
 16 39  1  0
 18 40  1  0
 19 41  1  0
 19 42  1  0
 20 43  1  0
 20 44  1  0
 21 45  1  0
 21 46  1  0
 22 47  1  0
 22 48  1  0
 23 49  1  0
 23 50  1  0
 24 51  1  0
 26 52  1  0
 27 53  1  0
 28 54  1  0
 30 55  1  0
M  CHG  1   3  -1
M  END
>  <UniqueID>  (73) 
66

>  <SMILES>  (73) 
O=C([N-]Cc1cc(F)ccc1C(=O)N1CCN(C2CCC2)CC1)Nc1cccnc1

>  <Energy>  (73) 
137.2867618851277

>  <Genealogy>  (73) 
O=C([N-]Cc1cc(F)ccc1C(=O)N1CCN(C2CCC2)CC1)Nc1cccnc1 (protonated)
O=C([N-]Cc1cc(F)ccc1C(=O)N1CCN(C2CCC2)CC1)Nc1cccnc1 (3D coordinates assigned)
O=C([N-]Cc1cc(F)ccc1C(=O)N1CCN(C2CCC2)CC1)Nc1cccnc1 (nonaromatic ring conformer: 137.2867618851277 kcal/mol)

>  <smiles>  (73) 
O=C(NCc1cc(F)ccc1C(=O)N1CCN(C2CCC2)CC1)Nc1cccnc1

>  <score_type>  (73) 
oracle

>  <origin>  (73) 
adg

>  <m_score__min__energy>  (73) 
-11.67

>  <m_primary>  (73) 
energy

$$$$
73:0
     RDKit          3D

 51 53  0  0  0  0  0  0  0  0999 V2000
   63.7690   33.2160   47.0830 C   0  0  0  0  0  0  0  0  0  0  0  0
   64.1390   33.6100   48.5040 C   0  0  0  0  0  0  0  0  0  0  0  0
   63.0380   33.3540   49.3710 O   0  0  0  0  0  0  0  0  0  0  0  0
   62.2040   32.2400   49.2270 C   0  0  0  0  0  0  0  0  0  0  0  0
   62.5470   31.1280   49.7180 O   0  0  0  0  0  0  0  0  0  0  0  0
   60.9590   32.3680   48.5170 N   0  0  0  0  0  0  0  0  0  0  0  0
   60.0860   31.2030   48.3010 C   0  0  0  0  0  0  0  0  0  0  0  0
   59.5170   31.2230   46.8760 C   0  0  0  0  0  0  0  0  0  0  0  0
   59.0520   32.5660   46.4930 N   0  0  0  0  0  0  0  0  0  0  0  0
   58.7370   32.8400   45.1140 C   0  0  0  0  0  0  0  0  0  0  0  0
   59.1940   33.8820   44.5700 O   0  0  0  0  0  0  0  0  0  0  0  0
   57.9020   31.9170   44.3160 C   0  0  0  0  0  0  0  0  0  0  0  0
   57.7930   32.0850   42.9270 C   0  0  0  0  0  0  0  0  0  0  0  0
   57.0100   31.2100   42.1700 C   0  0  0  0  0  0  0  0  0  0  0  0
   56.3090   30.1750   42.7940 C   0  0  0  0  0  0  0  0  0  0  0  0
   56.3730   30.0200   44.1910 C   0  0  0  0  0  0  0  0  0  0  0  0
   55.6820   28.9630   44.8730 N   0  0  0  0  0  0  0  0  0  0  0  0
   56.2740   27.8370   45.5340 C   0  0  0  0  0  0  0  0  0  0  0  0
   57.5200   27.7790   45.7050 O   0  0  0  0  0  0  0  0  0  0  0  0
   55.4730   26.7110   45.9080 N   0  0  0  0  0  0  0  0  0  0  0  0
   55.9560   25.4650   46.4290 C   0  0  0  0  0  0  0  0  0  0  0  0
   55.4480   24.2710   45.8980 C   0  0  0  0  0  0  0  0  0  0  0  0
   55.9100   23.0360   46.3650 C   0  0  0  0  0  0  0  0  0  0  0  0
   56.8960   22.9860   47.3540 C   0  0  0  0  0  0  0  0  0  0  0  0
   57.3530   21.7590   47.8190 O   0  0  0  0  0  0  0  0  0  0  0  0
   57.4270   24.1720   47.8720 C   0  0  0  0  0  0  0  0  0  0  0  0
   56.9670   25.4080   47.4070 C   0  0  0  0  0  0  0  0  0  0  0  0
   57.1800   30.8850   44.9410 C   0  0  0  0  0  0  0  0  0  0  0  0
   59.1270   33.6660   47.4610 C   0  0  0  0  0  0  0  0  0  0  0  0
   60.5220   33.7060   48.0890 C   0  0  0  0  0  0  0  0  0  0  0  0
   63.0162   32.4144   47.1090 H   0  0  0  0  0  0  0  0  0  0  0  0
   63.3568   34.0891   46.5559 H   0  0  0  0  0  0  0  0  0  0  0  0
   64.6663   32.8595   46.5559 H   0  0  0  0  0  0  0  0  0  0  0  0
   65.0086   33.0220   48.8326 H   0  0  0  0  0  0  0  0  0  0  0  0
   64.3873   34.6812   48.5341 H   0  0  0  0  0  0  0  0  0  0  0  0
   60.6680   30.2810   48.4468 H   0  0  0  0  0  0  0  0  0  0  0  0
   59.2542   31.2401   49.0198 H   0  0  0  0  0  0  0  0  0  0  0  0
   60.3020   30.9043   46.1744 H   0  0  0  0  0  0  0  0  0  0  0  0
   58.6556   30.5397   46.8417 H   0  0  0  0  0  0  0  0  0  0  0  0
   58.3267   32.9097   42.4319 H   0  0  0  0  0  0  0  0  0  0  0  0
   56.9452   31.3363   41.0792 H   0  0  0  0  0  0  0  0  0  0  0  0
   55.7057   29.4797   42.1918 H   0  0  0  0  0  0  0  0  0  0  0  0
   54.6817   24.3056   45.1096 H   0  0  0  0  0  0  0  0  0  0  0  0
   55.4968   22.1034   45.9534 H   0  0  0  0  0  0  0  0  0  0  0  0
   58.2074   24.1323   48.6462 H   0  0  0  0  0  0  0  0  0  0  0  0
   57.3964   26.3385   47.8066 H   0  0  0  0  0  0  0  0  0  0  0  0
   57.2497   30.7555   46.0311 H   0  0  0  0  0  0  0  0  0  0  0  0
   58.9295   34.6187   46.9479 H   0  0  0  0  0  0  0  0  0  0  0  0
   58.3767   33.5089   48.2499 H   0  0  0  0  0  0  0  0  0  0  0  0
   61.2363   34.0955   47.3487 H   0  0  0  0  0  0  0  0  0  0  0  0
   60.4831   34.3564   48.9753 H   0  0  0  0  0  0  0  0  0  0  0  0
  1  2  1  0
  2  3  1  0
  3  4  1  0
  4  5  2  0
  4  6  1  0
  6  7  1  0
  7  8  1  0
  8  9  1  0
  9 10  1  0
 10 11  2  0
 10 12  1  0
 12 13  2  0
 13 14  1  0
 14 15  2  0
 15 16  1  0
 16 17  1  0
 17 18  1  0
 18 19  2  0
 18 20  1  0
 20 21  1  0
 21 22  2  0
 22 23  1  0
 23 24  2  0
 24 25  1  0
 24 26  1  0
 26 27  2  0
 16 28  2  0
  9 29  1  0
 29 30  1  0
 30  6  1  0
 28 12  1  0
 27 21  1  0
  1 31  1  0
  1 32  1  0
  1 33  1  0
  2 34  1  0
  2 35  1  0
  7 36  1  0
  7 37  1  0
  8 38  1  0
  8 39  1  0
 13 40  1  0
 14 41  1  0
 15 42  1  0
 22 43  1  0
 23 44  1  0
 26 45  1  0
 27 46  1  0
 28 47  1  0
 29 48  1  0
 29 49  1  0
 30 50  1  0
 30 51  1  0
M  CHG  3  17  -1  20  -1  25  -1
M  END
>  <UniqueID>  (74) 
67

>  <SMILES>  (74) 
CCOC(=O)N1CCN(C(=O)c2cccc([N-]C(=O)[N-]c3ccc([O-])cc3)c2)CC1

>  <Energy>  (74) 
59.0649244778722

>  <Genealogy>  (74) 
CCOC(=O)N1CCN(C(=O)c2cccc([N-]C(=O)[N-]c3ccc([O-])cc3)c2)CC1 (protonated)
CCOC(=O)N1CCN(C(=O)c2cccc([N-]C(=O)[N-]c3ccc([O-])cc3)c2)CC1 (3D coordinates assigned)
CCOC(=O)N1CCN(C(=O)c2cccc([N-]C(=O)[N-]c3ccc([O-])cc3)c2)CC1 (nonaromatic ring conformer: 59.0649244778722 kcal/mol)

>  <smiles>  (74) 
CCOC(=O)N1CCN(C(=O)c2cccc(NC(=O)Nc3ccc(O)cc3)c2)CC1

>  <score_type>  (74) 
oracle

>  <origin>  (74) 
adg

>  <m_score__min__energy>  (74) 
-14.32

>  <m_primary>  (74) 
energy

$$$$
74:0
     RDKit          3D

 43 45  0  0  0  0  0  0  0  0999 V2000
   59.9190   33.1010   48.5670 H   0  0  0  0  0  0  0  0  0  0  0  0
   60.8590   32.7510   48.8570 N   0  0  0  0  0  0  0  0  0  0  0  0
   61.3560   31.5020   48.3790 C   0  0  0  0  0  0  0  0  0  0  0  0
   62.5640   31.2050   48.5820 O   0  0  0  0  0  0  0  0  0  0  0  0
   60.4670   30.5650   47.6550 C   0  0  0  0  0  0  0  0  0  0  0  0
   59.3260   30.0300   48.2810 C   0  0  0  0  0  0  0  0  0  0  0  0
   59.0963   30.3009   49.3221 H   0  0  0  0  0  0  0  0  0  0  0  0
   58.4820   29.1560   47.5880 C   0  0  0  0  0  0  0  0  0  0  0  0
   57.5956   28.7392   48.0885 H   0  0  0  0  0  0  0  0  0  0  0  0
   58.7600   28.8090   46.2600 C   0  0  0  0  0  0  0  0  0  0  0  0
   57.8520   27.9150   45.5050 C   0  0  0  0  0  0  0  0  0  0  0  0
   57.3720   28.2610   44.3410 N   0  0  0  0  0  0  0  0  0  0  0  0
   56.4250   29.3460   44.0680 C   0  0  0  0  0  0  0  0  0  0  0  0
   55.6201   29.3177   44.8172 H   0  0  0  0  0  0  0  0  0  0  0  0
   56.0158   29.2071   43.0565 H   0  0  0  0  0  0  0  0  0  0  0  0
   57.1080   30.6890   44.1290 C   0  0  0  0  0  0  0  0  0  0  0  0
   57.4790   31.3450   42.9450 C   0  0  0  0  0  0  0  0  0  0  0  0
   57.2394   30.8937   41.9709 H   0  0  0  0  0  0  0  0  0  0  0  0
   58.1520   32.5700   42.9980 C   0  0  0  0  0  0  0  0  0  0  0  0
   58.4426   33.0761   42.0656 H   0  0  0  0  0  0  0  0  0  0  0  0
   58.4590   33.1580   44.2400 C   0  0  0  0  0  0  0  0  0  0  0  0
   59.1390   34.3810   44.3460 O   0  0  0  0  0  0  0  0  0  0  0  0
   59.5680   34.9580   45.5750 C   0  0  0  0  0  0  0  0  0  0  0  0
   59.1444   34.3882   46.4152 H   0  0  0  0  0  0  0  0  0  0  0  0
   60.6663   34.9299   45.6296 H   0  0  0  0  0  0  0  0  0  0  0  0
   59.2248   36.0017   45.6296 H   0  0  0  0  0  0  0  0  0  0  0  0
   58.0760   32.5070   45.4170 C   0  0  0  0  0  0  0  0  0  0  0  0
   58.3082   32.9609   46.3917 H   0  0  0  0  0  0  0  0  0  0  0  0
   57.4010   31.2850   45.3650 C   0  0  0  0  0  0  0  0  0  0  0  0
   57.0976   30.7874   46.2979 H   0  0  0  0  0  0  0  0  0  0  0  0
   57.5660   26.5510   46.0240 C   0  0  0  0  0  0  0  0  0  0  0  0
   56.2460   26.1110   46.2450 C   0  0  0  0  0  0  0  0  0  0  0  0
   55.1610   26.9310   45.9560 O   0  0  0  0  0  0  0  0  0  0  0  0
   56.0160   24.8630   46.7270 N   0  0  0  0  0  0  0  0  0  0  0  0
   57.0380   24.0160   47.0020 C   0  0  0  0  0  0  0  0  0  0  0  0
   56.7960   22.8650   47.4470 O   0  0  0  0  0  0  0  0  0  0  0  0
   58.3190   24.4080   46.7970 N   0  0  0  0  0  0  0  0  0  0  0  0
   58.6080   25.6470   46.3190 C   0  0  0  0  0  0  0  0  0  0  0  0
   59.8150   25.9740   46.1640 O   0  0  0  0  0  0  0  0  0  0  0  0
   59.9060   29.3210   45.6380 C   0  0  0  0  0  0  0  0  0  0  0  0
   60.1432   29.0324   44.6034 H   0  0  0  0  0  0  0  0  0  0  0  0
   60.7490   30.1970   46.3270 C   0  0  0  0  0  0  0  0  0  0  0  0
   61.6408   30.6023   45.8265 H   0  0  0  0  0  0  0  0  0  0  0  0
  1  2  1  0
  2  3  1  0
  3  4  2  0
  3  5  1  0
  5  6  2  0
  6  7  1  0
  6  8  1  0
  8  9  1  0
  8 10  2  0
 10 11  1  0
 11 12  2  0
 12 13  1  0
 13 14  1  0
 13 15  1  0
 13 16  1  0
 16 17  2  0
 17 18  1  0
 17 19  1  0
 19 20  1  0
 19 21  2  0
 21 22  1  0
 22 23  1  0
 23 24  1  0
 23 25  1  0
 23 26  1  0
 21 27  1  0
 27 28  1  0
 27 29  2  0
 29 30  1  0
 11 31  1  0
 31 32  2  0
 32 33  1  0
 32 34  1  0
 34 35  1  0
 35 36  2  0
 35 37  1  0
 37 38  1  0
 38 39  2  0
 10 40  1  0
 40 41  1  0
 40 42  2  0
 42 43  1  0
 42  5  1  0
 29 16  1  0
 38 31  1  0
M  CHG  4   2  -1  33  -1  34  -1  37  -1
M  END
>  <UniqueID>  (75) 
68

>  <SMILES>  (75) 
COc1ccc(C/N=C(\c2ccc(C([NH-])=O)cc2)c2c([O-])[n-]c(=O)[n-]c2=O)cc1

>  <Energy>  (75) 
56.33877515216803

>  <Genealogy>  (75) 
COc1ccc(CN=C(c2ccc(C([NH-])=O)cc2)c2c([O-])[n-]c(=O)[n-]c2=O)cc1 (protonated)
COc1ccc(C/N=C(\c2ccc(C([NH-])=O)cc2)c2c([O-])[n-]c(=O)[n-]c2=O)cc1 (cis-trans isomerization)
COc1ccc(C/N=C(\c2ccc(C([NH-])=O)cc2)c2c([O-])[n-]c(=O)[n-]c2=O)cc1 (3D coordinates assigned)
COc1ccc(C/N=C(\c2ccc(C([NH-])=O)cc2)c2c([O-])[n-]c(=O)[n-]c2=O)cc1 (optimized conformer: 56.33877515216803 kcal/mol)

>  <smiles>  (75) 
COc1ccc(CN=C(c2ccc(C(N)=O)cc2)c2c(O)[nH]c(=O)[nH]c2=O)cc1

>  <score_type>  (75) 
oracle

>  <origin>  (75) 
adg

>  <m_score__min__energy>  (75) 
-15.73

>  <m_primary>  (75) 
energy

$$$$
75:0
     RDKit          3D

 40 42  0  0  0  0  0  0  0  0999 V2000
   56.6980   31.9460   52.0920 N   0  0  0  0  0  0  0  0  0  0  0  0
   57.8260   32.2140   51.2540 C   0  0  0  0  0  0  0  0  0  0  0  0
   58.5810   33.3800   51.4380 C   0  0  0  0  0  0  0  0  0  0  0  0
   59.6830   33.6420   50.6200 C   0  0  0  0  0  0  0  0  0  0  0  0
   60.0390   32.7450   49.5950 C   0  0  0  0  0  0  0  0  0  0  0  0
   61.2130   33.0100   48.7280 C   0  0  0  0  0  0  0  0  0  0  0  0
   61.2590   32.8460   47.4060 C   0  0  0  0  0  0  0  0  0  0  0  0
   60.2150   32.1970   46.5780 C   0  0  0  0  0  0  0  0  0  0  0  0
   59.1660   32.9520   46.0230 C   0  0  0  0  0  0  0  0  0  0  0  0
   58.1820   32.3320   45.2490 C   0  0  0  0  0  0  0  0  0  0  0  0
   58.2260   30.9490   45.0260 C   0  0  0  0  0  0  0  0  0  0  0  0
   56.9760   30.1680   44.0630 S   0  0  0  0  0  0  0  0  0  0  0  0
   57.5230   28.6080   43.5570 N   0  0  0  0  0  0  0  0  0  0  0  0
   55.7230   30.0190   44.8790 O   0  0  0  0  0  0  0  0  0  0  0  0
   56.6660   31.0060   42.8540 O   0  0  0  0  0  0  0  0  0  0  0  0
   59.2530   30.1900   45.5980 C   0  0  0  0  0  0  0  0  0  0  0  0
   60.2400   30.8080   46.3720 C   0  0  0  0  0  0  0  0  0  0  0  0
   62.5560   33.3010   46.8340 C   0  0  0  0  0  0  0  0  0  0  0  0
   63.3290   33.8700   48.0260 C   0  0  0  0  0  0  0  0  0  0  0  0
   62.4920   33.5520   49.2650 C   0  0  0  0  0  0  0  0  0  0  0  0
   59.2900   31.5680   49.4280 C   0  0  0  0  0  0  0  0  0  0  0  0
   58.1890   31.3070   50.2480 C   0  0  0  0  0  0  0  0  0  0  0  0
   56.8270   31.6900   53.0960 H   0  0  0  0  0  0  0  0  0  0  0  0
   55.7270   32.0050   51.7140 H   0  0  0  0  0  0  0  0  0  0  0  0
   58.3050   34.0920   52.2297 H   0  0  0  0  0  0  0  0  0  0  0  0
   60.2761   34.5548   50.7779 H   0  0  0  0  0  0  0  0  0  0  0  0
   59.1202   34.0368   46.1994 H   0  0  0  0  0  0  0  0  0  0  0  0
   57.3695   32.9316   44.8129 H   0  0  0  0  0  0  0  0  0  0  0  0
   56.6870   28.0910   43.2050 H   0  0  0  0  0  0  0  0  0  0  0  0
   58.1520   28.7570   42.7370 H   0  0  0  0  0  0  0  0  0  0  0  0
   59.2840   29.1021   45.4380 H   0  0  0  0  0  0  0  0  0  0  0  0
   61.0407   30.2028   46.8221 H   0  0  0  0  0  0  0  0  0  0  0  0
   63.1001   32.4562   46.3866 H   0  0  0  0  0  0  0  0  0  0  0  0
   62.4200   34.0435   46.0339 H   0  0  0  0  0  0  0  0  0  0  0  0
   64.3183   33.3949   48.1014 H   0  0  0  0  0  0  0  0  0  0  0  0
   63.4930   34.9524   47.9188 H   0  0  0  0  0  0  0  0  0  0  0  0
   62.9973   32.8034   49.8929 H   0  0  0  0  0  0  0  0  0  0  0  0
   62.3353   34.4366   49.8998 H   0  0  0  0  0  0  0  0  0  0  0  0
   59.5722   30.8471   48.6465 H   0  0  0  0  0  0  0  0  0  0  0  0
   57.6047   30.3863   50.1038 H   0  0  0  0  0  0  0  0  0  0  0  0
  1  2  1  0
  2  3  2  0
  3  4  1  0
  4  5  2  0
  5  6  1  0
  6  7  2  0
  7  8  1  0
  8  9  2  0
  9 10  1  0
 10 11  2  0
 11 12  1  0
 12 13  1  0
 12 14  2  0
 12 15  2  0
 11 16  1  0
 16 17  2  0
  7 18  1  0
 18 19  1  0
 19 20  1  0
  5 21  1  0
 21 22  2  0
 22  2  1  0
 20  6  1  0
 17  8  1  0
  1 23  1  0
  1 24  1  0
  3 25  1  0
  4 26  1  0
  9 27  1  0
 10 28  1  0
 13 29  1  0
 13 30  1  0
 16 31  1  0
 17 32  1  0
 18 33  1  0
 18 34  1  0
 19 35  1  0
 19 36  1  0
 20 37  1  0
 20 38  1  0
 21 39  1  0
 22 40  1  0
M  END
>  <UniqueID>  (76) 
69

>  <SMILES>  (76) 
Nc1ccc(C2=C(c3ccc(S(N)(=O)=O)cc3)CCC2)cc1

>  <Energy>  (76) 
52.30972911715177

>  <Genealogy>  (76) 
Nc1ccc(C2=C(c3ccc(S(N)(=O)=O)cc3)CCC2)cc1 (3D coordinates assigned)
Nc1ccc(C2=C(c3ccc(S(N)(=O)=O)cc3)CCC2)cc1 (nonaromatic ring conformer: 52.30972911715177 kcal/mol)

>  <smiles>  (76) 
Nc1ccc(C2=C(c3ccc(S(N)(=O)=O)cc3)CCC2)cc1

>  <score_type>  (76) 
oracle

>  <origin>  (76) 
adg

>  <m_score__min__energy>  (76) 
-8.2400000000000002

>  <m_primary>  (76) 
energy

$$$$
76:0
     RDKit          3D

 35 36  0  0  0  0  0  0  0  0999 V2000
   56.1640   29.2250   45.2260 O   0  0  0  0  0  0  0  0  0  0  0  0
   57.1570   29.9180   45.0470 C   0  0  0  0  0  0  0  0  0  0  0  0
   57.0820   31.1240   44.1670 C   0  0  0  0  0  0  0  0  0  0  0  0
   56.6380   32.2840   44.9390 N   0  0  0  0  0  0  0  0  0  0  0  0
   57.5850   33.1370   45.2410 C   0  0  0  0  0  0  0  0  0  0  0  0
   58.5440   33.4590   44.3530 N   0  0  0  0  0  0  0  0  0  0  0  0
   59.5420   34.3160   44.5770 C   0  0  0  0  0  0  0  0  0  0  0  0
   59.6080   34.9260   45.8100 C   0  0  0  0  0  0  0  0  0  0  0  0
   58.6240   34.5980   46.7280 C   0  0  0  0  0  0  0  0  0  0  0  0
   57.6340   33.7240   46.4520 N   0  0  0  0  0  0  0  0  0  0  0  0
   58.4750   29.5680   45.7120 C   0  0  0  0  0  0  0  0  0  0  0  0
   59.2190   30.7540   45.9300 N   0  0  0  0  0  0  0  0  0  0  0  0
   59.4650   31.1930   47.5400 S   0  0  0  0  0  0  0  0  0  0  0  0
   58.2110   31.9120   48.0590 O   0  0  0  0  0  0  0  0  0  0  0  0
   59.5470   29.9220   48.3850 O   0  0  0  0  0  0  0  0  0  0  0  0
   60.8490   32.1900   47.8490 C   0  0  0  0  0  0  0  0  0  0  0  0
   62.0300   31.9250   47.1470 C   0  0  0  0  0  0  0  0  0  0  0  0
   63.1470   32.6980   47.3140 C   0  0  0  0  0  0  0  0  0  0  0  0
   63.1690   33.7710   48.1760 C   0  0  0  0  0  0  0  0  0  0  0  0
   62.0140   34.0450   48.8750 C   0  0  0  0  0  0  0  0  0  0  0  0
   60.8850   33.2590   48.7030 C   0  0  0  0  0  0  0  0  0  0  0  0
   59.8110   33.5710   49.4580 F   0  0  0  0  0  0  0  0  0  0  0  0
   58.0767   31.3279   43.7440 H   0  0  0  0  0  0  0  0  0  0  0  0
   56.3621   30.9340   43.3573 H   0  0  0  0  0  0  0  0  0  0  0  0
   60.2903   34.5291   43.7994 H   0  0  0  0  0  0  0  0  0  0  0  0
   60.4066   35.6418   46.0549 H   0  0  0  0  0  0  0  0  0  0  0  0
   58.6508   35.0689   47.7217 H   0  0  0  0  0  0  0  0  0  0  0  0
   56.9000   33.4960   47.1720 H   0  0  0  0  0  0  0  0  0  0  0  0
   58.2807   29.0738   46.6753 H   0  0  0  0  0  0  0  0  0  0  0  0
   59.0465   28.8886   45.0625 H   0  0  0  0  0  0  0  0  0  0  0  0
   58.9400   31.5450   45.3180 H   0  0  0  0  0  0  0  0  0  0  0  0
   62.0613   31.0777   46.4462 H   0  0  0  0  0  0  0  0  0  0  0  0
   64.0546   32.4545   46.7421 H   0  0  0  0  0  0  0  0  0  0  0  0
   64.0729   34.3852   48.3017 H   0  0  0  0  0  0  0  0  0  0  0  0
   61.9873   34.8934   49.5746 H   0  0  0  0  0  0  0  0  0  0  0  0
  1  2  2  0
  2  3  1  0
  3  4  1  0
  4  5  2  3
  5  6  1  0
  6  7  2  0
  7  8  1  0
  8  9  2  0
  9 10  1  0
  2 11  1  0
 11 12  1  0
 12 13  1  0
 13 14  2  0
 13 15  2  0
 13 16  1  0
 16 17  2  0
 17 18  1  0
 18 19  2  0
 19 20  1  0
 20 21  2  0
 21 22  1  0
 10  5  1  0
 21 16  1  0
  3 23  1  0
  3 24  1  0
  7 25  1  0
  8 26  1  0
  9 27  1  0
 10 28  1  0
 11 29  1  0
 11 30  1  0
 12 31  1  0
 17 32  1  0
 18 33  1  0
 19 34  1  0
 20 35  1  0
M  END
>  <smiles>  (77) 
O=C(CN=c1nccc[nH]1)CNS(=O)(=O)c1ccccc1F

>  <score_type>  (77) 
oracle

>  <origin>  (77) 
adg

>  <m_score__min__energy>  (77) 
-7.2300000000000004

>  <m_primary>  (77) 
energy

$$$$
77:0
     RDKit          3D

 71 75  0  0  0  0  0  0  0  0999 V2000
   60.1216   35.9599   47.1703 H   0  0  0  0  0  0  0  0  0  0  0  0
   59.6020   35.0170   47.3960 C   0  0  0  0  0  0  0  0  0  0  0  0
   59.6060   34.5790   48.6600 C   0  0  0  0  0  0  0  0  0  0  0  0
   58.6595   34.5168   49.2170 H   0  0  0  0  0  0  0  0  0  0  0  0
   60.8860   34.1720   49.3260 C   0  0  0  0  0  0  0  0  0  0  0  0
   61.5717   35.0319   49.3476 H   0  0  0  0  0  0  0  0  0  0  0  0
   61.3334   33.3429   48.7581 H   0  0  0  0  0  0  0  0  0  0  0  0
   60.6400   33.7350   50.6610 O   0  0  0  0  0  0  0  0  0  0  0  0
   59.7650   32.6950   51.0290 C   0  0  0  0  0  0  0  0  0  0  0  0
   58.3770   32.9040   51.1490 C   0  0  0  0  0  0  0  0  0  0  0  0
   57.9641   33.9135   51.0062 H   0  0  0  0  0  0  0  0  0  0  0  0
   57.5210   31.8440   51.4470 C   0  0  0  0  0  0  0  0  0  0  0  0
   56.4432   32.0294   51.5655 H   0  0  0  0  0  0  0  0  0  0  0  0
   58.0220   30.5490   51.5960 C   0  0  0  0  0  0  0  0  0  0  0  0
   57.1130   29.5050   51.8230 O   0  0  0  0  0  0  0  0  0  0  0  0
   56.0340   29.5740   52.7440 C   0  0  0  0  0  0  0  0  0  0  0  0
   56.4266   29.5489   53.7713 H   0  0  0  0  0  0  0  0  0  0  0  0
   55.4772   30.5096   52.5870 H   0  0  0  0  0  0  0  0  0  0  0  0
   55.3626   28.7170   52.5870 H   0  0  0  0  0  0  0  0  0  0  0  0
   59.4060   30.3330   51.4990 C   0  0  0  0  0  0  0  0  0  0  0  0
   59.8054   29.3139   51.6084 H   0  0  0  0  0  0  0  0  0  0  0  0
   60.2910   31.4060   51.2630 C   0  0  0  0  0  0  0  0  0  0  0  0
   61.7860   31.1640   51.1580 C   0  0  2  0  0  0  0  0  0  0  0  0
   61.9537   30.1025   51.3929 H   0  0  0  0  0  0  0  0  0  0  0  0
   62.6480   32.2800   52.3210 S   0  0  0  0  0  0  0  0  0  0  0  0
   63.4610   33.2220   50.9900 C   0  0  0  0  0  0  0  0  0  0  0  0
   63.0557   34.2439   50.9518 H   0  0  0  0  0  0  0  0  0  0  0  0
   64.5443   33.2884   51.1689 H   0  0  0  0  0  0  0  0  0  0  0  0
   63.1850   32.5200   49.7130 C   0  0  0  0  0  0  0  0  0  0  0  0
   63.7260   32.9310   48.4920 C   0  0  0  0  0  0  0  0  0  0  0  0
   64.3992   33.7999   48.4489 H   0  0  0  0  0  0  0  0  0  0  0  0
   63.4060   32.2310   47.3270 C   0  0  0  0  0  0  0  0  0  0  0  0
   63.8233   32.5523   46.3612 H   0  0  0  0  0  0  0  0  0  0  0  0
   62.5550   31.1210   47.3860 C   0  0  0  0  0  0  0  0  0  0  0  0
   62.3050   30.5776   46.4628 H   0  0  0  0  0  0  0  0  0  0  0  0
   62.0150   30.6920   48.6150 C   0  0  0  0  0  0  0  0  0  0  0  0
   61.1190   29.4740   48.6420 C   0  0  0  0  0  0  0  0  0  0  0  0
   61.7431   28.5729   48.7344 H   0  0  0  0  0  0  0  0  0  0  0  0
   60.4361   29.5664   49.4994 H   0  0  0  0  0  0  0  0  0  0  0  0
   60.3140   29.3730   47.4210 N   0  0  0  0  0  0  0  0  0  0  0  0
   59.2090   30.0850   47.0980 C   0  0  0  0  0  0  0  0  0  0  0  0
   58.5950   31.1590   47.9470 C   0  0  0  0  0  0  0  0  0  0  0  0
   58.7362   30.9120   49.0096 H   0  0  0  0  0  0  0  0  0  0  0  0
   59.0790   32.1219   47.7269 H   0  0  0  0  0  0  0  0  0  0  0  0
   57.5196   31.2304   47.7269 H   0  0  0  0  0  0  0  0  0  0  0  0
   58.7560   29.6580   45.8550 C   0  0  0  0  0  0  0  0  0  0  0  0
   57.5170   30.0990   45.1280 C   0  0  0  0  0  0  0  0  0  0  0  0
   57.1280   31.0164   45.5939 H   0  0  0  0  0  0  0  0  0  0  0  0
   57.7658   30.2931   44.0742 H   0  0  0  0  0  0  0  0  0  0  0  0
   56.4760   29.0280   45.1980 C   0  0  0  0  0  0  0  0  0  0  0  0
   56.7840   27.8690   45.5860 O   0  0  0  0  0  0  0  0  0  0  0  0
   55.1500   29.3250   44.9170 O   0  0  0  0  0  0  0  0  0  0  0  0
   59.6260   28.6370   45.4950 C   0  0  0  0  0  0  0  0  0  0  0  0
   59.5390   27.7540   44.2920 C   0  0  0  0  0  0  0  0  0  0  0  0
   59.4358   26.7068   44.6125 H   0  0  0  0  0  0  0  0  0  0  0  0
   58.6648   28.0408   43.6891 H   0  0  0  0  0  0  0  0  0  0  0  0
   60.4524   27.8646   43.6891 H   0  0  0  0  0  0  0  0  0  0  0  0
   60.5410   28.4830   46.4690 N   0  0  0  0  0  0  0  0  0  0  0  0
   61.3000   27.7680   46.4900 H   0  0  0  0  0  0  0  0  0  0  0  0
   62.3320   31.4280   49.7850 C   0  0  0  0  0  0  0  0  0  0  0  0
   58.9350   34.3000   46.2830 C   0  0  0  0  0  0  0  0  0  0  0  0
   57.6330   33.8070   46.4780 C   0  0  0  0  0  0  0  0  0  0  0  0
   57.1338   33.9517   47.4475 H   0  0  0  0  0  0  0  0  0  0  0  0
   56.9690   33.1350   45.4500 C   0  0  0  0  0  0  0  0  0  0  0  0
   55.9557   32.7410   45.6169 H   0  0  0  0  0  0  0  0  0  0  0  0
   57.5880   32.9620   44.2110 C   0  0  0  0  0  0  0  0  0  0  0  0
   57.0622   32.4325   43.4028 H   0  0  0  0  0  0  0  0  0  0  0  0
   58.8750   33.4610   43.9970 C   0  0  0  0  0  0  0  0  0  0  0  0
   59.3596   33.3290   43.0184 H   0  0  0  0  0  0  0  0  0  0  0  0
   59.5480   34.1280   45.0250 C   0  0  0  0  0  0  0  0  0  0  0  0
   60.5608   34.5206   44.8515 H   0  0  0  0  0  0  0  0  0  0  0  0
  1  2  1  0
  2  3  2  0
  3  4  1  0
  3  5  1  0
  5  6  1  0
  5  7  1  0
  5  8  1  0
  8  9  1  0
  9 10  2  0
 10 11  1  0
 10 12  1  0
 12 13  1  0
 12 14  2  0
 14 15  1  0
 15 16  1  0
 16 17  1  0
 16 18  1  0
 16 19  1  0
 14 20  1  0
 20 21  1  0
 20 22  2  0
 22 23  1  0
 23 24  1  1
 23 25  1  0
 25 26  1  0
 26 27  1  0
 26 28  1  0
 26 29  1  0
 29 30  2  0
 30 31  1  0
 30 32  1  0
 32 33  1  0
 32 34  2  0
 34 35  1  0
 34 36  1  0
 36 37  1  0
 37 38  1  0
 37 39  1  0
 37 40  1  0
 40 41  1  0
 41 42  1  0
 42 43  1  0
 42 44  1  0
 42 45  1  0
 41 46  2  0
 46 47  1  0
 47 48  1  0
 47 49  1  0
 47 50  1  0
 50 51  2  0
 50 52  1  0
 46 53  1  0
 53 54  1  0
 54 55  1  0
 54 56  1  0
 54 57  1  0
 53 58  2  0
 58 59  1  0
 36 60  2  0
  2 61  1  0
 61 62  2  0
 62 63  1  0
 62 64  1  0
 64 65  1  0
 64 66  2  0
 66 67  1  0
 66 68  1  0
 68 69  1  0
 68 70  2  0
 70 71  1  0
 22  9  1  0
 60 23  1  0
 70 61  1  0
 60 29  1  0
 58 40  1  0
M  CHG  2  52  -1  58   1
M  END
>  <UniqueID>  (78) 
70

>  <SMILES>  (78) 
COc1ccc(OC/C=C/c2ccccc2)c([C@@H]2SCc3cccc(Cn4[nH+]c(C)c(CC(=O)[O-])c4C)c32)c1

>  <Energy>  (78) 
101.20837602531567

>  <Genealogy>  (78) 
COc1ccc(OCC=Cc2ccccc2)c(C2SCc3cccc(Cn4[nH+]c(C)c(CC(=O)[O-])c4C)c32)c1 (protonated)
COc1ccc(OCC=Cc2ccccc2)c([C@@H]2SCc3cccc(Cn4[nH+]c(C)c(CC(=O)[O-])c4C)c32)c1 (chirality)
COc1ccc(OC/C=C/c2ccccc2)c([C@@H]2SCc3cccc(Cn4[nH+]c(C)c(CC(=O)[O-])c4C)c32)c1 (cis-trans isomerization)
COc1ccc(OC/C=C/c2ccccc2)c([C@@H]2SCc3cccc(Cn4[nH+]c(C)c(CC(=O)[O-])c4C)c32)c1 (3D coordinates assigned)
COc1ccc(OC/C=C/c2ccccc2)c([C@@H]2SCc3cccc(Cn4[nH+]c(C)c(CC(=O)[O-])c4C)c32)c1 (nonaromatic ring conformer: 101.20837602531567 kcal/mol)

>  <smiles>  (78) 
COc1ccc(OCC=Cc2ccccc2)c(C2SCc3cccc(Cn4nc(C)c(CC(=O)O)c4C)c32)c1

>  <score_type>  (78) 
oracle

>  <origin>  (78) 
adg

>  <m_score__min__energy>  (78) 
-12.74

>  <m_primary>  (78) 
energy

$$$$
78:0
     RDKit          3D

 58 61  0  0  0  0  0  0  0  0999 V2000
   60.1470   27.6150   47.0480 C   0  0  0  0  0  0  0  0  0  0  0  0
   59.4380   28.5040   48.0110 C   0  0  0  0  0  0  0  0  0  0  0  0
   59.7880   28.5200   49.2220 O   0  0  0  0  0  0  0  0  0  0  0  0
   58.4370   29.4090   47.5310 N   0  0  0  0  0  0  0  0  0  0  0  0
   58.6450   30.7970   47.2350 C   0  0  0  0  0  0  0  0  0  0  0  0
   59.4550   31.5480   48.0970 C   0  0  0  0  0  0  0  0  0  0  0  0
   59.7090   32.9050   47.8460 C   0  0  0  0  0  0  0  0  0  0  0  0
   60.5500   33.6900   48.7750 C   0  0  0  0  0  0  0  0  0  0  0  0
   60.0130   34.5940   49.4720 O   0  0  0  0  0  0  0  0  0  0  0  0
   61.9600   33.4280   48.9170 N   0  0  0  0  0  0  0  0  0  0  0  0
   62.4680   32.0480   48.8720 C   0  0  0  0  0  0  0  0  0  0  0  0
   63.7730   31.9250   49.6630 C   0  0  0  0  0  0  0  0  0  0  0  0
   63.6880   32.7840   50.8550 N   0  0  0  0  0  0  0  0  0  0  0  0
   64.9710   32.4080   51.9890 S   0  0  0  0  0  0  0  0  0  0  0  0
   64.5610   32.7760   53.3890 O   0  0  0  0  0  0  0  0  0  0  0  0
   65.2720   30.9350   51.9530 O   0  0  0  0  0  0  0  0  0  0  0  0
   66.4930   33.2640   51.5650 C   0  0  0  0  0  0  0  0  0  0  0  0
   67.6940   32.3870   51.2450 C   0  0  0  0  0  0  0  0  0  0  0  0
   66.9430   33.0870   50.1240 C   0  0  0  0  0  0  0  0  0  0  0  0
   63.7330   34.2120   50.4760 C   0  0  0  0  0  0  0  0  0  0  0  0
   62.8940   34.5220   49.2160 C   0  0  0  0  0  0  0  0  0  0  0  0
   59.1190   33.5160   46.7290 C   0  0  0  0  0  0  0  0  0  0  0  0
   58.3380   32.7690   45.8470 C   0  0  0  0  0  0  0  0  0  0  0  0
   58.1260   31.3970   46.0680 C   0  0  0  0  0  0  0  0  0  0  0  0
   57.3910   30.6230   45.1550 O   0  0  0  0  0  0  0  0  0  0  0  0
   57.5010   29.2350   44.9920 C   0  0  0  0  0  0  0  0  0  0  0  0
   58.4960   28.7380   44.1450 C   0  0  0  0  0  0  0  0  0  0  0  0
   58.6320   27.3630   43.9470 C   0  0  0  0  0  0  0  0  0  0  0  0
   57.7650   26.4720   44.5840 C   0  0  0  0  0  0  0  0  0  0  0  0
   56.7430   26.9500   45.4240 C   0  0  0  0  0  0  0  0  0  0  0  0
   55.8150   26.0060   46.0900 C   0  0  0  0  0  0  0  0  0  0  0  0
   54.4110   26.0730   45.8430 N   0  0  0  0  0  0  0  0  0  0  0  0
   56.2570   25.1330   46.8850 O   0  0  0  0  0  0  0  0  0  0  0  0
   56.6130   28.3380   45.6160 C   0  0  0  0  0  0  0  0  0  0  0  0
   60.7394   26.8722   47.6025 H   0  0  0  0  0  0  0  0  0  0  0  0
   59.4103   27.0982   46.4153 H   0  0  0  0  0  0  0  0  0  0  0  0
   60.8147   28.2182   46.4153 H   0  0  0  0  0  0  0  0  0  0  0  0
   59.8976   31.0676   48.9820 H   0  0  0  0  0  0  0  0  0  0  0  0
   61.7169   31.3725   49.3074 H   0  0  0  0  0  0  0  0  0  0  0  0
   62.6632   31.7773   47.8239 H   0  0  0  0  0  0  0  0  0  0  0  0
   63.9217   30.8794   49.9707 H   0  0  0  0  0  0  0  0  0  0  0  0
   64.6209   32.2384   49.0362 H   0  0  0  0  0  0  0  0  0  0  0  0
   66.3190   34.1168   52.2377 H   0  0  0  0  0  0  0  0  0  0  0  0
   68.7061   32.7186   51.5199 H   0  0  0  0  0  0  0  0  0  0  0  0
   67.9767   31.3460   51.4605 H   0  0  0  0  0  0  0  0  0  0  0  0
   67.4119   33.9250   49.5875 H   0  0  0  0  0  0  0  0  0  0  0  0
   66.4573   32.7620   49.1921 H   0  0  0  0  0  0  0  0  0  0  0  0
   63.3447   34.8106   51.3132 H   0  0  0  0  0  0  0  0  0  0  0  0
   64.7796   34.4620   50.2477 H   0  0  0  0  0  0  0  0  0  0  0  0
   62.3218   35.4463   49.3844 H   0  0  0  0  0  0  0  0  0  0  0  0
   63.5778   34.6391   48.3624 H   0  0  0  0  0  0  0  0  0  0  0  0
   59.2732   34.5900   46.5479 H   0  0  0  0  0  0  0  0  0  0  0  0
   57.8845   33.2573   44.9718 H   0  0  0  0  0  0  0  0  0  0  0  0
   59.1755   29.4344   43.6318 H   0  0  0  0  0  0  0  0  0  0  0  0
   59.4244   26.9798   43.2873 H   0  0  0  0  0  0  0  0  0  0  0  0
   57.8823   25.3895   44.4277 H   0  0  0  0  0  0  0  0  0  0  0  0
   53.7950   26.6970   46.4100 H   0  0  0  0  0  0  0  0  0  0  0  0
   55.8099   28.7259   46.2598 H   0  0  0  0  0  0  0  0  0  0  0  0
  1  2  1  0
  2  3  2  0
  2  4  1  0
  4  5  1  0
  5  6  2  0
  6  7  1  0
  7  8  1  0
  8  9  2  0
  8 10  1  0
 10 11  1  0
 11 12  1  0
 12 13  1  0
 13 14  1  0
 14 15  2  0
 14 16  2  0
 14 17  1  0
 17 18  1  0
 18 19  1  0
 13 20  1  0
 20 21  1  0
  7 22  2  0
 22 23  1  0
 23 24  2  0
 24 25  1  0
 25 26  1  0
 26 27  2  0
 27 28  1  0
 28 29  2  0
 29 30  1  0
 30 31  1  0
 31 32  1  0
 31 33  2  0
 30 34  2  0
 24  5  1  0
 34 26  1  0
 21 10  1  0
 19 17  1  0
  1 35  1  0
  1 36  1  0
  1 37  1  0
  6 38  1  0
 11 39  1  0
 11 40  1  0
 12 41  1  0
 12 42  1  0
 17 43  1  0
 18 44  1  0
 18 45  1  0
 19 46  1  0
 19 47  1  0
 20 48  1  0
 20 49  1  0
 21 50  1  0
 21 51  1  0
 22 52  1  0
 23 53  1  0
 27 54  1  0
 28 55  1  0
 29 56  1  0
 32 57  1  0
 34 58  1  0
M  CHG  2   4  -1  32  -1
M  END
>  <UniqueID>  (79) 
71

>  <SMILES>  (79) 
CC(=O)[N-]c1cc(C(=O)N2CCN(S(=O)(=O)C3CC3)CC2)ccc1Oc1cccc(C([NH-])=O)c1

>  <Energy>  (79) 
342.40895968480834

>  <Genealogy>  (79) 
CC(=O)[N-]c1cc(C(=O)N2CCN(S(=O)(=O)C3CC3)CC2)ccc1Oc1cccc(C([NH-])=O)c1 (protonated)
CC(=O)[N-]c1cc(C(=O)N2CCN(S(=O)(=O)C3CC3)CC2)ccc1Oc1cccc(C([NH-])=O)c1 (3D coordinates assigned)
CC(=O)[N-]c1cc(C(=O)N2CCN(S(=O)(=O)C3CC3)CC2)ccc1Oc1cccc(C([NH-])=O)c1 (nonaromatic ring conformer: 342.40895968480834 kcal/mol)

>  <smiles>  (79) 
CC(=O)Nc1cc(C(=O)N2CCN(S(=O)(=O)C3CC3)CC2)ccc1Oc1cccc(C(N)=O)c1

>  <score_type>  (79) 
oracle

>  <origin>  (79) 
adg

>  <m_score__min__energy>  (79) 
-13.59

>  <m_primary>  (79) 
energy

$$$$
79:0
     RDKit          3D

 43 45  0  0  0  0  0  0  0  0999 V2000
   56.2950   35.1080   44.3730 H   0  0  0  0  0  0  0  0  0  0  0  0
   57.1620   34.9260   44.8590 O   0  0  0  0  0  0  0  0  0  0  0  0
   57.5530   33.6380   45.2210 C   0  0  0  0  0  0  0  0  0  0  0  0
   57.3690   32.5250   44.4250 C   0  0  0  0  0  0  0  0  0  0  0  0
   56.9027   32.4922   43.4293 H   0  0  0  0  0  0  0  0  0  0  0  0
   57.8910   31.4600   45.1360 C   0  0  0  0  0  0  0  0  0  0  0  0
   58.0720   30.0620   44.6340 C   0  0  0  0  0  0  0  0  0  0  0  0
   58.6940   30.0753   43.7268 H   0  0  0  0  0  0  0  0  0  0  0  0
   58.5660   29.4548   45.4068 H   0  0  0  0  0  0  0  0  0  0  0  0
   56.7350   29.4730   44.3140 C   0  0  0  0  0  0  0  0  0  0  0  0
   56.1620   29.7640   43.2300 O   0  0  0  0  0  0  0  0  0  0  0  0
   56.1190   28.5670   45.2360 N   0  0  0  0  0  0  0  0  0  0  0  0
   56.6080   27.4530   45.7120 C   0  0  0  0  0  0  0  0  0  0  0  0
   57.9530   27.3860   45.9110 N   0  0  0  0  0  0  0  0  0  0  0  0
   58.5640   26.2870   46.4230 C   0  0  0  0  0  0  0  0  0  0  0  0
   59.6553   26.2798   46.5608 H   0  0  0  0  0  0  0  0  0  0  0  0
   57.8120   25.1690   46.7740 C   0  0  0  0  0  0  0  0  0  0  0  0
   58.3027   24.2753   47.1868 H   0  0  0  0  0  0  0  0  0  0  0  0
   56.4300   25.1960   46.5960 C   0  0  0  0  0  0  0  0  0  0  0  0
   55.8250   24.3187   46.8687 H   0  0  0  0  0  0  0  0  0  0  0  0
   55.8110   26.3320   46.0730 C   0  0  0  0  0  0  0  0  0  0  0  0
   54.4260   26.3330   45.9560 O   0  0  0  0  0  0  0  0  0  0  0  0
   58.3820   31.9810   46.3160 C   0  0  0  0  0  0  0  0  0  0  0  0
   59.0410   31.2480   47.2980 O   0  0  0  0  0  0  0  0  0  0  0  0
   58.1680   33.3100   46.3820 N   0  0  0  0  0  0  0  0  0  0  0  0
   58.6840   34.2170   47.4100 C   0  0  0  0  0  0  0  0  0  0  0  0
   58.2565   33.9422   48.3855 H   0  0  0  0  0  0  0  0  0  0  0  0
   58.4010   35.2489   47.1548 H   0  0  0  0  0  0  0  0  0  0  0  0
   60.1870   34.1200   47.4790 C   0  0  0  0  0  0  0  0  0  0  0  0
   60.9440   33.9170   46.3140 C   0  0  0  0  0  0  0  0  0  0  0  0
   60.4427   33.8728   45.3359 H   0  0  0  0  0  0  0  0  0  0  0  0
   62.3310   33.7710   46.3920 C   0  0  0  0  0  0  0  0  0  0  0  0
   62.9184   33.6192   45.4745 H   0  0  0  0  0  0  0  0  0  0  0  0
   62.9750   33.8170   47.6310 C   0  0  0  0  0  0  0  0  0  0  0  0
   64.0676   33.7020   47.6858 H   0  0  0  0  0  0  0  0  0  0  0  0
   62.2300   34.0100   48.8090 C   0  0  0  0  0  0  0  0  0  0  0  0
   62.8240   34.0470   50.0800 O   0  0  0  0  0  0  0  0  0  0  0  0
   63.9810   33.3030   50.4480 C   0  0  0  0  0  0  0  0  0  0  0  0
   64.0535   33.2564   51.5446 H   0  0  0  0  0  0  0  0  0  0  0  0
   63.9059   32.2835   50.0418 H   0  0  0  0  0  0  0  0  0  0  0  0
   64.8774   33.7944   50.0418 H   0  0  0  0  0  0  0  0  0  0  0  0
   60.8410   34.1630   48.7220 C   0  0  0  0  0  0  0  0  0  0  0  0
   60.2538   34.3190   49.6390 H   0  0  0  0  0  0  0  0  0  0  0  0
  1  2  1  0
  2  3  1  0
  3  4  2  0
  4  5  1  0
  4  6  1  0
  6  7  1  0
  7  8  1  0
  7  9  1  0
  7 10  1  0
 10 11  2  0
 10 12  1  0
 12 13  2  0
 13 14  1  0
 14 15  1  0
 15 16  1  0
 15 17  2  0
 17 18  1  0
 17 19  1  0
 19 20  1  0
 19 21  2  0
 21 22  1  0
  6 23  2  0
 23 24  1  0
 23 25  1  0
 25 26  1  0
 26 27  1  0
 26 28  1  0
 26 29  1  0
 29 30  2  0
 30 31  1  0
 30 32  1  0
 32 33  1  0
 32 34  2  0
 34 35  1  0
 34 36  1  0
 36 37  1  0
 37 38  1  0
 38 39  1  0
 38 40  1  0
 38 41  1  0
 36 42  2  0
 42 43  1  0
 25  3  1  0
 42 29  1  0
 21 13  1  0
M  CHG  3  14  -1  22  -1  24  -1
M  END
>  <UniqueID>  (80) 
72

>  <SMILES>  (80) 
COc1cccc(Cn2c(O)cc(CC(=O)/N=c3/[n-]cccc3[O-])c2[O-])c1

>  <Energy>  (80) 
78.89273245972275

>  <Genealogy>  (80) 
COc1cccc(Cn2c(O)cc(CC(=O)N=c3[n-]cccc3[O-])c2[O-])c1 (protonated)
COc1cccc(Cn2c(O)cc(CC(=O)/N=c3/[n-]cccc3[O-])c2[O-])c1 (cis-trans isomerization)
COc1cccc(Cn2c(O)cc(CC(=O)/N=c3/[n-]cccc3[O-])c2[O-])c1 (3D coordinates assigned)
COc1cccc(Cn2c(O)cc(CC(=O)/N=c3/[n-]cccc3[O-])c2[O-])c1 (optimized conformer: 78.89273245972275 kcal/mol)

>  <smiles>  (80) 
COc1cccc(Cn2c(O)cc(CC(=O)N=c3[nH]cccc3O)c2O)c1

>  <score_type>  (80) 
oracle

>  <origin>  (80) 
adg

>  <m_score__min__energy>  (80) 
-14.24

>  <m_primary>  (80) 
energy

$$$$
80:0
     RDKit          3D

 53 56  0  0  0  0  0  0  0  0999 V2000
   61.0470   34.0090   50.2080 O   0  0  0  0  0  0  0  0  0  0  0  0
   61.7700   33.7410   49.2120 C   0  0  0  0  0  0  0  0  0  0  0  0
   63.0250   32.9360   49.4110 C   0  0  0  0  0  0  0  0  0  0  0  0
   64.0250   33.1990   48.2790 C   0  0  0  0  0  0  0  0  0  0  0  0
   63.3530   33.0030   46.9150 C   0  0  0  0  0  0  0  0  0  0  0  0
   62.1110   33.8440   46.7890 C   0  0  0  0  0  0  0  0  0  0  0  0
   61.3650   34.1830   47.8570 C   0  0  0  0  0  0  0  0  0  0  0  0
   60.1120   34.9570   47.6930 C   0  0  0  0  0  0  0  0  0  0  0  0
   59.3780   35.0150   46.5700 C   0  0  0  0  0  0  0  0  0  0  0  0
   58.7750   33.8510   45.8830 C   0  0  0  0  0  0  0  0  0  0  0  0
   58.3840   32.7000   46.5900 C   0  0  0  0  0  0  0  0  0  0  0  0
   57.8370   31.6080   45.9120 C   0  0  0  0  0  0  0  0  0  0  0  0
   57.6780   31.6400   44.5220 C   0  0  0  0  0  0  0  0  0  0  0  0
   57.1300   30.5170   43.8860 O   0  0  0  0  0  0  0  0  0  0  0  0
   56.7040   29.3450   44.5300 C   0  0  0  0  0  0  0  0  0  0  0  0
   55.4880   29.1840   44.8220 O   0  0  0  0  0  0  0  0  0  0  0  0
   57.6980   28.3210   44.9180 C   0  0  0  0  0  0  0  0  0  0  0  0
   58.9830   28.6980   45.3420 C   0  0  0  0  0  0  0  0  0  0  0  0
   59.8930   27.7540   45.7020 N   0  0  0  0  0  0  0  0  0  0  0  0
   59.6000   26.4270   45.6640 C   0  0  0  0  0  0  0  0  0  0  0  0
   58.3370   25.9950   45.2400 C   0  0  0  0  0  0  0  0  0  0  0  0
   57.9960   24.5290   45.2290 C   0  0  0  0  0  0  0  0  0  0  0  0
   56.5040   24.3380   45.1340 C   0  0  0  0  0  0  0  0  0  0  0  0
   55.9560   23.5550   44.1100 C   0  0  0  0  0  0  0  0  0  0  0  0
   54.6140   23.3560   44.0440 N   0  0  0  0  0  0  0  0  0  0  0  0
   53.7810   23.9030   44.9660 C   0  0  0  0  0  0  0  0  0  0  0  0
   52.1730   23.6480   44.8640 S   0  0  0  0  0  0  0  0  0  0  0  0
   54.2860   24.6560   45.9770 N   0  0  0  0  0  0  0  0  0  0  0  0
   55.6210   24.8830   46.0850 C   0  0  0  0  0  0  0  0  0  0  0  0
   56.0530   25.5820   47.0390 O   0  0  0  0  0  0  0  0  0  0  0  0
   57.3830   26.9540   44.8730 C   0  0  0  0  0  0  0  0  0  0  0  0
   58.1150   32.7700   43.8080 C   0  0  0  0  0  0  0  0  0  0  0  0
   58.6630   33.8640   44.4860 C   0  0  0  0  0  0  0  0  0  0  0  0
   63.4846   33.2156   50.3705 H   0  0  0  0  0  0  0  0  0  0  0  0
   62.7629   31.8677   49.4092 H   0  0  0  0  0  0  0  0  0  0  0  0
   64.3953   34.2320   48.3554 H   0  0  0  0  0  0  0  0  0  0  0  0
   64.8609   32.4898   48.3698 H   0  0  0  0  0  0  0  0  0  0  0  0
   64.0607   33.2889   46.1229 H   0  0  0  0  0  0  0  0  0  0  0  0
   63.0663   31.9454   46.8190 H   0  0  0  0  0  0  0  0  0  0  0  0
   61.8031   34.1928   45.7922 H   0  0  0  0  0  0  0  0  0  0  0  0
   59.7544   35.5302   48.5611 H   0  0  0  0  0  0  0  0  0  0  0  0
   59.2116   36.0071   46.1250 H   0  0  0  0  0  0  0  0  0  0  0  0
   58.5095   32.6594   47.6821 H   0  0  0  0  0  0  0  0  0  0  0  0
   57.5286   30.7151   46.4756 H   0  0  0  0  0  0  0  0  0  0  0  0
   59.2547   29.7631   45.3830 H   0  0  0  0  0  0  0  0  0  0  0  0
   60.8420   28.0560   46.0180 H   0  0  0  0  0  0  0  0  0  0  0  0
   60.3578   25.6897   45.9674 H   0  0  0  0  0  0  0  0  0  0  0  0
   58.4785   24.0510   44.3637 H   0  0  0  0  0  0  0  0  0  0  0  0
   58.3558   24.0717   46.1625 H   0  0  0  0  0  0  0  0  0  0  0  0
   56.6151   23.0994   43.3563 H   0  0  0  0  0  0  0  0  0  0  0  0
   56.3821   26.6336   44.5480 H   0  0  0  0  0  0  0  0  0  0  0  0
   58.0255   32.7937   42.7119 H   0  0  0  0  0  0  0  0  0  0  0  0
   59.0085   34.7408   43.9186 H   0  0  0  0  0  0  0  0  0  0  0  0
  1  2  2  0
  2  3  1  0
  3  4  1  0
  4  5  1  0
  5  6  1  0
  6  7  2  0
  7  8  1  0
  8  9  2  3
  9 10  1  0
 10 11  2  0
 11 12  1  0
 12 13  2  0
 13 14  1  0
 14 15  1  0
 15 16  2  0
 15 17  1  0
 17 18  2  0
 18 19  1  0
 19 20  2  0
 20 21  1  0
 21 22  1  0
 22 23  1  0
 23 24  2  0
 24 25  1  0
 25 26  1  0
 26 27  2  0
 26 28  1  0
 28 29  1  0
 29 30  2  0
 21 31  2  0
 13 32  1  0
 32 33  2  0
  7  2  1  0
 33 10  1  0
 31 17  1  0
 29 23  1  0
  3 34  1  0
  3 35  1  0
  4 36  1  0
  4 37  1  0
  5 38  1  0
  5 39  1  0
  6 40  1  0
  8 41  1  0
  9 42  1  0
 11 43  1  0
 12 44  1  0
 18 45  1  0
 19 46  1  0
 20 47  1  0
 22 48  1  0
 22 49  1  0
 24 50  1  0
 31 51  1  0
 32 52  1  0
 33 53  1  0
M  CHG  3  19   1  25  -1  28  -1
M  END
>  <UniqueID>  (81) 
73

>  <SMILES>  (81) 
O=C1CCCC=C1C=Cc1ccc(OC(=O)c2c[nH+]cc(Cc3c[n-]c(=S)[n-]c3=O)c2)cc1

>  <Energy>  (81) 
69.74957539078689

>  <Genealogy>  (81) 
O=C1CCCC=C1C=Cc1ccc(OC(=O)c2c[nH+]cc(Cc3c[n-]c(=S)[n-]c3=O)c2)cc1 (protonated)
O=C1CCCC=C1C=Cc1ccc(OC(=O)c2c[nH+]cc(Cc3c[n-]c(=S)[n-]c3=O)c2)cc1 (3D coordinates assigned)
O=C1CCCC=C1C=Cc1ccc(OC(=O)c2c[nH+]cc(Cc3c[n-]c(=S)[n-]c3=O)c2)cc1 (nonaromatic ring conformer: 69.74957539078689 kcal/mol)

>  <smiles>  (81) 
O=C1CCCC=C1C=Cc1ccc(OC(=O)c2cncc(Cc3c[nH]c(=S)[nH]c3=O)c2)cc1

>  <score_type>  (81) 
oracle

>  <origin>  (81) 
adg

>  <m_score__min__energy>  (81) 
-13.109999999999999

>  <m_primary>  (81) 
energy

$$$$
81:0
     RDKit          3D

 54 57  0  0  0  0  0  0  0  0999 V2000
   50.9440   31.5880   50.2700 N   0  0  0  0  0  0  0  0  0  0  0  0
   51.2220   31.6940   51.9710 S   0  0  0  0  0  0  0  0  0  0  0  0
   49.9600   31.3440   52.7090 O   0  0  0  0  0  0  0  0  0  0  0  0
   51.6160   33.1000   52.3280 O   0  0  0  0  0  0  0  0  0  0  0  0
   52.5130   30.5860   52.4260 C   0  0  0  0  0  0  0  0  0  0  0  0
   52.2100   29.2850   52.8510 C   0  0  0  0  0  0  0  0  0  0  0  0
   53.2360   28.4030   53.1960 C   0  0  0  0  0  0  0  0  0  0  0  0
   54.5700   28.8100   53.1120 C   0  0  0  0  0  0  0  0  0  0  0  0
   54.8930   30.1100   52.6810 C   0  0  0  0  0  0  0  0  0  0  0  0
   56.3100   30.5430   52.5830 C   0  0  0  0  0  0  0  0  0  0  0  0
   57.3060   29.6390   52.1720 C   0  0  0  0  0  0  0  0  0  0  0  0
   58.6390   30.0490   52.0730 C   0  0  0  0  0  0  0  0  0  0  0  0
   59.0020   31.3660   52.3890 C   0  0  0  0  0  0  0  0  0  0  0  0
   60.4430   31.8150   52.2840 C   0  0  0  0  0  0  0  0  0  0  0  0
   60.7510   32.4010   50.9550 N   0  0  0  0  0  0  0  0  0  0  0  0
   60.0410   33.6960   50.8130 C   0  0  0  0  0  0  0  0  0  0  0  0
   60.1290   34.2310   49.3810 C   0  0  0  0  0  0  0  0  0  0  0  0
   59.5890   33.2500   48.4300 N   0  0  0  0  0  0  0  0  0  0  0  0
   59.1820   33.6690   47.1090 C   0  0  0  0  0  0  0  0  0  0  0  0
   59.9280   34.6280   46.3950 C   0  0  0  0  0  0  0  0  0  0  0  0
   59.5300   35.0280   45.1160 C   0  0  0  0  0  0  0  0  0  0  0  0
   58.3870   34.4770   44.5320 C   0  0  0  0  0  0  0  0  0  0  0  0
   57.6400   33.5230   45.2270 C   0  0  0  0  0  0  0  0  0  0  0  0
   58.0340   33.1180   46.5070 C   0  0  0  0  0  0  0  0  0  0  0  0
   59.3530   31.8770   48.8910 C   0  0  0  0  0  0  0  0  0  0  0  0
   60.4740   31.4360   49.8440 C   0  0  0  0  0  0  0  0  0  0  0  0
   58.0120   32.2710   52.8000 C   0  0  0  0  0  0  0  0  0  0  0  0
   56.6780   31.8630   52.8970 C   0  0  0  0  0  0  0  0  0  0  0  0
   53.8510   30.9930   52.3380 C   0  0  0  0  0  0  0  0  0  0  0  0
   50.2720   32.3470   50.0220 H   0  0  0  0  0  0  0  0  0  0  0  0
   51.1615   28.9582   52.9129 H   0  0  0  0  0  0  0  0  0  0  0  0
   52.9934   27.3850   53.5348 H   0  0  0  0  0  0  0  0  0  0  0  0
   55.3731   28.1095   53.3846 H   0  0  0  0  0  0  0  0  0  0  0  0
   57.0342   28.6017   51.9266 H   0  0  0  0  0  0  0  0  0  0  0  0
   59.4078   29.3339   51.7451 H   0  0  0  0  0  0  0  0  0  0  0  0
   60.6358   32.5720   53.0585 H   0  0  0  0  0  0  0  0  0  0  0  0
   61.0835   30.9312   52.4207 H   0  0  0  0  0  0  0  0  0  0  0  0
   61.7740   32.6280   50.9350 H   0  0  0  0  0  0  0  0  0  0  0  0
   58.9826   33.5540   51.0770 H   0  0  0  0  0  0  0  0  0  0  0  0
   60.5177   34.4260   51.4837 H   0  0  0  0  0  0  0  0  0  0  0  0
   59.5500   35.1634   49.3069 H   0  0  0  0  0  0  0  0  0  0  0  0
   61.1848   34.4191   49.1363 H   0  0  0  0  0  0  0  0  0  0  0  0
   60.8303   35.0651   46.8475 H   0  0  0  0  0  0  0  0  0  0  0  0
   60.1185   35.7786   44.5681 H   0  0  0  0  0  0  0  0  0  0  0  0
   58.0755   34.7940   43.5258 H   0  0  0  0  0  0  0  0  0  0  0  0
   56.7399   33.0891   44.7669 H   0  0  0  0  0  0  0  0  0  0  0  0
   57.4429   32.3638   47.0471 H   0  0  0  0  0  0  0  0  0  0  0  0
   58.3890   31.8318   49.4188 H   0  0  0  0  0  0  0  0  0  0  0  0
   59.3372   31.2045   48.0207 H   0  0  0  0  0  0  0  0  0  0  0  0
   60.1890   30.4710   50.2885 H   0  0  0  0  0  0  0  0  0  0  0  0
   61.3932   31.3740   49.2430 H   0  0  0  0  0  0  0  0  0  0  0  0
   58.2866   33.3071   53.0473 H   0  0  0  0  0  0  0  0  0  0  0  0
   55.9103   32.5808   53.2217 H   0  0  0  0  0  0  0  0  0  0  0  0
   54.0896   32.0115   51.9979 H   0  0  0  0  0  0  0  0  0  0  0  0
  1  2  1  0
  2  3  2  0
  2  4  2  0
  2  5  1  0
  5  6  2  0
  6  7  1  0
  7  8  2  0
  8  9  1  0
  9 10  1  0
 10 11  2  0
 11 12  1  0
 12 13  2  0
 13 14  1  0
 14 15  1  0
 15 16  1  0
 16 17  1  0
 17 18  1  0
 18 19  1  0
 19 20  2  0
 20 21  1  0
 21 22  2  0
 22 23  1  0
 23 24  2  0
 18 25  1  0
 25 26  1  0
 13 27  1  0
 27 28  2  0
  9 29  2  0
 29  5  1  0
 28 10  1  0
 26 15  1  0
 24 19  1  0
  1 30  1  0
  6 31  1  0
  7 32  1  0
  8 33  1  0
 11 34  1  0
 12 35  1  0
 14 36  1  0
 14 37  1  0
 15 38  1  0
 16 39  1  0
 16 40  1  0
 17 41  1  0
 17 42  1  0
 20 43  1  0
 21 44  1  0
 22 45  1  0
 23 46  1  0
 24 47  1  0
 25 48  1  0
 25 49  1  0
 26 50  1  0
 26 51  1  0
 27 52  1  0
 28 53  1  0
 29 54  1  0
M  CHG  2   1  -1  15   1
M  END
>  <UniqueID>  (82) 
74

>  <SMILES>  (82) 
[NH-]S(=O)(=O)c1cccc(-c2ccc(C[NH+]3CCN(c4ccccc4)CC3)cc2)c1

>  <Energy>  (82) 
74.10250792452969

>  <Genealogy>  (82) 
[NH-]S(=O)(=O)c1cccc(-c2ccc(C[NH+]3CCN(c4ccccc4)CC3)cc2)c1 (protonated)
[NH-]S(=O)(=O)c1cccc(-c2ccc(C[NH+]3CCN(c4ccccc4)CC3)cc2)c1 (3D coordinates assigned)
[NH-]S(=O)(=O)c1cccc(-c2ccc(C[NH+]3CCN(c4ccccc4)CC3)cc2)c1 (nonaromatic ring conformer: 74.10250792452969 kcal/mol)

>  <smiles>  (82) 
NS(=O)(=O)c1cccc(-c2ccc(CN3CCN(c4ccccc4)CC3)cc2)c1

>  <score_type>  (82) 
oracle

>  <origin>  (82) 
adg

>  <m_score__min__energy>  (82) 
-10.869999999999999

>  <m_primary>  (82) 
energy

$$$$
82:0
     RDKit          3D

 53 56  0  0  0  0  0  0  0  0999 V2000
   53.9750   28.3730   53.1140 C   0  0  0  0  0  0  0  0  0  0  0  0
   54.7670   29.3920   52.7430 C   0  0  0  0  0  0  0  0  0  0  0  0
   54.4160   30.4450   51.8900 C   0  0  0  0  0  0  0  0  0  0  0  0
   53.2320   30.6490   51.2800 C   0  0  0  0  0  0  0  0  0  0  0  0
   52.1220   31.4140   51.8770 C   0  0  0  0  0  0  0  0  0  0  0  0
   51.6710   31.2150   53.1280 N   0  0  0  0  0  0  0  0  0  0  0  0
   50.6140   32.0550   53.2180 C   0  0  0  0  0  0  0  0  0  0  0  0
   49.9220   32.1650   54.2640 O   0  0  0  0  0  0  0  0  0  0  0  0
   50.3500   32.7560   52.0940 N   0  0  0  0  0  0  0  0  0  0  0  0
   51.3040   32.3300   51.2480 C   0  0  0  0  0  0  0  0  0  0  0  0
   51.4020   32.7400   49.9210 O   0  0  0  0  0  0  0  0  0  0  0  0
   55.5210   31.2820   51.8320 C   0  0  0  0  0  0  0  0  0  0  0  0
   56.5000   30.7030   52.6180 C   0  0  0  0  0  0  0  0  0  0  0  0
   57.8250   31.3070   52.8760 C   0  0  0  0  0  0  0  0  0  0  0  0
   58.2030   31.4260   54.0750 O   0  0  0  0  0  0  0  0  0  0  0  0
   58.6860   31.7450   51.7960 N   0  0  0  0  0  0  0  0  0  0  0  0
   58.3610   31.4310   50.3940 C   0  0  0  0  0  0  0  0  0  0  0  0
   59.6040   31.5290   49.5060 C   0  0  0  0  0  0  0  0  0  0  0  0
   60.7510   30.9610   50.2380 N   0  0  0  0  0  0  0  0  0  0  0  0
   61.8930   30.7040   49.3340 C   0  0  0  0  0  0  0  0  0  0  0  0
   62.8950   31.8660   49.3740 C   0  0  0  0  0  0  0  0  0  0  0  0
   62.7940   32.6690   48.1570 N   0  0  0  0  0  0  0  0  0  0  0  0
   63.8270   33.1550   47.4410 C   0  0  0  0  0  0  0  0  0  0  0  0
   63.3200   33.9460   46.4340 C   0  0  0  0  0  0  0  0  0  0  0  0
   61.9490   33.9020   46.6060 C   0  0  0  0  0  0  0  0  0  0  0  0
   61.6520   33.1230   47.6660 N   0  0  0  0  0  0  0  0  0  0  0  0
   61.1370   31.8190   51.3880 C   0  0  0  0  0  0  0  0  0  0  0  0
   59.9240   32.4890   52.0750 C   0  0  0  0  0  0  0  0  0  0  0  0
   56.0480   29.5510   53.1660 N   0  0  0  0  0  0  0  0  0  0  0  0
   56.7990   28.6470   54.0450 C   0  0  0  0  0  0  0  0  0  0  0  0
   54.3587   27.5971   53.7928 H   0  0  0  0  0  0  0  0  0  0  0  0
   52.9425   28.3142   52.7391 H   0  0  0  0  0  0  0  0  0  0  0  0
   53.0850   30.2197   50.2780 H   0  0  0  0  0  0  0  0  0  0  0  0
   52.3070   32.8370   49.4790 H   0  0  0  0  0  0  0  0  0  0  0  0
   55.6024   32.2238   51.2696 H   0  0  0  0  0  0  0  0  0  0  0  0
   57.9593   30.4085   50.3385 H   0  0  0  0  0  0  0  0  0  0  0  0
   57.6172   32.1580   50.0361 H   0  0  0  0  0  0  0  0  0  0  0  0
   59.4409   30.9638   48.5765 H   0  0  0  0  0  0  0  0  0  0  0  0
   59.8032   32.5808   49.2531 H   0  0  0  0  0  0  0  0  0  0  0  0
   62.4003   29.7799   49.6482 H   0  0  0  0  0  0  0  0  0  0  0  0
   61.5125   30.6030   48.3068 H   0  0  0  0  0  0  0  0  0  0  0  0
   62.6789   32.5009   50.2459 H   0  0  0  0  0  0  0  0  0  0  0  0
   63.9132   31.4563   49.4473 H   0  0  0  0  0  0  0  0  0  0  0  0
   64.8922   32.9544   47.6286 H   0  0  0  0  0  0  0  0  0  0  0  0
   63.8823   34.4926   45.6625 H   0  0  0  0  0  0  0  0  0  0  0  0
   61.2134   34.4225   45.9751 H   0  0  0  0  0  0  0  0  0  0  0  0
   61.6606   31.1973   52.1292 H   0  0  0  0  0  0  0  0  0  0  0  0
   61.7800   32.6220   50.9986 H   0  0  0  0  0  0  0  0  0  0  0  0
   60.0931   32.5123   53.1617 H   0  0  0  0  0  0  0  0  0  0  0  0
   59.8167   33.5104   51.6810 H   0  0  0  0  0  0  0  0  0  0  0  0
   56.5897   28.8989   55.0951 H   0  0  0  0  0  0  0  0  0  0  0  0
   56.4942   27.6083   53.8494 H   0  0  0  0  0  0  0  0  0  0  0  0
   57.8759   28.7562   53.8494 H   0  0  0  0  0  0  0  0  0  0  0  0
  1  2  2  0
  2  3  1  0
  3  4  2  3
  4  5  1  0
  5  6  1  0
  6  7  1  0
  7  8  2  0
  7  9  1  0
  9 10  1  0
 10 11  1  0
  3 12  1  0
 12 13  2  0
 13 14  1  0
 14 15  2  0
 14 16  1  0
 16 17  1  0
 17 18  1  0
 18 19  1  0
 19 20  1  0
 20 21  1  0
 21 22  1  0
 22 23  1  0
 23 24  2  0
 24 25  1  0
 25 26  2  0
 19 27  1  0
 27 28  1  0
 13 29  1  0
 29 30  1  0
 29  2  1  0
 10  5  2  0
 28 16  1  0
 26 22  1  0
  1 31  1  0
  1 32  1  0
  4 33  1  0
 11 34  1  0
 12 35  1  0
 17 36  1  0
 17 37  1  0
 18 38  1  0
 18 39  1  0
 20 40  1  0
 20 41  1  0
 21 42  1  0
 21 43  1  0
 23 44  1  0
 24 45  1  0
 25 46  1  0
 27 47  1  0
 27 48  1  0
 28 49  1  0
 28 50  1  0
 30 51  1  0
 30 52  1  0
 30 53  1  0
M  CHG  2   6  -1   9  -1
M  END
>  <UniqueID>  (83) 
75

>  <SMILES>  (83) 
C=c1c(=Cc2[n-]c(=O)[n-]c2O)cc(C(=O)N2CCN(CCn3cccn3)CC2)n1C

>  <Energy>  (83) 
157.9632724601053

>  <Genealogy>  (83) 
C=c1c(=Cc2[n-]c(=O)[n-]c2O)cc(C(=O)N2CCN(CCn3cccn3)CC2)n1C (protonated)
C=c1c(=Cc2[n-]c(=O)[n-]c2O)cc(C(=O)N2CCN(CCn3cccn3)CC2)n1C (3D coordinates assigned)
C=c1c(=Cc2[n-]c(=O)[n-]c2O)cc(C(=O)N2CCN(CCn3cccn3)CC2)n1C (nonaromatic ring conformer: 157.9632724601053 kcal/mol)

>  <smiles>  (83) 
C=c1c(=Cc2[nH]c(=O)[nH]c2O)cc(C(=O)N2CCN(CCn3cccn3)CC2)n1C

>  <score_type>  (83) 
oracle

>  <origin>  (83) 
adg

>  <m_score__min__energy>  (83) 
-13.5

>  <m_primary>  (83) 
energy

$$$$
83:0
     RDKit          3D

 49 52  0  0  0  0  0  0  0  0999 V2000
   55.7660   26.3190   45.1360 H   0  0  0  0  0  0  0  0  0  0  0  0
   55.6710   27.2000   45.6260 O   0  0  0  0  0  0  0  0  0  0  0  0
   56.2580   28.3570   45.1250 C   0  0  0  0  0  0  0  0  0  0  0  0
   55.6870   29.5710   45.1760 N   0  0  0  0  0  0  0  0  0  0  0  0
   56.6310   30.3660   44.6280 C   0  0  0  0  0  0  0  0  0  0  0  0
   56.4800   31.6080   44.4970 O   0  0  0  0  0  0  0  0  0  0  0  0
   57.7570   29.7260   44.2430 N   0  0  0  0  0  0  0  0  0  0  0  0
   57.5000   28.4400   44.5350 C   0  0  0  0  0  0  0  0  0  0  0  0
   58.4900   27.3630   44.4110 C   0  0  0  0  0  0  0  0  0  0  0  0
   58.6617   26.9515   43.4054 H   0  0  0  0  0  0  0  0  0  0  0  0
   59.2080   26.8340   45.4250 C   0  0  0  0  0  0  0  0  0  0  0  0
   60.2260   27.4970   46.1060 C   0  0  0  0  0  0  0  0  0  0  0  0
   60.7760   28.8410   45.8490 C   0  0  0  0  0  0  0  0  0  0  0  0
   61.5110   29.0140   44.8400 O   0  0  0  0  0  0  0  0  0  0  0  0
   60.4460   29.9590   46.6940 N   0  0  0  0  0  0  0  0  0  0  0  0
   59.1180   30.0480   47.3170 C   0  0  0  0  0  0  0  0  0  0  0  0
   58.3518   29.7766   46.5759 H   0  0  0  0  0  0  0  0  0  0  0  0
   59.0799   29.3578   48.1727 H   0  0  0  0  0  0  0  0  0  0  0  0
   58.8540   31.4680   47.8160 C   0  0  0  0  0  0  0  0  0  0  0  0
   57.7778   31.6015   48.0000 H   0  0  0  0  0  0  0  0  0  0  0  0
   59.4015   31.6435   48.7538 H   0  0  0  0  0  0  0  0  0  0  0  0
   59.3050   32.4260   46.7820 N   0  0  0  0  0  0  0  0  0  0  0  0
   58.7160   33.7770   47.0190 C   0  0  0  0  0  0  0  0  0  0  0  0
   58.6834   33.8552   48.1157 H   0  0  0  0  0  0  0  0  0  0  0  0
   59.5090   34.9380   46.3930 C   0  0  0  0  0  0  0  0  0  0  0  0
   59.2621   35.8857   46.8940 H   0  0  0  0  0  0  0  0  0  0  0  0
   60.5943   34.7922   46.4971 H   0  0  0  0  0  0  0  0  0  0  0  0
   59.0860   34.9830   44.9370 C   0  0  0  0  0  0  0  0  0  0  0  0
   59.1103   36.0171   44.5629 H   0  0  0  0  0  0  0  0  0  0  0  0
   59.7615   34.3923   44.3008 H   0  0  0  0  0  0  0  0  0  0  0  0
   57.6630   34.4390   44.9010 C   0  0  0  0  0  0  0  0  0  0  0  0
   56.9561   35.2432   44.6489 H   0  0  0  0  0  0  0  0  0  0  0  0
   57.5598   33.6520   44.1394 H   0  0  0  0  0  0  0  0  0  0  0  0
   57.3650   33.8950   46.2960 C   0  0  0  0  0  0  0  0  0  0  0  0
   56.7029   34.5853   46.8391 H   0  0  0  0  0  0  0  0  0  0  0  0
   56.8576   32.9205   46.2418 H   0  0  0  0  0  0  0  0  0  0  0  0
   60.7900   32.4230   46.7090 C   0  0  0  0  0  0  0  0  0  0  0  0
   61.0894   32.7859   45.7147 H   0  0  0  0  0  0  0  0  0  0  0  0
   61.1527   33.0719   47.5198 H   0  0  0  0  0  0  0  0  0  0  0  0
   61.4210   31.0290   46.9300 C   0  0  0  0  0  0  0  0  0  0  0  0
   62.2653   30.9038   46.2361 H   0  0  0  0  0  0  0  0  0  0  0  0
   61.7620   30.9639   47.9738 H   0  0  0  0  0  0  0  0  0  0  0  0
   60.5940   26.6840   47.1590 C   0  0  0  0  0  0  0  0  0  0  0  0
   61.3442   26.9355   47.9231 H   0  0  0  0  0  0  0  0  0  0  0  0
   59.9110   25.5650   47.1080 O   0  0  0  0  0  0  0  0  0  0  0  0
   59.0940   25.5990   46.0790 C   0  0  0  0  0  0  0  0  0  0  0  0
   58.3520   24.5410   45.7440 C   0  0  0  0  0  0  0  0  0  0  0  0
   57.6759   24.5954   44.8780 H   0  0  0  0  0  0  0  0  0  0  0  0
   58.4167   23.6148   46.3340 H   0  0  0  0  0  0  0  0  0  0  0  0
  1  2  1  0
  2  3  1  0
  3  4  1  0
  4  5  1  0
  5  6  2  0
  5  7  1  0
  7  8  1  0
  8  9  1  0
  9 10  1  0
  9 11  2  0
 11 12  1  0
 12 13  1  0
 13 14  2  0
 13 15  1  0
 15 16  1  0
 16 17  1  0
 16 18  1  0
 16 19  1  0
 19 20  1  0
 19 21  1  0
 19 22  1  0
 22 23  1  0
 23 24  1  0
 23 25  1  0
 25 26  1  0
 25 27  1  0
 25 28  1  0
 28 29  1  0
 28 30  1  0
 28 31  1  0
 31 32  1  0
 31 33  1  0
 31 34  1  0
 34 35  1  0
 34 36  1  0
 22 37  1  0
 37 38  1  0
 37 39  1  0
 37 40  1  0
 40 41  1  0
 40 42  1  0
 12 43  2  0
 43 44  1  0
 43 45  1  0
 45 46  1  0
 46 47  2  0
 47 48  1  0
 47 49  1  0
  8  3  2  0
 46 11  1  0
 40 15  1  0
 34 23  1  0
M  CHG  2   4  -1   7  -1
M  END
>  <UniqueID>  (84) 
76

>  <SMILES>  (84) 
C=c1occ(C(=O)N2CCN(C3CCCC3)CC2)/c1=C/c1[n-]c(=O)[n-]c1O

>  <Energy>  (84) 
138.2350856711324

>  <Genealogy>  (84) 
C=c1occ(C(=O)N2CCN(C3CCCC3)CC2)c1=Cc1[n-]c(=O)[n-]c1O (protonated)
C=c1occ(C(=O)N2CCN(C3CCCC3)CC2)/c1=C/c1[n-]c(=O)[n-]c1O (cis-trans isomerization)
C=c1occ(C(=O)N2CCN(C3CCCC3)CC2)/c1=C/c1[n-]c(=O)[n-]c1O (3D coordinates assigned)
C=c1occ(C(=O)N2CCN(C3CCCC3)CC2)/c1=C/c1[n-]c(=O)[n-]c1O (nonaromatic ring conformer: 138.2350856711324 kcal/mol)

>  <smiles>  (84) 
C=c1occ(C(=O)N2CCN(C3CCCC3)CC2)c1=Cc1[nH]c(=O)[nH]c1O

>  <score_type>  (84) 
oracle

>  <origin>  (84) 
adg

>  <m_score__min__energy>  (84) 
-12.43

>  <m_primary>  (84) 
energy

$$$$
84:0
     RDKit          3D

 50 52  0  0  0  0  0  0  0  0999 V2000
   57.3450   24.8760   43.9600 C   0  0  0  0  0  0  0  0  0  0  0  0
   57.0340   25.1100   45.2330 C   0  0  0  0  0  0  0  0  0  0  0  0
   55.8360   25.8670   45.6310 C   0  0  0  0  0  0  0  0  0  0  0  0
   54.7690   25.2650   45.9310 O   0  0  0  0  0  0  0  0  0  0  0  0
   55.8870   27.2990   45.6190 N   0  0  0  0  0  0  0  0  0  0  0  0
   57.0600   28.1140   45.7600 C   0  0  0  0  0  0  0  0  0  0  0  0
   58.0880   27.7940   46.6640 C   0  0  0  0  0  0  0  0  0  0  0  0
   59.2220   28.6060   46.7560 C   0  0  0  0  0  0  0  0  0  0  0  0
   59.3490   29.7320   45.9390 C   0  0  0  0  0  0  0  0  0  0  0  0
   58.3430   30.0470   45.0120 C   0  0  0  0  0  0  0  0  0  0  0  0
   58.4660   31.2640   44.1320 C   0  0  0  0  0  0  0  0  0  0  0  0
   57.6060   32.3630   44.6250 N   0  0  0  0  0  0  0  0  0  0  0  0
   58.0270   33.6990   44.1170 C   0  0  0  0  0  0  0  0  0  0  0  0
   58.6510   34.6170   45.1880 C   0  0  0  0  0  0  0  0  0  0  0  0
   59.5180   33.8030   46.1600 C   0  0  0  0  0  0  0  0  0  0  0  0
   60.3270   34.6900   47.1370 C   0  0  0  0  0  0  0  0  0  0  0  0
   61.6180   34.0720   47.6260 C   0  0  0  0  0  0  0  0  0  0  0  0
   62.5080   33.4660   46.7210 C   0  0  0  0  0  0  0  0  0  0  0  0
   63.7010   32.8980   47.1770 C   0  0  0  0  0  0  0  0  0  0  0  0
   64.0220   32.9380   48.5360 C   0  0  0  0  0  0  0  0  0  0  0  0
   63.1530   33.5520   49.4410 C   0  0  0  0  0  0  0  0  0  0  0  0
   61.9590   34.1210   48.9890 C   0  0  0  0  0  0  0  0  0  0  0  0
   58.6760   32.7210   46.8780 C   0  0  0  0  0  0  0  0  0  0  0  0
   57.4070   32.3340   46.0920 C   0  0  0  0  0  0  0  0  0  0  0  0
   57.2040   29.2310   44.9250 C   0  0  0  0  0  0  0  0  0  0  0  0
   58.2516   24.3048   43.7113 H   0  0  0  0  0  0  0  0  0  0  0  0
   56.6954   25.2538   43.1567 H   0  0  0  0  0  0  0  0  0  0  0  0
   57.6988   24.7222   46.0189 H   0  0  0  0  0  0  0  0  0  0  0  0
   57.9996   26.9016   47.3011 H   0  0  0  0  0  0  0  0  0  0  0  0
   60.0172   28.3575   47.4743 H   0  0  0  0  0  0  0  0  0  0  0  0
   60.2390   30.3730   46.0222 H   0  0  0  0  0  0  0  0  0  0  0  0
   59.5132   31.6007   44.1278 H   0  0  0  0  0  0  0  0  0  0  0  0
   58.1439   30.9956   43.1150 H   0  0  0  0  0  0  0  0  0  0  0  0
   58.7689   33.5462   43.3194 H   0  0  0  0  0  0  0  0  0  0  0  0
   57.1158   34.2028   43.7621 H   0  0  0  0  0  0  0  0  0  0  0  0
   59.2764   35.3753   44.6941 H   0  0  0  0  0  0  0  0  0  0  0  0
   57.8420   35.1009   45.7549 H   0  0  0  0  0  0  0  0  0  0  0  0
   60.2774   33.2794   45.5607 H   0  0  0  0  0  0  0  0  0  0  0  0
   60.5703   35.6321   46.6239 H   0  0  0  0  0  0  0  0  0  0  0  0
   59.6939   34.8336   48.0250 H   0  0  0  0  0  0  0  0  0  0  0  0
   62.2639   33.4389   45.6488 H   0  0  0  0  0  0  0  0  0  0  0  0
   64.3883   32.4186   46.4644 H   0  0  0  0  0  0  0  0  0  0  0  0
   64.9590   32.4860   48.8934 H   0  0  0  0  0  0  0  0  0  0  0  0
   63.4085   33.5878   50.5103 H   0  0  0  0  0  0  0  0  0  0  0  0
   61.2817   34.6103   49.7044 H   0  0  0  0  0  0  0  0  0  0  0  0
   59.2964   31.8221   47.0090 H   0  0  0  0  0  0  0  0  0  0  0  0
   58.3539   33.1380   47.8436 H   0  0  0  0  0  0  0  0  0  0  0  0
   57.1090   31.3167   46.3856 H   0  0  0  0  0  0  0  0  0  0  0  0
   56.6303   33.0743   46.3342 H   0  0  0  0  0  0  0  0  0  0  0  0
   56.4170   29.4703   44.1947 H   0  0  0  0  0  0  0  0  0  0  0  0
  1  2  2  0
  2  3  1  0
  3  4  2  0
  3  5  1  0
  5  6  1  0
  6  7  2  0
  7  8  1  0
  8  9  2  0
  9 10  1  0
 10 11  1  0
 11 12  1  0
 12 13  1  0
 13 14  1  0
 14 15  1  0
 15 16  1  0
 16 17  1  0
 17 18  2  0
 18 19  1  0
 19 20  2  0
 20 21  1  0
 21 22  2  0
 15 23  1  0
 23 24  1  0
 10 25  2  0
 25  6  1  0
 24 12  1  0
 22 17  1  0
  1 26  1  0
  1 27  1  0
  2 28  1  0
  7 29  1  0
  8 30  1  0
  9 31  1  0
 11 32  1  0
 11 33  1  0
 13 34  1  0
 13 35  1  0
 14 36  1  0
 14 37  1  0
 15 38  1  0
 16 39  1  0
 16 40  1  0
 18 41  1  0
 19 42  1  0
 20 43  1  0
 21 44  1  0
 22 45  1  0
 23 46  1  0
 23 47  1  0
 24 48  1  0
 24 49  1  0
 25 50  1  0
M  CHG  1   5  -1
M  END
>  <UniqueID>  (85) 
77

>  <SMILES>  (85) 
C=CC(=O)[N-]c1cccc(CN2CCC(Cc3ccccc3)CC2)c1

>  <Energy>  (85) 
61.81836712679069

>  <Genealogy>  (85) 
C=CC(=O)[N-]c1cccc(CN2CCC(Cc3ccccc3)CC2)c1 (protonated)
C=CC(=O)[N-]c1cccc(CN2CCC(Cc3ccccc3)CC2)c1 (3D coordinates assigned)
C=CC(=O)[N-]c1cccc(CN2CCC(Cc3ccccc3)CC2)c1 (nonaromatic ring conformer: 61.81836712679069 kcal/mol)

>  <smiles>  (85) 
C=CC(=O)Nc1cccc(CN2CCC(Cc3ccccc3)CC2)c1

>  <score_type>  (85) 
oracle

>  <origin>  (85) 
adg

>  <m_score__min__energy>  (85) 
-11.51

>  <m_primary>  (85) 
energy

$$$$
85:0
     RDKit          3D

 52 54  0  0  0  0  0  0  0  0999 V2000
   57.0310   22.7330   44.0400 C   0  0  0  0  0  0  0  0  0  0  0  0
   57.1360   24.0120   44.8040 C   0  0  0  0  0  0  0  0  0  0  0  0
   56.0040   24.8010   45.0330 C   0  0  0  0  0  0  0  0  0  0  0  0
   56.1460   25.9680   45.7880 C   0  0  0  0  0  0  0  0  0  0  0  0
   55.1500   26.7040   46.0120 O   0  0  0  0  0  0  0  0  0  0  0  0
   57.3640   26.3100   46.2830 N   0  0  0  0  0  0  0  0  0  0  0  0
   58.4530   25.5310   46.0520 C   0  0  0  0  0  0  0  0  0  0  0  0
   60.0510   26.0070   46.7010 S   0  0  0  0  0  0  0  0  0  0  0  0
   59.4030   27.3970   47.6870 C   0  0  0  0  0  0  0  0  0  0  0  0
   59.4630   28.6810   46.9180 C   0  0  0  0  0  0  0  0  0  0  0  0
   60.5480   29.3230   46.8620 O   0  0  0  0  0  0  0  0  0  0  0  0
   58.3060   29.1580   46.2180 N   0  0  0  0  0  0  0  0  0  0  0  0
   58.2000   30.4950   45.7080 C   0  0  0  0  0  0  0  0  0  0  0  0
   58.8990   31.5250   46.3570 C   0  0  0  0  0  0  0  0  0  0  0  0
   58.8230   32.8430   45.8900 C   0  0  0  0  0  0  0  0  0  0  0  0
   59.7120   34.1340   46.7050 S   0  0  0  0  0  0  0  0  0  0  0  0
   58.8800   34.6700   47.8350 O   0  0  0  0  0  0  0  0  0  0  0  0
   59.9500   35.2560   45.7310 O   0  0  0  0  0  0  0  0  0  0  0  0
   61.2420   33.5730   47.3360 N   0  0  0  0  0  0  0  0  0  0  0  0
   61.5230   34.2110   48.6310 C   0  0  0  0  0  0  0  0  0  0  0  0
   62.7460   33.5570   49.3010 C   0  0  0  0  0  0  0  0  0  0  0  0
   63.6590   32.8420   48.2910 C   0  0  0  0  0  0  0  0  0  0  0  0
   63.7270   33.6130   46.9720 C   0  0  0  0  0  0  0  0  0  0  0  0
   62.3240   33.8440   46.3670 C   0  0  0  0  0  0  0  0  0  0  0  0
   58.0440   33.1340   44.7660 C   0  0  0  0  0  0  0  0  0  0  0  0
   57.3670   32.1150   44.0960 C   0  0  0  0  0  0  0  0  0  0  0  0
   57.4580   30.7860   44.5350 C   0  0  0  0  0  0  0  0  0  0  0  0
   56.7730   29.7100   43.7380 C   0  0  0  0  0  0  0  0  0  0  0  0
   58.3330   24.3910   45.3230 N   0  0  0  0  0  0  0  0  0  0  0  0
   56.9618   21.8903   44.7436 H   0  0  0  0  0  0  0  0  0  0  0  0
   56.1318   22.7569   43.4069 H   0  0  0  0  0  0  0  0  0  0  0  0
   57.9221   22.6099   43.4069 H   0  0  0  0  0  0  0  0  0  0  0  0
   55.0239   24.5092   44.6277 H   0  0  0  0  0  0  0  0  0  0  0  0
   58.3571   27.1888   47.9566 H   0  0  0  0  0  0  0  0  0  0  0  0
   60.0226   27.5024   48.5897 H   0  0  0  0  0  0  0  0  0  0  0  0
   57.5590   28.4720   45.9630 H   0  0  0  0  0  0  0  0  0  0  0  0
   59.5122   31.2946   47.2407 H   0  0  0  0  0  0  0  0  0  0  0  0
   61.7265   35.2801   48.4711 H   0  0  0  0  0  0  0  0  0  0  0  0
   60.6487   34.0850   49.2866 H   0  0  0  0  0  0  0  0  0  0  0  0
   63.3284   34.3383   49.8114 H   0  0  0  0  0  0  0  0  0  0  0  0
   62.3748   32.8014   50.0091 H   0  0  0  0  0  0  0  0  0  0  0  0
   64.6713   32.7632   48.7142 H   0  0  0  0  0  0  0  0  0  0  0  0
   63.2457   31.8423   48.0916 H   0  0  0  0  0  0  0  0  0  0  0  0
   64.2008   34.5888   47.1544 H   0  0  0  0  0  0  0  0  0  0  0  0
   64.3124   33.0156   46.2575 H   0  0  0  0  0  0  0  0  0  0  0  0
   62.2492   34.8908   46.0374 H   0  0  0  0  0  0  0  0  0  0  0  0
   62.2027   33.1470   45.5247 H   0  0  0  0  0  0  0  0  0  0  0  0
   57.9647   34.1712   44.4085 H   0  0  0  0  0  0  0  0  0  0  0  0
   56.7554   32.3562   43.2141 H   0  0  0  0  0  0  0  0  0  0  0  0
   56.3109   28.9841   44.4232 H   0  0  0  0  0  0  0  0  0  0  0  0
   55.9959   30.1618   43.1039 H   0  0  0  0  0  0  0  0  0  0  0  0
   57.5112   29.1971   43.1039 H   0  0  0  0  0  0  0  0  0  0  0  0
  1  2  1  0
  2  3  2  0
  3  4  1  0
  4  5  2  0
  4  6  1  0
  6  7  1  0
  7  8  1  0
  8  9  1  0
  9 10  1  0
 10 11  2  0
 10 12  1  0
 12 13  1  0
 13 14  2  0
 14 15  1  0
 15 16  1  0
 16 17  2  0
 16 18  2  0
 16 19  1  0
 19 20  1  0
 20 21  1  0
 21 22  1  0
 22 23  1  0
 23 24  1  0
 15 25  2  0
 25 26  1  0
 26 27  2  0
 27 28  1  0
  7 29  2  0
 29  2  1  0
 27 13  1  0
 24 19  1  0
  1 30  1  0
  1 31  1  0
  1 32  1  0
  3 33  1  0
  9 34  1  0
  9 35  1  0
 12 36  1  0
 14 37  1  0
 20 38  1  0
 20 39  1  0
 21 40  1  0
 21 41  1  0
 22 42  1  0
 22 43  1  0
 23 44  1  0
 23 45  1  0
 24 46  1  0
 24 47  1  0
 25 48  1  0
 26 49  1  0
 28 50  1  0
 28 51  1  0
 28 52  1  0
M  CHG  1   6  -1
M  END
>  <UniqueID>  (86) 
78

>  <SMILES>  (86) 
Cc1cc(=O)[n-]c(SCC(=O)Nc2cc(S(=O)(=O)N3CCCCC3)ccc2C)n1

>  <Energy>  (86) 
52.96127394069484

>  <Genealogy>  (86) 
Cc1cc(=O)[n-]c(SCC(=O)Nc2cc(S(=O)(=O)N3CCCCC3)ccc2C)n1 (protonated)
Cc1cc(=O)[n-]c(SCC(=O)Nc2cc(S(=O)(=O)N3CCCCC3)ccc2C)n1 (3D coordinates assigned)
Cc1cc(=O)[n-]c(SCC(=O)Nc2cc(S(=O)(=O)N3CCCCC3)ccc2C)n1 (nonaromatic ring conformer: 52.96127394069484 kcal/mol)

>  <smiles>  (86) 
Cc1cc(=O)[nH]c(SCC(=O)Nc2cc(S(=O)(=O)N3CCCCC3)ccc2C)n1

>  <score_type>  (86) 
oracle

>  <origin>  (86) 
adg

>  <m_score__min__energy>  (86) 
-12.09

>  <m_primary>  (86) 
energy

$$$$
86:0
     RDKit          3D

 47 49  0  0  0  0  0  0  0  0999 V2000
   56.5760   29.9500   42.2500 N   0  0  0  0  0  0  0  0  0  0  0  0
   56.2210   29.9060   43.9400 S   0  0  0  0  0  0  0  0  0  0  0  0
   54.8440   29.3420   44.1440 O   0  0  0  0  0  0  0  0  0  0  0  0
   56.2670   31.2990   44.5020 O   0  0  0  0  0  0  0  0  0  0  0  0
   57.4160   28.9060   44.7610 C   0  0  0  0  0  0  0  0  0  0  0  0
   58.7650   29.0010   44.3980 C   0  0  0  0  0  0  0  0  0  0  0  0
   59.7230   28.2080   45.0350 C   0  0  0  0  0  0  0  0  0  0  0  0
   59.3410   27.3140   46.0480 C   0  0  0  0  0  0  0  0  0  0  0  0
   60.3720   26.4950   46.7800 C   0  0  0  0  0  0  0  0  0  0  0  0
   60.7660   27.1580   48.0190 N   0  0  0  0  0  0  0  0  0  0  0  0
   60.2390   28.4050   48.4880 C   0  0  0  0  0  0  0  0  0  0  0  0
   59.9040   28.5100   49.6970 O   0  0  0  0  0  0  0  0  0  0  0  0
   60.0650   29.5250   47.6070 N   0  0  0  0  0  0  0  0  0  0  0  0
   58.7640   30.1920   47.5280 C   0  0  0  0  0  0  0  0  0  0  0  0
   58.8570   31.6400   48.0580 C   0  0  0  0  0  0  0  0  0  0  0  0
   60.2380   32.1940   48.0180 N   0  0  0  0  0  0  0  0  0  0  0  0
   60.2120   33.6730   48.0020 C   0  0  0  0  0  0  0  0  0  0  0  0
   60.9320   34.2870   46.7960 C   0  0  0  0  0  0  0  0  0  0  0  0
   59.6210   34.8750   46.3040 C   0  0  0  0  0  0  0  0  0  0  0  0
   58.8880   34.2360   47.4720 C   0  0  0  0  0  0  0  0  0  0  0  0
   60.9710   31.6840   46.8410 C   0  0  0  0  0  0  0  0  0  0  0  0
   61.2400   30.1890   47.0310 C   0  0  0  0  0  0  0  0  0  0  0  0
   57.9850   27.2100   46.4000 C   0  0  0  0  0  0  0  0  0  0  0  0
   57.0280   28.0010   45.7590 C   0  0  0  0  0  0  0  0  0  0  0  0
   57.5190   29.5160   42.1260 H   0  0  0  0  0  0  0  0  0  0  0  0
   55.8890   29.3240   41.7760 H   0  0  0  0  0  0  0  0  0  0  0  0
   59.0718   29.7026   43.6083 H   0  0  0  0  0  0  0  0  0  0  0  0
   60.7804   28.2844   44.7417 H   0  0  0  0  0  0  0  0  0  0  0  0
   59.9487   25.5077   47.0166 H   0  0  0  0  0  0  0  0  0  0  0  0
   61.2587   26.3837   46.1386 H   0  0  0  0  0  0  0  0  0  0  0  0
   58.4322   30.2124   46.4794 H   0  0  0  0  0  0  0  0  0  0  0  0
   58.0443   29.6356   48.1465 H   0  0  0  0  0  0  0  0  0  0  0  0
   58.2064   32.2793   47.4432 H   0  0  0  0  0  0  0  0  0  0  0  0
   58.5436   31.6218   49.1123 H   0  0  0  0  0  0  0  0  0  0  0  0
   60.5553   33.8847   49.0254 H   0  0  0  0  0  0  0  0  0  0  0  0
   61.6890   35.0396   47.0616 H   0  0  0  0  0  0  0  0  0  0  0  0
   61.5398   33.6546   46.1322 H   0  0  0  0  0  0  0  0  0  0  0  0
   59.5944   35.9747   46.3060 H   0  0  0  0  0  0  0  0  0  0  0  0
   59.2847   34.6939   45.2725 H   0  0  0  0  0  0  0  0  0  0  0  0
   58.4055   34.9578   48.1474 H   0  0  0  0  0  0  0  0  0  0  0  0
   58.0332   33.5675   47.2919 H   0  0  0  0  0  0  0  0  0  0  0  0
   60.3665   31.8378   45.9349 H   0  0  0  0  0  0  0  0  0  0  0  0
   61.9242   32.2226   46.7346 H   0  0  0  0  0  0  0  0  0  0  0  0
   61.4702   29.7357   46.0555 H   0  0  0  0  0  0  0  0  0  0  0  0
   62.0910   30.0648   47.7169 H   0  0  0  0  0  0  0  0  0  0  0  0
   57.6753   26.5028   47.1836 H   0  0  0  0  0  0  0  0  0  0  0  0
   55.9676   27.9134   46.0381 H   0  0  0  0  0  0  0  0  0  0  0  0
  1  2  1  0
  2  3  2  0
  2  4  2  0
  2  5  1  0
  5  6  2  0
  6  7  1  0
  7  8  2  0
  8  9  1  0
  9 10  1  0
 10 11  1  0
 11 12  2  0
 11 13  1  0
 13 14  1  0
 14 15  1  0
 15 16  1  0
 16 17  1  0
 17 18  1  0
 18 19  1  0
 19 20  1  0
 16 21  1  0
 21 22  1  0
  8 23  1  0
 23 24  2  0
 24  5  1  0
 22 13  1  0
 20 17  1  0
  1 25  1  0
  1 26  1  0
  6 27  1  0
  7 28  1  0
  9 29  1  0
  9 30  1  0
 14 31  1  0
 14 32  1  0
 15 33  1  0
 15 34  1  0
 17 35  1  0
 18 36  1  0
 18 37  1  0
 19 38  1  0
 19 39  1  0
 20 40  1  0
 20 41  1  0
 21 42  1  0
 21 43  1  0
 22 44  1  0
 22 45  1  0
 23 46  1  0
 24 47  1  0
M  CHG  1  10  -1
M  END
>  <UniqueID>  (87) 
79

>  <SMILES>  (87) 
NS(=O)(=O)c1ccc(C[N-]C(=O)N2CCN(C3CCC3)CC2)cc1

>  <Energy>  (87) 
113.72610070050128

>  <Genealogy>  (87) 
NS(=O)(=O)c1ccc(C[N-]C(=O)N2CCN(C3CCC3)CC2)cc1 (protonated)
NS(=O)(=O)c1ccc(C[N-]C(=O)N2CCN(C3CCC3)CC2)cc1 (3D coordinates assigned)
NS(=O)(=O)c1ccc(C[N-]C(=O)N2CCN(C3CCC3)CC2)cc1 (nonaromatic ring conformer: 113.72610070050128 kcal/mol)

>  <smiles>  (87) 
NS(=O)(=O)c1ccc(CNC(=O)N2CCN(C3CCC3)CC2)cc1

>  <score_type>  (87) 
oracle

>  <origin>  (87) 
adg

>  <m_score__min__energy>  (87) 
-11.25

>  <m_primary>  (87) 
energy

$$$$
87:0
     RDKit          3D

 58 59  0  0  0  0  0  0  0  0999 V2000
   57.7280   25.6000   47.4730 C   0  0  0  0  0  0  0  0  0  0  0  0
   56.4500   25.5390   46.6360 C   0  0  0  0  0  0  0  0  0  0  0  0
   56.2760   24.1540   46.0080 C   0  0  0  0  0  0  0  0  0  0  0  0
   56.4950   26.5580   45.5850 N   0  0  0  0  0  0  0  0  0  0  0  0
   57.6960   26.8650   44.8600 C   0  0  0  0  0  0  0  0  0  0  0  0
   58.7100   26.1240   44.9720 O   0  0  0  0  0  0  0  0  0  0  0  0
   57.7480   27.9730   43.9520 N   0  0  0  0  0  0  0  0  0  0  0  0
   57.7680   29.3630   44.3080 C   0  0  0  0  0  0  0  0  0  0  0  0
   56.6570   30.1540   44.0000 C   0  0  0  0  0  0  0  0  0  0  0  0
   56.6540   31.5200   44.2990 C   0  0  0  0  0  0  0  0  0  0  0  0
   57.7730   32.1130   44.8970 C   0  0  0  0  0  0  0  0  0  0  0  0
   57.7870   33.8310   45.2860 S   0  0  0  0  0  0  0  0  0  0  0  0
   56.4740   34.4590   44.9110 O   0  0  0  0  0  0  0  0  0  0  0  0
   58.8800   34.4930   44.4930 O   0  0  0  0  0  0  0  0  0  0  0  0
   58.0780   34.0410   46.9960 N   0  0  0  0  0  0  0  0  0  0  0  0
   59.2230   34.9560   47.2300 C   0  0  0  0  0  0  0  0  0  0  0  0
   60.5000   34.2370   47.6910 C   0  0  0  0  0  0  0  0  0  0  0  0
   60.2140   33.4060   48.8670 N   0  0  0  0  0  0  0  0  0  0  0  0
   61.2490   33.1250   49.8260 C   0  0  0  0  0  0  0  0  0  0  0  0
   60.9730   32.4790   50.8750 O   0  0  0  0  0  0  0  0  0  0  0  0
   62.5590   33.5710   49.5850 O   0  0  0  0  0  0  0  0  0  0  0  0
   63.5270   32.9470   48.7280 C   0  0  0  0  0  0  0  0  0  0  0  0
   63.7500   33.7840   47.4560 C   0  0  0  0  0  0  0  0  0  0  0  0
   62.9570   31.5780   48.3270 C   0  0  0  0  0  0  0  0  0  0  0  0
   64.8550   32.7340   49.4790 C   0  0  0  0  0  0  0  0  0  0  0  0
   58.8810   32.8080   49.0120 C   0  0  0  0  0  0  0  0  0  0  0  0
   58.1940   32.7180   47.6460 C   0  0  0  0  0  0  0  0  0  0  0  0
   58.8940   31.3280   45.1920 C   0  0  0  0  0  0  0  0  0  0  0  0
   58.8990   29.9630   44.8890 C   0  0  0  0  0  0  0  0  0  0  0  0
   57.4674   25.5876   48.5416 H   0  0  0  0  0  0  0  0  0  0  0  0
   58.3609   24.7310   47.2398 H   0  0  0  0  0  0  0  0  0  0  0  0
   58.2752   26.5253   47.2398 H   0  0  0  0  0  0  0  0  0  0  0  0
   55.5923   25.7317   47.2972 H   0  0  0  0  0  0  0  0  0  0  0  0
   56.1813   23.4000   46.8033 H   0  0  0  0  0  0  0  0  0  0  0  0
   55.3697   24.1453   45.3847 H   0  0  0  0  0  0  0  0  0  0  0  0
   57.1520   23.9214   45.3847 H   0  0  0  0  0  0  0  0  0  0  0  0
   55.5940   26.9700   45.2520 H   0  0  0  0  0  0  0  0  0  0  0  0
   55.7789   29.6984   43.5190 H   0  0  0  0  0  0  0  0  0  0  0  0
   55.7699   32.1308   44.0638 H   0  0  0  0  0  0  0  0  0  0  0  0
   59.4419   35.4863   46.2915 H   0  0  0  0  0  0  0  0  0  0  0  0
   58.9286   35.6412   48.0386 H   0  0  0  0  0  0  0  0  0  0  0  0
   60.8725   33.5987   46.8763 H   0  0  0  0  0  0  0  0  0  0  0  0
   61.2599   34.9869   47.9560 H   0  0  0  0  0  0  0  0  0  0  0  0
   64.0238   34.8117   47.7367 H   0  0  0  0  0  0  0  0  0  0  0  0
   64.5607   33.3380   46.8611 H   0  0  0  0  0  0  0  0  0  0  0  0
   62.8249   33.8005   46.8611 H   0  0  0  0  0  0  0  0  0  0  0  0
   62.7169   31.0013   49.2324 H   0  0  0  0  0  0  0  0  0  0  0  0
   62.0438   31.7214   47.7307 H   0  0  0  0  0  0  0  0  0  0  0  0
   63.7021   31.0310   47.7307 H   0  0  0  0  0  0  0  0  0  0  0  0
   64.6719   32.7634   50.5633 H   0  0  0  0  0  0  0  0  0  0  0  0
   65.2785   31.7565   49.2050 H   0  0  0  0  0  0  0  0  0  0  0  0
   65.5630   33.5301   49.2050 H   0  0  0  0  0  0  0  0  0  0  0  0
   58.9793   31.7983   49.4372 H   0  0  0  0  0  0  0  0  0  0  0  0
   58.2744   33.4374   49.6797 H   0  0  0  0  0  0  0  0  0  0  0  0
   58.7819   32.0533   46.9960 H   0  0  0  0  0  0  0  0  0  0  0  0
   57.1782   32.3258   47.8018 H   0  0  0  0  0  0  0  0  0  0  0  0
   59.7749   31.7872   45.6643 H   0  0  0  0  0  0  0  0  0  0  0  0
   59.7907   29.3566   45.1059 H   0  0  0  0  0  0  0  0  0  0  0  0
  1  2  1  0
  2  3  1  0
  2  4  1  0
  4  5  1  0
  5  6  2  0
  5  7  1  0
  7  8  1  0
  8  9  2  0
  9 10  1  0
 10 11  2  0
 11 12  1  0
 12 13  2  0
 12 14  2  0
 12 15  1  0
 15 16  1  0
 16 17  1  0
 17 18  1  0
 18 19  1  0
 19 20  2  0
 19 21  1  0
 21 22  1  0
 22 23  1  0
 22 24  1  0
 22 25  1  0
 18 26  1  0
 26 27  1  0
 11 28  1  0
 28 29  2  0
 29  8  1  0
 27 15  1  0
  1 30  1  0
  1 31  1  0
  1 32  1  0
  2 33  1  0
  3 34  1  0
  3 35  1  0
  3 36  1  0
  4 37  1  0
  9 38  1  0
 10 39  1  0
 16 40  1  0
 16 41  1  0
 17 42  1  0
 17 43  1  0
 23 44  1  0
 23 45  1  0
 23 46  1  0
 24 47  1  0
 24 48  1  0
 24 49  1  0
 25 50  1  0
 25 51  1  0
 25 52  1  0
 26 53  1  0
 26 54  1  0
 27 55  1  0
 27 56  1  0
 28 57  1  0
 29 58  1  0
M  CHG  1   7  -1
M  END
>  <UniqueID>  (88) 
80

>  <SMILES>  (88) 
CC(C)NC(=O)[N-]c1ccc(S(=O)(=O)N2CCN(C(=O)OC(C)(C)C)CC2)cc1

>  <Energy>  (88) 
54.22619370477032

>  <Genealogy>  (88) 
CC(C)NC(=O)[N-]c1ccc(S(=O)(=O)N2CCN(C(=O)OC(C)(C)C)CC2)cc1 (protonated)
CC(C)NC(=O)[N-]c1ccc(S(=O)(=O)N2CCN(C(=O)OC(C)(C)C)CC2)cc1 (3D coordinates assigned)
CC(C)NC(=O)[N-]c1ccc(S(=O)(=O)N2CCN(C(=O)OC(C)(C)C)CC2)cc1 (nonaromatic ring conformer: 54.22619370477032 kcal/mol)

>  <smiles>  (88) 
CC(C)NC(=O)Nc1ccc(S(=O)(=O)N2CCN(C(=O)OC(C)(C)C)CC2)cc1

>  <score_type>  (88) 
oracle

>  <origin>  (88) 
adg

>  <m_score__min__energy>  (88) 
-9.8100000000000005

>  <m_primary>  (88) 
energy

$$$$
88:0
     RDKit          3D

 47 50  0  0  0  0  0  0  0  0999 V2000
   57.9957   32.4383   45.3173 H   0  0  0  0  0  0  0  0  0  0  0  0
   57.4460   31.6040   44.8570 C   0  0  0  0  0  0  0  0  0  0  0  0
   56.5793   31.8065   44.2106 H   0  0  0  0  0  0  0  0  0  0  0  0
   57.8310   30.3450   45.0830 C   0  0  0  0  0  0  0  0  0  0  0  0
   57.1850   29.2860   44.5380 N   0  0  0  0  0  0  0  0  0  0  0  0
   57.8950   28.2130   44.9440 C   0  0  0  0  0  0  0  0  0  0  0  0
   57.5910   26.9370   44.6610 C   0  0  0  0  0  0  0  0  0  0  0  0
   57.7140   26.5965   43.6223 H   0  0  0  0  0  0  0  0  0  0  0  0
   57.1020   25.9610   45.6550 C   0  0  0  0  0  0  0  0  0  0  0  0
   57.8420   24.9220   46.0780 N   0  0  0  0  0  0  0  0  0  0  0  0
   57.0160   24.2660   46.9220 C   0  0  0  0  0  0  0  0  0  0  0  0
   57.3630   23.2240   47.5360 O   0  0  0  0  0  0  0  0  0  0  0  0
   55.7880   24.8100   47.0470 N   0  0  0  0  0  0  0  0  0  0  0  0
   55.8510   25.8760   46.2340 C   0  0  0  0  0  0  0  0  0  0  0  0
   54.7710   26.7160   45.9930 O   0  0  0  0  0  0  0  0  0  0  0  0
   58.9430   28.6410   45.7300 C   0  0  0  0  0  0  0  0  0  0  0  0
   59.7950   27.9070   46.3000 O   0  0  0  0  0  0  0  0  0  0  0  0
   58.9110   29.9840   45.8240 N   0  0  0  0  0  0  0  0  0  0  0  0
   59.8140   30.8120   46.5760 C   0  0  0  0  0  0  0  0  0  0  0  0
   61.1630   30.4500   46.7160 C   0  0  0  0  0  0  0  0  0  0  0  0
   61.5293   29.5184   46.2600 H   0  0  0  0  0  0  0  0  0  0  0  0
   62.0430   31.2660   47.4310 C   0  0  0  0  0  0  0  0  0  0  0  0
   63.0978   30.9720   47.5353 H   0  0  0  0  0  0  0  0  0  0  0  0
   61.5900   32.4600   48.0180 C   0  0  0  0  0  0  0  0  0  0  0  0
   62.5010   33.3090   48.7430 N   0  0  0  0  0  0  0  0  0  0  0  0
   62.0400   34.0520   49.9210 C   0  0  0  0  0  0  0  0  0  0  0  0
   61.5108   34.9585   49.5920 H   0  0  0  0  0  0  0  0  0  0  0  0
   61.3660   33.4076   50.5045 H   0  0  0  0  0  0  0  0  0  0  0  0
   63.2310   34.4560   50.8090 C   0  0  0  0  0  0  0  0  0  0  0  0
   63.6689   35.3850   50.4150 H   0  0  0  0  0  0  0  0  0  0  0  0
   62.8585   34.5958   51.8345 H   0  0  0  0  0  0  0  0  0  0  0  0
   64.2780   33.4100   50.8410 N   0  0  0  0  0  0  0  0  0  0  0  0
   65.0550   33.7780   51.4400 H   0  0  0  0  0  0  0  0  0  0  0  0
   63.7930   32.1800   51.5000 C   0  0  0  0  0  0  0  0  0  0  0  0
   63.8423   32.3051   52.5917 H   0  0  0  0  0  0  0  0  0  0  0  0
   62.7522   31.9890   51.1995 H   0  0  0  0  0  0  0  0  0  0  0  0
   64.4233   31.3301   51.1995 H   0  0  0  0  0  0  0  0  0  0  0  0
   64.8470   33.1170   49.4950 C   0  0  0  0  0  0  0  0  0  0  0  0
   65.7687   33.7050   49.3734 H   0  0  0  0  0  0  0  0  0  0  0  0
   65.0286   32.0328   49.4547 H   0  0  0  0  0  0  0  0  0  0  0  0
   63.8980   33.4550   48.3270 C   0  0  0  0  0  0  0  0  0  0  0  0
   64.0738   34.4924   48.0062 H   0  0  0  0  0  0  0  0  0  0  0  0
   64.0961   32.7626   47.4956 H   0  0  0  0  0  0  0  0  0  0  0  0
   60.2440   32.8310   47.8580 C   0  0  0  0  0  0  0  0  0  0  0  0
   59.8799   33.7701   48.3002 H   0  0  0  0  0  0  0  0  0  0  0  0
   59.3650   32.0150   47.1410 C   0  0  0  0  0  0  0  0  0  0  0  0
   58.3146   32.3178   47.0188 H   0  0  0  0  0  0  0  0  0  0  0  0
  1  2  1  0
  2  3  1  0
  2  4  2  0
  4  5  1  0
  5  6  1  0
  6  7  2  0
  7  8  1  0
  7  9  1  0
  9 10  1  0
 10 11  1  0
 11 12  2  0
 11 13  1  0
 13 14  1  0
 14 15  1  0
  6 16  1  0
 16 17  2  0
 16 18  1  0
 18 19  1  0
 19 20  2  0
 20 21  1  0
 20 22  1  0
 22 23  1  0
 22 24  2  0
 24 25  1  0
 25 26  1  0
 26 27  1  0
 26 28  1  0
 26 29  1  0
 29 30  1  0
 29 31  1  0
 29 32  1  0
 32 33  1  0
 32 34  1  0
 34 35  1  0
 34 36  1  0
 34 37  1  0
 32 38  1  0
 38 39  1  0
 38 40  1  0
 38 41  1  0
 41 42  1  0
 41 43  1  0
 24 44  1  0
 44 45  1  0
 44 46  2  0
 46 47  1  0
 18  4  1  0
 46 19  1  0
 14  9  2  0
 41 25  1  0
M  CHG  5   5  -1  10  -1  13  -1  15  -1  32   1
M  END
>  <UniqueID>  (89) 
81

>  <SMILES>  (89) 
C=c1[n-]/c(=C\c2[n-]c(=O)[n-]c2[O-])c(=O)n1-c1ccc(N2CC[NH+](C)CC2)cc1

>  <Energy>  (89) 
134.7526510687414

>  <Genealogy>  (89) 
C=c1[n-]c(=Cc2[n-]c(=O)[n-]c2[O-])c(=O)n1-c1ccc(N2CC[NH+](C)CC2)cc1 (protonated)
C=c1[n-]/c(=C\c2[n-]c(=O)[n-]c2[O-])c(=O)n1-c1ccc(N2CC[NH+](C)CC2)cc1 (cis-trans isomerization)
C=c1[n-]/c(=C\c2[n-]c(=O)[n-]c2[O-])c(=O)n1-c1ccc(N2CC[NH+](C)CC2)cc1 (3D coordinates assigned)
C=c1[n-]/c(=C\c2[n-]c(=O)[n-]c2[O-])c(=O)n1-c1ccc(N2CC[NH+](C)CC2)cc1 (nonaromatic ring conformer: 134.7526510687414 kcal/mol)

>  <smiles>  (89) 
C=c1[nH]c(=Cc2[nH]c(=O)[nH]c2O)c(=O)n1-c1ccc(N2CCN(C)CC2)cc1

>  <score_type>  (89) 
oracle

>  <origin>  (89) 
adg

>  <m_score__min__energy>  (89) 
-15.85

>  <m_primary>  (89) 
energy

$$$$
89:0
     RDKit          3D

 47 49  0  0  0  0  0  0  0  0999 V2000
   55.8750   30.8550   44.5210 O   0  0  0  0  0  0  0  0  0  0  0  0
   56.9150   30.2970   44.0750 C   0  0  0  0  0  0  0  0  0  0  0  0
   57.0820   28.8140   44.2300 C   0  0  0  0  0  0  0  0  0  0  0  0
   57.0200   28.3860   45.7000 C   0  0  0  0  0  0  0  0  0  0  0  0
   56.5110   26.9790   45.8490 C   0  0  0  0  0  0  0  0  0  0  0  0
   55.2040   26.6650   45.8830 N   0  0  0  0  0  0  0  0  0  0  0  0
   55.2100   25.3190   45.9840 C   0  0  0  0  0  0  0  0  0  0  0  0
   54.1540   24.6380   46.0480 O   0  0  0  0  0  0  0  0  0  0  0  0
   56.4370   24.7620   46.0130 N   0  0  0  0  0  0  0  0  0  0  0  0
   57.2620   25.8200   45.9140 C   0  0  0  0  0  0  0  0  0  0  0  0
   58.7580   25.7070   45.9570 C   0  0  0  0  0  0  0  0  0  0  0  0
   59.3380   26.3170   47.2390 C   0  0  0  0  0  0  0  0  0  0  0  0
   59.7390   27.7560   47.0360 C   0  0  0  0  0  0  0  0  0  0  0  0
   59.4550   28.7150   48.0230 C   0  0  0  0  0  0  0  0  0  0  0  0
   59.7890   30.0570   47.8170 C   0  0  0  0  0  0  0  0  0  0  0  0
   60.4010   30.4510   46.6240 C   0  0  0  0  0  0  0  0  0  0  0  0
   60.6770   29.5050   45.6330 C   0  0  0  0  0  0  0  0  0  0  0  0
   60.3450   28.1620   45.8350 C   0  0  0  0  0  0  0  0  0  0  0  0
   57.9490   31.0770   43.4600 N   0  0  0  0  0  0  0  0  0  0  0  0
   57.8730   32.5300   43.3390 C   0  0  0  0  0  0  0  0  0  0  0  0
   58.2830   33.1800   44.6310 C   0  0  0  0  0  0  0  0  0  0  0  0
   57.7020   32.7670   45.8410 C   0  0  0  0  0  0  0  0  0  0  0  0
   58.0840   33.3640   47.0460 C   0  0  0  0  0  0  0  0  0  0  0  0
   59.0440   34.3800   47.0510 C   0  0  0  0  0  0  0  0  0  0  0  0
   59.6150   34.8070   45.8490 C   0  0  0  0  0  0  0  0  0  0  0  0
   59.2350   34.2140   44.6410 C   0  0  0  0  0  0  0  0  0  0  0  0
   56.2789   28.3053   43.6767 H   0  0  0  0  0  0  0  0  0  0  0  0
   58.0705   28.5376   43.8343 H   0  0  0  0  0  0  0  0  0  0  0  0
   58.0298   28.4473   46.1320 H   0  0  0  0  0  0  0  0  0  0  0  0
   56.3254   29.0590   46.2239 H   0  0  0  0  0  0  0  0  0  0  0  0
   59.0363   24.6438   45.9109 H   0  0  0  0  0  0  0  0  0  0  0  0
   59.1677   26.2602   45.0991 H   0  0  0  0  0  0  0  0  0  0  0  0
   58.5790   26.2665   48.0336 H   0  0  0  0  0  0  0  0  0  0  0  0
   60.2358   25.7453   47.5168 H   0  0  0  0  0  0  0  0  0  0  0  0
   58.9683   28.4089   48.9608 H   0  0  0  0  0  0  0  0  0  0  0  0
   59.5698   30.8034   48.5947 H   0  0  0  0  0  0  0  0  0  0  0  0
   60.6657   31.5067   46.4648 H   0  0  0  0  0  0  0  0  0  0  0  0
   61.1559   29.8173   44.6932 H   0  0  0  0  0  0  0  0  0  0  0  0
   60.5589   27.4206   45.0510 H   0  0  0  0  0  0  0  0  0  0  0  0
   58.8040   30.5950   43.0990 H   0  0  0  0  0  0  0  0  0  0  0  0
   58.5455   32.8634   42.5349 H   0  0  0  0  0  0  0  0  0  0  0  0
   56.8372   32.8173   43.1052 H   0  0  0  0  0  0  0  0  0  0  0  0
   56.9433   31.9705   45.8406 H   0  0  0  0  0  0  0  0  0  0  0  0
   57.6286   33.0338   47.9913 H   0  0  0  0  0  0  0  0  0  0  0  0
   59.3499   34.8433   48.0006 H   0  0  0  0  0  0  0  0  0  0  0  0
   60.3652   35.6115   45.8532 H   0  0  0  0  0  0  0  0  0  0  0  0
   59.6821   34.5575   43.6965 H   0  0  0  0  0  0  0  0  0  0  0  0
  1  2  2  0
  2  3  1  0
  3  4  1  0
  4  5  1  0
  5  6  1  0
  6  7  1  0
  7  8  2  0
  7  9  1  0
  9 10  1  0
 10 11  1  0
 11 12  1  0
 12 13  1  0
 13 14  2  0
 14 15  1  0
 15 16  2  0
 16 17  1  0
 17 18  2  0
  2 19  1  0
 19 20  1  0
 20 21  1  0
 21 22  2  0
 22 23  1  0
 23 24  2  0
 24 25  1  0
 25 26  2  0
 10  5  2  0
 18 13  1  0
 26 21  1  0
  3 27  1  0
  3 28  1  0
  4 29  1  0
  4 30  1  0
 11 31  1  0
 11 32  1  0
 12 33  1  0
 12 34  1  0
 14 35  1  0
 15 36  1  0
 16 37  1  0
 17 38  1  0
 18 39  1  0
 19 40  1  0
 20 41  1  0
 20 42  1  0
 22 43  1  0
 23 44  1  0
 24 45  1  0
 25 46  1  0
 26 47  1  0
M  CHG  2   6  -1   9  -1
M  END
>  <UniqueID>  (90) 
82

>  <SMILES>  (90) 
O=C(CCc1[n-]c(=O)[n-]c1CCc1ccccc1)NCc1ccccc1

>  <Energy>  (90) 
61.82801020521005

>  <Genealogy>  (90) 
O=C(CCc1[n-]c(=O)[n-]c1CCc1ccccc1)NCc1ccccc1 (protonated)
O=C(CCc1[n-]c(=O)[n-]c1CCc1ccccc1)NCc1ccccc1 (3D coordinates assigned)
O=C(CCc1[n-]c(=O)[n-]c1CCc1ccccc1)NCc1ccccc1 (optimized conformer: 61.82801020521005 kcal/mol)

>  <smiles>  (90) 
O=C(CCc1[nH]c(=O)[nH]c1CCc1ccccc1)NCc1ccccc1

>  <score_type>  (90) 
oracle

>  <origin>  (90) 
adg

>  <m_score__min__energy>  (90) 
-13.380000000000001

>  <m_primary>  (90) 
energy

$$$$
90:0
     RDKit          3D

 42 44  0  0  0  0  0  0  0  0999 V2000
   58.4990   29.6920   48.8730 O   0  0  0  0  0  0  0  0  0  0  0  0
   59.1840   29.7100   47.8140 C   0  0  0  0  0  0  0  0  0  0  0  0
   59.8370   30.9690   47.4130 C   0  0  0  0  0  0  0  0  0  0  0  0
   61.2230   31.1140   47.5880 C   0  0  0  0  0  0  0  0  0  0  0  0
   61.8550   32.3140   47.2520 C   0  0  0  0  0  0  0  0  0  0  0  0
   63.5800   32.4980   47.5100 Cl  0  0  0  0  0  0  0  0  0  0  0  0
   61.1110   33.3720   46.7200 C   0  0  0  0  0  0  0  0  0  0  0  0
   59.7350   33.2290   46.5140 C   0  0  0  0  0  0  0  0  0  0  0  0
   58.8230   34.5630   45.8290 Cl  0  0  0  0  0  0  0  0  0  0  0  0
   59.0960   32.0270   46.8520 C   0  0  0  0  0  0  0  0  0  0  0  0
   57.7320   31.8800   46.6150 O   0  0  0  0  0  0  0  0  0  0  0  0
   59.2890   28.5150   47.0080 N   0  0  0  0  0  0  0  0  0  0  0  0
   59.6270   28.6380   45.5840 C   0  0  0  0  0  0  0  0  0  0  0  0
   58.5440   29.3960   44.8680 C   0  0  0  0  0  0  0  0  0  0  0  0
   58.8490   30.5540   44.1340 C   0  0  0  0  0  0  0  0  0  0  0  0
   57.8290   31.2830   43.5140 C   0  0  0  0  0  0  0  0  0  0  0  0
   56.5000   30.8660   43.6280 C   0  0  0  0  0  0  0  0  0  0  0  0
   56.1870   29.7210   44.3670 C   0  0  0  0  0  0  0  0  0  0  0  0
   54.8960   29.3240   44.4860 F   0  0  0  0  0  0  0  0  0  0  0  0
   57.2040   28.9900   44.9890 C   0  0  0  0  0  0  0  0  0  0  0  0
   59.0820   27.1820   47.6020 C   0  0  0  0  0  0  0  0  0  0  0  0
   58.1100   26.3740   46.7770 C   0  0  0  0  0  0  0  0  0  0  0  0
   56.7530   26.7410   46.7270 C   0  0  0  0  0  0  0  0  0  0  0  0
   55.8400   25.9730   45.9990 C   0  0  0  0  0  0  0  0  0  0  0  0
   54.4990   26.3370   45.9660 O   0  0  0  0  0  0  0  0  0  0  0  0
   56.2740   24.8400   45.3080 C   0  0  0  0  0  0  0  0  0  0  0  0
   57.6210   24.4710   45.3440 C   0  0  0  0  0  0  0  0  0  0  0  0
   58.5390   25.2310   46.0760 C   0  0  0  0  0  0  0  0  0  0  0  0
   59.8750   24.8440   46.1030 O   0  0  0  0  0  0  0  0  0  0  0  0
   61.8140   30.2786   47.9916 H   0  0  0  0  0  0  0  0  0  0  0  0
   61.6090   34.3186   46.4631 H   0  0  0  0  0  0  0  0  0  0  0  0
   60.5802   29.1771   45.4800 H   0  0  0  0  0  0  0  0  0  0  0  0
   59.7196   27.6340   45.1443 H   0  0  0  0  0  0  0  0  0  0  0  0
   59.8932   30.8886   44.0465 H   0  0  0  0  0  0  0  0  0  0  0  0
   58.0733   32.1862   42.9356 H   0  0  0  0  0  0  0  0  0  0  0  0
   55.6999   31.4387   43.1362 H   0  0  0  0  0  0  0  0  0  0  0  0
   56.9541   28.0935   45.5754 H   0  0  0  0  0  0  0  0  0  0  0  0
   60.0453   26.6528   47.6455 H   0  0  0  0  0  0  0  0  0  0  0  0
   58.6682   27.3066   48.6136 H   0  0  0  0  0  0  0  0  0  0  0  0
   56.4085   27.6372   47.2637 H   0  0  0  0  0  0  0  0  0  0  0  0
   55.5544   24.2372   44.7345 H   0  0  0  0  0  0  0  0  0  0  0  0
   57.9605   23.5802   44.7951 H   0  0  0  0  0  0  0  0  0  0  0  0
  1  2  2  0
  2  3  1  0
  3  4  2  0
  4  5  1  0
  5  6  1  0
  5  7  2  0
  7  8  1  0
  8  9  1  0
  8 10  2  0
 10 11  1  0
  2 12  1  0
 12 13  1  0
 13 14  1  0
 14 15  2  0
 15 16  1  0
 16 17  2  0
 17 18  1  0
 18 19  1  0
 18 20  2  0
 12 21  1  0
 21 22  1  0
 22 23  2  0
 23 24  1  0
 24 25  1  0
 24 26  2  0
 26 27  1  0
 27 28  2  0
 28 29  1  0
 10  3  1  0
 20 14  1  0
 28 22  1  0
  4 30  1  0
  7 31  1  0
 13 32  1  0
 13 33  1  0
 15 34  1  0
 16 35  1  0
 17 36  1  0
 20 37  1  0
 21 38  1  0
 21 39  1  0
 23 40  1  0
 26 41  1  0
 27 42  1  0
M  CHG  3  11  -1  25  -1  29  -1
M  END
>  <UniqueID>  (91) 
83

>  <SMILES>  (91) 
O=C(c1cc(Cl)cc(Cl)c1[O-])N(Cc1cccc(F)c1)Cc1cc([O-])ccc1[O-]

>  <Energy>  (91) 
47.50944385515038

>  <Genealogy>  (91) 
O=C(c1cc(Cl)cc(Cl)c1[O-])N(Cc1cccc(F)c1)Cc1cc([O-])ccc1[O-] (protonated)
O=C(c1cc(Cl)cc(Cl)c1[O-])N(Cc1cccc(F)c1)Cc1cc([O-])ccc1[O-] (3D coordinates assigned)
O=C(c1cc(Cl)cc(Cl)c1[O-])N(Cc1cccc(F)c1)Cc1cc([O-])ccc1[O-] (optimized conformer: 47.50944385515038 kcal/mol)

>  <smiles>  (91) 
O=C(c1cc(Cl)cc(Cl)c1O)N(Cc1cccc(F)c1)Cc1cc(O)ccc1O

>  <score_type>  (91) 
oracle

>  <origin>  (91) 
adg

>  <m_score__min__energy>  (91) 
-16.48

>  <m_primary>  (91) 
energy

$$$$
91:0
     RDKit          3D

 43 45  0  0  0  0  0  0  0  0999 V2000
   51.5220   24.0970   44.6810 C   0  0  0  0  0  0  0  0  0  0  0  0
   52.1370   22.9380   45.2300 O   0  0  0  0  0  0  0  0  0  0  0  0
   53.4750   22.8730   45.6480 C   0  0  0  0  0  0  0  0  0  0  0  0
   54.4660   23.3520   44.7830 C   0  0  0  0  0  0  0  0  0  0  0  0
   55.8120   23.3120   45.1530 C   0  0  0  0  0  0  0  0  0  0  0  0
   56.1900   22.8040   46.4020 C   0  0  0  0  0  0  0  0  0  0  0  0
   57.5870   22.7640   46.7320 N   0  0  0  0  0  0  0  0  0  0  0  0
   58.6610   23.3600   45.9930 C   0  0  0  0  0  0  0  0  0  0  0  0
   59.3660   22.6710   45.2070 O   0  0  0  0  0  0  0  0  0  0  0  0
   58.9660   24.8120   46.1820 C   0  0  0  0  0  0  0  0  0  0  0  0
   57.7810   25.5290   46.8320 C   0  0  0  0  0  0  0  0  0  0  0  0
   57.5660   26.8260   46.1910 N   0  0  0  0  0  0  0  0  0  0  0  0
   58.5160   27.6960   45.7870 C   0  0  0  0  0  0  0  0  0  0  0  0
   59.8790   27.5180   45.9930 O   0  0  0  0  0  0  0  0  0  0  0  0
   57.9400   28.7680   45.1340 C   0  0  0  0  0  0  0  0  0  0  0  0
   56.5800   28.5570   45.1590 C   0  0  0  0  0  0  0  0  0  0  0  0
   56.3850   27.3420   45.7850 C   0  0  0  0  0  0  0  0  0  0  0  0
   55.1550   26.7180   45.9660 O   0  0  0  0  0  0  0  0  0  0  0  0
   55.5820   29.4410   44.4740 C   0  0  0  0  0  0  0  0  0  0  0  0
   56.1980   30.8280   44.1970 C   0  0  0  0  0  0  0  0  0  0  0  0
   57.6210   30.7170   43.6080 C   0  0  0  0  0  0  0  0  0  0  0  0
   58.5870   29.9970   44.5730 C   0  0  0  0  0  0  0  0  0  0  0  0
   55.2010   22.2980   47.2650 C   0  0  0  0  0  0  0  0  0  0  0  0
   53.8520   22.3400   46.8950 C   0  0  0  0  0  0  0  0  0  0  0  0
   51.1758   24.7494   45.4962 H   0  0  0  0  0  0  0  0  0  0  0  0
   52.2506   24.6400   44.0611 H   0  0  0  0  0  0  0  0  0  0  0  0
   50.6639   23.7980   44.0611 H   0  0  0  0  0  0  0  0  0  0  0  0
   54.1820   23.7635   43.8032 H   0  0  0  0  0  0  0  0  0  0  0  0
   56.5806   23.6821   44.4585 H   0  0  0  0  0  0  0  0  0  0  0  0
   59.8500   24.9149   46.8284 H   0  0  0  0  0  0  0  0  0  0  0  0
   59.1599   25.2654   45.1987 H   0  0  0  0  0  0  0  0  0  0  0  0
   56.8766   24.9130   46.7194 H   0  0  0  0  0  0  0  0  0  0  0  0
   57.9961   25.6858   47.8993 H   0  0  0  0  0  0  0  0  0  0  0  0
   55.2823   28.9800   43.5213 H   0  0  0  0  0  0  0  0  0  0  0  0
   54.7043   29.5626   45.1258 H   0  0  0  0  0  0  0  0  0  0  0  0
   55.5578   31.3654   43.4820 H   0  0  0  0  0  0  0  0  0  0  0  0
   56.2650   31.3690   45.1524 H   0  0  0  0  0  0  0  0  0  0  0  0
   57.5730   30.1522   42.6653 H   0  0  0  0  0  0  0  0  0  0  0  0
   58.0017   31.7353   43.4402 H   0  0  0  0  0  0  0  0  0  0  0  0
   59.4984   29.7107   44.0277 H   0  0  0  0  0  0  0  0  0  0  0  0
   58.8407   30.6772   45.3994 H   0  0  0  0  0  0  0  0  0  0  0  0
   55.4894   21.8673   48.2352 H   0  0  0  0  0  0  0  0  0  0  0  0
   53.0834   21.9550   47.5813 H   0  0  0  0  0  0  0  0  0  0  0  0
  1  2  1  0
  2  3  1  0
  3  4  2  0
  4  5  1  0
  5  6  2  0
  6  7  1  0
  7  8  1  0
  8  9  2  0
  8 10  1  0
 10 11  1  0
 11 12  1  0
 12 13  1  0
 13 14  1  0
 13 15  2  0
 15 16  1  0
 16 17  2  0
 17 18  1  0
 16 19  1  0
 19 20  1  0
 20 21  1  0
 21 22  1  0
  6 23  1  0
 23 24  2  0
 24  3  1  0
 17 12  1  0
 22 15  1  0
  1 25  1  0
  1 26  1  0
  1 27  1  0
  4 28  1  0
  5 29  1  0
 10 30  1  0
 10 31  1  0
 11 32  1  0
 11 33  1  0
 19 34  1  0
 19 35  1  0
 20 36  1  0
 20 37  1  0
 21 38  1  0
 21 39  1  0
 22 40  1  0
 22 41  1  0
 23 42  1  0
 24 43  1  0
M  CHG  3   7  -1  14  -1  18  -1
M  END
>  <UniqueID>  (92) 
84

>  <SMILES>  (92) 
COc1ccc([N-]C(=O)CCn2c([O-])c3c(c2[O-])CCCC3)cc1

>  <Energy>  (92) 
71.5276443337227

>  <Genealogy>  (92) 
COc1ccc([N-]C(=O)CCn2c([O-])c3c(c2[O-])CCCC3)cc1 (protonated)
COc1ccc([N-]C(=O)CCn2c([O-])c3c(c2[O-])CCCC3)cc1 (3D coordinates assigned)
COc1ccc([N-]C(=O)CCn2c([O-])c3c(c2[O-])CCCC3)cc1 (nonaromatic ring conformer: 71.5276443337227 kcal/mol)

>  <smiles>  (92) 
COc1ccc(NC(=O)CCn2c(O)c3c(c2O)CCCC3)cc1

>  <score_type>  (92) 
oracle

>  <origin>  (92) 
adg

>  <m_score__min__energy>  (92) 
-14.289999999999999

>  <m_primary>  (92) 
energy

$$$$
92:0
     RDKit          3D

 59 62  0  0  0  0  0  0  0  0999 V2000
   63.1920   32.7240   47.2560 C   0  0  0  0  0  0  0  0  0  0  0  0
   62.8410   32.6890   48.7400 C   0  0  0  0  0  0  0  0  0  0  0  0
   61.3930   32.5070   48.9250 N   0  0  0  0  0  0  0  0  0  0  0  0
   60.9120   31.7530   50.0590 C   0  0  0  0  0  0  0  0  0  0  0  0
   61.4860   30.6780   50.3830 O   0  0  0  0  0  0  0  0  0  0  0  0
   59.7610   32.2210   50.8630 C   0  0  0  0  0  0  0  0  0  0  0  0
   59.8810   33.3990   51.6210 C   0  0  0  0  0  0  0  0  0  0  0  0
   58.7960   33.8770   52.3610 C   0  0  0  0  0  0  0  0  0  0  0  0
   57.5860   33.1810   52.3600 C   0  0  0  0  0  0  0  0  0  0  0  0
   57.4600   31.9960   51.6270 C   0  0  0  0  0  0  0  0  0  0  0  0
   58.5430   31.5090   50.8860 C   0  0  0  0  0  0  0  0  0  0  0  0
   58.4040   30.3110   50.1940 O   0  0  0  0  0  0  0  0  0  0  0  0
   60.4640   33.1660   48.0350 C   0  0  0  0  0  0  0  0  0  0  0  0
   60.4160   34.5680   47.9710 C   0  0  0  0  0  0  0  0  0  0  0  0
   59.5020   35.2050   47.1330 C   0  0  0  0  0  0  0  0  0  0  0  0
   58.6300   34.4520   46.3430 C   0  0  0  0  0  0  0  0  0  0  0  0
   58.6700   33.0490   46.3770 C   0  0  0  0  0  0  0  0  0  0  0  0
   57.7340   32.2600   45.5390 C   0  0  0  0  0  0  0  0  0  0  0  0
   56.5880   32.7250   45.2850 O   0  0  0  0  0  0  0  0  0  0  0  0
   58.1170   30.9840   45.0010 N   0  0  0  0  0  0  0  0  0  0  0  0
   57.1600   30.0940   44.3480 C   0  0  0  0  0  0  0  0  0  0  0  0
   57.0410   28.8140   45.1160 C   0  0  0  0  0  0  0  0  0  0  0  0
   58.0690   28.1390   45.7330 C   0  0  0  0  0  0  0  0  0  0  0  0
   57.5830   27.0130   46.2820 N   0  0  0  0  0  0  0  0  0  0  0  0
   56.2660   27.0480   45.9750 C   0  0  0  0  0  0  0  0  0  0  0  0
   55.4220   26.1110   46.2970 N   0  0  0  0  0  0  0  0  0  0  0  0
   55.5340   24.7120   45.9840 C   0  0  0  0  0  0  0  0  0  0  0  0
   55.1530   23.7100   46.8980 C   0  0  0  0  0  0  0  0  0  0  0  0
   55.2440   22.3620   46.5410 C   0  0  0  0  0  0  0  0  0  0  0  0
   55.6940   22.0000   45.2680 C   0  0  0  0  0  0  0  0  0  0  0  0
   56.0440   22.9880   44.3360 C   0  0  0  0  0  0  0  0  0  0  0  0
   56.5200   22.5870   42.9700 C   0  0  0  0  0  0  0  0  0  0  0  0
   55.9550   24.3420   44.6990 C   0  0  0  0  0  0  0  0  0  0  0  0
   55.8950   28.1240   45.2510 N   0  0  0  0  0  0  0  0  0  0  0  0
   59.5860   32.4130   47.2340 C   0  0  0  0  0  0  0  0  0  0  0  0
   64.2804   32.8325   47.1391 H   0  0  0  0  0  0  0  0  0  0  0  0
   62.8635   31.7886   46.7794 H   0  0  0  0  0  0  0  0  0  0  0  0
   62.6853   33.5761   46.7794 H   0  0  0  0  0  0  0  0  0  0  0  0
   63.3744   31.8542   49.2181 H   0  0  0  0  0  0  0  0  0  0  0  0
   63.1400   33.6434   49.1979 H   0  0  0  0  0  0  0  0  0  0  0  0
   60.8344   33.9476   51.6317 H   0  0  0  0  0  0  0  0  0  0  0  0
   58.8958   34.8036   52.9454 H   0  0  0  0  0  0  0  0  0  0  0  0
   56.7309   33.5645   52.9360 H   0  0  0  0  0  0  0  0  0  0  0  0
   56.5075   31.4457   51.6330 H   0  0  0  0  0  0  0  0  0  0  0  0
   61.1037   35.1672   48.5858 H   0  0  0  0  0  0  0  0  0  0  0  0
   59.4673   36.3038   47.0937 H   0  0  0  0  0  0  0  0  0  0  0  0
   57.9068   34.9620   45.6896 H   0  0  0  0  0  0  0  0  0  0  0  0
   59.1210   30.6940   45.0140 H   0  0  0  0  0  0  0  0  0  0  0  0
   56.1768   30.5854   44.3052 H   0  0  0  0  0  0  0  0  0  0  0  0
   57.5119   29.8716   43.3298 H   0  0  0  0  0  0  0  0  0  0  0  0
   59.1181   28.4677   45.7707 H   0  0  0  0  0  0  0  0  0  0  0  0
   54.7829   23.9895   47.8954 H   0  0  0  0  0  0  0  0  0  0  0  0
   54.9606   21.5831   47.2642 H   0  0  0  0  0  0  0  0  0  0  0  0
   55.7739   20.9371   44.9964 H   0  0  0  0  0  0  0  0  0  0  0  0
   57.3580   21.8810   43.0663 H   0  0  0  0  0  0  0  0  0  0  0  0
   55.6967   22.1062   42.4213 H   0  0  0  0  0  0  0  0  0  0  0  0
   56.8540   23.4800   42.4213 H   0  0  0  0  0  0  0  0  0  0  0  0
   56.2184   25.1201   43.9674 H   0  0  0  0  0  0  0  0  0  0  0  0
   59.6163   31.3143   47.2785 H   0  0  0  0  0  0  0  0  0  0  0  0
  1  2  1  0
  2  3  1  0
  3  4  1  0
  4  5  2  0
  4  6  1  0
  6  7  2  0
  7  8  1  0
  8  9  2  0
  9 10  1  0
 10 11  2  0
 11 12  1  0
  3 13  1  0
 13 14  2  0
 14 15  1  0
 15 16  2  0
 16 17  1  0
 17 18  1  0
 18 19  2  0
 18 20  1  0
 20 21  1  0
 21 22  1  0
 22 23  2  0
 23 24  1  0
 24 25  1  0
 25 26  2  3
 26 27  1  0
 27 28  2  0
 28 29  1  0
 29 30  2  0
 30 31  1  0
 31 32  1  0
 31 33  2  0
 25 34  1  0
 17 35  2  0
 11  6  1  0
 35 13  1  0
 34 22  1  0
 33 27  1  0
  1 36  1  0
  1 37  1  0
  1 38  1  0
  2 39  1  0
  2 40  1  0
  7 41  1  0
  8 42  1  0
  9 43  1  0
 10 44  1  0
 14 45  1  0
 15 46  1  0
 16 47  1  0
 20 48  1  0
 21 49  1  0
 21 50  1  0
 23 51  1  0
 28 52  1  0
 29 53  1  0
 30 54  1  0
 32 55  1  0
 32 56  1  0
 32 57  1  0
 33 58  1  0
 35 59  1  0
M  CHG  3  12  -1  24  -1  34  -1
M  END
>  <UniqueID>  (93) 
85

>  <SMILES>  (93) 
CCN(C(=O)c1ccccc1[O-])c1cccc(C(=O)NCc2c[n-]c(=Nc3cccc(C)c3)[n-]2)c1

>  <Energy>  (93) 
102.57125046121526

>  <Genealogy>  (93) 
CCN(C(=O)c1ccccc1[O-])c1cccc(C(=O)NCc2c[n-]c(=Nc3cccc(C)c3)[n-]2)c1 (protonated)
CCN(C(=O)c1ccccc1[O-])c1cccc(C(=O)NCc2c[n-]c(=Nc3cccc(C)c3)[n-]2)c1 (3D coordinates assigned)
CCN(C(=O)c1ccccc1[O-])c1cccc(C(=O)NCc2c[n-]c(=Nc3cccc(C)c3)[n-]2)c1 (optimized conformer: 102.57125046121526 kcal/mol)

>  <smiles>  (93) 
CCN(C(=O)c1ccccc1O)c1cccc(C(=O)NCc2c[nH]c(=Nc3cccc(C)c3)[nH]2)c1

>  <score_type>  (93) 
oracle

>  <origin>  (93) 
adg

>  <m_score__min__energy>  (93) 
-15.289999999999999

>  <m_primary>  (93) 
energy

$$$$
93:0
     RDKit          3D

 51 52  0  0  0  0  0  0  0  0999 V2000
   59.9930   27.4820   45.7780 C   0  0  0  0  0  0  0  0  0  0  0  0
   58.5230   27.9710   45.7320 C   0  0  0  0  0  0  0  0  0  0  0  0
   57.8950   27.4200   44.4320 C   0  0  0  0  0  0  0  0  0  0  0  0
   57.7730   27.3740   46.9520 C   0  0  0  0  0  0  0  0  0  0  0  0
   57.2780   26.0380   46.6390 N   0  0  0  0  0  0  0  0  0  0  0  0
   55.9440   25.7730   46.2010 C   0  0  0  0  0  0  0  0  0  0  0  0
   55.1440   26.7240   45.9950 O   0  0  0  0  0  0  0  0  0  0  0  0
   55.5230   24.4320   45.9350 N   0  0  0  0  0  0  0  0  0  0  0  0
   56.2620   23.4640   45.1740 C   0  0  0  0  0  0  0  0  0  0  0  0
   55.9140   23.1500   43.8460 C   0  0  0  0  0  0  0  0  0  0  0  0
   56.6640   22.2190   43.1210 C   0  0  0  0  0  0  0  0  0  0  0  0
   57.7700   21.6030   43.7080 C   0  0  0  0  0  0  0  0  0  0  0  0
   58.1390   21.9280   45.0160 C   0  0  0  0  0  0  0  0  0  0  0  0
   57.3930   22.8630   45.7490 C   0  0  0  0  0  0  0  0  0  0  0  0
   57.7670   23.1930   47.0510 O   0  0  0  0  0  0  0  0  0  0  0  0
   58.3980   29.5110   45.7430 C   0  0  0  0  0  0  0  0  0  0  0  0
   59.0710   30.2570   46.7340 C   0  0  0  0  0  0  0  0  0  0  0  0
   59.0200   31.6540   46.7490 C   0  0  0  0  0  0  0  0  0  0  0  0
   58.2920   32.3470   45.7680 C   0  0  0  0  0  0  0  0  0  0  0  0
   58.2250   33.7470   45.7270 O   0  0  0  0  0  0  0  0  0  0  0  0
   59.3360   34.6000   45.4660 C   0  0  0  0  0  0  0  0  0  0  0  0
   60.3610   34.4340   46.5440 C   0  0  0  0  0  0  0  0  0  0  0  0
   60.1140   34.8800   47.6970 O   0  0  0  0  0  0  0  0  0  0  0  0
   61.6050   33.7670   46.2610 N   0  0  0  0  0  0  0  0  0  0  0  0
   62.5910   33.3960   47.2420 C   0  0  0  0  0  0  0  0  0  0  0  0
   63.9150   33.0760   46.8120 N   0  0  0  0  0  0  0  0  0  0  0  0
   62.1910   33.1560   48.8170 S   0  0  0  0  0  0  0  0  0  0  0  0
   57.6150   31.6220   44.7870 C   0  0  0  0  0  0  0  0  0  0  0  0
   57.6630   30.2260   44.7680 C   0  0  0  0  0  0  0  0  0  0  0  0
   60.3116   27.3760   46.8255 H   0  0  0  0  0  0  0  0  0  0  0  0
   60.0719   26.5092   45.2706 H   0  0  0  0  0  0  0  0  0  0  0  0
   60.6389   28.2137   45.2706 H   0  0  0  0  0  0  0  0  0  0  0  0
   57.0902   26.7139   44.6842 H   0  0  0  0  0  0  0  0  0  0  0  0
   57.4816   28.2521   43.8432 H   0  0  0  0  0  0  0  0  0  0  0  0
   58.6662   26.9018   43.8432 H   0  0  0  0  0  0  0  0  0  0  0  0
   58.4618   27.3144   47.8075 H   0  0  0  0  0  0  0  0  0  0  0  0
   56.9196   28.0225   47.1992 H   0  0  0  0  0  0  0  0  0  0  0  0
   55.0479   23.6396   43.3768 H   0  0  0  0  0  0  0  0  0  0  0  0
   56.3819   21.9719   42.0869 H   0  0  0  0  0  0  0  0  0  0  0  0
   58.3516   20.8613   43.1409 H   0  0  0  0  0  0  0  0  0  0  0  0
   59.0177   21.4489   45.4726 H   0  0  0  0  0  0  0  0  0  0  0  0
   57.4680   24.0580   47.4840 H   0  0  0  0  0  0  0  0  0  0  0  0
   59.6464   29.7295   47.5090 H   0  0  0  0  0  0  0  0  0  0  0  0
   59.5524   32.2130   47.5326 H   0  0  0  0  0  0  0  0  0  0  0  0
   59.7801   34.3359   44.4949 H   0  0  0  0  0  0  0  0  0  0  0  0
   58.9960   35.6459   45.4433 H   0  0  0  0  0  0  0  0  0  0  0  0
   61.8360   33.5770   45.2610 H   0  0  0  0  0  0  0  0  0  0  0  0
   64.6300   32.7330   47.4920 H   0  0  0  0  0  0  0  0  0  0  0  0
   64.1860   33.1760   45.8090 H   0  0  0  0  0  0  0  0  0  0  0  0
   57.0363   32.1562   44.0190 H   0  0  0  0  0  0  0  0  0  0  0  0
   57.1221   29.6751   43.9845 H   0  0  0  0  0  0  0  0  0  0  0  0
  1  2  1  0
  2  3  1  0
  2  4  1  0
  4  5  1  0
  5  6  1  0
  6  7  2  0
  6  8  1  0
  8  9  1  0
  9 10  2  0
 10 11  1  0
 11 12  2  0
 12 13  1  0
 13 14  2  0
 14 15  1  0
  2 16  1  0
 16 17  2  0
 17 18  1  0
 18 19  2  0
 19 20  1  0
 20 21  1  0
 21 22  1  0
 22 23  2  0
 22 24  1  0
 24 25  1  0
 25 26  1  0
 25 27  2  0
 19 28  1  0
 28 29  2  0
 14  9  1  0
 29 16  1  0
  1 30  1  0
  1 31  1  0
  1 32  1  0
  3 33  1  0
  3 34  1  0
  3 35  1  0
  4 36  1  0
  4 37  1  0
 10 38  1  0
 11 39  1  0
 12 40  1  0
 13 41  1  0
 15 42  1  0
 17 43  1  0
 18 44  1  0
 21 45  1  0
 21 46  1  0
 24 47  1  0
 26 48  1  0
 26 49  1  0
 28 50  1  0
 29 51  1  0
M  CHG  2   5  -1   8  -1
M  END
>  <UniqueID>  (94) 
86

>  <SMILES>  (94) 
CC(C)(C[N-]C(=O)[N-]c1ccccc1O)c1ccc(OCC(=O)NC(N)=S)cc1

>  <Energy>  (94) 
50.99784443056826

>  <Genealogy>  (94) 
CC(C)(C[N-]C(=O)[N-]c1ccccc1O)c1ccc(OCC(=O)NC(N)=S)cc1 (protonated)
CC(C)(C[N-]C(=O)[N-]c1ccccc1O)c1ccc(OCC(=O)NC(N)=S)cc1 (3D coordinates assigned)
CC(C)(C[N-]C(=O)[N-]c1ccccc1O)c1ccc(OCC(=O)NC(N)=S)cc1 (optimized conformer: 50.99784443056826 kcal/mol)

>  <smiles>  (94) 
CC(C)(CNC(=O)Nc1ccccc1O)c1ccc(OCC(=O)NC(N)=S)cc1

>  <score_type>  (94) 
oracle

>  <origin>  (94) 
adg

>  <m_score__min__energy>  (94) 
-13.16

>  <m_primary>  (94) 
energy

$$$$
94:0
     RDKit          3D

 33 34  0  0  0  0  0  0  0  0999 V2000
   58.8300   34.6140   47.3700 C   0  0  0  0  0  0  0  0  0  0  0  0
   58.5770   33.5850   46.3080 C   0  0  0  0  0  0  0  0  0  0  0  0
   58.0340   33.9630   45.0730 C   0  0  0  0  0  0  0  0  0  0  0  0
   57.7610   33.0020   44.0960 C   0  0  0  0  0  0  0  0  0  0  0  0
   58.0120   31.6390   44.3470 C   0  0  0  0  0  0  0  0  0  0  0  0
   57.7250   30.6190   43.3690 N   0  0  0  0  0  0  0  0  0  0  0  0
   56.4740   29.8600   43.3120 C   0  0  0  0  0  0  0  0  0  0  0  0
   56.2300   29.1230   44.6000 C   0  0  0  0  0  0  0  0  0  0  0  0
   55.1770   29.3630   45.2490 O   0  0  0  0  0  0  0  0  0  0  0  0
   57.1660   28.0810   45.0830 C   0  0  0  0  0  0  0  0  0  0  0  0
   58.5450   28.2440   44.8630 C   0  0  0  0  0  0  0  0  0  0  0  0
   59.4500   27.2640   45.2750 C   0  0  0  0  0  0  0  0  0  0  0  0
   58.9910   26.1090   45.9110 C   0  0  0  0  0  0  0  0  0  0  0  0
   59.8930   25.1320   46.3120 O   0  0  0  0  0  0  0  0  0  0  0  0
   57.6250   25.9390   46.1460 C   0  0  0  0  0  0  0  0  0  0  0  0
   56.7070   26.9200   45.7520 C   0  0  0  0  0  0  0  0  0  0  0  0
   55.3610   26.7240   46.0680 O   0  0  0  0  0  0  0  0  0  0  0  0
   58.5460   31.2650   45.5910 C   0  0  0  0  0  0  0  0  0  0  0  0
   58.8190   32.2280   46.5660 C   0  0  0  0  0  0  0  0  0  0  0  0
   58.7166   34.1526   48.3621 H   0  0  0  0  0  0  0  0  0  0  0  0
   59.8516   35.0075   47.2633 H   0  0  0  0  0  0  0  0  0  0  0  0
   58.1073   35.4364   47.2633 H   0  0  0  0  0  0  0  0  0  0  0  0
   57.8212   35.0232   44.8712 H   0  0  0  0  0  0  0  0  0  0  0  0
   57.3475   33.3119   43.1249 H   0  0  0  0  0  0  0  0  0  0  0  0
   58.4710   30.3620   42.6850 H   0  0  0  0  0  0  0  0  0  0  0  0
   55.6402   30.5544   43.1317 H   0  0  0  0  0  0  0  0  0  0  0  0
   56.5475   29.1250   42.4969 H   0  0  0  0  0  0  0  0  0  0  0  0
   58.9139   29.1512   44.3621 H   0  0  0  0  0  0  0  0  0  0  0  0
   60.5269   27.4022   45.0982 H   0  0  0  0  0  0  0  0  0  0  0  0
   57.2671   25.0264   46.6450 H   0  0  0  0  0  0  0  0  0  0  0  0
   54.7490   27.4690   46.3740 H   0  0  0  0  0  0  0  0  0  0  0  0
   58.7511   30.2046   45.7996 H   0  0  0  0  0  0  0  0  0  0  0  0
   59.2257   31.9202   47.5406 H   0  0  0  0  0  0  0  0  0  0  0  0
  1  2  1  0
  2  3  2  0
  3  4  1  0
  4  5  2  0
  5  6  1  0
  6  7  1  0
  7  8  1  0
  8  9  2  0
  8 10  1  0
 10 11  2  0
 11 12  1  0
 12 13  2  0
 13 14  1  0
 13 15  1  0
 15 16  2  0
 16 17  1  0
  5 18  1  0
 18 19  2  0
 19  2  1  0
 16 10  1  0
  1 20  1  0
  1 21  1  0
  1 22  1  0
  3 23  1  0
  4 24  1  0
  6 25  1  0
  7 26  1  0
  7 27  1  0
 11 28  1  0
 12 29  1  0
 15 30  1  0
 17 31  1  0
 18 32  1  0
 19 33  1  0
M  CHG  1  14  -1
M  END
>  <UniqueID>  (95) 
87

>  <SMILES>  (95) 
Cc1ccc(NCC(=O)c2ccc([O-])cc2O)cc1

>  <Energy>  (95) 
36.634747705376164

>  <Genealogy>  (95) 
Cc1ccc(NCC(=O)c2ccc([O-])cc2O)cc1 (protonated)
Cc1ccc(NCC(=O)c2ccc([O-])cc2O)cc1 (3D coordinates assigned)
Cc1ccc(NCC(=O)c2ccc([O-])cc2O)cc1 (optimized conformer: 36.634747705376164 kcal/mol)

>  <smiles>  (95) 
Cc1ccc(NCC(=O)c2ccc(O)cc2O)cc1

>  <score_type>  (95) 
oracle

>  <origin>  (95) 
adg

>  <m_score__min__energy>  (95) 
-9.9000000000000004

>  <m_primary>  (95) 
energy

$$$$
