0:0
     RDKit          3D

 36 38  0  0  1  0  0  0  0  0999 V2000
   59.2750   35.3820   44.9110 C   0  0  0  0  0  0  0  0  0  0  0  0
   58.3790   34.2110   45.1280 C   0  0  0  0  0  0  0  0  0  0  0  0
   58.7280   32.8930   44.9080 C   0  0  0  0  0  0  0  0  0  0  0  0
   57.6210   32.1160   45.2260 C   0  0  0  0  0  0  0  0  0  0  0  0
   57.5910   30.6580   45.1260 C   0  0  0  0  0  0  0  0  0  0  0  0
   56.5390   29.8790   44.8040 N   0  0  0  0  0  0  0  0  0  0  0  0
   56.9530   28.6060   44.8290 N   0  0  0  0  0  0  0  0  0  0  0  0
   58.2450   28.5520   45.1610 C   0  0  0  0  0  0  0  0  0  0  0  0
   59.1700   27.2100   45.3130 S   0  0  0  0  0  0  0  0  0  0  0  0
   58.6840   29.8530   45.3580 N   0  0  0  0  0  0  0  0  0  0  0  0
   59.8980   30.2130   45.6220 N   0  0  0  0  0  0  0  0  0  0  0  0
   60.4620   30.6430   46.6060 C   0  0  0  0  0  0  0  0  0  0  0  0
   60.4090   31.8140   47.4180 C   0  0  0  0  0  0  0  0  0  0  0  0
   59.1920   31.9630   48.1150 C   0  0  0  0  0  0  0  0  0  0  0  0
   58.9550   32.9790   48.9810 C   0  0  0  0  0  0  0  0  0  0  0  0
   59.8920   33.9270   49.2300 C   0  0  0  0  0  0  0  0  0  0  0  0
   61.0810   33.8390   48.5840 C   0  0  0  0  0  0  0  0  0  0  0  0
   61.3330   32.7710   47.6690 C   0  0  0  0  0  0  0  0  0  0  0  0
   62.5660   33.0350   46.9530 C   0  0  0  0  0  0  0  0  0  0  0  0
   63.7220   32.2900   47.4210 N   0  0  0  0  0  0  0  0  0  0  0  0
   62.7480   33.7980   46.0180 O   0  0  0  0  0  0  0  0  0  0  0  0
   56.6550   32.9650   45.6210 N   0  0  0  0  0  0  0  0  0  0  0  0
   57.1010   34.2160   45.5640 N   0  0  0  0  0  0  0  0  0  0  0  0
   59.5872   35.7900   45.8837 H   0  0  0  0  0  0  0  0  0  0  0  0
   60.1629   35.0644   44.3446 H   0  0  0  0  0  0  0  0  0  0  0  0
   58.7363   36.1559   44.3446 H   0  0  0  0  0  0  0  0  0  0  0  0
   59.7008   32.5268   44.5482 H   0  0  0  0  0  0  0  0  0  0  0  0
   56.3030   27.7950   44.6090 H   0  0  0  0  0  0  0  0  0  0  0  0
   61.2219   29.9368   46.9719 H   0  0  0  0  0  0  0  0  0  0  0  0
   58.3980   31.2202   47.9483 H   0  0  0  0  0  0  0  0  0  0  0  0
   57.9826   33.0354   49.4921 H   0  0  0  0  0  0  0  0  0  0  0  0
   59.6929   34.7457   49.9372 H   0  0  0  0  0  0  0  0  0  0  0  0
   61.8579   34.5961   48.7659 H   0  0  0  0  0  0  0  0  0  0  0  0
   64.4630   31.9930   46.7250 H   0  0  0  0  0  0  0  0  0  0  0  0
   63.8120   32.0530   48.4500 H   0  0  0  0  0  0  0  0  0  0  0  0
   56.5390   35.0810   45.8210 H   0  0  0  0  0  0  0  0  0  0  0  0
  1  2  1  0
  2  3  2  0
  3  4  1  0
  4  5  1  0
  5  6  2  0
  6  7  1  0
  7  8  1  0
  8  9  2  0
  8 10  1  0
 10 11  1  0
 11 12  2  0
 12 13  1  0
 13 14  2  0
 14 15  1  0
 15 16  2  0
 16 17  1  0
 17 18  2  0
 18 19  1  0
 19 20  1  0
 19 21  2  0
  4 22  2  0
 22 23  1  0
 23  2  1  0
 10  5  1  0
 18 13  1  0
  1 24  1  0
  1 25  1  0
  1 26  1  0
  3 27  1  0
  7 28  1  0
 12 29  1  0
 14 30  1  0
 15 31  1  0
 16 32  1  0
 17 33  1  0
 20 34  1  0
 20 35  1  0
 23 36  1  0
M  END
>  <smiles>  (1) 
Cc1cc(-c2n[nH]c(=S)n2N=Cc2ccccc2C(N)=O)n[nH]1

>  <score_type>  (1) 
oracle

>  <origin>  (1) 
adg

>  <m_score__min__energy>  (1) 
-8.7599999999999998

>  <m_primary>  (1) 
energy

$$$$
1:0
     RDKit          3D

 52 57  0  0  0  0  0  0  0  0999 V2000
   54.7680   27.4370   46.2500 H   0  0  0  0  0  0  0  0  0  0  0  0
   55.1900   26.6990   45.6990 O   0  0  0  0  0  0  0  0  0  0  0  0
   56.1040   25.8100   46.2550 C   0  0  0  0  0  0  0  0  0  0  0  0
   55.7490   24.7910   47.0560 N   0  0  0  0  0  0  0  0  0  0  0  0
   56.9370   24.2490   47.3950 C   0  0  0  0  0  0  0  0  0  0  0  0
   57.0340   23.2490   48.1540 O   0  0  0  0  0  0  0  0  0  0  0  0
   58.0160   24.8640   46.8620 N   0  0  0  0  0  0  0  0  0  0  0  0
   57.4770   25.8440   46.1150 C   0  0  0  0  0  0  0  0  0  0  0  0
   58.2770   26.8380   45.3840 C   0  0  0  0  0  0  0  0  0  0  0  0
   59.1978   26.4978   44.8877 H   0  0  0  0  0  0  0  0  0  0  0  0
   57.9500   28.1340   45.2870 C   0  0  0  0  0  0  0  0  0  0  0  0
   57.1590   28.7110   44.2970 C   0  0  0  0  0  0  0  0  0  0  0  0
   56.7155   28.1705   43.4478 H   0  0  0  0  0  0  0  0  0  0  0  0
   57.0170   30.0360   44.5350 N   0  0  0  0  0  0  0  0  0  0  0  0
   57.6860   30.3090   45.6460 N   0  0  0  0  0  0  0  0  0  0  0  0
   57.8060   31.4970   46.3050 C   0  0  0  0  0  0  0  0  0  0  0  0
   57.2880   32.6110   45.8700 N   0  0  0  0  0  0  0  0  0  0  0  0
   58.0160   33.8130   45.4790 C   0  0  0  0  0  0  0  0  0  0  0  0
   57.3280   34.1543   44.6915 H   0  0  0  0  0  0  0  0  0  0  0  0
   59.5240   33.6860   45.5940 C   0  0  0  0  0  0  0  0  0  0  0  0
   59.9767   32.7161   45.8475 H   0  0  0  0  0  0  0  0  0  0  0  0
   60.3764   33.9117   44.9364 H   0  0  0  0  0  0  0  0  0  0  0  0
   58.7410   34.4590   46.6460 C   0  0  0  0  0  0  0  0  0  0  0  0
   58.6276   34.0479   47.6600 H   0  0  0  0  0  0  0  0  0  0  0  0
   58.7926   35.4751   47.0642 H   0  0  0  0  0  0  0  0  0  0  0  0
   58.5020   31.5070   47.4740 N   0  0  0  0  0  0  0  0  0  0  0  0
   59.0640   30.3640   47.9750 C   0  0  0  0  0  0  0  0  0  0  0  0
   59.7600   30.3840   49.2410 N   0  0  0  0  0  0  0  0  0  0  0  0
   59.1580   31.0370   50.4190 C   0  0  0  0  0  0  0  0  0  0  0  0
   58.2909   31.6315   50.0953 H   0  0  0  0  0  0  0  0  0  0  0  0
   58.8504   30.2560   51.1299 H   0  0  0  0  0  0  0  0  0  0  0  0
   60.1660   31.9620   51.1200 C   0  0  0  0  0  0  0  0  0  0  0  0
   59.6193   32.7706   51.6272 H   0  0  0  0  0  0  0  0  0  0  0  0
   60.7389   31.3677   51.8470 H   0  0  0  0  0  0  0  0  0  0  0  0
   61.1310   32.5660   50.1270 C   0  0  0  0  0  0  0  0  0  0  0  0
   61.0960   33.9510   49.8830 C   0  0  0  0  0  0  0  0  0  0  0  0
   60.3227   34.5702   50.3611 H   0  0  0  0  0  0  0  0  0  0  0  0
   62.0350   34.5450   49.0390 C   0  0  0  0  0  0  0  0  0  0  0  0
   61.9960   35.6278   48.8491 H   0  0  0  0  0  0  0  0  0  0  0  0
   63.0230   33.7670   48.4360 C   0  0  0  0  0  0  0  0  0  0  0  0
   63.7619   34.2398   47.7723 H   0  0  0  0  0  0  0  0  0  0  0  0
   63.0800   32.3900   48.6700 C   0  0  0  0  0  0  0  0  0  0  0  0
   64.0530   31.6650   48.0610 F   0  0  0  0  0  0  0  0  0  0  0  0
   62.1430   31.7720   49.5230 C   0  0  0  0  0  0  0  0  0  0  0  0
   62.2130   30.2730   49.7780 C   0  0  0  0  0  0  0  0  0  0  0  0
   63.0204   29.8581   49.1567 H   0  0  0  0  0  0  0  0  0  0  0  0
   62.3876   30.1517   50.8573 H   0  0  0  0  0  0  0  0  0  0  0  0
   60.9100   29.4940   49.4580 C   0  0  0  0  0  0  0  0  0  0  0  0
   61.0705   28.8970   48.5481 H   0  0  0  0  0  0  0  0  0  0  0  0
   60.6803   28.8570   50.3249 H   0  0  0  0  0  0  0  0  0  0  0  0
   58.9330   29.1910   47.2880 N   0  0  0  0  0  0  0  0  0  0  0  0
   58.2490   29.1950   46.1210 C   0  0  0  0  0  0  0  0  0  0  0  0
  1  2  1  0
  2  3  1  0
  3  4  1  0
  4  5  1  0
  5  6  2  0
  5  7  1  0
  7  8  1  0
  8  9  1  0
  9 10  1  0
  9 11  2  3
 11 12  1  0
 12 13  1  0
 12 14  2  0
 14 15  1  0
 15 16  1  0
 16 17  2  0
 17 18  1  0
 18 19  1  0
 18 20  1  0
 20 21  1  0
 20 22  1  0
 20 23  1  0
 23 24  1  0
 23 25  1  0
 16 26  1  0
 26 27  2  0
 27 28  1  0
 28 29  1  0
 29 30  1  0
 29 31  1  0
 29 32  1  0
 32 33  1  0
 32 34  1  0
 32 35  1  0
 35 36  2  0
 36 37  1  0
 36 38  1  0
 38 39  1  0
 38 40  2  0
 40 41  1  0
 40 42  1  0
 42 43  1  0
 42 44  2  0
 44 45  1  0
 45 46  1  0
 45 47  1  0
 45 48  1  0
 48 49  1  0
 48 50  1  0
 27 51  1  0
 51 52  2  0
  8  3  2  0
 52 11  1  0
 52 15  1  0
 23 18  1  0
 48 28  1  0
 44 35  1  0
M  CHG  2   4  -1   7  -1
M  END
>  <UniqueID>  (2) 
1

>  <SMILES>  (2) 
O=c1[n-]c(O)c(C=c2cnn3/c(=N\C4CC4)nc(N4CCc5cccc(F)c5CC4)nc23)[n-]1

>  <Energy>  (2) 
406.23183312895054

>  <Genealogy>  (2) 
O=c1[n-]c(O)c(C=c2cnn3c(=NC4CC4)nc(N4CCc5cccc(F)c5CC4)nc23)[n-]1 (protonated)
O=c1[n-]c(O)c(C=c2cnn3/c(=N\C4CC4)nc(N4CCc5cccc(F)c5CC4)nc23)[n-]1 (cis-trans isomerization)
O=c1[n-]c(O)c(C=c2cnn3/c(=N\C4CC4)nc(N4CCc5cccc(F)c5CC4)nc23)[n-]1 (3D coordinates assigned)
O=c1[n-]c(O)c(C=c2cnn3/c(=N\C4CC4)nc(N4CCc5cccc(F)c5CC4)nc23)[n-]1 (nonaromatic ring conformer: 406.23183312895054 kcal/mol)

>  <smiles>  (2) 
O=c1[nH]c(O)c(C=c2cnn3c(=NC4CC4)nc(N4CCc5cccc(F)c5CC4)nc23)[nH]1

>  <score_type>  (2) 
oracle

>  <origin>  (2) 
adg

>  <m_score__min__energy>  (2) 
-11.6

>  <m_primary>  (2) 
energy

$$$$
2:0
     RDKit          3D

 46 47  0  0  0  0  0  0  0  0999 V2000
   55.4570   29.7450   43.3770 C   0  0  0  0  0  0  0  0  0  0  0  0
   55.9320   30.1000   44.6720 O   0  0  0  0  0  0  0  0  0  0  0  0
   57.2250   29.8310   45.1460 C   0  0  0  0  0  0  0  0  0  0  0  0
   57.7640   28.5290   45.1510 C   0  0  0  0  0  0  0  0  0  0  0  0
   59.0580   28.2960   45.6400 C   0  0  0  0  0  0  0  0  0  0  0  0
   59.6120   26.8980   45.7030 C   0  0  0  0  0  0  0  0  0  0  0  0
   58.5370   25.9020   45.5830 N   0  0  0  0  0  0  0  0  0  0  0  0
   58.4510   25.0090   46.7540 C   0  0  0  0  0  0  0  0  0  0  0  0
   56.9950   24.7810   47.1730 C   0  0  0  0  0  0  0  0  0  0  0  0
   55.8400   25.2470   45.8900 S   0  0  0  0  0  0  0  0  0  0  0  0
   56.5700   24.9650   44.3480 N   0  0  0  0  0  0  0  0  0  0  0  0
   55.4930   26.7050   46.0140 O   0  0  0  0  0  0  0  0  0  0  0  0
   54.5890   24.4240   46.0050 O   0  0  0  0  0  0  0  0  0  0  0  0
   59.8160   29.3700   46.1240 C   0  0  0  0  0  0  0  0  0  0  0  0
   59.2900   30.6620   46.1200 C   0  0  0  0  0  0  0  0  0  0  0  0
   57.9920   30.9010   45.6340 C   0  0  0  0  0  0  0  0  0  0  0  0
   57.4240   32.1840   45.6220 O   0  0  0  0  0  0  0  0  0  0  0  0
   57.3780   33.0590   46.7470 C   0  0  0  0  0  0  0  0  0  0  0  0
   58.7830   33.3970   47.1670 C   0  0  0  0  0  0  0  0  0  0  0  0
   59.1970   33.1370   48.4860 C   0  0  0  0  0  0  0  0  0  0  0  0
   60.5050   33.4240   48.8860 C   0  0  0  0  0  0  0  0  0  0  0  0
   61.4130   33.9660   47.9750 C   0  0  0  0  0  0  0  0  0  0  0  0
   61.0180   34.2180   46.6600 C   0  0  0  0  0  0  0  0  0  0  0  0
   59.7110   33.9330   46.2470 C   0  0  0  0  0  0  0  0  0  0  0  0
   59.2710   34.2510   44.5720 Cl  0  0  0  0  0  0  0  0  0  0  0  0
   54.5794   29.0891   43.4754 H   0  0  0  0  0  0  0  0  0  0  0  0
   55.1747   30.6553   42.8277 H   0  0  0  0  0  0  0  0  0  0  0  0
   56.2500   29.2164   42.8277 H   0  0  0  0  0  0  0  0  0  0  0  0
   57.1655   27.6890   44.7686 H   0  0  0  0  0  0  0  0  0  0  0  0
   60.3275   26.7567   44.8796 H   0  0  0  0  0  0  0  0  0  0  0  0
   60.1114   26.7611   46.6735 H   0  0  0  0  0  0  0  0  0  0  0  0
   57.6350   26.4300   45.5150 H   0  0  0  0  0  0  0  0  0  0  0  0
   58.9070   24.0406   46.5006 H   0  0  0  0  0  0  0  0  0  0  0  0
   58.9839   25.4821   47.5919 H   0  0  0  0  0  0  0  0  0  0  0  0
   56.8560   23.7145   47.4040 H   0  0  0  0  0  0  0  0  0  0  0  0
   56.7946   25.4113   48.0519 H   0  0  0  0  0  0  0  0  0  0  0  0
   57.4060   24.3600   44.5120 H   0  0  0  0  0  0  0  0  0  0  0  0
   56.9260   25.8850   44.0050 H   0  0  0  0  0  0  0  0  0  0  0  0
   60.8312   29.1937   46.5092 H   0  0  0  0  0  0  0  0  0  0  0  0
   59.8943   31.4992   46.4994 H   0  0  0  0  0  0  0  0  0  0  0  0
   56.8433   33.9809   46.4747 H   0  0  0  0  0  0  0  0  0  0  0  0
   56.8517   32.5663   47.5778 H   0  0  0  0  0  0  0  0  0  0  0  0
   58.4871   32.7053   49.2068 H   0  0  0  0  0  0  0  0  0  0  0  0
   60.8195   33.2224   49.9206 H   0  0  0  0  0  0  0  0  0  0  0  0
   62.4407   34.1948   48.2935 H   0  0  0  0  0  0  0  0  0  0  0  0
   61.7375   34.6427   45.9445 H   0  0  0  0  0  0  0  0  0  0  0  0
  1  2  1  0
  2  3  1  0
  3  4  2  0
  4  5  1  0
  5  6  1  0
  6  7  1  0
  7  8  1  0
  8  9  1  0
  9 10  1  0
 10 11  1  0
 10 12  2  0
 10 13  2  0
  5 14  2  0
 14 15  1  0
 15 16  2  0
 16 17  1  0
 17 18  1  0
 18 19  1  0
 19 20  2  0
 20 21  1  0
 21 22  2  0
 22 23  1  0
 23 24  2  0
 24 25  1  0
 16  3  1  0
 24 19  1  0
  1 26  1  0
  1 27  1  0
  1 28  1  0
  4 29  1  0
  6 30  1  0
  6 31  1  0
  7 32  1  0
  8 33  1  0
  8 34  1  0
  9 35  1  0
  9 36  1  0
 11 37  1  0
 11 38  1  0
 14 39  1  0
 15 40  1  0
 18 41  1  0
 18 42  1  0
 20 43  1  0
 21 44  1  0
 22 45  1  0
 23 46  1  0
M  END
>  <UniqueID>  (3) 
2

>  <SMILES>  (3) 
COc1cc(CNCCS(N)(=O)=O)ccc1OCc1ccccc1Cl

>  <Energy>  (3) 
37.12567122179432

>  <Genealogy>  (3) 
COc1cc(CNCCS(N)(=O)=O)ccc1OCc1ccccc1Cl (3D coordinates assigned)
COc1cc(CNCCS(N)(=O)=O)ccc1OCc1ccccc1Cl (optimized conformer: 37.12567122179432 kcal/mol)

>  <smiles>  (3) 
COc1cc(CNCCS(N)(=O)=O)ccc1OCc1ccccc1Cl

>  <score_type>  (3) 
oracle

>  <origin>  (3) 
adg

>  <m_score__min__energy>  (3) 
-7.8700000000000001

>  <m_primary>  (3) 
energy

$$$$
3:0
     RDKit          3D

 42 45  0  0  0  0  0  0  0  0999 V2000
   54.1218   25.0468   46.0696 H   0  0  0  0  0  0  0  0  0  0  0  0
   55.1760   25.3390   45.9540 C   0  0  0  0  0  0  0  0  0  0  0  0
   55.5250   26.6500   45.9860 N   0  0  0  0  0  0  0  0  0  0  0  0
   56.8100   27.0820   45.8530 C   0  0  0  0  0  0  0  0  0  0  0  0
   56.9940   28.3760   45.8500 N   0  0  0  0  0  0  0  0  0  0  0  0
   56.3660   29.3950   45.0630 C   0  0  0  0  0  0  0  0  0  0  0  0
   55.1470   29.2900   44.7600 O   0  0  0  0  0  0  0  0  0  0  0  0
   57.1000   30.6200   44.7010 C   0  0  0  0  0  0  0  0  0  0  0  0
   57.7970   31.2900   45.6610 N   0  0  0  0  0  0  0  0  0  0  0  0
   58.4930   32.4330   45.4050 C   0  0  0  0  0  0  0  0  0  0  0  0
   59.2120   33.0720   46.4800 N   0  0  0  0  0  0  0  0  0  0  0  0
   58.5930   33.2100   47.7720 C   0  0  0  0  0  0  0  0  0  0  0  0
   57.3460   33.0930   47.9050 O   0  0  0  0  0  0  0  0  0  0  0  0
   59.3790   33.4660   48.8940 O   0  0  0  0  0  0  0  0  0  0  0  0
   60.7670   33.5640   48.7960 C   0  0  0  0  0  0  0  0  0  0  0  0
   61.5350   33.6460   49.9630 C   0  0  0  0  0  0  0  0  0  0  0  0
   61.0412   33.6443   50.9459 H   0  0  0  0  0  0  0  0  0  0  0  0
   62.9270   33.7300   49.8830 C   0  0  0  0  0  0  0  0  0  0  0  0
   63.5279   33.7883   50.8025 H   0  0  0  0  0  0  0  0  0  0  0  0
   63.5570   33.7400   48.6350 C   0  0  0  0  0  0  0  0  0  0  0  0
   64.6535   33.8030   48.5736 H   0  0  0  0  0  0  0  0  0  0  0  0
   62.7950   33.6700   47.4650 C   0  0  0  0  0  0  0  0  0  0  0  0
   63.2929   33.6941   46.4845 H   0  0  0  0  0  0  0  0  0  0  0  0
   61.3960   33.5690   47.5370 C   0  0  0  0  0  0  0  0  0  0  0  0
   60.5730   33.5900   46.2730 C   0  0  0  0  0  0  0  0  0  0  0  0
   61.0748   32.9710   45.5147 H   0  0  0  0  0  0  0  0  0  0  0  0
   60.4868   34.6370   45.9469 H   0  0  0  0  0  0  0  0  0  0  0  0
   58.4860   32.9600   44.0970 C   0  0  0  0  0  0  0  0  0  0  0  0
   59.1420   34.1460   43.7900 O   0  0  0  0  0  0  0  0  0  0  0  0
   57.7840   32.2880   43.0940 C   0  0  0  0  0  0  0  0  0  0  0  0
   57.7803   32.6838   42.0677 H   0  0  0  0  0  0  0  0  0  0  0  0
   57.0880   31.1170   43.3900 C   0  0  0  0  0  0  0  0  0  0  0  0
   56.5338   30.5871   42.6013 H   0  0  0  0  0  0  0  0  0  0  0  0
   57.8520   26.1070   45.7500 C   0  0  0  0  0  0  0  0  0  0  0  0
   59.3270   26.4170   45.8080 C   0  0  0  0  0  0  0  0  0  0  0  0
   59.6465   26.4842   46.8584 H   0  0  0  0  0  0  0  0  0  0  0  0
   59.8898   25.6175   45.3039 H   0  0  0  0  0  0  0  0  0  0  0  0
   59.5203   27.3754   45.3039 H   0  0  0  0  0  0  0  0  0  0  0  0
   57.4860   24.7510   45.6750 C   0  0  0  0  0  0  0  0  0  0  0  0
   58.2634   23.9854   45.5356 H   0  0  0  0  0  0  0  0  0  0  0  0
   56.1520   24.3660   45.7750 C   0  0  0  0  0  0  0  0  0  0  0  0
   55.8735   23.3036   45.7130 H   0  0  0  0  0  0  0  0  0  0  0  0
  1  2  1  0
  2  3  1  0
  3  4  1  0
  4  5  2  0
  5  6  1  0
  6  7  2  0
  6  8  1  0
  8  9  2  0
  9 10  1  0
 10 11  1  0
 11 12  1  0
 12 13  2  0
 12 14  1  0
 14 15  1  0
 15 16  2  0
 16 17  1  0
 16 18  1  0
 18 19  1  0
 18 20  2  0
 20 21  1  0
 20 22  1  0
 22 23  1  0
 22 24  2  0
 24 25  1  0
 25 26  1  0
 25 27  1  0
 10 28  2  0
 28 29  1  0
 28 30  1  0
 30 31  1  0
 30 32  2  0
 32 33  1  0
  4 34  1  0
 34 35  1  0
 35 36  1  0
 35 37  1  0
 35 38  1  0
 34 39  2  0
 39 40  1  0
 39 41  1  0
 41 42  1  0
 41  2  2  0
 32  8  1  0
 25 11  1  0
 24 15  1  0
M  CHG  2   3  -1  29  -1
M  END
>  <UniqueID>  (4) 
3

>  <SMILES>  (4) 
Cc1ccc[n-]/c1=N/C(=O)c1ccc([O-])c(N2Cc3ccccc3OC2=O)n1

>  <Energy>  (4) 
71.76071166009127

>  <Genealogy>  (4) 
Cc1ccc[n-]c1=NC(=O)c1ccc([O-])c(N2Cc3ccccc3OC2=O)n1 (protonated)
Cc1ccc[n-]/c1=N/C(=O)c1ccc([O-])c(N2Cc3ccccc3OC2=O)n1 (cis-trans isomerization)
Cc1ccc[n-]/c1=N/C(=O)c1ccc([O-])c(N2Cc3ccccc3OC2=O)n1 (3D coordinates assigned)
Cc1ccc[n-]/c1=N/C(=O)c1ccc([O-])c(N2Cc3ccccc3OC2=O)n1 (nonaromatic ring conformer: 71.76071166009127 kcal/mol)

>  <smiles>  (4) 
Cc1ccc[nH]c1=NC(=O)c1ccc(O)c(N2Cc3ccccc3OC2=O)n1

>  <score_type>  (4) 
oracle

>  <origin>  (4) 
adg

>  <m_score__min__energy>  (4) 
-11.880000000000001

>  <m_primary>  (4) 
energy

$$$$
4:0
     RDKit          3D

 49 51  0  0  0  0  0  0  0  0999 V2000
   52.1360   24.1260   44.8940 C   0  0  0  0  0  0  0  0  0  0  0  0
   53.2370   23.3400   44.4470 O   0  0  0  0  0  0  0  0  0  0  0  0
   54.5790   23.6140   44.7520 C   0  0  0  0  0  0  0  0  0  0  0  0
   55.6320   23.3090   43.8690 C   0  0  0  0  0  0  0  0  0  0  0  0
   56.9520   23.6050   44.2180 C   0  0  0  0  0  0  0  0  0  0  0  0
   57.2430   24.1980   45.4560 C   0  0  0  0  0  0  0  0  0  0  0  0
   58.6560   24.5640   45.8100 C   0  0  0  0  0  0  0  0  0  0  0  0
   58.7350   25.9900   46.1150 N   0  0  0  0  0  0  0  0  0  0  0  0
   59.9810   26.6570   46.3630 C   0  0  0  0  0  0  0  0  0  0  0  0
   61.0510   25.9970   46.4570 O   0  0  0  0  0  0  0  0  0  0  0  0
   60.0220   28.1450   46.4990 C   0  0  0  0  0  0  0  0  0  0  0  0
   59.9190   28.9640   44.8700 S   0  0  0  0  0  0  0  0  0  0  0  0
   58.1250   29.0640   44.8370 C   0  0  0  0  0  0  0  0  0  0  0  0
   57.3230   28.0990   45.3320 N   0  0  0  0  0  0  0  0  0  0  0  0
   56.0760   28.5370   45.2320 N   0  0  0  0  0  0  0  0  0  0  0  0
   56.1480   29.7670   44.6940 C   0  0  0  0  0  0  0  0  0  0  0  0
   55.1410   30.4960   44.4920 O   0  0  0  0  0  0  0  0  0  0  0  0
   57.4140   30.1340   44.4260 N   0  0  0  0  0  0  0  0  0  0  0  0
   57.8960   31.4310   43.9390 C   0  0  0  0  0  0  0  0  0  0  0  0
   57.1620   32.5940   44.6160 C   0  0  0  0  0  0  0  0  0  0  0  0
   58.0360   33.3120   45.6100 C   0  0  0  0  0  0  0  0  0  0  0  0
   58.7990   34.4220   45.2070 C   0  0  0  0  0  0  0  0  0  0  0  0
   59.6350   35.0700   46.1200 C   0  0  0  0  0  0  0  0  0  0  0  0
   59.7170   34.6170   47.4390 C   0  0  0  0  0  0  0  0  0  0  0  0
   58.9650   33.5110   47.8470 C   0  0  0  0  0  0  0  0  0  0  0  0
   58.1270   32.8590   46.9370 C   0  0  0  0  0  0  0  0  0  0  0  0
   56.1910   24.5130   46.3310 C   0  0  0  0  0  0  0  0  0  0  0  0
   54.8700   24.2180   45.9820 C   0  0  0  0  0  0  0  0  0  0  0  0
   52.1175   24.1392   45.9938 H   0  0  0  0  0  0  0  0  0  0  0  0
   52.2421   25.1538   44.5167 H   0  0  0  0  0  0  0  0  0  0  0  0
   51.1984   23.6918   44.5167 H   0  0  0  0  0  0  0  0  0  0  0  0
   55.4146   22.8356   42.9002 H   0  0  0  0  0  0  0  0  0  0  0  0
   57.7680   23.3718   43.5182 H   0  0  0  0  0  0  0  0  0  0  0  0
   58.9743   23.9842   46.6889 H   0  0  0  0  0  0  0  0  0  0  0  0
   59.3146   24.3372   44.9586 H   0  0  0  0  0  0  0  0  0  0  0  0
   57.8580   26.5560   46.0600 H   0  0  0  0  0  0  0  0  0  0  0  0
   59.1737   28.4716   47.1184 H   0  0  0  0  0  0  0  0  0  0  0  0
   60.9770   28.4243   46.9680 H   0  0  0  0  0  0  0  0  0  0  0  0
   58.9719   31.5152   44.1518 H   0  0  0  0  0  0  0  0  0  0  0  0
   57.7051   31.4858   42.8571 H   0  0  0  0  0  0  0  0  0  0  0  0
   56.8414   33.3089   43.8439 H   0  0  0  0  0  0  0  0  0  0  0  0
   56.2994   32.1806   45.1592 H   0  0  0  0  0  0  0  0  0  0  0  0
   58.7376   34.7816   44.1693 H   0  0  0  0  0  0  0  0  0  0  0  0
   60.2296   35.9383   45.7997 H   0  0  0  0  0  0  0  0  0  0  0  0
   60.3734   35.1306   48.1569 H   0  0  0  0  0  0  0  0  0  0  0  0
   59.0327   33.1534   48.8850 H   0  0  0  0  0  0  0  0  0  0  0  0
   57.5372   31.9888   47.2610 H   0  0  0  0  0  0  0  0  0  0  0  0
   56.4075   24.9944   47.2961 H   0  0  0  0  0  0  0  0  0  0  0  0
   54.0536   24.4617   46.6778 H   0  0  0  0  0  0  0  0  0  0  0  0
  1  2  1  0
  2  3  1  0
  3  4  2  0
  4  5  1  0
  5  6  2  0
  6  7  1  0
  7  8  1  0
  8  9  1  0
  9 10  2  0
  9 11  1  0
 11 12  1  0
 12 13  1  0
 13 14  2  0
 14 15  1  0
 15 16  1  0
 16 17  2  0
 16 18  1  0
 18 19  1  0
 19 20  1  0
 20 21  1  0
 21 22  2  0
 22 23  1  0
 23 24  2  0
 24 25  1  0
 25 26  2  0
  6 27  1  0
 27 28  2  0
 28  3  1  0
 18 13  1  0
 26 21  1  0
  1 29  1  0
  1 30  1  0
  1 31  1  0
  4 32  1  0
  5 33  1  0
  7 34  1  0
  7 35  1  0
  8 36  1  0
 11 37  1  0
 11 38  1  0
 19 39  1  0
 19 40  1  0
 20 41  1  0
 20 42  1  0
 22 43  1  0
 23 44  1  0
 24 45  1  0
 25 46  1  0
 26 47  1  0
 27 48  1  0
 28 49  1  0
M  CHG  1  15  -1
M  END
>  <UniqueID>  (5) 
4

>  <SMILES>  (5) 
COc1ccc(CNC(=O)CSc2n[n-]c(=O)n2CCc2ccccc2)cc1

>  <Energy>  (5) 
75.93104964572629

>  <Genealogy>  (5) 
COc1ccc(CNC(=O)CSc2n[n-]c(=O)n2CCc2ccccc2)cc1 (protonated)
COc1ccc(CNC(=O)CSc2n[n-]c(=O)n2CCc2ccccc2)cc1 (3D coordinates assigned)
COc1ccc(CNC(=O)CSc2n[n-]c(=O)n2CCc2ccccc2)cc1 (optimized conformer: 75.93104964572629 kcal/mol)

>  <smiles>  (5) 
COc1ccc(CNC(=O)CSc2n[nH]c(=O)n2CCc2ccccc2)cc1

>  <score_type>  (5) 
oracle

>  <origin>  (5) 
adg

>  <m_score__min__energy>  (5) 
-9.75

>  <m_primary>  (5) 
energy

$$$$
5:0
     RDKit          3D

 41 43  0  0  0  0  0  0  0  0999 V2000
   57.8310   32.7203   45.0725 H   0  0  0  0  0  0  0  0  0  0  0  0
   57.4450   31.8770   44.4810 C   0  0  0  0  0  0  0  0  0  0  0  0
   56.9260   30.7890   45.1090 N   0  0  0  0  0  0  0  0  0  0  0  0
   56.4410   29.7140   44.4260 C   0  0  0  0  0  0  0  0  0  0  0  0
   55.9530   28.7200   45.1150 N   0  0  0  0  0  0  0  0  0  0  0  0
   56.6440   27.6510   45.7790 C   0  0  0  0  0  0  0  0  0  0  0  0
   56.1870   26.4770   45.7500 O   0  0  0  0  0  0  0  0  0  0  0  0
   57.9550   27.8910   46.4210 C   0  0  0  0  0  0  0  0  0  0  0  0
   58.3270   29.0750   47.0330 C   0  0  0  0  0  0  0  0  0  0  0  0
   57.7348   29.9952   47.1447 H   0  0  0  0  0  0  0  0  0  0  0  0
   59.6110   28.8340   47.4700 C   0  0  0  0  0  0  0  0  0  0  0  0
   60.3430   29.6990   48.1070 N   0  0  0  0  0  0  0  0  0  0  0  0
   59.8840   30.9250   48.7010 C   0  0  0  0  0  0  0  0  0  0  0  0
   59.5390   30.9540   49.9140 O   0  0  0  0  0  0  0  0  0  0  0  0
   59.7880   32.1480   47.8670 C   0  0  0  0  0  0  0  0  0  0  0  0
   58.5150   32.7000   47.6210 C   0  0  0  0  0  0  0  0  0  0  0  0
   57.6216   32.2128   48.0387 H   0  0  0  0  0  0  0  0  0  0  0  0
   58.3740   33.8570   46.8540 C   0  0  0  0  0  0  0  0  0  0  0  0
   57.3733   34.2767   46.6738 H   0  0  0  0  0  0  0  0  0  0  0  0
   59.4960   34.4820   46.3160 C   0  0  0  0  0  0  0  0  0  0  0  0
   59.3811   35.3971   45.7165 H   0  0  0  0  0  0  0  0  0  0  0  0
   60.7660   33.9480   46.5370 C   0  0  0  0  0  0  0  0  0  0  0  0
   61.6489   34.4451   46.1088 H   0  0  0  0  0  0  0  0  0  0  0  0
   60.9260   32.7820   47.3010 C   0  0  0  0  0  0  0  0  0  0  0  0
   62.5960   32.1280   47.4780 S   0  0  0  0  0  0  0  0  0  0  0  0
   63.3810   33.6030   46.7590 C   0  0  0  0  0  0  0  0  0  0  0  0
   63.7318   34.2622   47.5667 H   0  0  0  0  0  0  0  0  0  0  0  0
   64.2358   33.2974   46.1377 H   0  0  0  0  0  0  0  0  0  0  0  0
   62.6501   34.1413   46.1377 H   0  0  0  0  0  0  0  0  0  0  0  0
   60.0000   27.5850   47.1450 N   0  0  0  0  0  0  0  0  0  0  0  0
   58.9900   27.0170   46.5050 N   0  0  0  0  0  0  0  0  0  0  0  0
   59.0540   25.6530   45.9890 C   0  0  0  0  0  0  0  0  0  0  0  0
   59.0873   24.9442   46.8295 H   0  0  0  0  0  0  0  0  0  0  0  0
   58.1643   25.4514   45.3743 H   0  0  0  0  0  0  0  0  0  0  0  0
   59.9586   25.5356   45.3743 H   0  0  0  0  0  0  0  0  0  0  0  0
   56.4520   29.7430   43.0140 C   0  0  0  0  0  0  0  0  0  0  0  0
   56.0450   28.8985   42.4385 H   0  0  0  0  0  0  0  0  0  0  0  0
   56.9840   30.8530   42.3550 C   0  0  0  0  0  0  0  0  0  0  0  0
   57.0047   30.8809   41.2555 H   0  0  0  0  0  0  0  0  0  0  0  0
   57.4890   31.9260   43.0880 C   0  0  0  0  0  0  0  0  0  0  0  0
   57.9165   32.7997   42.5744 H   0  0  0  0  0  0  0  0  0  0  0  0
  1  2  1  0
  2  3  1  0
  3  4  1  0
  4  5  2  0
  5  6  1  0
  6  7  2  0
  6  8  1  0
  8  9  2  0
  9 10  1  0
  9 11  1  0
 11 12  2  3
 12 13  1  0
 13 14  2  0
 13 15  1  0
 15 16  2  0
 16 17  1  0
 16 18  1  0
 18 19  1  0
 18 20  2  0
 20 21  1  0
 20 22  1  0
 22 23  1  0
 22 24  2  0
 24 25  1  0
 25 26  1  0
 26 27  1  0
 26 28  1  0
 26 29  1  0
 11 30  1  0
 30 31  1  0
 31 32  1  0
 32 33  1  0
 32 34  1  0
 32 35  1  0
  4 36  1  0
 36 37  1  0
 36 38  2  0
 38 39  1  0
 38 40  1  0
 40 41  1  0
 40  2  2  0
 31  8  1  0
 24 15  1  0
M  CHG  2   3  -1  30  -1
M  END
>  <UniqueID>  (6) 
5

>  <SMILES>  (6) 
CSc1ccccc1C(=O)N=c1cc(C(=O)/N=c2\cccc[n-]2)n(C)[n-]1

>  <Energy>  (6) 
85.10607191886118

>  <Genealogy>  (6) 
CSc1ccccc1C(=O)N=c1cc(C(=O)N=c2cccc[n-]2)n(C)[n-]1 (protonated)
CSc1ccccc1C(=O)N=c1cc(C(=O)/N=c2\cccc[n-]2)n(C)[n-]1 (cis-trans isomerization)
CSc1ccccc1C(=O)N=c1cc(C(=O)/N=c2\cccc[n-]2)n(C)[n-]1 (3D coordinates assigned)
CSc1ccccc1C(=O)N=c1cc(C(=O)/N=c2\cccc[n-]2)n(C)[n-]1 (optimized conformer: 85.10607191886118 kcal/mol)

>  <smiles>  (6) 
CSc1ccccc1C(=O)N=c1cc(C(=O)N=c2cccc[nH]2)n(C)[nH]1

>  <score_type>  (6) 
oracle

>  <origin>  (6) 
adg

>  <m_score__min__energy>  (6) 
-11.1

>  <m_primary>  (6) 
energy

$$$$
6:0
     RDKit          3D

 51 53  0  0  0  0  0  0  0  0999 V2000
   55.8840   29.8890   44.2070 C   0  0  0  0  0  0  0  0  0  0  0  0
   55.8910   28.8610   45.2450 N   0  0  0  0  0  0  0  0  0  0  0  0
   57.5270   28.4120   45.6220 S   0  0  0  0  0  0  0  0  0  0  0  0
   58.0050   27.3530   44.6670 O   0  0  0  0  0  0  0  0  0  0  0  0
   57.5690   27.8620   47.0200 O   0  0  0  0  0  0  0  0  0  0  0  0
   58.6090   29.8280   45.5260 C   0  0  0  0  0  0  0  0  0  0  0  0
   59.2080   30.1040   46.8650 C   0  0  0  0  0  0  0  0  0  0  0  0
   60.5590   30.1350   47.1530 C   0  0  0  0  0  0  0  0  0  0  0  0
   60.6390   30.4330   48.4980 C   0  0  0  0  0  0  0  0  0  0  0  0
   61.8690   30.4680   49.3090 C   0  0  0  0  0  0  0  0  0  0  0  0
   62.0250   29.5590   50.1710 O   0  0  0  0  0  0  0  0  0  0  0  0
   62.8380   31.5480   49.2350 N   0  0  0  0  0  0  0  0  0  0  0  0
   62.5610   32.6040   50.2530 C   0  0  0  0  0  0  0  0  0  0  0  0
   62.1910   33.9680   49.6560 C   0  0  0  0  0  0  0  0  0  0  0  0
   61.3800   33.7730   48.4570 N   0  0  0  0  0  0  0  0  0  0  0  0
   59.9770   34.1340   48.4390 C   0  0  0  0  0  0  0  0  0  0  0  0
   59.3810   34.3720   49.5240 O   0  0  0  0  0  0  0  0  0  0  0  0
   59.1950   34.1860   47.1840 C   0  0  0  0  0  0  0  0  0  0  0  0
   59.6340   34.9490   46.0880 C   0  0  0  0  0  0  0  0  0  0  0  0
   58.8920   34.9720   44.9030 C   0  0  0  0  0  0  0  0  0  0  0  0
   57.7010   34.2460   44.8070 C   0  0  0  0  0  0  0  0  0  0  0  0
   57.2470   33.5040   45.9000 C   0  0  0  0  0  0  0  0  0  0  0  0
   57.9840   33.4800   47.0860 C   0  0  0  0  0  0  0  0  0  0  0  0
   62.0050   33.0440   47.3500 C   0  0  0  0  0  0  0  0  0  0  0  0
   63.0750   32.0510   47.8560 C   0  0  0  0  0  0  0  0  0  0  0  0
   59.3340   30.4910   48.9560 C   0  0  0  0  0  0  0  0  0  0  0  0
   58.8920   30.7200   50.3630 C   0  0  0  0  0  0  0  0  0  0  0  0
   58.5050   30.3090   47.9550 O   0  0  0  0  0  0  0  0  0  0  0  0
   55.8772   30.8839   44.6763 H   0  0  0  0  0  0  0  0  0  0  0  0
   56.7829   29.7847   43.5816 H   0  0  0  0  0  0  0  0  0  0  0  0
   54.9866   29.7725   43.5816 H   0  0  0  0  0  0  0  0  0  0  0  0
   59.4122   29.6244   44.8025 H   0  0  0  0  0  0  0  0  0  0  0  0
   58.0288   30.7047   45.2022 H   0  0  0  0  0  0  0  0  0  0  0  0
   61.3933   29.9595   46.4580 H   0  0  0  0  0  0  0  0  0  0  0  0
   63.7520   31.1140   49.5120 H   0  0  0  0  0  0  0  0  0  0  0  0
   61.7260   32.2651   50.8839 H   0  0  0  0  0  0  0  0  0  0  0  0
   63.4916   32.7485   50.8214 H   0  0  0  0  0  0  0  0  0  0  0  0
   61.6188   34.5482   50.3949 H   0  0  0  0  0  0  0  0  0  0  0  0
   63.1093   34.5130   49.3919 H   0  0  0  0  0  0  0  0  0  0  0  0
   60.5649   35.5303   46.1629 H   0  0  0  0  0  0  0  0  0  0  0  0
   59.2459   35.5623   44.0449 H   0  0  0  0  0  0  0  0  0  0  0  0
   57.1221   34.2591   43.8718 H   0  0  0  0  0  0  0  0  0  0  0  0
   56.3070   32.9374   45.8264 H   0  0  0  0  0  0  0  0  0  0  0  0
   57.6145   32.9053   47.9481 H   0  0  0  0  0  0  0  0  0  0  0  0
   61.2285   32.4859   46.8064 H   0  0  0  0  0  0  0  0  0  0  0  0
   62.4973   33.7744   46.6911 H   0  0  0  0  0  0  0  0  0  0  0  0
   63.0954   31.1887   47.1733 H   0  0  0  0  0  0  0  0  0  0  0  0
   64.0283   32.5994   47.8797 H   0  0  0  0  0  0  0  0  0  0  0  0
   59.6515   30.3265   51.0546 H   0  0  0  0  0  0  0  0  0  0  0  0
   58.7625   31.7986   50.5357 H   0  0  0  0  0  0  0  0  0  0  0  0
   57.9362   30.2037   50.5357 H   0  0  0  0  0  0  0  0  0  0  0  0
  1  2  1  0
  2  3  1  0
  3  4  2  0
  3  5  2  0
  3  6  1  0
  6  7  1  0
  7  8  2  0
  8  9  1  0
  9 10  1  0
 10 11  2  0
 10 12  1  0
 12 13  1  0
 13 14  1  0
 14 15  1  0
 15 16  1  0
 16 17  2  0
 16 18  1  0
 18 19  2  0
 19 20  1  0
 20 21  2  0
 21 22  1  0
 22 23  2  0
 15 24  1  0
 24 25  1  0
  9 26  2  0
 26 27  1  0
 26 28  1  0
 28  7  1  0
 25 12  1  0
 23 18  1  0
  1 29  1  0
  1 30  1  0
  1 31  1  0
  6 32  1  0
  6 33  1  0
  8 34  1  0
 12 35  1  0
 13 36  1  0
 13 37  1  0
 14 38  1  0
 14 39  1  0
 19 40  1  0
 20 41  1  0
 21 42  1  0
 22 43  1  0
 23 44  1  0
 24 45  1  0
 24 46  1  0
 25 47  1  0
 25 48  1  0
 27 49  1  0
 27 50  1  0
 27 51  1  0
M  CHG  2   2  -1  12   1
M  END
>  <UniqueID>  (7) 
6

>  <SMILES>  (7) 
C[N-]S(=O)(=O)Cc1cc(C(=O)[NH+]2CCN(C(=O)c3ccccc3)CC2)c(C)o1

>  <Energy>  (7) 
91.22455449319165

>  <Genealogy>  (7) 
C[N-]S(=O)(=O)Cc1cc(C(=O)[NH+]2CCN(C(=O)c3ccccc3)CC2)c(C)o1 (protonated)
C[N-]S(=O)(=O)Cc1cc(C(=O)[NH+]2CCN(C(=O)c3ccccc3)CC2)c(C)o1 (3D coordinates assigned)
C[N-]S(=O)(=O)Cc1cc(C(=O)[NH+]2CCN(C(=O)c3ccccc3)CC2)c(C)o1 (nonaromatic ring conformer: 91.22455449319165 kcal/mol)

>  <smiles>  (7) 
CNS(=O)(=O)Cc1cc(C(=O)N2CCN(C(=O)c3ccccc3)CC2)c(C)o1

>  <score_type>  (7) 
oracle

>  <origin>  (7) 
adg

>  <m_score__min__energy>  (7) 
-8.8599999999999994

>  <m_primary>  (7) 
energy

$$$$
7:0
     RDKit          3D

 39 41  0  0  0  0  0  0  0  0999 V2000
   55.4530   31.0540   52.7790 C   0  0  0  0  0  0  0  0  0  0  0  0
   56.5790   30.8490   51.8210 C   0  0  0  0  0  0  0  0  0  0  0  0
   57.0260   29.6850   51.6290 O   0  0  0  0  0  0  0  0  0  0  0  0
   57.1160   31.9700   51.1020 N   0  0  0  0  0  0  0  0  0  0  0  0
   58.2990   31.9090   50.2860 C   0  0  0  0  0  0  0  0  0  0  0  0
   59.5340   31.4870   50.8140 C   0  0  0  0  0  0  0  0  0  0  0  0
   60.6720   31.4480   50.0010 C   0  0  0  0  0  0  0  0  0  0  0  0
   60.5920   31.8330   48.6550 C   0  0  0  0  0  0  0  0  0  0  0  0
   62.0040   31.7440   47.6080 S   0  0  0  0  0  0  0  0  0  0  0  0
   63.2630   31.5810   48.4120 O   0  0  0  0  0  0  0  0  0  0  0  0
   62.0990   33.0150   46.8130 O   0  0  0  0  0  0  0  0  0  0  0  0
   61.8410   30.4030   46.5230 N   0  0  0  0  0  0  0  0  0  0  0  0
   60.6940   29.5430   46.4420 C   0  0  0  0  0  0  0  0  0  0  0  0
   60.3320   28.6800   47.4900 C   0  0  0  0  0  0  0  0  0  0  0  0
   59.1880   27.8850   47.3860 C   0  0  0  0  0  0  0  0  0  0  0  0
   58.3870   27.9280   46.2310 C   0  0  0  0  0  0  0  0  0  0  0  0
   57.1830   27.0620   46.1500 C   0  0  0  0  0  0  0  0  0  0  0  0
   57.1570   25.7900   46.5940 N   0  0  0  0  0  0  0  0  0  0  0  0
   55.8970   25.3820   46.3440 C   0  0  0  0  0  0  0  0  0  0  0  0
   55.4890   24.2250   46.6250 O   0  0  0  0  0  0  0  0  0  0  0  0
   55.1060   26.3140   45.7720 N   0  0  0  0  0  0  0  0  0  0  0  0
   55.9260   27.3720   45.6570 C   0  0  0  0  0  0  0  0  0  0  0  0
   55.5180   28.5910   45.1280 O   0  0  0  0  0  0  0  0  0  0  0  0
   58.7800   28.7630   45.1670 C   0  0  0  0  0  0  0  0  0  0  0  0
   59.9190   29.5670   45.2790 C   0  0  0  0  0  0  0  0  0  0  0  0
   59.3710   32.2800   48.1350 C   0  0  0  0  0  0  0  0  0  0  0  0
   58.2340   32.3260   48.9480 C   0  0  0  0  0  0  0  0  0  0  0  0
   55.8313   30.9851   53.8096 H   0  0  0  0  0  0  0  0  0  0  0  0
   55.0098   32.0476   52.6167 H   0  0  0  0  0  0  0  0  0  0  0  0
   54.6881   30.2804   52.6167 H   0  0  0  0  0  0  0  0  0  0  0  0
   56.5570   32.8540   51.0910 H   0  0  0  0  0  0  0  0  0  0  0  0
   59.6045   31.1868   51.8699 H   0  0  0  0  0  0  0  0  0  0  0  0
   61.6330   31.1141   50.4192 H   0  0  0  0  0  0  0  0  0  0  0  0
   60.9525   28.6301   48.3969 H   0  0  0  0  0  0  0  0  0  0  0  0
   58.9109   27.2185   48.2161 H   0  0  0  0  0  0  0  0  0  0  0  0
   58.1867   28.7830   44.2410 H   0  0  0  0  0  0  0  0  0  0  0  0
   60.2073   30.2237   44.4449 H   0  0  0  0  0  0  0  0  0  0  0  0
   59.3060   32.5960   47.0834 H   0  0  0  0  0  0  0  0  0  0  0  0
   57.2821   32.6917   48.5355 H   0  0  0  0  0  0  0  0  0  0  0  0
  1  2  1  0
  2  3  2  0
  2  4  1  0
  4  5  1  0
  5  6  2  0
  6  7  1  0
  7  8  2  0
  8  9  1  0
  9 10  2  0
  9 11  2  0
  9 12  1  0
 12 13  1  0
 13 14  2  0
 14 15  1  0
 15 16  2  0
 16 17  1  0
 17 18  1  0
 18 19  1  0
 19 20  2  0
 19 21  1  0
 21 22  1  0
 22 23  1  0
 16 24  1  0
 24 25  2  0
  8 26  1  0
 26 27  2  0
 27  5  1  0
 25 13  1  0
 22 17  2  0
  1 28  1  0
  1 29  1  0
  1 30  1  0
  4 31  1  0
  6 32  1  0
  7 33  1  0
 14 34  1  0
 15 35  1  0
 24 36  1  0
 25 37  1  0
 26 38  1  0
 27 39  1  0
M  CHG  4  12  -1  18  -1  21  -1  23  -1
M  END
>  <UniqueID>  (8) 
7

>  <SMILES>  (8) 
CC(=O)Nc1ccc(S(=O)(=O)[N-]c2ccc(-c3[n-]c(=O)[n-]c3[O-])cc2)cc1

>  <Energy>  (8) 
79.23220969600557

>  <Genealogy>  (8) 
CC(=O)Nc1ccc(S(=O)(=O)[N-]c2ccc(-c3[n-]c(=O)[n-]c3[O-])cc2)cc1 (protonated)
CC(=O)Nc1ccc(S(=O)(=O)[N-]c2ccc(-c3[n-]c(=O)[n-]c3[O-])cc2)cc1 (3D coordinates assigned)
CC(=O)Nc1ccc(S(=O)(=O)[N-]c2ccc(-c3[n-]c(=O)[n-]c3[O-])cc2)cc1 (optimized conformer: 79.23220969600557 kcal/mol)

>  <smiles>  (8) 
CC(=O)Nc1ccc(S(=O)(=O)Nc2ccc(-c3[nH]c(=O)[nH]c3O)cc2)cc1

>  <score_type>  (8) 
oracle

>  <origin>  (8) 
adg

>  <m_score__min__energy>  (8) 
-16.739999999999998

>  <m_primary>  (8) 
energy

$$$$
8:0
     RDKit          3D

 29 30  0  0  0  0  0  0  0  0999 V2000
   58.4150   27.5060   46.5940 O   0  0  0  0  0  0  0  0  0  0  0  0
   57.8500   27.8280   45.5110 C   0  0  0  0  0  0  0  0  0  0  0  0
   57.4140   26.7390   44.5630 C   0  0  0  0  0  0  0  0  0  0  0  0
   57.3570   25.3940   45.2410 C   0  0  0  0  0  0  0  0  0  0  0  0
   58.3940   24.9460   45.8040 O   0  0  0  0  0  0  0  0  0  0  0  0
   56.1130   24.5900   45.2780 C   0  0  0  0  0  0  0  0  0  0  0  0
   56.1760   23.2210   44.9580 C   0  0  0  0  0  0  0  0  0  0  0  0
   55.0220   22.4340   44.9740 C   0  0  0  0  0  0  0  0  0  0  0  0
   53.7930   22.9990   45.3200 C   0  0  0  0  0  0  0  0  0  0  0  0
   52.6460   22.2160   45.3320 O   0  0  0  0  0  0  0  0  0  0  0  0
   53.7190   24.3530   45.6580 C   0  0  0  0  0  0  0  0  0  0  0  0
   54.8710   25.1480   45.6490 C   0  0  0  0  0  0  0  0  0  0  0  0
   54.7690   26.4790   46.0390 O   0  0  0  0  0  0  0  0  0  0  0  0
   57.6950   29.2650   45.1670 C   0  0  0  0  0  0  0  0  0  0  0  0
   58.8100   30.1240   45.1820 C   0  0  0  0  0  0  0  0  0  0  0  0
   58.6670   31.4800   44.8720 C   0  0  0  0  0  0  0  0  0  0  0  0
   57.4120   31.9970   44.5480 C   0  0  0  0  0  0  0  0  0  0  0  0
   57.2720   33.3440   44.2420 O   0  0  0  0  0  0  0  0  0  0  0  0
   56.2950   31.1580   44.5350 C   0  0  0  0  0  0  0  0  0  0  0  0
   56.4280   29.7980   44.8410 C   0  0  0  0  0  0  0  0  0  0  0  0
   55.2990   28.9870   44.8020 O   0  0  0  0  0  0  0  0  0  0  0  0
   56.4144   26.9844   44.1749 H   0  0  0  0  0  0  0  0  0  0  0  0
   58.1516   26.6798   43.7491 H   0  0  0  0  0  0  0  0  0  0  0  0
   57.1422   22.7668   44.6930 H   0  0  0  0  0  0  0  0  0  0  0  0
   55.0817   21.3670   44.7135 H   0  0  0  0  0  0  0  0  0  0  0  0
   52.7504   24.7963   45.9325 H   0  0  0  0  0  0  0  0  0  0  0  0
   59.8022   29.7252   45.4398 H   0  0  0  0  0  0  0  0  0  0  0  0
   59.5462   32.1410   44.8836 H   0  0  0  0  0  0  0  0  0  0  0  0
   55.3058   31.5679   44.2831 H   0  0  0  0  0  0  0  0  0  0  0  0
  1  2  2  0
  2  3  1  0
  3  4  1  0
  4  5  2  0
  4  6  1  0
  6  7  2  0
  7  8  1  0
  8  9  2  0
  9 10  1  0
  9 11  1  0
 11 12  2  0
 12 13  1  0
  2 14  1  0
 14 15  2  0
 15 16  1  0
 16 17  2  0
 17 18  1  0
 17 19  1  0
 19 20  2  0
 20 21  1  0
 12  6  1  0
 20 14  1  0
  3 22  1  0
  3 23  1  0
  7 24  1  0
  8 25  1  0
 11 26  1  0
 15 27  1  0
 16 28  1  0
 19 29  1  0
M  CHG  4  10  -1  13  -1  18  -1  21  -1
M  END
>  <UniqueID>  (9) 
8

>  <SMILES>  (9) 
O=C(CC(=O)c1ccc([O-])cc1[O-])c1ccc([O-])cc1[O-]

>  <Energy>  (9) 
38.968891352639034

>  <Genealogy>  (9) 
O=C(CC(=O)c1ccc([O-])cc1[O-])c1ccc([O-])cc1[O-] (protonated)
O=C(CC(=O)c1ccc([O-])cc1[O-])c1ccc([O-])cc1[O-] (3D coordinates assigned)
O=C(CC(=O)c1ccc([O-])cc1[O-])c1ccc([O-])cc1[O-] (optimized conformer: 38.968891352639034 kcal/mol)

>  <smiles>  (9) 
O=C(CC(=O)c1ccc(O)cc1O)c1ccc(O)cc1O

>  <score_type>  (9) 
oracle

>  <origin>  (9) 
adg

>  <m_score__min__energy>  (9) 
-16.66

>  <m_primary>  (9) 
energy

$$$$
9:0
     RDKit          3D

 41 44  0  0  0  0  0  0  0  0999 V2000
   65.9721   34.1192   52.0169 H   0  0  0  0  0  0  0  0  0  0  0  0
   65.2470   33.7700   51.2670 C   0  0  0  0  0  0  0  0  0  0  0  0
   63.9540   34.2970   51.2470 C   0  0  0  0  0  0  0  0  0  0  0  0
   63.6617   35.0612   51.9823 H   0  0  0  0  0  0  0  0  0  0  0  0
   63.0300   33.8560   50.2950 C   0  0  0  0  0  0  0  0  0  0  0  0
   62.0126   34.2741   50.2843 H   0  0  0  0  0  0  0  0  0  0  0  0
   63.3960   32.8800   49.3510 C   0  0  0  0  0  0  0  0  0  0  0  0
   62.4180   32.4170   48.3480 C   0  0  0  0  0  0  0  0  0  0  0  0
   62.4280   31.1930   47.7810 N   0  0  0  0  0  0  0  0  0  0  0  0
   61.4010   31.1790   46.9490 N   0  0  0  0  0  0  0  0  0  0  0  0
   61.1490   30.3650   46.3470 H   0  0  0  0  0  0  0  0  0  0  0  0
   60.7980   32.3810   47.0250 C   0  0  0  0  0  0  0  0  0  0  0  0
   59.6070   32.8050   46.2540 C   0  0  0  0  0  0  0  0  0  0  0  0
   59.4990   34.1380   45.8260 C   0  0  0  0  0  0  0  0  0  0  0  0
   60.2974   34.8554   46.0666 H   0  0  0  0  0  0  0  0  0  0  0  0
   58.3850   34.5590   45.0970 C   0  0  0  0  0  0  0  0  0  0  0  0
   58.3051   35.6077   44.7747 H   0  0  0  0  0  0  0  0  0  0  0  0
   57.3730   33.6540   44.7760 C   0  0  0  0  0  0  0  0  0  0  0  0
   56.4956   33.9933   44.2058 H   0  0  0  0  0  0  0  0  0  0  0  0
   57.4690   32.3170   45.1760 C   0  0  0  0  0  0  0  0  0  0  0  0
   56.4090   31.4140   44.8270 N   0  0  0  0  0  0  0  0  0  0  0  0
   56.5220   29.9920   44.6690 C   0  0  0  0  0  0  0  0  0  0  0  0
   55.5090   29.2750   44.8760 O   0  0  0  0  0  0  0  0  0  0  0  0
   57.7530   29.3580   44.2890 N   0  0  0  0  0  0  0  0  0  0  0  0
   58.7100   29.0190   45.1020 C   0  0  0  0  0  0  0  0  0  0  0  0
   59.9920   29.4200   44.9930 N   0  0  0  0  0  0  0  0  0  0  0  0
   60.6340   28.8550   45.9730 O   0  0  0  0  0  0  0  0  0  0  0  0
   59.8290   28.1120   46.7000 C   0  0  0  0  0  0  0  0  0  0  0  0
   60.2540   27.3150   47.8870 C   0  0  0  0  0  0  0  0  0  0  0  0
   59.9701   27.8473   48.8068 H   0  0  0  0  0  0  0  0  0  0  0  0
   59.7601   26.3323   47.8648 H   0  0  0  0  0  0  0  0  0  0  0  0
   61.3452   27.1776   47.8648 H   0  0  0  0  0  0  0  0  0  0  0  0
   58.5560   28.1700   46.1730 C   0  0  0  0  0  0  0  0  0  0  0  0
   57.6443   27.6633   46.5223 H   0  0  0  0  0  0  0  0  0  0  0  0
   58.5760   31.9010   45.9390 C   0  0  0  0  0  0  0  0  0  0  0  0
   58.6356   30.8608   46.2919 H   0  0  0  0  0  0  0  0  0  0  0  0
   61.4250   33.1460   47.8880 O   0  0  0  0  0  0  0  0  0  0  0  0
   64.7000   32.3550   49.3790 C   0  0  0  0  0  0  0  0  0  0  0  0
   64.9984   31.5912   48.6458 H   0  0  0  0  0  0  0  0  0  0  0  0
   65.6190   32.7990   50.3340 C   0  0  0  0  0  0  0  0  0  0  0  0
   66.6372   32.3830   50.3510 H   0  0  0  0  0  0  0  0  0  0  0  0
  1  2  1  0
  2  3  2  0
  3  4  1  0
  3  5  1  0
  5  6  1  0
  5  7  2  0
  7  8  1  0
  8  9  2  0
  9 10  1  0
 10 11  1  0
 10 12  2  0
 12 13  1  0
 13 14  2  0
 14 15  1  0
 14 16  1  0
 16 17  1  0
 16 18  2  0
 18 19  1  0
 18 20  1  0
 20 21  1  0
 21 22  1  0
 22 23  2  0
 22 24  1  0
 24 25  2  0
 25 26  1  0
 26 27  1  0
 27 28  1  0
 28 29  1  0
 29 30  1  0
 29 31  1  0
 29 32  1  0
 28 33  2  0
 33 34  1  0
 20 35  2  0
 35 36  1  0
 12 37  1  0
  7 38  1  0
 38 39  1  0
 38 40  2  0
 40 41  1  0
 40  2  1  0
 37  8  1  0
 35 13  1  0
 33 25  1  0
M  CHG  3  10   1  21  -1  26  -1
M  END
>  <UniqueID>  (10) 
9

>  <SMILES>  (10) 
Cc1c/c(=N/C(=O)[N-]c2cccc(-c3[nH+]nc(-c4ccccc4)o3)c2)[n-]o1

>  <Energy>  (10) 
119.3442823876196

>  <Genealogy>  (10) 
Cc1cc(=NC(=O)[N-]c2cccc(-c3[nH+]nc(-c4ccccc4)o3)c2)[n-]o1 (protonated)
Cc1c/c(=N/C(=O)[N-]c2cccc(-c3[nH+]nc(-c4ccccc4)o3)c2)[n-]o1 (cis-trans isomerization)
Cc1c/c(=N/C(=O)[N-]c2cccc(-c3[nH+]nc(-c4ccccc4)o3)c2)[n-]o1 (3D coordinates assigned)
Cc1c/c(=N/C(=O)[N-]c2cccc(-c3[nH+]nc(-c4ccccc4)o3)c2)[n-]o1 (optimized conformer: 119.3442823876196 kcal/mol)

>  <smiles>  (10) 
Cc1cc(=NC(=O)Nc2cccc(-c3nnc(-c4ccccc4)o3)c2)[nH]o1

>  <score_type>  (10) 
oracle

>  <origin>  (10) 
adg

>  <m_score__min__energy>  (10) 
-8.4800000000000004

>  <m_primary>  (10) 
energy

$$$$
10:0
     RDKit          3D

 35 36  0  0  0  0  0  0  0  0999 V2000
   57.0520   31.2060   43.1260 C   0  0  0  0  0  0  0  0  0  0  0  0
   57.5010   31.8500   44.3990 C   0  0  0  0  0  0  0  0  0  0  0  0
   57.4730   33.2450   44.5360 C   0  0  0  0  0  0  0  0  0  0  0  0
   57.9200   33.8230   45.7250 C   0  0  0  0  0  0  0  0  0  0  0  0
   58.3990   33.0140   46.7570 C   0  0  0  0  0  0  0  0  0  0  0  0
   58.4320   31.6220   46.5800 C   0  0  0  0  0  0  0  0  0  0  0  0
   58.9510   30.7190   47.6630 C   0  0  0  0  0  0  0  0  0  0  0  0
   60.2320   29.9730   47.2490 C   0  0  0  0  0  0  0  0  0  0  0  0
   60.0400   29.0080   46.0590 C   0  0  0  0  0  0  0  0  0  0  0  0
   59.5380   27.6050   46.4430 C   0  0  0  0  0  0  0  0  0  0  0  0
   58.0650   27.4320   46.1890 C   0  0  0  0  0  0  0  0  0  0  0  0
   57.4160   28.3940   45.7010 O   0  0  0  0  0  0  0  0  0  0  0  0
   57.3880   26.1580   46.5140 C   0  0  0  0  0  0  0  0  0  0  0  0
   58.0430   25.0720   46.9660 N   0  0  0  0  0  0  0  0  0  0  0  0
   57.0700   24.1520   47.1250 C   0  0  0  0  0  0  0  0  0  0  0  0
   57.3000   22.9860   47.5390 O   0  0  0  0  0  0  0  0  0  0  0  0
   55.8330   24.5780   46.8040 N   0  0  0  0  0  0  0  0  0  0  0  0
   56.0390   25.8490   46.4190 C   0  0  0  0  0  0  0  0  0  0  0  0
   55.0030   26.6850   46.0050 O   0  0  0  0  0  0  0  0  0  0  0  0
   57.9790   31.0820   45.4140 N   0  0  0  0  0  0  0  0  0  0  0  0
   56.4371   30.3240   43.3583 H   0  0  0  0  0  0  0  0  0  0  0  0
   56.4576   31.9238   42.5417 H   0  0  0  0  0  0  0  0  0  0  0  0
   57.9311   30.8965   42.5417 H   0  0  0  0  0  0  0  0  0  0  0  0
   57.1028   33.8770   43.7153 H   0  0  0  0  0  0  0  0  0  0  0  0
   57.8949   34.9157   45.8490 H   0  0  0  0  0  0  0  0  0  0  0  0
   58.7469   33.4628   47.6991 H   0  0  0  0  0  0  0  0  0  0  0  0
   59.1695   31.3266   48.5536 H   0  0  0  0  0  0  0  0  0  0  0  0
   58.1771   29.9642   47.8664 H   0  0  0  0  0  0  0  0  0  0  0  0
   60.9917   30.7183   46.9709 H   0  0  0  0  0  0  0  0  0  0  0  0
   60.5356   29.3598   48.1103 H   0  0  0  0  0  0  0  0  0  0  0  0
   59.3099   29.4561   45.3689 H   0  0  0  0  0  0  0  0  0  0  0  0
   61.0337   28.8696   45.6080 H   0  0  0  0  0  0  0  0  0  0  0  0
   60.0883   26.8589   45.8510 H   0  0  0  0  0  0  0  0  0  0  0  0
   59.7098   27.4714   47.5213 H   0  0  0  0  0  0  0  0  0  0  0  0
   55.1540   27.5060   45.4370 H   0  0  0  0  0  0  0  0  0  0  0  0
  1  2  1  0
  2  3  2  0
  3  4  1  0
  4  5  2  0
  5  6  1  0
  6  7  1  0
  7  8  1  0
  8  9  1  0
  9 10  1  0
 10 11  1  0
 11 12  2  0
 11 13  1  0
 13 14  1  0
 14 15  1  0
 15 16  2  0
 15 17  1  0
 17 18  1  0
 18 19  1  0
  6 20  2  0
 20  2  1  0
 18 13  2  0
  1 21  1  0
  1 22  1  0
  1 23  1  0
  3 24  1  0
  4 25  1  0
  5 26  1  0
  7 27  1  0
  7 28  1  0
  8 29  1  0
  8 30  1  0
  9 31  1  0
  9 32  1  0
 10 33  1  0
 10 34  1  0
 19 35  1  0
M  CHG  2  14  -1  17  -1
M  END
>  <UniqueID>  (11) 
10

>  <SMILES>  (11) 
Cc1cccc(CCCCC(=O)c2[n-]c(=O)[n-]c2O)n1

>  <Energy>  (11) 
58.726781599199235

>  <Genealogy>  (11) 
Cc1cccc(CCCCC(=O)c2[n-]c(=O)[n-]c2O)n1 (protonated)
Cc1cccc(CCCCC(=O)c2[n-]c(=O)[n-]c2O)n1 (3D coordinates assigned)
Cc1cccc(CCCCC(=O)c2[n-]c(=O)[n-]c2O)n1 (optimized conformer: 58.726781599199235 kcal/mol)

>  <smiles>  (11) 
Cc1cccc(CCCCC(=O)c2[nH]c(=O)[nH]c2O)n1

>  <score_type>  (11) 
oracle

>  <origin>  (11) 
adg

>  <m_score__min__energy>  (11) 
-11.42

>  <m_primary>  (11) 
energy

$$$$
11:0
     RDKit          3D

 48 50  0  0  0  0  0  0  0  0999 V2000
   60.1010   30.2980   49.6490 O   0  0  0  0  0  0  0  0  0  0  0  0
   59.7660   30.0900   48.4520 C   0  0  0  0  0  0  0  0  0  0  0  0
   58.8300   28.9630   48.1320 C   0  0  0  0  0  0  0  0  0  0  0  0
   58.9970   28.5250   46.6720 C   0  0  0  0  0  0  0  0  0  0  0  0
   58.2870   29.4590   45.7710 N   0  0  0  0  0  0  0  0  0  0  0  0
   59.1290   29.8330   44.6180 C   0  0  0  0  0  0  0  0  0  0  0  0
   58.4960   31.0110   43.8540 C   0  0  0  0  0  0  0  0  0  0  0  0
   56.9680   31.0650   44.0240 C   0  0  0  0  0  0  0  0  0  0  0  0
   56.3760   29.6590   44.1400 C   0  0  0  0  0  0  0  0  0  0  0  0
   57.0120   28.8650   45.3030 C   0  0  0  0  0  0  0  0  0  0  0  0
   60.2900   30.9120   47.4010 N   0  0  0  0  0  0  0  0  0  0  0  0
   61.3960   31.8030   47.5980 C   0  0  0  0  0  0  0  0  0  0  0  0
   62.6700   31.4120   47.1610 C   0  0  0  0  0  0  0  0  0  0  0  0
   63.7690   32.2550   47.3450 C   0  0  0  0  0  0  0  0  0  0  0  0
   63.6060   33.4870   47.9820 C   0  0  0  0  0  0  0  0  0  0  0  0
   62.3470   33.8740   48.4480 C   0  0  0  0  0  0  0  0  0  0  0  0
   61.2400   33.0340   48.2720 C   0  0  0  0  0  0  0  0  0  0  0  0
   59.6600   33.5320   48.9750 S   0  0  0  0  0  0  0  0  0  0  0  0
   58.9140   33.8100   47.3670 C   0  0  0  0  0  0  0  0  0  0  0  0
   57.6140   33.3570   47.1130 C   0  0  0  0  0  0  0  0  0  0  0  0
   57.0280   33.5770   45.8630 C   0  0  0  0  0  0  0  0  0  0  0  0
   57.7380   34.2540   44.8670 C   0  0  0  0  0  0  0  0  0  0  0  0
   59.0350   34.7110   45.1200 C   0  0  0  0  0  0  0  0  0  0  0  0
   59.6230   34.4920   46.3690 C   0  0  0  0  0  0  0  0  0  0  0  0
   59.0493   28.1114   48.7929 H   0  0  0  0  0  0  0  0  0  0  0  0
   57.7957   29.3049   48.2850 H   0  0  0  0  0  0  0  0  0  0  0  0
   60.0667   28.5165   46.4159 H   0  0  0  0  0  0  0  0  0  0  0  0
   58.5721   27.5178   46.5499 H   0  0  0  0  0  0  0  0  0  0  0  0
   60.1262   30.1273   44.9771 H   0  0  0  0  0  0  0  0  0  0  0  0
   59.2120   28.9703   43.9406 H   0  0  0  0  0  0  0  0  0  0  0  0
   58.9271   31.9499   44.2317 H   0  0  0  0  0  0  0  0  0  0  0  0
   58.7103   30.8716   42.7841 H   0  0  0  0  0  0  0  0  0  0  0  0
   56.7279   31.6321   44.9354 H   0  0  0  0  0  0  0  0  0  0  0  0
   56.5353   31.5540   43.1387 H   0  0  0  0  0  0  0  0  0  0  0  0
   55.2931   29.7415   44.3150 H   0  0  0  0  0  0  0  0  0  0  0  0
   56.5843   29.1210   43.2034 H   0  0  0  0  0  0  0  0  0  0  0  0
   56.3035   28.8447   46.1442 H   0  0  0  0  0  0  0  0  0  0  0  0
   57.2329   27.8530   44.9329 H   0  0  0  0  0  0  0  0  0  0  0  0
   59.7720   30.9620   46.4950 H   0  0  0  0  0  0  0  0  0  0  0  0
   62.8047   30.4365   46.6708 H   0  0  0  0  0  0  0  0  0  0  0  0
   64.7631   31.9481   46.9879 H   0  0  0  0  0  0  0  0  0  0  0  0
   64.4703   34.1539   48.1171 H   0  0  0  0  0  0  0  0  0  0  0  0
   62.2246   34.8424   48.9552 H   0  0  0  0  0  0  0  0  0  0  0  0
   57.0533   32.8276   47.8974 H   0  0  0  0  0  0  0  0  0  0  0  0
   56.0079   33.2173   45.6630 H   0  0  0  0  0  0  0  0  0  0  0  0
   57.2761   34.4272   43.8838 H   0  0  0  0  0  0  0  0  0  0  0  0
   59.5930   35.2432   44.3356 H   0  0  0  0  0  0  0  0  0  0  0  0
   60.6421   34.8549   46.5685 H   0  0  0  0  0  0  0  0  0  0  0  0
  1  2  2  0
  2  3  1  0
  3  4  1  0
  4  5  1  0
  5  6  1  0
  6  7  1  0
  7  8  1  0
  8  9  1  0
  9 10  1  0
  2 11  1  0
 11 12  1  0
 12 13  2  0
 13 14  1  0
 14 15  2  0
 15 16  1  0
 16 17  2  0
 17 18  1  0
 18 19  1  0
 19 20  2  0
 20 21  1  0
 21 22  2  0
 22 23  1  0
 23 24  2  0
 10  5  1  0
 17 12  1  0
 24 19  1  0
  3 25  1  0
  3 26  1  0
  4 27  1  0
  4 28  1  0
  6 29  1  0
  6 30  1  0
  7 31  1  0
  7 32  1  0
  8 33  1  0
  8 34  1  0
  9 35  1  0
  9 36  1  0
 10 37  1  0
 10 38  1  0
 11 39  1  0
 13 40  1  0
 14 41  1  0
 15 42  1  0
 16 43  1  0
 20 44  1  0
 21 45  1  0
 22 46  1  0
 23 47  1  0
 24 48  1  0
M  END
>  <UniqueID>  (12) 
11

>  <SMILES>  (12) 
O=C(CCN1CCCCC1)Nc1ccccc1Sc1ccccc1

>  <Energy>  (12) 
51.35099171188004

>  <Genealogy>  (12) 
O=C(CCN1CCCCC1)Nc1ccccc1Sc1ccccc1 (3D coordinates assigned)
O=C(CCN1CCCCC1)Nc1ccccc1Sc1ccccc1 (nonaromatic ring conformer: 51.35099171188004 kcal/mol)

>  <smiles>  (12) 
O=C(CCN1CCCCC1)Nc1ccccc1Sc1ccccc1

>  <score_type>  (12) 
oracle

>  <origin>  (12) 
adg

>  <m_score__min__energy>  (12) 
-8.1799999999999997

>  <m_primary>  (12) 
energy

$$$$
12:0
     RDKit          3D

 51 54  0  0  0  0  0  0  0  0999 V2000
   55.8070   27.5230   45.5820 O   0  0  0  0  0  0  0  0  0  0  0  0
   56.4660   28.5440   45.2540 C   0  0  0  0  0  0  0  0  0  0  0  0
   55.7590   29.6970   44.7800 N   0  0  0  0  0  0  0  0  0  0  0  0
   56.3410   30.7650   43.9770 C   0  0  0  0  0  0  0  0  0  0  0  0
   57.1910   31.6380   44.8530 C   0  0  0  0  0  0  0  0  0  0  0  0
   56.6520   32.7950   45.4350 C   0  0  0  0  0  0  0  0  0  0  0  0
   57.4530   33.6270   46.2220 C   0  0  0  0  0  0  0  0  0  0  0  0
   58.8050   33.3170   46.4400 C   0  0  0  0  0  0  0  0  0  0  0  0
   59.6510   34.2090   47.2650 C   0  0  0  0  0  0  0  0  0  0  0  0
   59.5910   35.4550   47.0800 O   0  0  0  0  0  0  0  0  0  0  0  0
   60.5490   33.6910   48.2650 N   0  0  0  0  0  0  0  0  0  0  0  0
   61.7840   34.4040   48.6230 C   0  0  0  0  0  0  0  0  0  0  0  0
   63.0180   33.7900   47.9480 C   0  0  0  0  0  0  0  0  0  0  0  0
   63.4350   32.4780   48.6260 C   0  0  0  0  0  0  0  0  0  0  0  0
   62.4490   31.3240   48.3580 C   0  0  0  0  0  0  0  0  0  0  0  0
   61.0890   31.3830   49.0400 C   0  0  0  0  0  0  0  0  0  0  0  0
   60.6680   30.2260   49.7250 C   0  0  0  0  0  0  0  0  0  0  0  0
   59.4080   30.1650   50.3230 C   0  0  0  0  0  0  0  0  0  0  0  0
   58.5390   31.2500   50.2360 C   0  0  0  0  0  0  0  0  0  0  0  0
   58.9280   32.4000   49.5500 C   0  0  0  0  0  0  0  0  0  0  0  0
   60.1950   32.4820   48.9520 C   0  0  0  0  0  0  0  0  0  0  0  0
   59.3500   32.1750   45.8290 C   0  0  0  0  0  0  0  0  0  0  0  0
   58.5500   31.3440   45.0410 C   0  0  0  0  0  0  0  0  0  0  0  0
   57.9310   28.5260   45.4180 C   0  0  0  0  0  0  0  0  0  0  0  0
   58.7830   28.2350   44.3420 C   0  0  0  0  0  0  0  0  0  0  0  0
   60.1640   28.2060   44.5490 C   0  0  0  0  0  0  0  0  0  0  0  0
   60.6810   28.4480   45.8220 C   0  0  0  0  0  0  0  0  0  0  0  0
   59.8030   28.7070   46.8760 C   0  0  0  0  0  0  0  0  0  0  0  0
   58.4610   28.7340   46.6550 N   0  0  0  0  0  0  0  0  0  0  0  0
   56.9614   30.3291   43.1801 H   0  0  0  0  0  0  0  0  0  0  0  0
   55.5378   31.3664   43.5263 H   0  0  0  0  0  0  0  0  0  0  0  0
   55.5942   33.0485   45.2712 H   0  0  0  0  0  0  0  0  0  0  0  0
   57.0209   34.5319   46.6742 H   0  0  0  0  0  0  0  0  0  0  0  0
   61.6922   35.4539   48.3078 H   0  0  0  0  0  0  0  0  0  0  0  0
   61.9181   34.3261   49.7120 H   0  0  0  0  0  0  0  0  0  0  0  0
   62.7847   33.5884   46.8921 H   0  0  0  0  0  0  0  0  0  0  0  0
   63.8505   34.5037   48.0355 H   0  0  0  0  0  0  0  0  0  0  0  0
   64.4263   32.1874   48.2481 H   0  0  0  0  0  0  0  0  0  0  0  0
   63.4466   32.6567   49.7113 H   0  0  0  0  0  0  0  0  0  0  0  0
   62.2713   31.2889   47.2730 H   0  0  0  0  0  0  0  0  0  0  0  0
   62.9368   30.4360   48.7864 H   0  0  0  0  0  0  0  0  0  0  0  0
   61.3415   29.3587   49.7895 H   0  0  0  0  0  0  0  0  0  0  0  0
   59.1008   29.2579   50.8642 H   0  0  0  0  0  0  0  0  0  0  0  0
   57.5467   31.1998   50.7080 H   0  0  0  0  0  0  0  0  0  0  0  0
   58.2351   33.2512   49.4768 H   0  0  0  0  0  0  0  0  0  0  0  0
   60.4136   31.9338   45.9721 H   0  0  0  0  0  0  0  0  0  0  0  0
   58.9880   30.4542   44.5652 H   0  0  0  0  0  0  0  0  0  0  0  0
   58.3671   28.0315   43.3442 H   0  0  0  0  0  0  0  0  0  0  0  0
   60.8426   27.9928   43.7100 H   0  0  0  0  0  0  0  0  0  0  0  0
   61.7675   28.4349   45.9932 H   0  0  0  0  0  0  0  0  0  0  0  0
   60.1969   28.8895   47.8867 H   0  0  0  0  0  0  0  0  0  0  0  0
  1  2  2  0
  2  3  1  0
  3  4  1  0
  4  5  1  0
  5  6  2  0
  6  7  1  0
  7  8  2  0
  8  9  1  0
  9 10  2  0
  9 11  1  0
 11 12  1  0
 12 13  1  0
 13 14  1  0
 14 15  1  0
 15 16  1  0
 16 17  2  0
 17 18  1  0
 18 19  2  0
 19 20  1  0
 20 21  2  0
  8 22  1  0
 22 23  2  0
  2 24  1  0
 24 25  2  0
 25 26  1  0
 26 27  2  0
 27 28  1  0
 28 29  2  0
 23  5  1  0
 29 24  1  0
 21 11  1  0
 21 16  1  0
  4 30  1  0
  4 31  1  0
  6 32  1  0
  7 33  1  0
 12 34  1  0
 12 35  1  0
 13 36  1  0
 13 37  1  0
 14 38  1  0
 14 39  1  0
 15 40  1  0
 15 41  1  0
 17 42  1  0
 18 43  1  0
 19 44  1  0
 20 45  1  0
 22 46  1  0
 23 47  1  0
 25 48  1  0
 26 49  1  0
 27 50  1  0
 28 51  1  0
M  CHG  1   3  -1
M  END
>  <UniqueID>  (13) 
12

>  <SMILES>  (13) 
O=C([N-]Cc1ccc(C(=O)N2CCCCc3ccccc32)cc1)c1ccccn1

>  <Energy>  (13) 
76.83665602758988

>  <Genealogy>  (13) 
O=C([N-]Cc1ccc(C(=O)N2CCCCc3ccccc32)cc1)c1ccccn1 (protonated)
O=C([N-]Cc1ccc(C(=O)N2CCCCc3ccccc32)cc1)c1ccccn1 (3D coordinates assigned)
O=C([N-]Cc1ccc(C(=O)N2CCCCc3ccccc32)cc1)c1ccccn1 (nonaromatic ring conformer: 76.83665602758988 kcal/mol)

>  <smiles>  (13) 
O=C(NCc1ccc(C(=O)N2CCCCc3ccccc32)cc1)c1ccccn1

>  <score_type>  (13) 
oracle

>  <origin>  (13) 
adg

>  <m_score__min__energy>  (13) 
-9

>  <m_primary>  (13) 
energy

$$$$
13:0
     RDKit          3D

 59 62  0  0  0  0  0  0  0  0999 V2000
   55.8850   28.1660   45.2450 O   0  0  0  0  0  0  0  0  0  0  0  0
   56.9360   27.6990   45.7570 C   0  0  0  0  0  0  0  0  0  0  0  0
   56.9190   26.3590   46.2600 N   0  0  0  0  0  0  0  0  0  0  0  0
   56.2620   25.2420   45.6450 C   0  0  0  0  0  0  0  0  0  0  0  0
   56.9840   24.1140   45.2170 C   0  0  0  0  0  0  0  0  0  0  0  0
   56.3190   23.0150   44.6540 C   0  0  0  0  0  0  0  0  0  0  0  0
   57.2360   21.6080   44.1170 S   0  0  0  0  0  0  0  0  0  0  0  0
   56.6390   21.0890   42.8380 O   0  0  0  0  0  0  0  0  0  0  0  0
   58.6470   22.0360   43.8220 O   0  0  0  0  0  0  0  0  0  0  0  0
   57.2600   20.3220   45.3070 N   0  0  0  0  0  0  0  0  0  0  0  0
   56.2070   19.3170   45.0720 C   0  0  0  0  0  0  0  0  0  0  0  0
   54.8300   19.7380   45.6380 C   0  0  0  0  0  0  0  0  0  0  0  0
   54.8890   20.8890   46.4580 O   0  0  0  0  0  0  0  0  0  0  0  0
   55.9300   20.7520   47.3960 C   0  0  0  0  0  0  0  0  0  0  0  0
   57.2970   20.8250   46.6960 C   0  0  0  0  0  0  0  0  0  0  0  0
   54.9230   23.0440   44.5250 C   0  0  0  0  0  0  0  0  0  0  0  0
   54.1990   24.1490   44.9750 C   0  0  0  0  0  0  0  0  0  0  0  0
   54.8630   25.2430   45.5420 C   0  0  0  0  0  0  0  0  0  0  0  0
   54.1280   26.3330   45.9930 O   0  0  0  0  0  0  0  0  0  0  0  0
   58.1380   28.4890   45.8070 N   0  0  0  0  0  0  0  0  0  0  0  0
   58.2060   29.8770   45.4410 C   0  0  0  0  0  0  0  0  0  0  0  0
   57.7400   30.2760   44.1800 C   0  0  0  0  0  0  0  0  0  0  0  0
   57.7740   31.6210   43.8070 C   0  0  0  0  0  0  0  0  0  0  0  0
   58.2580   32.5830   44.6960 C   0  0  0  0  0  0  0  0  0  0  0  0
   58.7020   32.2040   45.9700 C   0  0  0  0  0  0  0  0  0  0  0  0
   59.2840   33.4250   47.1050 S   0  0  0  0  0  0  0  0  0  0  0  0
   59.0830   34.7900   46.5080 O   0  0  0  0  0  0  0  0  0  0  0  0
   58.4730   33.3480   48.3680 O   0  0  0  0  0  0  0  0  0  0  0  0
   60.9720   33.2050   47.4900 N   0  0  0  0  0  0  0  0  0  0  0  0
   61.8220   33.7430   46.4190 C   0  0  0  0  0  0  0  0  0  0  0  0
   63.3090   33.5210   46.7650 C   0  0  0  0  0  0  0  0  0  0  0  0
   63.4860   33.0210   48.0790 O   0  0  0  0  0  0  0  0  0  0  0  0
   62.8240   33.8600   49.0060 C   0  0  0  0  0  0  0  0  0  0  0  0
   61.2990   33.8530   48.7720 C   0  0  0  0  0  0  0  0  0  0  0  0
   58.6710   30.8520   46.3420 C   0  0  0  0  0  0  0  0  0  0  0  0
   58.0785   24.0933   45.3245 H   0  0  0  0  0  0  0  0  0  0  0  0
   56.1072   19.1613   43.9877 H   0  0  0  0  0  0  0  0  0  0  0  0
   56.5090   18.3969   45.5937 H   0  0  0  0  0  0  0  0  0  0  0  0
   54.1545   19.9446   44.7947 H   0  0  0  0  0  0  0  0  0  0  0  0
   54.4693   18.9097   46.2656 H   0  0  0  0  0  0  0  0  0  0  0  0
   55.8588   21.5619   48.1370 H   0  0  0  0  0  0  0  0  0  0  0  0
   55.8358   19.7750   47.8926 H   0  0  0  0  0  0  0  0  0  0  0  0
   57.6278   21.8740   46.6806 H   0  0  0  0  0  0  0  0  0  0  0  0
   57.9911   20.1848   47.2603 H   0  0  0  0  0  0  0  0  0  0  0  0
   54.3969   22.1931   44.0677 H   0  0  0  0  0  0  0  0  0  0  0  0
   53.1028   24.1602   44.8838 H   0  0  0  0  0  0  0  0  0  0  0  0
   58.9970   28.0620   46.2210 H   0  0  0  0  0  0  0  0  0  0  0  0
   57.3452   29.5246   43.4803 H   0  0  0  0  0  0  0  0  0  0  0  0
   57.4188   31.9235   42.8108 H   0  0  0  0  0  0  0  0  0  0  0  0
   58.2908   33.6407   44.3956 H   0  0  0  0  0  0  0  0  0  0  0  0
   61.5870   33.2299   45.4748 H   0  0  0  0  0  0  0  0  0  0  0  0
   61.6323   34.8215   46.3143 H   0  0  0  0  0  0  0  0  0  0  0  0
   63.7344   32.7998   46.0517 H   0  0  0  0  0  0  0  0  0  0  0  0
   63.8180   34.4942   46.7036 H   0  0  0  0  0  0  0  0  0  0  0  0
   63.0325   33.5036   50.0256 H   0  0  0  0  0  0  0  0  0  0  0  0
   63.1930   34.8876   48.8722 H   0  0  0  0  0  0  0  0  0  0  0  0
   60.8107   33.3026   49.5897 H   0  0  0  0  0  0  0  0  0  0  0  0
   60.9406   34.8926   48.7444 H   0  0  0  0  0  0  0  0  0  0  0  0
   59.0122   30.5525   47.3439 H   0  0  0  0  0  0  0  0  0  0  0  0
  1  2  2  0
  2  3  1  0
  3  4  1  0
  4  5  2  0
  5  6  1  0
  6  7  1  0
  7  8  2  0
  7  9  2  0
  7 10  1  0
 10 11  1  0
 11 12  1  0
 12 13  1  0
 13 14  1  0
 14 15  1  0
  6 16  2  0
 16 17  1  0
 17 18  2  0
 18 19  1  0
  2 20  1  0
 20 21  1  0
 21 22  2  0
 22 23  1  0
 23 24  2  0
 24 25  1  0
 25 26  1  0
 26 27  2  0
 26 28  2  0
 26 29  1  0
 29 30  1  0
 30 31  1  0
 31 32  1  0
 32 33  1  0
 33 34  1  0
 25 35  2  0
 18  4  1  0
 35 21  1  0
 15 10  1  0
 34 29  1  0
  5 36  1  0
 11 37  1  0
 11 38  1  0
 12 39  1  0
 12 40  1  0
 14 41  1  0
 14 42  1  0
 15 43  1  0
 15 44  1  0
 16 45  1  0
 17 46  1  0
 20 47  1  0
 22 48  1  0
 23 49  1  0
 24 50  1  0
 30 51  1  0
 30 52  1  0
 31 53  1  0
 31 54  1  0
 33 55  1  0
 33 56  1  0
 34 57  1  0
 34 58  1  0
 35 59  1  0
M  CHG  2   3  -1  19  -1
M  END
>  <UniqueID>  (14) 
13

>  <SMILES>  (14) 
O=C([N-]c1cc(S(=O)(=O)N2CCOCC2)ccc1[O-])Nc1cccc(S(=O)(=O)N2CCOCC2)c1

>  <Energy>  (14) 
86.83514786983234

>  <Genealogy>  (14) 
O=C([N-]c1cc(S(=O)(=O)N2CCOCC2)ccc1[O-])Nc1cccc(S(=O)(=O)N2CCOCC2)c1 (protonated)
O=C([N-]c1cc(S(=O)(=O)N2CCOCC2)ccc1[O-])Nc1cccc(S(=O)(=O)N2CCOCC2)c1 (3D coordinates assigned)
O=C([N-]c1cc(S(=O)(=O)N2CCOCC2)ccc1[O-])Nc1cccc(S(=O)(=O)N2CCOCC2)c1 (nonaromatic ring conformer: 86.83514786983234 kcal/mol)

>  <smiles>  (14) 
O=C(Nc1cccc(S(=O)(=O)N2CCOCC2)c1)Nc1cc(S(=O)(=O)N2CCOCC2)ccc1O

>  <score_type>  (14) 
oracle

>  <origin>  (14) 
adg

>  <m_score__min__energy>  (14) 
-15.67

>  <m_primary>  (14) 
energy

$$$$
14:0
     RDKit          3D

 58 61  0  0  0  0  0  0  0  0999 V2000
   55.1440   30.3070   44.7100 O   0  0  0  0  0  0  0  0  0  0  0  0
   56.1280   29.5600   44.4750 C   0  0  0  0  0  0  0  0  0  0  0  0
   56.9790   29.8290   43.2520 C   0  0  0  0  0  0  0  0  0  0  0  0
   58.1350   30.8240   43.5210 C   0  0  0  0  0  0  0  0  0  0  0  0
   57.7950   31.8480   44.5460 N   0  0  0  0  0  0  0  0  0  0  0  0
   57.4010   33.1060   43.8740 C   0  0  0  0  0  0  0  0  0  0  0  0
   57.2410   34.2500   44.9030 C   0  0  0  0  0  0  0  0  0  0  0  0
   58.3260   34.4150   45.8170 O   0  0  0  0  0  0  0  0  0  0  0  0
   59.3940   33.5170   45.5780 C   0  0  0  0  0  0  0  0  0  0  0  0
   58.9090   32.0580   45.5150 C   0  0  0  0  0  0  0  0  0  0  0  0
   56.2690   28.3630   45.2550 N   0  0  0  0  0  0  0  0  0  0  0  0
   57.3800   27.9680   46.0700 C   0  0  0  0  0  0  0  0  0  0  0  0
   57.5030   26.6230   46.4460 C   0  0  0  0  0  0  0  0  0  0  0  0
   58.5540   26.2130   47.2730 C   0  0  0  0  0  0  0  0  0  0  0  0
   59.4900   27.1430   47.7320 C   0  0  0  0  0  0  0  0  0  0  0  0
   59.3720   28.4890   47.3610 C   0  0  0  0  0  0  0  0  0  0  0  0
   60.6190   29.6890   47.8380 S   0  0  0  0  0  0  0  0  0  0  0  0
   59.7580   30.1460   49.3580 C   0  0  0  0  0  0  0  0  0  0  0  0
   59.6900   29.1810   50.3720 C   0  0  0  0  0  0  0  0  0  0  0  0
   58.8230   29.3330   51.4480 C   0  0  0  0  0  0  0  0  0  0  0  0
   58.0260   30.4730   51.5160 C   0  0  0  0  0  0  0  0  0  0  0  0
   58.1250   31.4360   50.5590 N   0  0  0  0  0  0  0  0  0  0  0  0
   58.9750   31.3390   49.5010 C   0  0  0  0  0  0  0  0  0  0  0  0
   59.0190   32.3570   48.6800 N   0  0  0  0  0  0  0  0  0  0  0  0
   60.0510   33.3370   48.5050 C   0  0  0  0  0  0  0  0  0  0  0  0
   59.5990   34.9160   48.4610 S   0  0  0  0  0  0  0  0  0  0  0  0
   61.4880   32.9670   48.6520 C   0  0  0  0  0  0  0  0  0  0  0  0
   62.0590   32.7740   49.9290 C   0  0  0  0  0  0  0  0  0  0  0  0
   63.4200   32.4610   50.0610 C   0  0  0  0  0  0  0  0  0  0  0  0
   64.2240   32.3330   48.9250 C   0  0  0  0  0  0  0  0  0  0  0  0
   63.6680   32.5210   47.6550 C   0  0  0  0  0  0  0  0  0  0  0  0
   62.3080   32.8360   47.5160 C   0  0  0  0  0  0  0  0  0  0  0  0
   58.2970   28.9020   46.5690 C   0  0  0  0  0  0  0  0  0  0  0  0
   57.4098   28.8767   42.9093 H   0  0  0  0  0  0  0  0  0  0  0  0
   56.3260   30.2836   42.4925 H   0  0  0  0  0  0  0  0  0  0  0  0
   59.0112   30.2573   43.8690 H   0  0  0  0  0  0  0  0  0  0  0  0
   58.3369   31.3557   42.5794 H   0  0  0  0  0  0  0  0  0  0  0  0
   56.9540   31.5150   45.0760 H   0  0  0  0  0  0  0  0  0  0  0  0
   58.1757   33.3831   43.1439 H   0  0  0  0  0  0  0  0  0  0  0  0
   56.4372   32.9491   43.3676 H   0  0  0  0  0  0  0  0  0  0  0  0
   57.1213   35.1913   44.3465 H   0  0  0  0  0  0  0  0  0  0  0  0
   56.3687   33.9820   45.5172 H   0  0  0  0  0  0  0  0  0  0  0  0
   59.8698   33.7760   44.6206 H   0  0  0  0  0  0  0  0  0  0  0  0
   60.1080   33.6049   46.4101 H   0  0  0  0  0  0  0  0  0  0  0  0
   59.7552   31.4213   45.2175 H   0  0  0  0  0  0  0  0  0  0  0  0
   58.5260   31.7986   46.5130 H   0  0  0  0  0  0  0  0  0  0  0  0
   56.7688   25.8859   46.0886 H   0  0  0  0  0  0  0  0  0  0  0  0
   58.6437   25.1556   47.5627 H   0  0  0  0  0  0  0  0  0  0  0  0
   60.3164   26.8198   48.3821 H   0  0  0  0  0  0  0  0  0  0  0  0
   60.3324   28.2898   50.3156 H   0  0  0  0  0  0  0  0  0  0  0  0
   58.7674   28.5649   52.2334 H   0  0  0  0  0  0  0  0  0  0  0  0
   57.3142   30.5957   52.3457 H   0  0  0  0  0  0  0  0  0  0  0  0
   61.4315   32.8699   50.8274 H   0  0  0  0  0  0  0  0  0  0  0  0
   63.8554   32.3160   51.0607 H   0  0  0  0  0  0  0  0  0  0  0  0
   65.2907   32.0852   49.0291 H   0  0  0  0  0  0  0  0  0  0  0  0
   64.3006   32.4213   46.7607 H   0  0  0  0  0  0  0  0  0  0  0  0
   61.8802   32.9814   46.5131 H   0  0  0  0  0  0  0  0  0  0  0  0
   58.1700   29.9694   46.3356 H   0  0  0  0  0  0  0  0  0  0  0  0
  1  2  2  0
  2  3  1  0
  3  4  1  0
  4  5  1  0
  5  6  1  0
  6  7  1  0
  7  8  1  0
  8  9  1  0
  9 10  1  0
  2 11  1  0
 11 12  1  0
 12 13  2  0
 13 14  1  0
 14 15  2  0
 15 16  1  0
 16 17  1  0
 17 18  1  0
 18 19  2  0
 19 20  1  0
 20 21  2  0
 21 22  1  0
 22 23  1  0
 23 24  2  3
 24 25  1  0
 25 26  2  0
 25 27  1  0
 27 28  2  0
 28 29  1  0
 29 30  2  0
 30 31  1  0
 31 32  2  0
 16 33  2  0
 10  5  1  0
 33 12  1  0
 23 18  1  0
 32 27  1  0
  3 34  1  0
  3 35  1  0
  4 36  1  0
  4 37  1  0
  5 38  1  0
  6 39  1  0
  6 40  1  0
  7 41  1  0
  7 42  1  0
  9 43  1  0
  9 44  1  0
 10 45  1  0
 10 46  1  0
 13 47  1  0
 14 48  1  0
 15 49  1  0
 19 50  1  0
 20 51  1  0
 21 52  1  0
 28 53  1  0
 29 54  1  0
 30 55  1  0
 31 56  1  0
 32 57  1  0
 33 58  1  0
M  CHG  3   5   1  11  -1  22  -1
M  END
>  <UniqueID>  (15) 
14

>  <SMILES>  (15) 
O=C(CC[NH+]1CCOCC1)[N-]c1cccc(Sc2ccc[n-]c2=NC(=S)c2ccccc2)c1

>  <Energy>  (15) 
95.7280743737921

>  <Genealogy>  (15) 
O=C(CC[NH+]1CCOCC1)[N-]c1cccc(Sc2ccc[n-]c2=NC(=S)c2ccccc2)c1 (protonated)
O=C(CC[NH+]1CCOCC1)[N-]c1cccc(Sc2ccc[n-]c2=NC(=S)c2ccccc2)c1 (3D coordinates assigned)
O=C(CC[NH+]1CCOCC1)[N-]c1cccc(Sc2ccc[n-]c2=NC(=S)c2ccccc2)c1 (nonaromatic ring conformer: 95.7280743737921 kcal/mol)

>  <smiles>  (15) 
O=C(CCN1CCOCC1)Nc1cccc(Sc2ccc[nH]c2=NC(=S)c2ccccc2)c1

>  <score_type>  (15) 
oracle

>  <origin>  (15) 
adg

>  <m_score__min__energy>  (15) 
-11.51

>  <m_primary>  (15) 
energy

$$$$
15:0
     RDKit          3D

 49 52  0  0  0  0  0  0  0  0999 V2000
   57.9020   32.3190   41.9220 C   0  0  0  0  0  0  0  0  0  0  0  0
   57.4220   32.7030   43.2060 O   0  0  0  0  0  0  0  0  0  0  0  0
   58.2380   32.9750   44.3150 C   0  0  0  0  0  0  0  0  0  0  0  0
   58.8330   34.2370   44.5050 C   0  0  0  0  0  0  0  0  0  0  0  0
   59.6430   34.4780   45.6180 C   0  0  0  0  0  0  0  0  0  0  0  0
   59.8930   33.4630   46.5510 C   0  0  0  0  0  0  0  0  0  0  0  0
   60.7290   33.7600   47.7360 C   0  0  0  0  0  0  0  0  0  0  0  0
   60.2880   34.4370   48.7730 O   0  0  0  0  0  0  0  0  0  0  0  0
   61.2010   34.5590   49.6930 N   0  0  0  0  0  0  0  0  0  0  0  0
   62.3020   33.9320   49.2400 C   0  0  0  0  0  0  0  0  0  0  0  0
   63.5900   33.8630   49.9940 C   0  0  0  0  0  0  0  0  0  0  0  0
   62.0550   33.4210   47.9790 C   0  0  0  0  0  0  0  0  0  0  0  0
   63.0230   32.6870   47.0990 C   0  0  0  0  0  0  0  0  0  0  0  0
   59.2910   32.2080   46.3680 C   0  0  0  0  0  0  0  0  0  0  0  0
   58.4650   31.9600   45.2630 C   0  0  0  0  0  0  0  0  0  0  0  0
   57.7150   30.3720   45.0580 S   0  0  0  0  0  0  0  0  0  0  0  0
   56.3030   30.5230   44.5620 O   0  0  0  0  0  0  0  0  0  0  0  0
   58.5080   29.5930   44.0490 O   0  0  0  0  0  0  0  0  0  0  0  0
   57.6980   29.4840   46.5490 N   0  0  0  0  0  0  0  0  0  0  0  0
   57.8500   28.0620   46.6800 C   0  0  0  0  0  0  0  0  0  0  0  0
   58.8830   27.4980   47.4480 C   0  0  0  0  0  0  0  0  0  0  0  0
   59.0070   26.1140   47.5500 C   0  0  0  0  0  0  0  0  0  0  0  0
   58.1170   25.2780   46.8770 C   0  0  0  0  0  0  0  0  0  0  0  0
   57.0880   25.8160   46.0870 C   0  0  0  0  0  0  0  0  0  0  0  0
   56.2190   24.8970   45.3210 C   0  0  0  0  0  0  0  0  0  0  0  0
   56.6040   24.3080   44.1140 C   0  0  0  0  0  0  0  0  0  0  0  0
   55.3190   23.3800   43.5450 S   0  0  0  0  0  0  0  0  0  0  0  0
   54.3380   23.7800   44.8450 C   0  0  0  0  0  0  0  0  0  0  0  0
   53.1610   23.3660   45.0010 O   0  0  0  0  0  0  0  0  0  0  0  0
   54.9500   24.6050   45.7180 N   0  0  0  0  0  0  0  0  0  0  0  0
   56.9410   27.2240   46.0110 C   0  0  0  0  0  0  0  0  0  0  0  0
   55.8920   27.8200   45.3060 O   0  0  0  0  0  0  0  0  0  0  0  0
   58.7561   31.6357   42.0391 H   0  0  0  0  0  0  0  0  0  0  0  0
   57.0993   31.8109   41.3674 H   0  0  0  0  0  0  0  0  0  0  0  0
   58.2215   33.2136   41.3674 H   0  0  0  0  0  0  0  0  0  0  0  0
   58.6590   35.0387   43.7722 H   0  0  0  0  0  0  0  0  0  0  0  0
   60.0883   35.4734   45.7629 H   0  0  0  0  0  0  0  0  0  0  0  0
   63.3835   33.8741   51.0744 H   0  0  0  0  0  0  0  0  0  0  0  0
   64.1194   32.9352   49.7314 H   0  0  0  0  0  0  0  0  0  0  0  0
   64.2155   34.7289   49.7314 H   0  0  0  0  0  0  0  0  0  0  0  0
   63.7444   32.1400   47.7238 H   0  0  0  0  0  0  0  0  0  0  0  0
   62.4746   31.9757   46.4640 H   0  0  0  0  0  0  0  0  0  0  0  0
   63.5599   33.4071   46.4640 H   0  0  0  0  0  0  0  0  0  0  0  0
   59.4700   31.4083   47.1018 H   0  0  0  0  0  0  0  0  0  0  0  0
   59.5966   28.1519   47.9707 H   0  0  0  0  0  0  0  0  0  0  0  0
   59.8099   25.6794   48.1636 H   0  0  0  0  0  0  0  0  0  0  0  0
   58.2218   24.1866   46.9656 H   0  0  0  0  0  0  0  0  0  0  0  0
   57.5793   24.4296   43.6200 H   0  0  0  0  0  0  0  0  0  0  0  0
   56.0270   28.3810   44.4760 H   0  0  0  0  0  0  0  0  0  0  0  0
  1  2  1  0
  2  3  1  0
  3  4  2  0
  4  5  1  0
  5  6  2  0
  6  7  1  0
  7  8  1  0
  8  9  1  0
  9 10  2  0
 10 11  1  0
 10 12  1  0
 12 13  1  0
  6 14  1  0
 14 15  2  0
 15 16  1  0
 16 17  2  0
 16 18  2  0
 16 19  1  0
 19 20  1  0
 20 21  2  0
 21 22  1  0
 22 23  2  0
 23 24  1  0
 24 25  1  0
 25 26  2  0
 26 27  1  0
 27 28  1  0
 28 29  2  0
 28 30  1  0
 24 31  2  0
 31 32  1  0
 15  3  1  0
 31 20  1  0
 12  7  2  0
 30 25  1  0
  1 33  1  0
  1 34  1  0
  1 35  1  0
  4 36  1  0
  5 37  1  0
 11 38  1  0
 11 39  1  0
 11 40  1  0
 13 41  1  0
 13 42  1  0
 13 43  1  0
 14 44  1  0
 21 45  1  0
 22 46  1  0
 23 47  1  0
 26 48  1  0
 32 49  1  0
M  CHG  2  19  -1  30  -1
M  END
>  <UniqueID>  (16) 
15

>  <SMILES>  (16) 
COc1ccc(-c2onc(C)c2C)cc1S(=O)(=O)[N-]c1cccc(-c2csc(=O)[n-]2)c1O

>  <Energy>  (16) 
125.53054504580729

>  <Genealogy>  (16) 
COc1ccc(-c2onc(C)c2C)cc1S(=O)(=O)[N-]c1cccc(-c2csc(=O)[n-]2)c1O (protonated)
COc1ccc(-c2onc(C)c2C)cc1S(=O)(=O)[N-]c1cccc(-c2csc(=O)[n-]2)c1O (3D coordinates assigned)
COc1ccc(-c2onc(C)c2C)cc1S(=O)(=O)[N-]c1cccc(-c2csc(=O)[n-]2)c1O (optimized conformer: 125.53054504580729 kcal/mol)

>  <smiles>  (16) 
COc1ccc(-c2onc(C)c2C)cc1S(=O)(=O)Nc1cccc(-c2csc(=O)[nH]2)c1O

>  <score_type>  (16) 
oracle

>  <origin>  (16) 
adg

>  <m_score__min__energy>  (16) 
-14.77

>  <m_primary>  (16) 
energy

$$$$
16:0
     RDKit          3D

 61 65  0  0  0  0  0  0  0  0999 V2000
   58.8310   36.0270   48.0130 H   0  0  0  0  0  0  0  0  0  0  0  0
   58.8280   34.9890   47.9080 N   0  0  0  0  0  0  0  0  0  0  0  0
   59.7920   34.2650   48.3810 C   0  0  0  0  0  0  0  0  0  0  0  0
   59.9660   34.0530   49.7110 N   0  0  0  0  0  0  0  0  0  0  0  0
   61.0520   33.2550   49.7450 C   0  0  0  0  0  0  0  0  0  0  0  0
   61.6740   32.7040   50.8740 C   0  0  0  0  0  0  0  0  0  0  0  0
   61.1420   32.9480   52.2650 C   0  0  0  0  0  0  0  0  0  0  0  0
   61.8462   32.5320   53.0005 H   0  0  0  0  0  0  0  0  0  0  0  0
   61.0303   34.0314   52.4194 H   0  0  0  0  0  0  0  0  0  0  0  0
   59.8250   32.3020   52.4330 N   0  0  0  0  0  0  0  0  0  0  0  0
   59.6320   31.2060   51.4610 C   0  0  0  0  0  0  0  0  0  0  0  0
   59.5039   31.6323   50.4551 H   0  0  0  0  0  0  0  0  0  0  0  0
   60.5143   30.5495   51.4844 H   0  0  0  0  0  0  0  0  0  0  0  0
   58.3840   30.3780   51.8240 C   0  0  0  0  0  0  0  0  0  0  0  0
   57.8885   30.0587   50.8953 H   0  0  0  0  0  0  0  0  0  0  0  0
   58.7140   29.5141   52.4197 H   0  0  0  0  0  0  0  0  0  0  0  0
   57.3750   31.1830   52.6750 C   0  0  0  0  0  0  0  0  0  0  0  0
   57.7153   31.1635   53.7209 H   0  0  0  0  0  0  0  0  0  0  0  0
   55.9980   30.5460   52.6540 C   0  0  0  0  0  0  0  0  0  0  0  0
   54.9130   31.1720   52.0040 C   0  0  0  0  0  0  0  0  0  0  0  0
   55.0577   32.1468   51.5153 H   0  0  0  0  0  0  0  0  0  0  0  0
   53.6560   30.5620   51.9770 C   0  0  0  0  0  0  0  0  0  0  0  0
   52.8160   31.0580   51.4687 H   0  0  0  0  0  0  0  0  0  0  0  0
   53.4640   29.3240   52.5940 C   0  0  0  0  0  0  0  0  0  0  0  0
   52.4731   28.8468   52.5737 H   0  0  0  0  0  0  0  0  0  0  0  0
   54.5310   28.6920   53.2370 C   0  0  0  0  0  0  0  0  0  0  0  0
   54.3794   27.7159   53.7209 H   0  0  0  0  0  0  0  0  0  0  0  0
   55.7910   29.2970   53.2670 C   0  0  0  0  0  0  0  0  0  0  0  0
   56.6268   28.7925   53.7738 H   0  0  0  0  0  0  0  0  0  0  0  0
   57.3390   32.6560   52.2270 C   0  0  0  0  0  0  0  0  0  0  0  0
   56.9806   32.7053   51.1882 H   0  0  0  0  0  0  0  0  0  0  0  0
   56.6642   33.2056   52.8998 H   0  0  0  0  0  0  0  0  0  0  0  0
   58.7410   33.3060   52.3070 C   0  0  0  0  0  0  0  0  0  0  0  0
   58.9097   33.8948   51.3933 H   0  0  0  0  0  0  0  0  0  0  0  0
   58.7654   33.9394   53.2060 H   0  0  0  0  0  0  0  0  0  0  0  0
   62.7990   31.8740   50.6560 C   0  0  0  0  0  0  0  0  0  0  0  0
   63.4630   31.2930   51.7300 O   0  0  0  0  0  0  0  0  0  0  0  0
   63.2570   31.6210   49.3430 C   0  0  0  0  0  0  0  0  0  0  0  0
   64.1335   30.9747   49.1877 H   0  0  0  0  0  0  0  0  0  0  0  0
   62.6050   32.1860   48.2340 C   0  0  0  0  0  0  0  0  0  0  0  0
   62.9524   31.9893   47.2090 H   0  0  0  0  0  0  0  0  0  0  0  0
   61.5020   33.0050   48.4770 C   0  0  0  0  0  0  0  0  0  0  0  0
   60.7130   33.6490   47.5960 N   0  0  0  0  0  0  0  0  0  0  0  0
   60.7440   33.5970   46.1330 C   0  0  0  0  0  0  0  0  0  0  0  0
   60.5944   34.6093   45.7293 H   0  0  0  0  0  0  0  0  0  0  0  0
   61.7186   33.2052   45.8063 H   0  0  0  0  0  0  0  0  0  0  0  0
   59.6540   32.6930   45.6270 C   0  0  0  0  0  0  0  0  0  0  0  0
   58.7060   33.1670   44.7030 C   0  0  0  0  0  0  0  0  0  0  0  0
   58.7784   34.1971   44.3239 H   0  0  0  0  0  0  0  0  0  0  0  0
   57.6720   32.3350   44.2640 C   0  0  0  0  0  0  0  0  0  0  0  0
   56.9426   32.7083   43.5300 H   0  0  0  0  0  0  0  0  0  0  0  0
   57.5610   31.0280   44.7550 C   0  0  0  0  0  0  0  0  0  0  0  0
   56.2630   29.9770   44.1930 S   0  0  0  0  0  0  0  0  0  0  0  0
   54.9630   30.7360   44.1700 O   0  0  0  0  0  0  0  0  0  0  0  0
   56.5650   29.4960   42.8020 O   0  0  0  0  0  0  0  0  0  0  0  0
   56.1210   28.6180   45.2510 N   0  0  0  0  0  0  0  0  0  0  0  0
   55.1490   28.6260   45.6310 H   0  0  0  0  0  0  0  0  0  0  0  0
   58.5030   30.5520   45.6790 C   0  0  0  0  0  0  0  0  0  0  0  0
   58.4241   29.5238   46.0619 H   0  0  0  0  0  0  0  0  0  0  0  0
   59.5420   31.3800   46.1150 C   0  0  0  0  0  0  0  0  0  0  0  0
   60.2748   31.0020   46.8431 H   0  0  0  0  0  0  0  0  0  0  0  0
  1  2  1  0
  2  3  2  0
  3  4  1  0
  4  5  1  0
  5  6  2  0
  6  7  1  0
  7  8  1  0
  7  9  1  0
  7 10  1  0
 10 11  1  0
 11 12  1  0
 11 13  1  0
 11 14  1  0
 14 15  1  0
 14 16  1  0
 14 17  1  0
 17 18  1  0
 17 19  1  0
 19 20  2  0
 20 21  1  0
 20 22  1  0
 22 23  1  0
 22 24  2  0
 24 25  1  0
 24 26  1  0
 26 27  1  0
 26 28  2  0
 28 29  1  0
 17 30  1  0
 30 31  1  0
 30 32  1  0
 30 33  1  0
 33 34  1  0
 33 35  1  0
  6 36  1  0
 36 37  1  0
 36 38  2  0
 38 39  1  0
 38 40  1  0
 40 41  1  0
 40 42  2  0
 42 43  1  0
 43 44  1  0
 44 45  1  0
 44 46  1  0
 44 47  1  0
 47 48  2  0
 48 49  1  0
 48 50  1  0
 50 51  1  0
 50 52  2  0
 52 53  1  0
 53 54  2  0
 53 55  2  0
 53 56  1  0
 56 57  1  0
 52 58  1  0
 58 59  1  0
 58 60  2  0
 60 61  1  0
 43  3  1  0
 60 47  1  0
 42  5  1  0
 33 10  1  0
 28 19  1  0
M  CHG  3   4  -1  37  -1  56  -1
M  END
>  <UniqueID>  (17) 
16

>  <SMILES>  (17) 
[H]/N=c1\[n-]c2c(CN3CCC(c4ccccc4)CC3)c([O-])ccc2n1Cc1ccc(S([NH-])(=O)=O)cc1

>  <Energy>  (17) 
109.65643475198067

>  <Genealogy>  (17) 
N=c1[n-]c2c(CN3CCC(c4ccccc4)CC3)c([O-])ccc2n1Cc1ccc(S([NH-])(=O)=O)cc1 (protonated)
[H]/N=c1\[n-]c2c(CN3CCC(c4ccccc4)CC3)c([O-])ccc2n1Cc1ccc(S([NH-])(=O)=O)cc1 (cis-trans isomerization)
[H]/N=c1\[n-]c2c(CN3CCC(c4ccccc4)CC3)c([O-])ccc2n1Cc1ccc(S([NH-])(=O)=O)cc1 (3D coordinates assigned)
[H]/N=c1\[n-]c2c(CN3CCC(c4ccccc4)CC3)c([O-])ccc2n1Cc1ccc(S([NH-])(=O)=O)cc1 (nonaromatic ring conformer: 109.65643475198067 kcal/mol)

>  <smiles>  (17) 
N=c1[nH]c2c(CN3CCC(c4ccccc4)CC3)c(O)ccc2n1Cc1ccc(S(N)(=O)=O)cc1

>  <score_type>  (17) 
oracle

>  <origin>  (17) 
adg

>  <m_score__min__energy>  (17) 
-13.380000000000001

>  <m_primary>  (17) 
energy

$$$$
17:0
     RDKit          3D

 55 57  0  0  1  0  0  0  0  0999 V2000
   58.1100   33.7680   44.5220 C   0  0  0  0  0  0  0  0  0  0  0  0
   57.0580   32.9590   45.3110 C   0  0  0  0  0  0  0  0  0  0  0  0
   57.3570   31.5670   45.2440 N   0  0  0  0  0  0  0  0  0  0  0  0
   57.2440   30.9870   43.9520 C   0  0  0  0  0  0  0  0  0  0  0  0
   56.0800   29.9890   43.8670 C   0  0  0  0  0  0  0  0  0  0  0  0
   58.2440   31.0020   46.1510 C   0  0  0  0  0  0  0  0  0  0  0  0
   59.3480   31.7800   46.7530 C   0  0  0  0  0  0  0  0  0  0  0  0
   58.9970   32.6990   47.8970 C   0  0  0  0  0  0  0  0  0  0  0  0
   59.9770   33.7490   47.8890 N   0  0  0  0  0  0  0  0  0  0  0  0
   61.2160   33.5760   47.7180 C   0  0  0  0  0  0  0  0  0  0  0  0
   62.0200   33.0400   48.7040 C   0  0  0  0  0  0  0  0  0  0  0  0
   63.3550   32.8550   48.5300 C   0  0  0  0  0  0  0  0  0  0  0  0
   64.2440   32.3020   49.5450 C   0  0  0  0  0  0  0  0  0  0  0  0
   63.8580   31.3540   50.4660 C   0  0  0  0  0  0  0  0  0  0  0  0
   64.6780   30.8530   51.4080 N   0  0  0  0  0  0  0  0  0  0  0  0
   65.9490   31.3030   51.4530 C   0  0  0  0  0  0  0  0  0  0  0  0
   66.8100   30.8850   52.3270 N   0  0  0  0  0  0  0  0  0  0  0  0
   67.4330   29.5700   52.1690 C   0  0  0  0  0  0  0  0  0  0  0  0
   67.5060   28.9640   50.8120 C   0  0  0  0  0  0  0  0  0  0  0  0
   66.4410   28.5020   51.7190 C   0  0  0  0  0  0  0  0  0  0  0  0
   66.3640   32.2520   50.5450 C   0  0  0  0  0  0  0  0  0  0  0  0
   67.7750   32.7720   50.5750 C   0  0  0  0  0  0  0  0  0  0  0  0
   65.5210   32.7460   49.6000 N   0  0  0  0  0  0  0  0  0  0  0  0
   63.9140   33.2050   47.3600 N   0  0  0  0  0  0  0  0  0  0  0  0
   63.1470   33.7310   46.3790 C   0  0  0  0  0  0  0  0  0  0  0  0
   61.8190   33.9190   46.5420 N   0  0  0  0  0  0  0  0  0  0  0  0
   58.7800   34.2832   45.2261 H   0  0  0  0  0  0  0  0  0  0  0  0
   58.6973   33.0866   43.8889 H   0  0  0  0  0  0  0  0  0  0  0  0
   57.6023   34.5106   43.8889 H   0  0  0  0  0  0  0  0  0  0  0  0
   57.0647   33.2820   46.3625 H   0  0  0  0  0  0  0  0  0  0  0  0
   56.0654   33.1349   44.8709 H   0  0  0  0  0  0  0  0  0  0  0  0
   57.0787   31.7882   43.2167 H   0  0  0  0  0  0  0  0  0  0  0  0
   58.1753   30.4400   43.7435 H   0  0  0  0  0  0  0  0  0  0  0  0
   55.7585   29.7133   44.8822 H   0  0  0  0  0  0  0  0  0  0  0  0
   55.2393   30.4512   43.3290 H   0  0  0  0  0  0  0  0  0  0  0  0
   56.4085   29.0875   43.3290 H   0  0  0  0  0  0  0  0  0  0  0  0
   57.6346   30.6325   46.9889 H   0  0  0  0  0  0  0  0  0  0  0  0
   58.7854   30.2774   45.5251 H   0  0  0  0  0  0  0  0  0  0  0  0
   60.0962   31.0629   47.1216 H   0  0  0  0  0  0  0  0  0  0  0  0
   59.6978   32.4457   45.9502 H   0  0  0  0  0  0  0  0  0  0  0  0
   57.9899   33.1175   47.7536 H   0  0  0  0  0  0  0  0  0  0  0  0
   58.9977   32.1602   48.8560 H   0  0  0  0  0  0  0  0  0  0  0  0
   61.5645   32.7529   49.6632 H   0  0  0  0  0  0  0  0  0  0  0  0
   62.8221   30.9859   50.4297 H   0  0  0  0  0  0  0  0  0  0  0  0
   64.3910   30.1390   52.1020 H   0  0  0  0  0  0  0  0  0  0  0  0
   68.1768   29.7213   52.9651 H   0  0  0  0  0  0  0  0  0  0  0  0
   67.2461   29.5691   49.9309 H   0  0  0  0  0  0  0  0  0  0  0  0
   68.2984   28.4581   50.2409 H   0  0  0  0  0  0  0  0  0  0  0  0
   65.3929   28.7711   51.5212 H   0  0  0  0  0  0  0  0  0  0  0  0
   66.1149   27.5258   52.1073 H   0  0  0  0  0  0  0  0  0  0  0  0
   68.0996   32.8916   51.6192 H   0  0  0  0  0  0  0  0  0  0  0  0
   68.4393   32.0596   50.0639 H   0  0  0  0  0  0  0  0  0  0  0  0
   67.8181   33.7451   50.0639 H   0  0  0  0  0  0  0  0  0  0  0  0
   64.9330   33.0930   47.1510 H   0  0  0  0  0  0  0  0  0  0  0  0
   63.6156   34.0129   45.4246 H   0  0  0  0  0  0  0  0  0  0  0  0
  1  2  1  0
  2  3  1  0
  3  4  1  0
  4  5  1  0
  3  6  1  0
  6  7  1  0
  7  8  1  0
  8  9  1  0
  9 10  2  0
 10 11  1  0
 11 12  2  0
 12 13  1  0
 13 14  2  0
 14 15  1  0
 15 16  1  0
 16 17  2  0
 17 18  1  0
 18 19  1  0
 19 20  1  0
 16 21  1  0
 21 22  1  0
 21 23  2  0
 12 24  1  0
 24 25  1  0
 25 26  2  0
 26 10  1  0
 23 13  1  0
 20 18  1  0
  1 27  1  0
  1 28  1  0
  1 29  1  0
  2 30  1  0
  2 31  1  0
  4 32  1  0
  4 33  1  0
  5 34  1  0
  5 35  1  0
  5 36  1  0
  6 37  1  0
  6 38  1  0
  7 39  1  0
  7 40  1  0
  8 41  1  0
  8 42  1  0
 11 43  1  0
 14 44  1  0
 15 45  1  0
 18 46  1  0
 19 47  1  0
 19 48  1  0
 20 49  1  0
 20 50  1  0
 22 51  1  0
 22 52  1  0
 22 53  1  0
 24 54  1  0
 25 55  1  0
M  END
>  <smiles>  (18) 
CCN(CC)CCCN=c1cc(-c2c[nH]c(=NC3CC3)c(C)n2)[nH]cn1

>  <score_type>  (18) 
oracle

>  <origin>  (18) 
adg

>  <m_score__min__energy>  (18) 
-7.21

>  <m_primary>  (18) 
energy

$$$$
18:0
     RDKit          3D

 55 58  0  0  0  0  0  0  0  0999 V2000
   54.7650   25.9610   46.4540 H   0  0  0  0  0  0  0  0  0  0  0  0
   54.4700   25.1990   45.8570 O   0  0  0  0  0  0  0  0  0  0  0  0
   55.3940   24.3900   45.1970 C   0  0  0  0  0  0  0  0  0  0  0  0
   54.9640   23.5380   44.1680 C   0  0  0  0  0  0  0  0  0  0  0  0
   53.9015   23.5155   43.8841 H   0  0  0  0  0  0  0  0  0  0  0  0
   55.8780   22.7190   43.5030 C   0  0  0  0  0  0  0  0  0  0  0  0
   55.5349   22.0530   42.6976 H   0  0  0  0  0  0  0  0  0  0  0  0
   57.2280   22.7450   43.8600 C   0  0  0  0  0  0  0  0  0  0  0  0
   57.9472   22.0995   43.3345 H   0  0  0  0  0  0  0  0  0  0  0  0
   57.6670   23.5890   44.8830 C   0  0  0  0  0  0  0  0  0  0  0  0
   58.7304   23.6001   45.1642 H   0  0  0  0  0  0  0  0  0  0  0  0
   56.7580   24.4240   45.5550 C   0  0  0  0  0  0  0  0  0  0  0  0
   57.2540   25.3050   46.6750 C   0  0  0  0  0  0  0  0  0  0  0  0
   58.0987   24.8120   47.1785 H   0  0  0  0  0  0  0  0  0  0  0  0
   56.4357   25.4709   47.3911 H   0  0  0  0  0  0  0  0  0  0  0  0
   57.6940   26.5960   46.1440 N   0  0  0  0  0  0  0  0  0  0  0  0
   56.9270   27.6020   45.6960 C   0  0  0  0  0  0  0  0  0  0  0  0
   55.5390   27.5630   45.6180 O   0  0  0  0  0  0  0  0  0  0  0  0
   57.7310   28.6640   45.3430 C   0  0  0  0  0  0  0  0  0  0  0  0
   57.2500   29.9770   44.8630 C   0  0  0  0  0  0  0  0  0  0  0  0
   56.4338   29.9779   44.1256 H   0  0  0  0  0  0  0  0  0  0  0  0
   57.7320   31.1750   45.2570 C   0  0  0  0  0  0  0  0  0  0  0  0
   57.7420   32.3540   44.5250 C   0  0  0  0  0  0  0  0  0  0  0  0
   57.3731   32.4905   43.4977 H   0  0  0  0  0  0  0  0  0  0  0  0
   58.3030   33.3220   45.3320 C   0  0  0  0  0  0  0  0  0  0  0  0
   58.5400   34.7400   44.9060 C   0  0  0  0  0  0  0  0  0  0  0  0
   58.6465   35.3774   45.7962 H   0  0  0  0  0  0  0  0  0  0  0  0
   59.4595   34.7934   44.3046 H   0  0  0  0  0  0  0  0  0  0  0  0
   57.6878   35.0895   44.3046 H   0  0  0  0  0  0  0  0  0  0  0  0
   58.6360   32.8030   46.5380 N   0  0  0  0  0  0  0  0  0  0  0  0
   59.2640   33.5320   47.6530 C   0  0  0  0  0  0  0  0  0  0  0  0
   59.1503   34.6127   47.4824 H   0  0  0  0  0  0  0  0  0  0  0  0
   58.7678   33.2283   48.5865 H   0  0  0  0  0  0  0  0  0  0  0  0
   60.7420   33.2040   47.7710 C   0  0  0  0  0  0  0  0  0  0  0  0
   61.6320   33.5780   46.7430 C   0  0  0  0  0  0  0  0  0  0  0  0
   61.1890   34.2380   45.6440 F   0  0  0  0  0  0  0  0  0  0  0  0
   62.9920   33.2760   46.8380 C   0  0  0  0  0  0  0  0  0  0  0  0
   63.6796   33.5838   46.0365 H   0  0  0  0  0  0  0  0  0  0  0  0
   63.4800   32.5860   47.9450 C   0  0  0  0  0  0  0  0  0  0  0  0
   64.5526   32.3526   48.0169 H   0  0  0  0  0  0  0  0  0  0  0  0
   62.6120   32.1900   48.9630 C   0  0  0  0  0  0  0  0  0  0  0  0
   63.0044   31.6406   49.8314 H   0  0  0  0  0  0  0  0  0  0  0  0
   61.2370   32.4880   48.8880 C   0  0  0  0  0  0  0  0  0  0  0  0
   60.3450   32.0930   49.8990 O   0  0  0  0  0  0  0  0  0  0  0  0
   59.8320   32.9570   50.9100 C   0  0  0  0  0  0  0  0  0  0  0  0
   60.0756   32.5468   51.9011 H   0  0  0  0  0  0  0  0  0  0  0  0
   60.2845   33.9540   50.8045 H   0  0  0  0  0  0  0  0  0  0  0  0
   58.7400   33.0370   50.8045 H   0  0  0  0  0  0  0  0  0  0  0  0
   58.3030   31.4860   46.4990 C   0  0  0  0  0  0  0  0  0  0  0  0
   58.5310   30.6240   47.5030 C   0  0  0  0  0  0  0  0  0  0  0  0
   58.9866   30.9784   48.4394 H   0  0  0  0  0  0  0  0  0  0  0  0
   58.2621   29.5635   47.3891 H   0  0  0  0  0  0  0  0  0  0  0  0
   59.0200   28.3410   45.5930 N   0  0  0  0  0  0  0  0  0  0  0  0
   58.9510   27.0810   46.0760 C   0  0  0  0  0  0  0  0  0  0  0  0
   59.9690   26.4310   46.4330 O   0  0  0  0  0  0  0  0  0  0  0  0
  1  2  1  0
  2  3  1  0
  3  4  2  0
  4  5  1  0
  4  6  1  0
  6  7  1  0
  6  8  2  0
  8  9  1  0
  8 10  1  0
 10 11  1  0
 10 12  2  0
 12 13  1  0
 13 14  1  0
 13 15  1  0
 13 16  1  0
 16 17  1  0
 17 18  1  0
 17 19  2  0
 19 20  1  0
 20 21  1  0
 20 22  2  0
 22 23  1  0
 23 24  1  0
 23 25  2  0
 25 26  1  0
 26 27  1  0
 26 28  1  0
 26 29  1  0
 25 30  1  0
 30 31  1  0
 31 32  1  0
 31 33  1  0
 31 34  1  0
 34 35  2  0
 35 36  1  0
 35 37  1  0
 37 38  1  0
 37 39  2  0
 39 40  1  0
 39 41  1  0
 41 42  1  0
 41 43  2  0
 43 44  1  0
 44 45  1  0
 45 46  1  0
 45 47  1  0
 45 48  1  0
 30 49  1  0
 49 50  2  0
 50 51  1  0
 50 52  1  0
 19 53  1  0
 53 54  1  0
 54 55  2  0
 12  3  1  0
 54 16  1  0
 49 22  1  0
 43 34  1  0
M  CHG  2  18  -1  53  -1
M  END
>  <UniqueID>  (19) 
17

>  <SMILES>  (19) 
C=c1/c(=C/c2[n-]c(=O)n(Cc3ccccc3O)c2[O-])cc(C)n1Cc1c(F)cccc1OC

>  <Energy>  (19) 
124.29696495918779

>  <Genealogy>  (19) 
C=c1c(=Cc2[n-]c(=O)n(Cc3ccccc3O)c2[O-])cc(C)n1Cc1c(F)cccc1OC (protonated)
C=c1/c(=C/c2[n-]c(=O)n(Cc3ccccc3O)c2[O-])cc(C)n1Cc1c(F)cccc1OC (cis-trans isomerization)
C=c1/c(=C/c2[n-]c(=O)n(Cc3ccccc3O)c2[O-])cc(C)n1Cc1c(F)cccc1OC (3D coordinates assigned)
C=c1/c(=C/c2[n-]c(=O)n(Cc3ccccc3O)c2[O-])cc(C)n1Cc1c(F)cccc1OC (optimized conformer: 124.29696495918779 kcal/mol)

>  <smiles>  (19) 
C=c1c(=Cc2[nH]c(=O)n(Cc3ccccc3O)c2O)cc(C)n1Cc1c(F)cccc1OC

>  <score_type>  (19) 
oracle

>  <origin>  (19) 
adg

>  <m_score__min__energy>  (19) 
-14.1

>  <m_primary>  (19) 
energy

$$$$
19:0
     RDKit          3D

 44 46  0  0  0  0  0  0  0  0999 V2000
   63.2440   33.0670   47.3950 C   0  0  0  0  0  0  0  0  0  0  0  0
   62.9590   31.6410   47.8600 C   0  0  0  0  0  0  0  0  0  0  0  0
   62.1870   31.6340   49.1830 C   0  0  0  0  0  0  0  0  0  0  0  0
   61.0470   30.6590   49.1200 C   0  0  0  0  0  0  0  0  0  0  0  0
   59.8730   30.8820   49.8480 C   0  0  0  0  0  0  0  0  0  0  0  0
   58.8590   29.9250   49.7880 C   0  0  0  0  0  0  0  0  0  0  0  0
   57.7900   30.1000   50.4310 O   0  0  0  0  0  0  0  0  0  0  0  0
   59.0280   28.8020   49.0390 N   0  0  0  0  0  0  0  0  0  0  0  0
   60.1810   28.5960   48.3450 C   0  0  0  0  0  0  0  0  0  0  0  0
   60.3940   27.1100   47.3690 S   0  0  0  0  0  0  0  0  0  0  0  0
   59.7130   27.8650   45.8590 C   0  0  0  0  0  0  0  0  0  0  0  0
   58.3940   28.5000   46.1750 C   0  0  0  0  0  0  0  0  0  0  0  0
   57.5750   27.8890   46.9140 O   0  0  0  0  0  0  0  0  0  0  0  0
   58.0590   29.8520   45.6780 C   0  0  0  0  0  0  0  0  0  0  0  0
   58.9420   30.9440   45.8390 C   0  0  0  0  0  0  0  0  0  0  0  0
   60.2650   30.7220   46.3660 N   0  0  0  0  0  0  0  0  0  0  0  0
   58.5530   32.2020   45.4310 N   0  0  0  0  0  0  0  0  0  0  0  0
   59.4300   33.3700   45.6430 C   0  0  0  0  0  0  0  0  0  0  0  0
   58.7640   34.5550   46.3410 C   0  0  0  0  0  0  0  0  0  0  0  0
   59.7270   33.6760   47.1100 C   0  0  0  0  0  0  0  0  0  0  0  0
   57.3790   32.3580   44.7360 C   0  0  0  0  0  0  0  0  0  0  0  0
   57.0620   33.4760   44.2480 O   0  0  0  0  0  0  0  0  0  0  0  0
   56.5400   31.3090   44.5610 N   0  0  0  0  0  0  0  0  0  0  0  0
   56.8370   30.0770   45.0300 C   0  0  0  0  0  0  0  0  0  0  0  0
   56.0040   29.1430   44.8750 O   0  0  0  0  0  0  0  0  0  0  0  0
   61.1780   29.5170   48.3940 N   0  0  0  0  0  0  0  0  0  0  0  0
   63.3744   33.7192   48.2711 H   0  0  0  0  0  0  0  0  0  0  0  0
   64.1622   33.0786   46.7894 H   0  0  0  0  0  0  0  0  0  0  0  0
   62.4008   33.4306   46.7894 H   0  0  0  0  0  0  0  0  0  0  0  0
   62.3616   31.1261   47.0932 H   0  0  0  0  0  0  0  0  0  0  0  0
   63.9189   31.1263   48.0139 H   0  0  0  0  0  0  0  0  0  0  0  0
   62.8670   31.3441   49.9976 H   0  0  0  0  0  0  0  0  0  0  0  0
   61.7846   32.6413   49.3661 H   0  0  0  0  0  0  0  0  0  0  0  0
   59.7520   31.7918   50.4544 H   0  0  0  0  0  0  0  0  0  0  0  0
   58.2660   28.0870   48.9960 H   0  0  0  0  0  0  0  0  0  0  0  0
   60.4090   28.6302   45.4847 H   0  0  0  0  0  0  0  0  0  0  0  0
   59.5746   27.0908   45.0900 H   0  0  0  0  0  0  0  0  0  0  0  0
   60.7670   29.8180   46.2350 H   0  0  0  0  0  0  0  0  0  0  0  0
   60.7300   31.4060   47.0030 H   0  0  0  0  0  0  0  0  0  0  0  0
   60.0291   33.2378   44.7300 H   0  0  0  0  0  0  0  0  0  0  0  0
   59.0520   35.5824   46.0737 H   0  0  0  0  0  0  0  0  0  0  0  0
   57.7250   34.8838   46.4903 H   0  0  0  0  0  0  0  0  0  0  0  0
   60.7137   34.0657   47.4008 H   0  0  0  0  0  0  0  0  0  0  0  0
   59.6753   33.1036   48.0479 H   0  0  0  0  0  0  0  0  0  0  0  0
  1  2  1  0
  2  3  1  0
  3  4  1  0
  4  5  2  0
  5  6  1  0
  6  7  2  0
  6  8  1  0
  8  9  1  0
  9 10  1  0
 10 11  1  0
 11 12  1  0
 12 13  2  0
 12 14  1  0
 14 15  2  0
 15 16  1  0
 15 17  1  0
 17 18  1  0
 18 19  1  0
 19 20  1  0
 17 21  1  0
 21 22  2  0
 21 23  1  0
 23 24  1  0
 24 25  2  0
  9 26  2  0
 26  4  1  0
 24 14  1  0
 20 18  1  0
  1 27  1  0
  1 28  1  0
  1 29  1  0
  2 30  1  0
  2 31  1  0
  3 32  1  0
  3 33  1  0
  5 34  1  0
  8 35  1  0
 11 36  1  0
 11 37  1  0
 16 38  1  0
 16 39  1  0
 18 40  1  0
 19 41  1  0
 19 42  1  0
 20 43  1  0
 20 44  1  0
M  CHG  1  23  -1
M  END
>  <UniqueID>  (20) 
18

>  <SMILES>  (20) 
CCCc1cc(=O)[nH]c(SCC(=O)c2c(N)n(C3CC3)c(=O)[n-]c2=O)n1

>  <Energy>  (20) 
313.8236095718542

>  <Genealogy>  (20) 
CCCc1cc(=O)[nH]c(SCC(=O)c2c(N)n(C3CC3)c(=O)[n-]c2=O)n1 (protonated)
CCCc1cc(=O)[nH]c(SCC(=O)c2c(N)n(C3CC3)c(=O)[n-]c2=O)n1 (3D coordinates assigned)
CCCc1cc(=O)[nH]c(SCC(=O)c2c(N)n(C3CC3)c(=O)[n-]c2=O)n1 (nonaromatic ring conformer: 313.8236095718542 kcal/mol)

>  <smiles>  (20) 
CCCc1cc(=O)[nH]c(SCC(=O)c2c(N)n(C3CC3)c(=O)[nH]c2=O)n1

>  <score_type>  (20) 
oracle

>  <origin>  (20) 
adg

>  <m_score__min__energy>  (20) 
-9.1199999999999992

>  <m_primary>  (20) 
energy

$$$$
20:0
     RDKit          3D

 43 45  0  0  0  0  0  0  0  0999 V2000
   59.2630   30.5240   47.6480 C   0  0  0  0  0  0  0  0  0  0  0  0
   58.8030   31.7380   46.8700 C   0  0  0  0  0  0  0  0  0  0  0  0
   58.1290   31.5650   45.6350 C   0  0  0  0  0  0  0  0  0  0  0  0
   57.8420   30.2380   45.1640 N   0  0  0  0  0  0  0  0  0  0  0  0
   56.3550   29.7210   44.4390 S   0  0  0  0  0  0  0  0  0  0  0  0
   56.6600   29.3110   42.7350 C   0  0  0  0  0  0  0  0  0  0  0  0
   55.3420   30.8280   44.5030 O   0  0  0  0  0  0  0  0  0  0  0  0
   55.8350   28.5040   45.1510 O   0  0  0  0  0  0  0  0  0  0  0  0
   57.7470   32.6930   44.8900 C   0  0  0  0  0  0  0  0  0  0  0  0
   58.0100   33.9750   45.3620 C   0  0  0  0  0  0  0  0  0  0  0  0
   58.6400   34.1560   46.5890 C   0  0  0  0  0  0  0  0  0  0  0  0
   59.0290   33.0510   47.3670 C   0  0  0  0  0  0  0  0  0  0  0  0
   59.6290   33.3020   48.7020 C   0  0  0  0  0  0  0  0  0  0  0  0
   60.9780   33.6060   48.8980 C   0  0  0  0  0  0  0  0  0  0  0  0
   61.2310   33.8440   50.5450 S   0  0  0  0  0  0  0  0  0  0  0  0
   59.6230   33.5720   50.9310 C   0  0  0  0  0  0  0  0  0  0  0  0
   59.1620   33.5740   52.1460 N   0  0  0  0  0  0  0  0  0  0  0  0
   58.1510   32.6930   52.6570 C   0  0  0  0  0  0  0  0  0  0  0  0
   58.1670   32.4090   53.8830 O   0  0  0  0  0  0  0  0  0  0  0  0
   57.1200   32.1700   51.7990 N   0  0  0  0  0  0  0  0  0  0  0  0
   56.2210   31.1130   52.1720 C   0  0  0  0  0  0  0  0  0  0  0  0
   54.8380   31.1970   51.9220 C   0  0  0  0  0  0  0  0  0  0  0  0
   53.9920   30.1410   52.2760 C   0  0  0  0  0  0  0  0  0  0  0  0
   54.5180   28.9900   52.8690 C   0  0  0  0  0  0  0  0  0  0  0  0
   55.8920   28.8880   53.0980 C   0  0  0  0  0  0  0  0  0  0  0  0
   56.7410   29.9410   52.7430 C   0  0  0  0  0  0  0  0  0  0  0  0
   58.8820   33.2860   49.8400 N   0  0  0  0  0  0  0  0  0  0  0  0
   59.1855   30.7284   48.7261 H   0  0  0  0  0  0  0  0  0  0  0  0
   58.6290   29.6624   47.3917 H   0  0  0  0  0  0  0  0  0  0  0  0
   60.3088   30.2989   47.3917 H   0  0  0  0  0  0  0  0  0  0  0  0
   57.3158   28.4295   42.6817 H   0  0  0  0  0  0  0  0  0  0  0  0
   55.7058   29.0889   42.2348 H   0  0  0  0  0  0  0  0  0  0  0  0
   57.1470   30.1611   42.2348 H   0  0  0  0  0  0  0  0  0  0  0  0
   57.2355   32.5615   43.9251 H   0  0  0  0  0  0  0  0  0  0  0  0
   57.7184   34.8497   44.7621 H   0  0  0  0  0  0  0  0  0  0  0  0
   58.8361   35.1747   46.9547 H   0  0  0  0  0  0  0  0  0  0  0  0
   61.7435   33.6776   48.1113 H   0  0  0  0  0  0  0  0  0  0  0  0
   57.0730   32.5030   50.8110 H   0  0  0  0  0  0  0  0  0  0  0  0
   54.4211   32.0969   51.4463 H   0  0  0  0  0  0  0  0  0  0  0  0
   52.9109   30.2165   52.0874 H   0  0  0  0  0  0  0  0  0  0  0  0
   53.8499   28.1644   53.1554 H   0  0  0  0  0  0  0  0  0  0  0  0
   56.3066   27.9788   53.5579 H   0  0  0  0  0  0  0  0  0  0  0  0
   57.8241   29.8501   52.9125 H   0  0  0  0  0  0  0  0  0  0  0  0
  1  2  1  0
  2  3  2  0
  3  4  1  0
  4  5  1  0
  5  6  1  0
  5  7  2  0
  5  8  2  0
  3  9  1  0
  9 10  2  0
 10 11  1  0
 11 12  2  0
 12 13  1  0
 13 14  2  0
 14 15  1  0
 15 16  1  0
 16 17  2  3
 17 18  1  0
 18 19  2  0
 18 20  1  0
 20 21  1  0
 21 22  2  0
 22 23  1  0
 23 24  2  0
 24 25  1  0
 25 26  2  0
 16 27  1  0
 12  2  1  0
 27 13  1  0
 26 21  1  0
  1 28  1  0
  1 29  1  0
  1 30  1  0
  6 31  1  0
  6 32  1  0
  6 33  1  0
  9 34  1  0
 10 35  1  0
 11 36  1  0
 14 37  1  0
 20 38  1  0
 22 39  1  0
 23 40  1  0
 24 41  1  0
 25 42  1  0
 26 43  1  0
M  CHG  2   4  -1  27  -1
M  END
>  <UniqueID>  (21) 
19

>  <SMILES>  (21) 
Cc1c([N-]S(C)(=O)=O)cccc1-c1csc(=NC(=O)Nc2ccccc2)[n-]1

>  <Energy>  (21) 
88.97901898277895

>  <Genealogy>  (21) 
Cc1c([N-]S(C)(=O)=O)cccc1-c1csc(=NC(=O)Nc2ccccc2)[n-]1 (protonated)
Cc1c([N-]S(C)(=O)=O)cccc1-c1csc(=NC(=O)Nc2ccccc2)[n-]1 (3D coordinates assigned)
Cc1c([N-]S(C)(=O)=O)cccc1-c1csc(=NC(=O)Nc2ccccc2)[n-]1 (optimized conformer: 88.97901898277895 kcal/mol)

>  <smiles>  (21) 
Cc1c(NS(C)(=O)=O)cccc1-c1csc(=NC(=O)Nc2ccccc2)[nH]1

>  <score_type>  (21) 
oracle

>  <origin>  (21) 
adg

>  <m_score__min__energy>  (21) 
-11.68

>  <m_primary>  (21) 
energy

$$$$
21:0
     RDKit          3D

 51 54  0  0  0  0  0  0  0  0999 V2000
   60.9254   34.6767   48.3217 H   0  0  0  0  0  0  0  0  0  0  0  0
   60.1640   34.3130   47.6160 C   0  0  0  0  0  0  0  0  0  0  0  0
   59.3350   33.2450   47.9710 C   0  0  0  0  0  0  0  0  0  0  0  0
   59.4417   32.7718   48.9582 H   0  0  0  0  0  0  0  0  0  0  0  0
   58.3700   32.7770   47.0730 C   0  0  0  0  0  0  0  0  0  0  0  0
   57.7154   31.9404   47.3587 H   0  0  0  0  0  0  0  0  0  0  0  0
   58.2340   33.3720   45.8070 C   0  0  0  0  0  0  0  0  0  0  0  0
   57.1740   32.8930   44.8540 C   0  0  0  0  0  0  0  0  0  0  0  0
   56.5890   33.7550   44.5010 H   0  0  0  0  0  0  0  0  0  0  0  0
   56.5216   32.1795   45.3787 H   0  0  0  0  0  0  0  0  0  0  0  0
   57.8090   32.1890   43.6510 C   0  0  0  0  0  0  0  0  0  0  0  0
   58.7983   32.6281   43.4549 H   0  0  0  0  0  0  0  0  0  0  0  0
   57.1563   32.3208   42.7754 H   0  0  0  0  0  0  0  0  0  0  0  0
   57.9610   30.7590   43.9180 N   0  0  0  0  0  0  0  0  0  0  0  0
   58.8800   30.3220   43.6920 H   0  0  0  0  0  0  0  0  0  0  0  0
   56.8740   29.9490   44.3950 C   0  0  0  0  0  0  0  0  0  0  0  0
   55.7230   30.4460   44.5140 O   0  0  0  0  0  0  0  0  0  0  0  0
   57.0660   28.5710   44.7340 N   0  0  0  0  0  0  0  0  0  0  0  0
   58.6040   27.8440   45.0540 S   0  0  0  0  0  0  0  0  0  0  0  0
   58.5160   26.3560   44.8520 O   0  0  0  0  0  0  0  0  0  0  0  0
   59.6440   28.4100   44.1280 O   0  0  0  0  0  0  0  0  0  0  0  0
   59.0620   28.1920   46.7170 C   0  0  0  0  0  0  0  0  0  0  0  0
   59.9700   27.3590   47.3810 C   0  0  0  0  0  0  0  0  0  0  0  0
   60.3881   26.4828   46.8638 H   0  0  0  0  0  0  0  0  0  0  0  0
   60.3480   27.6350   48.6980 C   0  0  0  0  0  0  0  0  0  0  0  0
   61.0607   26.9729   49.2114 H   0  0  0  0  0  0  0  0  0  0  0  0
   59.8240   28.7530   49.3720 C   0  0  0  0  0  0  0  0  0  0  0  0
   60.2250   29.0470   50.7700 C   0  0  0  0  0  0  0  0  0  0  0  0
   59.5040   28.6430   51.7240 O   0  0  0  0  0  0  0  0  0  0  0  0
   61.4290   29.7900   51.0280 N   0  0  0  0  0  0  0  0  0  0  0  0
   61.9300   30.7270   50.2800 C   0  0  0  0  0  0  0  0  0  0  0  0
   62.1760   30.5920   48.9520 N   0  0  0  0  0  0  0  0  0  0  0  0
   62.6980   31.7370   48.4450 C   0  0  0  0  0  0  0  0  0  0  0  0
   63.0580   31.9160   47.1080 C   0  0  0  0  0  0  0  0  0  0  0  0
   62.9277   31.1029   46.3786 H   0  0  0  0  0  0  0  0  0  0  0  0
   63.5900   33.1550   46.7120 C   0  0  0  0  0  0  0  0  0  0  0  0
   63.8796   33.3150   45.6629 H   0  0  0  0  0  0  0  0  0  0  0  0
   63.7550   34.1940   47.6500 C   0  0  0  0  0  0  0  0  0  0  0  0
   64.1714   35.1600   47.3285 H   0  0  0  0  0  0  0  0  0  0  0  0
   63.3910   34.0030   48.9920 C   0  0  0  0  0  0  0  0  0  0  0  0
   63.5176   34.8065   49.7325 H   0  0  0  0  0  0  0  0  0  0  0  0
   62.8650   32.7670   49.3590 C   0  0  0  0  0  0  0  0  0  0  0  0
   62.3480   32.2550   50.8730 S   0  0  0  0  0  0  0  0  0  0  0  0
   58.9160   29.5900   48.6970 C   0  0  0  0  0  0  0  0  0  0  0  0
   58.4986   30.4693   49.2094 H   0  0  0  0  0  0  0  0  0  0  0  0
   58.5410   29.3110   47.3790 C   0  0  0  0  0  0  0  0  0  0  0  0
   57.8332   29.9737   46.8595 H   0  0  0  0  0  0  0  0  0  0  0  0
   59.0620   34.4550   45.4630 C   0  0  0  0  0  0  0  0  0  0  0  0
   58.9513   34.9390   44.4814 H   0  0  0  0  0  0  0  0  0  0  0  0
   60.0250   34.9190   46.3630 C   0  0  0  0  0  0  0  0  0  0  0  0
   60.6748   35.7621   46.0857 H   0  0  0  0  0  0  0  0  0  0  0  0
  1  2  1  0
  2  3  2  0
  3  4  1  0
  3  5  1  0
  5  6  1  0
  5  7  2  0
  7  8  1  0
  8  9  1  0
  8 10  1  0
  8 11  1  0
 11 12  1  0
 11 13  1  0
 11 14  1  0
 14 15  1  0
 14 16  1  0
 16 17  2  0
 16 18  1  0
 18 19  1  0
 19 20  2  0
 19 21  2  0
 19 22  1  0
 22 23  2  0
 23 24  1  0
 23 25  1  0
 25 26  1  0
 25 27  2  0
 27 28  1  0
 28 29  2  0
 28 30  1  0
 30 31  2  0
 31 32  1  0
 32 33  1  0
 33 34  2  0
 34 35  1  0
 34 36  1  0
 36 37  1  0
 36 38  2  0
 38 39  1  0
 38 40  1  0
 40 41  1  0
 40 42  2  0
 42 43  1  0
 27 44  1  0
 44 45  1  0
 44 46  2  0
 46 47  1  0
  7 48  1  0
 48 49  1  0
 48 50  2  0
 50 51  1  0
 50  2  1  0
 46 22  1  0
 43 31  1  0
 42 33  1  0
M  CHG  2  18  -1  32  -1
M  END
>  <UniqueID>  (22) 
20

>  <SMILES>  (22) 
O=C([N-]S(=O)(=O)c1ccc(C(=O)/N=c2\[n-]c3ccccc3s2)cc1)NCCc1ccccc1

>  <Energy>  (22) 
91.5965337988878

>  <Genealogy>  (22) 
O=C([N-]S(=O)(=O)c1ccc(C(=O)N=c2[n-]c3ccccc3s2)cc1)NCCc1ccccc1 (protonated)
O=C([N-]S(=O)(=O)c1ccc(C(=O)/N=c2\[n-]c3ccccc3s2)cc1)NCCc1ccccc1 (cis-trans isomerization)
O=C([N-]S(=O)(=O)c1ccc(C(=O)/N=c2\[n-]c3ccccc3s2)cc1)NCCc1ccccc1 (3D coordinates assigned)
O=C([N-]S(=O)(=O)c1ccc(C(=O)/N=c2\[n-]c3ccccc3s2)cc1)NCCc1ccccc1 (optimized conformer: 91.5965337988878 kcal/mol)

>  <smiles>  (22) 
O=C(NCCc1ccccc1)NS(=O)(=O)c1ccc(C(=O)N=c2[nH]c3ccccc3s2)cc1

>  <score_type>  (22) 
oracle

>  <origin>  (22) 
adg

>  <m_score__min__energy>  (22) 
-12.800000000000001

>  <m_primary>  (22) 
energy

$$$$
22:0
     RDKit          3D

 37 38  0  0  0  0  0  0  0  0999 V2000
   58.8830   33.0870   41.5010 O   0  0  0  0  0  0  0  0  0  0  0  0
   57.9020   32.4360   41.9160 N   0  0  0  0  0  0  0  0  0  0  0  0
   57.0080   31.9340   40.9980 O   0  0  0  0  0  0  0  0  0  0  0  0
   57.6930   32.2590   43.3300 C   0  0  0  0  0  0  0  0  0  0  0  0
   57.6720   33.3400   44.1380 C   0  0  0  0  0  0  0  0  0  0  0  0
   58.4010   33.4480   45.4130 C   0  0  0  0  0  0  0  0  0  0  0  0
   59.6640   34.0520   45.4670 C   0  0  0  0  0  0  0  0  0  0  0  0
   60.3470   34.1520   46.6820 C   0  0  0  0  0  0  0  0  0  0  0  0
   59.7730   33.6520   47.8640 C   0  0  0  0  0  0  0  0  0  0  0  0
   60.4900   33.8010   49.1810 C   0  0  0  0  0  0  0  0  0  0  0  0
   61.6150   34.5960   49.0380 F   0  0  0  0  0  0  0  0  0  0  0  0
   60.8910   32.5660   49.6620 F   0  0  0  0  0  0  0  0  0  0  0  0
   59.6390   34.3860   50.1000 F   0  0  0  0  0  0  0  0  0  0  0  0
   58.4810   33.1000   47.8140 C   0  0  0  0  0  0  0  0  0  0  0  0
   57.8000   32.9980   46.5970 C   0  0  0  0  0  0  0  0  0  0  0  0
   57.4420   30.6090   43.9510 S   0  0  0  0  0  0  0  0  0  0  0  0
   56.6620   29.8200   42.9380 O   0  0  0  0  0  0  0  0  0  0  0  0
   56.6510   30.6240   45.2300 O   0  0  0  0  0  0  0  0  0  0  0  0
   59.0270   29.8250   44.2130 C   0  0  0  0  0  0  0  0  0  0  0  0
   59.2660   29.5810   45.6810 C   0  0  0  0  0  0  0  0  0  0  0  0
   60.1890   30.3940   46.3650 C   0  0  0  0  0  0  0  0  0  0  0  0
   60.4080   30.2210   47.7330 C   0  0  0  0  0  0  0  0  0  0  0  0
   59.7060   29.2410   48.4360 C   0  0  0  0  0  0  0  0  0  0  0  0
   58.7800   28.4340   47.7730 C   0  0  0  0  0  0  0  0  0  0  0  0
   58.5510   28.5990   46.4010 C   0  0  0  0  0  0  0  0  0  0  0  0
   57.3610   27.5560   45.6270 Cl  0  0  0  0  0  0  0  0  0  0  0  0
   57.0669   34.2023   43.8214 H   0  0  0  0  0  0  0  0  0  0  0  0
   60.1203   34.4495   44.5484 H   0  0  0  0  0  0  0  0  0  0  0  0
   61.3397   34.6248   46.7138 H   0  0  0  0  0  0  0  0  0  0  0  0
   58.0024   32.7458   48.7389 H   0  0  0  0  0  0  0  0  0  0  0  0
   56.7899   32.5635   46.5685 H   0  0  0  0  0  0  0  0  0  0  0  0
   59.0464   28.8632   43.6795 H   0  0  0  0  0  0  0  0  0  0  0  0
   59.8168   30.4894   43.8324 H   0  0  0  0  0  0  0  0  0  0  0  0
   60.7420   31.1716   45.8177 H   0  0  0  0  0  0  0  0  0  0  0  0
   61.1351   30.8583   48.2576 H   0  0  0  0  0  0  0  0  0  0  0  0
   59.8825   29.1044   49.5131 H   0  0  0  0  0  0  0  0  0  0  0  0
   58.2270   27.6641   48.3311 H   0  0  0  0  0  0  0  0  0  0  0  0
  1  2  2  0
  2  3  1  0
  2  4  1  0
  4  5  2  3
  5  6  1  0
  6  7  2  0
  7  8  1  0
  8  9  2  0
  9 10  1  0
 10 11  1  0
 10 12  1  0
 10 13  1  0
  9 14  1  0
 14 15  2  0
  4 16  1  0
 16 17  2  0
 16 18  2  0
 16 19  1  0
 19 20  1  0
 20 21  2  0
 21 22  1  0
 22 23  2  0
 23 24  1  0
 24 25  2  0
 25 26  1  0
 15  6  1  0
 25 20  1  0
  5 27  1  0
  7 28  1  0
  8 29  1  0
 14 30  1  0
 15 31  1  0
 19 32  1  0
 19 33  1  0
 21 34  1  0
 22 35  1  0
 23 36  1  0
 24 37  1  0
M  CHG  2   2   1   3  -1
M  END
>  <UniqueID>  (23) 
21

>  <SMILES>  (23) 
O=[N+]([O-])C(=Cc1ccc(C(F)(F)F)cc1)S(=O)(=O)Cc1ccccc1Cl

>  <Energy>  (23) 
45.113419461372544

>  <Genealogy>  (23) 
O=[N+]([O-])C(=Cc1ccc(C(F)(F)F)cc1)S(=O)(=O)Cc1ccccc1Cl (3D coordinates assigned)
O=[N+]([O-])C(=Cc1ccc(C(F)(F)F)cc1)S(=O)(=O)Cc1ccccc1Cl (optimized conformer: 45.113419461372544 kcal/mol)

>  <smiles>  (23) 
O=[N+]([O-])C(=Cc1ccc(C(F)(F)F)cc1)S(=O)(=O)Cc1ccccc1Cl

>  <score_type>  (23) 
oracle

>  <origin>  (23) 
adg

>  <m_score__min__energy>  (23) 
-8.1500000000000004

>  <m_primary>  (23) 
energy

$$$$
23:0
     RDKit          3D

 41 43  0  0  0  0  0  0  0  0999 V2000
   59.8650   35.7280   45.9940 C   0  0  0  0  0  0  0  0  0  0  0  0
   59.5300   34.3170   46.3600 C   0  0  0  0  0  0  0  0  0  0  0  0
   58.3720   33.6190   46.0660 C   0  0  0  0  0  0  0  0  0  0  0  0
   57.0190   34.2020   45.1150 Cl  0  0  0  0  0  0  0  0  0  0  0  0
   58.4100   32.4040   46.6470 N   0  0  0  0  0  0  0  0  0  0  0  0
   59.5550   32.3110   47.3070 N   0  0  0  0  0  0  0  0  0  0  0  0
   59.9290   31.1430   48.1040 C   0  0  0  0  0  0  0  0  0  0  0  0
   60.0020   29.9130   47.2410 C   0  0  0  0  0  0  0  0  0  0  0  0
   60.3260   28.6690   47.8050 C   0  0  0  0  0  0  0  0  0  0  0  0
   60.3970   27.5410   46.9850 C   0  0  0  0  0  0  0  0  0  0  0  0
   60.1350   27.6580   45.6200 C   0  0  0  0  0  0  0  0  0  0  0  0
   59.8000   28.9050   45.0930 C   0  0  0  0  0  0  0  0  0  0  0  0
   59.7370   29.9980   45.9030 N   0  0  0  0  0  0  0  0  0  0  0  0
   60.2580   33.4550   47.1570 C   0  0  0  0  0  0  0  0  0  0  0  0
   61.5580   33.7470   47.7830 C   0  0  0  0  0  0  0  0  0  0  0  0
   61.6570   33.9260   49.0980 C   0  0  0  0  0  0  0  0  0  0  0  0
   63.0120   34.1980   49.6810 C   0  0  0  0  0  0  0  0  0  0  0  0
   64.0260   33.2680   49.1290 N   0  0  0  0  0  0  0  0  0  0  0  0
   63.9780   31.9690   49.8210 C   0  0  0  0  0  0  0  0  0  0  0  0
   63.9720   33.0970   47.6450 C   0  0  0  0  0  0  0  0  0  0  0  0
   62.8050   33.8350   46.9520 C   0  0  0  0  0  0  0  0  0  0  0  0
   60.0057   36.3208   46.9098 H   0  0  0  0  0  0  0  0  0  0  0  0
   60.7917   35.7430   45.4015 H   0  0  0  0  0  0  0  0  0  0  0  0
   59.0440   36.1579   45.4015 H   0  0  0  0  0  0  0  0  0  0  0  0
   60.9120   31.3198   48.5649 H   0  0  0  0  0  0  0  0  0  0  0  0
   59.1665   30.9856   48.8811 H   0  0  0  0  0  0  0  0  0  0  0  0
   60.5223   28.5835   48.8840 H   0  0  0  0  0  0  0  0  0  0  0  0
   60.6589   26.5627   47.4144 H   0  0  0  0  0  0  0  0  0  0  0  0
   60.1920   26.7756   44.9658 H   0  0  0  0  0  0  0  0  0  0  0  0
   59.5858   29.0061   44.0188 H   0  0  0  0  0  0  0  0  0  0  0  0
   59.4800   30.9180   45.4800 H   0  0  0  0  0  0  0  0  0  0  0  0
   60.7666   33.8757   49.7419 H   0  0  0  0  0  0  0  0  0  0  0  0
   63.3048   35.2313   49.4432 H   0  0  0  0  0  0  0  0  0  0  0  0
   62.9599   34.0523   50.7701 H   0  0  0  0  0  0  0  0  0  0  0  0
   63.9840   32.1326   50.9088 H   0  0  0  0  0  0  0  0  0  0  0  0
   63.0595   31.4352   49.5356 H   0  0  0  0  0  0  0  0  0  0  0  0
   64.8546   31.3689   49.5356 H   0  0  0  0  0  0  0  0  0  0  0  0
   64.9150   33.4739   47.2222 H   0  0  0  0  0  0  0  0  0  0  0  0
   63.8136   32.0240   47.4615 H   0  0  0  0  0  0  0  0  0  0  0  0
   63.0755   34.8926   46.8164 H   0  0  0  0  0  0  0  0  0  0  0  0
   62.6157   33.3632   45.9765 H   0  0  0  0  0  0  0  0  0  0  0  0
  1  2  1  0
  2  3  1  0
  3  4  1  0
  3  5  2  0
  5  6  1  0
  6  7  1  0
  7  8  1  0
  8  9  2  0
  9 10  1  0
 10 11  2  0
 11 12  1  0
 12 13  2  0
  6 14  1  0
 14 15  1  0
 15 16  2  0
 16 17  1  0
 17 18  1  0
 18 19  1  0
 18 20  1  0
 20 21  1  0
 14  2  2  0
 21 15  1  0
 13  8  1  0
  1 22  1  0
  1 23  1  0
  1 24  1  0
  7 25  1  0
  7 26  1  0
  9 27  1  0
 10 28  1  0
 11 29  1  0
 12 30  1  0
 13 31  1  0
 16 32  1  0
 17 33  1  0
 17 34  1  0
 19 35  1  0
 19 36  1  0
 19 37  1  0
 20 38  1  0
 20 39  1  0
 21 40  1  0
 21 41  1  0
M  CHG  1  13   1
M  END
>  <UniqueID>  (24) 
22

>  <SMILES>  (24) 
Cc1c(Cl)nn(Cc2cccc[nH+]2)c1C1=CCN(C)CC1

>  <Energy>  (24) 
83.51988951074338

>  <Genealogy>  (24) 
Cc1c(Cl)nn(Cc2cccc[nH+]2)c1C1=CCN(C)CC1 (protonated)
Cc1c(Cl)nn(Cc2cccc[nH+]2)c1C1=CCN(C)CC1 (3D coordinates assigned)
Cc1c(Cl)nn(Cc2cccc[nH+]2)c1C1=CCN(C)CC1 (nonaromatic ring conformer: 83.51988951074338 kcal/mol)

>  <smiles>  (24) 
Cc1c(Cl)nn(Cc2ccccn2)c1C1=CCN(C)CC1

>  <score_type>  (24) 
oracle

>  <origin>  (24) 
adg

>  <m_score__min__energy>  (24) 
-5.4500000000000002

>  <m_primary>  (24) 
energy

$$$$
24:0
     RDKit          3D

 43 45  0  0  0  0  0  0  0  0999 V2000
   53.1070   28.9620   52.7410 C   0  0  0  0  0  0  0  0  0  0  0  0
   52.7650   30.2380   52.1140 N   0  0  0  0  0  0  0  0  0  0  0  0
   51.5870   30.4900   51.5150 C   0  0  0  0  0  0  0  0  0  0  0  0
   51.6720   31.7270   50.9270 C   0  0  0  0  0  0  0  0  0  0  0  0
   50.6630   32.3410   50.1970 O   0  0  0  0  0  0  0  0  0  0  0  0
   52.8800   32.2760   51.1420 N   0  0  0  0  0  0  0  0  0  0  0  0
   53.5220   31.3500   51.8860 C   0  0  0  0  0  0  0  0  0  0  0  0
   54.7500   31.5430   52.2800 N   0  0  0  0  0  0  0  0  0  0  0  0
   55.9000   30.7180   52.0630 C   0  0  0  0  0  0  0  0  0  0  0  0
   55.8610   29.4970   52.3750 O   0  0  0  0  0  0  0  0  0  0  0  0
   57.1670   31.3170   51.5820 C   0  0  0  0  0  0  0  0  0  0  0  0
   57.9410   30.6690   50.6010 C   0  0  0  0  0  0  0  0  0  0  0  0
   59.1370   31.2370   50.1520 C   0  0  0  0  0  0  0  0  0  0  0  0
   59.5820   32.4540   50.6780 C   0  0  0  0  0  0  0  0  0  0  0  0
   61.0770   33.1720   50.0830 S   0  0  0  0  0  0  0  0  0  0  0  0
   61.9710   32.0810   49.5650 O   0  0  0  0  0  0  0  0  0  0  0  0
   61.7910   33.8820   51.2000 O   0  0  0  0  0  0  0  0  0  0  0  0
   60.7320   34.2890   48.7970 N   0  0  0  0  0  0  0  0  0  0  0  0
   59.2830   34.4720   48.6760 C   0  0  0  0  0  0  0  0  0  0  0  0
   58.8640   34.2570   47.2490 C   0  0  0  0  0  0  0  0  0  0  0  0
   59.5920   34.8420   46.2000 C   0  0  0  0  0  0  0  0  0  0  0  0
   59.2210   34.6120   44.8710 C   0  0  0  0  0  0  0  0  0  0  0  0
   58.1300   33.7900   44.5800 C   0  0  0  0  0  0  0  0  0  0  0  0
   57.4100   33.1910   45.6190 C   0  0  0  0  0  0  0  0  0  0  0  0
   57.7780   33.4170   46.9490 C   0  0  0  0  0  0  0  0  0  0  0  0
   58.8170   33.1060   51.6530 C   0  0  0  0  0  0  0  0  0  0  0  0
   57.6200   32.5420   52.1040 C   0  0  0  0  0  0  0  0  0  0  0  0
   53.0776   29.0716   53.8351 H   0  0  0  0  0  0  0  0  0  0  0  0
   52.3828   28.1948   52.4298 H   0  0  0  0  0  0  0  0  0  0  0  0
   54.1178   28.6598   52.4298 H   0  0  0  0  0  0  0  0  0  0  0  0
   50.7120   29.8235   51.4994 H   0  0  0  0  0  0  0  0  0  0  0  0
   57.6024   29.7088   50.1846 H   0  0  0  0  0  0  0  0  0  0  0  0
   59.7309   30.7241   49.3812 H   0  0  0  0  0  0  0  0  0  0  0  0
   61.1530   35.2050   49.0740 H   0  0  0  0  0  0  0  0  0  0  0  0
   58.7674   33.7462   49.3220 H   0  0  0  0  0  0  0  0  0  0  0  0
   59.0174   35.4940   48.9842 H   0  0  0  0  0  0  0  0  0  0  0  0
   60.4571   35.4834   46.4243 H   0  0  0  0  0  0  0  0  0  0  0  0
   59.7896   35.0794   44.0536 H   0  0  0  0  0  0  0  0  0  0  0  0
   57.8371   33.6137   43.5345 H   0  0  0  0  0  0  0  0  0  0  0  0
   56.5528   32.5410   45.3894 H   0  0  0  0  0  0  0  0  0  0  0  0
   57.2158   32.9358   47.7629 H   0  0  0  0  0  0  0  0  0  0  0  0
   59.1595   34.0663   52.0659 H   0  0  0  0  0  0  0  0  0  0  0  0
   57.0280   33.0601   52.8728 H   0  0  0  0  0  0  0  0  0  0  0  0
  1  2  1  0
  2  3  1  0
  3  4  2  0
  4  5  1  0
  4  6  1  0
  6  7  1  0
  7  8  2  3
  8  9  1  0
  9 10  2  0
  9 11  1  0
 11 12  2  0
 12 13  1  0
 13 14  2  0
 14 15  1  0
 15 16  2  0
 15 17  2  0
 15 18  1  0
 18 19  1  0
 19 20  1  0
 20 21  2  0
 21 22  1  0
 22 23  2  0
 23 24  1  0
 24 25  2  0
 14 26  1  0
 26 27  2  0
  7  2  1  0
 27 11  1  0
 25 20  1  0
  1 28  1  0
  1 29  1  0
  1 30  1  0
  3 31  1  0
 12 32  1  0
 13 33  1  0
 18 34  1  0
 19 35  1  0
 19 36  1  0
 21 37  1  0
 22 38  1  0
 23 39  1  0
 24 40  1  0
 25 41  1  0
 26 42  1  0
 27 43  1  0
M  CHG  2   5  -1   6  -1
M  END
>  <UniqueID>  (25) 
23

>  <SMILES>  (25) 
Cn1cc([O-])[n-]c1=NC(=O)c1ccc(S(=O)(=O)NCc2ccccc2)cc1

>  <Energy>  (25) 
85.44379767772004

>  <Genealogy>  (25) 
Cn1cc([O-])[n-]c1=NC(=O)c1ccc(S(=O)(=O)NCc2ccccc2)cc1 (protonated)
Cn1cc([O-])[n-]c1=NC(=O)c1ccc(S(=O)(=O)NCc2ccccc2)cc1 (3D coordinates assigned)
Cn1cc([O-])[n-]c1=NC(=O)c1ccc(S(=O)(=O)NCc2ccccc2)cc1 (optimized conformer: 85.44379767772004 kcal/mol)

>  <smiles>  (25) 
Cn1cc(O)[nH]c1=NC(=O)c1ccc(S(=O)(=O)NCc2ccccc2)cc1

>  <score_type>  (25) 
oracle

>  <origin>  (25) 
adg

>  <m_score__min__energy>  (25) 
-13.94

>  <m_primary>  (25) 
energy

$$$$
25:0
     RDKit          3D

 28 29  0  0  0  0  0  0  0  0999 V2000
   57.4720   32.8400   45.3480 C   0  0  0  0  0  0  0  0  0  0  0  0
   58.1990   31.8950   46.2990 C   0  0  0  0  0  0  0  0  0  0  0  0
   58.1160   30.4760   45.8080 C   0  0  0  0  0  0  0  0  0  0  0  0
   58.7130   29.4370   46.5400 C   0  0  0  0  0  0  0  0  0  0  0  0
   58.6080   28.1140   46.1000 C   0  0  0  0  0  0  0  0  0  0  0  0
   57.9040   27.8100   44.9240 C   0  0  0  0  0  0  0  0  0  0  0  0
   57.7560   26.3840   44.4760 C   0  0  0  0  0  0  0  0  0  0  0  0
   57.2120   25.5480   45.5940 C   0  0  0  0  0  0  0  0  0  0  0  0
   57.8650   24.5290   46.1730 N   0  0  0  0  0  0  0  0  0  0  0  0
   57.0500   24.1240   47.1670 C   0  0  0  0  0  0  0  0  0  0  0  0
   57.3310   23.1710   47.9400 O   0  0  0  0  0  0  0  0  0  0  0  0
   55.9070   24.8370   47.2670 N   0  0  0  0  0  0  0  0  0  0  0  0
   56.0280   25.7360   46.2710 C   0  0  0  0  0  0  0  0  0  0  0  0
   55.0790   26.7110   45.9940 O   0  0  0  0  0  0  0  0  0  0  0  0
   57.2850   28.8470   44.2070 C   0  0  0  0  0  0  0  0  0  0  0  0
   57.3900   30.1690   44.6460 C   0  0  0  0  0  0  0  0  0  0  0  0
   56.9029   33.5798   45.9301 H   0  0  0  0  0  0  0  0  0  0  0  0
   58.2062   33.3586   44.7140 H   0  0  0  0  0  0  0  0  0  0  0  0
   56.7825   32.2633   44.7140 H   0  0  0  0  0  0  0  0  0  0  0  0
   59.2559   32.1926   46.3652 H   0  0  0  0  0  0  0  0  0  0  0  0
   57.7221   31.9544   47.2884 H   0  0  0  0  0  0  0  0  0  0  0  0
   59.2656   29.6649   47.4634 H   0  0  0  0  0  0  0  0  0  0  0  0
   59.0799   27.3064   46.6788 H   0  0  0  0  0  0  0  0  0  0  0  0
   57.0661   26.3410   43.6203 H   0  0  0  0  0  0  0  0  0  0  0  0
   58.7417   25.9946   44.1813 H   0  0  0  0  0  0  0  0  0  0  0  0
   58.8030   24.1430   45.9200 H   0  0  0  0  0  0  0  0  0  0  0  0
   56.7146   28.6170   43.2950 H   0  0  0  0  0  0  0  0  0  0  0  0
   56.9011   30.9742   44.0780 H   0  0  0  0  0  0  0  0  0  0  0  0
  1  2  1  0
  2  3  1  0
  3  4  2  0
  4  5  1  0
  5  6  2  0
  6  7  1  0
  7  8  1  0
  8  9  1  0
  9 10  1  0
 10 11  2  0
 10 12  1  0
 12 13  1  0
 13 14  1  0
  6 15  1  0
 15 16  2  0
 16  3  1  0
 13  8  2  0
  1 17  1  0
  1 18  1  0
  1 19  1  0
  2 20  1  0
  2 21  1  0
  4 22  1  0
  5 23  1  0
  7 24  1  0
  7 25  1  0
  9 26  1  0
 15 27  1  0
 16 28  1  0
M  CHG  2  12  -1  14  -1
M  END
>  <UniqueID>  (26) 
24

>  <SMILES>  (26) 
CCc1ccc(Cc2[nH]c(=O)[n-]c2[O-])cc1

>  <Energy>  (26) 
53.63372358755147

>  <Genealogy>  (26) 
CCc1ccc(Cc2[nH]c(=O)[n-]c2[O-])cc1 (protonated)
CCc1ccc(Cc2[nH]c(=O)[n-]c2[O-])cc1 (3D coordinates assigned)
CCc1ccc(Cc2[nH]c(=O)[n-]c2[O-])cc1 (optimized conformer: 53.63372358755147 kcal/mol)

>  <smiles>  (26) 
CCc1ccc(Cc2[nH]c(=O)[nH]c2O)cc1

>  <score_type>  (26) 
oracle

>  <origin>  (26) 
adg

>  <m_score__min__energy>  (26) 
-12.75

>  <m_primary>  (26) 
energy

$$$$
26:0
     RDKit          3D

 51 53  0  0  0  0  0  0  0  0999 V2000
   55.9970   21.8270   42.6180 N   0  0  0  0  0  0  0  0  0  0  0  0
   55.6650   22.7000   43.6970 C   0  0  0  0  0  0  0  0  0  0  0  0
   54.5810   23.3400   43.6660 O   0  0  0  0  0  0  0  0  0  0  0  0
   56.6300   22.9250   44.8220 C   0  0  0  0  0  0  0  0  0  0  0  0
   56.9910   24.3800   44.9610 C   0  0  0  0  0  0  0  0  0  0  0  0
   56.7260   25.0580   46.1620 C   0  0  0  0  0  0  0  0  0  0  0  0
   57.0180   26.4180   46.2830 C   0  0  0  0  0  0  0  0  0  0  0  0
   57.5800   27.1190   45.2100 C   0  0  0  0  0  0  0  0  0  0  0  0
   57.8560   28.8510   45.3640 S   0  0  0  0  0  0  0  0  0  0  0  0
   59.0130   29.2800   44.5030 O   0  0  0  0  0  0  0  0  0  0  0  0
   58.1820   29.1670   46.7960 O   0  0  0  0  0  0  0  0  0  0  0  0
   56.3970   29.6890   44.9090 N   0  0  0  0  0  0  0  0  0  0  0  0
   56.6740   30.8660   44.0810 C   0  0  0  0  0  0  0  0  0  0  0  0
   57.4470   31.9180   44.8370 C   0  0  0  0  0  0  0  0  0  0  0  0
   57.8500   33.0960   44.1910 C   0  0  0  0  0  0  0  0  0  0  0  0
   58.5270   34.0930   44.8970 C   0  0  0  0  0  0  0  0  0  0  0  0
   58.8060   33.9340   46.2640 C   0  0  0  0  0  0  0  0  0  0  0  0
   59.4760   35.0150   47.0180 C   0  0  0  0  0  0  0  0  0  0  0  0
   59.9600   36.0050   46.4030 O   0  0  0  0  0  0  0  0  0  0  0  0
   59.5550   34.9550   48.4460 N   0  0  0  0  0  0  0  0  0  0  0  0
   60.1630   33.8450   49.1740 C   0  0  0  0  0  0  0  0  0  0  0  0
   61.4010   33.3570   48.4670 C   0  0  0  0  0  0  0  0  0  0  0  0
   62.5530   34.1620   48.4070 C   0  0  0  0  0  0  0  0  0  0  0  0
   63.7000   33.7020   47.7540 C   0  0  0  0  0  0  0  0  0  0  0  0
   63.7080   32.4390   47.1550 C   0  0  0  0  0  0  0  0  0  0  0  0
   62.5660   31.6340   47.2070 C   0  0  0  0  0  0  0  0  0  0  0  0
   61.4170   32.0910   47.8570 C   0  0  0  0  0  0  0  0  0  0  0  0
   58.4230   32.7430   46.9050 C   0  0  0  0  0  0  0  0  0  0  0  0
   57.7610   31.7370   46.1930 C   0  0  0  0  0  0  0  0  0  0  0  0
   57.8480   26.4460   44.0070 C   0  0  0  0  0  0  0  0  0  0  0  0
   57.5470   25.0860   43.8810 C   0  0  0  0  0  0  0  0  0  0  0  0
   56.1840   22.2030   41.6630 H   0  0  0  0  0  0  0  0  0  0  0  0
   56.1710   22.5800   45.7602 H   0  0  0  0  0  0  0  0  0  0  0  0
   57.5495   22.3621   44.6038 H   0  0  0  0  0  0  0  0  0  0  0  0
   56.2862   24.5149   47.0115 H   0  0  0  0  0  0  0  0  0  0  0  0
   56.8052   26.9413   47.2268 H   0  0  0  0  0  0  0  0  0  0  0  0
   57.2618   30.5540   43.2051 H   0  0  0  0  0  0  0  0  0  0  0  0
   55.7112   31.3032   43.7780 H   0  0  0  0  0  0  0  0  0  0  0  0
   57.6316   33.2355   43.1220 H   0  0  0  0  0  0  0  0  0  0  0  0
   58.8440   35.0097   44.3782 H   0  0  0  0  0  0  0  0  0  0  0  0
   60.4343   34.1822   50.1853 H   0  0  0  0  0  0  0  0  0  0  0  0
   59.4385   33.0191   49.2279 H   0  0  0  0  0  0  0  0  0  0  0  0
   62.5512   35.1571   48.8757 H   0  0  0  0  0  0  0  0  0  0  0  0
   64.5984   34.3353   47.7114 H   0  0  0  0  0  0  0  0  0  0  0  0
   64.6124   32.0786   46.6429 H   0  0  0  0  0  0  0  0  0  0  0  0
   62.5723   30.6401   46.7357 H   0  0  0  0  0  0  0  0  0  0  0  0
   60.5194   31.4561   47.8916 H   0  0  0  0  0  0  0  0  0  0  0  0
   58.6452   32.6011   47.9729 H   0  0  0  0  0  0  0  0  0  0  0  0
   57.4852   30.7996   46.6983 H   0  0  0  0  0  0  0  0  0  0  0  0
   58.2956   26.9896   43.1620 H   0  0  0  0  0  0  0  0  0  0  0  0
   57.7465   24.5667   42.9320 H   0  0  0  0  0  0  0  0  0  0  0  0
  1  2  1  0
  2  3  2  0
  2  4  1  0
  4  5  1  0
  5  6  2  0
  6  7  1  0
  7  8  2  0
  8  9  1  0
  9 10  2  0
  9 11  2  0
  9 12  1  0
 12 13  1  0
 13 14  1  0
 14 15  2  0
 15 16  1  0
 16 17  2  0
 17 18  1  0
 18 19  2  0
 18 20  1  0
 20 21  1  0
 21 22  1  0
 22 23  2  0
 23 24  1  0
 24 25  2  0
 25 26  1  0
 26 27  2  0
 17 28  1  0
 28 29  2  0
  8 30  1  0
 30 31  2  0
 31  5  1  0
 29 14  1  0
 27 22  1  0
  1 32  1  0
  4 33  1  0
  4 34  1  0
  6 35  1  0
  7 36  1  0
 13 37  1  0
 13 38  1  0
 15 39  1  0
 16 40  1  0
 21 41  1  0
 21 42  1  0
 23 43  1  0
 24 44  1  0
 25 45  1  0
 26 46  1  0
 27 47  1  0
 28 48  1  0
 29 49  1  0
 30 50  1  0
 31 51  1  0
M  CHG  3   1  -1  12  -1  20  -1
M  END
>  <UniqueID>  (27) 
25

>  <SMILES>  (27) 
[NH-]C(=O)Cc1ccc(S(=O)(=O)[N-]Cc2ccc(C(=O)[N-]Cc3ccccc3)cc2)cc1

>  <Energy>  (27) 
44.60564088658384

>  <Genealogy>  (27) 
[NH-]C(=O)Cc1ccc(S(=O)(=O)[N-]Cc2ccc(C(=O)[N-]Cc3ccccc3)cc2)cc1 (protonated)
[NH-]C(=O)Cc1ccc(S(=O)(=O)[N-]Cc2ccc(C(=O)[N-]Cc3ccccc3)cc2)cc1 (3D coordinates assigned)
[NH-]C(=O)Cc1ccc(S(=O)(=O)[N-]Cc2ccc(C(=O)[N-]Cc3ccccc3)cc2)cc1 (optimized conformer: 44.60564088658384 kcal/mol)

>  <smiles>  (27) 
NC(=O)Cc1ccc(S(=O)(=O)NCc2ccc(C(=O)NCc3ccccc3)cc2)cc1

>  <score_type>  (27) 
oracle

>  <origin>  (27) 
adg

>  <m_score__min__energy>  (27) 
-13.94

>  <m_primary>  (27) 
energy

$$$$
27:0
     RDKit          3D

 44 46  0  0  0  0  0  0  0  0999 V2000
   60.0188   26.7666   45.4714 H   0  0  0  0  0  0  0  0  0  0  0  0
   58.9280   26.7470   45.6120 C   0  0  0  0  0  0  0  0  0  0  0  0
   58.1780   27.8240   45.2600 N   0  0  0  0  0  0  0  0  0  0  0  0
   56.8230   27.8500   45.4210 C   0  0  0  0  0  0  0  0  0  0  0  0
   56.1240   28.8890   45.0630 N   0  0  0  0  0  0  0  0  0  0  0  0
   56.6340   30.0710   44.4260 C   0  0  0  0  0  0  0  0  0  0  0  0
   56.2380   30.3510   43.2640 O   0  0  0  0  0  0  0  0  0  0  0  0
   57.5710   30.9890   45.1120 C   0  0  0  0  0  0  0  0  0  0  0  0
   57.3100   32.3680   45.1480 C   0  0  0  0  0  0  0  0  0  0  0  0
   56.3865   32.7625   44.6991 H   0  0  0  0  0  0  0  0  0  0  0  0
   58.2190   33.2420   45.7520 C   0  0  0  0  0  0  0  0  0  0  0  0
   58.0132   34.3225   45.7664 H   0  0  0  0  0  0  0  0  0  0  0  0
   59.3910   32.7470   46.3390 C   0  0  0  0  0  0  0  0  0  0  0  0
   60.5820   33.8560   47.0200 S   0  0  0  0  0  0  0  0  0  0  0  0
   60.3360   35.2380   46.4780 O   0  0  0  0  0  0  0  0  0  0  0  0
   61.9590   33.4290   46.5910 O   0  0  0  0  0  0  0  0  0  0  0  0
   60.5010   33.8740   48.7700 N   0  0  1  0  0  0  0  0  0  0  0  0
   60.4470   34.8840   49.0420 H   0  0  0  0  0  0  0  0  0  0  0  0
   59.2420   33.2300   49.2140 C   0  0  0  0  0  0  0  0  0  0  0  0
   59.2133   32.2066   48.8117 H   0  0  0  0  0  0  0  0  0  0  0  0
   58.4123   33.8478   48.8400 H   0  0  0  0  0  0  0  0  0  0  0  0
   59.0980   33.1560   50.7520 C   0  0  0  0  0  0  0  0  0  0  0  0
   59.4412   32.1640   51.0810 H   0  0  0  0  0  0  0  0  0  0  0  0
   58.0369   33.3422   50.9742 H   0  0  0  0  0  0  0  0  0  0  0  0
   59.8340   34.1360   51.4630 O   0  0  0  0  0  0  0  0  0  0  0  0
   61.1120   33.6550   51.8340 C   0  0  0  0  0  0  0  0  0  0  0  0
   61.0456   32.5733   52.0223 H   0  0  0  0  0  0  0  0  0  0  0  0
   61.4327   34.1919   52.7389 H   0  0  0  0  0  0  0  0  0  0  0  0
   62.1580   33.9080   50.7250 C   0  0  0  0  0  0  0  0  0  0  0  0
   63.1114   33.4548   51.0341 H   0  0  0  0  0  0  0  0  0  0  0  0
   62.2399   34.9974   50.5962 H   0  0  0  0  0  0  0  0  0  0  0  0
   61.7530   33.3140   49.3570 C   0  0  0  0  0  0  0  0  0  0  0  0
   61.6150   32.2300   49.4835 H   0  0  0  0  0  0  0  0  0  0  0  0
   62.5620   33.5738   48.6584 H   0  0  0  0  0  0  0  0  0  0  0  0
   59.6320   31.3670   46.3430 C   0  0  0  0  0  0  0  0  0  0  0  0
   60.5355   30.9704   46.8292 H   0  0  0  0  0  0  0  0  0  0  0  0
   58.7310   30.4930   45.7330 C   0  0  0  0  0  0  0  0  0  0  0  0
   58.9292   29.4110   45.7380 H   0  0  0  0  0  0  0  0  0  0  0  0
   56.1730   26.7240   45.9490 C   0  0  0  0  0  0  0  0  0  0  0  0
   54.7920   26.7110   46.1110 O   0  0  0  0  0  0  0  0  0  0  0  0
   56.9280   25.6060   46.3180 C   0  0  0  0  0  0  0  0  0  0  0  0
   56.4302   24.7198   46.7386 H   0  0  0  0  0  0  0  0  0  0  0  0
   58.3140   25.6160   46.1520 C   0  0  0  0  0  0  0  0  0  0  0  0
   58.9154   24.7423   46.4435 H   0  0  0  0  0  0  0  0  0  0  0  0
  1  2  1  0
  2  3  1  0
  3  4  1  0
  4  5  2  0
  5  6  1  0
  6  7  2  0
  6  8  1  0
  8  9  2  0
  9 10  1  0
  9 11  1  0
 11 12  1  0
 11 13  2  0
 13 14  1  0
 14 15  2  0
 14 16  2  0
 14 17  1  0
 17 18  1  1
 17 19  1  0
 19 20  1  0
 19 21  1  0
 19 22  1  0
 22 23  1  0
 22 24  1  0
 22 25  1  0
 25 26  1  0
 26 27  1  0
 26 28  1  0
 26 29  1  0
 29 30  1  0
 29 31  1  0
 29 32  1  0
 32 33  1  0
 32 34  1  0
 13 35  1  0
 35 36  1  0
 35 37  2  0
 37 38  1  0
  4 39  1  0
 39 40  1  0
 39 41  2  0
 41 42  1  0
 41 43  1  0
 43 44  1  0
 43  2  2  0
 37  8  1  0
 32 17  1  0
M  CHG  3   3  -1  17   1  40  -1
M  END
>  <UniqueID>  (28) 
26

>  <SMILES>  (28) 
O=C(/N=c1\[n-]cccc1[O-])c1ccc(S(=O)(=O)[N@@H+]2CCCOCC2)cc1

>  <Energy>  (28) 
67.95310773764332

>  <Genealogy>  (28) 
O=C(N=c1[n-]cccc1[O-])c1ccc(S(=O)(=O)[NH+]2CCCOCC2)cc1 (protonated)
O=C(N=c1[n-]cccc1[O-])c1ccc(S(=O)(=O)[N@@H+]2CCCOCC2)cc1 (chirality)
O=C(/N=c1\[n-]cccc1[O-])c1ccc(S(=O)(=O)[N@@H+]2CCCOCC2)cc1 (cis-trans isomerization)
O=C(/N=c1\[n-]cccc1[O-])c1ccc(S(=O)(=O)[N@@H+]2CCCOCC2)cc1 (3D coordinates assigned)
O=C(/N=c1\[n-]cccc1[O-])c1ccc(S(=O)(=O)[N@@H+]2CCCOCC2)cc1 (nonaromatic ring conformer: 67.95310773764332 kcal/mol)

>  <smiles>  (28) 
O=C(N=c1[nH]cccc1O)c1ccc(S(=O)(=O)N2CCCOCC2)cc1

>  <score_type>  (28) 
oracle

>  <origin>  (28) 
adg

>  <m_score__min__energy>  (28) 
-10.4

>  <m_primary>  (28) 
energy

$$$$
28:0
     RDKit          3D

 54 57  0  0  0  0  0  0  0  0999 V2000
   57.1498   21.9165   45.0951 H   0  0  0  0  0  0  0  0  0  0  0  0
   56.5680   22.8350   45.2620 C   0  0  0  0  0  0  0  0  0  0  0  0
   57.0540   23.8090   46.0790 N   0  0  0  0  0  0  0  0  0  0  0  0
   56.3710   24.9660   46.3100 C   0  0  0  0  0  0  0  0  0  0  0  0
   56.8500   25.8890   47.0950 N   0  0  0  0  0  0  0  0  0  0  0  0
   58.2290   26.2470   47.2810 C   0  0  0  0  0  0  0  0  0  0  0  0
   58.9130   25.7150   48.1980 O   0  0  0  0  0  0  0  0  0  0  0  0
   58.8590   27.2340   46.3700 C   0  0  0  0  0  0  0  0  0  0  0  0
   60.2600   27.2950   46.2400 C   0  0  0  0  0  0  0  0  0  0  0  0
   60.8952   26.6293   46.8428 H   0  0  0  0  0  0  0  0  0  0  0  0
   60.8470   28.1970   45.3490 C   0  0  0  0  0  0  0  0  0  0  0  0
   61.9409   28.2222   45.2360 H   0  0  0  0  0  0  0  0  0  0  0  0
   60.0510   29.0660   44.6020 C   0  0  0  0  0  0  0  0  0  0  0  0
   60.5194   29.7639   43.8924 H   0  0  0  0  0  0  0  0  0  0  0  0
   58.6610   29.0540   44.7510 C   0  0  0  0  0  0  0  0  0  0  0  0
   57.8700   29.9620   43.9750 N   0  0  0  0  0  0  0  0  0  0  0  0
   57.1160   31.0610   44.5080 C   0  0  0  0  0  0  0  0  0  0  0  0
   55.8600   30.9770   44.5960 O   0  0  0  0  0  0  0  0  0  0  0  0
   57.8140   32.2630   45.0140 C   0  0  0  0  0  0  0  0  0  0  0  0
   57.6140   33.5130   44.4030 C   0  0  0  0  0  0  0  0  0  0  0  0
   56.9304   33.5993   43.5456 H   0  0  0  0  0  0  0  0  0  0  0  0
   58.2780   34.6460   44.8780 C   0  0  0  0  0  0  0  0  0  0  0  0
   58.1158   35.6201   44.3934 H   0  0  0  0  0  0  0  0  0  0  0  0
   59.1470   34.5460   45.9660 C   0  0  0  0  0  0  0  0  0  0  0  0
   59.6737   35.4411   46.3285 H   0  0  0  0  0  0  0  0  0  0  0  0
   59.3530   33.3120   46.6000 C   0  0  0  0  0  0  0  0  0  0  0  0
   60.2990   33.2290   47.6820 N   0  0  0  0  0  0  0  0  0  0  0  0
   59.9220   32.9360   48.6110 H   0  0  0  0  0  0  0  0  0  0  0  0
   61.7060   33.5060   47.5560 C   0  0  0  0  0  0  0  0  0  0  0  0
   62.2130   33.6950   46.4160 O   0  0  0  0  0  0  0  0  0  0  0  0
   62.5820   33.5660   48.7490 C   0  0  0  0  0  0  0  0  0  0  0  0
   62.0930   34.1090   49.9480 C   0  0  0  0  0  0  0  0  0  0  0  0
   61.0603   34.4849   49.9951 H   0  0  0  0  0  0  0  0  0  0  0  0
   62.9070   34.1760   51.0820 C   0  0  0  0  0  0  0  0  0  0  0  0
   62.5130   34.6025   52.0163 H   0  0  0  0  0  0  0  0  0  0  0  0
   64.2210   33.7020   51.0310 C   0  0  0  0  0  0  0  0  0  0  0  0
   64.8588   33.7561   51.9256 H   0  0  0  0  0  0  0  0  0  0  0  0
   64.7280   33.1580   49.8430 C   0  0  0  0  0  0  0  0  0  0  0  0
   66.1540   32.6960   49.7720 C   0  0  0  0  0  0  0  0  0  0  0  0
   66.5491   32.5680   50.7906 H   0  0  0  0  0  0  0  0  0  0  0  0
   66.2023   31.7363   49.2367 H   0  0  0  0  0  0  0  0  0  0  0  0
   66.7559   33.4451   49.2367 H   0  0  0  0  0  0  0  0  0  0  0  0
   63.9140   33.1100   48.6990 C   0  0  0  0  0  0  0  0  0  0  0  0
   64.3199   32.7132   47.7568 H   0  0  0  0  0  0  0  0  0  0  0  0
   58.6930   32.1690   46.1090 C   0  0  0  0  0  0  0  0  0  0  0  0
   58.8662   31.1931   46.5861 H   0  0  0  0  0  0  0  0  0  0  0  0
   58.0650   28.1190   45.6170 C   0  0  0  0  0  0  0  0  0  0  0  0
   56.9693   28.0794   45.7063 H   0  0  0  0  0  0  0  0  0  0  0  0
   55.1250   25.1660   45.6960 C   0  0  0  0  0  0  0  0  0  0  0  0
   54.4060   26.3410   45.9080 O   0  0  0  0  0  0  0  0  0  0  0  0
   54.6090   24.1740   44.8560 C   0  0  0  0  0  0  0  0  0  0  0  0
   53.6334   24.3184   44.3688 H   0  0  0  0  0  0  0  0  0  0  0  0
   55.3320   23.0010   44.6360 C   0  0  0  0  0  0  0  0  0  0  0  0
   54.9323   22.2163   43.9768 H   0  0  0  0  0  0  0  0  0  0  0  0
  1  2  1  0
  2  3  1  0
  3  4  1  0
  4  5  2  0
  5  6  1  0
  6  7  2  0
  6  8  1  0
  8  9  2  0
  9 10  1  0
  9 11  1  0
 11 12  1  0
 11 13  2  0
 13 14  1  0
 13 15  1  0
 15 16  1  0
 16 17  1  0
 17 18  2  0
 17 19  1  0
 19 20  2  0
 20 21  1  0
 20 22  1  0
 22 23  1  0
 22 24  2  0
 24 25  1  0
 24 26  1  0
 26 27  1  0
 27 28  1  0
 27 29  1  0
 29 30  2  0
 29 31  1  0
 31 32  2  0
 32 33  1  0
 32 34  1  0
 34 35  1  0
 34 36  2  0
 36 37  1  0
 36 38  1  0
 38 39  1  0
 39 40  1  0
 39 41  1  0
 39 42  1  0
 38 43  2  0
 43 44  1  0
 26 45  2  0
 45 46  1  0
 15 47  2  0
 47 48  1  0
  4 49  1  0
 49 50  1  0
 49 51  2  0
 51 52  1  0
 51 53  1  0
 53 54  1  0
 53  2  2  0
 47  8  1  0
 45 19  1  0
 43 31  1  0
M  CHG  3   3  -1  16  -1  50  -1
M  END
>  <UniqueID>  (29) 
27

>  <SMILES>  (29) 
Cc1cccc(C(=O)Nc2cccc(C(=O)[N-]c3cccc(C(=O)/N=c4\[n-]cccc4[O-])c3)c2)c1

>  <Energy>  (29) 
75.3087404331993

>  <Genealogy>  (29) 
Cc1cccc(C(=O)Nc2cccc(C(=O)[N-]c3cccc(C(=O)N=c4[n-]cccc4[O-])c3)c2)c1 (protonated)
Cc1cccc(C(=O)Nc2cccc(C(=O)[N-]c3cccc(C(=O)/N=c4\[n-]cccc4[O-])c3)c2)c1 (cis-trans isomerization)
Cc1cccc(C(=O)Nc2cccc(C(=O)[N-]c3cccc(C(=O)/N=c4\[n-]cccc4[O-])c3)c2)c1 (3D coordinates assigned)
Cc1cccc(C(=O)Nc2cccc(C(=O)[N-]c3cccc(C(=O)/N=c4\[n-]cccc4[O-])c3)c2)c1 (optimized conformer: 75.3087404331993 kcal/mol)

>  <smiles>  (29) 
Cc1cccc(C(=O)Nc2cccc(C(=O)Nc3cccc(C(=O)N=c4[nH]cccc4O)c3)c2)c1

>  <score_type>  (29) 
oracle

>  <origin>  (29) 
adg

>  <m_score__min__energy>  (29) 
-16.510000000000002

>  <m_primary>  (29) 
energy

$$$$
29:0
     RDKit          3D

 83 87  0  0  0  0  0  0  0  0999 V2000
   57.1030   30.0250   45.7860 O   0  0  0  0  0  0  0  0  0  0  0  0
   58.2650   30.1290   45.3080 C   0  0  0  0  0  0  0  0  0  0  0  0
   59.3950   29.6430   46.0410 N   0  0  0  0  0  0  0  0  0  0  0  0
   59.2670   29.0730   47.3870 C   0  0  2  0  0  0  0  0  0  0  0  0
   59.3770   30.1790   48.4620 C   0  0  0  0  0  0  0  0  0  0  0  0
   58.8480   31.5610   48.0300 C   0  0  0  0  0  0  0  0  0  0  0  0
   58.3940   32.3780   49.2430 C   0  0  0  0  0  0  0  0  0  0  0  0
   59.3020   33.5000   49.4560 N   0  0  0  0  0  0  0  0  0  0  0  0
   60.6800   33.3420   49.8090 C   0  0  0  0  0  0  0  0  0  0  0  0
   61.0270   33.4990   51.0090 O   0  0  0  0  0  0  0  0  0  0  0  0
   61.6880   33.0390   48.7520 C   0  0  0  0  0  0  0  0  0  0  0  0
   62.0740   34.0740   47.8730 C   0  0  0  0  0  0  0  0  0  0  0  0
   63.0470   33.8590   46.8950 C   0  0  0  0  0  0  0  0  0  0  0  0
   63.6670   32.6180   46.7860 C   0  0  0  0  0  0  0  0  0  0  0  0
   63.3080   31.5820   47.6460 C   0  0  0  0  0  0  0  0  0  0  0  0
   62.2930   31.7580   48.5990 C   0  0  0  0  0  0  0  0  0  0  0  0
   62.0180   30.6720   49.4940 N   0  0  0  0  0  0  0  0  0  0  0  0
   62.4760   30.5850   50.8590 C   0  0  0  0  0  0  0  0  0  0  0  0
   63.7160   31.1750   51.1670 C   0  0  0  0  0  0  0  0  0  0  0  0
   64.2780   31.0460   52.4360 C   0  0  0  0  0  0  0  0  0  0  0  0
   63.6300   30.2950   53.4120 C   0  0  0  0  0  0  0  0  0  0  0  0
   62.4190   29.6700   53.1200 C   0  0  0  0  0  0  0  0  0  0  0  0
   61.8160   29.8180   51.8600 C   0  0  0  0  0  0  0  0  0  0  0  0
   60.3190   28.8670   51.5380 S   0  0  0  0  0  0  0  0  0  0  0  0
   59.1830   30.2090   51.9100 C   0  0  0  0  0  0  0  0  0  0  0  0
   59.6560   31.3700   52.5380 C   0  0  0  0  0  0  0  0  0  0  0  0
   58.7730   32.4080   52.8530 C   0  0  0  0  0  0  0  0  0  0  0  0
   57.4120   32.2840   52.5570 C   0  0  0  0  0  0  0  0  0  0  0  0
   56.9350   31.1200   51.9490 C   0  0  0  0  0  0  0  0  0  0  0  0
   57.8180   30.0830   51.6330 C   0  0  0  0  0  0  0  0  0  0  0  0
   60.2850   27.9700   47.5900 C   0  0  0  0  0  0  0  0  0  0  0  0
   60.8100   27.8230   48.7260 O   0  0  0  0  0  0  0  0  0  0  0  0
   60.6640   27.0620   46.5430 N   0  0  0  0  0  0  0  0  0  0  0  0
   60.0620   25.7620   46.2530 C   0  0  0  0  0  0  0  0  0  0  0  0
   58.5680   25.8650   46.1740 C   0  0  0  0  0  0  0  0  0  0  0  0
   57.7500   24.8500   46.6920 C   0  0  0  0  0  0  0  0  0  0  0  0
   56.3650   25.0030   46.6280 C   0  0  0  0  0  0  0  0  0  0  0  0
   55.6080   24.1150   47.1020 O   0  0  0  0  0  0  0  0  0  0  0  0
   55.8290   26.1500   46.0390 C   0  0  0  0  0  0  0  0  0  0  0  0
   54.4540   26.3380   45.9630 O   0  0  0  0  0  0  0  0  0  0  0  0
   56.7020   27.1110   45.5250 C   0  0  0  0  0  0  0  0  0  0  0  0
   58.0190   26.9380   45.6080 O   0  0  0  0  0  0  0  0  0  0  0  0
   58.4720   30.7270   44.0590 O   0  0  0  0  0  0  0  0  0  0  0  0
   57.8760   31.9640   43.6730 C   0  0  0  0  0  0  0  0  0  0  0  0
   58.2090   33.0340   44.6760 C   0  0  0  0  0  0  0  0  0  0  0  0
   57.4210   33.2080   45.8270 C   0  0  0  0  0  0  0  0  0  0  0  0
   57.7600   34.1850   46.7690 C   0  0  0  0  0  0  0  0  0  0  0  0
   58.8830   34.9930   46.5700 C   0  0  0  0  0  0  0  0  0  0  0  0
   59.6730   34.8210   45.4300 C   0  0  0  0  0  0  0  0  0  0  0  0
   59.3420   33.8420   44.4870 C   0  0  0  0  0  0  0  0  0  0  0  0
   60.3390   29.7700   45.6120 H   0  0  0  0  0  0  0  0  0  0  0  0
   58.2693   28.6219   47.4928 H   0  0  0  0  0  0  0  0  0  0  0  0
   58.8057   29.8554   49.3445 H   0  0  0  0  0  0  0  0  0  0  0  0
   60.4510   30.3090   48.6612 H   0  0  0  0  0  0  0  0  0  0  0  0
   59.6487   32.1058   47.5085 H   0  0  0  0  0  0  0  0  0  0  0  0
   57.9853   31.4136   47.3637 H   0  0  0  0  0  0  0  0  0  0  0  0
   57.3779   32.7601   49.0654 H   0  0  0  0  0  0  0  0  0  0  0  0
   58.3994   31.7342   50.1349 H   0  0  0  0  0  0  0  0  0  0  0  0
   61.6016   35.0636   47.9598 H   0  0  0  0  0  0  0  0  0  0  0  0
   63.3242   34.6728   46.2088 H   0  0  0  0  0  0  0  0  0  0  0  0
   64.4404   32.4548   46.0210 H   0  0  0  0  0  0  0  0  0  0  0  0
   63.8266   30.6144   47.5770 H   0  0  0  0  0  0  0  0  0  0  0  0
   61.6600   29.8000   49.0450 H   0  0  0  0  0  0  0  0  0  0  0  0
   64.2502   31.7470   50.3940 H   0  0  0  0  0  0  0  0  0  0  0  0
   65.2344   31.5382   52.6661 H   0  0  0  0  0  0  0  0  0  0  0  0
   64.0734   30.1947   54.4136 H   0  0  0  0  0  0  0  0  0  0  0  0
   61.9286   29.0523   53.8868 H   0  0  0  0  0  0  0  0  0  0  0  0
   60.7241   31.4647   52.7835 H   0  0  0  0  0  0  0  0  0  0  0  0
   59.1496   33.3228   53.3340 H   0  0  0  0  0  0  0  0  0  0  0  0
   56.7181   33.1015   52.8024 H   0  0  0  0  0  0  0  0  0  0  0  0
   55.8641   31.0194   51.7188 H   0  0  0  0  0  0  0  0  0  0  0  0
   57.4372   29.1636   51.1643 H   0  0  0  0  0  0  0  0  0  0  0  0
   60.4482   25.3937   45.2911 H   0  0  0  0  0  0  0  0  0  0  0  0
   60.3221   25.0673   47.0653 H   0  0  0  0  0  0  0  0  0  0  0  0
   58.1931   23.9489   47.1410 H   0  0  0  0  0  0  0  0  0  0  0  0
   56.2987   28.0167   45.0485 H   0  0  0  0  0  0  0  0  0  0  0  0
   58.2590   32.2596   42.6851 H   0  0  0  0  0  0  0  0  0  0  0  0
   56.7840   31.8391   43.6294 H   0  0  0  0  0  0  0  0  0  0  0  0
   56.5360   32.5746   45.9873 H   0  0  0  0  0  0  0  0  0  0  0  0
   57.1412   34.3177   47.6687 H   0  0  0  0  0  0  0  0  0  0  0  0
   59.1448   35.7636   47.3100 H   0  0  0  0  0  0  0  0  0  0  0  0
   60.5570   35.4568   45.2739 H   0  0  0  0  0  0  0  0  0  0  0  0
   59.9709   33.7047   43.5950 H   0  0  0  0  0  0  0  0  0  0  0  0
  1  2  2  0
  2  3  1  0
  3  4  1  0
  4  5  1  0
  5  6  1  0
  6  7  1  0
  7  8  1  0
  8  9  1  0
  9 10  2  0
  9 11  1  0
 11 12  2  0
 12 13  1  0
 13 14  2  0
 14 15  1  0
 15 16  2  0
 16 17  1  0
 17 18  1  0
 18 19  2  0
 19 20  1  0
 20 21  2  0
 21 22  1  0
 22 23  2  0
 23 24  1  0
 24 25  1  0
 25 26  2  0
 26 27  1  0
 27 28  2  0
 28 29  1  0
 29 30  2  0
  4 31  1  0
 31 32  2  0
 31 33  1  0
 33 34  1  0
 34 35  1  0
 35 36  2  0
 36 37  1  0
 37 38  2  0
 37 39  1  0
 39 40  1  0
 39 41  2  0
 41 42  1  0
  2 43  1  0
 43 44  1  0
 44 45  1  0
 45 46  2  0
 46 47  1  0
 47 48  2  0
 48 49  1  0
 49 50  2  0
 16 11  1  0
 23 18  1  0
 30 25  1  0
 42 35  1  0
 50 45  1  0
  3 51  1  0
  4 52  1  6
  5 53  1  0
  5 54  1  0
  6 55  1  0
  6 56  1  0
  7 57  1  0
  7 58  1  0
 12 59  1  0
 13 60  1  0
 14 61  1  0
 15 62  1  0
 17 63  1  0
 19 64  1  0
 20 65  1  0
 21 66  1  0
 22 67  1  0
 26 68  1  0
 27 69  1  0
 28 70  1  0
 29 71  1  0
 30 72  1  0
 34 73  1  0
 34 74  1  0
 36 75  1  0
 41 76  1  0
 44 77  1  0
 44 78  1  0
 46 79  1  0
 47 80  1  0
 48 81  1  0
 49 82  1  0
 50 83  1  0
M  CHG  3   8  -1  33  -1  40  -1
M  END
>  <UniqueID>  (30) 
28

>  <SMILES>  (30) 
O=C(N[C@H](CCC[N-]C(=O)c1ccccc1Nc1ccccc1Sc1ccccc1)C(=O)[N-]Cc1cc(=O)c([O-])co1)OCc1ccccc1

>  <Energy>  (30) 
93.6711632335572

>  <Genealogy>  (30) 
O=C(NC(CCC[N-]C(=O)c1ccccc1Nc1ccccc1Sc1ccccc1)C(=O)[N-]Cc1cc(=O)c([O-])co1)OCc1ccccc1 (protonated)
O=C(N[C@H](CCC[N-]C(=O)c1ccccc1Nc1ccccc1Sc1ccccc1)C(=O)[N-]Cc1cc(=O)c([O-])co1)OCc1ccccc1 (chirality)
O=C(N[C@H](CCC[N-]C(=O)c1ccccc1Nc1ccccc1Sc1ccccc1)C(=O)[N-]Cc1cc(=O)c([O-])co1)OCc1ccccc1 (3D coordinates assigned)
O=C(N[C@H](CCC[N-]C(=O)c1ccccc1Nc1ccccc1Sc1ccccc1)C(=O)[N-]Cc1cc(=O)c([O-])co1)OCc1ccccc1 (optimized conformer: 93.6711632335572 kcal/mol)

>  <smiles>  (30) 
O=C(NC(CCCNC(=O)c1ccccc1Nc1ccccc1Sc1ccccc1)C(=O)NCc1cc(=O)c(O)co1)OCc1ccccc1

>  <score_type>  (30) 
oracle

>  <origin>  (30) 
adg

>  <m_score__min__energy>  (30) 
-16.370000000000001

>  <m_primary>  (30) 
energy

$$$$
30:0
     RDKit          3D

 49 50  0  0  0  0  0  0  0  0999 V2000
   59.2880   33.6710   50.8970 N   0  0  0  0  0  0  0  0  0  0  0  0
   58.2390   32.7310   51.3090 C   0  0  2  0  0  0  0  0  0  0  0  0
   58.0480   32.7050   52.8400 C   0  0  0  0  0  0  0  0  0  0  0  0
   58.8980   34.0370   53.6760 S   0  0  0  0  0  0  0  0  0  0  0  0
   58.5080   31.3560   50.7560 C   0  0  0  0  0  0  0  0  0  0  0  0
   57.6380   30.4530   50.8880 O   0  0  0  0  0  0  0  0  0  0  0  0
   59.7570   31.0670   50.1170 N   0  0  0  0  0  0  0  0  0  0  0  0
   60.0960   31.4950   48.7640 C   0  0  2  0  0  0  0  0  0  0  0  0
   58.8570   31.4080   47.8550 C   0  0  0  0  0  0  0  0  0  0  0  0
   58.7720   32.5970   46.9310 C   0  0  0  0  0  0  0  0  0  0  0  0
   57.7660   32.6680   45.9530 C   0  0  0  0  0  0  0  0  0  0  0  0
   57.7230   33.7460   45.0650 C   0  0  0  0  0  0  0  0  0  0  0  0
   58.6820   34.7590   45.1450 C   0  0  0  0  0  0  0  0  0  0  0  0
   59.6840   34.6960   46.1190 C   0  0  0  0  0  0  0  0  0  0  0  0
   59.7340   33.6180   47.0070 C   0  0  0  0  0  0  0  0  0  0  0  0
   61.2110   30.6140   48.2460 C   0  0  0  0  0  0  0  0  0  0  0  0
   62.4010   30.8920   48.5540 O   0  0  0  0  0  0  0  0  0  0  0  0
   60.9690   29.4690   47.4160 N   0  0  0  0  0  0  0  0  0  0  0  0
   60.4610   28.1730   47.8610 C   0  0  0  0  0  0  0  0  0  0  0  0
   60.0470   27.3160   46.6570 C   0  0  0  0  0  0  0  0  0  0  0  0
   58.7780   27.8450   46.0420 C   0  0  0  0  0  0  0  0  0  0  0  0
   58.7960   29.0450   45.3090 C   0  0  0  0  0  0  0  0  0  0  0  0
   57.6140   29.5580   44.7710 C   0  0  0  0  0  0  0  0  0  0  0  0
   56.3990   28.8850   44.9630 C   0  0  0  0  0  0  0  0  0  0  0  0
   55.2160   29.3900   44.4260 O   0  0  0  0  0  0  0  0  0  0  0  0
   56.3740   27.6960   45.7040 C   0  0  0  0  0  0  0  0  0  0  0  0
   55.1730   27.0240   45.9050 O   0  0  0  0  0  0  0  0  0  0  0  0
   57.5580   27.1800   46.2440 C   0  0  0  0  0  0  0  0  0  0  0  0
   60.1460   33.1230   50.6540 H   0  0  0  0  0  0  0  0  0  0  0  0
   58.9950   34.1820   50.0340 H   0  0  0  0  0  0  0  0  0  0  0  0
   57.2892   33.0879   50.8841 H   0  0  0  0  0  0  0  0  0  0  0  0
   56.9731   32.7832   53.0600 H   0  0  0  0  0  0  0  0  0  0  0  0
   58.4763   31.7609   53.2078 H   0  0  0  0  0  0  0  0  0  0  0  0
   60.4331   32.5421   48.7704 H   0  0  0  0  0  0  0  0  0  0  0  0
   58.9180   30.4895   47.2527 H   0  0  0  0  0  0  0  0  0  0  0  0
   57.9594   31.3969   48.4908 H   0  0  0  0  0  0  0  0  0  0  0  0
   57.0095   31.8722   45.8860 H   0  0  0  0  0  0  0  0  0  0  0  0
   56.9327   33.7972   44.3016 H   0  0  0  0  0  0  0  0  0  0  0  0
   58.6491   35.6051   44.4428 H   0  0  0  0  0  0  0  0  0  0  0  0
   60.4347   35.4972   46.1862 H   0  0  0  0  0  0  0  0  0  0  0  0
   60.5280   33.5689   47.7668 H   0  0  0  0  0  0  0  0  0  0  0  0
   61.2477   27.6498   48.4244 H   0  0  0  0  0  0  0  0  0  0  0  0
   59.5813   28.3363   48.5009 H   0  0  0  0  0  0  0  0  0  0  0  0
   60.8495   27.3372   45.9050 H   0  0  0  0  0  0  0  0  0  0  0  0
   59.8730   26.2849   46.9983 H   0  0  0  0  0  0  0  0  0  0  0  0
   59.7446   29.5814   45.1589 H   0  0  0  0  0  0  0  0  0  0  0  0
   57.6361   30.4943   44.1940 H   0  0  0  0  0  0  0  0  0  0  0  0
   54.3180   28.9620   44.6250 H   0  0  0  0  0  0  0  0  0  0  0  0
   57.5324   26.2491   46.8294 H   0  0  0  0  0  0  0  0  0  0  0  0
  1  2  1  0
  2  3  1  0
  3  4  1  0
  2  5  1  0
  5  6  2  0
  5  7  1  0
  7  8  1  0
  8  9  1  0
  9 10  1  0
 10 11  2  0
 11 12  1  0
 12 13  2  0
 13 14  1  0
 14 15  2  0
  8 16  1  0
 16 17  2  0
 16 18  1  0
 18 19  1  0
 19 20  1  0
 20 21  1  0
 21 22  2  0
 22 23  1  0
 23 24  2  0
 24 25  1  0
 24 26  1  0
 26 27  1  0
 26 28  2  0
 15 10  1  0
 28 21  1  0
  1 29  1  0
  1 30  1  0
  2 31  1  6
  3 32  1  0
  3 33  1  0
  8 34  1  1
  9 35  1  0
  9 36  1  0
 11 37  1  0
 12 38  1  0
 13 39  1  0
 14 40  1  0
 15 41  1  0
 19 42  1  0
 19 43  1  0
 20 44  1  0
 20 45  1  0
 22 46  1  0
 23 47  1  0
 25 48  1  0
 28 49  1  0
M  CHG  4   4  -1   7  -1  18  -1  27  -1
M  END
>  <UniqueID>  (31) 
29

>  <SMILES>  (31) 
N[C@H](C[S-])C(=O)[N-][C@H](Cc1ccccc1)C(=O)[N-]CCc1ccc(O)c([O-])c1

>  <Energy>  (31) 
38.35354242950387

>  <Genealogy>  (31) 
NC(C[S-])C(=O)[N-]C(Cc1ccccc1)C(=O)[N-]CCc1ccc(O)c([O-])c1 (protonated)
N[C@H](C[S-])C(=O)[N-][C@H](Cc1ccccc1)C(=O)[N-]CCc1ccc(O)c([O-])c1 (chirality)
N[C@H](C[S-])C(=O)[N-][C@H](Cc1ccccc1)C(=O)[N-]CCc1ccc(O)c([O-])c1 (3D coordinates assigned)
N[C@H](C[S-])C(=O)[N-][C@H](Cc1ccccc1)C(=O)[N-]CCc1ccc(O)c([O-])c1 (optimized conformer: 38.35354242950387 kcal/mol)

>  <smiles>  (31) 
NC(CS)C(=O)NC(Cc1ccccc1)C(=O)NCCc1ccc(O)c(O)c1

>  <score_type>  (31) 
oracle

>  <origin>  (31) 
adg

>  <m_score__min__energy>  (31) 
-13.58

>  <m_primary>  (31) 
energy

$$$$
31:0
     RDKit          3D

 21 22  0  0  0  0  0  0  0  0999 V2000
   55.4860   30.5330   55.8110 O   0  0  0  0  0  0  0  0  0  0  0  0
   54.5230   30.0440   55.1660 C   0  0  0  0  0  0  0  0  0  0  0  0
   53.5850   29.2760   55.8420 O   0  0  0  0  0  0  0  0  0  0  0  0
   54.3930   30.2840   53.7110 C   0  0  0  0  0  0  0  0  0  0  0  0
   55.3290   29.9970   52.7080 C   0  0  0  0  0  0  0  0  0  0  0  0
   56.6790   29.3710   52.8850 C   0  0  0  0  0  0  0  0  0  0  0  0
   57.4100   29.4480   51.6910 O   0  0  0  0  0  0  0  0  0  0  0  0
   54.8560   30.3440   51.5260 O   0  0  0  0  0  0  0  0  0  0  0  0
   53.6600   30.8480   51.7030 C   0  0  0  0  0  0  0  0  0  0  0  0
   52.8000   31.3410   50.7260 C   0  0  0  0  0  0  0  0  0  0  0  0
   51.5500   31.8380   51.1340 C   0  0  0  0  0  0  0  0  0  0  0  0
   50.6670   32.3380   50.1850 O   0  0  0  0  0  0  0  0  0  0  0  0
   51.1930   31.8300   52.5010 C   0  0  0  0  0  0  0  0  0  0  0  0
   49.9550   32.3230   52.8980 O   0  0  0  0  0  0  0  0  0  0  0  0
   52.0830   31.3250   53.4680 C   0  0  0  0  0  0  0  0  0  0  0  0
   53.3190   30.8380   53.0330 C   0  0  0  0  0  0  0  0  0  0  0  0
   57.2241   29.9019   53.6794 H   0  0  0  0  0  0  0  0  0  0  0  0
   56.5505   28.3135   53.1590 H   0  0  0  0  0  0  0  0  0  0  0  0
   56.7810   29.7670   50.9930 H   0  0  0  0  0  0  0  0  0  0  0  0
   53.0902   31.3417   49.6650 H   0  0  0  0  0  0  0  0  0  0  0  0
   51.8137   31.3140   54.5345 H   0  0  0  0  0  0  0  0  0  0  0  0
  1  2  2  0
  2  3  1  0
  2  4  1  0
  4  5  2  0
  5  6  1  0
  6  7  1  0
  5  8  1  0
  8  9  1  0
  9 10  2  0
 10 11  1  0
 11 12  1  0
 11 13  2  0
 13 14  1  0
 13 15  1  0
 15 16  2  0
 16  4  1  0
 16  9  1  0
  6 17  1  0
  6 18  1  0
  7 19  1  0
 10 20  1  0
 15 21  1  0
M  CHG  3   3  -1  12  -1  14  -1
M  END
>  <UniqueID>  (32) 
30

>  <SMILES>  (32) 
O=C([O-])c1c(CO)oc2cc([O-])c([O-])cc12

>  <Energy>  (32) 
56.73865692224559

>  <Genealogy>  (32) 
O=C([O-])c1c(CO)oc2cc([O-])c([O-])cc12 (protonated)
O=C([O-])c1c(CO)oc2cc([O-])c([O-])cc12 (3D coordinates assigned)
O=C([O-])c1c(CO)oc2cc([O-])c([O-])cc12 (optimized conformer: 56.73865692224559 kcal/mol)

>  <smiles>  (32) 
O=C(O)c1c(CO)oc2cc(O)c(O)cc12

>  <score_type>  (32) 
oracle

>  <origin>  (32) 
adg

>  <m_score__min__energy>  (32) 
-13.77

>  <m_primary>  (32) 
energy

$$$$
32:0
     RDKit          3D

 45 48  0  0  0  0  0  0  0  0999 V2000
   64.7540   32.8530   49.8960 C   0  0  0  0  0  0  0  0  0  0  0  0
   64.4150   32.3630   48.6020 O   0  0  0  0  0  0  0  0  0  0  0  0
   63.1290   32.4230   48.0450 C   0  0  0  0  0  0  0  0  0  0  0  0
   62.4920   31.3010   47.4900 C   0  0  0  0  0  0  0  0  0  0  0  0
   61.2140   31.4130   46.9370 C   0  0  0  0  0  0  0  0  0  0  0  0
   60.5420   32.6510   46.9270 C   0  0  0  0  0  0  0  0  0  0  0  0
   59.1880   32.7490   46.3170 C   0  0  0  0  0  0  0  0  0  0  0  0
   58.3910   33.9010   46.3350 C   0  0  0  0  0  0  0  0  0  0  0  0
   56.9620   33.5720   45.5090 S   0  0  0  0  0  0  0  0  0  0  0  0
   57.4070   31.9950   45.1660 C   0  0  0  0  0  0  0  0  0  0  0  0
   56.6690   31.1730   44.4830 N   0  0  0  0  0  0  0  0  0  0  0  0
   56.4820   29.7750   44.7530 C   0  0  0  0  0  0  0  0  0  0  0  0
   55.3950   29.3380   45.2230 O   0  0  0  0  0  0  0  0  0  0  0  0
   57.6310   28.8360   44.5430 C   0  0  0  0  0  0  0  0  0  0  0  0
   57.6450   27.7230   45.5990 C   0  0  0  0  0  0  0  0  0  0  0  0
   58.5390   28.0690   46.7530 C   0  0  0  0  0  0  0  0  0  0  0  0
   59.4790   27.1800   47.1720 N   0  0  0  0  0  0  0  0  0  0  0  0
   60.2540   27.4270   48.2600 C   0  0  0  0  0  0  0  0  0  0  0  0
   61.1140   26.5750   48.6100 O   0  0  0  0  0  0  0  0  0  0  0  0
   60.0820   28.6220   48.9780 C   0  0  0  0  0  0  0  0  0  0  0  0
   60.8510   28.9370   50.1140 C   0  0  0  0  0  0  0  0  0  0  0  0
   60.6350   30.1400   50.7920 C   0  0  0  0  0  0  0  0  0  0  0  0
   59.6560   31.0340   50.3460 C   0  0  0  0  0  0  0  0  0  0  0  0
   58.8870   30.7280   49.2190 C   0  0  0  0  0  0  0  0  0  0  0  0
   59.0970   29.5270   48.5320 C   0  0  0  0  0  0  0  0  0  0  0  0
   58.3490   29.2290   47.4370 N   0  0  0  0  0  0  0  0  0  0  0  0
   58.6280   31.6950   45.6590 N   0  0  0  0  0  0  0  0  0  0  0  0
   61.1810   33.7690   47.4980 C   0  0  0  0  0  0  0  0  0  0  0  0
   62.4610   33.6510   48.0470 C   0  0  0  0  0  0  0  0  0  0  0  0
   64.3053   32.2044   50.6628 H   0  0  0  0  0  0  0  0  0  0  0  0
   65.8478   32.8555   50.0122 H   0  0  0  0  0  0  0  0  0  0  0  0
   64.3706   33.8775   50.0122 H   0  0  0  0  0  0  0  0  0  0  0  0
   63.0031   30.3270   47.4908 H   0  0  0  0  0  0  0  0  0  0  0  0
   60.7277   30.5258   46.5052 H   0  0  0  0  0  0  0  0  0  0  0  0
   58.6545   34.8582   46.8086 H   0  0  0  0  0  0  0  0  0  0  0  0
   57.5439   28.3814   43.5451 H   0  0  0  0  0  0  0  0  0  0  0  0
   58.5662   29.4084   44.6311 H   0  0  0  0  0  0  0  0  0  0  0  0
   56.6215   27.5725   45.9728 H   0  0  0  0  0  0  0  0  0  0  0  0
   58.0296   26.8063   45.1281 H   0  0  0  0  0  0  0  0  0  0  0  0
   61.6218   28.2366   50.4681 H   0  0  0  0  0  0  0  0  0  0  0  0
   61.2371   30.3846   51.6795 H   0  0  0  0  0  0  0  0  0  0  0  0
   59.4907   31.9797   50.8830 H   0  0  0  0  0  0  0  0  0  0  0  0
   58.1162   31.4320   48.8721 H   0  0  0  0  0  0  0  0  0  0  0  0
   60.6687   34.7423   47.5119 H   0  0  0  0  0  0  0  0  0  0  0  0
   62.9482   34.5344   48.4856 H   0  0  0  0  0  0  0  0  0  0  0  0
  1  2  1  0
  2  3  1  0
  3  4  2  0
  4  5  1  0
  5  6  2  0
  6  7  1  0
  7  8  2  0
  8  9  1  0
  9 10  1  0
 10 11  2  3
 11 12  1  0
 12 13  2  0
 12 14  1  0
 14 15  1  0
 15 16  1  0
 16 17  2  0
 17 18  1  0
 18 19  2  0
 18 20  1  0
 20 21  2  0
 21 22  1  0
 22 23  2  0
 23 24  1  0
 24 25  2  0
 25 26  1  0
 10 27  1  0
  6 28  1  0
 28 29  2  0
 29  3  1  0
 27  7  1  0
 26 16  1  0
 25 20  1  0
  1 30  1  0
  1 31  1  0
  1 32  1  0
  4 33  1  0
  5 34  1  0
  8 35  1  0
 14 36  1  0
 14 37  1  0
 15 38  1  0
 15 39  1  0
 21 40  1  0
 22 41  1  0
 23 42  1  0
 24 43  1  0
 28 44  1  0
 29 45  1  0
M  CHG  2  26  -1  27  -1
M  END
>  <UniqueID>  (33) 
31

>  <SMILES>  (33) 
COc1ccc(-c2csc(=NC(=O)CCc3nc(=O)c4ccccc4[n-]3)[n-]2)cc1

>  <Energy>  (33) 
82.47726852668652

>  <Genealogy>  (33) 
COc1ccc(-c2csc(=NC(=O)CCc3nc(=O)c4ccccc4[n-]3)[n-]2)cc1 (protonated)
COc1ccc(-c2csc(=NC(=O)CCc3nc(=O)c4ccccc4[n-]3)[n-]2)cc1 (3D coordinates assigned)
COc1ccc(-c2csc(=NC(=O)CCc3nc(=O)c4ccccc4[n-]3)[n-]2)cc1 (optimized conformer: 82.47726852668652 kcal/mol)

>  <smiles>  (33) 
COc1ccc(-c2csc(=NC(=O)CCc3nc(=O)c4ccccc4[nH]3)[nH]2)cc1

>  <score_type>  (33) 
oracle

>  <origin>  (33) 
adg

>  <m_score__min__energy>  (33) 
-12.44

>  <m_primary>  (33) 
energy

$$$$
33:0
     RDKit          3D

 29 30  0  0  0  0  0  0  0  0999 V2000
   55.3100   30.4770   44.5040 O   0  0  0  0  0  0  0  0  0  0  0  0
   56.5570   30.4040   44.3360 C   0  0  0  0  0  0  0  0  0  0  0  0
   57.2590   29.1090   44.5760 C   0  0  0  0  0  0  0  0  0  0  0  0
   56.3820   28.2220   45.2620 O   0  0  0  0  0  0  0  0  0  0  0  0
   56.8020   27.1020   45.9970 C   0  0  0  0  0  0  0  0  0  0  0  0
   58.1370   26.9210   46.4010 C   0  0  0  0  0  0  0  0  0  0  0  0
   58.4980   25.7860   47.1300 C   0  0  0  0  0  0  0  0  0  0  0  0
   57.5240   24.8400   47.4500 C   0  0  0  0  0  0  0  0  0  0  0  0
   56.2380   25.0260   47.0530 N   0  0  0  0  0  0  0  0  0  0  0  0
   55.8590   26.1220   46.3410 C   0  0  0  0  0  0  0  0  0  0  0  0
   54.6550   26.2510   45.9960 O   0  0  0  0  0  0  0  0  0  0  0  0
   57.3120   31.5450   43.9100 N   0  0  0  0  0  0  0  0  0  0  0  0
   57.8450   32.5800   44.7490 C   0  0  0  0  0  0  0  0  0  0  0  0
   57.7220   32.5440   46.1500 C   0  0  0  0  0  0  0  0  0  0  0  0
   58.2770   33.5620   46.9320 C   0  0  0  0  0  0  0  0  0  0  0  0
   58.9720   34.6160   46.3250 C   0  0  0  0  0  0  0  0  0  0  0  0
   59.5270   35.6380   47.0930 O   0  0  0  0  0  0  0  0  0  0  0  0
   59.1150   34.6430   44.9340 C   0  0  0  0  0  0  0  0  0  0  0  0
   58.5620   33.6250   44.1520 C   0  0  0  0  0  0  0  0  0  0  0  0
   57.5520   28.6652   43.6131 H   0  0  0  0  0  0  0  0  0  0  0  0
   58.1588   29.2833   45.1842 H   0  0  0  0  0  0  0  0  0  0  0  0
   58.8967   27.6735   46.1427 H   0  0  0  0  0  0  0  0  0  0  0  0
   59.5405   25.6393   47.4489 H   0  0  0  0  0  0  0  0  0  0  0  0
   57.7974   23.9426   48.0243 H   0  0  0  0  0  0  0  0  0  0  0  0
   57.1874   31.7122   46.6320 H   0  0  0  0  0  0  0  0  0  0  0  0
   58.1675   33.5350   48.0262 H   0  0  0  0  0  0  0  0  0  0  0  0
   58.9590   36.3940   47.4590 H   0  0  0  0  0  0  0  0  0  0  0  0
   59.6637   35.4670   44.4545 H   0  0  0  0  0  0  0  0  0  0  0  0
   58.6907   33.6445   43.0597 H   0  0  0  0  0  0  0  0  0  0  0  0
  1  2  2  0
  2  3  1  0
  3  4  1  0
  4  5  1  0
  5  6  2  0
  6  7  1  0
  7  8  2  0
  8  9  1  0
  9 10  1  0
 10 11  2  0
  2 12  1  0
 12 13  1  0
 13 14  2  0
 14 15  1  0
 15 16  2  0
 16 17  1  0
 16 18  1  0
 18 19  2  0
 10  5  1  0
 19 13  1  0
  3 20  1  0
  3 21  1  0
  6 22  1  0
  7 23  1  0
  8 24  1  0
 14 25  1  0
 15 26  1  0
 17 27  1  0
 18 28  1  0
 19 29  1  0
M  CHG  2   9  -1  12  -1
M  END
>  <UniqueID>  (34) 
32

>  <SMILES>  (34) 
O=C(COc1ccc[n-]c1=O)[N-]c1ccc(O)cc1

>  <Energy>  (34) 
32.33248139792006

>  <Genealogy>  (34) 
O=C(COc1ccc[n-]c1=O)[N-]c1ccc(O)cc1 (protonated)
O=C(COc1ccc[n-]c1=O)[N-]c1ccc(O)cc1 (3D coordinates assigned)
O=C(COc1ccc[n-]c1=O)[N-]c1ccc(O)cc1 (optimized conformer: 32.33248139792006 kcal/mol)

>  <smiles>  (34) 
O=C(COc1ccc[nH]c1=O)Nc1ccc(O)cc1

>  <score_type>  (34) 
oracle

>  <origin>  (34) 
adg

>  <m_score__min__energy>  (34) 
-9.9399999999999995

>  <m_primary>  (34) 
energy

$$$$
34:0
     RDKit          3D

 56 58  0  0  0  0  0  0  0  0999 V2000
   63.3030   33.7720   47.8360 C   0  0  0  0  0  0  0  0  0  0  0  0
   62.3570   32.6530   48.1450 C   0  0  0  0  0  0  0  0  0  0  0  0
   61.9680   31.7580   47.1370 C   0  0  0  0  0  0  0  0  0  0  0  0
   61.0680   30.7280   47.4200 C   0  0  0  0  0  0  0  0  0  0  0  0
   60.5330   30.5940   48.7080 C   0  0  0  0  0  0  0  0  0  0  0  0
   59.4240   29.2750   49.0850 S   0  0  0  0  0  0  0  0  0  0  0  0
   58.1450   29.8270   49.6530 O   0  0  0  0  0  0  0  0  0  0  0  0
   60.0620   28.3880   50.1170 O   0  0  0  0  0  0  0  0  0  0  0  0
   59.0910   28.3510   47.6410 N   0  0  0  0  0  0  0  0  0  0  0  0
   60.3370   27.7210   47.1510 C   0  0  0  0  0  0  0  0  0  0  0  0
   60.1910   27.1580   45.7180 C   0  0  0  0  0  0  0  0  0  0  0  0
   58.7200   27.0160   45.3180 C   0  0  0  0  0  0  0  0  0  0  0  0
   57.9930   28.3780   45.4160 C   0  0  1  0  0  0  0  0  0  0  0  0
   56.5010   28.1860   45.4930 C   0  0  0  0  0  0  0  0  0  0  0  0
   56.0210   27.1240   45.9780 O   0  0  0  0  0  0  0  0  0  0  0  0
   55.6330   29.2460   45.0790 N   0  0  0  0  0  0  0  0  0  0  0  0
   55.5700   29.7210   43.7040 C   0  0  0  0  0  0  0  0  0  0  0  0
   56.6580   30.7680   43.4720 C   0  0  0  0  0  0  0  0  0  0  0  0
   57.1200   31.3880   44.7960 C   0  0  0  0  0  0  0  0  0  0  0  0
   57.9740   32.5060   44.5550 O   0  0  0  0  0  0  0  0  0  0  0  0
   58.5140   33.3460   45.5440 C   0  0  0  0  0  0  0  0  0  0  0  0
   58.3980   32.9510   46.8830 C   0  0  0  0  0  0  0  0  0  0  0  0
   58.9270   33.7460   47.9070 C   0  0  0  0  0  0  0  0  0  0  0  0
   59.5780   34.9420   47.5970 C   0  0  0  0  0  0  0  0  0  0  0  0
   59.7010   35.3480   46.2650 C   0  0  0  0  0  0  0  0  0  0  0  0
   59.1720   34.5560   45.2400 C   0  0  0  0  0  0  0  0  0  0  0  0
   58.5040   29.2240   46.6100 C   0  0  0  0  0  0  0  0  0  0  0  0
   60.9080   31.4980   49.7120 C   0  0  0  0  0  0  0  0  0  0  0  0
   61.8090   32.5270   49.4300 C   0  0  0  0  0  0  0  0  0  0  0  0
   63.6728   34.2094   48.7751 H   0  0  0  0  0  0  0  0  0  0  0  0
   64.1514   33.3844   47.2530 H   0  0  0  0  0  0  0  0  0  0  0  0
   62.7797   34.5441   47.2530 H   0  0  0  0  0  0  0  0  0  0  0  0
   62.3732   31.8678   46.1203 H   0  0  0  0  0  0  0  0  0  0  0  0
   60.7784   30.0201   46.6294 H   0  0  0  0  0  0  0  0  0  0  0  0
   61.1384   28.4745   47.1542 H   0  0  0  0  0  0  0  0  0  0  0  0
   60.5714   26.8791   47.8190 H   0  0  0  0  0  0  0  0  0  0  0  0
   60.6887   27.8405   45.0134 H   0  0  0  0  0  0  0  0  0  0  0  0
   60.6540   26.1606   45.6903 H   0  0  0  0  0  0  0  0  0  0  0  0
   58.6611   26.6489   44.2828 H   0  0  0  0  0  0  0  0  0  0  0  0
   58.2341   26.3056   46.0030 H   0  0  0  0  0  0  0  0  0  0  0  0
   58.2242   28.9377   44.4977 H   0  0  0  0  0  0  0  0  0  0  0  0
   55.7235   28.8754   43.0174 H   0  0  0  0  0  0  0  0  0  0  0  0
   54.5840   30.1722   43.5187 H   0  0  0  0  0  0  0  0  0  0  0  0
   57.5178   30.2895   42.9802 H   0  0  0  0  0  0  0  0  0  0  0  0
   56.2446   31.5664   42.8382 H   0  0  0  0  0  0  0  0  0  0  0  0
   56.2401   31.7212   45.3659 H   0  0  0  0  0  0  0  0  0  0  0  0
   57.6782   30.6313   45.3668 H   0  0  0  0  0  0  0  0  0  0  0  0
   57.8874   32.0090   47.1319 H   0  0  0  0  0  0  0  0  0  0  0  0
   58.8298   33.4285   48.9557 H   0  0  0  0  0  0  0  0  0  0  0  0
   59.9945   35.5654   48.4020 H   0  0  0  0  0  0  0  0  0  0  0  0
   60.2139   36.2905   46.0226 H   0  0  0  0  0  0  0  0  0  0  0  0
   59.2697   34.8783   44.1928 H   0  0  0  0  0  0  0  0  0  0  0  0
   59.2688   29.9297   46.2537 H   0  0  0  0  0  0  0  0  0  0  0  0
   57.6576   29.7744   47.0467 H   0  0  0  0  0  0  0  0  0  0  0  0
   60.4912   31.3964   50.7249 H   0  0  0  0  0  0  0  0  0  0  0  0
   62.0899   33.2411   50.2182 H   0  0  0  0  0  0  0  0  0  0  0  0
  1  2  1  0
  2  3  2  0
  3  4  1  0
  4  5  2  0
  5  6  1  0
  6  7  2  0
  6  8  2  0
  6  9  1  0
  9 10  1  0
 10 11  1  0
 11 12  1  0
 12 13  1  0
 13 14  1  0
 14 15  2  0
 14 16  1  0
 16 17  1  0
 17 18  1  0
 18 19  1  0
 19 20  1  0
 20 21  1  0
 21 22  2  0
 22 23  1  0
 23 24  2  0
 24 25  1  0
 25 26  2  0
 13 27  1  0
  5 28  1  0
 28 29  2  0
 29  2  1  0
 27  9  1  0
 26 21  1  0
  1 30  1  0
  1 31  1  0
  1 32  1  0
  3 33  1  0
  4 34  1  0
 10 35  1  0
 10 36  1  0
 11 37  1  0
 11 38  1  0
 12 39  1  0
 12 40  1  0
 13 41  1  6
 17 42  1  0
 17 43  1  0
 18 44  1  0
 18 45  1  0
 19 46  1  0
 19 47  1  0
 22 48  1  0
 23 49  1  0
 24 50  1  0
 25 51  1  0
 26 52  1  0
 27 53  1  0
 27 54  1  0
 28 55  1  0
 29 56  1  0
M  CHG  1  16  -1
M  END
>  <UniqueID>  (35) 
33

>  <SMILES>  (35) 
Cc1ccc(S(=O)(=O)N2CCC[C@@H](C(=O)[N-]CCCOc3ccccc3)C2)cc1

>  <Energy>  (35) 
53.84344437507868

>  <Genealogy>  (35) 
Cc1ccc(S(=O)(=O)N2CCCC(C(=O)[N-]CCCOc3ccccc3)C2)cc1 (protonated)
Cc1ccc(S(=O)(=O)N2CCC[C@@H](C(=O)[N-]CCCOc3ccccc3)C2)cc1 (chirality)
Cc1ccc(S(=O)(=O)N2CCC[C@@H](C(=O)[N-]CCCOc3ccccc3)C2)cc1 (3D coordinates assigned)
Cc1ccc(S(=O)(=O)N2CCC[C@@H](C(=O)[N-]CCCOc3ccccc3)C2)cc1 (nonaromatic ring conformer: 53.84344437507868 kcal/mol)

>  <smiles>  (35) 
Cc1ccc(S(=O)(=O)N2CCCC(C(=O)NCCCOc3ccccc3)C2)cc1

>  <score_type>  (35) 
oracle

>  <origin>  (35) 
adg

>  <m_score__min__energy>  (35) 
-11.15

>  <m_primary>  (35) 
energy

$$$$
35:0
     RDKit          3D

 33 34  0  0  0  0  0  0  0  0999 V2000
   60.5480   32.1650   47.5130 C   0  0  0  0  0  0  0  0  0  0  0  0
   60.0390   33.0440   48.9750 S   0  0  0  0  0  0  0  0  0  0  0  0
   61.0680   32.8960   50.0610 O   0  0  0  0  0  0  0  0  0  0  0  0
   59.9000   34.5020   48.6370 O   0  0  0  0  0  0  0  0  0  0  0  0
   58.5040   32.4530   49.5250 N   0  0  0  0  0  0  0  0  0  0  0  0
   58.1350   32.2050   50.8900 C   0  0  0  0  0  0  0  0  0  0  0  0
   57.3900   31.0710   51.2680 C   0  0  0  0  0  0  0  0  0  0  0  0
   57.0510   30.8510   52.6140 C   0  0  0  0  0  0  0  0  0  0  0  0
   56.2630   29.6560   52.9970 C   0  0  0  0  0  0  0  0  0  0  0  0
   56.7130   28.8740   53.8750 O   0  0  0  0  0  0  0  0  0  0  0  0
   55.0200   29.3280   52.3600 N   0  0  0  0  0  0  0  0  0  0  0  0
   53.8900   30.1990   52.2080 C   0  0  0  0  0  0  0  0  0  0  0  0
   52.9800   30.4210   53.2600 C   0  0  0  0  0  0  0  0  0  0  0  0
   51.8800   31.2640   53.0720 C   0  0  0  0  0  0  0  0  0  0  0  0
   51.6710   31.8780   51.8320 C   0  0  0  0  0  0  0  0  0  0  0  0
   50.5780   32.7160   51.6470 O   0  0  0  0  0  0  0  0  0  0  0  0
   52.5590   31.6430   50.7780 C   0  0  0  0  0  0  0  0  0  0  0  0
   53.6600   30.8010   50.9640 C   0  0  0  0  0  0  0  0  0  0  0  0
   57.4450   31.7910   53.5810 C   0  0  0  0  0  0  0  0  0  0  0  0
   58.1850   32.9140   53.2120 C   0  0  0  0  0  0  0  0  0  0  0  0
   58.5330   33.1240   51.8720 C   0  0  0  0  0  0  0  0  0  0  0  0
   59.2740   34.2470   51.5080 O   0  0  0  0  0  0  0  0  0  0  0  0
   61.0796   31.2469   47.8036 H   0  0  0  0  0  0  0  0  0  0  0  0
   59.6622   31.9024   46.9160 H   0  0  0  0  0  0  0  0  0  0  0  0
   61.2167   32.8026   46.9160 H   0  0  0  0  0  0  0  0  0  0  0  0
   57.0701   30.3498   50.5015 H   0  0  0  0  0  0  0  0  0  0  0  0
   53.1349   29.9300   54.2321 H   0  0  0  0  0  0  0  0  0  0  0  0
   51.1784   31.4446   53.8997 H   0  0  0  0  0  0  0  0  0  0  0  0
   52.3915   32.1209   49.8015 H   0  0  0  0  0  0  0  0  0  0  0  0
   54.3496   30.6102   50.1285 H   0  0  0  0  0  0  0  0  0  0  0  0
   57.1683   31.6404   54.6349 H   0  0  0  0  0  0  0  0  0  0  0  0
   58.4971   33.6391   53.9781 H   0  0  0  0  0  0  0  0  0  0  0  0
   59.6040   34.3800   50.5580 H   0  0  0  0  0  0  0  0  0  0  0  0
  1  2  1  0
  2  3  2  0
  2  4  2  0
  2  5  1  0
  5  6  1  0
  6  7  2  0
  7  8  1  0
  8  9  1  0
  9 10  2  0
  9 11  1  0
 11 12  1  0
 12 13  2  0
 13 14  1  0
 14 15  2  0
 15 16  1  0
 15 17  1  0
 17 18  2  0
  8 19  2  0
 19 20  1  0
 20 21  2  0
 21 22  1  0
 21  6  1  0
 18 12  1  0
  1 23  1  0
  1 24  1  0
  1 25  1  0
  7 26  1  0
 13 27  1  0
 14 28  1  0
 17 29  1  0
 18 30  1  0
 19 31  1  0
 20 32  1  0
 22 33  1  0
M  CHG  3   5  -1  11  -1  16  -1
M  END
>  <UniqueID>  (36) 
34

>  <SMILES>  (36) 
CS(=O)(=O)[N-]c1cc(C(=O)[N-]c2ccc([O-])cc2)ccc1O

>  <Energy>  (36) 
39.47572047104982

>  <Genealogy>  (36) 
CS(=O)(=O)[N-]c1cc(C(=O)[N-]c2ccc([O-])cc2)ccc1O (protonated)
CS(=O)(=O)[N-]c1cc(C(=O)[N-]c2ccc([O-])cc2)ccc1O (3D coordinates assigned)
CS(=O)(=O)[N-]c1cc(C(=O)[N-]c2ccc([O-])cc2)ccc1O (optimized conformer: 39.47572047104982 kcal/mol)

>  <smiles>  (36) 
CS(=O)(=O)Nc1cc(C(=O)Nc2ccc(O)cc2)ccc1O

>  <score_type>  (36) 
oracle

>  <origin>  (36) 
adg

>  <m_score__min__energy>  (36) 
-11.220000000000001

>  <m_primary>  (36) 
energy

$$$$
36:0
     RDKit          3D

 66 69  0  0  0  0  0  0  0  0999 V2000
   54.0200   24.8360   45.6210 C   0  0  0  0  0  0  0  0  0  0  0  0
   54.6250   26.0910   45.9180 O   0  0  0  0  0  0  0  0  0  0  0  0
   56.0110   26.3040   46.0100 C   0  0  0  0  0  0  0  0  0  0  0  0
   56.8950   25.3000   46.4520 C   0  0  0  0  0  0  0  0  0  0  0  0
   58.2670   25.5570   46.5380 C   0  0  0  0  0  0  0  0  0  0  0  0
   58.7670   26.8130   46.1980 C   0  0  0  0  0  0  0  0  0  0  0  0
   57.9000   27.8170   45.7630 C   0  0  0  0  0  0  0  0  0  0  0  0
   56.5220   27.5610   45.6410 C   0  0  0  0  0  0  0  0  0  0  0  0
   55.6090   28.5860   45.2240 N   0  0  0  0  0  0  0  0  0  0  0  0
   55.9160   29.7290   44.4160 C   0  0  0  0  0  0  0  0  0  0  0  0
   55.1730   30.7430   44.4960 O   0  0  0  0  0  0  0  0  0  0  0  0
   57.0790   29.7390   43.4570 C   0  0  0  0  0  0  0  0  0  0  0  0
   58.0860   30.7300   43.8720 N   0  0  0  0  0  0  0  0  0  0  0  0
   57.9650   32.1200   43.4220 C   0  0  0  0  0  0  0  0  0  0  0  0
   59.0680   30.4080   44.8780 C   0  0  0  0  0  0  0  0  0  0  0  0
   60.0350   29.6530   44.5870 O   0  0  0  0  0  0  0  0  0  0  0  0
   58.9840   30.9620   46.2440 C   0  0  0  0  0  0  0  0  0  0  0  0
   58.3040   32.1630   46.4830 C   0  0  0  0  0  0  0  0  0  0  0  0
   58.2360   32.6880   47.7740 C   0  0  0  0  0  0  0  0  0  0  0  0
   58.8390   32.0180   48.8470 C   0  0  0  0  0  0  0  0  0  0  0  0
   58.7110   32.5490   50.1730 N   0  0  0  0  0  0  0  0  0  0  0  0
   59.3420   33.7840   50.6000 C   0  0  0  0  0  0  0  0  0  0  0  0
   58.9390   33.9600   52.0570 C   0  0  0  0  0  0  0  0  0  0  0  0
   57.7210   33.0610   52.2650 C   0  0  0  0  0  0  0  0  0  0  0  0
   57.7560   32.0340   51.1390 C   0  0  0  0  0  0  0  0  0  0  0  0
   59.5240   30.8050   48.6190 C   0  0  0  0  0  0  0  0  0  0  0  0
   60.2100   30.1450   49.6960 N   0  0  0  0  0  0  0  0  0  0  0  0
   61.6850   30.7520   50.3740 S   0  0  0  0  0  0  0  0  0  0  0  0
   62.6550   29.6170   50.5530 O   0  0  0  0  0  0  0  0  0  0  0  0
   61.3980   31.3670   51.7150 O   0  0  0  0  0  0  0  0  0  0  0  0
   62.3960   31.9350   49.2800 C   0  0  0  0  0  0  0  0  0  0  0  0
   62.8040   31.5650   47.9900 C   0  0  0  0  0  0  0  0  0  0  0  0
   63.3940   32.5110   47.1440 C   0  0  0  0  0  0  0  0  0  0  0  0
   63.5800   33.8260   47.5820 C   0  0  0  0  0  0  0  0  0  0  0  0
   63.1770   34.1970   48.8680 C   0  0  0  0  0  0  0  0  0  0  0  0
   62.5850   33.2550   49.7150 C   0  0  0  0  0  0  0  0  0  0  0  0
   59.5810   30.2830   47.3140 C   0  0  0  0  0  0  0  0  0  0  0  0
   53.7704   24.3182   46.5589 H   0  0  0  0  0  0  0  0  0  0  0  0
   53.1022   25.0004   45.0374 H   0  0  0  0  0  0  0  0  0  0  0  0
   54.7203   24.2203   45.0374 H   0  0  0  0  0  0  0  0  0  0  0  0
   56.5045   24.3101   46.7306 H   0  0  0  0  0  0  0  0  0  0  0  0
   58.9533   24.7661   46.8748 H   0  0  0  0  0  0  0  0  0  0  0  0
   59.8460   27.0133   46.2726 H   0  0  0  0  0  0  0  0  0  0  0  0
   58.2960   28.8127   45.5145 H   0  0  0  0  0  0  0  0  0  0  0  0
   57.5407   28.7407   43.4386 H   0  0  0  0  0  0  0  0  0  0  0  0
   56.7102   30.0069   42.4559 H   0  0  0  0  0  0  0  0  0  0  0  0
   57.9071   32.7848   44.2965 H   0  0  0  0  0  0  0  0  0  0  0  0
   58.8433   32.3870   42.8159 H   0  0  0  0  0  0  0  0  0  0  0  0
   57.0538   32.2312   42.8159 H   0  0  0  0  0  0  0  0  0  0  0  0
   57.8216   32.6945   45.6495 H   0  0  0  0  0  0  0  0  0  0  0  0
   57.7050   33.6350   47.9508 H   0  0  0  0  0  0  0  0  0  0  0  0
   60.4357   33.7089   50.5094 H   0  0  0  0  0  0  0  0  0  0  0  0
   59.0287   34.6387   49.9824 H   0  0  0  0  0  0  0  0  0  0  0  0
   59.7600   33.6520   52.7212 H   0  0  0  0  0  0  0  0  0  0  0  0
   58.7104   35.0106   52.2892 H   0  0  0  0  0  0  0  0  0  0  0  0
   57.7797   32.5586   53.2418 H   0  0  0  0  0  0  0  0  0  0  0  0
   56.7865   33.6410   52.2508 H   0  0  0  0  0  0  0  0  0  0  0  0
   58.0848   31.0561   51.5207 H   0  0  0  0  0  0  0  0  0  0  0  0
   56.7623   31.8857   50.6911 H   0  0  0  0  0  0  0  0  0  0  0  0
   59.8680   29.2210   50.0370 H   0  0  0  0  0  0  0  0  0  0  0  0
   62.6602   30.5311   47.6432 H   0  0  0  0  0  0  0  0  0  0  0  0
   63.7122   32.2195   46.1322 H   0  0  0  0  0  0  0  0  0  0  0  0
   64.0432   34.5679   46.9149 H   0  0  0  0  0  0  0  0  0  0  0  0
   63.3256   35.2306   49.2139 H   0  0  0  0  0  0  0  0  0  0  0  0
   62.2665   33.5501   50.7257 H   0  0  0  0  0  0  0  0  0  0  0  0
   60.1004   29.3306   47.1316 H   0  0  0  0  0  0  0  0  0  0  0  0
  1  2  1  0
  2  3  1  0
  3  4  2  0
  4  5  1  0
  5  6  2  0
  6  7  1  0
  7  8  2  0
  8  9  1  0
  9 10  1  0
 10 11  2  0
 10 12  1  0
 12 13  1  0
 13 14  1  0
 13 15  1  0
 15 16  2  0
 15 17  1  0
 17 18  2  0
 18 19  1  0
 19 20  2  0
 20 21  1  0
 21 22  1  0
 22 23  1  0
 23 24  1  0
 24 25  1  0
 20 26  1  0
 26 27  1  0
 27 28  1  0
 28 29  2  0
 28 30  2  0
 28 31  1  0
 31 32  2  0
 32 33  1  0
 33 34  2  0
 34 35  1  0
 35 36  2  0
 26 37  2  0
  8  3  1  0
 37 17  1  0
 25 21  1  0
 36 31  1  0
  1 38  1  0
  1 39  1  0
  1 40  1  0
  4 41  1  0
  5 42  1  0
  6 43  1  0
  7 44  1  0
 12 45  1  0
 12 46  1  0
 14 47  1  0
 14 48  1  0
 14 49  1  0
 18 50  1  0
 19 51  1  0
 22 52  1  0
 22 53  1  0
 23 54  1  0
 23 55  1  0
 24 56  1  0
 24 57  1  0
 25 58  1  0
 25 59  1  0
 27 60  1  0
 32 61  1  0
 33 62  1  0
 34 63  1  0
 35 64  1  0
 36 65  1  0
 37 66  1  0
M  CHG  1   9  -1
M  END
>  <UniqueID>  (37) 
35

>  <SMILES>  (37) 
COc1ccccc1[N-]C(=O)CN(C)C(=O)c1ccc(N2CCCC2)c(NS(=O)(=O)c2ccccc2)c1

>  <Energy>  (37) 
84.52911392304361

>  <Genealogy>  (37) 
COc1ccccc1[N-]C(=O)CN(C)C(=O)c1ccc(N2CCCC2)c(NS(=O)(=O)c2ccccc2)c1 (protonated)
COc1ccccc1[N-]C(=O)CN(C)C(=O)c1ccc(N2CCCC2)c(NS(=O)(=O)c2ccccc2)c1 (3D coordinates assigned)
COc1ccccc1[N-]C(=O)CN(C)C(=O)c1ccc(N2CCCC2)c(NS(=O)(=O)c2ccccc2)c1 (nonaromatic ring conformer: 84.52911392304361 kcal/mol)

>  <smiles>  (37) 
COc1ccccc1NC(=O)CN(C)C(=O)c1ccc(N2CCCC2)c(NS(=O)(=O)c2ccccc2)c1

>  <score_type>  (37) 
oracle

>  <origin>  (37) 
adg

>  <m_score__min__energy>  (37) 
-13.02

>  <m_primary>  (37) 
energy

$$$$
37:0
     RDKit          3D

 65 69  0  0  0  0  0  0  0  0999 V2000
   50.1790   23.3650   46.1440 C   0  0  0  0  0  0  0  0  0  0  0  0
   51.8540   22.7960   46.3410 S   0  0  0  0  0  0  0  0  0  0  0  0
   52.1270   22.5720   47.8000 O   0  0  0  0  0  0  0  0  0  0  0  0
   52.0370   21.5020   45.5980 O   0  0  0  0  0  0  0  0  0  0  0  0
   52.9470   23.9650   45.7400 O   0  0  0  0  0  0  0  0  0  0  0  0
   54.3050   23.9670   46.0700 C   0  0  0  0  0  0  0  0  0  0  0  0
   54.9190   22.8270   46.4830 N   0  0  0  0  0  0  0  0  0  0  0  0
   56.2350   22.8090   46.8220 C   0  0  0  0  0  0  0  0  0  0  0  0
   56.8590   21.5820   47.2580 N   0  0  0  0  0  0  0  0  0  0  0  0
   56.5940   21.0710   48.6100 C   0  0  0  0  0  0  0  0  0  0  0  0
   57.7380   20.1610   49.0700 C   0  0  0  0  0  0  0  0  0  0  0  0
   58.0230   19.1740   48.0970 O   0  0  0  0  0  0  0  0  0  0  0  0
   58.5130   19.7930   46.9240 C   0  0  0  0  0  0  0  0  0  0  0  0
   57.4290   20.6560   46.2720 C   0  0  0  0  0  0  0  0  0  0  0  0
   56.9580   23.9600   46.7410 N   0  0  0  0  0  0  0  0  0  0  0  0
   56.4020   25.1290   46.3230 C   0  0  0  0  0  0  0  0  0  0  0  0
   57.2480   26.3430   46.2630 C   0  0  0  0  0  0  0  0  0  0  0  0
   57.9120   26.7850   47.4180 C   0  0  0  0  0  0  0  0  0  0  0  0
   58.7110   27.9320   47.3810 C   0  0  0  0  0  0  0  0  0  0  0  0
   58.8880   28.6350   46.1830 C   0  0  0  0  0  0  0  0  0  0  0  0
   59.6790   29.8350   46.1800 N   0  0  0  0  0  0  0  0  0  0  0  0
   60.7910   30.0620   47.0650 C   0  0  0  0  0  0  0  0  0  0  0  0
   61.0190   29.2660   48.0150 O   0  0  0  0  0  0  0  0  0  0  0  0
   61.6830   31.1660   46.8650 N   0  0  0  0  0  0  0  0  0  0  0  0
   62.2710   31.9640   47.8980 C   0  0  0  0  0  0  0  0  0  0  0  0
   63.4640   32.6730   47.6830 C   0  0  0  0  0  0  0  0  0  0  0  0
   64.0070   33.4560   48.7050 C   0  0  0  0  0  0  0  0  0  0  0  0
   63.3580   33.5480   49.9400 C   0  0  0  0  0  0  0  0  0  0  0  0
   62.1530   32.8670   50.1530 C   0  0  0  0  0  0  0  0  0  0  0  0
   61.3610   32.9390   51.7240 S   0  0  0  0  0  0  0  0  0  0  0  0
   62.1050   33.8920   52.6180 O   0  0  0  0  0  0  0  0  0  0  0  0
   61.3560   31.5730   52.3520 O   0  0  0  0  0  0  0  0  0  0  0  0
   59.7350   33.4910   51.4930 N   0  0  0  0  0  0  0  0  0  0  0  0
   58.6960   32.7300   51.6370 C   0  0  0  0  0  0  0  0  0  0  0  0
   57.6460   33.0260   52.4350 N   0  0  0  0  0  0  0  0  0  0  0  0
   56.7010   32.0500   52.3890 C   0  0  0  0  0  0  0  0  0  0  0  0
   57.0010   30.9760   51.5560 C   0  0  0  0  0  0  0  0  0  0  0  0
   58.5030   31.2600   50.8500 S   0  0  0  0  0  0  0  0  0  0  0  0
   61.6070   32.0850   49.1250 C   0  0  0  0  0  0  0  0  0  0  0  0
   58.2300   28.1910   45.0240 C   0  0  0  0  0  0  0  0  0  0  0  0
   57.4240   27.0500   45.0620 C   0  0  0  0  0  0  0  0  0  0  0  0
   55.0360   25.1530   45.9870 C   0  0  0  0  0  0  0  0  0  0  0  0
   54.4010   26.3320   45.6080 O   0  0  0  0  0  0  0  0  0  0  0  0
   49.7253   23.5191   47.1341 H   0  0  0  0  0  0  0  0  0  0  0  0
   50.1772   24.3142   45.5881 H   0  0  0  0  0  0  0  0  0  0  0  0
   49.5994   22.6133   45.5881 H   0  0  0  0  0  0  0  0  0  0  0  0
   56.5019   21.9178   49.3061 H   0  0  0  0  0  0  0  0  0  0  0  0
   55.6597   20.4907   48.5957 H   0  0  0  0  0  0  0  0  0  0  0  0
   58.6378   20.7711   49.2379 H   0  0  0  0  0  0  0  0  0  0  0  0
   57.4341   19.6588   50.0003 H   0  0  0  0  0  0  0  0  0  0  0  0
   59.3725   20.4285   47.1836 H   0  0  0  0  0  0  0  0  0  0  0  0
   58.8166   19.0108   46.2127 H   0  0  0  0  0  0  0  0  0  0  0  0
   57.8709   21.2318   45.4454 H   0  0  0  0  0  0  0  0  0  0  0  0
   56.6312   20.0026   45.8892 H   0  0  0  0  0  0  0  0  0  0  0  0
   57.8031   26.2253   48.3587 H   0  0  0  0  0  0  0  0  0  0  0  0
   59.2038   28.2844   48.2991 H   0  0  0  0  0  0  0  0  0  0  0  0
   59.4120   30.5800   45.5000 H   0  0  0  0  0  0  0  0  0  0  0  0
   63.9715   32.6119   46.7090 H   0  0  0  0  0  0  0  0  0  0  0  0
   64.9475   34.0014   48.5375 H   0  0  0  0  0  0  0  0  0  0  0  0
   63.7947   34.1564   50.7457 H   0  0  0  0  0  0  0  0  0  0  0  0
   55.7673   32.1050   52.9679 H   0  0  0  0  0  0  0  0  0  0  0  0
   56.3661   30.0936   51.3879 H   0  0  0  0  0  0  0  0  0  0  0  0
   60.6515   31.5635   49.2834 H   0  0  0  0  0  0  0  0  0  0  0  0
   58.3499   28.7446   44.0811 H   0  0  0  0  0  0  0  0  0  0  0  0
   56.9242   26.7033   44.1455 H   0  0  0  0  0  0  0  0  0  0  0  0
  1  2  1  0
  2  3  2  0
  2  4  2  0
  2  5  1  0
  5  6  1  0
  6  7  2  0
  7  8  1  0
  8  9  1  0
  9 10  1  0
 10 11  1  0
 11 12  1  0
 12 13  1  0
 13 14  1  0
  8 15  2  0
 15 16  1  0
 16 17  1  0
 17 18  2  0
 18 19  1  0
 19 20  2  0
 20 21  1  0
 21 22  1  0
 22 23  2  0
 22 24  1  0
 24 25  1  0
 25 26  2  0
 26 27  1  0
 27 28  2  0
 28 29  1  0
 29 30  1  0
 30 31  2  0
 30 32  2  0
 30 33  1  0
 33 34  2  3
 34 35  1  0
 35 36  1  0
 36 37  2  0
 37 38  1  0
 29 39  2  0
 20 40  1  0
 40 41  2  0
 16 42  2  0
 42 43  1  0
 42  6  1  0
 14  9  1  0
 41 17  1  0
 39 25  1  0
 38 34  1  0
  1 44  1  0
  1 45  1  0
  1 46  1  0
 10 47  1  0
 10 48  1  0
 11 49  1  0
 11 50  1  0
 13 51  1  0
 13 52  1  0
 14 53  1  0
 14 54  1  0
 18 55  1  0
 19 56  1  0
 21 57  1  0
 26 58  1  0
 27 59  1  0
 28 60  1  0
 36 61  1  0
 37 62  1  0
 39 63  1  0
 40 64  1  0
 41 65  1  0
M  CHG  3  24  -1  35  -1  43  -1
M  END
>  <UniqueID>  (38) 
36

>  <SMILES>  (38) 
CS(=O)(=O)Oc1nc(N2CCOCC2)nc(-c2ccc(NC(=O)[N-]c3cccc(S(=O)(=O)N=c4[n-]ccs4)c3)cc2)c1[O-]

>  <Energy>  (38) 
114.0978562723627

>  <Genealogy>  (38) 
CS(=O)(=O)Oc1nc(N2CCOCC2)nc(-c2ccc(NC(=O)[N-]c3cccc(S(=O)(=O)N=c4[n-]ccs4)c3)cc2)c1[O-] (protonated)
CS(=O)(=O)Oc1nc(N2CCOCC2)nc(-c2ccc(NC(=O)[N-]c3cccc(S(=O)(=O)N=c4[n-]ccs4)c3)cc2)c1[O-] (3D coordinates assigned)
CS(=O)(=O)Oc1nc(N2CCOCC2)nc(-c2ccc(NC(=O)[N-]c3cccc(S(=O)(=O)N=c4[n-]ccs4)c3)cc2)c1[O-] (nonaromatic ring conformer: 114.0978562723627 kcal/mol)

>  <smiles>  (38) 
CS(=O)(=O)Oc1nc(N2CCOCC2)nc(-c2ccc(NC(=O)Nc3cccc(S(=O)(=O)N=c4[nH]ccs4)c3)cc2)c1O

>  <score_type>  (38) 
oracle

>  <origin>  (38) 
adg

>  <m_score__min__energy>  (38) 
-13.119999999999999

>  <m_primary>  (38) 
energy

$$$$
38:0
     RDKit          3D

 45 47  0  0  0  0  0  0  0  0999 V2000
   58.3520   33.1420   46.3050 C   0  0  0  0  0  0  0  0  0  0  0  0
   58.7210   31.9090   45.6980 O   0  0  0  0  0  0  0  0  0  0  0  0
   58.0490   31.3210   44.6110 C   0  0  0  0  0  0  0  0  0  0  0  0
   57.7560   32.0510   43.4420 C   0  0  0  0  0  0  0  0  0  0  0  0
   57.0250   31.4650   42.4050 C   0  0  0  0  0  0  0  0  0  0  0  0
   56.5730   30.1490   42.5240 C   0  0  0  0  0  0  0  0  0  0  0  0
   56.8680   29.4110   43.6700 C   0  0  0  0  0  0  0  0  0  0  0  0
   57.6270   29.9760   44.7070 C   0  0  0  0  0  0  0  0  0  0  0  0
   57.8870   29.1880   45.8800 N   0  0  0  0  0  0  0  0  0  0  0  0
   59.2050   28.9490   46.4010 C   0  0  0  0  0  0  0  0  0  0  0  0
   60.2250   29.3010   45.7500 O   0  0  0  0  0  0  0  0  0  0  0  0
   59.3790   28.2710   47.7280 C   0  0  0  0  0  0  0  0  0  0  0  0
   59.9850   26.5590   47.5300 S   0  0  0  0  0  0  0  0  0  0  0  0
   58.3660   25.8540   47.2330 C   0  0  0  0  0  0  0  0  0  0  0  0
   58.1400   24.5400   47.4850 N   0  0  0  0  0  0  0  0  0  0  0  0
   56.9220   23.9820   47.2570 C   0  0  0  0  0  0  0  0  0  0  0  0
   56.7620   22.7520   47.4690 O   0  0  0  0  0  0  0  0  0  0  0  0
   55.8700   24.7770   46.7620 C   0  0  0  0  0  0  0  0  0  0  0  0
   54.5630   24.2470   46.4760 N   0  0  0  0  0  0  0  0  0  0  0  0
   54.2180   23.3870   45.3810 C   0  0  0  0  0  0  0  0  0  0  0  0
   52.9980   23.2010   45.1270 O   0  0  0  0  0  0  0  0  0  0  0  0
   55.2480   22.6780   44.5820 C   0  0  0  0  0  0  0  0  0  0  0  0
   55.6780   23.1870   43.3440 C   0  0  0  0  0  0  0  0  0  0  0  0
   56.6480   22.5090   42.5990 C   0  0  0  0  0  0  0  0  0  0  0  0
   57.2060   21.3250   43.0870 C   0  0  0  0  0  0  0  0  0  0  0  0
   56.7990   20.8180   44.3220 C   0  0  0  0  0  0  0  0  0  0  0  0
   55.8290   21.4920   45.0700 C   0  0  0  0  0  0  0  0  0  0  0  0
   56.1390   26.1210   46.4860 C   0  0  0  0  0  0  0  0  0  0  0  0
   55.1480   26.9440   45.9660 O   0  0  0  0  0  0  0  0  0  0  0  0
   57.3720   26.6320   46.7310 N   0  0  0  0  0  0  0  0  0  0  0  0
   58.3838   33.0359   47.3994 H   0  0  0  0  0  0  0  0  0  0  0  0
   59.0539   33.9291   45.9924 H   0  0  0  0  0  0  0  0  0  0  0  0
   57.3331   33.4141   45.9924 H   0  0  0  0  0  0  0  0  0  0  0  0
   58.1051   33.0896   43.3449 H   0  0  0  0  0  0  0  0  0  0  0  0
   56.8054   32.0410   41.4940 H   0  0  0  0  0  0  0  0  0  0  0  0
   55.9842   29.6944   41.7137 H   0  0  0  0  0  0  0  0  0  0  0  0
   56.5029   28.3775   43.7621 H   0  0  0  0  0  0  0  0  0  0  0  0
   57.0880   28.6570   46.2960 H   0  0  0  0  0  0  0  0  0  0  0  0
   60.1046   28.8400   48.3278 H   0  0  0  0  0  0  0  0  0  0  0  0
   58.4001   28.2352   48.2285 H   0  0  0  0  0  0  0  0  0  0  0  0
   55.2490   24.1239   42.9592 H   0  0  0  0  0  0  0  0  0  0  0  0
   56.9722   22.9088   41.6269 H   0  0  0  0  0  0  0  0  0  0  0  0
   57.9666   20.7920   42.4976 H   0  0  0  0  0  0  0  0  0  0  0  0
   57.2417   19.8875   44.7071 H   0  0  0  0  0  0  0  0  0  0  0  0
   55.5176   21.0929   46.0466 H   0  0  0  0  0  0  0  0  0  0  0  0
  1  2  1  0
  2  3  1  0
  3  4  2  0
  4  5  1  0
  5  6  2  0
  6  7  1  0
  7  8  2  0
  8  9  1  0
  9 10  1  0
 10 11  2  0
 10 12  1  0
 12 13  1  0
 13 14  1  0
 14 15  2  0
 15 16  1  0
 16 17  2  0
 16 18  1  0
 18 19  1  0
 19 20  1  0
 20 21  2  0
 20 22  1  0
 22 23  2  0
 23 24  1  0
 24 25  2  0
 25 26  1  0
 26 27  2  0
 18 28  2  0
 28 29  1  0
 28 30  1  0
  8  3  1  0
 30 14  1  0
 27 22  1  0
  1 31  1  0
  1 32  1  0
  1 33  1  0
  4 34  1  0
  5 35  1  0
  6 36  1  0
  7 37  1  0
  9 38  1  0
 12 39  1  0
 12 40  1  0
 23 41  1  0
 24 42  1  0
 25 43  1  0
 26 44  1  0
 27 45  1  0
M  CHG  3  19  -1  29  -1  30  -1
M  END
>  <UniqueID>  (39) 
37

>  <SMILES>  (39) 
COc1ccccc1NC(=O)CSc1nc(=O)c([N-]C(=O)c2ccccc2)c([O-])[n-]1

>  <Energy>  (39) 
55.76330629529149

>  <Genealogy>  (39) 
COc1ccccc1NC(=O)CSc1nc(=O)c([N-]C(=O)c2ccccc2)c([O-])[n-]1 (protonated)
COc1ccccc1NC(=O)CSc1nc(=O)c([N-]C(=O)c2ccccc2)c([O-])[n-]1 (3D coordinates assigned)
COc1ccccc1NC(=O)CSc1nc(=O)c([N-]C(=O)c2ccccc2)c([O-])[n-]1 (optimized conformer: 55.76330629529149 kcal/mol)

>  <smiles>  (39) 
COc1ccccc1NC(=O)CSc1nc(=O)c(NC(=O)c2ccccc2)c(O)[nH]1

>  <score_type>  (39) 
oracle

>  <origin>  (39) 
adg

>  <m_score__min__energy>  (39) 
-15.49

>  <m_primary>  (39) 
energy

$$$$
39:0
     RDKit          3D

 47 49  0  0  0  0  0  0  0  0999 V2000
   54.8840   26.2350   45.9710 N   0  0  0  0  0  0  0  0  0  0  0  0
   56.5550   25.8000   46.0490 S   0  0  0  0  0  0  0  0  0  0  0  0
   56.9010   24.9370   44.8690 O   0  0  0  0  0  0  0  0  0  0  0  0
   56.8130   25.0210   47.3080 O   0  0  0  0  0  0  0  0  0  0  0  0
   57.5430   27.2590   46.0380 C   0  0  0  0  0  0  0  0  0  0  0  0
   57.6640   28.0180   44.8710 C   0  0  0  0  0  0  0  0  0  0  0  0
   58.4390   29.1770   44.8670 C   0  0  0  0  0  0  0  0  0  0  0  0
   59.0910   29.6090   46.0360 C   0  0  0  0  0  0  0  0  0  0  0  0
   59.8980   30.7570   46.0180 O   0  0  0  0  0  0  0  0  0  0  0  0
   59.4530   32.0690   46.2360 C   0  0  0  0  0  0  0  0  0  0  0  0
   58.7690   32.7970   45.2480 C   0  0  0  0  0  0  0  0  0  0  0  0
   58.3320   34.0970   45.5100 C   0  0  0  0  0  0  0  0  0  0  0  0
   58.5600   34.6780   46.7600 C   0  0  0  0  0  0  0  0  0  0  0  0
   59.2200   33.9530   47.7710 C   0  0  0  0  0  0  0  0  0  0  0  0
   59.4670   34.5110   49.0760 N   0  0  0  0  0  0  0  0  0  0  0  0
   59.7260   33.5730   50.5140 S   0  0  0  0  0  0  0  0  0  0  0  0
   59.1220   34.3030   51.6800 O   0  0  0  0  0  0  0  0  0  0  0  0
   59.0490   32.2370   50.3800 O   0  0  0  0  0  0  0  0  0  0  0  0
   61.4780   33.3740   50.8030 C   0  0  0  0  0  0  0  0  0  0  0  0
   62.1970   33.1320   49.5070 C   0  0  0  0  0  0  0  0  0  0  0  0
   62.3880   31.8230   49.0370 C   0  0  0  0  0  0  0  0  0  0  0  0
   63.0840   31.5960   47.8460 C   0  0  0  0  0  0  0  0  0  0  0  0
   63.6020   32.6730   47.1220 C   0  0  0  0  0  0  0  0  0  0  0  0
   63.4270   33.9790   47.5890 C   0  0  0  0  0  0  0  0  0  0  0  0
   62.7300   34.2090   48.7800 C   0  0  0  0  0  0  0  0  0  0  0  0
   59.6600   32.6480   47.4940 C   0  0  0  0  0  0  0  0  0  0  0  0
   58.9770   28.8440   47.2220 C   0  0  0  0  0  0  0  0  0  0  0  0
   59.6360   29.2480   48.4410 N   0  0  0  0  0  0  0  0  0  0  0  0
   60.8780   29.1670   48.5430 O   0  0  0  0  0  0  0  0  0  0  0  0
   58.9180   29.6840   49.5310 O   0  0  0  0  0  0  0  0  0  0  0  0
   58.1950   27.6720   47.2050 C   0  0  0  0  0  0  0  0  0  0  0  0
   54.7640   27.0900   46.5590 H   0  0  0  0  0  0  0  0  0  0  0  0
   57.1468   27.7004   43.9536 H   0  0  0  0  0  0  0  0  0  0  0  0
   58.5416   29.7598   43.9397 H   0  0  0  0  0  0  0  0  0  0  0  0
   58.5772   32.3415   44.2653 H   0  0  0  0  0  0  0  0  0  0  0  0
   57.8061   34.6660   44.7292 H   0  0  0  0  0  0  0  0  0  0  0  0
   58.2224   35.7065   46.9554 H   0  0  0  0  0  0  0  0  0  0  0  0
   59.5500   35.5470   49.1730 H   0  0  0  0  0  0  0  0  0  0  0  0
   61.8741   34.2865   51.2726 H   0  0  0  0  0  0  0  0  0  0  0  0
   61.6350   32.5100   51.4655 H   0  0  0  0  0  0  0  0  0  0  0  0
   61.9883   30.9722   49.6083 H   0  0  0  0  0  0  0  0  0  0  0  0
   63.2240   30.5687   47.4785 H   0  0  0  0  0  0  0  0  0  0  0  0
   64.1478   32.4931   46.1841 H   0  0  0  0  0  0  0  0  0  0  0  0
   63.8375   34.8261   47.0198 H   0  0  0  0  0  0  0  0  0  0  0  0
   62.5989   35.2371   49.1484 H   0  0  0  0  0  0  0  0  0  0  0  0
   60.1749   32.0723   48.2772 H   0  0  0  0  0  0  0  0  0  0  0  0
   58.0957   27.0732   48.1224 H   0  0  0  0  0  0  0  0  0  0  0  0
  1  2  1  0
  2  3  2  0
  2  4  2  0
  2  5  1  0
  5  6  2  0
  6  7  1  0
  7  8  2  0
  8  9  1  0
  9 10  1  0
 10 11  2  0
 11 12  1  0
 12 13  2  0
 13 14  1  0
 14 15  1  0
 15 16  1  0
 16 17  2  0
 16 18  2  0
 16 19  1  0
 19 20  1  0
 20 21  2  0
 21 22  1  0
 22 23  2  0
 23 24  1  0
 24 25  2  0
 14 26  2  0
  8 27  1  0
 27 28  1  0
 28 29  2  0
 28 30  1  0
 27 31  2  0
 31  5  1  0
 26 10  1  0
 25 20  1  0
  1 32  1  0
  6 33  1  0
  7 34  1  0
 11 35  1  0
 12 36  1  0
 13 37  1  0
 15 38  1  0
 19 39  1  0
 19 40  1  0
 21 41  1  0
 22 42  1  0
 23 43  1  0
 24 44  1  0
 25 45  1  0
 26 46  1  0
 31 47  1  0
M  CHG  3   1  -1  28   1  30  -1
M  END
>  <UniqueID>  (40) 
38

>  <SMILES>  (40) 
[NH-]S(=O)(=O)c1ccc(Oc2cccc(NS(=O)(=O)Cc3ccccc3)c2)c([N+](=O)[O-])c1

>  <Energy>  (40) 
57.10396315738895

>  <Genealogy>  (40) 
[NH-]S(=O)(=O)c1ccc(Oc2cccc(NS(=O)(=O)Cc3ccccc3)c2)c([N+](=O)[O-])c1 (protonated)
[NH-]S(=O)(=O)c1ccc(Oc2cccc(NS(=O)(=O)Cc3ccccc3)c2)c([N+](=O)[O-])c1 (3D coordinates assigned)
[NH-]S(=O)(=O)c1ccc(Oc2cccc(NS(=O)(=O)Cc3ccccc3)c2)c([N+](=O)[O-])c1 (optimized conformer: 57.10396315738895 kcal/mol)

>  <smiles>  (40) 
NS(=O)(=O)c1ccc(Oc2cccc(NS(=O)(=O)Cc3ccccc3)c2)c([N+](=O)[O-])c1

>  <score_type>  (40) 
oracle

>  <origin>  (40) 
adg

>  <m_score__min__energy>  (40) 
-11.77

>  <m_primary>  (40) 
energy

$$$$
40:0
     RDKit          3D

 38 40  0  0  0  0  0  0  0  0999 V2000
   56.5800   29.3740   44.1450 C   0  0  0  0  0  0  0  0  0  0  0  0
   57.2720   29.0850   45.4520 C   0  0  0  0  0  0  0  0  0  0  0  0
   57.2700   27.8210   46.0640 C   0  0  0  0  0  0  0  0  0  0  0  0
   56.5700   26.5970   45.6250 C   0  0  0  0  0  0  0  0  0  0  0  0
   55.2110   26.3860   46.0040 N   0  0  0  0  0  0  0  0  0  0  0  0
   57.1470   25.7430   44.9040 O   0  0  0  0  0  0  0  0  0  0  0  0
   58.1970   27.9030   47.4650 S   0  0  0  0  0  0  0  0  0  0  0  0
   58.6010   29.5290   47.3310 C   0  0  0  0  0  0  0  0  0  0  0  0
   59.3430   30.3020   48.2870 N   0  0  0  0  0  0  0  0  0  0  0  0
   60.6330   29.9980   48.8280 C   0  0  0  0  0  0  0  0  0  0  0  0
   60.9390   28.7910   49.0160 O   0  0  0  0  0  0  0  0  0  0  0  0
   61.5760   31.0380   49.1130 N   0  0  0  0  0  0  0  0  0  0  0  0
   62.1070   31.9960   48.1860 C   0  0  0  0  0  0  0  0  0  0  0  0
   63.4880   32.1210   47.9480 C   0  0  0  0  0  0  0  0  0  0  0  0
   63.9630   33.0870   47.0540 C   0  0  0  0  0  0  0  0  0  0  0  0
   63.0680   33.9410   46.4040 C   0  0  0  0  0  0  0  0  0  0  0  0
   61.6970   33.8370   46.6540 C   0  0  0  0  0  0  0  0  0  0  0  0
   60.8300   34.6750   46.0330 F   0  0  0  0  0  0  0  0  0  0  0  0
   61.2200   32.8740   47.5480 C   0  0  0  0  0  0  0  0  0  0  0  0
   58.0050   30.0530   46.1840 C   0  0  0  0  0  0  0  0  0  0  0  0
   58.0960   31.4840   45.8160 C   0  0  0  0  0  0  0  0  0  0  0  0
   57.9010   32.4900   46.7750 C   0  0  0  0  0  0  0  0  0  0  0  0
   57.9840   33.8300   46.3910 C   0  0  0  0  0  0  0  0  0  0  0  0
   58.2580   34.1550   45.0620 C   0  0  0  0  0  0  0  0  0  0  0  0
   58.4460   33.1300   44.1320 C   0  0  0  0  0  0  0  0  0  0  0  0
   58.3600   31.8310   44.5250 N   0  0  0  0  0  0  0  0  0  0  0  0
   55.5816   29.7910   44.3431 H   0  0  0  0  0  0  0  0  0  0  0  0
   57.1728   30.0998   43.5689 H   0  0  0  0  0  0  0  0  0  0  0  0
   56.4805   28.4422   43.5689 H   0  0  0  0  0  0  0  0  0  0  0  0
   54.6970   27.0920   46.5760 H   0  0  0  0  0  0  0  0  0  0  0  0
   64.1962   31.4576   48.4661 H   0  0  0  0  0  0  0  0  0  0  0  0
   65.0427   33.1743   46.8626 H   0  0  0  0  0  0  0  0  0  0  0  0
   63.4425   34.6948   45.6958 H   0  0  0  0  0  0  0  0  0  0  0  0
   60.1413   32.8048   47.7522 H   0  0  0  0  0  0  0  0  0  0  0  0
   57.6846   32.2251   47.8205 H   0  0  0  0  0  0  0  0  0  0  0  0
   57.8338   34.6271   47.1341 H   0  0  0  0  0  0  0  0  0  0  0  0
   58.3253   35.2077   44.7499 H   0  0  0  0  0  0  0  0  0  0  0  0
   58.6636   33.3735   43.0816 H   0  0  0  0  0  0  0  0  0  0  0  0
  1  2  1  0
  2  3  2  0
  3  4  1  0
  4  5  1  0
  4  6  2  0
  3  7  1  0
  7  8  1  0
  8  9  1  0
  9 10  1  0
 10 11  2  0
 10 12  1  0
 12 13  1  0
 13 14  2  0
 14 15  1  0
 15 16  2  0
 16 17  1  0
 17 18  1  0
 17 19  2  0
  8 20  2  0
 20 21  1  0
 21 22  2  0
 22 23  1  0
 23 24  2  0
 24 25  1  0
 25 26  2  0
 20  2  1  0
 26 21  1  0
 19 13  1  0
  1 27  1  0
  1 28  1  0
  1 29  1  0
  5 30  1  0
 14 31  1  0
 15 32  1  0
 16 33  1  0
 19 34  1  0
 22 35  1  0
 23 36  1  0
 24 37  1  0
 25 38  1  0
M  CHG  3   5  -1   9  -1  12  -1
M  END
>  <UniqueID>  (41) 
39

>  <SMILES>  (41) 
Cc1c(C([NH-])=O)sc([N-]C(=O)[N-]c2cccc(F)c2)c1-c1ccccn1

>  <Energy>  (41) 
78.48262678224908

>  <Genealogy>  (41) 
Cc1c(C([NH-])=O)sc([N-]C(=O)[N-]c2cccc(F)c2)c1-c1ccccn1 (protonated)
Cc1c(C([NH-])=O)sc([N-]C(=O)[N-]c2cccc(F)c2)c1-c1ccccn1 (3D coordinates assigned)
Cc1c(C([NH-])=O)sc([N-]C(=O)[N-]c2cccc(F)c2)c1-c1ccccn1 (optimized conformer: 78.48262678224908 kcal/mol)

>  <smiles>  (41) 
Cc1c(C(N)=O)sc(NC(=O)Nc2cccc(F)c2)c1-c1ccccn1

>  <score_type>  (41) 
oracle

>  <origin>  (41) 
adg

>  <m_score__min__energy>  (41) 
-12.460000000000001

>  <m_primary>  (41) 
energy

$$$$
41:0
     RDKit          3D

 36 38  0  0  0  0  0  0  0  0999 V2000
   60.0513   26.4076   45.7850 H   0  0  0  0  0  0  0  0  0  0  0  0
   58.9570   26.4820   45.8680 C   0  0  0  0  0  0  0  0  0  0  0  0
   58.3260   27.6340   45.5200 N   0  0  0  0  0  0  0  0  0  0  0  0
   56.9740   27.7860   45.6030 C   0  0  0  0  0  0  0  0  0  0  0  0
   56.4740   28.9400   45.2520 N   0  0  0  0  0  0  0  0  0  0  0  0
   57.0450   29.9430   44.3980 C   0  0  0  0  0  0  0  0  0  0  0  0
   57.0820   29.7480   43.1530 O   0  0  0  0  0  0  0  0  0  0  0  0
   57.5290   31.2230   44.9800 C   0  0  0  0  0  0  0  0  0  0  0  0
   57.2990   32.4200   44.2720 C   0  0  0  0  0  0  0  0  0  0  0  0
   56.8277   32.3821   43.2788 H   0  0  0  0  0  0  0  0  0  0  0  0
   57.6620   33.6520   44.8160 C   0  0  0  0  0  0  0  0  0  0  0  0
   57.4784   34.5767   44.2492 H   0  0  0  0  0  0  0  0  0  0  0  0
   58.2560   33.7160   46.0740 C   0  0  0  0  0  0  0  0  0  0  0  0
   58.5302   34.6905   46.5044 H   0  0  0  0  0  0  0  0  0  0  0  0
   58.5030   32.5430   46.7880 C   0  0  0  0  0  0  0  0  0  0  0  0
   58.9745   32.5986   47.7803 H   0  0  0  0  0  0  0  0  0  0  0  0
   58.1560   31.2930   46.2530 C   0  0  0  0  0  0  0  0  0  0  0  0
   58.4670   30.1120   47.0000 N   0  0  0  0  0  0  0  0  0  0  0  0
   57.9960   29.2090   46.7670 H   0  0  0  0  0  0  0  0  0  0  0  0
   59.3930   30.2100   48.4590 S   0  0  0  0  0  0  0  0  0  0  0  0
   59.7790   28.8300   48.9140 O   0  0  0  0  0  0  0  0  0  0  0  0
   58.5750   30.8700   49.5320 O   0  0  0  0  0  0  0  0  0  0  0  0
   60.8290   31.1740   48.1630 C   0  0  0  0  0  0  0  0  0  0  0  0
   61.2750   32.5430   49.0330 S   0  0  0  0  0  0  0  0  0  0  0  0
   62.7440   32.7770   48.2440 C   0  0  0  0  0  0  0  0  0  0  0  0
   63.4595   33.5880   48.4447 H   0  0  0  0  0  0  0  0  0  0  0  0
   62.9000   31.7710   47.2950 C   0  0  0  0  0  0  0  0  0  0  0  0
   63.7804   31.6917   46.6403 H   0  0  0  0  0  0  0  0  0  0  0  0
   61.8290   30.8690   47.2530 C   0  0  0  0  0  0  0  0  0  0  0  0
   61.7861   30.0085   46.5692 H   0  0  0  0  0  0  0  0  0  0  0  0
   56.1900   26.6800   46.0250 C   0  0  0  0  0  0  0  0  0  0  0  0
   54.8000   26.7070   46.0270 O   0  0  0  0  0  0  0  0  0  0  0  0
   56.8310   25.4960   46.4030 C   0  0  0  0  0  0  0  0  0  0  0  0
   56.2374   24.6412   46.7593 H   0  0  0  0  0  0  0  0  0  0  0  0
   58.2180   25.3950   46.3300 C   0  0  0  0  0  0  0  0  0  0  0  0
   58.7246   24.4671   46.6338 H   0  0  0  0  0  0  0  0  0  0  0  0
  1  2  1  0
  2  3  1  0
  3  4  1  0
  4  5  2  0
  5  6  1  0
  6  7  2  0
  6  8  1  0
  8  9  2  0
  9 10  1  0
  9 11  1  0
 11 12  1  0
 11 13  2  0
 13 14  1  0
 13 15  1  0
 15 16  1  0
 15 17  2  0
 17 18  1  0
 18 19  1  0
 18 20  1  0
 20 21  2  0
 20 22  2  0
 20 23  1  0
 23 24  1  0
 24 25  1  0
 25 26  1  0
 25 27  2  0
 27 28  1  0
 27 29  1  0
 29 30  1  0
  4 31  1  0
 31 32  1  0
 31 33  2  0
 33 34  1  0
 33 35  1  0
 35 36  1  0
 35  2  2  0
 17  8  1  0
 29 23  2  0
M  CHG  2   3  -1  32  -1
M  END
>  <UniqueID>  (42) 
40

>  <SMILES>  (42) 
O=C(/N=c1/[n-]cccc1[O-])c1ccccc1NS(=O)(=O)c1cccs1

>  <Energy>  (42) 
85.81529741152903

>  <Genealogy>  (42) 
O=C(N=c1[n-]cccc1[O-])c1ccccc1NS(=O)(=O)c1cccs1 (protonated)
O=C(/N=c1/[n-]cccc1[O-])c1ccccc1NS(=O)(=O)c1cccs1 (cis-trans isomerization)
O=C(/N=c1/[n-]cccc1[O-])c1ccccc1NS(=O)(=O)c1cccs1 (3D coordinates assigned)
O=C(/N=c1/[n-]cccc1[O-])c1ccccc1NS(=O)(=O)c1cccs1 (optimized conformer: 85.81529741152903 kcal/mol)

>  <smiles>  (42) 
O=C(N=c1[nH]cccc1O)c1ccccc1NS(=O)(=O)c1cccs1

>  <score_type>  (42) 
oracle

>  <origin>  (42) 
adg

>  <m_score__min__energy>  (42) 
-14.17

>  <m_primary>  (42) 
energy

$$$$
42:0
     RDKit          3D

 51 54  0  0  0  0  0  0  0  0999 V2000
   57.6060   28.5410   43.9610 C   0  0  0  0  0  0  0  0  0  0  0  0
   58.0400   27.8370   45.0190 C   0  0  0  0  0  0  0  0  0  0  0  0
   57.8940   26.4600   45.2160 C   0  0  0  0  0  0  0  0  0  0  0  0
   57.2910   25.5750   44.3980 C   0  0  0  0  0  0  0  0  0  0  0  0
   56.1190   24.7630   44.7960 C   0  0  0  0  0  0  0  0  0  0  0  0
   55.0920   25.2950   45.5960 C   0  0  0  0  0  0  0  0  0  0  0  0
   55.1490   26.6140   46.0390 O   0  0  0  0  0  0  0  0  0  0  0  0
   54.0420   24.5110   45.9580 N   0  0  0  0  0  0  0  0  0  0  0  0
   53.9730   23.2100   45.5770 C   0  0  0  0  0  0  0  0  0  0  0  0
   52.6990   22.2960   46.0270 S   0  0  0  0  0  0  0  0  0  0  0  0
   54.9670   22.6670   44.8300 N   0  0  0  0  0  0  0  0  0  0  0  0
   56.0370   23.4070   44.4400 C   0  0  0  0  0  0  0  0  0  0  0  0
   56.9430   22.8690   43.7480 O   0  0  0  0  0  0  0  0  0  0  0  0
   58.4550   26.1810   46.4550 C   0  0  0  0  0  0  0  0  0  0  0  0
   58.9310   27.3770   46.9530 C   0  0  0  0  0  0  0  0  0  0  0  0
   59.6020   27.5390   48.2820 C   0  0  0  0  0  0  0  0  0  0  0  0
   58.6740   28.3830   46.0870 N   0  0  0  0  0  0  0  0  0  0  0  0
   59.0300   29.7650   46.2760 C   0  0  0  0  0  0  0  0  0  0  0  0
   60.3580   30.1210   46.5430 C   0  0  0  0  0  0  0  0  0  0  0  0
   60.7080   31.4640   46.7070 C   0  0  0  0  0  0  0  0  0  0  0  0
   59.7350   32.4720   46.5950 C   0  0  0  0  0  0  0  0  0  0  0  0
   60.1150   33.8940   46.7650 C   0  0  0  0  0  0  0  0  0  0  0  0
   59.9780   34.6900   45.7980 O   0  0  0  0  0  0  0  0  0  0  0  0
   60.6840   34.3880   47.9860 N   0  0  0  0  0  0  0  0  0  0  0  0
   61.8980   33.9290   48.6020 C   0  0  0  0  0  0  0  0  0  0  0  0
   61.9870   33.7720   49.9980 C   0  0  0  0  0  0  0  0  0  0  0  0
   63.1770   33.3400   50.5860 C   0  0  0  0  0  0  0  0  0  0  0  0
   64.2950   33.0760   49.7930 C   0  0  0  0  0  0  0  0  0  0  0  0
   64.2260   33.2510   48.4090 C   0  0  0  0  0  0  0  0  0  0  0  0
   63.0360   33.6840   47.8040 C   0  0  0  0  0  0  0  0  0  0  0  0
   62.9900   33.8570   46.3830 N   0  0  0  0  0  0  0  0  0  0  0  0
   58.4000   32.1080   46.3440 C   0  0  0  0  0  0  0  0  0  0  0  0
   58.0530   30.7640   46.1790 C   0  0  0  0  0  0  0  0  0  0  0  0
   57.7787   29.6263   43.9142 H   0  0  0  0  0  0  0  0  0  0  0  0
   57.0778   28.0323   43.1411 H   0  0  0  0  0  0  0  0  0  0  0  0
   57.6907   25.4494   43.3809 H   0  0  0  0  0  0  0  0  0  0  0  0
   54.3160   27.0900   46.3630 H   0  0  0  0  0  0  0  0  0  0  0  0
   58.5095   25.1975   46.9447 H   0  0  0  0  0  0  0  0  0  0  0  0
   58.8716   27.3627   49.0854 H   0  0  0  0  0  0  0  0  0  0  0  0
   60.4244   26.8136   48.3684 H   0  0  0  0  0  0  0  0  0  0  0  0
   60.0028   28.5597   48.3684 H   0  0  0  0  0  0  0  0  0  0  0  0
   61.1287   29.3403   46.6239 H   0  0  0  0  0  0  0  0  0  0  0  0
   61.7518   31.7339   46.9252 H   0  0  0  0  0  0  0  0  0  0  0  0
   61.1134   33.9911   50.6295 H   0  0  0  0  0  0  0  0  0  0  0  0
   63.2339   33.2073   51.6765 H   0  0  0  0  0  0  0  0  0  0  0  0
   65.2300   32.7303   50.2579 H   0  0  0  0  0  0  0  0  0  0  0  0
   65.1112   33.0479   47.7884 H   0  0  0  0  0  0  0  0  0  0  0  0
   63.8170   33.6540   45.7800 H   0  0  0  0  0  0  0  0  0  0  0  0
   62.1190   34.1970   45.9170 H   0  0  0  0  0  0  0  0  0  0  0  0
   57.6245   32.8853   46.2771 H   0  0  0  0  0  0  0  0  0  0  0  0
   57.0080   30.4897   45.9721 H   0  0  0  0  0  0  0  0  0  0  0  0
  1  2  2  0
  2  3  1  0
  3  4  2  3
  4  5  1  0
  5  6  2  0
  6  7  1  0
  6  8  1  0
  8  9  1  0
  9 10  2  0
  9 11  1  0
 11 12  1  0
 12 13  2  0
  3 14  1  0
 14 15  2  0
 15 16  1  0
 15 17  1  0
 17 18  1  0
 18 19  2  0
 19 20  1  0
 20 21  2  0
 21 22  1  0
 22 23  2  0
 22 24  1  0
 24 25  1  0
 25 26  2  0
 26 27  1  0
 27 28  2  0
 28 29  1  0
 29 30  2  0
 30 31  1  0
 21 32  1  0
 32 33  2  0
 17  2  1  0
 33 18  1  0
 12  5  1  0
 30 25  1  0
  1 34  1  0
  1 35  1  0
  4 36  1  0
  7 37  1  0
 14 38  1  0
 16 39  1  0
 16 40  1  0
 16 41  1  0
 19 42  1  0
 20 43  1  0
 26 44  1  0
 27 45  1  0
 28 46  1  0
 29 47  1  0
 31 48  1  0
 31 49  1  0
 32 50  1  0
 33 51  1  0
M  CHG  3   8  -1  11  -1  24  -1
M  END
>  <UniqueID>  (43) 
41

>  <SMILES>  (43) 
C=c1c(=Cc2c(O)[n-]c(=S)[n-]c2=O)cc(C)n1-c1ccc(C(=O)[N-]c2ccccc2N)cc1

>  <Energy>  (43) 
106.19704709827829

>  <Genealogy>  (43) 
C=c1c(=Cc2c(O)[n-]c(=S)[n-]c2=O)cc(C)n1-c1ccc(C(=O)[N-]c2ccccc2N)cc1 (protonated)
C=c1c(=Cc2c(O)[n-]c(=S)[n-]c2=O)cc(C)n1-c1ccc(C(=O)[N-]c2ccccc2N)cc1 (3D coordinates assigned)
C=c1c(=Cc2c(O)[n-]c(=S)[n-]c2=O)cc(C)n1-c1ccc(C(=O)[N-]c2ccccc2N)cc1 (optimized conformer: 106.19704709827829 kcal/mol)

>  <smiles>  (43) 
C=c1c(=Cc2c(O)[nH]c(=S)[nH]c2=O)cc(C)n1-c1ccc(C(=O)Nc2ccccc2N)cc1

>  <score_type>  (43) 
oracle

>  <origin>  (43) 
adg

>  <m_score__min__energy>  (43) 
-14.390000000000001

>  <m_primary>  (43) 
energy

$$$$
43:0
     RDKit          3D

 47 49  0  0  0  0  0  0  0  0999 V2000
   59.2490   30.1130   49.2020 O   0  0  0  0  0  0  0  0  0  0  0  0
   59.5330   31.1660   48.5710 C   0  0  0  0  0  0  0  0  0  0  0  0
   58.5210   32.2790   48.4990 C   0  0  0  0  0  0  0  0  0  0  0  0
   58.3700   32.7950   47.0900 C   0  0  0  0  0  0  0  0  0  0  0  0
   58.8040   34.0910   46.7670 C   0  0  0  0  0  0  0  0  0  0  0  0
   58.6630   34.5760   45.4650 C   0  0  0  0  0  0  0  0  0  0  0  0
   58.0810   33.7780   44.4780 C   0  0  0  0  0  0  0  0  0  0  0  0
   57.6280   32.4840   44.7900 C   0  0  0  0  0  0  0  0  0  0  0  0
   57.0090   31.6360   43.8140 N   0  0  0  0  0  0  0  0  0  0  0  0
   56.6910   29.9430   44.0180 S   0  0  0  0  0  0  0  0  0  0  0  0
   55.4610   29.7740   44.8660 O   0  0  0  0  0  0  0  0  0  0  0  0
   56.4440   29.3210   42.6720 O   0  0  0  0  0  0  0  0  0  0  0  0
   58.0730   29.1460   44.7660 C   0  0  0  0  0  0  0  0  0  0  0  0
   57.8900   28.3420   45.8980 C   0  0  0  0  0  0  0  0  0  0  0  0
   58.9940   27.7220   46.4840 C   0  0  0  0  0  0  0  0  0  0  0  0
   60.2640   27.9070   45.9380 C   0  0  0  0  0  0  0  0  0  0  0  0
   60.4120   28.7130   44.8070 C   0  0  0  0  0  0  0  0  0  0  0  0
   59.3240   29.3090   44.2460 N   0  0  0  0  0  0  0  0  0  0  0  0
   57.7840   31.9980   46.0940 C   0  0  0  0  0  0  0  0  0  0  0  0
   60.8810   31.3320   47.9810 C   0  0  0  0  0  0  0  0  0  0  0  0
   61.3930   30.3630   47.3560 O   0  0  0  0  0  0  0  0  0  0  0  0
   61.6180   32.5680   48.1030 N   0  0  0  0  0  0  0  0  0  0  0  0
   62.6640   32.9130   47.1300 C   0  0  0  0  0  0  0  0  0  0  0  0
   64.0170   33.1190   47.8410 C   0  0  0  0  0  0  0  0  0  0  0  0
   63.8950   33.6180   49.2270 N   0  0  0  0  0  0  0  0  0  0  0  0
   62.6520   34.3660   49.4530 C   0  0  0  0  0  0  0  0  0  0  0  0
   61.4340   33.4470   49.2670 C   0  0  0  0  0  0  0  0  0  0  0  0
   57.5485   31.9016   48.8481 H   0  0  0  0  0  0  0  0  0  0  0  0
   58.8699   33.1059   49.1350 H   0  0  0  0  0  0  0  0  0  0  0  0
   59.2567   34.7264   47.5424 H   0  0  0  0  0  0  0  0  0  0  0  0
   59.0113   35.5893   45.2164 H   0  0  0  0  0  0  0  0  0  0  0  0
   57.9766   34.1630   43.4529 H   0  0  0  0  0  0  0  0  0  0  0  0
   56.8847   28.2006   46.3214 H   0  0  0  0  0  0  0  0  0  0  0  0
   58.8631   27.0891   47.3741 H   0  0  0  0  0  0  0  0  0  0  0  0
   61.1404   27.4229   46.3936 H   0  0  0  0  0  0  0  0  0  0  0  0
   61.4092   28.8665   44.3688 H   0  0  0  0  0  0  0  0  0  0  0  0
   59.4620   29.9040   43.3990 H   0  0  0  0  0  0  0  0  0  0  0  0
   57.4439   30.9813   46.3404 H   0  0  0  0  0  0  0  0  0  0  0  0
   62.7603   32.0977   46.3979 H   0  0  0  0  0  0  0  0  0  0  0  0
   62.3831   33.8476   46.6224 H   0  0  0  0  0  0  0  0  0  0  0  0
   64.5459   32.1548   47.8653 H   0  0  0  0  0  0  0  0  0  0  0  0
   64.5632   33.8859   47.2723 H   0  0  0  0  0  0  0  0  0  0  0  0
   63.9140   32.8010   49.8820 H   0  0  0  0  0  0  0  0  0  0  0  0
   62.6510   34.7667   50.4774 H   0  0  0  0  0  0  0  0  0  0  0  0
   62.5930   35.1892   48.7258 H   0  0  0  0  0  0  0  0  0  0  0  0
   61.3064   32.8299   50.1686 H   0  0  0  0  0  0  0  0  0  0  0  0
   60.5430   34.0705   49.1015 H   0  0  0  0  0  0  0  0  0  0  0  0
  1  2  2  0
  2  3  1  0
  3  4  1  0
  4  5  2  0
  5  6  1  0
  6  7  2  0
  7  8  1  0
  8  9  1  0
  9 10  1  0
 10 11  2  0
 10 12  2  0
 10 13  1  0
 13 14  2  0
 14 15  1  0
 15 16  2  0
 16 17  1  0
 17 18  2  0
  8 19  2  0
  2 20  1  0
 20 21  2  0
 20 22  1  0
 22 23  1  0
 23 24  1  0
 24 25  1  0
 25 26  1  0
 26 27  1  0
 19  4  1  0
 27 22  1  0
 18 13  1  0
  3 28  1  0
  3 29  1  0
  5 30  1  0
  6 31  1  0
  7 32  1  0
 14 33  1  0
 15 34  1  0
 16 35  1  0
 17 36  1  0
 18 37  1  0
 19 38  1  0
 23 39  1  0
 23 40  1  0
 24 41  1  0
 24 42  1  0
 25 43  1  0
 26 44  1  0
 26 45  1  0
 27 46  1  0
 27 47  1  0
M  CHG  2   9  -1  18   1
M  END
>  <UniqueID>  (44) 
42

>  <SMILES>  (44) 
O=C(Cc1cccc([N-]S(=O)(=O)c2cccc[nH+]2)c1)C(=O)N1CCNCC1

>  <Energy>  (44) 
58.10435768271384

>  <Genealogy>  (44) 
O=C(Cc1cccc([N-]S(=O)(=O)c2cccc[nH+]2)c1)C(=O)N1CCNCC1 (protonated)
O=C(Cc1cccc([N-]S(=O)(=O)c2cccc[nH+]2)c1)C(=O)N1CCNCC1 (3D coordinates assigned)
O=C(Cc1cccc([N-]S(=O)(=O)c2cccc[nH+]2)c1)C(=O)N1CCNCC1 (nonaromatic ring conformer: 58.10435768271384 kcal/mol)

>  <smiles>  (44) 
O=C(Cc1cccc(NS(=O)(=O)c2ccccn2)c1)C(=O)N1CCNCC1

>  <score_type>  (44) 
oracle

>  <origin>  (44) 
adg

>  <m_score__min__energy>  (44) 
-9.4100000000000001

>  <m_primary>  (44) 
energy

$$$$
44:0
     RDKit          3D

 54 57  0  0  0  0  0  0  0  0999 V2000
   54.3080   28.9860   52.0500 O   0  0  0  0  0  0  0  0  0  0  0  0
   54.4650   30.2350   52.0280 C   0  0  0  0  0  0  0  0  0  0  0  0
   53.4090   31.1170   51.4370 C   0  0  0  0  0  0  0  0  0  0  0  0
   52.2690   31.2610   52.4150 C   0  0  0  0  0  0  0  0  0  0  0  0
   52.3630   30.6660   53.6870 C   0  0  0  0  0  0  0  0  0  0  0  0
   51.3710   30.8760   54.6490 C   0  0  0  0  0  0  0  0  0  0  0  0
   50.2750   31.6890   54.3500 C   0  0  0  0  0  0  0  0  0  0  0  0
   50.1690   32.2870   53.0900 C   0  0  0  0  0  0  0  0  0  0  0  0
   51.1640   32.0830   52.1260 C   0  0  0  0  0  0  0  0  0  0  0  0
   51.0520   32.7100   50.8900 O   0  0  0  0  0  0  0  0  0  0  0  0
   55.6560   30.8220   52.5680 N   0  0  0  0  0  0  0  0  0  0  0  0
   56.9060   30.9460   51.8760 C   0  0  0  0  0  0  0  0  0  0  0  0
   57.0160   31.9020   50.8620 C   0  0  0  0  0  0  0  0  0  0  0  0
   58.1700   31.9720   50.0770 C   0  0  0  0  0  0  0  0  0  0  0  0
   59.2330   31.0780   50.2960 C   0  0  0  0  0  0  0  0  0  0  0  0
   60.4230   31.0930   49.4170 C   0  0  0  0  0  0  0  0  0  0  0  0
   61.5660   30.9330   49.9190 O   0  0  0  0  0  0  0  0  0  0  0  0
   60.3130   31.3180   48.0070 N   0  0  0  0  0  0  0  0  0  0  0  0
   59.4330   30.6140   47.1140 C   0  0  0  0  0  0  0  0  0  0  0  0
   59.4090   29.2060   47.0850 C   0  0  0  0  0  0  0  0  0  0  0  0
   58.5630   28.5300   46.2000 C   0  0  0  0  0  0  0  0  0  0  0  0
   57.7500   29.2520   45.3230 C   0  0  0  0  0  0  0  0  0  0  0  0
   57.7860   30.6490   45.3260 C   0  0  0  0  0  0  0  0  0  0  0  0
   58.6290   31.3370   46.2110 C   0  0  0  0  0  0  0  0  0  0  0  0
   58.6440   32.7710   46.1970 N   0  0  0  0  0  0  0  0  0  0  0  0
   58.8630   33.4830   44.9310 C   0  0  0  0  0  0  0  0  0  0  0  0
   59.1840   34.9500   45.1990 C   0  0  0  0  0  0  0  0  0  0  0  0
   60.0720   35.0310   46.2970 O   0  0  0  0  0  0  0  0  0  0  0  0
   59.3770   34.7690   47.5060 C   0  0  0  0  0  0  0  0  0  0  0  0
   58.4700   33.5110   47.4520 C   0  0  0  0  0  0  0  0  0  0  0  0
   59.1380   30.1420   51.3360 C   0  0  0  0  0  0  0  0  0  0  0  0
   57.9780   30.0640   52.1100 C   0  0  0  0  0  0  0  0  0  0  0  0
   53.8362   32.1079   51.2233 H   0  0  0  0  0  0  0  0  0  0  0  0
   53.0372   30.6691   50.5037 H   0  0  0  0  0  0  0  0  0  0  0  0
   53.2268   30.0286   53.9267 H   0  0  0  0  0  0  0  0  0  0  0  0
   51.4530   30.4026   55.6385 H   0  0  0  0  0  0  0  0  0  0  0  0
   49.4945   31.8591   55.1063 H   0  0  0  0  0  0  0  0  0  0  0  0
   49.3006   32.9201   52.8554 H   0  0  0  0  0  0  0  0  0  0  0  0
   56.1886   32.6039   50.6808 H   0  0  0  0  0  0  0  0  0  0  0  0
   58.2472   32.7302   49.2838 H   0  0  0  0  0  0  0  0  0  0  0  0
   60.0599   28.6343   47.7629 H   0  0  0  0  0  0  0  0  0  0  0  0
   58.5378   27.4303   46.1945 H   0  0  0  0  0  0  0  0  0  0  0  0
   57.0812   28.7207   44.6298 H   0  0  0  0  0  0  0  0  0  0  0  0
   57.1486   31.2131   44.6292 H   0  0  0  0  0  0  0  0  0  0  0  0
   59.7039   33.0194   44.3944 H   0  0  0  0  0  0  0  0  0  0  0  0
   57.9488   33.4215   44.3224 H   0  0  0  0  0  0  0  0  0  0  0  0
   59.6552   35.3935   44.3094 H   0  0  0  0  0  0  0  0  0  0  0  0
   58.2583   35.4987   45.4268 H   0  0  0  0  0  0  0  0  0  0  0  0
   60.1174   34.6276   48.3071 H   0  0  0  0  0  0  0  0  0  0  0  0
   58.7169   35.6301   47.6870 H   0  0  0  0  0  0  0  0  0  0  0  0
   58.7256   32.8506   48.2938 H   0  0  0  0  0  0  0  0  0  0  0  0
   57.4223   33.8403   47.5139 H   0  0  0  0  0  0  0  0  0  0  0  0
   59.9809   29.4662   51.5431 H   0  0  0  0  0  0  0  0  0  0  0  0
   57.9016   29.3094   52.9067 H   0  0  0  0  0  0  0  0  0  0  0  0
  1  2  2  0
  2  3  1  0
  3  4  1  0
  4  5  2  0
  5  6  1  0
  6  7  2  0
  7  8  1  0
  8  9  2  0
  9 10  1  0
  2 11  1  0
 11 12  1  0
 12 13  2  0
 13 14  1  0
 14 15  2  0
 15 16  1  0
 16 17  2  0
 16 18  1  0
 18 19  1  0
 19 20  2  0
 20 21  1  0
 21 22  2  0
 22 23  1  0
 23 24  2  0
 24 25  1  0
 25 26  1  0
 26 27  1  0
 27 28  1  0
 28 29  1  0
 29 30  1  0
 15 31  1  0
 31 32  2  0
  9  4  1  0
 32 12  1  0
 24 19  1  0
 30 25  1  0
  3 33  1  0
  3 34  1  0
  5 35  1  0
  6 36  1  0
  7 37  1  0
  8 38  1  0
 13 39  1  0
 14 40  1  0
 20 41  1  0
 21 42  1  0
 22 43  1  0
 23 44  1  0
 26 45  1  0
 26 46  1  0
 27 47  1  0
 27 48  1  0
 29 49  1  0
 29 50  1  0
 30 51  1  0
 30 52  1  0
 31 53  1  0
 32 54  1  0
M  CHG  3  10  -1  11  -1  18  -1
M  END
>  <UniqueID>  (45) 
43

>  <SMILES>  (45) 
O=C(Cc1ccccc1[O-])[N-]c1ccc(C(=O)[N-]c2ccccc2N2CCOCC2)cc1

>  <Energy>  (45) 
80.41165363164357

>  <Genealogy>  (45) 
O=C(Cc1ccccc1[O-])[N-]c1ccc(C(=O)[N-]c2ccccc2N2CCOCC2)cc1 (protonated)
O=C(Cc1ccccc1[O-])[N-]c1ccc(C(=O)[N-]c2ccccc2N2CCOCC2)cc1 (3D coordinates assigned)
O=C(Cc1ccccc1[O-])[N-]c1ccc(C(=O)[N-]c2ccccc2N2CCOCC2)cc1 (nonaromatic ring conformer: 80.41165363164357 kcal/mol)

>  <smiles>  (45) 
O=C(Cc1ccccc1O)Nc1ccc(C(=O)Nc2ccccc2N2CCOCC2)cc1

>  <score_type>  (45) 
oracle

>  <origin>  (45) 
adg

>  <m_score__min__energy>  (45) 
-14.74

>  <m_primary>  (45) 
energy

$$$$
45:0
     RDKit          3D

 40 42  0  0  0  0  0  0  0  0999 V2000
   57.0030   34.1650   45.0640 C   0  0  0  0  0  0  0  0  0  0  0  0
   58.1170   34.4200   45.9920 N   0  0  0  0  0  0  0  0  0  0  0  0
   59.2770   34.9860   45.2890 C   0  0  0  0  0  0  0  0  0  0  0  0
   58.4600   33.2390   46.8160 C   0  0  0  0  0  0  0  0  0  0  0  0
   59.7970   32.5680   46.4350 C   0  0  0  0  0  0  0  0  0  0  0  0
   59.8520   31.1610   46.9630 C   0  0  0  0  0  0  0  0  0  0  0  0
   59.5060   30.0570   46.2820 C   0  0  0  0  0  0  0  0  0  0  0  0
   59.0700   29.9900   44.8420 C   0  0  0  0  0  0  0  0  0  0  0  0
   57.5840   29.8370   44.7570 C   0  0  0  0  0  0  0  0  0  0  0  0
   56.8630   28.7110   45.0750 C   0  0  0  0  0  0  0  0  0  0  0  0
   55.5570   28.9700   44.9040 N   0  0  0  0  0  0  0  0  0  0  0  0
   55.5260   30.2540   44.4900 C   0  0  0  0  0  0  0  0  0  0  0  0
   56.7460   30.8220   44.3900 N   0  0  0  0  0  0  0  0  0  0  0  0
   59.7540   28.9040   47.1340 C   0  0  0  0  0  0  0  0  0  0  0  0
   59.5810   27.5430   46.8720 C   0  0  0  0  0  0  0  0  0  0  0  0
   59.9100   26.6230   47.8800 C   0  0  0  0  0  0  0  0  0  0  0  0
   60.4040   27.0750   49.1210 C   0  0  0  0  0  0  0  0  0  0  0  0
   60.7200   26.1790   50.0880 F   0  0  0  0  0  0  0  0  0  0  0  0
   60.5730   28.4490   49.3580 C   0  0  0  0  0  0  0  0  0  0  0  0
   60.2380   29.3460   48.3420 C   0  0  0  0  0  0  0  0  0  0  0  0
   60.3450   30.8300   48.3480 C   0  0  0  0  0  0  0  0  0  0  0  0
   56.0883   33.9556   45.6380 H   0  0  0  0  0  0  0  0  0  0  0  0
   56.8438   35.0499   44.4303 H   0  0  0  0  0  0  0  0  0  0  0  0
   57.2446   33.2989   44.4303 H   0  0  0  0  0  0  0  0  0  0  0  0
   60.0122   35.3447   46.0244 H   0  0  0  0  0  0  0  0  0  0  0  0
   59.7373   34.2113   44.6582 H   0  0  0  0  0  0  0  0  0  0  0  0
   58.9496   35.8256   44.6582 H   0  0  0  0  0  0  0  0  0  0  0  0
   58.5212   33.5578   47.8670 H   0  0  0  0  0  0  0  0  0  0  0  0
   57.6710   32.4925   46.6422 H   0  0  0  0  0  0  0  0  0  0  0  0
   59.8917   32.5470   45.3393 H   0  0  0  0  0  0  0  0  0  0  0  0
   60.6224   33.1454   46.8771 H   0  0  0  0  0  0  0  0  0  0  0  0
   59.3697   30.9155   44.3285 H   0  0  0  0  0  0  0  0  0  0  0  0
   59.5475   29.1224   44.3631 H   0  0  0  0  0  0  0  0  0  0  0  0
   57.2867   27.7542   45.4141 H   0  0  0  0  0  0  0  0  0  0  0  0
   54.5932   30.7879   44.2559 H   0  0  0  0  0  0  0  0  0  0  0  0
   59.1965   27.2005   45.9000 H   0  0  0  0  0  0  0  0  0  0  0  0
   59.7819   25.5452   47.7011 H   0  0  0  0  0  0  0  0  0  0  0  0
   60.9605   28.8101   50.3221 H   0  0  0  0  0  0  0  0  0  0  0  0
   59.7046   31.2778   49.1222 H   0  0  0  0  0  0  0  0  0  0  0  0
   61.3523   31.2105   48.5731 H   0  0  0  0  0  0  0  0  0  0  0  0
  1  2  1  0
  2  3  1  0
  2  4  1  0
  4  5  1  0
  5  6  1  0
  6  7  2  0
  7  8  1  0
  8  9  1  0
  9 10  2  0
 10 11  1  0
 11 12  1  0
 12 13  2  0
  7 14  1  0
 14 15  2  0
 15 16  1  0
 16 17  2  0
 17 18  1  0
 17 19  1  0
 19 20  2  0
 20 21  1  0
 21  6  1  0
 13  9  1  0
 20 14  1  0
  1 22  1  0
  1 23  1  0
  1 24  1  0
  3 25  1  0
  3 26  1  0
  3 27  1  0
  4 28  1  0
  4 29  1  0
  5 30  1  0
  5 31  1  0
  8 32  1  0
  8 33  1  0
 10 34  1  0
 12 35  1  0
 15 36  1  0
 16 37  1  0
 19 38  1  0
 21 39  1  0
 21 40  1  0
M  CHG  1  11  -1
M  END
>  <UniqueID>  (46) 
44

>  <SMILES>  (46) 
CN(C)CCC1=C(Cc2c[n-]cn2)c2ccc(F)cc2C1

>  <Energy>  (46) 
83.85166045967739

>  <Genealogy>  (46) 
CN(C)CCC1=C(Cc2c[n-]cn2)c2ccc(F)cc2C1 (protonated)
CN(C)CCC1=C(Cc2c[n-]cn2)c2ccc(F)cc2C1 (3D coordinates assigned)
CN(C)CCC1=C(Cc2c[n-]cn2)c2ccc(F)cc2C1 (nonaromatic ring conformer: 83.85166045967739 kcal/mol)

>  <smiles>  (46) 
CN(C)CCC1=C(Cc2c[nH]cn2)c2ccc(F)cc2C1

>  <score_type>  (46) 
oracle

>  <origin>  (46) 
adg

>  <m_score__min__energy>  (46) 
-8.1799999999999997

>  <m_primary>  (46) 
energy

$$$$
46:0
     RDKit          3D

 55 58  0  0  0  0  0  0  0  0999 V2000
   54.8497   30.0239   44.0596 H   0  0  0  0  0  0  0  0  0  0  0  0
   55.8090   29.7290   44.5100 C   0  0  0  0  0  0  0  0  0  0  0  0
   55.9550   28.5960   45.2470 N   0  0  0  0  0  0  0  0  0  0  0  0
   57.2170   28.4510   45.7040 C   0  0  0  0  0  0  0  0  0  0  0  0
   57.5670   27.4330   46.4350 N   0  0  0  0  0  0  0  0  0  0  0  0
   58.8720   27.1330   46.9620 C   0  0  0  0  0  0  0  0  0  0  0  0
   59.3570   25.9730   46.8610 O   0  0  0  0  0  0  0  0  0  0  0  0
   59.6520   28.1950   47.6400 C   0  0  0  0  0  0  0  0  0  0  0  0
   60.4300   29.0990   46.8960 C   0  0  0  0  0  0  0  0  0  0  0  0
   60.4637   29.0160   45.7997 H   0  0  0  0  0  0  0  0  0  0  0  0
   61.1600   30.1010   47.5370 C   0  0  0  0  0  0  0  0  0  0  0  0
   61.7874   30.7830   46.9444 H   0  0  0  0  0  0  0  0  0  0  0  0
   61.1000   30.2450   48.9290 C   0  0  0  0  0  0  0  0  0  0  0  0
   62.0140   31.5210   49.7470 S   0  0  0  0  0  0  0  0  0  0  0  0
   61.5780   31.5540   51.1860 O   0  0  0  0  0  0  0  0  0  0  0  0
   63.4800   31.1870   49.7200 O   0  0  0  0  0  0  0  0  0  0  0  0
   61.7670   33.1100   49.0510 N   0  0  0  0  0  0  0  0  0  0  0  0
   62.5140   34.1480   49.7680 C   0  0  0  0  0  0  0  0  0  0  0  0
   62.4046   33.9959   50.8519 H   0  0  0  0  0  0  0  0  0  0  0  0
   63.5779   34.0888   49.4950 H   0  0  0  0  0  0  0  0  0  0  0  0
   62.1200   35.1381   49.4950 H   0  0  0  0  0  0  0  0  0  0  0  0
   60.3500   33.4530   48.8040 C   0  0  0  0  0  0  0  0  0  0  0  0
   60.2875   34.5342   48.6112 H   0  0  0  0  0  0  0  0  0  0  0  0
   60.0264   32.8422   47.9483 H   0  0  0  0  0  0  0  0  0  0  0  0
   59.4120   33.1220   49.9460 C   0  0  0  0  0  0  0  0  0  0  0  0
   59.4920   33.8360   51.1540 C   0  0  0  0  0  0  0  0  0  0  0  0
   60.2337   34.6407   51.2652 H   0  0  0  0  0  0  0  0  0  0  0  0
   58.6350   33.5300   52.2150 C   0  0  0  0  0  0  0  0  0  0  0  0
   58.6904   34.1068   53.1500 H   0  0  0  0  0  0  0  0  0  0  0  0
   57.7080   32.4920   52.0890 C   0  0  0  0  0  0  0  0  0  0  0  0
   57.0238   32.2613   52.9188 H   0  0  0  0  0  0  0  0  0  0  0  0
   57.6510   31.7480   50.9090 C   0  0  0  0  0  0  0  0  0  0  0  0
   56.9319   30.9208   50.8160 H   0  0  0  0  0  0  0  0  0  0  0  0
   58.5060   32.0520   49.8450 C   0  0  0  0  0  0  0  0  0  0  0  0
   58.4694   31.4509   48.9245 H   0  0  0  0  0  0  0  0  0  0  0  0
   60.3600   29.3200   49.6780 C   0  0  0  0  0  0  0  0  0  0  0  0
   60.3497   29.3897   50.7757 H   0  0  0  0  0  0  0  0  0  0  0  0
   59.6360   28.3110   49.0410 C   0  0  0  0  0  0  0  0  0  0  0  0
   59.0478   27.6004   49.6403 H   0  0  0  0  0  0  0  0  0  0  0  0
   58.2090   29.7300   45.2160 S   0  0  0  0  0  0  0  0  0  0  0  0
   56.9670   30.4860   44.3700 C   0  0  0  0  0  0  0  0  0  0  0  0
   57.0700   31.8110   43.6840 C   0  0  0  0  0  0  0  0  0  0  0  0
   57.6686   31.7011   42.7677 H   0  0  0  0  0  0  0  0  0  0  0  0
   56.0600   32.1652   43.4300 H   0  0  0  0  0  0  0  0  0  0  0  0
   57.7300   32.8120   44.5930 C   0  0  0  0  0  0  0  0  0  0  0  0
   58.7330   33.6620   44.1000 C   0  0  0  0  0  0  0  0  0  0  0  0
   59.0626   33.5719   43.0544 H   0  0  0  0  0  0  0  0  0  0  0  0
   59.3140   34.6220   44.9330 C   0  0  0  0  0  0  0  0  0  0  0  0
   60.1041   35.2810   44.5438 H   0  0  0  0  0  0  0  0  0  0  0  0
   58.8930   34.7460   46.2590 C   0  0  0  0  0  0  0  0  0  0  0  0
   59.3531   35.5010   46.9135 H   0  0  0  0  0  0  0  0  0  0  0  0
   57.8870   33.9110   46.7550 C   0  0  0  0  0  0  0  0  0  0  0  0
   57.5559   34.0099   47.7993 H   0  0  0  0  0  0  0  0  0  0  0  0
   57.3020   32.9510   45.9250 C   0  0  0  0  0  0  0  0  0  0  0  0
   56.5041   32.3020   46.3150 H   0  0  0  0  0  0  0  0  0  0  0  0
  1  2  1  0
  2  3  1  0
  3  4  1  0
  4  5  2  0
  5  6  1  0
  6  7  2  0
  6  8  1  0
  8  9  2  0
  9 10  1  0
  9 11  1  0
 11 12  1  0
 11 13  2  0
 13 14  1  0
 14 15  2  0
 14 16  2  0
 14 17  1  0
 17 18  1  0
 18 19  1  0
 18 20  1  0
 18 21  1  0
 17 22  1  0
 22 23  1  0
 22 24  1  0
 22 25  1  0
 25 26  2  0
 26 27  1  0
 26 28  1  0
 28 29  1  0
 28 30  2  0
 30 31  1  0
 30 32  1  0
 32 33  1  0
 32 34  2  0
 34 35  1  0
 13 36  1  0
 36 37  1  0
 36 38  2  0
 38 39  1  0
  4 40  1  0
 40 41  1  0
 41 42  1  0
 42 43  1  0
 42 44  1  0
 42 45  1  0
 45 46  2  0
 46 47  1  0
 46 48  1  0
 48 49  1  0
 48 50  2  0
 50 51  1  0
 50 52  1  0
 52 53  1  0
 52 54  2  0
 54 55  1  0
 41  2  2  0
 54 45  1  0
 38  8  1  0
 34 25  1  0
M  CHG  1   3  -1
M  END
>  <UniqueID>  (47) 
45

>  <SMILES>  (47) 
CN(Cc1ccccc1)S(=O)(=O)c1ccc(C(=O)/N=c2/[n-]cc(Cc3ccccc3)s2)cc1

>  <Energy>  (47) 
94.18135758025682

>  <Genealogy>  (47) 
CN(Cc1ccccc1)S(=O)(=O)c1ccc(C(=O)N=c2[n-]cc(Cc3ccccc3)s2)cc1 (protonated)
CN(Cc1ccccc1)S(=O)(=O)c1ccc(C(=O)/N=c2/[n-]cc(Cc3ccccc3)s2)cc1 (cis-trans isomerization)
CN(Cc1ccccc1)S(=O)(=O)c1ccc(C(=O)/N=c2/[n-]cc(Cc3ccccc3)s2)cc1 (3D coordinates assigned)
CN(Cc1ccccc1)S(=O)(=O)c1ccc(C(=O)/N=c2/[n-]cc(Cc3ccccc3)s2)cc1 (optimized conformer: 94.18135758025682 kcal/mol)

>  <smiles>  (47) 
CN(Cc1ccccc1)S(=O)(=O)c1ccc(C(=O)N=c2[nH]cc(Cc3ccccc3)s2)cc1

>  <score_type>  (47) 
oracle

>  <origin>  (47) 
adg

>  <m_score__min__energy>  (47) 
-11.23

>  <m_primary>  (47) 
energy

$$$$
47:0
     RDKit          3D

 37 39  0  0  0  0  0  0  0  0999 V2000
   57.4973   27.3417   43.3034 H   0  0  0  0  0  0  0  0  0  0  0  0
   57.5030   27.5420   44.3850 C   0  0  0  0  0  0  0  0  0  0  0  0
   57.5260   28.8340   44.7860 C   0  0  0  0  0  0  0  0  0  0  0  0
   56.2710   29.6230   44.8010 C   0  0  0  0  0  0  0  0  0  0  0  0
   55.1490   29.0540   44.8750 O   0  0  0  0  0  0  0  0  0  0  0  0
   56.3150   31.0110   44.7270 O   0  0  0  0  0  0  0  0  0  0  0  0
   58.7870   29.5180   45.1760 C   0  0  0  0  0  0  0  0  0  0  0  0
   59.8300   29.3050   44.5010 O   0  0  0  0  0  0  0  0  0  0  0  0
   58.8580   30.4540   46.3200 C   0  0  0  0  0  0  0  0  0  0  0  0
   58.8740   30.1630   47.6920 C   0  0  0  0  0  0  0  0  0  0  0  0
   59.0110   28.8140   48.3290 C   0  0  0  0  0  0  0  0  0  0  0  0
   59.0000   28.9225   49.4236 H   0  0  0  0  0  0  0  0  0  0  0  0
   58.1733   28.1737   48.0156 H   0  0  0  0  0  0  0  0  0  0  0  0
   59.9604   28.3552   48.0156 H   0  0  0  0  0  0  0  0  0  0  0  0
   58.8910   31.3070   48.4170 N   0  0  0  0  0  0  0  0  0  0  0  0
   58.9240   31.3900   49.4570 H   0  0  0  0  0  0  0  0  0  0  0  0
   58.8720   32.3130   47.5280 C   0  0  0  0  0  0  0  0  0  0  0  0
   58.8490   33.6800   47.8040 C   0  0  0  0  0  0  0  0  0  0  0  0
   58.8670   34.0502   48.8397 H   0  0  0  0  0  0  0  0  0  0  0  0
   58.8020   34.5700   46.7160 C   0  0  0  0  0  0  0  0  0  0  0  0
   58.7838   35.6547   46.8980 H   0  0  0  0  0  0  0  0  0  0  0  0
   58.7780   34.0810   45.3920 C   0  0  0  0  0  0  0  0  0  0  0  0
   58.7387   34.7867   44.5491 H   0  0  0  0  0  0  0  0  0  0  0  0
   58.8040   32.6960   45.1440 C   0  0  0  0  0  0  0  0  0  0  0  0
   58.7817   32.3031   44.1168 H   0  0  0  0  0  0  0  0  0  0  0  0
   58.8590   31.8360   46.2430 C   0  0  0  0  0  0  0  0  0  0  0  0
   57.4850   26.3820   45.2990 C   0  0  0  0  0  0  0  0  0  0  0  0
   56.2990   26.0550   45.9740 C   0  0  0  0  0  0  0  0  0  0  0  0
   55.4004   26.6743   45.8361 H   0  0  0  0  0  0  0  0  0  0  0  0
   56.2570   24.9430   46.8220 C   0  0  0  0  0  0  0  0  0  0  0  0
   55.3212   24.6804   47.3370 H   0  0  0  0  0  0  0  0  0  0  0  0
   57.4020   24.1650   47.0160 C   0  0  0  0  0  0  0  0  0  0  0  0
   57.3540   23.0540   47.8500 O   0  0  0  0  0  0  0  0  0  0  0  0
   58.5940   24.5050   46.3720 C   0  0  0  0  0  0  0  0  0  0  0  0
   59.4971   23.8975   46.5316 H   0  0  0  0  0  0  0  0  0  0  0  0
   58.6410   25.6160   45.5250 C   0  0  0  0  0  0  0  0  0  0  0  0
   59.5859   25.8914   45.0339 H   0  0  0  0  0  0  0  0  0  0  0  0
  1  2  1  0
  2  3  2  0
  3  4  1  0
  4  5  2  0
  4  6  1  0
  3  7  1  0
  7  8  2  0
  7  9  1  0
  9 10  2  0
 10 11  1  0
 11 12  1  0
 11 13  1  0
 11 14  1  0
 10 15  1  0
 15 16  1  0
 15 17  1  0
 17 18  2  0
 18 19  1  0
 18 20  1  0
 20 21  1  0
 20 22  2  0
 22 23  1  0
 22 24  1  0
 24 25  1  0
 24 26  2  0
  2 27  1  0
 27 28  2  0
 28 29  1  0
 28 30  1  0
 30 31  1  0
 30 32  2  0
 32 33  1  0
 32 34  1  0
 34 35  1  0
 34 36  2  0
 36 37  1  0
 26  9  1  0
 36 27  1  0
 26 17  1  0
M  CHG  2   6  -1  33  -1
M  END
>  <UniqueID>  (48) 
46

>  <SMILES>  (48) 
Cc1[nH]c2ccccc2c1C(=O)/C(=C\c1ccc([O-])cc1)C(=O)[O-]

>  <Energy>  (48) 
83.97542491188491

>  <Genealogy>  (48) 
Cc1[nH]c2ccccc2c1C(=O)C(=Cc1ccc([O-])cc1)C(=O)[O-] (protonated)
Cc1[nH]c2ccccc2c1C(=O)/C(=C\c1ccc([O-])cc1)C(=O)[O-] (cis-trans isomerization)
Cc1[nH]c2ccccc2c1C(=O)/C(=C\c1ccc([O-])cc1)C(=O)[O-] (3D coordinates assigned)
Cc1[nH]c2ccccc2c1C(=O)/C(=C\c1ccc([O-])cc1)C(=O)[O-] (optimized conformer: 83.97542491188491 kcal/mol)

>  <smiles>  (48) 
Cc1[nH]c2ccccc2c1C(=O)C(=Cc1ccc(O)cc1)C(=O)O

>  <score_type>  (48) 
oracle

>  <origin>  (48) 
adg

>  <m_score__min__energy>  (48) 
-12.6

>  <m_primary>  (48) 
energy

$$$$
48:0
     RDKit          3D

 53 55  0  0  0  0  0  0  0  0999 V2000
   55.1360   29.4870   44.8740 O   0  0  0  0  0  0  0  0  0  0  0  0
   56.2770   28.9580   44.8160 C   0  0  0  0  0  0  0  0  0  0  0  0
   57.3150   29.5560   43.9050 C   0  0  0  0  0  0  0  0  0  0  0  0
   57.6300   30.9570   44.3270 C   0  0  0  0  0  0  0  0  0  0  0  0
   57.9870   31.9970   43.4900 C   0  0  0  0  0  0  0  0  0  0  0  0
   58.1880   33.0840   44.3140 C   0  0  0  0  0  0  0  0  0  0  0  0
   57.9570   32.6340   45.6010 C   0  0  0  0  0  0  0  0  0  0  0  0
   58.0650   33.4490   46.8280 C   0  0  0  0  0  0  0  0  0  0  0  0
   57.3880   33.1220   47.8390 O   0  0  0  0  0  0  0  0  0  0  0  0
   58.9200   34.6000   46.9200 N   0  0  0  0  0  0  0  0  0  0  0  0
   60.1990   34.7970   46.2430 C   0  0  0  0  0  0  0  0  0  0  0  0
   61.3320   34.2160   47.0480 C   0  0  0  0  0  0  0  0  0  0  0  0
   62.4940   33.7570   46.4040 C   0  0  0  0  0  0  0  0  0  0  0  0
   63.5500   33.2240   47.1500 C   0  0  0  0  0  0  0  0  0  0  0  0
   63.4580   33.1530   48.5440 C   0  0  0  0  0  0  0  0  0  0  0  0
   64.4800   32.6320   49.2630 F   0  0  0  0  0  0  0  0  0  0  0  0
   62.3170   33.6330   49.1950 C   0  0  0  0  0  0  0  0  0  0  0  0
   61.2620   34.1700   48.4520 C   0  0  0  0  0  0  0  0  0  0  0  0
   57.6220   31.3660   45.5730 O   0  0  0  0  0  0  0  0  0  0  0  0
   56.5410   27.7870   45.5990 N   0  0  0  0  0  0  0  0  0  0  0  0
   57.5990   26.8200   45.3060 C   0  0  0  0  0  0  0  0  0  0  0  0
   58.7910   27.0350   46.2410 C   0  0  0  0  0  0  0  0  0  0  0  0
   58.4220   27.8990   47.4560 C   0  0  0  0  0  0  0  0  0  0  0  0
   59.4750   28.9080   47.7040 N   0  0  0  0  0  0  0  0  0  0  0  0
   58.9850   29.9680   48.6100 C   0  0  0  0  0  0  0  0  0  0  0  0
   59.9720   31.1520   48.6650 C   0  0  0  0  0  0  0  0  0  0  0  0
   61.2240   30.7930   48.1160 O   0  0  0  0  0  0  0  0  0  0  0  0
   61.0810   30.5240   46.7330 C   0  0  0  0  0  0  0  0  0  0  0  0
   59.9500   29.5140   46.4440 C   0  0  0  0  0  0  0  0  0  0  0  0
   58.2310   28.9486   43.9502 H   0  0  0  0  0  0  0  0  0  0  0  0
   56.9236   29.5709   42.8771 H   0  0  0  0  0  0  0  0  0  0  0  0
   58.0894   31.9644   42.3953 H   0  0  0  0  0  0  0  0  0  0  0  0
   58.4738   34.1017   44.0097 H   0  0  0  0  0  0  0  0  0  0  0  0
   60.1657   34.3032   45.2606 H   0  0  0  0  0  0  0  0  0  0  0  0
   60.3705   35.8772   46.1261 H   0  0  0  0  0  0  0  0  0  0  0  0
   62.5731   33.8173   45.3085 H   0  0  0  0  0  0  0  0  0  0  0  0
   64.4541   32.8601   46.6399 H   0  0  0  0  0  0  0  0  0  0  0  0
   62.2499   33.5879   50.2920 H   0  0  0  0  0  0  0  0  0  0  0  0
   60.3719   34.5589   48.9682 H   0  0  0  0  0  0  0  0  0  0  0  0
   57.2079   25.8014   45.4454 H   0  0  0  0  0  0  0  0  0  0  0  0
   57.9311   26.9580   44.2664 H   0  0  0  0  0  0  0  0  0  0  0  0
   59.1447   26.0558   46.5961 H   0  0  0  0  0  0  0  0  0  0  0  0
   59.5748   27.5609   45.6761 H   0  0  0  0  0  0  0  0  0  0  0  0
   57.4675   28.4101   47.2620 H   0  0  0  0  0  0  0  0  0  0  0  0
   58.3287   27.2526   48.3411 H   0  0  0  0  0  0  0  0  0  0  0  0
   58.0112   30.3287   48.2473 H   0  0  0  0  0  0  0  0  0  0  0  0
   58.8890   29.5461   49.6213 H   0  0  0  0  0  0  0  0  0  0  0  0
   59.5561   31.9940   48.0923 H   0  0  0  0  0  0  0  0  0  0  0  0
   60.1192   31.4372   49.7171 H   0  0  0  0  0  0  0  0  0  0  0  0
   60.8554   31.4658   46.2114 H   0  0  0  0  0  0  0  0  0  0  0  0
   62.0239   30.0825   46.3779 H   0  0  0  0  0  0  0  0  0  0  0  0
   59.1144   30.0345   45.9532 H   0  0  0  0  0  0  0  0  0  0  0  0
   60.3356   28.7208   45.7866 H   0  0  0  0  0  0  0  0  0  0  0  0
  1  2  2  0
  2  3  1  0
  3  4  1  0
  4  5  2  0
  5  6  1  0
  6  7  2  0
  7  8  1  0
  8  9  2  0
  8 10  1  0
 10 11  1  0
 11 12  1  0
 12 13  2  0
 13 14  1  0
 14 15  2  0
 15 16  1  0
 15 17  1  0
 17 18  2  0
  7 19  1  0
  2 20  1  0
 20 21  1  0
 21 22  1  0
 22 23  1  0
 23 24  1  0
 24 25  1  0
 25 26  1  0
 26 27  1  0
 27 28  1  0
 28 29  1  0
 19  4  1  0
 29 24  1  0
 18 12  1  0
  3 30  1  0
  3 31  1  0
  5 32  1  0
  6 33  1  0
 11 34  1  0
 11 35  1  0
 13 36  1  0
 14 37  1  0
 17 38  1  0
 18 39  1  0
 21 40  1  0
 21 41  1  0
 22 42  1  0
 22 43  1  0
 23 44  1  0
 23 45  1  0
 25 46  1  0
 25 47  1  0
 26 48  1  0
 26 49  1  0
 28 50  1  0
 28 51  1  0
 29 52  1  0
 29 53  1  0
M  CHG  2  10  -1  20  -1
M  END
>  <UniqueID>  (49) 
47

>  <SMILES>  (49) 
O=C(Cc1ccc(C(=O)[N-]Cc2ccc(F)cc2)o1)[N-]CCCN1CCOCC1

>  <Energy>  (49) 
79.51411387368918

>  <Genealogy>  (49) 
O=C(Cc1ccc(C(=O)[N-]Cc2ccc(F)cc2)o1)[N-]CCCN1CCOCC1 (protonated)
O=C(Cc1ccc(C(=O)[N-]Cc2ccc(F)cc2)o1)[N-]CCCN1CCOCC1 (3D coordinates assigned)
O=C(Cc1ccc(C(=O)[N-]Cc2ccc(F)cc2)o1)[N-]CCCN1CCOCC1 (nonaromatic ring conformer: 79.51411387368918 kcal/mol)

>  <smiles>  (49) 
O=C(Cc1ccc(C(=O)NCc2ccc(F)cc2)o1)NCCCN1CCOCC1

>  <score_type>  (49) 
oracle

>  <origin>  (49) 
adg

>  <m_score__min__energy>  (49) 
-11.74

>  <m_primary>  (49) 
energy

$$$$
49:0
     RDKit          3D

 68 72  0  0  0  0  0  0  0  0999 V2000
   56.0840   26.6630   46.3340 O   0  0  0  0  0  0  0  0  0  0  0  0
   57.4380   26.0990   46.0040 S   0  0  0  0  0  0  0  0  0  0  0  0
   57.6690   24.9130   46.8990 O   0  0  0  0  0  0  0  0  0  0  0  0
   57.3850   25.5140   44.3020 C   0  0  0  0  0  0  0  0  0  0  0  0
   57.4750   24.0160   44.1690 C   0  0  0  0  0  0  0  0  0  0  0  0
   56.5200   23.3170   43.4140 C   0  0  0  0  0  0  0  0  0  0  0  0
   56.5880   21.9250   43.3030 C   0  0  0  0  0  0  0  0  0  0  0  0
   57.5960   21.2180   43.9640 C   0  0  0  0  0  0  0  0  0  0  0  0
   58.5320   21.9010   44.7420 C   0  0  0  0  0  0  0  0  0  0  0  0
   58.4730   23.2950   44.8480 C   0  0  0  0  0  0  0  0  0  0  0  0
   58.6580   27.3040   46.3700 N   0  0  0  0  0  0  0  0  0  0  0  0
   59.2470   27.9180   45.1670 C   0  0  0  0  0  0  0  0  0  0  0  0
   58.3560   29.0010   44.6120 C   0  0  0  0  0  0  0  0  0  0  0  0
   58.8770   30.2830   44.3510 C   0  0  0  0  0  0  0  0  0  0  0  0
   58.0590   31.2790   43.8110 C   0  0  0  0  0  0  0  0  0  0  0  0
   56.7240   31.0000   43.5040 C   0  0  0  0  0  0  0  0  0  0  0  0
   56.2080   29.7210   43.7310 C   0  0  0  0  0  0  0  0  0  0  0  0
   57.0200   28.7230   44.2800 C   0  0  0  0  0  0  0  0  0  0  0  0
   58.3030   28.2330   47.4700 C   0  0  0  0  0  0  0  0  0  0  0  0
   59.1780   29.4600   47.5550 C   0  0  0  0  0  0  0  0  0  0  0  0
   58.6100   30.7420   47.5100 C   0  0  0  0  0  0  0  0  0  0  0  0
   59.4090   31.8760   47.6780 C   0  0  0  0  0  0  0  0  0  0  0  0
   60.7960   31.7470   47.8540 C   0  0  0  0  0  0  0  0  0  0  0  0
   61.6030   32.8920   48.1900 N   0  0  0  0  0  0  0  0  0  0  0  0
   61.6290   33.4260   49.5620 C   0  0  0  0  0  0  0  0  0  0  0  0
   63.0100   34.0130   49.9080 C   0  0  0  0  0  0  0  0  0  0  0  0
   64.0820   33.2500   49.2390 N   0  0  0  0  0  0  0  0  0  0  0  0
   65.2310   32.7630   49.9650 C   0  0  0  0  0  0  0  0  0  0  0  0
   66.3200   33.5650   50.1390 N   0  0  0  0  0  0  0  0  0  0  0  0
   67.4260   33.1230   50.7940 C   0  0  0  0  0  0  0  0  0  0  0  0
   67.4610   31.8260   51.3010 C   0  0  0  0  0  0  0  0  0  0  0  0
   66.3410   31.0140   51.1210 C   0  0  0  0  0  0  0  0  0  0  0  0
   65.2540   31.4950   50.4610 N   0  0  0  0  0  0  0  0  0  0  0  0
   64.0030   33.0150   47.7860 C   0  0  0  0  0  0  0  0  0  0  0  0
   62.6160   33.3600   47.2390 C   0  0  0  0  0  0  0  0  0  0  0  0
   61.3740   30.4690   47.8130 C   0  0  0  0  0  0  0  0  0  0  0  0
   60.5740   29.3350   47.6510 C   0  0  0  0  0  0  0  0  0  0  0  0
   56.4381   25.8456   43.8510 H   0  0  0  0  0  0  0  0  0  0  0  0
   58.2649   25.9335   43.7923 H   0  0  0  0  0  0  0  0  0  0  0  0
   55.7138   23.8675   42.9070 H   0  0  0  0  0  0  0  0  0  0  0  0
   55.8471   21.3856   42.6946 H   0  0  0  0  0  0  0  0  0  0  0  0
   57.6517   20.1233   43.8711 H   0  0  0  0  0  0  0  0  0  0  0  0
   59.3173   21.3426   45.2726 H   0  0  0  0  0  0  0  0  0  0  0  0
   59.2105   23.8290   45.4651 H   0  0  0  0  0  0  0  0  0  0  0  0
   60.2219   28.3552   45.4286 H   0  0  0  0  0  0  0  0  0  0  0  0
   59.3634   27.1376   44.4006 H   0  0  0  0  0  0  0  0  0  0  0  0
   59.9320   30.5012   44.5731 H   0  0  0  0  0  0  0  0  0  0  0  0
   58.4662   32.2842   43.6272 H   0  0  0  0  0  0  0  0  0  0  0  0
   56.0800   31.7866   43.0840 H   0  0  0  0  0  0  0  0  0  0  0  0
   55.1610   29.4987   43.4773 H   0  0  0  0  0  0  0  0  0  0  0  0
   56.6106   27.7167   44.4523 H   0  0  0  0  0  0  0  0  0  0  0  0
   57.2636   28.5610   47.3217 H   0  0  0  0  0  0  0  0  0  0  0  0
   58.4471   27.6783   48.4089 H   0  0  0  0  0  0  0  0  0  0  0  0
   57.5289   30.8552   47.3414 H   0  0  0  0  0  0  0  0  0  0  0  0
   58.9489   32.8751   47.6723 H   0  0  0  0  0  0  0  0  0  0  0  0
   60.8703   34.2173   49.6529 H   0  0  0  0  0  0  0  0  0  0  0  0
   61.4175   32.6020   50.2593 H   0  0  0  0  0  0  0  0  0  0  0  0
   63.0508   35.0608   49.5758 H   0  0  0  0  0  0  0  0  0  0  0  0
   63.1582   33.9525   50.9963 H   0  0  0  0  0  0  0  0  0  0  0  0
   68.2922   33.7886   50.9235 H   0  0  0  0  0  0  0  0  0  0  0  0
   68.3497   31.4514   51.8301 H   0  0  0  0  0  0  0  0  0  0  0  0
   66.3373   29.9860   51.5125 H   0  0  0  0  0  0  0  0  0  0  0  0
   64.7529   33.6415   47.2809 H   0  0  0  0  0  0  0  0  0  0  0  0
   64.1941   31.9483   47.5970 H   0  0  0  0  0  0  0  0  0  0  0  0
   62.5290   34.4492   47.1124 H   0  0  0  0  0  0  0  0  0  0  0  0
   62.4669   32.8726   46.2642 H   0  0  0  0  0  0  0  0  0  0  0  0
   62.4643   30.3592   47.9090 H   0  0  0  0  0  0  0  0  0  0  0  0
   61.0394   28.3397   47.5984 H   0  0  0  0  0  0  0  0  0  0  0  0
  1  2  2  0
  2  3  2  0
  2  4  1  0
  4  5  1  0
  5  6  2  0
  6  7  1  0
  7  8  2  0
  8  9  1  0
  9 10  2  0
  2 11  1  0
 11 12  1  0
 12 13  1  0
 13 14  2  0
 14 15  1  0
 15 16  2  0
 16 17  1  0
 17 18  2  0
 11 19  1  0
 19 20  1  0
 20 21  2  0
 21 22  1  0
 22 23  2  0
 23 24  1  0
 24 25  1  0
 25 26  1  0
 26 27  1  0
 27 28  1  0
 28 29  2  0
 29 30  1  0
 30 31  2  0
 31 32  1  0
 32 33  2  0
 27 34  1  0
 34 35  1  0
 23 36  1  0
 36 37  2  0
 10  5  1  0
 18 13  1  0
 37 20  1  0
 35 24  1  0
 33 28  1  0
  4 38  1  0
  4 39  1  0
  6 40  1  0
  7 41  1  0
  8 42  1  0
  9 43  1  0
 10 44  1  0
 12 45  1  0
 12 46  1  0
 14 47  1  0
 15 48  1  0
 16 49  1  0
 17 50  1  0
 18 51  1  0
 19 52  1  0
 19 53  1  0
 21 54  1  0
 22 55  1  0
 25 56  1  0
 25 57  1  0
 26 58  1  0
 26 59  1  0
 30 60  1  0
 31 61  1  0
 32 62  1  0
 34 63  1  0
 34 64  1  0
 35 65  1  0
 35 66  1  0
 36 67  1  0
 37 68  1  0
M  END
>  <UniqueID>  (50) 
48

>  <SMILES>  (50) 
O=S(=O)(Cc1ccccc1)N(Cc1ccccc1)Cc1ccc(N2CCN(c3ncccn3)CC2)cc1

>  <Energy>  (50) 
80.60653609982721

>  <Genealogy>  (50) 
O=S(=O)(Cc1ccccc1)N(Cc1ccccc1)Cc1ccc(N2CCN(c3ncccn3)CC2)cc1 (3D coordinates assigned)
O=S(=O)(Cc1ccccc1)N(Cc1ccccc1)Cc1ccc(N2CCN(c3ncccn3)CC2)cc1 (nonaromatic ring conformer: 80.60653609982721 kcal/mol)

>  <smiles>  (50) 
O=S(=O)(Cc1ccccc1)N(Cc1ccccc1)Cc1ccc(N2CCN(c3ncccn3)CC2)cc1

>  <score_type>  (50) 
oracle

>  <origin>  (50) 
adg

>  <m_score__min__energy>  (50) 
-10.199999999999999

>  <m_primary>  (50) 
energy

$$$$
50:0
     RDKit          3D

 58 60  0  0  0  0  0  0  0  0999 V2000
   55.2954   18.0846   45.6242 H   0  0  0  0  0  0  0  0  0  0  0  0
   55.5080   19.1160   45.9420 C   0  0  0  0  0  0  0  0  0  0  0  0
   56.6370   19.6420   45.5500 N   0  0  0  0  0  0  0  0  0  0  0  0
   57.4470   20.6590   46.1650 C   0  0  0  0  0  0  0  0  0  0  0  0
   58.5170   20.3060   46.7260 O   0  0  0  0  0  0  0  0  0  0  0  0
   57.0380   22.0810   46.2460 C   0  0  0  0  0  0  0  0  0  0  0  0
   56.4950   22.6130   47.4320 C   0  0  0  0  0  0  0  0  0  0  0  0
   56.2710   21.7770   48.6590 C   0  0  0  0  0  0  0  0  0  0  0  0
   56.4356   22.3915   49.5564 H   0  0  0  0  0  0  0  0  0  0  0  0
   55.2391   21.3960   48.6597 H   0  0  0  0  0  0  0  0  0  0  0  0
   56.9742   20.9311   48.6597 H   0  0  0  0  0  0  0  0  0  0  0  0
   56.2190   23.9390   47.5030 N   0  0  0  0  0  0  0  0  0  0  0  0
   56.4040   24.7970   46.4660 C   0  0  0  0  0  0  0  0  0  0  0  0
   56.1990   26.2690   46.7470 C   0  0  0  0  0  0  0  0  0  0  0  0
   55.1964   26.5705   46.4097 H   0  0  0  0  0  0  0  0  0  0  0  0
   56.2929   26.4526   47.8275 H   0  0  0  0  0  0  0  0  0  0  0  0
   57.2450   27.0750   46.0050 C   0  0  0  0  0  0  0  0  0  0  0  0
   56.8860   28.2270   45.2800 C   0  0  0  0  0  0  0  0  0  0  0  0
   55.5380   28.5550   45.1520 O   0  0  0  0  0  0  0  0  0  0  0  0
   57.8460   29.0240   44.7110 N   0  0  0  0  0  0  0  0  0  0  0  0
   57.4600   30.2760   44.0330 C   0  0  0  0  0  0  0  0  0  0  0  0
   58.0451   30.3827   43.1077 H   0  0  0  0  0  0  0  0  0  0  0  0
   56.3860   30.2388   43.7981 H   0  0  0  0  0  0  0  0  0  0  0  0
   57.7250   31.4600   44.9280 C   0  0  0  0  0  0  0  0  0  0  0  0
   58.1600   31.2680   46.2500 C   0  0  0  0  0  0  0  0  0  0  0  0
   58.3427   30.2495   46.6231 H   0  0  0  0  0  0  0  0  0  0  0  0
   58.3620   32.3640   47.0940 C   0  0  0  0  0  0  0  0  0  0  0  0
   58.7063   32.2061   48.1267 H   0  0  0  0  0  0  0  0  0  0  0  0
   58.1270   33.6600   46.6270 C   0  0  0  0  0  0  0  0  0  0  0  0
   58.2870   34.5215   47.2921 H   0  0  0  0  0  0  0  0  0  0  0  0
   57.6890   33.8620   45.3160 C   0  0  0  0  0  0  0  0  0  0  0  0
   57.5004   34.8823   44.9508 H   0  0  0  0  0  0  0  0  0  0  0  0
   57.4900   32.7680   44.4670 C   0  0  0  0  0  0  0  0  0  0  0  0
   57.1482   32.9314   43.4343 H   0  0  0  0  0  0  0  0  0  0  0  0
   59.1700   28.6830   44.8360 C   0  0  0  0  0  0  0  0  0  0  0  0
   60.0730   29.3950   44.3190 O   0  0  0  0  0  0  0  0  0  0  0  0
   59.5280   27.5710   45.5240 N   0  0  0  0  0  0  0  0  0  0  0  0
   58.6090   26.7690   46.1120 C   0  0  0  0  0  0  0  0  0  0  0  0
   58.9970   25.7580   46.7530 O   0  0  0  0  0  0  0  0  0  0  0  0
   56.8450   24.2940   45.2180 C   0  0  0  0  0  0  0  0  0  0  0  0
   56.9950   25.1970   44.0170 C   0  0  0  0  0  0  0  0  0  0  0  0
   57.1666   26.2299   44.3540 H   0  0  0  0  0  0  0  0  0  0  0  0
   57.8498   24.8622   43.4110 H   0  0  0  0  0  0  0  0  0  0  0  0
   56.0778   25.1566   43.4110 H   0  0  0  0  0  0  0  0  0  0  0  0
   57.1650   22.9220   45.1240 C   0  0  0  0  0  0  0  0  0  0  0  0
   57.5770   22.4430   44.0310 O   0  0  0  0  0  0  0  0  0  0  0  0
   54.4710   19.8040   46.7940 C   0  0  0  0  0  0  0  0  0  0  0  0
   53.9564   19.0479   47.4051 H   0  0  0  0  0  0  0  0  0  0  0  0
   54.9879   20.5436   47.4232 H   0  0  0  0  0  0  0  0  0  0  0  0
   53.4680   20.5220   45.9820 N   0  0  0  0  0  0  0  0  0  0  0  0
   53.4270   21.9390   46.3820 C   0  0  0  0  0  0  0  0  0  0  0  0
   53.4249   22.0102   47.4797 H   0  0  0  0  0  0  0  0  0  0  0  0
   54.3105   22.4585   45.9825 H   0  0  0  0  0  0  0  0  0  0  0  0
   52.5149   22.4065   45.9825 H   0  0  0  0  0  0  0  0  0  0  0  0
   52.1290   19.9320   46.1410 C   0  0  0  0  0  0  0  0  0  0  0  0
   51.8980   19.8302   47.2116 H   0  0  0  0  0  0  0  0  0  0  0  0
   51.3820   20.5843   45.6651 H   0  0  0  0  0  0  0  0  0  0  0  0
   52.1063   18.9405   45.6651 H   0  0  0  0  0  0  0  0  0  0  0  0
  1  2  1  0
  2  3  2  0
  3  4  1  0
  4  5  2  0
  4  6  1  0
  6  7  2  0
  7  8  1  0
  8  9  1  0
  8 10  1  0
  8 11  1  0
  7 12  1  0
 12 13  1  0
 13 14  1  0
 14 15  1  0
 14 16  1  0
 14 17  1  0
 17 18  2  0
 18 19  1  0
 18 20  1  0
 20 21  1  0
 21 22  1  0
 21 23  1  0
 21 24  1  0
 24 25  2  0
 25 26  1  0
 25 27  1  0
 27 28  1  0
 27 29  2  0
 29 30  1  0
 29 31  1  0
 31 32  1  0
 31 33  2  0
 33 34  1  0
 20 35  1  0
 35 36  2  0
 35 37  1  0
 37 38  1  0
 38 39  2  0
 13 40  2  0
 40 41  1  0
 41 42  1  0
 41 43  1  0
 41 44  1  0
 40 45  1  0
 45 46  2  0
  2 47  1  0
 47 48  1  0
 47 49  1  0
 47 50  1  0
 50 51  1  0
 51 52  1  0
 51 53  1  0
 51 54  1  0
 50 55  1  0
 55 56  1  0
 55 57  1  0
 55 58  1  0
 45  6  1  0
 38 17  1  0
 33 24  1  0
M  CHG  3  12  -1  19  -1  37  -1
M  END
>  <UniqueID>  (51) 
49

>  <SMILES>  (51) 
Cc1[n-]c(Cc2c([O-])n(Cc3ccccc3)c(=O)[n-]c2=O)c(C)c(=O)c1C(=O)/N=C\CN(C)C

>  <Energy>  (51) 
71.80231504897328

>  <Genealogy>  (51) 
Cc1[n-]c(Cc2c([O-])n(Cc3ccccc3)c(=O)[n-]c2=O)c(C)c(=O)c1C(=O)N=CCN(C)C (protonated)
Cc1[n-]c(Cc2c([O-])n(Cc3ccccc3)c(=O)[n-]c2=O)c(C)c(=O)c1C(=O)/N=C\CN(C)C (cis-trans isomerization)
Cc1[n-]c(Cc2c([O-])n(Cc3ccccc3)c(=O)[n-]c2=O)c(C)c(=O)c1C(=O)/N=C\CN(C)C (3D coordinates assigned)
Cc1[n-]c(Cc2c([O-])n(Cc3ccccc3)c(=O)[n-]c2=O)c(C)c(=O)c1C(=O)/N=C\CN(C)C (optimized conformer: 71.80231504897328 kcal/mol)

>  <smiles>  (51) 
Cc1[nH]c(Cc2c(O)n(Cc3ccccc3)c(=O)[nH]c2=O)c(C)c(=O)c1C(=O)N=CCN(C)C

>  <score_type>  (51) 
oracle

>  <origin>  (51) 
adg

>  <m_score__min__energy>  (51) 
-15.08

>  <m_primary>  (51) 
energy

$$$$
51:0
     RDKit          3D

 59 62  0  0  0  0  0  0  0  0999 V2000
   58.4980   31.9880   42.1350 O   0  0  0  0  0  0  0  0  0  0  0  0
   57.9230   32.0800   43.2530 C   0  0  0  0  0  0  0  0  0  0  0  0
   57.9380   33.3460   43.9280 N   0  0  0  0  0  0  0  0  0  0  0  0
   59.1230   33.9980   44.4750 C   0  0  0  0  0  0  0  0  0  0  0  0
   59.1660   33.7940   45.9630 C   0  0  0  0  0  0  0  0  0  0  0  0
   60.1800   34.3860   46.7370 C   0  0  0  0  0  0  0  0  0  0  0  0
   60.2200   34.1810   48.1200 C   0  0  0  0  0  0  0  0  0  0  0  0
   59.2610   33.3720   48.7370 C   0  0  0  0  0  0  0  0  0  0  0  0
   58.2640   32.7600   47.9700 C   0  0  0  0  0  0  0  0  0  0  0  0
   58.2190   32.9640   46.5860 C   0  0  0  0  0  0  0  0  0  0  0  0
   57.2990   30.8740   43.8450 C   0  0  0  0  0  0  0  0  0  0  0  0
   55.9260   30.8450   44.1250 C   0  0  0  0  0  0  0  0  0  0  0  0
   55.3500   29.7150   44.7050 C   0  0  0  0  0  0  0  0  0  0  0  0
   56.1350   28.6090   45.0370 C   0  0  0  0  0  0  0  0  0  0  0  0
   55.5200   27.5060   45.6200 O   0  0  0  0  0  0  0  0  0  0  0  0
   57.5260   28.6260   44.7900 C   0  0  0  0  0  0  0  0  0  0  0  0
   58.3970   27.4760   45.1480 C   0  0  0  0  0  0  0  0  0  0  0  0
   58.0810   26.3020   44.8100 O   0  0  0  0  0  0  0  0  0  0  0  0
   59.5970   27.6910   45.9040 N   0  0  0  0  0  0  0  0  0  0  0  0
   59.6370   28.4190   47.1690 C   0  0  0  0  0  0  0  0  0  0  0  0
   60.1230   27.4950   48.3060 C   0  0  0  0  0  0  0  0  0  0  0  0
   60.7630   28.2780   49.4650 C   0  0  0  0  0  0  0  0  0  0  0  0
   60.2100   29.6460   49.5260 N   0  0  0  0  0  0  0  0  0  0  0  0
   60.6020   30.3250   50.7760 C   0  0  0  0  0  0  0  0  0  0  0  0
   59.4650   31.1640   51.2980 C   0  0  0  0  0  0  0  0  0  0  0  0
   59.7070   32.4220   51.8730 C   0  0  0  0  0  0  0  0  0  0  0  0
   58.6440   33.1910   52.3580 C   0  0  0  0  0  0  0  0  0  0  0  0
   57.3340   32.7080   52.2740 C   0  0  0  0  0  0  0  0  0  0  0  0
   57.0850   31.4580   51.7020 C   0  0  0  0  0  0  0  0  0  0  0  0
   58.1440   30.6890   51.2110 C   0  0  0  0  0  0  0  0  0  0  0  0
   60.6430   30.4370   48.3490 C   0  0  0  0  0  0  0  0  0  0  0  0
   60.5600   29.6360   47.0300 C   0  0  0  0  0  0  0  0  0  0  0  0
   58.0940   29.7710   44.1950 C   0  0  0  0  0  0  0  0  0  0  0  0
   60.0244   33.5624   44.0191 H   0  0  0  0  0  0  0  0  0  0  0  0
   59.0836   35.0748   44.2539 H   0  0  0  0  0  0  0  0  0  0  0  0
   60.9441   35.0122   46.2532 H   0  0  0  0  0  0  0  0  0  0  0  0
   61.0072   34.6570   48.7232 H   0  0  0  0  0  0  0  0  0  0  0  0
   59.2905   33.2168   49.8256 H   0  0  0  0  0  0  0  0  0  0  0  0
   57.5144   32.1176   48.4552 H   0  0  0  0  0  0  0  0  0  0  0  0
   57.4399   32.4730   45.9843 H   0  0  0  0  0  0  0  0  0  0  0  0
   55.2999   31.7174   43.8862 H   0  0  0  0  0  0  0  0  0  0  0  0
   54.2681   29.6949   44.9026 H   0  0  0  0  0  0  0  0  0  0  0  0
   58.6236   28.7651   47.4202 H   0  0  0  0  0  0  0  0  0  0  0  0
   59.2627   26.9299   48.6940 H   0  0  0  0  0  0  0  0  0  0  0  0
   60.8902   26.8258   47.8894 H   0  0  0  0  0  0  0  0  0  0  0  0
   60.5540   27.7595   50.4124 H   0  0  0  0  0  0  0  0  0  0  0  0
   61.8489   28.3379   49.2999 H   0  0  0  0  0  0  0  0  0  0  0  0
   60.8707   29.5700   51.5295 H   0  0  0  0  0  0  0  0  0  0  0  0
   61.4627   30.9788   50.5716 H   0  0  0  0  0  0  0  0  0  0  0  0
   60.7362   32.8041   51.9423 H   0  0  0  0  0  0  0  0  0  0  0  0
   58.8385   34.1767   52.8060 H   0  0  0  0  0  0  0  0  0  0  0  0
   56.4994   33.3127   52.6585 H   0  0  0  0  0  0  0  0  0  0  0  0
   56.0545   31.0785   51.6379 H   0  0  0  0  0  0  0  0  0  0  0  0
   57.9434   29.7084   50.7547 H   0  0  0  0  0  0  0  0  0  0  0  0
   59.9974   31.3235   48.2638 H   0  0  0  0  0  0  0  0  0  0  0  0
   61.6961   30.7146   48.5039 H   0  0  0  0  0  0  0  0  0  0  0  0
   60.1702   30.2917   46.2375 H   0  0  0  0  0  0  0  0  0  0  0  0
   61.5693   29.2771   46.7799 H   0  0  0  0  0  0  0  0  0  0  0  0
   59.1765   29.8006   44.0020 H   0  0  0  0  0  0  0  0  0  0  0  0
  1  2  2  0
  2  3  1  0
  3  4  1  0
  4  5  1  0
  5  6  2  0
  6  7  1  0
  7  8  2  0
  8  9  1  0
  9 10  2  0
  2 11  1  0
 11 12  2  0
 12 13  1  0
 13 14  2  0
 14 15  1  0
 14 16  1  0
 16 17  1  0
 17 18  2  0
 17 19  1  0
 19 20  1  0
 20 21  1  0
 21 22  1  0
 22 23  1  0
 23 24  1  0
 24 25  1  0
 25 26  2  0
 26 27  1  0
 27 28  2  0
 28 29  1  0
 29 30  2  0
 23 31  1  0
 31 32  1  0
 16 33  2  0
 10  5  1  0
 33 11  1  0
 32 20  1  0
 30 25  1  0
  4 34  1  0
  4 35  1  0
  6 36  1  0
  7 37  1  0
  8 38  1  0
  9 39  1  0
 10 40  1  0
 12 41  1  0
 13 42  1  0
 20 43  1  0
 21 44  1  0
 21 45  1  0
 22 46  1  0
 22 47  1  0
 24 48  1  0
 24 49  1  0
 26 50  1  0
 27 51  1  0
 28 52  1  0
 29 53  1  0
 30 54  1  0
 31 55  1  0
 31 56  1  0
 32 57  1  0
 32 58  1  0
 33 59  1  0
M  CHG  3   3  -1  15  -1  19  -1
M  END
>  <UniqueID>  (52) 
50

>  <SMILES>  (52) 
O=C([N-]Cc1ccccc1)c1ccc([O-])c(C(=O)[N-]C2CCN(Cc3ccccc3)CC2)c1

>  <Energy>  (52) 
73.84057100351153

>  <Genealogy>  (52) 
O=C([N-]Cc1ccccc1)c1ccc([O-])c(C(=O)[N-]C2CCN(Cc3ccccc3)CC2)c1 (protonated)
O=C([N-]Cc1ccccc1)c1ccc([O-])c(C(=O)[N-]C2CCN(Cc3ccccc3)CC2)c1 (3D coordinates assigned)
O=C([N-]Cc1ccccc1)c1ccc([O-])c(C(=O)[N-]C2CCN(Cc3ccccc3)CC2)c1 (nonaromatic ring conformer: 73.84057100351153 kcal/mol)

>  <smiles>  (52) 
O=C(NCc1ccccc1)c1ccc(O)c(C(=O)NC2CCN(Cc3ccccc3)CC2)c1

>  <score_type>  (52) 
oracle

>  <origin>  (52) 
adg

>  <m_score__min__energy>  (52) 
-15.49

>  <m_primary>  (52) 
energy

$$$$
52:0
     RDKit          3D

 32 33  0  0  0  0  0  0  0  0999 V2000
   54.8280   26.3930   46.0310 N   0  0  0  0  0  0  0  0  0  0  0  0
   56.2110   26.3610   45.6840 C   0  0  0  0  0  0  0  0  0  0  0  0
   56.7410   25.2510   45.4090 O   0  0  0  0  0  0  0  0  0  0  0  0
   57.0270   27.6070   45.6400 C   0  0  0  0  0  0  0  0  0  0  0  0
   58.3830   27.5530   46.0130 C   0  0  0  0  0  0  0  0  0  0  0  0
   59.1750   28.7010   45.9950 C   0  0  0  0  0  0  0  0  0  0  0  0
   58.6320   29.9210   45.5970 C   0  0  0  0  0  0  0  0  0  0  0  0
   57.2900   29.9990   45.1930 C   0  0  0  0  0  0  0  0  0  0  0  0
   56.7020   31.2510   44.8110 N   0  0  0  0  0  0  0  0  0  0  0  0
   57.3990   32.4780   44.5570 C   0  0  0  0  0  0  0  0  0  0  0  0
   57.8690   32.6830   43.4070 O   0  0  0  0  0  0  0  0  0  0  0  0
   57.6240   33.5040   45.6350 C   0  0  0  0  0  0  0  0  0  0  0  0
   58.9480   33.3330   46.2290 N   0  0  0  0  0  0  0  0  0  0  0  0
   59.2530   32.6620   47.3560 C   0  0  0  0  0  0  0  0  0  0  0  0
   60.5670   32.7290   47.6560 N   0  0  0  0  0  0  0  0  0  0  0  0
   61.0910   33.5030   46.6800 C   0  0  0  0  0  0  0  0  0  0  0  0
   62.5230   33.8150   46.5110 C   0  0  0  0  0  0  0  0  0  0  0  0
   63.4910   33.1930   47.1190 N   0  0  0  0  0  0  0  0  0  0  0  0
   63.3390   32.1680   48.0320 O   0  0  0  0  0  0  0  0  0  0  0  0
   60.1010   33.8670   45.7940 C   0  0  0  0  0  0  0  0  0  0  0  0
   56.4830   28.8510   45.2370 C   0  0  0  0  0  0  0  0  0  0  0  0
   55.1450   28.9620   44.8720 O   0  0  0  0  0  0  0  0  0  0  0  0
   54.0880   26.3300   45.2980 H   0  0  0  0  0  0  0  0  0  0  0  0
   58.8236   26.5938   46.3225 H   0  0  0  0  0  0  0  0  0  0  0  0
   60.2315   28.6431   46.2959 H   0  0  0  0  0  0  0  0  0  0  0  0
   59.2572   30.8261   45.5994 H   0  0  0  0  0  0  0  0  0  0  0  0
   57.5492   34.5111   45.1989 H   0  0  0  0  0  0  0  0  0  0  0  0
   56.8614   33.3746   46.4171 H   0  0  0  0  0  0  0  0  0  0  0  0
   58.5138   32.1199   47.9640 H   0  0  0  0  0  0  0  0  0  0  0  0
   62.7912   34.6303   45.8230 H   0  0  0  0  0  0  0  0  0  0  0  0
   62.4360   31.8310   48.3350 H   0  0  0  0  0  0  0  0  0  0  0  0
   60.2313   34.4839   44.8926 H   0  0  0  0  0  0  0  0  0  0  0  0
  1  2  1  0
  2  3  2  0
  2  4  1  0
  4  5  2  0
  5  6  1  0
  6  7  2  0
  7  8  1  0
  8  9  1  0
  9 10  1  0
 10 11  2  0
 10 12  1  0
 12 13  1  0
 13 14  1  0
 14 15  2  0
 15 16  1  0
 16 17  1  0
 17 18  2  3
 18 19  1  0
 16 20  2  0
  8 21  2  0
 21 22  1  0
 21  4  1  0
 20 13  1  0
  1 23  1  0
  5 24  1  0
  6 25  1  0
  7 26  1  0
 12 27  1  0
 12 28  1  0
 14 29  1  0
 17 30  1  0
 19 31  1  0
 20 32  1  0
M  CHG  3   1  -1   9  -1  22  -1
M  END
>  <UniqueID>  (53) 
51

>  <SMILES>  (53) 
[NH-]C(=O)c1cccc([N-]C(=O)Cn2cnc(C=NO)c2)c1[O-]

>  <Energy>  (53) 
72.66139036626288

>  <Genealogy>  (53) 
[NH-]C(=O)c1cccc([N-]C(=O)Cn2cnc(C=NO)c2)c1[O-] (protonated)
[NH-]C(=O)c1cccc([N-]C(=O)Cn2cnc(C=NO)c2)c1[O-] (3D coordinates assigned)
[NH-]C(=O)c1cccc([N-]C(=O)Cn2cnc(C=NO)c2)c1[O-] (optimized conformer: 72.66139036626288 kcal/mol)

>  <smiles>  (53) 
NC(=O)c1cccc(NC(=O)Cn2cnc(C=NO)c2)c1O

>  <score_type>  (53) 
oracle

>  <origin>  (53) 
adg

>  <m_score__min__energy>  (53) 
-15.369999999999999

>  <m_primary>  (53) 
energy

$$$$
53:0
     RDKit          3D

 38 41  0  0  0  0  0  0  0  0999 V2000
   63.0160   34.9710   49.7770 O   0  0  0  0  0  0  0  0  0  0  0  0
   62.1790   33.8810   49.5750 C   0  0  0  0  0  0  0  0  0  0  0  0
   61.0970   33.6610   50.4340 C   0  0  0  0  0  0  0  0  0  0  0  0
   60.2590   32.5620   50.2350 C   0  0  0  0  0  0  0  0  0  0  0  0
   60.4950   31.6810   49.1750 C   0  0  0  0  0  0  0  0  0  0  0  0
   61.5710   31.9010   48.2990 C   0  0  0  0  0  0  0  0  0  0  0  0
   61.8550   30.9350   47.1830 C   0  0  0  0  0  0  0  0  0  0  0  0
   60.5730   30.5020   46.5430 C   0  0  0  0  0  0  0  0  0  0  0  0
   60.1890   29.2100   46.4190 N   0  0  0  0  0  0  0  0  0  0  0  0
   58.9720   29.1860   45.8830 N   0  0  0  0  0  0  0  0  0  0  0  0
   58.2440   27.9690   45.6690 C   0  0  0  0  0  0  0  0  0  0  0  0
   58.8730   26.8510   45.0970 C   0  0  0  0  0  0  0  0  0  0  0  0
   58.1460   25.6830   44.8550 C   0  0  0  0  0  0  0  0  0  0  0  0
   56.7820   25.6270   45.1630 C   0  0  0  0  0  0  0  0  0  0  0  0
   56.0660   24.4620   44.9190 O   0  0  0  0  0  0  0  0  0  0  0  0
   56.1450   26.7470   45.7100 C   0  0  0  0  0  0  0  0  0  0  0  0
   54.7880   26.7010   46.0120 O   0  0  0  0  0  0  0  0  0  0  0  0
   56.8720   27.9170   45.9540 C   0  0  0  0  0  0  0  0  0  0  0  0
   58.5680   30.4580   45.6620 C   0  0  0  0  0  0  0  0  0  0  0  0
   57.3960   30.9420   45.0640 C   0  0  0  0  0  0  0  0  0  0  0  0
   56.4230   30.0910   44.5540 O   0  0  0  0  0  0  0  0  0  0  0  0
   57.2370   32.3360   44.9620 C   0  0  0  0  0  0  0  0  0  0  0  0
   58.2440   33.2100   45.4280 C   0  0  0  0  0  0  0  0  0  0  0  0
   59.4280   32.6980   45.9890 C   0  0  0  0  0  0  0  0  0  0  0  0
   59.5540   31.3130   46.0810 C   0  0  0  0  0  0  0  0  0  0  0  0
   62.4180   33.0030   48.5130 C   0  0  0  0  0  0  0  0  0  0  0  0
   60.9063   34.3541   51.2666 H   0  0  0  0  0  0  0  0  0  0  0  0
   59.4110   32.3888   50.9138 H   0  0  0  0  0  0  0  0  0  0  0  0
   59.8360   30.8129   49.0266 H   0  0  0  0  0  0  0  0  0  0  0  0
   62.4909   31.4243   46.4305 H   0  0  0  0  0  0  0  0  0  0  0  0
   62.3712   30.0534   47.5908 H   0  0  0  0  0  0  0  0  0  0  0  0
   59.9414   26.8953   44.8388 H   0  0  0  0  0  0  0  0  0  0  0  0
   58.6469   24.8050   44.4212 H   0  0  0  0  0  0  0  0  0  0  0  0
   56.3653   28.7998   46.3711 H   0  0  0  0  0  0  0  0  0  0  0  0
   56.3205   32.7490   44.5154 H   0  0  0  0  0  0  0  0  0  0  0  0
   58.1014   34.2981   45.3517 H   0  0  0  0  0  0  0  0  0  0  0  0
   60.2263   33.3671   46.3426 H   0  0  0  0  0  0  0  0  0  0  0  0
   63.2725   33.1752   47.8420 H   0  0  0  0  0  0  0  0  0  0  0  0
  1  2  1  0
  2  3  2  0
  3  4  1  0
  4  5  2  0
  5  6  1  0
  6  7  1  0
  7  8  1  0
  8  9  2  0
  9 10  1  0
 10 11  1  0
 11 12  2  0
 12 13  1  0
 13 14  2  0
 14 15  1  0
 14 16  1  0
 16 17  1  0
 16 18  2  0
 10 19  1  0
 19 20  2  0
 20 21  1  0
 20 22  1  0
 22 23  2  0
 23 24  1  0
 24 25  2  0
  6 26  2  0
 26  2  1  0
 25  8  1  0
 18 11  1  0
 25 19  1  0
  3 27  1  0
  4 28  1  0
  5 29  1  0
  7 30  1  0
  7 31  1  0
 12 32  1  0
 13 33  1  0
 18 34  1  0
 22 35  1  0
 23 36  1  0
 24 37  1  0
 26 38  1  0
M  CHG  4   1  -1  15  -1  17  -1  21  -1
M  END
>  <UniqueID>  (54) 
52

>  <SMILES>  (54) 
[O-]c1cccc(Cc2nn(-c3ccc([O-])c([O-])c3)c3c([O-])cccc23)c1

>  <Energy>  (54) 
87.68987923054164

>  <Genealogy>  (54) 
[O-]c1cccc(Cc2nn(-c3ccc([O-])c([O-])c3)c3c([O-])cccc23)c1 (protonated)
[O-]c1cccc(Cc2nn(-c3ccc([O-])c([O-])c3)c3c([O-])cccc23)c1 (3D coordinates assigned)
[O-]c1cccc(Cc2nn(-c3ccc([O-])c([O-])c3)c3c([O-])cccc23)c1 (optimized conformer: 87.68987923054164 kcal/mol)

>  <smiles>  (54) 
Oc1cccc(Cc2nn(-c3ccc(O)c(O)c3)c3c(O)cccc23)c1

>  <score_type>  (54) 
oracle

>  <origin>  (54) 
adg

>  <m_score__min__energy>  (54) 
-17.030000000000001

>  <m_primary>  (54) 
energy

$$$$
54:0
     RDKit          3D

 53 56  0  0  1  0  0  0  0  0999 V2000
   64.8850   32.7050   49.5250 C   0  0  0  0  0  0  0  0  0  0  0  0
   63.7380   33.0840   48.6670 C   0  0  0  0  0  0  0  0  0  0  0  0
   62.5280   33.5930   49.0560 C   0  0  0  0  0  0  0  0  0  0  0  0
   61.7670   33.7950   47.9030 C   0  0  0  0  0  0  0  0  0  0  0  0
   60.5710   34.2700   47.9480 N   0  0  0  0  0  0  0  0  0  0  0  0
   59.7880   34.2280   46.7430 C   0  0  0  0  0  0  0  0  0  0  0  0
   59.4090   35.3000   46.2610 O   0  0  0  0  0  0  0  0  0  0  0  0
   59.5080   32.9590   46.2000 N   0  0  0  0  0  0  0  0  0  0  0  0
   58.7370   32.7260   44.9980 C   0  0  0  0  0  0  0  0  0  0  0  0
   58.1740   31.3640   45.0640 C   0  0  0  0  0  0  0  0  0  0  0  0
   56.9730   30.9870   44.5050 C   0  0  0  0  0  0  0  0  0  0  0  0
   56.4710   29.6980   44.5900 C   0  0  0  0  0  0  0  0  0  0  0  0
   57.2000   28.7420   45.2660 C   0  0  0  0  0  0  0  0  0  0  0  0
   56.7620   27.3570   45.4130 C   0  0  0  0  0  0  0  0  0  0  0  0
   55.6060   27.0810   45.8820 O   0  0  0  0  0  0  0  0  0  0  0  0
   57.5660   26.2540   45.0540 N   0  0  0  0  0  0  0  0  0  0  0  0
   57.1590   24.8950   45.1890 C   0  0  0  0  0  0  0  0  0  0  0  0
   57.0470   24.3910   46.4580 C   0  0  0  0  0  0  0  0  0  0  0  0
   56.6510   23.0740   46.5860 C   0  0  0  0  0  0  0  0  0  0  0  0
   56.5300   22.5350   47.9180 C   0  0  0  0  0  0  0  0  0  0  0  0
   57.2520   22.0920   48.8610 N   0  0  0  0  0  0  0  0  0  0  0  0
   56.9610   21.6470   49.9940 C   0  0  0  0  0  0  0  0  0  0  0  0
   55.5110   21.6310   50.3010 C   0  0  0  0  0  0  0  0  0  0  0  0
   54.8260   22.3320   48.7240 S   0  0  0  0  0  0  0  0  0  0  0  0
   56.3770   22.2870   45.4870 C   0  0  0  0  0  0  0  0  0  0  0  0
   56.4980   22.8220   44.2200 C   0  0  0  0  0  0  0  0  0  0  0  0
   56.8920   24.1350   44.0650 C   0  0  0  0  0  0  0  0  0  0  0  0
   57.0120   24.6690   42.7450 N   0  0  0  0  0  0  0  0  0  0  0  0
   58.4030   29.1160   45.8270 C   0  0  0  0  0  0  0  0  0  0  0  0
   58.9020   30.3940   45.7420 C   0  0  0  0  0  0  0  0  0  0  0  0
   62.5240   33.4100   46.8740 N   0  0  0  0  0  0  0  0  0  0  0  0
   63.7040   32.9830   47.3270 N   0  0  0  0  0  0  0  0  0  0  0  0
   64.5986   32.7996   50.5828 H   0  0  0  0  0  0  0  0  0  0  0  0
   65.1722   31.6642   49.3146 H   0  0  0  0  0  0  0  0  0  0  0  0
   65.7357   33.3698   49.3146 H   0  0  0  0  0  0  0  0  0  0  0  0
   62.2129   33.8042   50.0885 H   0  0  0  0  0  0  0  0  0  0  0  0
   59.8770   32.0870   46.6850 H   0  0  0  0  0  0  0  0  0  0  0  0
   57.9224   33.4621   44.9304 H   0  0  0  0  0  0  0  0  0  0  0  0
   59.3793   32.8274   44.1108 H   0  0  0  0  0  0  0  0  0  0  0  0
   56.3848   31.7443   43.9660 H   0  0  0  0  0  0  0  0  0  0  0  0
   55.5072   29.4416   44.1260 H   0  0  0  0  0  0  0  0  0  0  0  0
   58.5280   26.4020   44.6610 H   0  0  0  0  0  0  0  0  0  0  0  0
   57.2640   25.0109   47.3404 H   0  0  0  0  0  0  0  0  0  0  0  0
   57.7219   21.2953   50.7063 H   0  0  0  0  0  0  0  0  0  0  0  0
   54.9873   21.2973   51.2089 H   0  0  0  0  0  0  0  0  0  0  0  0
   56.0643   21.2407   45.6190 H   0  0  0  0  0  0  0  0  0  0  0  0
   56.2809   22.2032   43.3368 H   0  0  0  0  0  0  0  0  0  0  0  0
   57.0220   25.7070   42.6330 H   0  0  0  0  0  0  0  0  0  0  0  0
   57.0860   24.0050   41.9210 H   0  0  0  0  0  0  0  0  0  0  0  0
   58.9894   28.3578   46.3666 H   0  0  0  0  0  0  0  0  0  0  0  0
   59.8671   30.6460   46.2057 H   0  0  0  0  0  0  0  0  0  0  0  0
   62.2180   33.4450   45.8670 H   0  0  0  0  0  0  0  0  0  0  0  0
   64.4970   32.6230   46.7520 H   0  0  0  0  0  0  0  0  0  0  0  0
  1  2  1  0
  2  3  2  0
  3  4  1  0
  4  5  2  0
  5  6  1  0
  6  7  2  0
  6  8  1  0
  8  9  1  0
  9 10  1  0
 10 11  2  0
 11 12  1  0
 12 13  2  0
 13 14  1  0
 14 15  2  0
 14 16  1  0
 16 17  1  0
 17 18  2  0
 18 19  1  0
 19 20  1  0
 20 21  2  0
 21 22  1  0
 22 23  2  0
 23 24  1  0
 19 25  2  0
 25 26  1  0
 26 27  2  0
 27 28  1  0
 13 29  1  0
 29 30  2  0
  4 31  1  0
 31 32  1  0
 32  2  1  0
 30 10  1  0
 27 17  1  0
 24 20  1  0
  1 33  1  0
  1 34  1  0
  1 35  1  0
  3 36  1  0
  8 37  1  0
  9 38  1  0
  9 39  1  0
 11 40  1  0
 12 41  1  0
 16 42  1  0
 18 43  1  0
 22 44  1  0
 23 45  1  0
 25 46  1  0
 26 47  1  0
 28 48  1  0
 28 49  1  0
 29 50  1  0
 30 51  1  0
 31 52  1  0
 32 53  1  0
M  END
>  <smiles>  (55) 
Cc1cc(=NC(=O)NCc2ccc(C(=O)Nc3cc(-c4nccs4)ccc3N)cc2)[nH][nH]1

>  <score_type>  (55) 
oracle

>  <origin>  (55) 
adg

>  <m_score__min__energy>  (55) 
-8.7200000000000006

>  <m_primary>  (55) 
energy

$$$$
55:0
     RDKit          3D

 27 28  0  0  0  0  0  0  0  0999 V2000
   60.2420   28.2560   45.0900 C   0  0  0  0  0  0  0  0  0  0  0  0
   58.8130   27.8630   45.3330 C   0  0  0  0  0  0  0  0  0  0  0  0
   58.5760   26.7290   46.0440 N   0  0  0  0  0  0  0  0  0  0  0  0
   57.3430   26.3270   46.3480 N   0  0  0  0  0  0  0  0  0  0  0  0
   56.2560   27.0430   45.9740 C   0  0  0  0  0  0  0  0  0  0  0  0
   55.1050   26.6450   46.2940 O   0  0  0  0  0  0  0  0  0  0  0  0
   56.4210   28.2200   45.2430 C   0  0  0  0  0  0  0  0  0  0  0  0
   55.3010   28.9720   44.9000 O   0  0  0  0  0  0  0  0  0  0  0  0
   57.7160   28.6340   44.8710 C   0  0  0  0  0  0  0  0  0  0  0  0
   57.9120   29.9130   44.0700 C   0  0  0  0  0  0  0  0  0  0  0  0
   58.2490   31.1070   44.9400 C   0  0  0  0  0  0  0  0  0  0  0  0
   58.4690   30.9120   46.3130 C   0  0  0  0  0  0  0  0  0  0  0  0
   58.7790   31.9880   47.1450 C   0  0  0  0  0  0  0  0  0  0  0  0
   58.8820   33.2780   46.6210 C   0  0  0  0  0  0  0  0  0  0  0  0
   59.2740   34.5980   47.7160 Cl  0  0  0  0  0  0  0  0  0  0  0  0
   58.6780   33.4950   45.2450 C   0  0  0  0  0  0  0  0  0  0  0  0
   58.7820   34.7740   44.6910 O   0  0  0  0  0  0  0  0  0  0  0  0
   58.3650   32.4110   44.4050 C   0  0  0  0  0  0  0  0  0  0  0  0
   58.1380   32.7190   42.6850 Cl  0  0  0  0  0  0  0  0  0  0  0  0
   60.7527   28.3964   46.0541 H   0  0  0  0  0  0  0  0  0  0  0  0
   60.7481   27.4637   44.5190 H   0  0  0  0  0  0  0  0  0  0  0  0
   60.2718   29.1957   44.5190 H   0  0  0  0  0  0  0  0  0  0  0  0
   58.7329   29.7570   43.3546 H   0  0  0  0  0  0  0  0  0  0  0  0
   56.9620   30.1328   43.5608 H   0  0  0  0  0  0  0  0  0  0  0  0
   58.3961   29.8997   46.7372 H   0  0  0  0  0  0  0  0  0  0  0  0
   58.9431   31.8192   48.2195 H   0  0  0  0  0  0  0  0  0  0  0  0
   59.4100   34.9940   43.9290 H   0  0  0  0  0  0  0  0  0  0  0  0
  1  2  1  0
  2  3  2  0
  3  4  1  0
  4  5  1  0
  5  6  2  0
  5  7  1  0
  7  8  1  0
  7  9  2  0
  9 10  1  0
 10 11  1  0
 11 12  2  0
 12 13  1  0
 13 14  2  0
 14 15  1  0
 14 16  1  0
 16 17  1  0
 16 18  2  0
 18 19  1  0
  9  2  1  0
 18 11  1  0
  1 20  1  0
  1 21  1  0
  1 22  1  0
 10 23  1  0
 10 24  1  0
 12 25  1  0
 13 26  1  0
 17 27  1  0
M  CHG  2   4  -1   8  -1
M  END
>  <UniqueID>  (56) 
53

>  <SMILES>  (56) 
Cc1n[n-]c(=O)c([O-])c1Cc1ccc(Cl)c(O)c1Cl

>  <Energy>  (56) 
34.54276103154634

>  <Genealogy>  (56) 
Cc1n[n-]c(=O)c([O-])c1Cc1ccc(Cl)c(O)c1Cl (protonated)
Cc1n[n-]c(=O)c([O-])c1Cc1ccc(Cl)c(O)c1Cl (3D coordinates assigned)
Cc1n[n-]c(=O)c([O-])c1Cc1ccc(Cl)c(O)c1Cl (optimized conformer: 34.54276103154634 kcal/mol)

>  <smiles>  (56) 
Cc1n[nH]c(=O)c(O)c1Cc1ccc(Cl)c(O)c1Cl

>  <score_type>  (56) 
oracle

>  <origin>  (56) 
adg

>  <m_score__min__energy>  (56) 
-11.81

>  <m_primary>  (56) 
energy

$$$$
56:0
     RDKit          3D

 45 47  0  0  0  0  0  0  0  0999 V2000
   63.6530   33.2320   46.7500 C   0  0  0  0  0  0  0  0  0  0  0  0
   62.4020   33.5210   47.5290 C   0  0  0  0  0  0  0  0  0  0  0  0
   62.4260   33.5240   48.9310 C   0  0  0  0  0  0  0  0  0  0  0  0
   61.2680   33.8250   49.6510 C   0  0  0  0  0  0  0  0  0  0  0  0
   60.0860   34.1420   48.9790 C   0  0  0  0  0  0  0  0  0  0  0  0
   60.0470   34.1690   47.5770 C   0  0  0  0  0  0  0  0  0  0  0  0
   58.8160   34.5140   46.9170 N   0  0  0  0  0  0  0  0  0  0  0  0
   58.4130   34.0260   45.3000 S   0  0  0  0  0  0  0  0  0  0  0  0
   59.5570   34.3540   44.3820 O   0  0  0  0  0  0  0  0  0  0  0  0
   57.1940   34.7810   44.8450 O   0  0  0  0  0  0  0  0  0  0  0  0
   58.1310   32.2880   45.2530 C   0  0  0  0  0  0  0  0  0  0  0  0
   58.7970   31.4330   46.1390 C   0  0  0  0  0  0  0  0  0  0  0  0
   58.5780   30.0540   46.0830 C   0  0  0  0  0  0  0  0  0  0  0  0
   57.6860   29.5090   45.1380 C   0  0  0  0  0  0  0  0  0  0  0  0
   57.4530   28.0460   45.0810 C   0  0  0  0  0  0  0  0  0  0  0  0
   58.2430   27.3130   44.4260 O   0  0  0  0  0  0  0  0  0  0  0  0
   56.2800   27.4840   45.6970 N   0  0  0  0  0  0  0  0  0  0  0  0
   56.0020   26.2370   45.9550 C   0  0  0  0  0  0  0  0  0  0  0  0
   56.9040   25.3610   46.5960 C   0  0  0  0  0  0  0  0  0  0  0  0
   56.5230   24.0390   46.8390 C   0  0  0  0  0  0  0  0  0  0  0  0
   55.2570   23.5960   46.4630 C   0  0  0  0  0  0  0  0  0  0  0  0
   54.3700   24.4930   45.8580 C   0  0  0  0  0  0  0  0  0  0  0  0
   53.0040   24.0450   45.4440 C   0  0  0  0  0  0  0  0  0  0  0  0
   54.7650   25.7740   45.6190 N   0  0  0  0  0  0  0  0  0  0  0  0
   57.0210   30.3770   44.2530 C   0  0  0  0  0  0  0  0  0  0  0  0
   57.2430   31.7560   44.3120 C   0  0  0  0  0  0  0  0  0  0  0  0
   61.2160   33.8530   46.8560 C   0  0  0  0  0  0  0  0  0  0  0  0
   64.4826   33.0404   47.4465 H   0  0  0  0  0  0  0  0  0  0  0  0
   63.4942   32.3469   46.1165 H   0  0  0  0  0  0  0  0  0  0  0  0
   63.8985   34.0971   46.1165 H   0  0  0  0  0  0  0  0  0  0  0  0
   63.3587   33.2888   49.4646 H   0  0  0  0  0  0  0  0  0  0  0  0
   61.2871   33.8123   50.7508 H   0  0  0  0  0  0  0  0  0  0  0  0
   59.1771   34.3727   49.5541 H   0  0  0  0  0  0  0  0  0  0  0  0
   58.1480   35.1590   47.3940 H   0  0  0  0  0  0  0  0  0  0  0  0
   59.4947   31.8478   46.8814 H   0  0  0  0  0  0  0  0  0  0  0  0
   59.1060   29.3888   46.7820 H   0  0  0  0  0  0  0  0  0  0  0  0
   57.8991   25.7163   46.9018 H   0  0  0  0  0  0  0  0  0  0  0  0
   57.2240   23.3467   47.3281 H   0  0  0  0  0  0  0  0  0  0  0  0
   54.9579   22.5523   46.6398 H   0  0  0  0  0  0  0  0  0  0  0  0
   52.3965   23.8458   46.3391 H   0  0  0  0  0  0  0  0  0  0  0  0
   52.5257   24.8333   44.8442 H   0  0  0  0  0  0  0  0  0  0  0  0
   53.0854   23.1265   44.8442 H   0  0  0  0  0  0  0  0  0  0  0  0
   56.3214   29.9678   43.5093 H   0  0  0  0  0  0  0  0  0  0  0  0
   56.7172   32.4256   43.6155 H   0  0  0  0  0  0  0  0  0  0  0  0
   61.1987   33.8667   45.7562 H   0  0  0  0  0  0  0  0  0  0  0  0
  1  2  1  0
  2  3  2  0
  3  4  1  0
  4  5  2  0
  5  6  1  0
  6  7  1  0
  7  8  1  0
  8  9  2  0
  8 10  2  0
  8 11  1  0
 11 12  2  0
 12 13  1  0
 13 14  2  0
 14 15  1  0
 15 16  2  0
 15 17  1  0
 17 18  2  3
 18 19  1  0
 19 20  2  0
 20 21  1  0
 21 22  2  0
 22 23  1  0
 22 24  1  0
 14 25  1  0
 25 26  2  0
  6 27  2  0
 27  2  1  0
 26 11  1  0
 24 18  1  0
  1 28  1  0
  1 29  1  0
  1 30  1  0
  3 31  1  0
  4 32  1  0
  5 33  1  0
  7 34  1  0
 12 35  1  0
 13 36  1  0
 19 37  1  0
 20 38  1  0
 21 39  1  0
 23 40  1  0
 23 41  1  0
 23 42  1  0
 25 43  1  0
 26 44  1  0
 27 45  1  0
M  CHG  1  24  -1
M  END
>  <UniqueID>  (57) 
54

>  <SMILES>  (57) 
Cc1cccc(NS(=O)(=O)c2ccc(C(=O)N=c3cccc(C)[n-]3)cc2)c1

>  <Energy>  (57) 
56.98127159804593

>  <Genealogy>  (57) 
Cc1cccc(NS(=O)(=O)c2ccc(C(=O)N=c3cccc(C)[n-]3)cc2)c1 (protonated)
Cc1cccc(NS(=O)(=O)c2ccc(C(=O)N=c3cccc(C)[n-]3)cc2)c1 (3D coordinates assigned)
Cc1cccc(NS(=O)(=O)c2ccc(C(=O)N=c3cccc(C)[n-]3)cc2)c1 (optimized conformer: 56.98127159804593 kcal/mol)

>  <smiles>  (57) 
Cc1cccc(NS(=O)(=O)c2ccc(C(=O)N=c3cccc(C)[nH]3)cc2)c1

>  <score_type>  (57) 
oracle

>  <origin>  (57) 
adg

>  <m_score__min__energy>  (57) 
-10.970000000000001

>  <m_primary>  (57) 
energy

$$$$
57:0
     RDKit          3D

 50 53  0  0  0  0  0  0  0  0999 V2000
   51.4130   24.1000   44.8530 C   0  0  0  0  0  0  0  0  0  0  0  0
   52.3130   22.9910   44.5610 N   0  0  0  0  0  0  0  0  0  0  0  0
   53.2140   22.5790   45.9890 S   0  0  0  0  0  0  0  0  0  0  0  0
   53.4890   21.1010   46.0130 O   0  0  0  0  0  0  0  0  0  0  0  0
   52.4130   22.9560   47.2050 O   0  0  0  0  0  0  0  0  0  0  0  0
   54.7180   23.4620   45.9860 N   0  0  0  0  0  0  0  0  0  0  0  0
   55.2500   23.5310   44.6190 C   0  0  0  0  0  0  0  0  0  0  0  0
   56.3860   24.5520   44.5910 C   0  0  0  0  0  0  0  0  0  0  0  0
   57.2470   24.4180   45.7760 N   0  0  0  0  0  0  0  0  0  0  0  0
   58.4270   25.2340   45.8710 C   0  0  0  0  0  0  0  0  0  0  0  0
   59.5510   24.6820   46.0060 O   0  0  0  0  0  0  0  0  0  0  0  0
   58.3490   26.7040   45.8240 C   0  0  0  0  0  0  0  0  0  0  0  0
   57.3720   27.4370   45.1450 C   0  0  0  0  0  0  0  0  0  0  0  0
   57.5420   28.7860   45.2250 N   0  0  0  0  0  0  0  0  0  0  0  0
   56.7390   29.7420   44.6790 C   0  0  0  0  0  0  0  0  0  0  0  0
   55.7140   29.4250   44.0160 O   0  0  0  0  0  0  0  0  0  0  0  0
   57.0650   31.0910   44.8680 C   0  0  0  0  0  0  0  0  0  0  0  0
   58.2190   31.4210   45.6170 C   0  0  0  0  0  0  0  0  0  0  0  0
   58.5980   32.7970   45.8430 N   0  0  0  0  0  0  0  0  0  0  0  0
   58.2640   33.8420   44.8660 C   0  0  0  0  0  0  0  0  0  0  0  0
   59.2580   35.0040   44.9740 C   0  0  0  0  0  0  0  0  0  0  0  0
   59.3670   35.4510   46.3110 O   0  0  0  0  0  0  0  0  0  0  0  0
   59.9390   34.4300   47.1050 C   0  0  0  0  0  0  0  0  0  0  0  0
   59.0050   33.2180   47.1890 C   0  0  0  0  0  0  0  0  0  0  0  0
   58.9830   30.4190   46.1420 N   0  0  0  0  0  0  0  0  0  0  0  0
   58.6360   29.1250   45.9400 C   0  0  0  0  0  0  0  0  0  0  0  0
   59.4620   27.7830   46.5130 S   0  0  0  0  0  0  0  0  0  0  0  0
   57.1500   23.2190   46.6200 C   0  0  0  0  0  0  0  0  0  0  0  0
   55.6830   22.8190   46.9010 C   0  0  0  0  0  0  0  0  0  0  0  0
   51.3175   24.2176   45.9425 H   0  0  0  0  0  0  0  0  0  0  0  0
   51.8186   25.0256   44.4184 H   0  0  0  0  0  0  0  0  0  0  0  0
   50.4238   23.8936   44.4184 H   0  0  0  0  0  0  0  0  0  0  0  0
   55.6312   22.5437   44.3191 H   0  0  0  0  0  0  0  0  0  0  0  0
   54.4555   23.8325   43.9205 H   0  0  0  0  0  0  0  0  0  0  0  0
   56.9915   24.3912   43.6868 H   0  0  0  0  0  0  0  0  0  0  0  0
   55.9489   25.5614   44.5888 H   0  0  0  0  0  0  0  0  0  0  0  0
   56.5421   26.9677   44.5964 H   0  0  0  0  0  0  0  0  0  0  0  0
   56.4326   31.8828   44.4401 H   0  0  0  0  0  0  0  0  0  0  0  0
   58.3084   33.4188   43.8516 H   0  0  0  0  0  0  0  0  0  0  0  0
   57.2504   34.2160   45.0725 H   0  0  0  0  0  0  0  0  0  0  0  0
   60.2453   34.6672   44.6251 H   0  0  0  0  0  0  0  0  0  0  0  0
   58.8950   35.8364   44.3532 H   0  0  0  0  0  0  0  0  0  0  0  0
   60.8947   34.1185   46.6582 H   0  0  0  0  0  0  0  0  0  0  0  0
   60.1004   34.8216   48.1202 H   0  0  0  0  0  0  0  0  0  0  0  0
   59.5298   32.3887   47.6859 H   0  0  0  0  0  0  0  0  0  0  0  0
   58.1093   33.4945   47.7646 H   0  0  0  0  0  0  0  0  0  0  0  0
   57.6529   22.3847   46.1092 H   0  0  0  0  0  0  0  0  0  0  0  0
   57.6287   23.4454   47.5842 H   0  0  0  0  0  0  0  0  0  0  0  0
   55.5918   21.7280   46.7945 H   0  0  0  0  0  0  0  0  0  0  0  0
   55.4419   23.1569   47.9197 H   0  0  0  0  0  0  0  0  0  0  0  0
  1  2  1  0
  2  3  1  0
  3  4  2  0
  3  5  2  0
  3  6  1  0
  6  7  1  0
  7  8  1  0
  8  9  1  0
  9 10  1  0
 10 11  2  0
 10 12  1  0
 12 13  2  0
 13 14  1  0
 14 15  1  0
 15 16  2  0
 15 17  1  0
 17 18  2  0
 18 19  1  0
 19 20  1  0
 20 21  1  0
 21 22  1  0
 22 23  1  0
 23 24  1  0
 18 25  1  0
 25 26  2  0
 26 27  1  0
  9 28  1  0
 28 29  1  0
 29  6  1  0
 27 12  1  0
 26 14  1  0
 24 19  1  0
  1 30  1  0
  1 31  1  0
  1 32  1  0
  7 33  1  0
  7 34  1  0
  8 35  1  0
  8 36  1  0
 13 37  1  0
 17 38  1  0
 20 39  1  0
 20 40  1  0
 21 41  1  0
 21 42  1  0
 23 43  1  0
 23 44  1  0
 24 45  1  0
 24 46  1  0
 28 47  1  0
 28 48  1  0
 29 49  1  0
 29 50  1  0
M  CHG  1   2  -1
M  END
>  <UniqueID>  (58) 
55

>  <SMILES>  (58) 
C[N-]S(=O)(=O)N1CCN(C(=O)c2cn3c(=O)cc(N4CCOCC4)nc3s2)CC1

>  <Energy>  (58) 
94.96139113246252

>  <Genealogy>  (58) 
C[N-]S(=O)(=O)N1CCN(C(=O)c2cn3c(=O)cc(N4CCOCC4)nc3s2)CC1 (protonated)
C[N-]S(=O)(=O)N1CCN(C(=O)c2cn3c(=O)cc(N4CCOCC4)nc3s2)CC1 (3D coordinates assigned)
C[N-]S(=O)(=O)N1CCN(C(=O)c2cn3c(=O)cc(N4CCOCC4)nc3s2)CC1 (nonaromatic ring conformer: 94.96139113246252 kcal/mol)

>  <smiles>  (58) 
CNS(=O)(=O)N1CCN(C(=O)c2cn3c(=O)cc(N4CCOCC4)nc3s2)CC1

>  <score_type>  (58) 
oracle

>  <origin>  (58) 
adg

>  <m_score__min__energy>  (58) 
-9.5500000000000007

>  <m_primary>  (58) 
energy

$$$$
58:0
     RDKit          3D

 64 67  0  0  0  0  0  0  0  0999 V2000
   56.2750   25.7480   45.5900 C   0  0  0  0  0  0  0  0  0  0  0  0
   55.9570   27.1380   45.6200 O   0  0  0  0  0  0  0  0  0  0  0  0
   56.9030   28.1770   45.6750 C   0  0  0  0  0  0  0  0  0  0  0  0
   56.7230   29.3670   44.9430 C   0  0  0  0  0  0  0  0  0  0  0  0
   57.6760   30.3900   44.9970 C   0  0  0  0  0  0  0  0  0  0  0  0
   57.4680   31.6590   44.2690 C   0  0  0  0  0  0  0  0  0  0  0  0
   57.0500   31.6470   43.0790 O   0  0  0  0  0  0  0  0  0  0  0  0
   57.7630   32.9110   44.9030 N   0  0  0  0  0  0  0  0  0  0  0  0
   57.1580   33.2430   46.1980 C   0  0  0  0  0  0  0  0  0  0  0  0
   58.2570   33.4900   47.2370 C   0  0  0  0  0  0  0  0  0  0  0  0
   59.4130   34.1820   46.6420 N   0  0  0  0  0  0  0  0  0  0  0  0
   60.7150   33.9930   47.2270 C   0  0  0  0  0  0  0  0  0  0  0  0
   61.8490   33.9270   46.4040 C   0  0  0  0  0  0  0  0  0  0  0  0
   63.1100   33.6700   46.9540 C   0  0  0  0  0  0  0  0  0  0  0  0
   63.2480   33.4850   48.3300 C   0  0  0  0  0  0  0  0  0  0  0  0
   62.1310   33.5610   49.1610 C   0  0  0  0  0  0  0  0  0  0  0  0
   60.8540   33.7980   48.6170 C   0  0  0  0  0  0  0  0  0  0  0  0
   59.7010   33.8970   49.4660 N   0  0  0  0  0  0  0  0  0  0  0  0
   59.6210   33.4640   50.8300 C   0  0  0  0  0  0  0  0  0  0  0  0
   60.1350   34.1910   51.7200 O   0  0  0  0  0  0  0  0  0  0  0  0
   58.9110   32.2210   51.2200 C   0  0  0  0  0  0  0  0  0  0  0  0
   59.5830   30.9850   51.2560 C   0  0  0  0  0  0  0  0  0  0  0  0
   58.8970   29.8170   51.5970 C   0  0  0  0  0  0  0  0  0  0  0  0
   57.5230   29.8590   51.8770 C   0  0  0  0  0  0  0  0  0  0  0  0
   56.8430   31.0770   51.8190 C   0  0  0  0  0  0  0  0  0  0  0  0
   55.4220   31.1130   52.0260 C   0  0  0  0  0  0  0  0  0  0  0  0
   54.2780   31.1470   52.2090 N   0  0  0  0  0  0  0  0  0  0  0  0
   57.5350   32.2560   51.5010 C   0  0  0  0  0  0  0  0  0  0  0  0
   59.2710   34.8270   45.3300 C   0  0  0  0  0  0  0  0  0  0  0  0
   58.7580   33.8080   44.3020 C   0  0  0  0  0  0  0  0  0  0  0  0
   58.8370   30.2110   45.7530 C   0  0  0  0  0  0  0  0  0  0  0  0
   59.0440   29.0320   46.4830 C   0  0  0  0  0  0  0  0  0  0  0  0
   60.2050   28.8290   47.2480 O   0  0  0  0  0  0  0  0  0  0  0  0
   60.7540   29.7840   48.1540 C   0  0  0  0  0  0  0  0  0  0  0  0
   58.0670   28.0220   46.4700 C   0  0  0  0  0  0  0  0  0  0  0  0
   58.3140   26.8850   47.2610 O   0  0  0  0  0  0  0  0  0  0  0  0
   59.4190   25.9890   47.0970 C   0  0  0  0  0  0  0  0  0  0  0  0
   56.3616   25.3694   46.6191 H   0  0  0  0  0  0  0  0  0  0  0  0
   55.4788   25.2010   45.0639 H   0  0  0  0  0  0  0  0  0  0  0  0
   57.2298   25.6016   45.0639 H   0  0  0  0  0  0  0  0  0  0  0  0
   55.8237   29.4933   44.3223 H   0  0  0  0  0  0  0  0  0  0  0  0
   56.5447   34.1501   46.0926 H   0  0  0  0  0  0  0  0  0  0  0  0
   56.5270   32.4051   46.5293 H   0  0  0  0  0  0  0  0  0  0  0  0
   57.8488   34.1089   48.0496 H   0  0  0  0  0  0  0  0  0  0  0  0
   58.5960   32.5164   47.6206 H   0  0  0  0  0  0  0  0  0  0  0  0
   61.7465   34.0782   45.3193 H   0  0  0  0  0  0  0  0  0  0  0  0
   63.9932   33.6138   46.3008 H   0  0  0  0  0  0  0  0  0  0  0  0
   64.2394   33.2789   48.7598 H   0  0  0  0  0  0  0  0  0  0  0  0
   62.2480   33.4351   50.2475 H   0  0  0  0  0  0  0  0  0  0  0  0
   60.6551   30.9384   51.0141 H   0  0  0  0  0  0  0  0  0  0  0  0
   59.4367   28.8598   51.6462 H   0  0  0  0  0  0  0  0  0  0  0  0
   56.9842   28.9370   52.1409 H   0  0  0  0  0  0  0  0  0  0  0  0
   56.9960   33.2144   51.4716 H   0  0  0  0  0  0  0  0  0  0  0  0
   58.5557   35.6591   45.4077 H   0  0  0  0  0  0  0  0  0  0  0  0
   60.2501   35.2089   45.0053 H   0  0  0  0  0  0  0  0  0  0  0  0
   58.2960   34.3463   43.4613 H   0  0  0  0  0  0  0  0  0  0  0  0
   59.6083   33.2044   43.9518 H   0  0  0  0  0  0  0  0  0  0  0  0
   59.5982   31.0048   45.7758 H   0  0  0  0  0  0  0  0  0  0  0  0
   60.5668   29.4584   49.1879 H   0  0  0  0  0  0  0  0  0  0  0  0
   61.8380   29.8675   47.9864 H   0  0  0  0  0  0  0  0  0  0  0  0
   60.2807   30.7627   47.9864 H   0  0  0  0  0  0  0  0  0  0  0  0
   59.7942   25.6848   48.0853 H   0  0  0  0  0  0  0  0  0  0  0  0
   59.0901   25.0994   46.5399 H   0  0  0  0  0  0  0  0  0  0  0  0
   60.2215   26.4946   46.5399 H   0  0  0  0  0  0  0  0  0  0  0  0
  1  2  1  0
  2  3  1  0
  3  4  2  0
  4  5  1  0
  5  6  1  0
  6  7  2  0
  6  8  1  0
  8  9  1  0
  9 10  1  0
 10 11  1  0
 11 12  1  0
 12 13  2  0
 13 14  1  0
 14 15  2  0
 15 16  1  0
 16 17  2  0
 17 18  1  0
 18 19  1  0
 19 20  2  0
 19 21  1  0
 21 22  2  0
 22 23  1  0
 23 24  2  0
 24 25  1  0
 25 26  1  0
 26 27  3  0
 25 28  2  0
 11 29  1  0
 29 30  1  0
  5 31  2  0
 31 32  1  0
 32 33  1  0
 33 34  1  0
 32 35  2  0
 35 36  1  0
 36 37  1  0
 35  3  1  0
 30  8  1  0
 17 12  1  0
 28 21  1  0
  1 38  1  0
  1 39  1  0
  1 40  1  0
  4 41  1  0
  9 42  1  0
  9 43  1  0
 10 44  1  0
 10 45  1  0
 13 46  1  0
 14 47  1  0
 15 48  1  0
 16 49  1  0
 22 50  1  0
 23 51  1  0
 24 52  1  0
 28 53  1  0
 29 54  1  0
 29 55  1  0
 30 56  1  0
 30 57  1  0
 31 58  1  0
 34 59  1  0
 34 60  1  0
 34 61  1  0
 37 62  1  0
 37 63  1  0
 37 64  1  0
M  CHG  1  18  -1
M  END
>  <UniqueID>  (59) 
56

>  <SMILES>  (59) 
COc1cc(C(=O)N2CCN(c3ccccc3[N-]C(=O)c3cccc(C#N)c3)CC2)cc(OC)c1OC

>  <Energy>  (59) 
85.01538326707619

>  <Genealogy>  (59) 
COc1cc(C(=O)N2CCN(c3ccccc3[N-]C(=O)c3cccc(C#N)c3)CC2)cc(OC)c1OC (protonated)
COc1cc(C(=O)N2CCN(c3ccccc3[N-]C(=O)c3cccc(C#N)c3)CC2)cc(OC)c1OC (3D coordinates assigned)
COc1cc(C(=O)N2CCN(c3ccccc3[N-]C(=O)c3cccc(C#N)c3)CC2)cc(OC)c1OC (nonaromatic ring conformer: 85.01538326707619 kcal/mol)

>  <smiles>  (59) 
COc1cc(C(=O)N2CCN(c3ccccc3NC(=O)c3cccc(C#N)c3)CC2)cc(OC)c1OC

>  <score_type>  (59) 
oracle

>  <origin>  (59) 
adg

>  <m_score__min__energy>  (59) 
-10.66

>  <m_primary>  (59) 
energy

$$$$
59:0
     RDKit          3D

 50 52  0  0  0  0  0  0  0  0999 V2000
   64.0340   32.8890   48.5130 C   0  0  0  0  0  0  0  0  0  0  0  0
   63.1370   33.8050   48.1380 C   0  0  0  0  0  0  0  0  0  0  0  0
   62.5750   33.8350   46.7450 C   0  0  0  0  0  0  0  0  0  0  0  0
   61.3010   33.1100   46.6890 N   0  0  0  0  0  0  0  0  0  0  0  0
   61.1220   31.7790   46.8270 C   0  0  0  0  0  0  0  0  0  0  0  0
   62.1310   30.8570   47.1010 O   0  0  0  0  0  0  0  0  0  0  0  0
   59.7910   31.4730   46.6410 C   0  0  0  0  0  0  0  0  0  0  0  0
   59.1820   30.1020   46.7100 C   0  0  0  0  0  0  0  0  0  0  0  0
   60.0620   29.1790   47.5070 C   0  0  0  0  0  0  0  0  0  0  0  0
   60.6180   28.2110   46.9240 O   0  0  0  0  0  0  0  0  0  0  0  0
   60.3630   29.4160   48.8890 N   0  0  0  0  0  0  0  0  0  0  0  0
   59.6310   30.2630   49.7850 C   0  0  0  0  0  0  0  0  0  0  0  0
   59.9900   31.6060   49.9840 C   0  0  0  0  0  0  0  0  0  0  0  0
   59.2500   32.4090   50.8540 C   0  0  0  0  0  0  0  0  0  0  0  0
   58.1370   31.8850   51.5160 C   0  0  0  0  0  0  0  0  0  0  0  0
   57.7460   30.5570   51.3050 C   0  0  0  0  0  0  0  0  0  0  0  0
   56.6170   30.0790   51.9880 O   0  0  0  0  0  0  0  0  0  0  0  0
   55.4820   30.8720   52.3180 C   0  0  0  0  0  0  0  0  0  0  0  0
   58.4950   29.7520   50.4240 C   0  0  0  0  0  0  0  0  0  0  0  0
   59.1210   32.6250   46.4000 N   0  0  0  0  0  0  0  0  0  0  0  0
   57.6930   32.7620   46.0850 C   0  0  0  0  0  0  0  0  0  0  0  0
   57.3500   31.9750   44.8520 C   0  0  0  0  0  0  0  0  0  0  0  0
   57.7650   32.4110   43.5850 C   0  0  0  0  0  0  0  0  0  0  0  0
   57.4370   31.6540   42.4590 C   0  0  0  0  0  0  0  0  0  0  0  0
   56.7130   30.4700   42.6040 C   0  0  0  0  0  0  0  0  0  0  0  0
   56.3310   30.0560   43.8810 C   0  0  0  0  0  0  0  0  0  0  0  0
   56.6570   30.8080   44.9670 N   0  0  0  0  0  0  0  0  0  0  0  0
   60.0660   33.6000   46.4160 C   0  0  0  0  0  0  0  0  0  0  0  0
   59.7520   35.1850   46.1100 S   0  0  0  0  0  0  0  0  0  0  0  0
   64.4273   32.8926   49.5403 H   0  0  0  0  0  0  0  0  0  0  0  0
   64.3794   32.1310   47.7945 H   0  0  0  0  0  0  0  0  0  0  0  0
   62.8012   34.5565   48.8677 H   0  0  0  0  0  0  0  0  0  0  0  0
   62.4103   34.8800   46.4436 H   0  0  0  0  0  0  0  0  0  0  0  0
   63.2896   33.3515   46.0627 H   0  0  0  0  0  0  0  0  0  0  0  0
   61.9260   29.9390   47.4740 H   0  0  0  0  0  0  0  0  0  0  0  0
   58.1949   30.1673   47.1910 H   0  0  0  0  0  0  0  0  0  0  0  0
   59.0786   29.7048   45.6894 H   0  0  0  0  0  0  0  0  0  0  0  0
   60.8567   32.0265   49.4529 H   0  0  0  0  0  0  0  0  0  0  0  0
   59.5439   33.4562   51.0185 H   0  0  0  0  0  0  0  0  0  0  0  0
   57.5639   32.5199   52.2077 H   0  0  0  0  0  0  0  0  0  0  0  0
   55.3867   30.9386   53.4118 H   0  0  0  0  0  0  0  0  0  0  0  0
   55.6055   31.8814   51.8986 H   0  0  0  0  0  0  0  0  0  0  0  0
   54.5767   30.4089   51.8986 H   0  0  0  0  0  0  0  0  0  0  0  0
   58.1846   28.7135   50.2367 H   0  0  0  0  0  0  0  0  0  0  0  0
   57.0978   32.3877   46.9310 H   0  0  0  0  0  0  0  0  0  0  0  0
   57.4680   33.8235   45.9044 H   0  0  0  0  0  0  0  0  0  0  0  0
   58.3435   33.3407   43.4797 H   0  0  0  0  0  0  0  0  0  0  0  0
   57.7487   31.9902   41.4591 H   0  0  0  0  0  0  0  0  0  0  0  0
   56.4463   29.8696   41.7217 H   0  0  0  0  0  0  0  0  0  0  0  0
   55.7659   29.1210   44.0095 H   0  0  0  0  0  0  0  0  0  0  0  0
  1  2  2  0
  2  3  1  0
  3  4  1  0
  4  5  1  0
  5  6  1  0
  5  7  2  0
  7  8  1  0
  8  9  1  0
  9 10  2  0
  9 11  1  0
 11 12  1  0
 12 13  2  0
 13 14  1  0
 14 15  2  0
 15 16  1  0
 16 17  1  0
 17 18  1  0
 16 19  2  0
  7 20  1  0
 20 21  1  0
 21 22  1  0
 22 23  2  0
 23 24  1  0
 24 25  2  0
 25 26  1  0
 26 27  2  0
 20 28  1  0
 28 29  2  0
 28  4  1  0
 19 12  1  0
 27 22  1  0
  1 30  1  0
  1 31  1  0
  2 32  1  0
  3 33  1  0
  3 34  1  0
  6 35  1  0
  8 36  1  0
  8 37  1  0
 13 38  1  0
 14 39  1  0
 15 40  1  0
 18 41  1  0
 18 42  1  0
 18 43  1  0
 19 44  1  0
 21 45  1  0
 21 46  1  0
 23 47  1  0
 24 48  1  0
 25 49  1  0
 26 50  1  0
M  CHG  1  11  -1
M  END
>  <UniqueID>  (60) 
57

>  <SMILES>  (60) 
C=CCn1c(O)c(CC(=O)[N-]c2cccc(OC)c2)n(Cc2ccccn2)c1=S

>  <Energy>  (60) 
82.55624040515082

>  <Genealogy>  (60) 
C=CCn1c(O)c(CC(=O)[N-]c2cccc(OC)c2)n(Cc2ccccn2)c1=S (protonated)
C=CCn1c(O)c(CC(=O)[N-]c2cccc(OC)c2)n(Cc2ccccn2)c1=S (3D coordinates assigned)
C=CCn1c(O)c(CC(=O)[N-]c2cccc(OC)c2)n(Cc2ccccn2)c1=S (optimized conformer: 82.55624040515082 kcal/mol)

>  <smiles>  (60) 
C=CCn1c(O)c(CC(=O)Nc2cccc(OC)c2)n(Cc2ccccn2)c1=S

>  <score_type>  (60) 
oracle

>  <origin>  (60) 
adg

>  <m_score__min__energy>  (60) 
-9.6699999999999999

>  <m_primary>  (60) 
energy

$$$$
60:0
     RDKit          3D

 61 64  0  0  0  0  0  0  0  0999 V2000
   62.5630   31.4700   51.0120 C   0  0  0  0  0  0  0  0  0  0  0  0
   64.0160   31.8380   50.8500 C   0  0  0  0  0  0  0  0  0  0  0  0
   64.9910   30.8330   50.9750 C   0  0  0  0  0  0  0  0  0  0  0  0
   66.3470   31.1380   50.8480 C   0  0  0  0  0  0  0  0  0  0  0  0
   66.7490   32.4500   50.6020 C   0  0  0  0  0  0  0  0  0  0  0  0
   65.7950   33.4630   50.4840 C   0  0  0  0  0  0  0  0  0  0  0  0
   64.4240   33.1760   50.6060 C   0  0  0  0  0  0  0  0  0  0  0  0
   63.4290   34.3090   50.4880 C   0  0  0  0  0  0  0  0  0  0  0  0
   62.4880   34.0620   49.3980 N   0  0  0  0  0  0  0  0  0  0  0  0
   62.9120   33.8230   48.0500 C   0  0  0  0  0  0  0  0  0  0  0  0
   64.1390   33.7950   47.7630 O   0  0  0  0  0  0  0  0  0  0  0  0
   61.9030   33.5430   46.9820 C   0  0  0  0  0  0  0  0  0  0  0  0
   61.0160   32.4660   47.4100 N   0  0  0  0  0  0  0  0  0  0  0  0
   61.1180   31.2090   47.0130 N   0  0  0  0  0  0  0  0  0  0  0  0
   60.1750   30.5300   47.7070 C   0  0  0  0  0  0  0  0  0  0  0  0
   59.9440   29.0670   47.5730 C   0  0  0  0  0  0  0  0  0  0  0  0
   60.3840   28.2290   48.6170 C   0  0  0  0  0  0  0  0  0  0  0  0
   60.1680   26.8520   48.5690 C   0  0  0  0  0  0  0  0  0  0  0  0
   59.5110   26.2850   47.4810 C   0  0  0  0  0  0  0  0  0  0  0  0
   59.0760   27.0910   46.4300 C   0  0  0  0  0  0  0  0  0  0  0  0
   59.2960   28.4810   46.4480 C   0  0  0  0  0  0  0  0  0  0  0  0
   58.8140   29.2910   45.2690 C   0  0  0  0  0  0  0  0  0  0  0  0
   57.5190   29.8860   45.5910 N   0  0  0  0  0  0  0  0  0  0  0  0
   56.6530   30.2730   44.1350 S   0  0  0  0  0  0  0  0  0  0  0  0
   56.7350   29.0970   43.2030 O   0  0  0  0  0  0  0  0  0  0  0  0
   55.2080   30.5410   44.4560 O   0  0  0  0  0  0  0  0  0  0  0  0
   57.3680   31.7050   43.3390 C   0  0  0  0  0  0  0  0  0  0  0  0
   57.7600   32.7310   44.3650 C   0  0  0  0  0  0  0  0  0  0  0  0
   58.8730   33.5620   44.1460 C   0  0  0  0  0  0  0  0  0  0  0  0
   59.2620   34.4880   45.1190 C   0  0  0  0  0  0  0  0  0  0  0  0
   58.5500   34.5830   46.3180 C   0  0  0  0  0  0  0  0  0  0  0  0
   57.4500   33.7530   46.5470 C   0  0  0  0  0  0  0  0  0  0  0  0
   57.0570   32.8270   45.5770 C   0  0  0  0  0  0  0  0  0  0  0  0
   59.5200   31.3310   48.5260 O   0  0  0  0  0  0  0  0  0  0  0  0
   60.0480   32.5130   48.3370 C   0  0  0  0  0  0  0  0  0  0  0  0
   59.6970   33.5530   48.9550 O   0  0  0  0  0  0  0  0  0  0  0  0
   62.3176   31.4079   52.0825 H   0  0  0  0  0  0  0  0  0  0  0  0
   61.9351   32.2375   50.5359 H   0  0  0  0  0  0  0  0  0  0  0  0
   62.3761   30.4962   50.5359 H   0  0  0  0  0  0  0  0  0  0  0  0
   64.6822   29.7963   51.1748 H   0  0  0  0  0  0  0  0  0  0  0  0
   67.1000   30.3416   50.9422 H   0  0  0  0  0  0  0  0  0  0  0  0
   67.8183   32.6875   50.5008 H   0  0  0  0  0  0  0  0  0  0  0  0
   66.1196   34.4966   50.2936 H   0  0  0  0  0  0  0  0  0  0  0  0
   62.8716   34.3992   51.4320 H   0  0  0  0  0  0  0  0  0  0  0  0
   63.9772   35.2389   50.2765 H   0  0  0  0  0  0  0  0  0  0  0  0
   61.4690   34.0150   49.6240 H   0  0  0  0  0  0  0  0  0  0  0  0
   61.3107   34.4503   46.7923 H   0  0  0  0  0  0  0  0  0  0  0  0
   62.4232   33.2407   46.0611 H   0  0  0  0  0  0  0  0  0  0  0  0
   60.9048   28.6668   49.4814 H   0  0  0  0  0  0  0  0  0  0  0  0
   60.5177   26.2126   49.3930 H   0  0  0  0  0  0  0  0  0  0  0  0
   59.3348   25.1996   47.4503 H   0  0  0  0  0  0  0  0  0  0  0  0
   58.5542   26.6348   45.5758 H   0  0  0  0  0  0  0  0  0  0  0  0
   59.5400   30.0874   45.0485 H   0  0  0  0  0  0  0  0  0  0  0  0
   58.7119   28.6382   44.3896 H   0  0  0  0  0  0  0  0  0  0  0  0
   58.2602   31.3981   42.7735 H   0  0  0  0  0  0  0  0  0  0  0  0
   56.6237   32.1452   42.6591 H   0  0  0  0  0  0  0  0  0  0  0  0
   59.4395   33.4834   43.2063 H   0  0  0  0  0  0  0  0  0  0  0  0
   60.1285   35.1418   44.9407 H   0  0  0  0  0  0  0  0  0  0  0  0
   58.8563   35.3124   47.0823 H   0  0  0  0  0  0  0  0  0  0  0  0
   56.8924   33.8284   47.4922 H   0  0  0  0  0  0  0  0  0  0  0  0
   56.1940   32.1710   45.7634 H   0  0  0  0  0  0  0  0  0  0  0  0
  1  2  1  0
  2  3  2  0
  3  4  1  0
  4  5  2  0
  5  6  1  0
  6  7  2  0
  7  8  1  0
  8  9  1  0
  9 10  1  0
 10 11  2  0
 10 12  1  0
 12 13  1  0
 13 14  1  0
 14 15  2  0
 15 16  1  0
 16 17  2  0
 17 18  1  0
 18 19  2  0
 19 20  1  0
 20 21  2  0
 21 22  1  0
 22 23  1  0
 23 24  1  0
 24 25  2  0
 24 26  2  0
 24 27  1  0
 27 28  1  0
 28 29  2  0
 29 30  1  0
 30 31  2  0
 31 32  1  0
 32 33  2  0
 15 34  1  0
 34 35  1  0
 35 36  2  0
  7  2  1  0
 35 13  1  0
 21 16  1  0
 33 28  1  0
  1 37  1  0
  1 38  1  0
  1 39  1  0
  3 40  1  0
  4 41  1  0
  5 42  1  0
  6 43  1  0
  8 44  1  0
  8 45  1  0
  9 46  1  0
 12 47  1  0
 12 48  1  0
 17 49  1  0
 18 50  1  0
 19 51  1  0
 20 52  1  0
 22 53  1  0
 22 54  1  0
 27 55  1  0
 27 56  1  0
 29 57  1  0
 30 58  1  0
 31 59  1  0
 32 60  1  0
 33 61  1  0
M  CHG  1  23  -1
M  END
>  <UniqueID>  (61) 
58

>  <SMILES>  (61) 
Cc1ccccc1CNC(=O)Cn1nc(-c2ccccc2C[N-]S(=O)(=O)Cc2ccccc2)oc1=O

>  <Energy>  (61) 
95.21228361202986

>  <Genealogy>  (61) 
Cc1ccccc1CNC(=O)Cn1nc(-c2ccccc2C[N-]S(=O)(=O)Cc2ccccc2)oc1=O (protonated)
Cc1ccccc1CNC(=O)Cn1nc(-c2ccccc2C[N-]S(=O)(=O)Cc2ccccc2)oc1=O (3D coordinates assigned)
Cc1ccccc1CNC(=O)Cn1nc(-c2ccccc2C[N-]S(=O)(=O)Cc2ccccc2)oc1=O (optimized conformer: 95.21228361202986 kcal/mol)

>  <smiles>  (61) 
Cc1ccccc1CNC(=O)Cn1nc(-c2ccccc2CNS(=O)(=O)Cc2ccccc2)oc1=O

>  <score_type>  (61) 
oracle

>  <origin>  (61) 
adg

>  <m_score__min__energy>  (61) 
-12.15

>  <m_primary>  (61) 
energy

$$$$
61:0
     RDKit          3D

 43 46  0  0  0  0  0  0  0  0999 V2000
   58.9676   32.1260   50.0903 H   0  0  0  0  0  0  0  0  0  0  0  0
   59.0010   32.7740   49.2020 C   0  0  0  0  0  0  0  0  0  0  0  0
   58.1530   32.6140   48.1500 N   0  0  0  0  0  0  0  0  0  0  0  0
   58.3810   33.5230   47.1790 C   0  0  0  0  0  0  0  0  0  0  0  0
   57.6870   33.5420   46.0790 N   0  0  0  0  0  0  0  0  0  0  0  0
   58.1640   33.3490   44.7370 C   0  0  0  0  0  0  0  0  0  0  0  0
   59.2230   33.8990   44.3300 O   0  0  0  0  0  0  0  0  0  0  0  0
   57.4090   32.4430   43.8170 C   0  0  0  0  0  0  0  0  0  0  0  0
   57.8523   32.4930   42.8115 H   0  0  0  0  0  0  0  0  0  0  0  0
   56.3574   32.7633   43.7772 H   0  0  0  0  0  0  0  0  0  0  0  0
   57.4740   31.0580   44.3100 N   0  0  0  0  0  0  0  0  0  0  0  0
   58.2130   30.7830   45.4260 C   0  0  0  0  0  0  0  0  0  0  0  0
   58.7717   31.5925   45.9186 H   0  0  0  0  0  0  0  0  0  0  0  0
   58.2700   29.4870   45.9520 C   0  0  0  0  0  0  0  0  0  0  0  0
   59.0190   29.2430   47.2070 C   0  0  0  0  0  0  0  0  0  0  0  0
   60.2650   29.7340   47.5610 C   0  0  0  0  0  0  0  0  0  0  0  0
   61.1520   30.6110   46.7400 C   0  0  0  0  0  0  0  0  0  0  0  0
   61.7753   31.2272   47.4047 H   0  0  0  0  0  0  0  0  0  0  0  0
   61.7985   29.9872   46.1053 H   0  0  0  0  0  0  0  0  0  0  0  0
   60.5356   31.2646   46.1053 H   0  0  0  0  0  0  0  0  0  0  0  0
   60.5750   29.3180   48.7690 O   0  0  0  0  0  0  0  0  0  0  0  0
   59.5950   28.5680   49.2240 C   0  0  0  0  0  0  0  0  0  0  0  0
   59.5783   28.0785   50.2090 H   0  0  0  0  0  0  0  0  0  0  0  0
   58.5910   28.4870   48.2810 C   0  0  0  0  0  0  0  0  0  0  0  0
   57.6441   27.9339   48.3668 H   0  0  0  0  0  0  0  0  0  0  0  0
   57.5400   28.4750   45.2950 C   0  0  0  0  0  0  0  0  0  0  0  0
   57.5720   27.0580   45.7290 C   0  0  0  0  0  0  0  0  0  0  0  0
   58.7950   26.3660   45.7960 C   0  0  0  0  0  0  0  0  0  0  0  0
   59.7304   26.8818   45.5334 H   0  0  0  0  0  0  0  0  0  0  0  0
   58.8280   25.0280   46.1940 C   0  0  0  0  0  0  0  0  0  0  0  0
   59.7894   24.4970   46.2555 H   0  0  0  0  0  0  0  0  0  0  0  0
   57.6430   24.3630   46.5140 C   0  0  0  0  0  0  0  0  0  0  0  0
   57.6716   23.3095   46.8292 H   0  0  0  0  0  0  0  0  0  0  0  0
   56.4210   25.0350   46.4340 C   0  0  0  0  0  0  0  0  0  0  0  0
   55.4882   24.5070   46.6810 H   0  0  0  0  0  0  0  0  0  0  0  0
   56.3790   26.3770   46.0410 C   0  0  0  0  0  0  0  0  0  0  0  0
   55.1530   27.0300   45.9780 O   0  0  0  0  0  0  0  0  0  0  0  0
   56.8010   28.7960   44.2020 N   0  0  0  0  0  0  0  0  0  0  0  0
   56.7550   30.0590   43.7110 C   0  0  0  0  0  0  0  0  0  0  0  0
   56.0390   30.2950   42.6980 O   0  0  0  0  0  0  0  0  0  0  0  0
   59.6470   34.5620   47.5890 S   0  0  0  0  0  0  0  0  0  0  0  0
   59.9130   33.8160   49.0730 C   0  0  0  0  0  0  0  0  0  0  0  0
   60.6753   34.1024   49.8125 H   0  0  0  0  0  0  0  0  0  0  0  0
  1  2  1  0
  2  3  1  0
  3  4  1  0
  4  5  2  0
  5  6  1  0
  6  7  2  0
  6  8  1  0
  8  9  1  0
  8 10  1  0
  8 11  1  0
 11 12  1  0
 12 13  1  0
 12 14  2  0
 14 15  1  0
 15 16  2  0
 16 17  1  0
 17 18  1  0
 17 19  1  0
 17 20  1  0
 16 21  1  0
 21 22  1  0
 22 23  1  0
 22 24  2  0
 24 25  1  0
 14 26  1  0
 26 27  1  0
 27 28  2  0
 28 29  1  0
 28 30  1  0
 30 31  1  0
 30 32  2  0
 32 33  1  0
 32 34  1  0
 34 35  1  0
 34 36  2  0
 36 37  1  0
 26 38  2  0
 38 39  1  0
 39 40  2  0
  4 41  1  0
 41 42  1  0
 42 43  1  0
 42  2  2  0
 39 11  1  0
 24 15  1  0
 36 27  1  0
M  CHG  2   3  -1  37  -1
M  END
>  <UniqueID>  (62) 
59

>  <SMILES>  (62) 
Cc1occc1-c1cn(CC(=O)/N=c2/[n-]ccs2)c(=O)nc1-c1ccccc1[O-]

>  <Energy>  (62) 
118.91663913537842

>  <Genealogy>  (62) 
Cc1occc1-c1cn(CC(=O)N=c2[n-]ccs2)c(=O)nc1-c1ccccc1[O-] (protonated)
Cc1occc1-c1cn(CC(=O)/N=c2/[n-]ccs2)c(=O)nc1-c1ccccc1[O-] (cis-trans isomerization)
Cc1occc1-c1cn(CC(=O)/N=c2/[n-]ccs2)c(=O)nc1-c1ccccc1[O-] (3D coordinates assigned)
Cc1occc1-c1cn(CC(=O)/N=c2/[n-]ccs2)c(=O)nc1-c1ccccc1[O-] (optimized conformer: 118.91663913537842 kcal/mol)

>  <smiles>  (62) 
Cc1occc1-c1cn(CC(=O)N=c2[nH]ccs2)c(=O)nc1-c1ccccc1O

>  <score_type>  (62) 
oracle

>  <origin>  (62) 
adg

>  <m_score__min__energy>  (62) 
-12.65

>  <m_primary>  (62) 
energy

$$$$
62:0
     RDKit          3D

 38 40  0  0  0  0  0  0  0  0999 V2000
   56.2630   29.6430   43.9770 C   0  0  0  0  0  0  0  0  0  0  0  0
   56.5440   28.8030   45.2200 C   0  0  0  0  0  0  0  0  0  0  0  0
   57.3950   27.5660   44.9060 C   0  0  0  0  0  0  0  0  0  0  0  0
   57.2140   26.5260   45.9220 N   0  0  0  0  0  0  0  0  0  0  0  0
   58.1470   25.8420   46.6140 C   0  0  0  0  0  0  0  0  0  0  0  0
   59.9220   26.0830   46.4720 S   0  0  0  0  0  0  0  0  0  0  0  0
   60.0510   27.1090   47.9760 C   0  0  0  0  0  0  0  0  0  0  0  0
   59.4610   28.4660   47.7410 C   0  0  0  0  0  0  0  0  0  0  0  0
   58.5190   28.8660   48.4780 O   0  0  0  0  0  0  0  0  0  0  0  0
   59.9480   29.2830   46.6670 N   0  0  0  0  0  0  0  0  0  0  0  0
   59.6700   30.6860   46.5340 C   0  0  0  0  0  0  0  0  0  0  0  0
   60.5320   31.6680   47.0960 C   0  0  0  0  0  0  0  0  0  0  0  0
   60.2580   33.0380   46.9340 C   0  0  0  0  0  0  0  0  0  0  0  0
   59.1320   33.3930   46.1970 C   0  0  0  0  0  0  0  0  0  0  0  0
   58.3160   32.4630   45.6410 C   0  0  0  0  0  0  0  0  0  0  0  0
   58.5500   31.0980   45.7780 C   0  0  0  0  0  0  0  0  0  0  0  0
   57.2910   33.0970   44.9660 O   0  0  0  0  0  0  0  0  0  0  0  0
   57.4740   34.5120   45.1070 C   0  0  0  0  0  0  0  0  0  0  0  0
   58.6620   34.6580   45.8980 O   0  0  0  0  0  0  0  0  0  0  0  0
   57.5870   24.9300   47.4340 N   0  0  0  0  0  0  0  0  0  0  0  0
   56.2730   25.0200   47.2760 N   0  0  0  0  0  0  0  0  0  0  0  0
   56.0660   25.9830   46.3610 C   0  0  0  0  0  0  0  0  0  0  0  0
   54.9220   26.3310   45.9640 O   0  0  0  0  0  0  0  0  0  0  0  0
   55.9276   30.6458   44.2802 H   0  0  0  0  0  0  0  0  0  0  0  0
   57.1812   29.7292   43.3775 H   0  0  0  0  0  0  0  0  0  0  0  0
   55.4777   29.1594   43.3775 H   0  0  0  0  0  0  0  0  0  0  0  0
   57.0795   29.4241   45.9531 H   0  0  0  0  0  0  0  0  0  0  0  0
   55.5787   28.4557   45.6169 H   0  0  0  0  0  0  0  0  0  0  0  0
   57.0976   27.1654   43.9257 H   0  0  0  0  0  0  0  0  0  0  0  0
   58.4537   27.8646   44.8983 H   0  0  0  0  0  0  0  0  0  0  0  0
   59.5094   26.6166   48.7971 H   0  0  0  0  0  0  0  0  0  0  0  0
   61.1135   27.2246   48.2363 H   0  0  0  0  0  0  0  0  0  0  0  0
   60.4900   28.8140   45.9060 H   0  0  0  0  0  0  0  0  0  0  0  0
   61.4209   31.3531   47.6624 H   0  0  0  0  0  0  0  0  0  0  0  0
   60.9124   33.8040   47.3755 H   0  0  0  0  0  0  0  0  0  0  0  0
   57.8813   30.3602   45.3105 H   0  0  0  0  0  0  0  0  0  0  0  0
   57.6051   34.9845   44.1223 H   0  0  0  0  0  0  0  0  0  0  0  0
   56.6044   34.9954   45.5761 H   0  0  0  0  0  0  0  0  0  0  0  0
  1  2  1  0
  2  3  1  0
  3  4  1  0
  4  5  1  0
  5  6  1  0
  6  7  1  0
  7  8  1  0
  8  9  2  0
  8 10  1  0
 10 11  1  0
 11 12  2  0
 12 13  1  0
 13 14  2  0
 14 15  1  0
 15 16  2  0
 15 17  1  0
 17 18  1  0
 18 19  1  0
  5 20  2  0
 20 21  1  0
 21 22  1  0
 22 23  2  0
 22  4  1  0
 16 11  1  0
 19 14  1  0
  1 24  1  0
  1 25  1  0
  1 26  1  0
  2 27  1  0
  2 28  1  0
  3 29  1  0
  3 30  1  0
  7 31  1  0
  7 32  1  0
 10 33  1  0
 12 34  1  0
 13 35  1  0
 16 36  1  0
 18 37  1  0
 18 38  1  0
M  CHG  1  21  -1
M  END
>  <UniqueID>  (63) 
60

>  <SMILES>  (63) 
CCCn1c(SCC(=O)Nc2ccc3c(c2)OCO3)n[n-]c1=O

>  <Energy>  (63) 
96.03165940776007

>  <Genealogy>  (63) 
CCCn1c(SCC(=O)Nc2ccc3c(c2)OCO3)n[n-]c1=O (protonated)
CCCn1c(SCC(=O)Nc2ccc3c(c2)OCO3)n[n-]c1=O (3D coordinates assigned)
CCCn1c(SCC(=O)Nc2ccc3c(c2)OCO3)n[n-]c1=O (nonaromatic ring conformer: 96.03165940776007 kcal/mol)

>  <smiles>  (63) 
CCCn1c(SCC(=O)Nc2ccc3c(c2)OCO3)n[nH]c1=O

>  <score_type>  (63) 
oracle

>  <origin>  (63) 
adg

>  <m_score__min__energy>  (63) 
-9.6500000000000004

>  <m_primary>  (63) 
energy

$$$$
63:0
     RDKit          3D

 37 39  0  0  0  0  0  0  0  0999 V2000
   54.3640   22.2530   46.7210 O   0  0  0  0  0  0  0  0  0  0  0  0
   55.1410   23.1450   46.2900 C   0  0  0  0  0  0  0  0  0  0  0  0
   56.3820   22.7950   45.7520 C   0  0  0  0  0  0  0  0  0  0  0  0
   57.2290   23.7970   45.2800 C   0  0  0  0  0  0  0  0  0  0  0  0
   56.8340   25.1430   45.3410 C   0  0  0  0  0  0  0  0  0  0  0  0
   57.7400   26.2280   44.8100 C   0  0  0  0  0  0  0  0  0  0  0  0
   58.3970   26.9910   45.9380 C   0  0  0  0  0  0  0  0  0  0  0  0
   59.4570   26.3970   46.6470 C   0  0  0  0  0  0  0  0  0  0  0  0
   60.0420   27.0510   47.7330 C   0  0  0  0  0  0  0  0  0  0  0  0
   59.5730   28.3030   48.1330 C   0  0  0  0  0  0  0  0  0  0  0  0
   60.1500   28.9470   49.2190 O   0  0  0  0  0  0  0  0  0  0  0  0
   58.5230   28.9090   47.4390 C   0  0  0  0  0  0  0  0  0  0  0  0
   57.9400   28.2720   46.3350 C   0  0  0  0  0  0  0  0  0  0  0  0
   56.8690   28.9290   45.6460 N   0  0  0  0  0  0  0  0  0  0  0  0
   57.0750   29.8870   44.5930 C   0  0  0  0  0  0  0  0  0  0  0  0
   57.9000   31.0160   44.7720 C   0  0  0  0  0  0  0  0  0  0  0  0
   58.0820   31.9290   43.7290 C   0  0  0  0  0  0  0  0  0  0  0  0
   57.4440   31.7320   42.5010 C   0  0  0  0  0  0  0  0  0  0  0  0
   57.6360   32.6510   41.4710 O   0  0  0  0  0  0  0  0  0  0  0  0
   56.6170   30.6170   42.3180 C   0  0  0  0  0  0  0  0  0  0  0  0
   56.4320   29.7020   43.3590 C   0  0  0  0  0  0  0  0  0  0  0  0
   55.5770   25.4490   45.8980 C   0  0  0  0  0  0  0  0  0  0  0  0
   55.1440   26.7660   45.9940 O   0  0  0  0  0  0  0  0  0  0  0  0
   54.7720   24.4510   46.3510 N   0  0  0  0  0  0  0  0  0  0  0  0
   56.6878   21.7396   45.7013 H   0  0  0  0  0  0  0  0  0  0  0  0
   58.2099   23.5321   44.8585 H   0  0  0  0  0  0  0  0  0  0  0  0
   58.5201   25.7699   44.1843 H   0  0  0  0  0  0  0  0  0  0  0  0
   57.1336   26.9311   44.2202 H   0  0  0  0  0  0  0  0  0  0  0  0
   59.8286   25.4074   46.3427 H   0  0  0  0  0  0  0  0  0  0  0  0
   60.8746   26.5783   48.2746 H   0  0  0  0  0  0  0  0  0  0  0  0
   58.1512   29.8929   47.7612 H   0  0  0  0  0  0  0  0  0  0  0  0
   55.9020   28.7850   46.0150 H   0  0  0  0  0  0  0  0  0  0  0  0
   58.4028   31.1793   45.7366 H   0  0  0  0  0  0  0  0  0  0  0  0
   58.7298   32.8059   43.8753 H   0  0  0  0  0  0  0  0  0  0  0  0
   56.8550   33.1100   41.0170 H   0  0  0  0  0  0  0  0  0  0  0  0
   56.1119   30.4606   41.3534 H   0  0  0  0  0  0  0  0  0  0  0  0
   55.7776   28.8305   43.2098 H   0  0  0  0  0  0  0  0  0  0  0  0
  1  2  2  0
  2  3  1  0
  3  4  2  0
  4  5  1  0
  5  6  1  0
  6  7  1  0
  7  8  2  0
  8  9  1  0
  9 10  2  0
 10 11  1  0
 10 12  1  0
 12 13  2  0
 13 14  1  0
 14 15  1  0
 15 16  2  0
 16 17  1  0
 17 18  2  0
 18 19  1  0
 18 20  1  0
 20 21  2  0
  5 22  2  0
 22 23  1  0
 22 24  1  0
 24  2  1  0
 13  7  1  0
 21 15  1  0
  3 25  1  0
  4 26  1  0
  6 27  1  0
  6 28  1  0
  8 29  1  0
  9 30  1  0
 12 31  1  0
 14 32  1  0
 16 33  1  0
 17 34  1  0
 19 35  1  0
 20 36  1  0
 21 37  1  0
M  CHG  3  11  -1  23  -1  24  -1
M  END
>  <UniqueID>  (64) 
61

>  <SMILES>  (64) 
O=c1ccc(Cc2ccc([O-])cc2Nc2ccc(O)cc2)c([O-])[n-]1

>  <Energy>  (64) 
47.427739964073254

>  <Genealogy>  (64) 
O=c1ccc(Cc2ccc([O-])cc2Nc2ccc(O)cc2)c([O-])[n-]1 (protonated)
O=c1ccc(Cc2ccc([O-])cc2Nc2ccc(O)cc2)c([O-])[n-]1 (3D coordinates assigned)
O=c1ccc(Cc2ccc([O-])cc2Nc2ccc(O)cc2)c([O-])[n-]1 (optimized conformer: 47.427739964073254 kcal/mol)

>  <smiles>  (64) 
O=c1ccc(Cc2ccc(O)cc2Nc2ccc(O)cc2)c(O)[nH]1

>  <score_type>  (64) 
oracle

>  <origin>  (64) 
adg

>  <m_score__min__energy>  (64) 
-14.449999999999999

>  <m_primary>  (64) 
energy

$$$$
64:0
     RDKit          3D

 23 24  0  0  0  0  0  0  0  0999 V2000
   52.6960   28.5110   52.7210 O   0  0  0  0  0  0  0  0  0  0  0  0
   53.0060   29.7300   52.7820 C   0  0  0  0  0  0  0  0  0  0  0  0
   54.1200   30.1180   53.5950 N   0  0  0  0  0  0  0  0  0  0  0  0
   55.4710   30.2940   53.1470 C   0  0  0  0  0  0  0  0  0  0  0  0
   56.4980   29.5920   53.7920 C   0  0  0  0  0  0  0  0  0  0  0  0
   57.8230   29.7280   53.3660 C   0  0  0  0  0  0  0  0  0  0  0  0
   58.1290   30.5550   52.2810 C   0  0  0  0  0  0  0  0  0  0  0  0
   59.4150   30.6830   51.8710 F   0  0  0  0  0  0  0  0  0  0  0  0
   57.1080   31.2410   51.6150 C   0  0  0  0  0  0  0  0  0  0  0  0
   57.4010   32.0320   50.5540 F   0  0  0  0  0  0  0  0  0  0  0  0
   55.7820   31.1070   52.0400 C   0  0  0  0  0  0  0  0  0  0  0  0
   52.1760   30.7200   52.0690 C   0  0  0  0  0  0  0  0  0  0  0  0
   51.2210   31.5430   52.6380 C   0  0  0  0  0  0  0  0  0  0  0  0
   50.6740   32.3550   51.7100 N   0  0  0  0  0  0  0  0  0  0  0  0
   51.2970   32.0420   50.5570 C   0  0  0  0  0  0  0  0  0  0  0  0
   51.0140   32.6700   49.3490 O   0  0  0  0  0  0  0  0  0  0  0  0
   52.2330   31.0450   50.7290 C   0  0  0  0  0  0  0  0  0  0  0  0
   56.2606   28.9303   54.6381 H   0  0  0  0  0  0  0  0  0  0  0  0
   58.6255   29.1836   53.8852 H   0  0  0  0  0  0  0  0  0  0  0  0
   54.9795   31.6385   51.5077 H   0  0  0  0  0  0  0  0  0  0  0  0
   50.9450   31.5363   53.7028 H   0  0  0  0  0  0  0  0  0  0  0  0
   51.6740   32.6400   48.5810 H   0  0  0  0  0  0  0  0  0  0  0  0
   52.8859   30.6028   49.9621 H   0  0  0  0  0  0  0  0  0  0  0  0
  1  2  2  0
  2  3  1  0
  3  4  1  0
  4  5  2  0
  5  6  1  0
  6  7  2  0
  7  8  1  0
  7  9  1  0
  9 10  1  0
  9 11  2  0
  2 12  1  0
 12 13  2  0
 13 14  1  0
 14 15  1  0
 15 16  1  0
 15 17  2  0
 11  4  1  0
 17 12  1  0
  5 18  1  0
  6 19  1  0
 11 20  1  0
 13 21  1  0
 16 22  1  0
 17 23  1  0
M  CHG  2   3  -1  14  -1
M  END
>  <UniqueID>  (65) 
62

>  <SMILES>  (65) 
O=C([N-]c1ccc(F)c(F)c1)c1c[n-]c(O)c1

>  <Energy>  (65) 
53.782322527328716

>  <Genealogy>  (65) 
O=C([N-]c1ccc(F)c(F)c1)c1c[n-]c(O)c1 (protonated)
O=C([N-]c1ccc(F)c(F)c1)c1c[n-]c(O)c1 (3D coordinates assigned)
O=C([N-]c1ccc(F)c(F)c1)c1c[n-]c(O)c1 (optimized conformer: 53.782322527328716 kcal/mol)

>  <smiles>  (65) 
O=C(Nc1ccc(F)c(F)c1)c1c[nH]c(O)c1

>  <score_type>  (65) 
oracle

>  <origin>  (65) 
adg

>  <m_score__min__energy>  (65) 
-9.4299999999999997

>  <m_primary>  (65) 
energy

$$$$
65:0
     RDKit          3D

 56 59  0  0  0  0  0  0  0  0999 V2000
   58.1190   26.4320   44.1660 N   0  0  0  0  0  0  0  0  0  0  0  0
   57.4220   27.6830   44.1100 C   0  0  0  0  0  0  0  0  0  0  0  0
   57.3860   28.3970   42.9020 C   0  0  0  0  0  0  0  0  0  0  0  0
   56.7170   29.6210   42.8240 C   0  0  0  0  0  0  0  0  0  0  0  0
   56.0870   30.1450   43.9530 C   0  0  0  0  0  0  0  0  0  0  0  0
   56.1150   29.4440   45.1610 C   0  0  0  0  0  0  0  0  0  0  0  0
   56.7630   28.1970   45.2480 C   0  0  0  0  0  0  0  0  0  0  0  0
   56.8210   27.4700   46.4860 N   0  0  0  0  0  0  0  0  0  0  0  0
   56.4550   26.1000   46.6900 C   0  0  0  0  0  0  0  0  0  0  0  0
   55.4900   25.5870   46.0620 O   0  0  0  0  0  0  0  0  0  0  0  0
   57.2740   25.2540   47.6080 C   0  0  0  0  0  0  0  0  0  0  0  0
   58.4900   24.8340   46.9230 N   0  0  0  0  0  0  0  0  0  0  0  0
   59.6160   25.6820   46.6600 C   0  0  0  0  0  0  0  0  0  0  0  0
   60.3890   25.3870   45.7100 O   0  0  0  0  0  0  0  0  0  0  0  0
   59.9220   26.8630   47.4920 C   0  0  0  0  0  0  0  0  0  0  0  0
   60.3180   26.7150   48.8300 C   0  0  0  0  0  0  0  0  0  0  0  0
   60.6060   27.8400   49.6060 C   0  0  0  0  0  0  0  0  0  0  0  0
   60.4810   29.1210   49.0620 C   0  0  0  0  0  0  0  0  0  0  0  0
   60.0390   29.2850   47.7370 C   0  0  0  0  0  0  0  0  0  0  0  0
   59.9070   30.5810   47.1330 N   0  0  0  0  0  0  0  0  0  0  0  0
   59.0280   31.6360   47.5510 C   0  0  0  0  0  0  0  0  0  0  0  0
   58.4090   31.5470   48.6450 O   0  0  0  0  0  0  0  0  0  0  0  0
   58.8400   32.8210   46.6770 C   0  0  0  0  0  0  0  0  0  0  0  0
   57.6400   32.9320   45.9490 C   0  0  0  0  0  0  0  0  0  0  0  0
   57.4410   33.9850   45.0540 C   0  0  0  0  0  0  0  0  0  0  0  0
   58.4350   34.9450   44.8710 C   0  0  0  0  0  0  0  0  0  0  0  0
   59.6260   34.8640   45.5940 C   0  0  0  0  0  0  0  0  0  0  0  0
   59.8400   33.8190   46.5100 C   0  0  0  0  0  0  0  0  0  0  0  0
   61.0860   33.8390   47.3110 C   0  0  0  0  0  0  0  0  0  0  0  0
   62.3090   33.4580   46.7320 C   0  0  0  0  0  0  0  0  0  0  0  0
   63.4810   33.4670   47.4940 C   0  0  0  0  0  0  0  0  0  0  0  0
   63.4400   33.8450   48.8390 C   0  0  0  0  0  0  0  0  0  0  0  0
   62.2250   34.2140   49.4250 C   0  0  0  0  0  0  0  0  0  0  0  0
   61.0500   34.2070   48.6660 C   0  0  0  0  0  0  0  0  0  0  0  0
   59.7750   28.1520   46.9560 C   0  0  0  0  0  0  0  0  0  0  0  0
   58.4600   25.9730   43.2920 H   0  0  0  0  0  0  0  0  0  0  0  0
   58.3080   25.9500   45.0730 H   0  0  0  0  0  0  0  0  0  0  0  0
   57.8875   27.9904   42.0114 H   0  0  0  0  0  0  0  0  0  0  0  0
   56.6870   30.1716   41.8722 H   0  0  0  0  0  0  0  0  0  0  0  0
   55.5670   31.1124   43.8919 H   0  0  0  0  0  0  0  0  0  0  0  0
   55.6273   29.8692   46.0506 H   0  0  0  0  0  0  0  0  0  0  0  0
   57.5392   25.8349   48.5037 H   0  0  0  0  0  0  0  0  0  0  0  0
   56.6948   24.3674   47.9055 H   0  0  0  0  0  0  0  0  0  0  0  0
   60.4019   25.7099   49.2691 H   0  0  0  0  0  0  0  0  0  0  0  0
   60.9324   27.7171   50.6492 H   0  0  0  0  0  0  0  0  0  0  0  0
   60.7288   30.0027   49.6712 H   0  0  0  0  0  0  0  0  0  0  0  0
   56.8494   32.1798   46.0871 H   0  0  0  0  0  0  0  0  0  0  0  0
   56.4980   34.0572   44.4922 H   0  0  0  0  0  0  0  0  0  0  0  0
   58.2806   35.7668   44.1563 H   0  0  0  0  0  0  0  0  0  0  0  0
   60.4055   35.6258   45.4457 H   0  0  0  0  0  0  0  0  0  0  0  0
   62.3439   33.1518   45.6760 H   0  0  0  0  0  0  0  0  0  0  0  0
   64.4371   33.1761   47.0343 H   0  0  0  0  0  0  0  0  0  0  0  0
   64.3635   33.8522   49.4366 H   0  0  0  0  0  0  0  0  0  0  0  0
   62.1933   34.5101   50.4839 H   0  0  0  0  0  0  0  0  0  0  0  0
   60.0947   34.4906   49.1319 H   0  0  0  0  0  0  0  0  0  0  0  0
   59.4493   28.2739   45.9124 H   0  0  0  0  0  0  0  0  0  0  0  0
  1  2  1  0
  2  3  2  0
  3  4  1  0
  4  5  2  0
  5  6  1  0
  6  7  2  0
  7  8  1  0
  8  9  1  0
  9 10  2  0
  9 11  1  0
 11 12  1  0
 12 13  1  0
 13 14  2  0
 13 15  1  0
 15 16  2  0
 16 17  1  0
 17 18  2  0
 18 19  1  0
 19 20  1  0
 20 21  1  0
 21 22  2  0
 21 23  1  0
 23 24  2  0
 24 25  1  0
 25 26  2  0
 26 27  1  0
 27 28  2  0
 28 29  1  0
 29 30  2  0
 30 31  1  0
 31 32  2  0
 32 33  1  0
 33 34  2  0
 19 35  2  0
  7  2  1  0
 35 15  1  0
 28 23  1  0
 34 29  1  0
  1 36  1  0
  1 37  1  0
  3 38  1  0
  4 39  1  0
  5 40  1  0
  6 41  1  0
 11 42  1  0
 11 43  1  0
 16 44  1  0
 17 45  1  0
 18 46  1  0
 24 47  1  0
 25 48  1  0
 26 49  1  0
 27 50  1  0
 30 51  1  0
 31 52  1  0
 32 53  1  0
 33 54  1  0
 34 55  1  0
 35 56  1  0
M  CHG  3   8  -1  12  -1  20  -1
M  END
>  <UniqueID>  (66) 
63

>  <SMILES>  (66) 
Nc1ccccc1[N-]C(=O)C[N-]C(=O)c1cccc([N-]C(=O)c2ccccc2-c2ccccc2)c1

>  <Energy>  (66) 
81.5681172100701

>  <Genealogy>  (66) 
Nc1ccccc1[N-]C(=O)C[N-]C(=O)c1cccc([N-]C(=O)c2ccccc2-c2ccccc2)c1 (protonated)
Nc1ccccc1[N-]C(=O)C[N-]C(=O)c1cccc([N-]C(=O)c2ccccc2-c2ccccc2)c1 (3D coordinates assigned)
Nc1ccccc1[N-]C(=O)C[N-]C(=O)c1cccc([N-]C(=O)c2ccccc2-c2ccccc2)c1 (optimized conformer: 81.5681172100701 kcal/mol)

>  <smiles>  (66) 
Nc1ccccc1NC(=O)CNC(=O)c1cccc(NC(=O)c2ccccc2-c2ccccc2)c1

>  <score_type>  (66) 
oracle

>  <origin>  (66) 
adg

>  <m_score__min__energy>  (66) 
-14.16

>  <m_primary>  (66) 
energy

$$$$
66:0
     RDKit          3D

 47 50  0  0  0  0  0  0  0  0999 V2000
   63.7998   34.2266   49.2438 H   0  0  0  0  0  0  0  0  0  0  0  0
   62.8890   34.0750   48.6460 C   0  0  0  0  0  0  0  0  0  0  0  0
   62.9890   33.7400   47.2950 C   0  0  0  0  0  0  0  0  0  0  0  0
   63.9790   33.6315   46.8280 H   0  0  0  0  0  0  0  0  0  0  0  0
   61.8330   33.5420   46.5340 C   0  0  0  0  0  0  0  0  0  0  0  0
   61.9182   33.2736   45.4707 H   0  0  0  0  0  0  0  0  0  0  0  0
   60.5600   33.6840   47.1200 C   0  0  0  0  0  0  0  0  0  0  0  0
   59.3320   33.4670   46.3180 C   0  0  0  0  0  0  0  0  0  0  0  0
   58.6590   32.2680   46.1520 C   0  0  0  0  0  0  0  0  0  0  0  0
   58.9102   31.2837   46.5739 H   0  0  0  0  0  0  0  0  0  0  0  0
   57.5930   32.6010   45.3280 C   0  0  0  0  0  0  0  0  0  0  0  0
   56.6630   31.8110   44.8740 N   0  0  0  0  0  0  0  0  0  0  0  0
   56.7280   30.3910   44.6630 C   0  0  0  0  0  0  0  0  0  0  0  0
   55.7150   29.6560   44.8190 O   0  0  0  0  0  0  0  0  0  0  0  0
   58.0030   29.7950   44.1460 C   0  0  0  0  0  0  0  0  0  0  0  0
   57.9096   29.6335   43.0619 H   0  0  0  0  0  0  0  0  0  0  0  0
   58.8262   30.4907   44.3656 H   0  0  0  0  0  0  0  0  0  0  0  0
   58.3010   28.4780   44.8150 C   0  0  0  0  0  0  0  0  0  0  0  0
   59.3530   28.3700   45.7380 C   0  0  0  0  0  0  0  0  0  0  0  0
   59.9573   29.2550   45.9861 H   0  0  0  0  0  0  0  0  0  0  0  0
   59.6350   27.1440   46.3420 C   0  0  0  0  0  0  0  0  0  0  0  0
   60.4623   27.0658   47.0627 H   0  0  0  0  0  0  0  0  0  0  0  0
   58.8710   26.0160   46.0350 C   0  0  0  0  0  0  0  0  0  0  0  0
   59.0986   25.0543   46.5180 H   0  0  0  0  0  0  0  0  0  0  0  0
   57.8130   26.1010   45.1130 C   0  0  0  0  0  0  0  0  0  0  0  0
   57.0210   24.9370   44.7910 N   0  0  0  0  0  0  0  0  0  0  0  0
   55.6540   24.8230   45.2260 C   0  0  0  0  0  0  0  0  0  0  0  0
   55.1620   25.6500   46.0420 O   0  0  0  0  0  0  0  0  0  0  0  0
   54.7910   23.7310   44.6630 C   0  0  0  0  0  0  0  0  0  0  0  0
   54.3051   24.0949   43.7457 H   0  0  0  0  0  0  0  0  0  0  0  0
   54.0396   23.4573   45.4183 H   0  0  0  0  0  0  0  0  0  0  0  0
   55.5550   22.5810   44.3550 O   0  0  0  0  0  0  0  0  0  0  0  0
   56.5830   22.9140   43.4410 C   0  0  0  0  0  0  0  0  0  0  0  0
   56.1512   23.4692   42.5952 H   0  0  0  0  0  0  0  0  0  0  0  0
   57.0563   21.9886   43.0809 H   0  0  0  0  0  0  0  0  0  0  0  0
   57.6420   23.7820   44.1280 C   0  0  0  0  0  0  0  0  0  0  0  0
   58.3582   24.1411   43.3742 H   0  0  0  0  0  0  0  0  0  0  0  0
   58.1568   23.1748   44.8871 H   0  0  0  0  0  0  0  0  0  0  0  0
   57.5480   27.3360   44.4940 C   0  0  0  0  0  0  0  0  0  0  0  0
   56.7414   27.4086   43.7496 H   0  0  0  0  0  0  0  0  0  0  0  0
   57.6360   33.9090   45.0170 N   0  0  0  0  0  0  0  0  0  0  0  0
   58.6890   34.4290   45.6260 N   0  0  0  0  0  0  0  0  0  0  0  0
   58.9680   35.4310   45.5350 H   0  0  0  0  0  0  0  0  0  0  0  0
   60.4720   34.0250   48.4820 C   0  0  0  0  0  0  0  0  0  0  0  0
   59.4850   34.1406   48.9537 H   0  0  0  0  0  0  0  0  0  0  0  0
   61.6310   34.2180   49.2400 C   0  0  0  0  0  0  0  0  0  0  0  0
   61.5532   34.4826   50.3049 H   0  0  0  0  0  0  0  0  0  0  0  0
  1  2  1  0
  2  3  2  0
  3  4  1  0
  3  5  1  0
  5  6  1  0
  5  7  2  0
  7  8  1  0
  8  9  2  0
  9 10  1  0
  9 11  1  0
 11 12  2  0
 12 13  1  0
 13 14  2  0
 13 15  1  0
 15 16  1  0
 15 17  1  0
 15 18  1  0
 18 19  2  0
 19 20  1  0
 19 21  1  0
 21 22  1  0
 21 23  2  0
 23 24  1  0
 23 25  1  0
 25 26  1  0
 26 27  1  0
 27 28  2  0
 27 29  1  0
 29 30  1  0
 29 31  1  0
 29 32  1  0
 32 33  1  0
 33 34  1  0
 33 35  1  0
 33 36  1  0
 36 37  1  0
 36 38  1  0
 25 39  2  0
 39 40  1  0
 11 41  1  0
 41 42  1  0
 42 43  1  0
  7 44  1  0
 44 45  1  0
 44 46  2  0
 46 47  1  0
 46  2  1  0
 42  8  1  0
 39 18  1  0
 36 26  1  0
M  CHG  1  41  -1
M  END
>  <UniqueID>  (67) 
64

>  <SMILES>  (67) 
O=C(Cc1cccc(N2CCOCC2=O)c1)/N=c1\cc(-c2ccccc2)[nH][n-]1

>  <Energy>  (67) 
94.50233647679997

>  <Genealogy>  (67) 
O=C(Cc1cccc(N2CCOCC2=O)c1)N=c1cc(-c2ccccc2)[nH][n-]1 (protonated)
O=C(Cc1cccc(N2CCOCC2=O)c1)/N=c1\cc(-c2ccccc2)[nH][n-]1 (cis-trans isomerization)
O=C(Cc1cccc(N2CCOCC2=O)c1)/N=c1\cc(-c2ccccc2)[nH][n-]1 (3D coordinates assigned)
O=C(Cc1cccc(N2CCOCC2=O)c1)/N=c1\cc(-c2ccccc2)[nH][n-]1 (nonaromatic ring conformer: 94.50233647679997 kcal/mol)

>  <smiles>  (67) 
O=C(Cc1cccc(N2CCOCC2=O)c1)N=c1cc(-c2ccccc2)[nH][nH]1

>  <score_type>  (67) 
oracle

>  <origin>  (67) 
adg

>  <m_score__min__energy>  (67) 
-11.09

>  <m_primary>  (67) 
energy

$$$$
67:0
     RDKit          3D

 50 53  0  0  0  0  0  0  0  0999 V2000
   50.0600   22.4210   43.9680 C   0  0  0  0  0  0  0  0  0  0  0  0
   51.1330   22.5910   44.9910 C   0  0  0  0  0  0  0  0  0  0  0  0
   51.1690   21.9850   46.2320 C   0  0  0  0  0  0  0  0  0  0  0  0
   52.3630   22.4060   46.7790 C   0  0  0  0  0  0  0  0  0  0  0  0
   52.8380   22.0690   48.1600 C   0  0  0  0  0  0  0  0  0  0  0  0
   53.0050   23.1890   45.8780 N   0  0  0  0  0  0  0  0  0  0  0  0
   54.2700   23.8540   46.0140 C   0  0  0  0  0  0  0  0  0  0  0  0
   55.4630   23.1410   46.1630 C   0  0  0  0  0  0  0  0  0  0  0  0
   56.6670   23.8340   46.2640 C   0  0  0  0  0  0  0  0  0  0  0  0
   56.6670   25.2360   46.1980 C   0  0  0  0  0  0  0  0  0  0  0  0
   57.8900   26.0020   46.3090 N   0  0  0  0  0  0  0  0  0  0  0  0
   58.3190   26.5630   47.5990 C   0  0  0  0  0  0  0  0  0  0  0  0
   59.4440   27.5920   47.4090 C   0  0  0  0  0  0  0  0  0  0  0  0
   59.1920   28.4550   46.2360 N   0  0  0  0  0  0  0  0  0  0  0  0
   58.0210   29.3360   46.4390 C   0  0  0  0  0  0  0  0  0  0  0  0
   57.5400   29.8800   45.1170 C   0  0  0  0  0  0  0  0  0  0  0  0
   58.3150   30.8200   44.4170 C   0  0  0  0  0  0  0  0  0  0  0  0
   57.8680   31.3350   43.1970 C   0  0  0  0  0  0  0  0  0  0  0  0
   56.6460   30.9160   42.6650 C   0  0  0  0  0  0  0  0  0  0  0  0
   55.8670   29.9830   43.3530 C   0  0  0  0  0  0  0  0  0  0  0  0
   56.3090   29.4620   44.5750 C   0  0  0  0  0  0  0  0  0  0  0  0
   55.5190   28.5340   45.2460 O   0  0  0  0  0  0  0  0  0  0  0  0
   59.1130   27.6880   44.9640 C   0  0  0  0  0  0  0  0  0  0  0  0
   58.7670   26.1960   45.1460 C   0  0  0  0  0  0  0  0  0  0  0  0
   55.4760   25.8740   46.0270 N   0  0  0  0  0  0  0  0  0  0  0  0
   54.3230   25.2100   45.9330 N   0  0  0  0  0  0  0  0  0  0  0  0
   52.2550   23.3100   44.7930 N   0  0  0  0  0  0  0  0  0  0  0  0
   49.0941   22.2680   44.4717 H   0  0  0  0  0  0  0  0  0  0  0  0
   50.0069   23.3219   43.3391 H   0  0  0  0  0  0  0  0  0  0  0  0
   50.2880   21.5478   43.3391 H   0  0  0  0  0  0  0  0  0  0  0  0
   50.4174   21.3191   46.6811 H   0  0  0  0  0  0  0  0  0  0  0  0
   52.1748   22.5395   48.9008 H   0  0  0  0  0  0  0  0  0  0  0  0
   52.8242   20.9776   48.2964 H   0  0  0  0  0  0  0  0  0  0  0  0
   53.8636   22.4426   48.2964 H   0  0  0  0  0  0  0  0  0  0  0  0
   55.4511   22.0417   46.2002 H   0  0  0  0  0  0  0  0  0  0  0  0
   57.6118   23.2860   46.3947 H   0  0  0  0  0  0  0  0  0  0  0  0
   57.4605   27.0543   48.0802 H   0  0  0  0  0  0  0  0  0  0  0  0
   58.6981   25.7435   48.2272 H   0  0  0  0  0  0  0  0  0  0  0  0
   59.5095   28.2212   48.3089 H   0  0  0  0  0  0  0  0  0  0  0  0
   60.3861   27.0488   47.2436 H   0  0  0  0  0  0  0  0  0  0  0  0
   57.2111   28.7602   46.9108 H   0  0  0  0  0  0  0  0  0  0  0  0
   58.3130   30.1758   47.0867 H   0  0  0  0  0  0  0  0  0  0  0  0
   59.2783   31.1522   44.8312 H   0  0  0  0  0  0  0  0  0  0  0  0
   58.4793   32.0714   42.6548 H   0  0  0  0  0  0  0  0  0  0  0  0
   56.2972   31.3212   41.7037 H   0  0  0  0  0  0  0  0  0  0  0  0
   54.9038   29.6567   42.9337 H   0  0  0  0  0  0  0  0  0  0  0  0
   58.3387   28.1471   44.3318 H   0  0  0  0  0  0  0  0  0  0  0  0
   60.1135   27.7272   44.5085 H   0  0  0  0  0  0  0  0  0  0  0  0
   58.2547   25.8318   44.2432 H   0  0  0  0  0  0  0  0  0  0  0  0
   59.6991   25.6353   45.3097 H   0  0  0  0  0  0  0  0  0  0  0  0
  1  2  1  0
  2  3  1  0
  3  4  2  0
  4  5  1  0
  4  6  1  0
  6  7  1  0
  7  8  2  0
  8  9  1  0
  9 10  2  0
 10 11  1  0
 11 12  1  0
 12 13  1  0
 13 14  1  0
 14 15  1  0
 15 16  1  0
 16 17  2  0
 17 18  1  0
 18 19  2  0
 19 20  1  0
 20 21  2  0
 21 22  1  0
 14 23  1  0
 23 24  1  0
 10 25  1  0
 25 26  2  0
  6 27  1  0
 27  2  2  0
 26  7  1  0
 24 11  1  0
 21 16  1  0
  1 28  1  0
  1 29  1  0
  1 30  1  0
  3 31  1  0
  5 32  1  0
  5 33  1  0
  5 34  1  0
  8 35  1  0
  9 36  1  0
 12 37  1  0
 12 38  1  0
 13 39  1  0
 13 40  1  0
 15 41  1  0
 15 42  1  0
 17 43  1  0
 18 44  1  0
 19 45  1  0
 20 46  1  0
 23 47  1  0
 23 48  1  0
 24 49  1  0
 24 50  1  0
M  CHG  1  22  -1
M  END
>  <UniqueID>  (68) 
65

>  <SMILES>  (68) 
Cc1cc(C)n(-c2ccc(N3CCN(Cc4ccccc4[O-])CC3)nn2)n1

>  <Energy>  (68) 
97.68896451920077

>  <Genealogy>  (68) 
Cc1cc(C)n(-c2ccc(N3CCN(Cc4ccccc4[O-])CC3)nn2)n1 (protonated)
Cc1cc(C)n(-c2ccc(N3CCN(Cc4ccccc4[O-])CC3)nn2)n1 (3D coordinates assigned)
Cc1cc(C)n(-c2ccc(N3CCN(Cc4ccccc4[O-])CC3)nn2)n1 (nonaromatic ring conformer: 97.68896451920077 kcal/mol)

>  <smiles>  (68) 
Cc1cc(C)n(-c2ccc(N3CCN(Cc4ccccc4O)CC3)nn2)n1

>  <score_type>  (68) 
oracle

>  <origin>  (68) 
adg

>  <m_score__min__energy>  (68) 
-11.890000000000001

>  <m_primary>  (68) 
energy

$$$$
68:0
     RDKit          3D

 48 50  0  0  0  0  0  0  0  0999 V2000
   55.3680   28.9900   44.8500 N   0  0  0  0  0  0  0  0  0  0  0  0
   56.4900   29.7090   44.3390 C   0  0  0  0  0  0  0  0  0  0  0  0
   56.3320   30.4630   43.3410 O   0  0  0  0  0  0  0  0  0  0  0  0
   57.8230   29.5740   44.9710 C   0  0  0  0  0  0  0  0  0  0  0  0
   58.6680   28.5010   44.6340 C   0  0  0  0  0  0  0  0  0  0  0  0
   59.9260   28.3770   45.2300 C   0  0  0  0  0  0  0  0  0  0  0  0
   60.3560   29.3180   46.1660 C   0  0  0  0  0  0  0  0  0  0  0  0
   59.5290   30.3940   46.5180 C   0  0  0  0  0  0  0  0  0  0  0  0
   60.0040   31.4100   47.5230 C   0  0  0  0  0  0  0  0  0  0  0  0
   59.9520   30.8490   48.8890 N   0  0  0  0  0  0  0  0  0  0  0  0
   58.7400   30.0160   49.0600 C   0  0  0  0  0  0  0  0  0  0  0  0
   58.4270   29.7860   50.5440 C   0  0  0  0  0  0  0  0  0  0  0  0
   58.1800   31.0560   51.2770 N   0  0  0  0  0  0  0  0  0  0  0  0
   56.7440   31.2750   51.5440 C   0  0  0  0  0  0  0  0  0  0  0  0
   56.1700   30.1110   52.2910 C   0  0  0  0  0  0  0  0  0  0  0  0
   56.8720   29.5200   53.1550 O   0  0  0  0  0  0  0  0  0  0  0  0
   54.8150   29.7130   52.0480 N   0  0  0  0  0  0  0  0  0  0  0  0
   53.6600   30.5630   52.0710 C   0  0  0  0  0  0  0  0  0  0  0  0
   53.2340   31.1510   50.8730 C   0  0  0  0  0  0  0  0  0  0  0  0
   52.0990   31.9690   50.8490 C   0  0  0  0  0  0  0  0  0  0  0  0
   51.3730   32.1920   52.0220 C   0  0  0  0  0  0  0  0  0  0  0  0
   50.2450   33.0030   51.9980 O   0  0  0  0  0  0  0  0  0  0  0  0
   51.7770   31.5920   53.2180 C   0  0  0  0  0  0  0  0  0  0  0  0
   52.9120   30.7740   53.2450 C   0  0  0  0  0  0  0  0  0  0  0  0
   58.7660   32.2420   50.6110 C   0  0  0  0  0  0  0  0  0  0  0  0
   60.0990   31.8980   49.9320 C   0  0  0  0  0  0  0  0  0  0  0  0
   58.2630   30.5180   45.9180 C   0  0  0  0  0  0  0  0  0  0  0  0
   54.4520   29.4660   45.0080 H   0  0  0  0  0  0  0  0  0  0  0  0
   58.3365   27.7549   43.8968 H   0  0  0  0  0  0  0  0  0  0  0  0
   60.5795   27.5344   44.9601 H   0  0  0  0  0  0  0  0  0  0  0  0
   61.3481   29.2153   46.6298 H   0  0  0  0  0  0  0  0  0  0  0  0
   61.0401   31.6951   47.2878 H   0  0  0  0  0  0  0  0  0  0  0  0
   59.3483   32.2919   47.4750 H   0  0  0  0  0  0  0  0  0  0  0  0
   57.8862   30.5244   48.5883 H   0  0  0  0  0  0  0  0  0  0  0  0
   58.9205   29.0391   48.5876 H   0  0  0  0  0  0  0  0  0  0  0  0
   57.5302   29.1537   50.6216 H   0  0  0  0  0  0  0  0  0  0  0  0
   59.3035   29.3020   50.9995 H   0  0  0  0  0  0  0  0  0  0  0  0
   56.6220   32.1878   52.1455 H   0  0  0  0  0  0  0  0  0  0  0  0
   56.2144   31.3811   50.5858 H   0  0  0  0  0  0  0  0  0  0  0  0
   53.7955   30.9684   49.9449 H   0  0  0  0  0  0  0  0  0  0  0  0
   51.7781   32.4367   49.9065 H   0  0  0  0  0  0  0  0  0  0  0  0
   51.2016   31.7632   54.1398 H   0  0  0  0  0  0  0  0  0  0  0  0
   53.2206   30.2947   54.1857 H   0  0  0  0  0  0  0  0  0  0  0  0
   58.0614   32.6110   49.8511 H   0  0  0  0  0  0  0  0  0  0  0  0
   58.9533   33.0118   51.3741 H   0  0  0  0  0  0  0  0  0  0  0  0
   60.5012   32.8080   49.4629 H   0  0  0  0  0  0  0  0  0  0  0  0
   60.7774   31.5081   50.7052 H   0  0  0  0  0  0  0  0  0  0  0  0
   57.6106   31.3605   46.1913 H   0  0  0  0  0  0  0  0  0  0  0  0
  1  2  1  0
  2  3  2  0
  2  4  1  0
  4  5  2  0
  5  6  1  0
  6  7  2  0
  7  8  1  0
  8  9  1  0
  9 10  1  0
 10 11  1  0
 11 12  1  0
 12 13  1  0
 13 14  1  0
 14 15  1  0
 15 16  2  0
 15 17  1  0
 17 18  1  0
 18 19  2  0
 19 20  1  0
 20 21  2  0
 21 22  1  0
 21 23  1  0
 23 24  2  0
 13 25  1  0
 25 26  1  0
  8 27  2  0
 27  4  1  0
 26 10  1  0
 24 18  1  0
  1 28  1  0
  5 29  1  0
  6 30  1  0
  7 31  1  0
  9 32  1  0
  9 33  1  0
 11 34  1  0
 11 35  1  0
 12 36  1  0
 12 37  1  0
 14 38  1  0
 14 39  1  0
 19 40  1  0
 20 41  1  0
 23 42  1  0
 24 43  1  0
 25 44  1  0
 25 45  1  0
 26 46  1  0
 26 47  1  0
 27 48  1  0
M  CHG  3   1  -1  17  -1  22  -1
M  END
>  <UniqueID>  (69) 
66

>  <SMILES>  (69) 
[NH-]C(=O)c1cccc(CN2CCN(CC(=O)[N-]c3ccc([O-])cc3)CC2)c1

>  <Energy>  (69) 
64.94520933478373

>  <Genealogy>  (69) 
[NH-]C(=O)c1cccc(CN2CCN(CC(=O)[N-]c3ccc([O-])cc3)CC2)c1 (protonated)
[NH-]C(=O)c1cccc(CN2CCN(CC(=O)[N-]c3ccc([O-])cc3)CC2)c1 (3D coordinates assigned)
[NH-]C(=O)c1cccc(CN2CCN(CC(=O)[N-]c3ccc([O-])cc3)CC2)c1 (nonaromatic ring conformer: 64.94520933478373 kcal/mol)

>  <smiles>  (69) 
NC(=O)c1cccc(CN2CCN(CC(=O)Nc3ccc(O)cc3)CC2)c1

>  <score_type>  (69) 
oracle

>  <origin>  (69) 
adg

>  <m_score__min__energy>  (69) 
-16.079999999999998

>  <m_primary>  (69) 
energy

$$$$
69:0
     RDKit          3D

 52 54  0  0  0  0  0  0  0  0999 V2000
   59.8840   30.7660   51.2100 O   0  0  0  0  0  0  0  0  0  0  0  0
   59.9010   30.7470   49.9870 C   0  0  0  0  0  0  0  0  0  0  0  0
   58.9090   29.8680   49.2730 C   0  0  0  0  0  0  0  0  0  0  0  0
   59.3460   29.5830   47.9070 N   0  0  0  0  0  0  0  0  0  0  0  0
   59.1800   30.9870   46.8890 S   0  0  0  0  0  0  0  0  0  0  0  0
   58.4920   32.0760   47.6700 O   0  0  0  0  0  0  0  0  0  0  0  0
   60.5240   31.4840   46.4340 O   0  0  0  0  0  0  0  0  0  0  0  0
   58.2180   30.5650   45.4660 C   0  0  0  0  0  0  0  0  0  0  0  0
   57.8790   29.2220   45.2310 C   0  0  0  0  0  0  0  0  0  0  0  0
   57.1000   28.8690   44.1250 C   0  0  0  0  0  0  0  0  0  0  0  0
   56.6500   29.8540   43.2440 C   0  0  0  0  0  0  0  0  0  0  0  0
   56.9820   31.1940   43.4670 C   0  0  0  0  0  0  0  0  0  0  0  0
   57.7600   31.5590   44.5720 C   0  0  0  0  0  0  0  0  0  0  0  0
   58.1510   33.4230   44.8190 Br  0  0  0  0  0  0  0  0  0  0  0  0
   60.8630   31.5430   49.2370 N   0  0  1  0  0  0  0  0  0  0  0  0
   60.8210   32.9920   49.5580 C   0  0  0  0  0  0  0  0  0  0  0  0
   61.5270   33.9090   48.5360 C   0  0  0  0  0  0  0  0  0  0  0  0
   63.0040   34.1600   48.8960 C   0  0  0  0  0  0  0  0  0  0  0  0
   63.8170   32.9260   49.0430 N   0  0  0  0  0  0  0  0  0  0  0  0
   64.1410   32.6630   50.4640 C   0  0  0  0  0  0  0  0  0  0  0  0
   65.4990   33.2170   50.8250 C   0  0  0  0  0  0  0  0  0  0  0  0
   66.6580   32.7050   50.2140 C   0  0  0  0  0  0  0  0  0  0  0  0
   67.9140   33.2360   50.5250 C   0  0  0  0  0  0  0  0  0  0  0  0
   68.0240   34.2850   51.4420 C   0  0  0  0  0  0  0  0  0  0  0  0
   66.8770   34.8040   52.0510 C   0  0  0  0  0  0  0  0  0  0  0  0
   65.6170   34.2750   51.7450 C   0  0  0  0  0  0  0  0  0  0  0  0
   64.5150   34.7980   52.3370 F   0  0  0  0  0  0  0  0  0  0  0  0
   63.2510   31.7200   48.3900 C   0  0  0  0  0  0  0  0  0  0  0  0
   62.2290   30.9640   49.2680 C   0  0  0  0  0  0  0  0  0  0  0  0
   58.8075   28.9207   49.8228 H   0  0  0  0  0  0  0  0  0  0  0  0
   57.9442   30.3945   49.2286 H   0  0  0  0  0  0  0  0  0  0  0  0
   58.2293   28.4418   45.9228 H   0  0  0  0  0  0  0  0  0  0  0  0
   56.8415   27.8144   43.9489 H   0  0  0  0  0  0  0  0  0  0  0  0
   56.0349   29.5764   42.3753 H   0  0  0  0  0  0  0  0  0  0  0  0
   56.6291   31.9672   42.7687 H   0  0  0  0  0  0  0  0  0  0  0  0
   60.5520   31.4810   48.2380 H   0  0  0  0  0  0  0  0  0  0  0  0
   59.7660   33.2974   49.6183 H   0  0  0  0  0  0  0  0  0  0  0  0
   61.3662   33.1121   50.5058 H   0  0  0  0  0  0  0  0  0  0  0  0
   61.4805   33.4349   47.5445 H   0  0  0  0  0  0  0  0  0  0  0  0
   61.0100   34.8799   48.5425 H   0  0  0  0  0  0  0  0  0  0  0  0
   63.4522   34.7749   48.1016 H   0  0  0  0  0  0  0  0  0  0  0  0
   63.0082   34.6578   49.8769 H   0  0  0  0  0  0  0  0  0  0  0  0
   63.3791   33.1376   51.0997 H   0  0  0  0  0  0  0  0  0  0  0  0
   64.1548   31.5746   50.6230 H   0  0  0  0  0  0  0  0  0  0  0  0
   66.5761   31.8828   49.4879 H   0  0  0  0  0  0  0  0  0  0  0  0
   68.8166   32.8274   50.0472 H   0  0  0  0  0  0  0  0  0  0  0  0
   69.0124   34.7023   51.6846 H   0  0  0  0  0  0  0  0  0  0  0  0
   66.9648   35.6299   52.7722 H   0  0  0  0  0  0  0  0  0  0  0  0
   62.7496   32.0302   47.4614 H   0  0  0  0  0  0  0  0  0  0  0  0
   64.0880   31.0312   48.2032 H   0  0  0  0  0  0  0  0  0  0  0  0
   62.1720   29.9238   48.9150 H   0  0  0  0  0  0  0  0  0  0  0  0
   62.5836   31.0395   50.3065 H   0  0  0  0  0  0  0  0  0  0  0  0
  1  2  2  0
  2  3  1  0
  3  4  1  0
  4  5  1  0
  5  6  2  0
  5  7  2  0
  5  8  1  0
  8  9  2  0
  9 10  1  0
 10 11  2  0
 11 12  1  0
 12 13  2  0
 13 14  1  0
  2 15  1  0
 15 16  1  0
 16 17  1  0
 17 18  1  0
 18 19  1  0
 19 20  1  0
 20 21  1  0
 21 22  2  0
 22 23  1  0
 23 24  2  0
 24 25  1  0
 25 26  2  0
 26 27  1  0
 19 28  1  0
 28 29  1  0
 13  8  1  0
 29 15  1  0
 26 21  1  0
  3 30  1  0
  3 31  1  0
  9 32  1  0
 10 33  1  0
 11 34  1  0
 12 35  1  0
 15 36  1  6
 16 37  1  0
 16 38  1  0
 17 39  1  0
 17 40  1  0
 18 41  1  0
 18 42  1  0
 20 43  1  0
 20 44  1  0
 22 45  1  0
 23 46  1  0
 24 47  1  0
 25 48  1  0
 28 49  1  0
 28 50  1  0
 29 51  1  0
 29 52  1  0
M  CHG  2   4  -1  15   1
M  END
>  <UniqueID>  (70) 
67

>  <SMILES>  (70) 
O=C(C[N-]S(=O)(=O)c1ccccc1Br)[N@H+]1CCCN(Cc2ccccc2F)CC1

>  <Energy>  (70) 
73.46423248251104

>  <Genealogy>  (70) 
O=C(C[N-]S(=O)(=O)c1ccccc1Br)[NH+]1CCCN(Cc2ccccc2F)CC1 (protonated)
O=C(C[N-]S(=O)(=O)c1ccccc1Br)[N@H+]1CCCN(Cc2ccccc2F)CC1 (chirality)
O=C(C[N-]S(=O)(=O)c1ccccc1Br)[N@H+]1CCCN(Cc2ccccc2F)CC1 (3D coordinates assigned)
O=C(C[N-]S(=O)(=O)c1ccccc1Br)[N@H+]1CCCN(Cc2ccccc2F)CC1 (nonaromatic ring conformer: 73.46423248251104 kcal/mol)

>  <smiles>  (70) 
O=C(CNS(=O)(=O)c1ccccc1Br)N1CCCN(Cc2ccccc2F)CC1

>  <score_type>  (70) 
oracle

>  <origin>  (70) 
adg

>  <m_score__min__energy>  (70) 
-6.9199999999999999

>  <m_primary>  (70) 
energy

$$$$
70:0
     RDKit          3D

 51 53  0  0  0  0  0  0  0  0999 V2000
   62.7720   33.3530   46.7670 C   0  0  0  0  0  0  0  0  0  0  0  0
   61.5120   32.3530   47.5330 S   0  0  0  0  0  0  0  0  0  0  0  0
   62.1600   31.4380   48.5350 O   0  0  0  0  0  0  0  0  0  0  0  0
   60.8570   31.5300   46.4590 O   0  0  0  0  0  0  0  0  0  0  0  0
   60.3060   33.3270   48.3330 N   0  0  0  0  0  0  0  0  0  0  0  0
   59.8920   34.5790   47.6930 C   0  0  0  0  0  0  0  0  0  0  0  0
   59.1120   34.2910   46.4470 C   0  0  0  0  0  0  0  0  0  0  0  0
   58.9490   35.2030   45.5920 O   0  0  0  0  0  0  0  0  0  0  0  0
   58.6030   32.9720   46.2100 N   0  0  0  0  0  0  0  0  0  0  0  0
   57.8110   32.6260   45.0320 C   0  0  0  0  0  0  0  0  0  0  0  0
   57.8920   31.1490   44.7820 C   0  0  0  0  0  0  0  0  0  0  0  0
   56.7310   30.4190   44.4800 C   0  0  0  0  0  0  0  0  0  0  0  0
   56.8100   29.0470   44.2170 C   0  0  0  0  0  0  0  0  0  0  0  0
   58.0490   28.3980   44.2430 C   0  0  0  0  0  0  0  0  0  0  0  0
   58.1460   26.6780   43.9120 Cl  0  0  0  0  0  0  0  0  0  0  0  0
   59.2120   29.1240   44.5260 C   0  0  0  0  0  0  0  0  0  0  0  0
   59.1350   30.4950   44.7880 C   0  0  0  0  0  0  0  0  0  0  0  0
   59.4990   32.7650   49.3860 C   0  0  0  0  0  0  0  0  0  0  0  0
   59.3970   33.4380   50.6160 C   0  0  0  0  0  0  0  0  0  0  0  0
   58.7000   32.8680   51.6830 C   0  0  0  0  0  0  0  0  0  0  0  0
   58.1160   31.6100   51.5430 C   0  0  0  0  0  0  0  0  0  0  0  0
   58.2220   30.9200   50.3340 C   0  0  0  0  0  0  0  0  0  0  0  0
   58.8910   31.4910   49.2460 C   0  0  0  0  0  0  0  0  0  0  0  0
   58.9690   30.7520   48.0570 O   0  0  0  0  0  0  0  0  0  0  0  0
   59.2100   29.3740   47.9920 C   0  0  0  0  0  0  0  0  0  0  0  0
   60.4420   28.8800   48.4390 C   0  0  0  0  0  0  0  0  0  0  0  0
   60.7200   27.5110   48.3710 C   0  0  0  0  0  0  0  0  0  0  0  0
   59.7580   26.6260   47.8710 C   0  0  0  0  0  0  0  0  0  0  0  0
   58.5160   27.1090   47.4510 C   0  0  0  0  0  0  0  0  0  0  0  0
   58.2380   28.4780   47.5170 C   0  0  0  0  0  0  0  0  0  0  0  0
   63.3806   33.8360   47.5457 H   0  0  0  0  0  0  0  0  0  0  0  0
   63.4150   32.7167   46.1412 H   0  0  0  0  0  0  0  0  0  0  0  0
   62.2983   34.1237   46.1412 H   0  0  0  0  0  0  0  0  0  0  0  0
   59.2638   35.1528   48.3902 H   0  0  0  0  0  0  0  0  0  0  0  0
   60.7880   35.1599   47.4288 H   0  0  0  0  0  0  0  0  0  0  0  0
   58.7250   32.2430   46.9480 H   0  0  0  0  0  0  0  0  0  0  0  0
   56.7620   32.9110   45.2005 H   0  0  0  0  0  0  0  0  0  0  0  0
   58.2053   33.1648   44.1578 H   0  0  0  0  0  0  0  0  0  0  0  0
   55.7561   30.9276   44.4501 H   0  0  0  0  0  0  0  0  0  0  0  0
   55.8966   28.4779   43.9895 H   0  0  0  0  0  0  0  0  0  0  0  0
   60.1872   28.6153   44.5422 H   0  0  0  0  0  0  0  0  0  0  0  0
   60.0521   31.0642   44.9998 H   0  0  0  0  0  0  0  0  0  0  0  0
   59.8708   34.4231   50.7389 H   0  0  0  0  0  0  0  0  0  0  0  0
   58.6116   33.4120   52.6349 H   0  0  0  0  0  0  0  0  0  0  0  0
   57.5710   31.1604   52.3861 H   0  0  0  0  0  0  0  0  0  0  0  0
   57.7759   29.9193   50.2360 H   0  0  0  0  0  0  0  0  0  0  0  0
   61.1944   29.5719   48.8454 H   0  0  0  0  0  0  0  0  0  0  0  0
   61.6945   27.1300   48.7104 H   0  0  0  0  0  0  0  0  0  0  0  0
   59.9796   25.5504   47.8087 H   0  0  0  0  0  0  0  0  0  0  0  0
   57.7562   26.4118   47.0681 H   0  0  0  0  0  0  0  0  0  0  0  0
   57.2554   28.8542   47.1960 H   0  0  0  0  0  0  0  0  0  0  0  0
  1  2  1  0
  2  3  2  0
  2  4  2  0
  2  5  1  0
  5  6  1  0
  6  7  1  0
  7  8  2  0
  7  9  1  0
  9 10  1  0
 10 11  1  0
 11 12  2  0
 12 13  1  0
 13 14  2  0
 14 15  1  0
 14 16  1  0
 16 17  2  0
  5 18  1  0
 18 19  2  0
 19 20  1  0
 20 21  2  0
 21 22  1  0
 22 23  2  0
 23 24  1  0
 24 25  1  0
 25 26  2  0
 26 27  1  0
 27 28  2  0
 28 29  1  0
 29 30  2  0
 17 11  1  0
 23 18  1  0
 30 25  1  0
  1 31  1  0
  1 32  1  0
  1 33  1  0
  6 34  1  0
  6 35  1  0
  9 36  1  0
 10 37  1  0
 10 38  1  0
 12 39  1  0
 13 40  1  0
 16 41  1  0
 17 42  1  0
 19 43  1  0
 20 44  1  0
 21 45  1  0
 22 46  1  0
 26 47  1  0
 27 48  1  0
 28 49  1  0
 29 50  1  0
 30 51  1  0
M  END
>  <UniqueID>  (71) 
68

>  <SMILES>  (71) 
CS(=O)(=O)N(CC(=O)NCc1ccc(Cl)cc1)c1ccccc1Oc1ccccc1

>  <Energy>  (71) 
56.63717016622456

>  <Genealogy>  (71) 
CS(=O)(=O)N(CC(=O)NCc1ccc(Cl)cc1)c1ccccc1Oc1ccccc1 (3D coordinates assigned)
CS(=O)(=O)N(CC(=O)NCc1ccc(Cl)cc1)c1ccccc1Oc1ccccc1 (optimized conformer: 56.63717016622456 kcal/mol)

>  <smiles>  (71) 
CS(=O)(=O)N(CC(=O)NCc1ccc(Cl)cc1)c1ccccc1Oc1ccccc1

>  <score_type>  (71) 
oracle

>  <origin>  (71) 
adg

>  <m_score__min__energy>  (71) 
-8.9399999999999995

>  <m_primary>  (71) 
energy

$$$$
71:0
     RDKit          3D

 52 56  0  0  0  0  0  0  0  0999 V2000
   56.9080   28.6250   43.8590 N   0  0  0  0  0  0  0  0  0  0  0  0
   56.9710   29.7640   44.7150 C   0  0  0  0  0  0  0  0  0  0  0  0
   56.3460   30.8110   44.3950 O   0  0  0  0  0  0  0  0  0  0  0  0
   57.7380   29.7480   45.9750 C   0  0  0  0  0  0  0  0  0  0  0  0
   58.1100   30.9110   46.5760 N   0  0  0  0  0  0  0  0  0  0  0  0
   58.8290   30.7160   47.7120 C   0  0  0  0  0  0  0  0  0  0  0  0
   59.2820   31.8210   48.6040 C   0  0  0  0  0  0  0  0  0  0  0  0
   60.2730   32.7180   48.1550 C   0  0  0  0  0  0  0  0  0  0  0  0
   60.7710   33.7190   48.9920 C   0  0  0  0  0  0  0  0  0  0  0  0
   60.3010   33.8430   50.2980 C   0  0  0  0  0  0  0  0  0  0  0  0
   59.3070   32.9720   50.7760 C   0  0  0  0  0  0  0  0  0  0  0  0
   58.8070   33.0730   52.0910 C   0  0  0  0  0  0  0  0  0  0  0  0
   59.2540   33.9450   52.8870 O   0  0  0  0  0  0  0  0  0  0  0  0
   57.7990   32.2080   52.5220 C   0  0  0  0  0  0  0  0  0  0  0  0
   57.2800   31.2540   51.6400 C   0  0  0  0  0  0  0  0  0  0  0  0
   56.1850   30.4100   52.0270 N   0  0  0  0  0  0  0  0  0  0  0  0
   54.8340   30.8270   51.6280 C   0  0  0  0  0  0  0  0  0  0  0  0
   53.7490   29.8490   52.0950 C   0  0  0  0  0  0  0  0  0  0  0  0
   54.0860   29.2790   53.3410 O   0  0  0  0  0  0  0  0  0  0  0  0
   55.1840   28.4120   53.1540 C   0  0  0  0  0  0  0  0  0  0  0  0
   56.4600   29.2040   52.8260 C   0  0  0  0  0  0  0  0  0  0  0  0
   57.7800   31.1660   50.3780 N   0  0  0  0  0  0  0  0  0  0  0  0
   58.7800   31.9690   49.9210 C   0  0  0  0  0  0  0  0  0  0  0  0
   59.0540   29.0720   48.0000 S   0  0  0  0  0  0  0  0  0  0  0  0
   58.2020   28.6040   46.6280 C   0  0  0  0  0  0  0  0  0  0  0  0
   57.9180   27.2530   46.2560 N   0  0  0  0  0  0  0  0  0  0  0  0
   56.5960   26.7050   46.1580 C   0  0  0  0  0  0  0  0  0  0  0  0
   55.6650   27.3850   45.6390 O   0  0  0  0  0  0  0  0  0  0  0  0
   56.3050   25.3530   46.6660 C   0  0  0  0  0  0  0  0  0  0  0  0
   57.1940   24.6970   47.5380 C   0  0  0  0  0  0  0  0  0  0  0  0
   56.9050   23.3990   47.9600 C   0  0  0  0  0  0  0  0  0  0  0  0
   55.7290   22.7740   47.5320 C   0  0  0  0  0  0  0  0  0  0  0  0
   54.8660   23.4550   46.6720 C   0  0  0  0  0  0  0  0  0  0  0  0
   55.1750   24.7120   46.2570 N   0  0  0  0  0  0  0  0  0  0  0  0
   57.2280   27.6840   44.1810 H   0  0  0  0  0  0  0  0  0  0  0  0
   56.5830   28.7420   42.8680 H   0  0  0  0  0  0  0  0  0  0  0  0
   60.6600   32.6279   47.1293 H   0  0  0  0  0  0  0  0  0  0  0  0
   61.5382   34.4131   48.6184 H   0  0  0  0  0  0  0  0  0  0  0  0
   60.7089   34.6243   50.9562 H   0  0  0  0  0  0  0  0  0  0  0  0
   57.4147   32.2764   53.5504 H   0  0  0  0  0  0  0  0  0  0  0  0
   54.6278   31.8155   52.0644 H   0  0  0  0  0  0  0  0  0  0  0  0
   54.8061   30.8530   50.5287 H   0  0  0  0  0  0  0  0  0  0  0  0
   52.7955   30.3888   52.1922 H   0  0  0  0  0  0  0  0  0  0  0  0
   53.6605   29.0423   51.3524 H   0  0  0  0  0  0  0  0  0  0  0  0
   55.3465   27.8331   54.0751 H   0  0  0  0  0  0  0  0  0  0  0  0
   54.9615   27.7404   52.3117 H   0  0  0  0  0  0  0  0  0  0  0  0
   56.9393   29.5070   53.7686 H   0  0  0  0  0  0  0  0  0  0  0  0
   57.1153   28.5509   52.2310 H   0  0  0  0  0  0  0  0  0  0  0  0
   58.1077   25.2028   47.8834 H   0  0  0  0  0  0  0  0  0  0  0  0
   57.6000   22.8685   48.6275 H   0  0  0  0  0  0  0  0  0  0  0  0
   55.4867   21.7556   47.8700 H   0  0  0  0  0  0  0  0  0  0  0  0
   53.9370   22.9751   46.3305 H   0  0  0  0  0  0  0  0  0  0  0  0
  1  2  1  0
  2  3  2  0
  2  4  1  0
  4  5  1  0
  5  6  2  0
  6  7  1  0
  7  8  2  0
  8  9  1  0
  9 10  2  0
 10 11  1  0
 11 12  1  0
 12 13  2  0
 12 14  1  0
 14 15  2  0
 15 16  1  0
 16 17  1  0
 17 18  1  0
 18 19  1  0
 19 20  1  0
 20 21  1  0
 15 22  1  0
 22 23  1  0
  6 24  1  0
 24 25  1  0
 25 26  1  0
 26 27  1  0
 27 28  2  0
 27 29  1  0
 29 30  2  0
 30 31  1  0
 31 32  2  0
 32 33  1  0
 33 34  2  0
 25  4  2  0
 34 29  1  0
 23  7  1  0
 23 11  2  0
 21 16  1  0
  1 35  1  0
  1 36  1  0
  8 37  1  0
  9 38  1  0
 10 39  1  0
 14 40  1  0
 17 41  1  0
 17 42  1  0
 18 43  1  0
 18 44  1  0
 20 45  1  0
 20 46  1  0
 21 47  1  0
 21 48  1  0
 30 49  1  0
 31 50  1  0
 32 51  1  0
 33 52  1  0
M  CHG  2  22  -1  26  -1
M  END
>  <UniqueID>  (72) 
69

>  <SMILES>  (72) 
NC(=O)c1nc(-c2cccc3c(=O)cc(N4CCOCC4)[n-]c23)sc1[N-]C(=O)c1ccccn1

>  <Energy>  (72) 
108.33540388496469

>  <Genealogy>  (72) 
NC(=O)c1nc(-c2cccc3c(=O)cc(N4CCOCC4)[n-]c23)sc1[N-]C(=O)c1ccccn1 (protonated)
NC(=O)c1nc(-c2cccc3c(=O)cc(N4CCOCC4)[n-]c23)sc1[N-]C(=O)c1ccccn1 (3D coordinates assigned)
NC(=O)c1nc(-c2cccc3c(=O)cc(N4CCOCC4)[n-]c23)sc1[N-]C(=O)c1ccccn1 (nonaromatic ring conformer: 108.33540388496469 kcal/mol)

>  <smiles>  (72) 
NC(=O)c1nc(-c2cccc3c(=O)cc(N4CCOCC4)[nH]c23)sc1NC(=O)c1ccccn1

>  <score_type>  (72) 
oracle

>  <origin>  (72) 
adg

>  <m_score__min__energy>  (72) 
-12.039999999999999

>  <m_primary>  (72) 
energy

$$$$
72:0
     RDKit          3D

 49 51  0  0  0  0  0  0  0  0999 V2000
   62.5850   33.7590   46.8190 C   0  0  0  0  0  0  0  0  0  0  0  0
   61.3760   33.4660   47.3030 C   0  0  0  0  0  0  0  0  0  0  0  0
   61.2150   32.5050   48.2390 N   0  0  0  0  0  0  0  0  0  0  0  0
   59.9300   32.4190   48.5410 N   0  0  0  0  0  0  0  0  0  0  0  0
   59.4080   31.4960   49.5160 C   0  0  0  0  0  0  0  0  0  0  0  0
   58.5270   31.9540   50.5120 C   0  0  0  0  0  0  0  0  0  0  0  0
   58.0210   31.0720   51.4730 C   0  0  0  0  0  0  0  0  0  0  0  0
   58.3970   29.7270   51.4550 C   0  0  0  0  0  0  0  0  0  0  0  0
   59.2840   29.2630   50.4810 C   0  0  0  0  0  0  0  0  0  0  0  0
   59.7920   30.1400   49.5180 C   0  0  0  0  0  0  0  0  0  0  0  0
   59.2540   33.3320   47.8150 C   0  0  0  0  0  0  0  0  0  0  0  0
   58.0130   33.5370   47.9060 O   0  0  0  0  0  0  0  0  0  0  0  0
   60.1250   34.0320   46.9950 C   0  0  0  0  0  0  0  0  0  0  0  0
   59.7460   35.0110   46.1460 C   0  0  0  0  0  0  0  0  0  0  0  0
   59.0180   34.8390   44.8420 C   0  0  0  0  0  0  0  0  0  0  0  0
   57.6650   34.1920   45.0160 C   0  0  0  0  0  0  0  0  0  0  0  0
   56.6170   34.8790   44.8820 O   0  0  0  0  0  0  0  0  0  0  0  0
   57.5370   32.7880   45.2620 N   0  0  0  0  0  0  0  0  0  0  0  0
   58.5850   31.8080   45.0020 C   0  0  0  0  0  0  0  0  0  0  0  0
   58.0580   30.4320   45.2820 C   0  0  0  0  0  0  0  0  0  0  0  0
   58.7550   29.5670   46.1430 C   0  0  0  0  0  0  0  0  0  0  0  0
   58.2820   28.2740   46.3770 C   0  0  0  0  0  0  0  0  0  0  0  0
   57.1140   27.8240   45.7440 C   0  0  0  0  0  0  0  0  0  0  0  0
   56.5000   26.2010   46.0520 S   0  0  0  0  0  0  0  0  0  0  0  0
   56.9480   25.7280   47.4080 O   0  0  0  0  0  0  0  0  0  0  0  0
   57.0530   25.2620   45.0160 O   0  0  0  0  0  0  0  0  0  0  0  0
   54.7660   26.1840   45.9660 N   0  0  0  0  0  0  0  0  0  0  0  0
   54.3010   24.8450   45.6220 C   0  0  0  0  0  0  0  0  0  0  0  0
   56.4230   28.6800   44.8780 C   0  0  0  0  0  0  0  0  0  0  0  0
   56.8970   29.9750   44.6410 C   0  0  0  0  0  0  0  0  0  0  0  0
   62.6969   34.5446   46.0572 H   0  0  0  0  0  0  0  0  0  0  0  0
   63.4694   33.2149   47.1819 H   0  0  0  0  0  0  0  0  0  0  0  0
   58.2335   33.0139   50.5356 H   0  0  0  0  0  0  0  0  0  0  0  0
   57.3264   31.4382   52.2434 H   0  0  0  0  0  0  0  0  0  0  0  0
   57.9946   29.0332   52.2078 H   0  0  0  0  0  0  0  0  0  0  0  0
   59.5837   28.2047   50.4716 H   0  0  0  0  0  0  0  0  0  0  0  0
   60.4953   29.7696   48.7576 H   0  0  0  0  0  0  0  0  0  0  0  0
   59.9958   36.0414   46.4388 H   0  0  0  0  0  0  0  0  0  0  0  0
   58.8792   35.8286   44.3823 H   0  0  0  0  0  0  0  0  0  0  0  0
   59.6248   34.1786   44.2051 H   0  0  0  0  0  0  0  0  0  0  0  0
   58.8973   31.8746   43.9494 H   0  0  0  0  0  0  0  0  0  0  0  0
   59.4487   32.0110   45.6523 H   0  0  0  0  0  0  0  0  0  0  0  0
   59.6772   29.9100   46.6348 H   0  0  0  0  0  0  0  0  0  0  0  0
   58.8273   27.6062   47.0601 H   0  0  0  0  0  0  0  0  0  0  0  0
   54.1039   24.2773   46.5434 H   0  0  0  0  0  0  0  0  0  0  0  0
   53.3758   24.9186   45.0316 H   0  0  0  0  0  0  0  0  0  0  0  0
   55.0727   24.3293   45.0316 H   0  0  0  0  0  0  0  0  0  0  0  0
   55.5043   28.3333   44.3822 H   0  0  0  0  0  0  0  0  0  0  0  0
   56.3568   30.6377   43.9489 H   0  0  0  0  0  0  0  0  0  0  0  0
  1  2  2  0
  2  3  1  0
  3  4  1  0
  4  5  1  0
  5  6  2  0
  6  7  1  0
  7  8  2  0
  8  9  1  0
  9 10  2  0
  4 11  1  0
 11 12  2  0
 11 13  1  0
 13 14  2  3
 14 15  1  0
 15 16  1  0
 16 17  2  0
 16 18  1  0
 18 19  1  0
 19 20  1  0
 20 21  2  0
 21 22  1  0
 22 23  2  0
 23 24  1  0
 24 25  2  0
 24 26  2  0
 24 27  1  0
 27 28  1  0
 23 29  1  0
 29 30  2  0
 13  2  1  0
 30 20  1  0
 10  5  1  0
  1 31  1  0
  1 32  1  0
  6 33  1  0
  7 34  1  0
  8 35  1  0
  9 36  1  0
 10 37  1  0
 14 38  1  0
 15 39  1  0
 15 40  1  0
 19 41  1  0
 19 42  1  0
 21 43  1  0
 22 44  1  0
 28 45  1  0
 28 46  1  0
 28 47  1  0
 29 48  1  0
 30 49  1  0
M  CHG  3   3  -1  18  -1  27  -1
M  END
>  <UniqueID>  (73) 
70

>  <SMILES>  (73) 
C=c1[n-]n(-c2ccccc2)c(=O)c1=CCC(=O)[N-]Cc1ccc(S(=O)(=O)[N-]C)cc1

>  <Energy>  (73) 
89.76055437031235

>  <Genealogy>  (73) 
C=c1[n-]n(-c2ccccc2)c(=O)c1=CCC(=O)[N-]Cc1ccc(S(=O)(=O)[N-]C)cc1 (protonated)
C=c1[n-]n(-c2ccccc2)c(=O)c1=CCC(=O)[N-]Cc1ccc(S(=O)(=O)[N-]C)cc1 (3D coordinates assigned)
C=c1[n-]n(-c2ccccc2)c(=O)c1=CCC(=O)[N-]Cc1ccc(S(=O)(=O)[N-]C)cc1 (optimized conformer: 89.76055437031235 kcal/mol)

>  <smiles>  (73) 
C=c1[nH]n(-c2ccccc2)c(=O)c1=CCC(=O)NCc1ccc(S(=O)(=O)NC)cc1

>  <score_type>  (73) 
oracle

>  <origin>  (73) 
adg

>  <m_score__min__energy>  (73) 
-12.35

>  <m_primary>  (73) 
energy

$$$$
73:0
     RDKit          3D

 52 54  0  0  0  0  0  0  0  0999 V2000
   57.9420   31.9270   42.7260 C   0  0  0  0  0  0  0  0  0  0  0  0
   57.3690   31.8270   44.0800 N   0  0  0  0  0  0  0  0  0  0  0  0
   56.2390   30.8740   44.1460 C   0  0  0  0  0  0  0  0  0  0  0  0
   56.6480   29.4010   43.9490 C   0  0  0  0  0  0  0  0  0  0  0  0
   56.5310   28.6740   45.2090 N   0  0  0  0  0  0  0  0  0  0  0  0
   57.5750   28.5220   46.1810 C   0  0  0  0  0  0  0  0  0  0  0  0
   57.6340   27.4520   46.8420 O   0  0  0  0  0  0  0  0  0  0  0  0
   58.5630   29.6150   46.4730 C   0  0  0  0  0  0  0  0  0  0  0  0
   59.9830   28.9730   47.4270 S   0  0  0  0  0  0  0  0  0  0  0  0
   59.7120   30.0410   48.8580 C   0  0  0  0  0  0  0  0  0  0  0  0
   58.6490   29.7400   49.7000 C   0  0  0  0  0  0  0  0  0  0  0  0
   58.3910   30.5260   50.8200 C   0  0  0  0  0  0  0  0  0  0  0  0
   57.4180   30.2080   51.5580 O   0  0  0  0  0  0  0  0  0  0  0  0
   59.1750   31.6170   51.1130 N   0  0  0  0  0  0  0  0  0  0  0  0
   58.8760   32.4270   52.3110 C   0  0  0  0  0  0  0  0  0  0  0  0
   60.2330   31.9520   50.2850 C   0  0  0  0  0  0  0  0  0  0  0  0
   61.0580   33.0740   50.5490 C   0  0  0  0  0  0  0  0  0  0  0  0
   62.1200   33.4000   49.7060 C   0  0  0  0  0  0  0  0  0  0  0  0
   62.3890   32.6230   48.5830 C   0  0  0  0  0  0  0  0  0  0  0  0
   63.7280   33.0410   47.5290 Cl  0  0  0  0  0  0  0  0  0  0  0  0
   61.5950   31.5130   48.2950 C   0  0  0  0  0  0  0  0  0  0  0  0
   60.5170   31.1630   49.1340 C   0  0  0  0  0  0  0  0  0  0  0  0
   57.0320   33.1540   44.6350 C   0  0  0  0  0  0  0  0  0  0  0  0
   58.0980   33.5980   45.6000 C   0  0  0  0  0  0  0  0  0  0  0  0
   59.2520   34.2410   45.1240 C   0  0  0  0  0  0  0  0  0  0  0  0
   60.2360   34.6770   46.0180 C   0  0  0  0  0  0  0  0  0  0  0  0
   60.0710   34.4780   47.3910 C   0  0  0  0  0  0  0  0  0  0  0  0
   58.9210   33.8460   47.8740 C   0  0  0  0  0  0  0  0  0  0  0  0
   57.9360   33.4080   46.9830 C   0  0  0  0  0  0  0  0  0  0  0  0
   59.0233   32.1157   42.7985 H   0  0  0  0  0  0  0  0  0  0  0  0
   57.7696   30.9852   42.1844 H   0  0  0  0  0  0  0  0  0  0  0  0
   57.4608   32.7547   42.1844 H   0  0  0  0  0  0  0  0  0  0  0  0
   55.7617   30.9714   45.1323 H   0  0  0  0  0  0  0  0  0  0  0  0
   55.5596   31.1286   43.3192 H   0  0  0  0  0  0  0  0  0  0  0  0
   55.9894   28.9379   43.1995 H   0  0  0  0  0  0  0  0  0  0  0  0
   57.6925   29.3606   43.6063 H   0  0  0  0  0  0  0  0  0  0  0  0
   58.9271   30.0344   45.5235 H   0  0  0  0  0  0  0  0  0  0  0  0
   58.0616   30.3918   47.0691 H   0  0  0  0  0  0  0  0  0  0  0  0
   58.0065   28.8746   49.4804 H   0  0  0  0  0  0  0  0  0  0  0  0
   59.0931   31.8388   53.2148 H   0  0  0  0  0  0  0  0  0  0  0  0
   59.4987   33.3338   52.3053 H   0  0  0  0  0  0  0  0  0  0  0  0
   57.8135   32.7117   52.3053 H   0  0  0  0  0  0  0  0  0  0  0  0
   60.8574   33.6974   51.4328 H   0  0  0  0  0  0  0  0  0  0  0  0
   62.7479   34.2751   49.9296 H   0  0  0  0  0  0  0  0  0  0  0  0
   61.8119   30.9046   47.4046 H   0  0  0  0  0  0  0  0  0  0  0  0
   56.9576   33.8830   43.8146 H   0  0  0  0  0  0  0  0  0  0  0  0
   56.0710   33.0881   45.1661 H   0  0  0  0  0  0  0  0  0  0  0  0
   59.3829   34.4026   44.0438 H   0  0  0  0  0  0  0  0  0  0  0  0
   61.1400   35.1767   45.6397 H   0  0  0  0  0  0  0  0  0  0  0  0
   60.8465   34.8188   48.0927 H   0  0  0  0  0  0  0  0  0  0  0  0
   58.7910   33.6932   48.9555 H   0  0  0  0  0  0  0  0  0  0  0  0
   57.0314   32.9131   47.3660 H   0  0  0  0  0  0  0  0  0  0  0  0
  1  2  1  0
  2  3  1  0
  3  4  1  0
  4  5  1  0
  5  6  1  0
  6  7  2  0
  6  8  1  0
  8  9  1  0
  9 10  1  0
 10 11  2  0
 11 12  1  0
 12 13  2  0
 12 14  1  0
 14 15  1  0
 14 16  1  0
 16 17  2  0
 17 18  1  0
 18 19  2  0
 19 20  1  0
 19 21  1  0
 21 22  2  0
  2 23  1  0
 23 24  1  0
 24 25  2  0
 25 26  1  0
 26 27  2  0
 27 28  1  0
 28 29  2  0
 22 10  1  0
 29 24  1  0
 22 16  1  0
  1 30  1  0
  1 31  1  0
  1 32  1  0
  3 33  1  0
  3 34  1  0
  4 35  1  0
  4 36  1  0
  8 37  1  0
  8 38  1  0
 11 39  1  0
 15 40  1  0
 15 41  1  0
 15 42  1  0
 17 43  1  0
 18 44  1  0
 21 45  1  0
 23 46  1  0
 23 47  1  0
 25 48  1  0
 26 49  1  0
 27 50  1  0
 28 51  1  0
 29 52  1  0
M  CHG  1   5  -1
M  END
>  <UniqueID>  (74) 
71

>  <SMILES>  (74) 
CN(CC[N-]C(=O)CSc1cc(=O)n(C)c2ccc(Cl)cc12)Cc1ccccc1

>  <Energy>  (74) 
61.04322265629503

>  <Genealogy>  (74) 
CN(CC[N-]C(=O)CSc1cc(=O)n(C)c2ccc(Cl)cc12)Cc1ccccc1 (protonated)
CN(CC[N-]C(=O)CSc1cc(=O)n(C)c2ccc(Cl)cc12)Cc1ccccc1 (3D coordinates assigned)
CN(CC[N-]C(=O)CSc1cc(=O)n(C)c2ccc(Cl)cc12)Cc1ccccc1 (optimized conformer: 61.04322265629503 kcal/mol)

>  <smiles>  (74) 
CN(CCNC(=O)CSc1cc(=O)n(C)c2ccc(Cl)cc12)Cc1ccccc1

>  <score_type>  (74) 
oracle

>  <origin>  (74) 
adg

>  <m_score__min__energy>  (74) 
-10.119999999999999

>  <m_primary>  (74) 
energy

$$$$
74:0
     RDKit          3D

 32 33  0  0  0  0  0  0  0  0999 V2000
   60.9590   26.3100   46.4430 C   0  0  0  0  0  0  0  0  0  0  0  0
   59.5150   26.6060   46.6880 C   0  0  0  0  0  0  0  0  0  0  0  0
   58.5240   25.7970   46.2600 N   0  0  0  0  0  0  0  0  0  0  0  0
   57.3820   26.3440   46.7230 C   0  0  0  0  0  0  0  0  0  0  0  0
   56.0570   25.7650   46.4770 C   0  0  0  0  0  0  0  0  0  0  0  0
   55.8400   24.5460   46.7070 O   0  0  0  0  0  0  0  0  0  0  0  0
   55.0300   26.5640   45.9880 O   0  0  0  0  0  0  0  0  0  0  0  0
   57.6330   27.4900   47.4550 C   0  0  0  0  0  0  0  0  0  0  0  0
   59.0000   27.6540   47.4360 C   0  0  0  0  0  0  0  0  0  0  0  0
   59.8780   28.9410   48.2530 S   0  0  0  0  0  0  0  0  0  0  0  0
   61.1580   28.3790   48.8070 O   0  0  0  0  0  0  0  0  0  0  0  0
   59.0720   29.4790   49.4010 O   0  0  0  0  0  0  0  0  0  0  0  0
   60.2720   30.1960   47.1210 N   0  0  0  0  0  0  0  0  0  0  0  0
   59.2790   30.8250   46.3020 C   0  0  0  0  0  0  0  0  0  0  0  0
   59.2680   32.2150   46.1170 C   0  0  0  0  0  0  0  0  0  0  0  0
   58.2890   32.8100   45.3180 C   0  0  0  0  0  0  0  0  0  0  0  0
   57.3230   32.0230   44.6860 C   0  0  0  0  0  0  0  0  0  0  0  0
   57.3310   30.6260   44.8400 C   0  0  0  0  0  0  0  0  0  0  0  0
   56.3130   29.7870   44.1660 C   0  0  0  0  0  0  0  0  0  0  0  0
   55.1300   29.3880   44.8560 N   0  0  0  0  0  0  0  0  0  0  0  0
   56.4820   29.4160   42.9730 O   0  0  0  0  0  0  0  0  0  0  0  0
   58.3230   30.0360   45.6450 C   0  0  0  0  0  0  0  0  0  0  0  0
   61.4799   26.2032   47.4059 H   0  0  0  0  0  0  0  0  0  0  0  0
   61.0497   25.3746   45.8714 H   0  0  0  0  0  0  0  0  0  0  0  0
   61.4104   27.1343   45.8714 H   0  0  0  0  0  0  0  0  0  0  0  0
   56.8936   28.1368   47.9500 H   0  0  0  0  0  0  0  0  0  0  0  0
   61.2700   30.2480   46.8160 H   0  0  0  0  0  0  0  0  0  0  0  0
   60.0329   32.8388   46.6027 H   0  0  0  0  0  0  0  0  0  0  0  0
   58.2785   33.9020   45.1859 H   0  0  0  0  0  0  0  0  0  0  0  0
   56.5512   32.4998   44.0639 H   0  0  0  0  0  0  0  0  0  0  0  0
   55.1680   28.6800   45.6240 H   0  0  0  0  0  0  0  0  0  0  0  0
   58.3492   28.9424   45.7606 H   0  0  0  0  0  0  0  0  0  0  0  0
  1  2  1  0
  2  3  1  0
  3  4  1  0
  4  5  1  0
  5  6  2  0
  5  7  1  0
  4  8  2  0
  8  9  1  0
  9 10  1  0
 10 11  2  0
 10 12  2  0
 10 13  1  0
 13 14  1  0
 14 15  2  0
 15 16  1  0
 16 17  2  0
 17 18  1  0
 18 19  1  0
 19 20  1  0
 19 21  2  0
 18 22  2  0
  9  2  2  0
 22 14  1  0
  1 23  1  0
  1 24  1  0
  1 25  1  0
  8 26  1  0
 13 27  1  0
 15 28  1  0
 16 29  1  0
 17 30  1  0
 20 31  1  0
 22 32  1  0
M  CHG  3   3  -1   7  -1  20  -1
M  END
>  <UniqueID>  (75) 
72

>  <SMILES>  (75) 
Cc1[n-]c(C(=O)[O-])cc1S(=O)(=O)Nc1cccc(C([NH-])=O)c1

>  <Energy>  (75) 
60.66000871991059

>  <Genealogy>  (75) 
Cc1[n-]c(C(=O)[O-])cc1S(=O)(=O)Nc1cccc(C([NH-])=O)c1 (protonated)
Cc1[n-]c(C(=O)[O-])cc1S(=O)(=O)Nc1cccc(C([NH-])=O)c1 (3D coordinates assigned)
Cc1[n-]c(C(=O)[O-])cc1S(=O)(=O)Nc1cccc(C([NH-])=O)c1 (optimized conformer: 60.66000871991059 kcal/mol)

>  <smiles>  (75) 
Cc1[nH]c(C(=O)O)cc1S(=O)(=O)Nc1cccc(C(N)=O)c1

>  <score_type>  (75) 
oracle

>  <origin>  (75) 
adg

>  <m_score__min__energy>  (75) 
-13.77

>  <m_primary>  (75) 
energy

$$$$
75:0
     RDKit          3D

 42 44  0  0  1  0  0  0  0  0999 V2000
   63.3900   34.0230   46.0200 C   0  0  0  0  0  0  0  0  0  0  0  0
   63.0190   33.1420   47.1780 C   0  0  0  0  0  0  0  0  0  0  0  0
   61.7280   32.7630   47.2340 N   0  0  0  0  0  0  0  0  0  0  0  0
   61.3490   31.9720   48.2550 C   0  0  0  0  0  0  0  0  0  0  0  0
   60.0940   31.6250   48.2750 N   0  0  0  0  0  0  0  0  0  0  0  0
   59.0360   32.6380   48.2360 C   0  0  0  0  0  0  0  0  0  0  0  0
   58.7320   32.8650   46.7980 C   0  0  0  0  0  0  0  0  0  0  0  0
   58.5940   34.1650   46.3790 C   0  0  0  0  0  0  0  0  0  0  0  0
   58.3120   34.4430   45.0540 C   0  0  0  0  0  0  0  0  0  0  0  0
   58.1720   33.3790   44.1670 C   0  0  0  0  0  0  0  0  0  0  0  0
   58.3020   32.0690   44.5440 C   0  0  0  0  0  0  0  0  0  0  0  0
   58.1810   30.9450   43.7140 N   0  0  0  0  0  0  0  0  0  0  0  0
   56.9630   29.7420   43.8120 S   0  0  0  0  0  0  0  0  0  0  0  0
   57.7200   28.1700   44.0930 C   0  0  0  0  0  0  0  0  0  0  0  0
   56.2400   29.6480   42.4970 O   0  0  0  0  0  0  0  0  0  0  0  0
   55.9460   30.0630   44.8680 O   0  0  0  0  0  0  0  0  0  0  0  0
   58.5870   31.8370   45.8900 C   0  0  0  0  0  0  0  0  0  0  0  0
   62.2350   31.5500   49.2260 C   0  0  0  0  0  0  0  0  0  0  0  0
   62.1030   30.7650   50.3370 C   0  0  0  0  0  0  0  0  0  0  0  0
   63.3260   30.7110   50.8950 N   0  0  0  0  0  0  0  0  0  0  0  0
   64.1860   31.4220   50.1820 N   0  0  0  0  0  0  0  0  0  0  0  0
   65.6050   31.6470   50.4050 C   0  0  0  0  0  0  0  0  0  0  0  0
   63.5440   31.9710   49.1160 C   0  0  0  0  0  0  0  0  0  0  0  0
   63.9330   32.7620   48.0990 N   0  0  0  0  0  0  0  0  0  0  0  0
   63.7910   34.9752   46.3975 H   0  0  0  0  0  0  0  0  0  0  0  0
   64.1531   33.5210   45.4071 H   0  0  0  0  0  0  0  0  0  0  0  0
   62.4976   34.2182   45.4071 H   0  0  0  0  0  0  0  0  0  0  0  0
   58.1409   32.2750   48.7623 H   0  0  0  0  0  0  0  0  0  0  0  0
   59.3530   33.5681   48.7304 H   0  0  0  0  0  0  0  0  0  0  0  0
   58.7081   34.9882   47.0996 H   0  0  0  0  0  0  0  0  0  0  0  0
   58.2008   35.4814   44.7086 H   0  0  0  0  0  0  0  0  0  0  0  0
   57.9463   33.6012   43.1136 H   0  0  0  0  0  0  0  0  0  0  0  0
   58.9140   30.8300   42.9570 H   0  0  0  0  0  0  0  0  0  0  0  0
   57.8055   27.9924   45.1752 H   0  0  0  0  0  0  0  0  0  0  0  0
   57.1036   27.3799   43.6394 H   0  0  0  0  0  0  0  0  0  0  0  0
   58.7220   28.1592   43.6394 H   0  0  0  0  0  0  0  0  0  0  0  0
   58.6998   30.7998   46.2386 H   0  0  0  0  0  0  0  0  0  0  0  0
   61.1860   30.2779   50.7000 H   0  0  0  0  0  0  0  0  0  0  0  0
   65.8058   31.6788   51.4861 H   0  0  0  0  0  0  0  0  0  0  0  0
   66.1821   30.8291   49.9488 H   0  0  0  0  0  0  0  0  0  0  0  0
   65.9008   32.6033   49.9488 H   0  0  0  0  0  0  0  0  0  0  0  0
   64.9200   33.0730   48.0260 H   0  0  0  0  0  0  0  0  0  0  0  0
  1  2  1  0
  2  3  2  0
  3  4  1  0
  4  5  2  0
  5  6  1  0
  6  7  1  0
  7  8  2  0
  8  9  1  0
  9 10  2  0
 10 11  1  0
 11 12  1  0
 12 13  1  0
 13 14  1  0
 13 15  2  0
 13 16  2  0
 11 17  2  0
  4 18  1  0
 18 19  1  0
 19 20  2  0
 20 21  1  0
 21 22  1  0
 21 23  1  0
 23 24  1  0
 24  2  1  0
 17  7  1  0
 23 18  2  0
  1 25  1  0
  1 26  1  0
  1 27  1  0
  6 28  1  0
  6 29  1  0
  8 30  1  0
  9 31  1  0
 10 32  1  0
 12 33  1  0
 14 34  1  0
 14 35  1  0
 14 36  1  0
 17 37  1  0
 19 38  1  0
 22 39  1  0
 22 40  1  0
 22 41  1  0
 24 42  1  0
M  END
>  <smiles>  (76) 
Cc1nc(=NCc2cccc(NS(C)(=O)=O)c2)c2cnn(C)c2[nH]1

>  <score_type>  (76) 
oracle

>  <origin>  (76) 
adg

>  <m_score__min__energy>  (76) 
-8.0299999999999994

>  <m_primary>  (76) 
energy

$$$$
76:0
     RDKit          3D

 64 67  0  0  0  0  0  0  0  0999 V2000
   55.1450   27.4960   45.3280 H   0  0  0  0  0  0  0  0  0  0  0  0
   55.3020   26.7350   45.9780 O   0  0  0  0  0  0  0  0  0  0  0  0
   56.1130   25.6480   45.6510 C   0  0  0  0  0  0  0  0  0  0  0  0
   55.5320   24.4220   45.2950 C   0  0  0  0  0  0  0  0  0  0  0  0
   54.4372   24.3148   45.2920 H   0  0  0  0  0  0  0  0  0  0  0  0
   56.3390   23.3360   44.9440 C   0  0  0  0  0  0  0  0  0  0  0  0
   55.8785   22.3745   44.6729 H   0  0  0  0  0  0  0  0  0  0  0  0
   57.7290   23.4700   44.9370 C   0  0  0  0  0  0  0  0  0  0  0  0
   58.3613   22.6164   44.6514 H   0  0  0  0  0  0  0  0  0  0  0  0
   58.3180   24.6860   45.2920 C   0  0  0  0  0  0  0  0  0  0  0  0
   59.4132   24.7881   45.2788 H   0  0  0  0  0  0  0  0  0  0  0  0
   57.5180   25.7800   45.6660 C   0  0  0  0  0  0  0  0  0  0  0  0
   58.1610   27.0530   46.0700 C   0  0  0  0  0  0  0  0  0  0  0  0
   58.6640   27.1590   47.3780 C   0  0  0  0  0  0  0  0  0  0  0  0
   58.5078   26.3331   48.0875 H   0  0  0  0  0  0  0  0  0  0  0  0
   59.3630   28.3040   47.7920 C   0  0  0  0  0  0  0  0  0  0  0  0
   59.9200   28.3950   49.1980 C   0  0  0  0  0  0  0  0  0  0  0  0
   60.9037   27.9030   49.2140 H   0  0  0  0  0  0  0  0  0  0  0  0
   59.1938   27.9048   49.8631 H   0  0  0  0  0  0  0  0  0  0  0  0
   60.0840   29.7830   49.6860 N   0  0  0  0  0  0  0  0  0  0  0  0
   59.2900   30.0440   50.9010 C   0  0  0  0  0  0  0  0  0  0  0  0
   59.9043   29.8421   51.7909 H   0  0  0  0  0  0  0  0  0  0  0  0
   58.9672   31.0955   50.9092 H   0  0  0  0  0  0  0  0  0  0  0  0
   58.4063   29.3891   50.9092 H   0  0  0  0  0  0  0  0  0  0  0  0
   61.5040   30.1540   49.8690 C   0  0  0  0  0  0  0  0  0  0  0  0
   61.7036   30.3056   50.9401 H   0  0  0  0  0  0  0  0  0  0  0  0
   62.1370   29.3444   49.4767 H   0  0  0  0  0  0  0  0  0  0  0  0
   61.8170   31.4230   49.1220 C   0  0  0  0  0  0  0  0  0  0  0  0
   61.6470   32.6680   49.7490 C   0  0  0  0  0  0  0  0  0  0  0  0
   61.2708   32.7144   50.7816 H   0  0  0  0  0  0  0  0  0  0  0  0
   61.9540   33.8490   49.0660 C   0  0  0  0  0  0  0  0  0  0  0  0
   61.8120   34.8217   49.5596 H   0  0  0  0  0  0  0  0  0  0  0  0
   62.4410   33.7950   47.7570 C   0  0  0  0  0  0  0  0  0  0  0  0
   62.6826   34.7247   47.2211 H   0  0  0  0  0  0  0  0  0  0  0  0
   62.6210   32.5590   47.1290 C   0  0  0  0  0  0  0  0  0  0  0  0
   63.0062   32.5169   46.0995 H   0  0  0  0  0  0  0  0  0  0  0  0
   62.3120   31.3760   47.8080 C   0  0  0  0  0  0  0  0  0  0  0  0
   62.4571   30.4052   47.3114 H   0  0  0  0  0  0  0  0  0  0  0  0
   59.5480   29.3570   46.8860 C   0  0  0  0  0  0  0  0  0  0  0  0
   60.0952   30.2581   47.2000 H   0  0  0  0  0  0  0  0  0  0  0  0
   59.0430   29.2700   45.5890 C   0  0  0  0  0  0  0  0  0  0  0  0
   59.2090   30.0986   44.8849 H   0  0  0  0  0  0  0  0  0  0  0  0
   58.3260   28.1390   45.1710 C   0  0  0  0  0  0  0  0  0  0  0  0
   57.7770   28.1440   43.7950 C   0  0  0  0  0  0  0  0  0  0  0  0
   58.0687   27.3382   43.1053 H   0  0  0  0  0  0  0  0  0  0  0  0
   56.9390   29.0930   43.3600 C   0  0  0  0  0  0  0  0  0  0  0  0
   56.8758   29.2890   42.2794 H   0  0  0  0  0  0  0  0  0  0  0  0
   56.1000   29.8830   44.2730 C   0  0  0  0  0  0  0  0  0  0  0  0
   55.1350   29.3220   44.8580 O   0  0  0  0  0  0  0  0  0  0  0  0
   56.3690   31.2730   44.4980 N   0  0  0  0  0  0  0  0  0  0  0  0
   57.5800   31.9460   44.0430 C   0  0  0  0  0  0  0  0  0  0  0  0
   58.3264   31.1927   43.7506 H   0  0  0  0  0  0  0  0  0  0  0  0
   57.3339   32.5846   43.1818 H   0  0  0  0  0  0  0  0  0  0  0  0
   58.1430   32.8020   45.1440 C   0  0  0  0  0  0  0  0  0  0  0  0
   58.7830   34.0180   44.8500 C   0  0  0  0  0  0  0  0  0  0  0  0
   58.8974   34.3379   43.8038 H   0  0  0  0  0  0  0  0  0  0  0  0
   59.2750   34.8230   45.8820 C   0  0  0  0  0  0  0  0  0  0  0  0
   59.7780   35.7722   45.6453 H   0  0  0  0  0  0  0  0  0  0  0  0
   59.1290   34.4240   47.2150 C   0  0  0  0  0  0  0  0  0  0  0  0
   59.5173   35.0585   48.0253 H   0  0  0  0  0  0  0  0  0  0  0  0
   58.4890   33.2180   47.5160 C   0  0  0  0  0  0  0  0  0  0  0  0
   58.3737   32.9039   48.5639 H   0  0  0  0  0  0  0  0  0  0  0  0
   57.9950   32.4100   46.4860 C   0  0  0  0  0  0  0  0  0  0  0  0
   57.4886   31.4638   46.7274 H   0  0  0  0  0  0  0  0  0  0  0  0
  1  2  1  0
  2  3  1  0
  3  4  2  0
  4  5  1  0
  4  6  1  0
  6  7  1  0
  6  8  2  0
  8  9  1  0
  8 10  1  0
 10 11  1  0
 10 12  2  0
 12 13  1  0
 13 14  2  0
 14 15  1  0
 14 16  1  0
 16 17  1  0
 17 18  1  0
 17 19  1  0
 17 20  1  0
 20 21  1  0
 21 22  1  0
 21 23  1  0
 21 24  1  0
 20 25  1  0
 25 26  1  0
 25 27  1  0
 25 28  1  0
 28 29  2  0
 29 30  1  0
 29 31  1  0
 31 32  1  0
 31 33  2  0
 33 34  1  0
 33 35  1  0
 35 36  1  0
 35 37  2  0
 37 38  1  0
 16 39  2  0
 39 40  1  0
 39 41  1  0
 41 42  1  0
 41 43  2  0
 43 44  1  0
 44 45  1  0
 44 46  2  0
 46 47  1  0
 46 48  1  0
 48 49  2  0
 48 50  1  0
 50 51  1  0
 51 52  1  0
 51 53  1  0
 51 54  1  0
 54 55  2  0
 55 56  1  0
 55 57  1  0
 57 58  1  0
 57 59  2  0
 59 60  1  0
 59 61  1  0
 61 62  1  0
 61 63  2  0
 63 64  1  0
 12  3  1  0
 43 13  1  0
 63 54  1  0
 37 28  1  0
M  CHG  1  50  -1
M  END
>  <UniqueID>  (77) 
73

>  <SMILES>  (77) 
CN(Cc1ccccc1)Cc1ccc(/C=C/C(=O)[N-]Cc2ccccc2)c(-c2ccccc2O)c1

>  <Energy>  (77) 
78.74789159456195

>  <Genealogy>  (77) 
CN(Cc1ccccc1)Cc1ccc(C=CC(=O)[N-]Cc2ccccc2)c(-c2ccccc2O)c1 (protonated)
CN(Cc1ccccc1)Cc1ccc(/C=C/C(=O)[N-]Cc2ccccc2)c(-c2ccccc2O)c1 (cis-trans isomerization)
CN(Cc1ccccc1)Cc1ccc(/C=C/C(=O)[N-]Cc2ccccc2)c(-c2ccccc2O)c1 (3D coordinates assigned)
CN(Cc1ccccc1)Cc1ccc(/C=C/C(=O)[N-]Cc2ccccc2)c(-c2ccccc2O)c1 (optimized conformer: 78.74789159456195 kcal/mol)

>  <smiles>  (77) 
CN(Cc1ccccc1)Cc1ccc(C=CC(=O)NCc2ccccc2)c(-c2ccccc2O)c1

>  <score_type>  (77) 
oracle

>  <origin>  (77) 
adg

>  <m_score__min__energy>  (77) 
-14.09

>  <m_primary>  (77) 
energy

$$$$
77:0
     RDKit          3D

 42 45  0  0  0  0  0  0  0  0999 V2000
   61.1429   26.5394   46.2794 H   0  0  0  0  0  0  0  0  0  0  0  0
   60.2300   27.0970   46.0230 C   0  0  0  0  0  0  0  0  0  0  0  0
   59.0170   26.5010   46.1350 N   0  0  0  0  0  0  0  0  0  0  0  0
   57.8530   27.1390   45.8220 C   0  0  0  0  0  0  0  0  0  0  0  0
   56.7090   26.5350   45.9800 N   0  0  0  0  0  0  0  0  0  0  0  0
   56.2760   25.3170   45.3510 C   0  0  0  0  0  0  0  0  0  0  0  0
   57.0880   24.6190   44.4390 C   0  0  0  0  0  0  0  0  0  0  0  0
   58.0996   24.9870   44.2125 H   0  0  0  0  0  0  0  0  0  0  0  0
   56.6140   23.4600   43.8200 C   0  0  0  0  0  0  0  0  0  0  0  0
   57.2582   22.9106   43.1178 H   0  0  0  0  0  0  0  0  0  0  0  0
   55.3250   22.9970   44.0900 C   0  0  0  0  0  0  0  0  0  0  0  0
   54.9629   22.0768   43.6081 H   0  0  0  0  0  0  0  0  0  0  0  0
   54.4900   23.6960   44.9700 C   0  0  0  0  0  0  0  0  0  0  0  0
   53.1970   23.2010   45.1960 O   0  0  0  0  0  0  0  0  0  0  0  0
   52.0000   23.9050   44.8830 C   0  0  0  0  0  0  0  0  0  0  0  0
   51.4951   24.2019   45.8141 H   0  0  0  0  0  0  0  0  0  0  0  0
   52.2453   24.8027   44.2965 H   0  0  0  0  0  0  0  0  0  0  0  0
   51.3346   23.2544   44.2965 H   0  0  0  0  0  0  0  0  0  0  0  0
   54.9700   24.8660   45.5910 C   0  0  0  0  0  0  0  0  0  0  0  0
   54.3145   25.4308   46.2702 H   0  0  0  0  0  0  0  0  0  0  0  0
   57.8960   28.4870   45.3770 C   0  0  0  0  0  0  0  0  0  0  0  0
   56.6680   29.2570   45.0270 C   0  0  0  0  0  0  0  0  0  0  0  0
   55.5360   28.7040   45.0580 O   0  0  0  0  0  0  0  0  0  0  0  0
   56.7810   30.6220   44.5960 N   0  0  0  0  0  0  0  0  0  0  0  0
   57.5340   31.6620   45.2370 C   0  0  0  0  0  0  0  0  0  0  0  0
   57.9300   31.4780   46.5830 C   0  0  0  0  0  0  0  0  0  0  0  0
   57.6724   30.5437   47.1033 H   0  0  0  0  0  0  0  0  0  0  0  0
   58.6500   32.4780   47.2630 C   0  0  0  0  0  0  0  0  0  0  0  0
   58.9713   32.3370   48.3056 H   0  0  0  0  0  0  0  0  0  0  0  0
   58.9420   33.6500   46.5740 C   0  0  0  0  0  0  0  0  0  0  0  0
   58.5490   33.8430   45.2900 C   0  0  0  0  0  0  0  0  0  0  0  0
   57.8370   32.8800   44.5810 C   0  0  0  0  0  0  0  0  0  0  0  0
   57.5194   33.0594   43.5432 H   0  0  0  0  0  0  0  0  0  0  0  0
   58.9600   35.0930   44.8670 O   0  0  0  0  0  0  0  0  0  0  0  0
   59.6590   35.7200   45.9520 C   0  0  0  0  0  0  0  0  0  0  0  0
   60.6982   35.9399   45.6663 H   0  0  0  0  0  0  0  0  0  0  0  0
   59.2009   36.6780   46.2389 H   0  0  0  0  0  0  0  0  0  0  0  0
   59.6220   34.7650   47.0210 O   0  0  0  0  0  0  0  0  0  0  0  0
   59.1540   29.1070   45.2640 C   0  0  0  0  0  0  0  0  0  0  0  0
   59.2183   30.1497   44.9197 H   0  0  0  0  0  0  0  0  0  0  0  0
   60.3190   28.4130   45.5840 C   0  0  0  0  0  0  0  0  0  0  0  0
   61.2999   28.9018   45.4901 H   0  0  0  0  0  0  0  0  0  0  0  0
  1  2  1  0
  2  3  1  0
  3  4  1  0
  4  5  2  0
  5  6  1  0
  6  7  2  0
  7  8  1  0
  7  9  1  0
  9 10  1  0
  9 11  2  0
 11 12  1  0
 11 13  1  0
 13 14  1  0
 14 15  1  0
 15 16  1  0
 15 17  1  0
 15 18  1  0
 13 19  2  0
 19 20  1  0
  4 21  1  0
 21 22  1  0
 22 23  2  0
 22 24  1  0
 24 25  1  0
 25 26  2  0
 26 27  1  0
 26 28  1  0
 28 29  1  0
 28 30  2  0
 30 31  1  0
 31 32  2  0
 32 33  1  0
 31 34  1  0
 34 35  1  0
 35 36  1  0
 35 37  1  0
 35 38  1  0
 21 39  2  0
 39 40  1  0
 39 41  1  0
 41 42  1  0
 41  2  2  0
 19  6  1  0
 32 25  1  0
 38 30  1  0
M  CHG  2   3  -1  24  -1
M  END
>  <UniqueID>  (78) 
74

>  <SMILES>  (78) 
COc1cccc(/N=c2\[n-]cccc2C(=O)[N-]c2ccc3c(c2)OCO3)c1

>  <Energy>  (78) 
87.4904243031825

>  <Genealogy>  (78) 
COc1cccc(N=c2[n-]cccc2C(=O)[N-]c2ccc3c(c2)OCO3)c1 (protonated)
COc1cccc(/N=c2\[n-]cccc2C(=O)[N-]c2ccc3c(c2)OCO3)c1 (cis-trans isomerization)
COc1cccc(/N=c2\[n-]cccc2C(=O)[N-]c2ccc3c(c2)OCO3)c1 (3D coordinates assigned)
COc1cccc(/N=c2\[n-]cccc2C(=O)[N-]c2ccc3c(c2)OCO3)c1 (nonaromatic ring conformer: 87.4904243031825 kcal/mol)

>  <smiles>  (78) 
COc1cccc(N=c2[nH]cccc2C(=O)Nc2ccc3c(c2)OCO3)c1

>  <score_type>  (78) 
oracle

>  <origin>  (78) 
adg

>  <m_score__min__energy>  (78) 
-10.99

>  <m_primary>  (78) 
energy

$$$$
78:0
     RDKit          3D

 69 74  0  0  0  0  0  0  0  0999 V2000
   61.0420   26.3770   50.0910 O   0  0  0  0  0  0  0  0  0  0  0  0
   60.6040   27.2230   49.2690 C   0  0  0  0  0  0  0  0  0  0  0  0
   60.5010   26.8640   47.8830 N   0  0  0  0  0  0  0  0  0  0  0  0
   59.2690   26.8220   47.1490 C   0  0  0  0  0  0  0  0  0  0  0  0
   58.6180   25.5970   46.9680 C   0  0  0  0  0  0  0  0  0  0  0  0
   57.4880   25.5180   46.1490 C   0  0  0  0  0  0  0  0  0  0  0  0
   57.0020   26.6620   45.5080 C   0  0  0  0  0  0  0  0  0  0  0  0
   57.6140   27.9080   45.7230 C   0  0  0  0  0  0  0  0  0  0  0  0
   57.1440   29.1250   45.0320 C   0  0  0  0  0  0  0  0  0  0  0  0
   56.2040   29.0480   44.1930 O   0  0  0  0  0  0  0  0  0  0  0  0
   57.6730   30.4460   45.3890 C   0  0  0  0  0  0  0  0  0  0  0  0
   58.1400   30.6730   46.7100 C   0  0  0  0  0  0  0  0  0  0  0  0
   58.6460   31.9310   47.0840 C   0  0  0  0  0  0  0  0  0  0  0  0
   58.6670   32.9300   46.1120 C   0  0  0  0  0  0  0  0  0  0  0  0
   59.0820   34.2420   46.1270 C   0  0  0  0  0  0  0  0  0  0  0  0
   59.5680   34.9900   47.3060 C   0  0  0  0  0  0  0  0  0  0  0  0
   60.4560   34.5250   48.1980 C   0  0  0  0  0  0  0  0  0  0  0  0
   61.5100   33.5320   47.9060 C   0  0  0  0  0  0  0  0  0  0  0  0
   62.6160   33.8610   47.1020 C   0  0  0  0  0  0  0  0  0  0  0  0
   63.5810   32.8940   46.8020 C   0  0  0  0  0  0  0  0  0  0  0  0
   63.4390   31.5910   47.2850 C   0  0  0  0  0  0  0  0  0  0  0  0
   62.3280   31.2500   48.0610 C   0  0  0  0  0  0  0  0  0  0  0  0
   61.3600   32.2130   48.3630 C   0  0  0  0  0  0  0  0  0  0  0  0
   58.8530   34.7730   44.9010 N   0  0  0  0  0  0  0  0  0  0  0  0
   58.3300   33.8400   44.1100 N   0  0  0  0  0  0  0  0  0  0  0  0
   58.2140   32.7180   44.8410 C   0  0  0  0  0  0  0  0  0  0  0  0
   57.6990   31.4890   44.4390 C   0  0  0  0  0  0  0  0  0  0  0  0
   58.7270   27.9840   46.5730 C   0  0  0  0  0  0  0  0  0  0  0  0
   60.2170   28.5700   49.7450 C   0  0  0  0  0  0  0  0  0  0  0  0
   58.9430   29.0790   49.4650 C   0  0  0  0  0  0  0  0  0  0  0  0
   58.5370   30.3030   49.9940 C   0  0  0  0  0  0  0  0  0  0  0  0
   59.3930   31.0460   50.8280 C   0  0  0  0  0  0  0  0  0  0  0  0
   58.9020   32.3320   51.3940 C   0  0  0  0  0  0  0  0  0  0  0  0
   58.0900   32.3520   52.3580 O   0  0  0  0  0  0  0  0  0  0  0  0
   59.3370   33.5430   50.8650 O   0  0  0  0  0  0  0  0  0  0  0  0
   60.6850   30.5420   51.1120 C   0  0  0  0  0  0  0  0  0  0  0  0
   61.5310   31.2620   51.9710 O   0  0  0  0  0  0  0  0  0  0  0  0
   62.0970   32.5370   51.6830 C   0  0  0  0  0  0  0  0  0  0  0  0
   63.5050   32.3480   51.2010 C   0  0  0  0  0  0  0  0  0  0  0  0
   64.0780   33.2940   50.3360 C   0  0  0  0  0  0  0  0  0  0  0  0
   65.3770   33.1100   49.8510 C   0  0  0  0  0  0  0  0  0  0  0  0
   66.1090   31.9770   50.2200 C   0  0  0  0  0  0  0  0  0  0  0  0
   65.5410   31.0270   51.0730 C   0  0  0  0  0  0  0  0  0  0  0  0
   64.2420   31.2080   51.5610 C   0  0  0  0  0  0  0  0  0  0  0  0
   61.0930   29.3160   50.5450 C   0  0  0  0  0  0  0  0  0  0  0  0
   58.9959   24.6947   47.4709 H   0  0  0  0  0  0  0  0  0  0  0  0
   56.9794   24.5529   46.0082 H   0  0  0  0  0  0  0  0  0  0  0  0
   56.1370   26.5858   44.8327 H   0  0  0  0  0  0  0  0  0  0  0  0
   58.1059   29.8579   47.4478 H   0  0  0  0  0  0  0  0  0  0  0  0
   59.0112   32.1193   48.1044 H   0  0  0  0  0  0  0  0  0  0  0  0
   59.1718   36.0040   47.4638 H   0  0  0  0  0  0  0  0  0  0  0  0
   60.3944   34.9130   49.2255 H   0  0  0  0  0  0  0  0  0  0  0  0
   62.7225   34.8824   46.7077 H   0  0  0  0  0  0  0  0  0  0  0  0
   64.4523   33.1597   46.1853 H   0  0  0  0  0  0  0  0  0  0  0  0
   64.2021   30.8330   47.0544 H   0  0  0  0  0  0  0  0  0  0  0  0
   62.2146   30.2218   48.4351 H   0  0  0  0  0  0  0  0  0  0  0  0
   60.4787   31.9363   48.9602 H   0  0  0  0  0  0  0  0  0  0  0  0
   57.3251   31.3361   43.4159 H   0  0  0  0  0  0  0  0  0  0  0  0
   59.1801   28.9623   46.7910 H   0  0  0  0  0  0  0  0  0  0  0  0
   58.2568   28.5081   48.8222 H   0  0  0  0  0  0  0  0  0  0  0  0
   57.5360   30.6926   49.7568 H   0  0  0  0  0  0  0  0  0  0  0  0
   61.5038   33.0362   50.9027 H   0  0  0  0  0  0  0  0  0  0  0  0
   62.0949   33.1585   52.5906 H   0  0  0  0  0  0  0  0  0  0  0  0
   63.5031   34.1834   50.0386 H   0  0  0  0  0  0  0  0  0  0  0  0
   65.8233   33.8574   49.1785 H   0  0  0  0  0  0  0  0  0  0  0  0
   67.1310   31.8337   49.8391 H   0  0  0  0  0  0  0  0  0  0  0  0
   66.1163   30.1349   51.3615 H   0  0  0  0  0  0  0  0  0  0  0  0
   63.7969   30.4553   52.2284 H   0  0  0  0  0  0  0  0  0  0  0  0
   62.1101   28.9416   50.7330 H   0  0  0  0  0  0  0  0  0  0  0  0
  1  2  2  0
  2  3  1  0
  3  4  1  0
  4  5  2  0
  5  6  1  0
  6  7  2  0
  7  8  1  0
  8  9  1  0
  9 10  2  0
  9 11  1  0
 11 12  1  0
 12 13  2  0
 13 14  1  0
 14 15  2  0
 15 16  1  0
 16 17  2  3
 17 18  1  0
 18 19  2  0
 19 20  1  0
 20 21  2  0
 21 22  1  0
 22 23  2  0
 15 24  1  0
 24 25  1  0
 25 26  2  0
 26 27  1  0
  8 28  2  0
  2 29  1  0
 29 30  2  0
 30 31  1  0
 31 32  2  0
 32 33  1  0
 33 34  2  0
 33 35  1  0
 32 36  1  0
 36 37  1  0
 37 38  1  0
 38 39  1  0
 39 40  2  0
 40 41  1  0
 41 42  2  0
 42 43  1  0
 43 44  2  0
 36 45  2  0
 28  4  1  0
 45 29  1  0
 27 11  2  0
 44 39  1  0
 26 14  1  0
 23 18  1  0
  5 46  1  0
  6 47  1  0
  7 48  1  0
 12 49  1  0
 13 50  1  0
 16 51  1  0
 17 52  1  0
 19 53  1  0
 20 54  1  0
 21 55  1  0
 22 56  1  0
 23 57  1  0
 27 58  1  0
 28 59  1  0
 30 60  1  0
 31 61  1  0
 38 62  1  0
 38 63  1  0
 40 64  1  0
 41 65  1  0
 42 66  1  0
 43 67  1  0
 44 68  1  0
 45 69  1  0
M  CHG  3   3  -1  24  -1  35  -1
M  END
>  <UniqueID>  (79) 
75

>  <SMILES>  (79) 
O=C([N-]c1cccc(C(=O)c2ccc3c(C=Cc4ccccc4)[n-]nc3c2)c1)c1ccc(C(=O)[O-])c(OCc2ccccc2)c1

>  <Energy>  (79) 
143.26724519352166

>  <Genealogy>  (79) 
O=C([N-]c1cccc(C(=O)c2ccc3c(C=Cc4ccccc4)[n-]nc3c2)c1)c1ccc(C(=O)[O-])c(OCc2ccccc2)c1 (protonated)
O=C([N-]c1cccc(C(=O)c2ccc3c(C=Cc4ccccc4)[n-]nc3c2)c1)c1ccc(C(=O)[O-])c(OCc2ccccc2)c1 (3D coordinates assigned)
O=C([N-]c1cccc(C(=O)c2ccc3c(C=Cc4ccccc4)[n-]nc3c2)c1)c1ccc(C(=O)[O-])c(OCc2ccccc2)c1 (optimized conformer: 143.26724519352166 kcal/mol)

>  <smiles>  (79) 
O=C(Nc1cccc(C(=O)c2ccc3c(C=Cc4ccccc4)[nH]nc3c2)c1)c1ccc(C(=O)O)c(OCc2ccccc2)c1

>  <score_type>  (79) 
oracle

>  <origin>  (79) 
adg

>  <m_score__min__energy>  (79) 
-15.4

>  <m_primary>  (79) 
energy

$$$$
79:0
     RDKit          3D

 38 41  0  0  1  0  0  0  0  0999 V2000
   55.5160   24.6600   46.4030 O   0  0  0  0  0  0  0  0  0  0  0  0
   56.0370   25.5460   45.6450 C   0  0  0  0  0  0  0  0  0  0  0  0
   56.0570   26.9250   46.0010 N   0  0  0  0  0  0  0  0  0  0  0  0
   57.0560   27.7080   45.8930 C   0  0  0  0  0  0  0  0  0  0  0  0
   56.8900   29.0300   45.6340 N   0  0  0  0  0  0  0  0  0  0  0  0
   58.0090   29.7590   45.5420 C   0  0  0  0  0  0  0  0  0  0  0  0
   57.9000   31.2070   45.2610 C   0  0  0  0  0  0  0  0  0  0  0  0
   57.8190   32.1020   46.2910 C   0  0  0  0  0  0  0  0  0  0  0  0
   57.7180   33.4520   45.9890 C   0  0  0  0  0  0  0  0  0  0  0  0
   57.6940   33.9310   44.6970 C   0  0  0  0  0  0  0  0  0  0  0  0
   57.7740   33.0320   43.6610 C   0  0  0  0  0  0  0  0  0  0  0  0
   57.8740   31.7020   43.9790 C   0  0  0  0  0  0  0  0  0  0  0  0
   59.2500   29.2920   45.6810 N   0  0  0  0  0  0  0  0  0  0  0  0
   59.4760   27.9500   45.9460 C   0  0  0  0  0  0  0  0  0  0  0  0
   60.6560   27.3670   46.1060 C   0  0  0  0  0  0  0  0  0  0  0  0
   60.6400   25.9720   46.3720 C   0  0  0  0  0  0  0  0  0  0  0  0
   58.8530   25.5300   46.3820 S   0  0  0  0  0  0  0  0  0  0  0  0
   58.3080   27.2210   46.0370 C   0  0  0  0  0  0  0  0  0  0  0  0
   56.6310   25.2060   44.3920 N   0  0  0  0  0  0  0  0  0  0  0  0
   56.6910   23.8800   43.8920 C   0  0  0  0  0  0  0  0  0  0  0  0
   57.7770   23.1050   44.3170 C   0  0  0  0  0  0  0  0  0  0  0  0
   57.9400   21.8000   43.8980 C   0  0  0  0  0  0  0  0  0  0  0  0
   56.9650   21.3010   43.0300 C   0  0  0  0  0  0  0  0  0  0  0  0
   55.9280   22.0650   42.6330 N   0  0  0  0  0  0  0  0  0  0  0  0
   55.7570   23.3390   43.0350 C   0  0  0  0  0  0  0  0  0  0  0  0
   55.9300   29.3600   45.5320 H   0  0  0  0  0  0  0  0  0  0  0  0
   57.8336   31.7592   47.3361 H   0  0  0  0  0  0  0  0  0  0  0  0
   57.6542   34.1725   46.8178 H   0  0  0  0  0  0  0  0  0  0  0  0
   57.6125   35.0100   44.4994 H   0  0  0  0  0  0  0  0  0  0  0  0
   57.7584   33.3674   42.6135 H   0  0  0  0  0  0  0  0  0  0  0  0
   57.9379   30.9811   43.1506 H   0  0  0  0  0  0  0  0  0  0  0  0
   61.5965   27.9332   46.0365 H   0  0  0  0  0  0  0  0  0  0  0  0
   61.5005   25.3064   46.5351 H   0  0  0  0  0  0  0  0  0  0  0  0
   57.0540   25.9500   43.7870 H   0  0  0  0  0  0  0  0  0  0  0  0
   58.5173   23.5463   45.0005 H   0  0  0  0  0  0  0  0  0  0  0  0
   58.7907   21.1864   44.2292 H   0  0  0  0  0  0  0  0  0  0  0  0
   57.0453   20.2666   42.6644 H   0  0  0  0  0  0  0  0  0  0  0  0
   54.8966   23.9307   42.6893 H   0  0  0  0  0  0  0  0  0  0  0  0
  1  2  2  0
  2  3  1  0
  3  4  2  0
  4  5  1  0
  5  6  1  0
  6  7  1  0
  7  8  2  0
  8  9  1  0
  9 10  2  0
 10 11  1  0
 11 12  2  0
  6 13  2  0
 13 14  1  0
 14 15  1  0
 15 16  2  0
 16 17  1  0
 17 18  1  0
  2 19  1  0
 19 20  1  0
 20 21  2  0
 21 22  1  0
 22 23  2  0
 23 24  1  0
 24 25  2  0
 18  4  1  0
 25 20  1  0
 12  7  1  0
 18 14  2  0
  5 26  1  0
  8 27  1  0
  9 28  1  0
 10 29  1  0
 11 30  1  0
 12 31  1  0
 15 32  1  0
 16 33  1  0
 19 34  1  0
 21 35  1  0
 22 36  1  0
 23 37  1  0
 25 38  1  0
M  END
>  <smiles>  (80) 
O=C(N=c1[nH]c(-c2ccccc2)nc2ccsc12)Nc1cccnc1

>  <score_type>  (80) 
oracle

>  <origin>  (80) 
adg

>  <m_score__min__energy>  (80) 
-8.6300000000000008

>  <m_primary>  (80) 
energy

$$$$
80:0
     RDKit          3D

 54 56  0  0  0  0  0  0  0  0999 V2000
   55.2260   29.3380   45.0780 O   0  0  0  0  0  0  0  0  0  0  0  0
   56.4070   29.6730   44.7980 C   0  0  0  0  0  0  0  0  0  0  0  0
   57.5160   28.6650   44.9520 C   0  0  0  0  0  0  0  0  0  0  0  0
   57.1460   27.6150   45.9020 N   0  0  0  0  0  0  0  0  0  0  0  0
   58.1270   26.7100   46.4290 C   0  0  0  0  0  0  0  0  0  0  0  0
   59.3410   26.8350   46.1100 O   0  0  0  0  0  0  0  0  0  0  0  0
   57.7270   25.6330   47.3900 C   0  0  0  0  0  0  0  0  0  0  0  0
   56.3060   25.3430   47.2360 N   0  0  0  0  0  0  0  0  0  0  0  0
   55.6470   25.1230   45.9810 C   0  0  0  0  0  0  0  0  0  0  0  0
   54.7600   25.9380   45.6130 O   0  0  0  0  0  0  0  0  0  0  0  0
   56.0000   23.9970   45.0930 C   0  0  0  0  0  0  0  0  0  0  0  0
   56.3120   24.2410   43.7460 C   0  0  0  0  0  0  0  0  0  0  0  0
   56.6260   23.1810   42.8910 C   0  0  0  0  0  0  0  0  0  0  0  0
   56.6170   21.8670   43.3700 C   0  0  0  0  0  0  0  0  0  0  0  0
   56.9210   20.8400   42.5410 F   0  0  0  0  0  0  0  0  0  0  0  0
   56.2860   21.6140   44.7060 C   0  0  0  0  0  0  0  0  0  0  0  0
   55.9720   22.6740   45.5630 C   0  0  0  0  0  0  0  0  0  0  0  0
   56.6620   31.0200   44.3780 N   0  0  0  0  0  0  0  0  0  0  0  0
   57.3780   32.0200   45.1160 C   0  0  0  0  0  0  0  0  0  0  0  0
   57.1210   33.3910   44.9410 C   0  0  0  0  0  0  0  0  0  0  0  0
   57.8170   34.3370   45.6960 C   0  0  0  0  0  0  0  0  0  0  0  0
   58.7570   33.9260   46.6430 C   0  0  0  0  0  0  0  0  0  0  0  0
   58.9960   32.5610   46.8530 C   0  0  0  0  0  0  0  0  0  0  0  0
   60.1590   32.0390   48.0760 S   0  0  0  0  0  0  0  0  0  0  0  0
   59.7920   30.6600   48.5510 O   0  0  0  0  0  0  0  0  0  0  0  0
   60.0880   32.9710   49.2550 O   0  0  0  0  0  0  0  0  0  0  0  0
   61.7920   32.0240   47.4510 N   0  0  0  0  0  0  0  0  0  0  0  0
   62.7720   31.6350   48.4900 C   0  0  0  0  0  0  0  0  0  0  0  0
   63.5740   32.8430   49.0080 C   0  0  0  0  0  0  0  0  0  0  0  0
   64.2870   33.5260   47.9870 O   0  0  0  0  0  0  0  0  0  0  0  0
   63.6320   33.5150   46.7240 C   0  0  0  0  0  0  0  0  0  0  0  0
   62.1110   33.3140   46.8100 C   0  0  0  0  0  0  0  0  0  0  0  0
   58.3020   31.6130   46.0880 C   0  0  0  0  0  0  0  0  0  0  0  0
   57.7237   28.2072   43.9736 H   0  0  0  0  0  0  0  0  0  0  0  0
   58.4081   29.1829   45.3340 H   0  0  0  0  0  0  0  0  0  0  0  0
   56.1560   27.5280   46.2280 H   0  0  0  0  0  0  0  0  0  0  0  0
   58.3106   24.7236   47.1843 H   0  0  0  0  0  0  0  0  0  0  0  0
   57.9216   25.9706   48.4187 H   0  0  0  0  0  0  0  0  0  0  0  0
   56.3093   25.2717   43.3617 H   0  0  0  0  0  0  0  0  0  0  0  0
   56.8806   23.3805   41.8396 H   0  0  0  0  0  0  0  0  0  0  0  0
   56.2727   20.5805   45.0826 H   0  0  0  0  0  0  0  0  0  0  0  0
   55.7020   22.4703   46.6097 H   0  0  0  0  0  0  0  0  0  0  0  0
   56.3698   33.7192   44.2075 H   0  0  0  0  0  0  0  0  0  0  0  0
   57.6242   35.4093   45.5443 H   0  0  0  0  0  0  0  0  0  0  0  0
   59.3118   34.6758   47.2261 H   0  0  0  0  0  0  0  0  0  0  0  0
   62.2331   31.1786   49.3333 H   0  0  0  0  0  0  0  0  0  0  0  0
   63.4808   30.9247   48.0394 H   0  0  0  0  0  0  0  0  0  0  0  0
   62.8747   33.5502   49.4779 H   0  0  0  0  0  0  0  0  0  0  0  0
   64.3174   32.4577   49.7213 H   0  0  0  0  0  0  0  0  0  0  0  0
   63.8262   34.4761   46.2254 H   0  0  0  0  0  0  0  0  0  0  0  0
   64.0349   32.6581   46.1642 H   0  0  0  0  0  0  0  0  0  0  0  0
   61.6716   34.1302   47.4023 H   0  0  0  0  0  0  0  0  0  0  0  0
   61.6954   33.3157   45.7915 H   0  0  0  0  0  0  0  0  0  0  0  0
   58.4842   30.5407   46.2521 H   0  0  0  0  0  0  0  0  0  0  0  0
  1  2  2  0
  2  3  1  0
  3  4  1  0
  4  5  1  0
  5  6  2  0
  5  7  1  0
  7  8  1  0
  8  9  1  0
  9 10  2  0
  9 11  1  0
 11 12  2  0
 12 13  1  0
 13 14  2  0
 14 15  1  0
 14 16  1  0
 16 17  2  0
  2 18  1  0
 18 19  1  0
 19 20  2  0
 20 21  1  0
 21 22  2  0
 22 23  1  0
 23 24  1  0
 24 25  2  0
 24 26  2  0
 24 27  1  0
 27 28  1  0
 28 29  1  0
 29 30  1  0
 30 31  1  0
 31 32  1  0
 23 33  2  0
 17 11  1  0
 33 19  1  0
 32 27  1  0
  3 34  1  0
  3 35  1  0
  4 36  1  0
  7 37  1  0
  7 38  1  0
 12 39  1  0
 13 40  1  0
 16 41  1  0
 17 42  1  0
 20 43  1  0
 21 44  1  0
 22 45  1  0
 28 46  1  0
 28 47  1  0
 29 48  1  0
 29 49  1  0
 31 50  1  0
 31 51  1  0
 32 52  1  0
 32 53  1  0
 33 54  1  0
M  CHG  2   8  -1  18  -1
M  END
>  <UniqueID>  (81) 
76

>  <SMILES>  (81) 
O=C(CNC(=O)C[N-]C(=O)c1ccc(F)cc1)[N-]c1cccc(S(=O)(=O)N2CCOCC2)c1

>  <Energy>  (81) 
72.63932996717469

>  <Genealogy>  (81) 
O=C(CNC(=O)C[N-]C(=O)c1ccc(F)cc1)[N-]c1cccc(S(=O)(=O)N2CCOCC2)c1 (protonated)
O=C(CNC(=O)C[N-]C(=O)c1ccc(F)cc1)[N-]c1cccc(S(=O)(=O)N2CCOCC2)c1 (3D coordinates assigned)
O=C(CNC(=O)C[N-]C(=O)c1ccc(F)cc1)[N-]c1cccc(S(=O)(=O)N2CCOCC2)c1 (nonaromatic ring conformer: 72.63932996717469 kcal/mol)

>  <smiles>  (81) 
O=C(CNC(=O)c1ccc(F)cc1)NCC(=O)Nc1cccc(S(=O)(=O)N2CCOCC2)c1

>  <score_type>  (81) 
oracle

>  <origin>  (81) 
adg

>  <m_score__min__energy>  (81) 
-13.220000000000001

>  <m_primary>  (81) 
energy

$$$$
81:0
     RDKit          3D

 43 45  0  0  0  0  0  0  0  0999 V2000
   56.1527   29.3416   42.3925 H   0  0  0  0  0  0  0  0  0  0  0  0
   56.6780   30.1150   42.9720 C   0  0  0  0  0  0  0  0  0  0  0  0
   56.8700   29.9500   44.3060 N   0  0  0  0  0  0  0  0  0  0  0  0
   57.5020   30.8730   45.0830 C   0  0  0  0  0  0  0  0  0  0  0  0
   57.7100   30.5540   46.3330 N   0  0  0  0  0  0  0  0  0  0  0  0
   58.9370   30.5160   47.0740 C   0  0  0  0  0  0  0  0  0  0  0  0
   60.1570   30.5180   46.3850 C   0  0  0  0  0  0  0  0  0  0  0  0
   60.1653   30.5172   45.2850 H   0  0  0  0  0  0  0  0  0  0  0  0
   61.3640   30.5210   47.0910 C   0  0  0  0  0  0  0  0  0  0  0  0
   62.3193   30.4982   46.5461 H   0  0  0  0  0  0  0  0  0  0  0  0
   61.3580   30.5530   48.4890 C   0  0  0  0  0  0  0  0  0  0  0  0
   62.5280   30.5560   49.1730 F   0  0  0  0  0  0  0  0  0  0  0  0
   60.1440   30.5970   49.1810 C   0  0  0  0  0  0  0  0  0  0  0  0
   60.1394   30.6348   50.2803 H   0  0  0  0  0  0  0  0  0  0  0  0
   58.9350   30.5930   48.4770 C   0  0  0  0  0  0  0  0  0  0  0  0
   57.9815   30.6502   49.0226 H   0  0  0  0  0  0  0  0  0  0  0  0
   57.9150   32.1020   44.4830 C   0  0  0  0  0  0  0  0  0  0  0  0
   58.3430   33.2950   45.2430 C   0  0  0  0  0  0  0  0  0  0  0  0
   58.7860   34.3000   44.6220 O   0  0  0  0  0  0  0  0  0  0  0  0
   58.2000   33.3330   46.6700 N   0  0  0  0  0  0  0  0  0  0  0  0
   57.7480   32.5260   47.1580 H   0  0  0  0  0  0  0  0  0  0  0  0
   58.7040   34.4400   47.4790 C   0  0  0  0  0  0  0  0  0  0  0  0
   58.0304   34.6001   48.3338 H   0  0  0  0  0  0  0  0  0  0  0  0
   58.7471   35.3459   46.8565 H   0  0  0  0  0  0  0  0  0  0  0  0
   60.0890   34.1310   47.9890 C   0  0  0  0  0  0  0  0  0  0  0  0
   61.1450   33.9570   47.0780 C   0  0  0  0  0  0  0  0  0  0  0  0
   60.9526   34.0316   45.9975 H   0  0  0  0  0  0  0  0  0  0  0  0
   62.4370   33.6900   47.5360 C   0  0  0  0  0  0  0  0  0  0  0  0
   63.7470   33.4760   46.3900 Cl  0  0  0  0  0  0  0  0  0  0  0  0
   62.6860   33.5980   48.9070 C   0  0  0  0  0  0  0  0  0  0  0  0
   63.7041   33.3879   49.2666 H   0  0  0  0  0  0  0  0  0  0  0  0
   61.6460   33.7720   49.8230 C   0  0  0  0  0  0  0  0  0  0  0  0
   61.8493   33.6978   50.9015 H   0  0  0  0  0  0  0  0  0  0  0  0
   60.3380   34.0420   49.3740 C   0  0  0  0  0  0  0  0  0  0  0  0
   59.2710   34.2280   50.2690 O   0  0  0  0  0  0  0  0  0  0  0  0
   59.0870   33.4870   51.4710 C   0  0  0  0  0  0  0  0  0  0  0  0
   59.2506   34.1458   52.3366 H   0  0  0  0  0  0  0  0  0  0  0  0
   58.0625   33.0878   51.5025 H   0  0  0  0  0  0  0  0  0  0  0  0
   59.8058   32.6549   51.5025 H   0  0  0  0  0  0  0  0  0  0  0  0
   57.7590   32.2550   43.0960 C   0  0  0  0  0  0  0  0  0  0  0  0
   58.1250   33.1681   42.6037 H   0  0  0  0  0  0  0  0  0  0  0  0
   57.1450   31.2610   42.3380 C   0  0  0  0  0  0  0  0  0  0  0  0
   57.0308   31.3811   41.2506 H   0  0  0  0  0  0  0  0  0  0  0  0
  1  2  1  0
  2  3  1  0
  3  4  1  0
  4  5  2  0
  5  6  1  0
  6  7  2  0
  7  8  1  0
  7  9  1  0
  9 10  1  0
  9 11  2  0
 11 12  1  0
 11 13  1  0
 13 14  1  0
 13 15  2  0
 15 16  1  0
  4 17  1  0
 17 18  1  0
 18 19  2  0
 18 20  1  0
 20 21  1  0
 20 22  1  0
 22 23  1  0
 22 24  1  0
 22 25  1  0
 25 26  2  0
 26 27  1  0
 26 28  1  0
 28 29  1  0
 28 30  2  0
 30 31  1  0
 30 32  1  0
 32 33  1  0
 32 34  2  0
 34 35  1  0
 35 36  1  0
 36 37  1  0
 36 38  1  0
 36 39  1  0
 17 40  2  0
 40 41  1  0
 40 42  1  0
 42 43  1  0
 42  2  2  0
 15  6  1  0
 34 25  1  0
M  CHG  1   3  -1
M  END
>  <UniqueID>  (82) 
77

>  <SMILES>  (82) 
COc1ccc(Cl)cc1CNC(=O)c1ccc[n-]/c1=N/c1ccc(F)cc1

>  <Energy>  (82) 
62.55825897800563

>  <Genealogy>  (82) 
COc1ccc(Cl)cc1CNC(=O)c1ccc[n-]c1=Nc1ccc(F)cc1 (protonated)
COc1ccc(Cl)cc1CNC(=O)c1ccc[n-]/c1=N/c1ccc(F)cc1 (cis-trans isomerization)
COc1ccc(Cl)cc1CNC(=O)c1ccc[n-]/c1=N/c1ccc(F)cc1 (3D coordinates assigned)
COc1ccc(Cl)cc1CNC(=O)c1ccc[n-]/c1=N/c1ccc(F)cc1 (optimized conformer: 62.55825897800563 kcal/mol)

>  <smiles>  (82) 
COc1ccc(Cl)cc1CNC(=O)c1ccc[nH]c1=Nc1ccc(F)cc1

>  <score_type>  (82) 
oracle

>  <origin>  (82) 
adg

>  <m_score__min__energy>  (82) 
-9.3699999999999992

>  <m_primary>  (82) 
energy

$$$$
82:0
     RDKit          3D

 44 47  0  0  0  0  0  0  0  0999 V2000
   58.4800   34.4940   46.2630 O   0  0  0  0  0  0  0  0  0  0  0  0
   58.5840   33.2680   45.9850 C   0  0  0  0  0  0  0  0  0  0  0  0
   57.6800   32.7140   45.1870 O   0  0  0  0  0  0  0  0  0  0  0  0
   57.7130   31.4310   44.8610 C   0  0  0  0  0  0  0  0  0  0  0  0
   56.7330   30.9020   44.0170 C   0  0  0  0  0  0  0  0  0  0  0  0
   56.7600   29.5500   43.6680 C   0  0  0  0  0  0  0  0  0  0  0  0
   57.7710   28.7070   44.1580 C   0  0  0  0  0  0  0  0  0  0  0  0
   57.7740   27.2810   43.7720 C   0  0  0  0  0  0  0  0  0  0  0  0
   58.4910   26.4150   44.4170 N   0  0  0  0  0  0  0  0  0  0  0  0
   57.9200   25.5170   45.4110 C   0  0  0  0  0  0  0  0  0  0  0  0
   57.5010   24.2390   44.7440 C   0  0  0  0  0  0  0  0  0  0  0  0
   58.2280   23.0560   44.9590 C   0  0  0  0  0  0  0  0  0  0  0  0
   57.8140   21.8580   44.3680 C   0  0  0  0  0  0  0  0  0  0  0  0
   56.6680   21.8260   43.5690 C   0  0  0  0  0  0  0  0  0  0  0  0
   56.2680   20.6260   42.9860 O   0  0  0  0  0  0  0  0  0  0  0  0
   55.9300   23.0010   43.3630 C   0  0  0  0  0  0  0  0  0  0  0  0
   56.3420   24.2000   43.9530 C   0  0  0  0  0  0  0  0  0  0  0  0
   58.7590   29.2380   45.0080 C   0  0  0  0  0  0  0  0  0  0  0  0
   58.7320   30.6010   45.3620 C   0  0  0  0  0  0  0  0  0  0  0  0
   59.6920   31.1840   46.2010 C   0  0  0  0  0  0  0  0  0  0  0  0
   60.6370   30.4840   46.6620 O   0  0  0  0  0  0  0  0  0  0  0  0
   59.6070   32.5180   46.5060 N   0  0  0  0  0  0  0  0  0  0  0  0
   60.5860   33.1290   47.3720 C   0  0  0  0  0  0  0  0  0  0  0  0
   60.2100   33.6190   48.6340 C   0  0  0  0  0  0  0  0  0  0  0  0
   61.1610   34.2100   49.4720 C   0  0  0  0  0  0  0  0  0  0  0  0
   62.4910   34.3170   49.0560 C   0  0  0  0  0  0  0  0  0  0  0  0
   62.8730   33.8310   47.8030 C   0  0  0  0  0  0  0  0  0  0  0  0
   61.9260   33.2390   46.9620 C   0  0  0  0  0  0  0  0  0  0  0  0
   55.9372   31.5530   43.6260 H   0  0  0  0  0  0  0  0  0  0  0  0
   55.9835   29.1421   43.0042 H   0  0  0  0  0  0  0  0  0  0  0  0
   57.1578   26.9488   42.9235 H   0  0  0  0  0  0  0  0  0  0  0  0
   58.6718   25.2987   46.1837 H   0  0  0  0  0  0  0  0  0  0  0  0
   57.0448   25.9929   45.8774 H   0  0  0  0  0  0  0  0  0  0  0  0
   59.1258   23.0722   45.5943 H   0  0  0  0  0  0  0  0  0  0  0  0
   58.3928   20.9372   44.5328 H   0  0  0  0  0  0  0  0  0  0  0  0
   56.7840   19.7670   43.1350 H   0  0  0  0  0  0  0  0  0  0  0  0
   55.0261   22.9792   42.7366 H   0  0  0  0  0  0  0  0  0  0  0  0
   55.7550   25.1170   43.7965 H   0  0  0  0  0  0  0  0  0  0  0  0
   59.5551   28.5863   45.3973 H   0  0  0  0  0  0  0  0  0  0  0  0
   59.1639   33.5375   48.9641 H   0  0  0  0  0  0  0  0  0  0  0  0
   60.8619   34.5910   50.4596 H   0  0  0  0  0  0  0  0  0  0  0  0
   63.2374   34.7841   49.7154 H   0  0  0  0  0  0  0  0  0  0  0  0
   63.9205   33.9143   47.4777 H   0  0  0  0  0  0  0  0  0  0  0  0
   62.2306   32.8580   45.9761 H   0  0  0  0  0  0  0  0  0  0  0  0
  1  2  2  0
  2  3  1  0
  3  4  1  0
  4  5  2  0
  5  6  1  0
  6  7  2  0
  7  8  1  0
  8  9  2  3
  9 10  1  0
 10 11  1  0
 11 12  2  0
 12 13  1  0
 13 14  2  0
 14 15  1  0
 14 16  1  0
 16 17  2  0
  7 18  1  0
 18 19  2  0
 19 20  1  0
 20 21  2  0
 20 22  1  0
 22 23  1  0
 23 24  2  0
 24 25  1  0
 25 26  2  0
 26 27  1  0
 27 28  2  0
 22  2  1  0
 28 23  1  0
 19  4  1  0
 17 11  1  0
  5 29  1  0
  6 30  1  0
  8 31  1  0
 10 32  1  0
 10 33  1  0
 12 34  1  0
 13 35  1  0
 15 36  1  0
 16 37  1  0
 17 38  1  0
 18 39  1  0
 24 40  1  0
 25 41  1  0
 26 42  1  0
 27 43  1  0
 28 44  1  0
M  END
>  <UniqueID>  (83) 
78

>  <SMILES>  (83) 
O=c1oc2ccc(C=NCc3ccc(O)cc3)cc2c(=O)n1-c1ccccc1

>  <Energy>  (83) 
60.56517311871262

>  <Genealogy>  (83) 
O=c1oc2ccc(C=NCc3ccc(O)cc3)cc2c(=O)n1-c1ccccc1 (3D coordinates assigned)
O=c1oc2ccc(C=NCc3ccc(O)cc3)cc2c(=O)n1-c1ccccc1 (optimized conformer: 60.56517311871262 kcal/mol)

>  <smiles>  (83) 
O=c1oc2ccc(C=NCc3ccc(O)cc3)cc2c(=O)n1-c1ccccc1

>  <score_type>  (83) 
oracle

>  <origin>  (83) 
adg

>  <m_score__min__energy>  (83) 
-8.7200000000000006

>  <m_primary>  (83) 
energy

$$$$
83:0
     RDKit          3D

 33 34  0  0  0  0  0  0  0  0999 V2000
   54.7780   27.1040   45.9670 H   0  0  0  0  0  0  0  0  0  0  0  0
   54.4590   26.1450   45.8810 O   0  0  0  0  0  0  0  0  0  0  0  0
   55.2980   25.1500   45.3880 C   0  0  0  0  0  0  0  0  0  0  0  0
   56.6880   25.2790   45.3380 C   0  0  0  0  0  0  0  0  0  0  0  0
   57.5100   26.4910   45.7460 C   0  0  2  0  0  0  0  0  0  0  0  0
   56.8520   27.2180   46.7580 O   0  0  0  0  0  0  0  0  0  0  0  0
   56.0040   27.5750   46.3850 H   0  0  0  0  0  0  0  0  0  0  0  0
   57.7740   27.4010   44.5590 C   0  0  0  0  0  0  0  0  0  0  0  0
   57.9700   26.9515   43.5743 H   0  0  0  0  0  0  0  0  0  0  0  0
   57.7750   28.7350   44.6770 C   0  0  0  0  0  0  0  0  0  0  0  0
   58.7387   29.2616   44.7404 H   0  0  0  0  0  0  0  0  0  0  0  0
   56.5270   29.5240   44.7250 C   0  0  0  0  0  0  0  0  0  0  0  0
   55.4270   28.9460   44.9310 O   0  0  0  0  0  0  0  0  0  0  0  0
   56.5240   30.9390   44.4730 N   0  0  0  0  0  0  0  0  0  0  0  0
   57.3050   31.8260   45.0230 C   0  0  0  0  0  0  0  0  0  0  0  0
   57.7660   31.6700   46.2980 N   0  0  0  0  0  0  0  0  0  0  0  0
   58.5640   32.5950   46.8960 C   0  0  0  0  0  0  0  0  0  0  0  0
   58.9215   32.4320   47.9234 H   0  0  0  0  0  0  0  0  0  0  0  0
   58.9290   33.7520   46.2040 C   0  0  0  0  0  0  0  0  0  0  0  0
   59.9570   34.9530   46.9630 Cl  0  0  0  0  0  0  0  0  0  0  0  0
   58.4610   33.9440   44.9010 C   0  0  0  0  0  0  0  0  0  0  0  0
   58.7362   34.8521   44.3446 H   0  0  0  0  0  0  0  0  0  0  0  0
   57.6430   32.9800   44.3070 C   0  0  0  0  0  0  0  0  0  0  0  0
   57.2672   33.1269   43.2837 H   0  0  0  0  0  0  0  0  0  0  0  0
   58.8450   26.0000   46.3230 C   0  0  0  0  0  0  0  0  0  0  0  0
   58.7980   26.0173   47.4219 H   0  0  0  0  0  0  0  0  0  0  0  0
   59.0368   24.9725   45.9803 H   0  0  0  0  0  0  0  0  0  0  0  0
   59.6569   26.6584   45.9803 H   0  0  0  0  0  0  0  0  0  0  0  0
   57.2990   23.8720   44.6390 S   0  0  0  0  0  0  0  0  0  0  0  0
   55.8250   23.0900   44.4310 C   0  0  0  0  0  0  0  0  0  0  0  0
   55.6815   22.0870   44.0028 H   0  0  0  0  0  0  0  0  0  0  0  0
   54.8210   23.9290   44.8930 C   0  0  0  0  0  0  0  0  0  0  0  0
   53.7542   23.6616   44.8726 H   0  0  0  0  0  0  0  0  0  0  0  0
  1  2  1  0
  2  3  1  0
  3  4  2  0
  4  5  1  0
  5  6  1  1
  6  7  1  0
  5  8  1  0
  8  9  1  0
  8 10  2  0
 10 11  1  0
 10 12  1  0
 12 13  2  0
 12 14  1  0
 14 15  2  0
 15 16  1  0
 16 17  1  0
 17 18  1  0
 17 19  2  0
 19 20  1  0
 19 21  1  0
 21 22  1  0
 21 23  2  0
 23 24  1  0
  5 25  1  0
 25 26  1  0
 25 27  1  0
 25 28  1  0
  4 29  1  0
 29 30  1  0
 30 31  1  0
 30 32  2  0
 32 33  1  0
 32  3  1  0
 23 15  1  0
M  CHG  1  16  -1
M  END
>  <UniqueID>  (84) 
79

>  <SMILES>  (84) 
C[C@@](O)(/C=C/C(=O)/N=c1/ccc(Cl)c[n-]1)c1sccc1O

>  <Energy>  (84) 
62.394405721416675

>  <Genealogy>  (84) 
CC(O)(C=CC(=O)N=c1ccc(Cl)c[n-]1)c1sccc1O (protonated)
C[C@@](O)(C=CC(=O)N=c1ccc(Cl)c[n-]1)c1sccc1O (chirality)
C[C@@](O)(/C=C/C(=O)/N=c1/ccc(Cl)c[n-]1)c1sccc1O (cis-trans isomerization)
C[C@@](O)(/C=C/C(=O)/N=c1/ccc(Cl)c[n-]1)c1sccc1O (3D coordinates assigned)
C[C@@](O)(/C=C/C(=O)/N=c1/ccc(Cl)c[n-]1)c1sccc1O (optimized conformer: 62.394405721416675 kcal/mol)

>  <smiles>  (84) 
CC(O)(C=CC(=O)N=c1ccc(Cl)c[nH]1)c1sccc1O

>  <score_type>  (84) 
oracle

>  <origin>  (84) 
adg

>  <m_score__min__energy>  (84) 
-10.26

>  <m_primary>  (84) 
energy

$$$$
84:0
     RDKit          3D

 34 35  0  0  0  0  0  0  0  0999 V2000
   58.4680   34.2150   52.5470 C   0  0  0  0  0  0  0  0  0  0  0  0
   58.5730   32.9090   51.8340 C   0  0  0  0  0  0  0  0  0  0  0  0
   57.6750   31.9200   52.0880 N   0  0  0  0  0  0  0  0  0  0  0  0
   57.7750   30.7110   51.4780 C   0  0  0  0  0  0  0  0  0  0  0  0
   56.9290   29.8120   51.7250 O   0  0  0  0  0  0  0  0  0  0  0  0
   58.8170   30.4660   50.5810 C   0  0  0  0  0  0  0  0  0  0  0  0
   59.7400   31.4900   50.3350 C   0  0  0  0  0  0  0  0  0  0  0  0
   60.9020   31.2790   49.4110 C   0  0  0  0  0  0  0  0  0  0  0  0
   60.7430   30.0270   48.6820 N   0  0  0  0  0  0  0  0  0  0  0  0
   60.6170   29.9470   47.2560 C   0  0  0  0  0  0  0  0  0  0  0  0
   61.6290   30.1420   46.5280 O   0  0  0  0  0  0  0  0  0  0  0  0
   59.3060   29.6350   46.6380 C   0  0  0  0  0  0  0  0  0  0  0  0
   58.5780   30.6360   45.9750 C   0  0  0  0  0  0  0  0  0  0  0  0
   57.3430   30.3450   45.3940 C   0  0  0  0  0  0  0  0  0  0  0  0
   56.8090   29.0550   45.4620 C   0  0  0  0  0  0  0  0  0  0  0  0
   55.5700   28.8260   44.8610 O   0  0  0  0  0  0  0  0  0  0  0  0
   57.5280   28.0350   46.1260 C   0  0  0  0  0  0  0  0  0  0  0  0
   56.8980   26.3870   46.2420 S   0  0  0  0  0  0  0  0  0  0  0  0
   55.1710   26.4240   46.1720 N   0  0  0  0  0  0  0  0  0  0  0  0
   57.3440   25.7670   47.5360 O   0  0  0  0  0  0  0  0  0  0  0  0
   57.4090   25.5480   45.1050 O   0  0  0  0  0  0  0  0  0  0  0  0
   58.7710   28.3370   46.7080 C   0  0  0  0  0  0  0  0  0  0  0  0
   59.6020   32.6830   50.9750 N   0  0  0  0  0  0  0  0  0  0  0  0
   58.4819   34.0419   53.6332 H   0  0  0  0  0  0  0  0  0  0  0  0
   59.3176   34.8551   52.2668 H   0  0  0  0  0  0  0  0  0  0  0  0
   57.5271   34.7111   52.2668 H   0  0  0  0  0  0  0  0  0  0  0  0
   58.9105   29.4915   50.0795 H   0  0  0  0  0  0  0  0  0  0  0  0
   60.9533   32.1126   48.6951 H   0  0  0  0  0  0  0  0  0  0  0  0
   61.8283   31.2353   50.0026 H   0  0  0  0  0  0  0  0  0  0  0  0
   58.9839   31.6565   45.9131 H   0  0  0  0  0  0  0  0  0  0  0  0
   56.7840   31.1390   44.8772 H   0  0  0  0  0  0  0  0  0  0  0  0
   55.0990   27.9310   44.8770 H   0  0  0  0  0  0  0  0  0  0  0  0
   54.9110   26.7260   45.2070 H   0  0  0  0  0  0  0  0  0  0  0  0
   59.3335   27.5461   47.2259 H   0  0  0  0  0  0  0  0  0  0  0  0
  1  2  1  0
  2  3  2  0
  3  4  1  0
  4  5  2  0
  4  6  1  0
  6  7  2  0
  7  8  1  0
  8  9  1  0
  9 10  1  0
 10 11  2  0
 10 12  1  0
 12 13  2  0
 13 14  1  0
 14 15  2  0
 15 16  1  0
 15 17  1  0
 17 18  1  0
 18 19  1  0
 18 20  2  0
 18 21  2  0
 17 22  2  0
  7 23  1  0
 23  2  1  0
 22 12  1  0
  1 24  1  0
  1 25  1  0
  1 26  1  0
  6 27  1  0
  8 28  1  0
  8 29  1  0
 13 30  1  0
 14 31  1  0
 16 32  1  0
 19 33  1  0
 22 34  1  0
M  CHG  3   9  -1  19  -1  23  -1
M  END
>  <UniqueID>  (85) 
80

>  <SMILES>  (85) 
Cc1nc(=O)cc(C[N-]C(=O)c2ccc(O)c(S([NH-])(=O)=O)c2)[n-]1

>  <Energy>  (85) 
33.91044164995152

>  <Genealogy>  (85) 
Cc1nc(=O)cc(C[N-]C(=O)c2ccc(O)c(S([NH-])(=O)=O)c2)[n-]1 (protonated)
Cc1nc(=O)cc(C[N-]C(=O)c2ccc(O)c(S([NH-])(=O)=O)c2)[n-]1 (3D coordinates assigned)
Cc1nc(=O)cc(C[N-]C(=O)c2ccc(O)c(S([NH-])(=O)=O)c2)[n-]1 (optimized conformer: 33.91044164995152 kcal/mol)

>  <smiles>  (85) 
Cc1nc(=O)cc(CNC(=O)c2ccc(O)c(S(N)(=O)=O)c2)[nH]1

>  <score_type>  (85) 
oracle

>  <origin>  (85) 
adg

>  <m_score__min__energy>  (85) 
-12.67

>  <m_primary>  (85) 
energy

$$$$
85:0
     RDKit          3D

 31 32  0  0  0  0  0  0  0  0999 V2000
   59.6659   27.7504   46.0135 H   0  0  0  0  0  0  0  0  0  0  0  0
   58.7140   27.4430   46.4710 C   0  0  0  0  0  0  0  0  0  0  0  0
   58.7720   26.4470   47.5650 C   0  0  0  0  0  0  0  0  0  0  0  0
   59.7320   26.4660   48.3800 O   0  0  0  0  0  0  0  0  0  0  0  0
   57.8320   25.3650   47.6430 N   0  0  0  0  0  0  0  0  0  0  0  0
   56.9740   25.0080   46.7300 C   0  0  0  0  0  0  0  0  0  0  0  0
   55.6950   25.4400   46.7430 N   0  0  0  0  0  0  0  0  0  0  0  0
   54.9840   25.0040   45.7050 N   0  0  0  0  0  0  0  0  0  0  0  0
   55.6970   24.2340   44.8520 C   0  0  0  0  0  0  0  0  0  0  0  0
   55.1180   23.5960   43.6290 C   0  0  0  0  0  0  0  0  0  0  0  0
   55.4649   24.1399   42.7380 H   0  0  0  0  0  0  0  0  0  0  0  0
   54.0205   23.6345   43.6928 H   0  0  0  0  0  0  0  0  0  0  0  0
   55.5240   22.2450   43.5370 O   0  0  0  0  0  0  0  0  0  0  0  0
   56.6330   22.1250   42.6740 C   0  0  0  0  0  0  0  0  0  0  0  0
   57.5522   22.0255   43.2699 H   0  0  0  0  0  0  0  0  0  0  0  0
   56.5092   21.2350   42.0395 H   0  0  0  0  0  0  0  0  0  0  0  0
   56.7025   23.0209   42.0395 H   0  0  0  0  0  0  0  0  0  0  0  0
   57.2890   24.0510   45.3720 S   0  0  0  0  0  0  0  0  0  0  0  0
   57.5910   27.9990   45.9950 C   0  0  0  0  0  0  0  0  0  0  0  0
   56.6478   27.4568   46.1576 H   0  0  0  0  0  0  0  0  0  0  0  0
   57.5220   29.2870   45.2670 C   0  0  0  0  0  0  0  0  0  0  0  0
   58.6540   30.1160   45.1590 C   0  0  0  0  0  0  0  0  0  0  0  0
   59.6130   29.7914   45.5890 H   0  0  0  0  0  0  0  0  0  0  0  0
   58.5660   31.3500   44.5080 C   0  0  0  0  0  0  0  0  0  0  0  0
   59.4591   31.9850   44.4124 H   0  0  0  0  0  0  0  0  0  0  0  0
   57.3470   31.7780   43.9790 C   0  0  0  0  0  0  0  0  0  0  0  0
   57.2814   32.7472   43.4630 H   0  0  0  0  0  0  0  0  0  0  0  0
   56.2100   30.9750   44.1050 C   0  0  0  0  0  0  0  0  0  0  0  0
   55.2489   31.3166   43.6932 H   0  0  0  0  0  0  0  0  0  0  0  0
   56.2910   29.7370   44.7540 C   0  0  0  0  0  0  0  0  0  0  0  0
   55.1460   28.9560   44.8760 O   0  0  0  0  0  0  0  0  0  0  0  0
  1  2  1  0
  2  3  1  0
  3  4  2  0
  3  5  1  0
  5  6  2  0
  6  7  1  0
  7  8  1  0
  8  9  2  0
  9 10  1  0
 10 11  1  0
 10 12  1  0
 10 13  1  0
 13 14  1  0
 14 15  1  0
 14 16  1  0
 14 17  1  0
  9 18  1  0
  2 19  2  3
 19 20  1  0
 19 21  1  0
 21 22  2  0
 22 23  1  0
 22 24  1  0
 24 25  1  0
 24 26  2  0
 26 27  1  0
 26 28  1  0
 28 29  1  0
 28 30  2  0
 30 31  1  0
 18  6  1  0
 30 21  1  0
M  CHG  2   7  -1  31  -1
M  END
>  <UniqueID>  (86) 
81

>  <SMILES>  (86) 
COCc1n[n-]/c(=N/C(=O)C=Cc2ccccc2[O-])s1

>  <Energy>  (86) 
80.20054771819075

>  <Genealogy>  (86) 
COCc1n[n-]c(=NC(=O)C=Cc2ccccc2[O-])s1 (protonated)
COCc1n[n-]/c(=N/C(=O)C=Cc2ccccc2[O-])s1 (cis-trans isomerization)
COCc1n[n-]/c(=N/C(=O)C=Cc2ccccc2[O-])s1 (3D coordinates assigned)
COCc1n[n-]/c(=N/C(=O)C=Cc2ccccc2[O-])s1 (optimized conformer: 80.20054771819075 kcal/mol)

>  <smiles>  (86) 
COCc1n[nH]c(=NC(=O)C=Cc2ccccc2O)s1

>  <score_type>  (86) 
oracle

>  <origin>  (86) 
adg

>  <m_score__min__energy>  (86) 
-12.449999999999999

>  <m_primary>  (86) 
energy

$$$$
86:0
     RDKit          3D

 36 38  0  0  0  0  0  0  0  0999 V2000
   55.6370   29.7300   43.9980 C   0  0  0  0  0  0  0  0  0  0  0  0
   56.5710   30.7730   43.3960 C   0  0  0  0  0  0  0  0  0  0  0  0
   57.3780   31.4390   44.4660 C   0  0  0  0  0  0  0  0  0  0  0  0
   57.7540   30.7380   45.5670 N   0  0  0  0  0  0  0  0  0  0  0  0
   58.4960   31.3040   46.5550 C   0  0  0  0  0  0  0  0  0  0  0  0
   58.8980   30.2990   47.9920 S   0  0  0  0  0  0  0  0  0  0  0  0
   59.9850   29.1480   47.0790 C   0  0  0  0  0  0  0  0  0  0  0  0
   59.2080   28.3660   46.0560 C   0  0  0  0  0  0  0  0  0  0  0  0
   59.5440   28.4490   44.6980 C   0  0  0  0  0  0  0  0  0  0  0  0
   58.7850   27.7510   43.7560 C   0  0  0  0  0  0  0  0  0  0  0  0
   57.7220   26.9990   44.1550 N   0  0  0  0  0  0  0  0  0  0  0  0
   57.3730   26.9040   45.4660 C   0  0  0  0  0  0  0  0  0  0  0  0
   58.1080   27.5840   46.4400 C   0  0  0  0  0  0  0  0  0  0  0  0
   58.9080   32.6450   46.4310 C   0  0  0  0  0  0  0  0  0  0  0  0
   59.6810   33.3020   47.4060 C   0  0  0  0  0  0  0  0  0  0  0  0
   60.0550   34.6380   47.2220 C   0  0  0  0  0  0  0  0  0  0  0  0
   59.6660   35.3260   46.0710 C   0  0  0  0  0  0  0  0  0  0  0  0
   58.8980   34.6850   45.0950 C   0  0  0  0  0  0  0  0  0  0  0  0
   58.5160   33.3490   45.2690 C   0  0  0  0  0  0  0  0  0  0  0  0
   57.7670   32.7320   44.3200 N   0  0  0  0  0  0  0  0  0  0  0  0
   55.6856   29.7842   45.0956 H   0  0  0  0  0  0  0  0  0  0  0  0
   54.6066   29.9256   43.6665 H   0  0  0  0  0  0  0  0  0  0  0  0
   55.9447   28.7273   43.6665 H   0  0  0  0  0  0  0  0  0  0  0  0
   57.2504   30.2816   42.6840 H   0  0  0  0  0  0  0  0  0  0  0  0
   55.9667   31.5350   42.8820 H   0  0  0  0  0  0  0  0  0  0  0  0
   60.7712   29.7243   46.5694 H   0  0  0  0  0  0  0  0  0  0  0  0
   60.4272   28.4415   47.7968 H   0  0  0  0  0  0  0  0  0  0  0  0
   60.4001   29.0600   44.3760 H   0  0  0  0  0  0  0  0  0  0  0  0
   59.0465   27.8088   42.6891 H   0  0  0  0  0  0  0  0  0  0  0  0
   57.1610   26.4870   43.4380 H   0  0  0  0  0  0  0  0  0  0  0  0
   56.5092   26.2898   45.7603 H   0  0  0  0  0  0  0  0  0  0  0  0
   57.8265   27.5070   47.5006 H   0  0  0  0  0  0  0  0  0  0  0  0
   59.9918   32.7648   48.3142 H   0  0  0  0  0  0  0  0  0  0  0  0
   60.6580   35.1483   47.9875 H   0  0  0  0  0  0  0  0  0  0  0  0
   59.9648   36.3755   45.9320 H   0  0  0  0  0  0  0  0  0  0  0  0
   58.5934   35.2303   44.1895 H   0  0  0  0  0  0  0  0  0  0  0  0
  1  2  1  0
  2  3  1  0
  3  4  2  0
  4  5  1  0
  5  6  1  0
  6  7  1  0
  7  8  1  0
  8  9  2  0
  9 10  1  0
 10 11  2  0
 11 12  1  0
 12 13  2  0
  5 14  2  0
 14 15  1  0
 15 16  2  0
 16 17  1  0
 17 18  2  0
 18 19  1  0
 19 20  2  0
 20  3  1  0
 13  8  1  0
 19 14  1  0
  1 21  1  0
  1 22  1  0
  1 23  1  0
  2 24  1  0
  2 25  1  0
  7 26  1  0
  7 27  1  0
  9 28  1  0
 10 29  1  0
 11 30  1  0
 12 31  1  0
 13 32  1  0
 15 33  1  0
 16 34  1  0
 17 35  1  0
 18 36  1  0
M  CHG  1  11   1
M  END
>  <UniqueID>  (87) 
82

>  <SMILES>  (87) 
CCc1nc(SCc2cc[nH+]cc2)c2ccccc2n1

>  <Energy>  (87) 
33.54813923215295

>  <Genealogy>  (87) 
CCc1nc(SCc2cc[nH+]cc2)c2ccccc2n1 (protonated)
CCc1nc(SCc2cc[nH+]cc2)c2ccccc2n1 (3D coordinates assigned)
CCc1nc(SCc2cc[nH+]cc2)c2ccccc2n1 (optimized conformer: 33.54813923215295 kcal/mol)

>  <smiles>  (87) 
CCc1nc(SCc2ccncc2)c2ccccc2n1

>  <score_type>  (87) 
oracle

>  <origin>  (87) 
adg

>  <m_score__min__energy>  (87) 
-5.9400000000000004

>  <m_primary>  (87) 
energy

$$$$
87:0
     RDKit          3D

 53 55  0  0  0  0  0  0  0  0999 V2000
   65.3560   31.8190   50.4630 C   0  0  0  0  0  0  0  0  0  0  0  0
   64.8860   32.9140   49.6850 O   0  0  0  0  0  0  0  0  0  0  0  0
   63.8740   32.8230   48.7170 C   0  0  0  0  0  0  0  0  0  0  0  0
   63.7610   33.8520   47.7760 C   0  0  0  0  0  0  0  0  0  0  0  0
   62.7710   33.8080   46.7930 C   0  0  0  0  0  0  0  0  0  0  0  0
   61.8800   32.7350   46.7410 C   0  0  0  0  0  0  0  0  0  0  0  0
   61.9750   31.6900   47.6750 C   0  0  0  0  0  0  0  0  0  0  0  0
   61.0300   30.5560   47.6150 C   0  0  0  0  0  0  0  0  0  0  0  0
   59.9250   30.5390   46.8350 N   0  0  0  0  0  0  0  0  0  0  0  0
   59.3730   29.3400   47.1020 C   0  0  0  0  0  0  0  0  0  0  0  0
   58.1410   28.8250   46.4300 C   0  0  0  0  0  0  0  0  0  0  0  0
   58.4700   28.4830   44.7090 S   0  0  0  0  0  0  0  0  0  0  0  0
   59.8180   29.0380   44.3470 O   0  0  0  0  0  0  0  0  0  0  0  0
   58.4700   26.9990   44.4710 O   0  0  0  0  0  0  0  0  0  0  0  0
   57.2320   29.2560   43.6760 C   0  0  0  0  0  0  0  0  0  0  0  0
   56.1840   29.9600   44.5010 C   0  0  0  0  0  0  0  0  0  0  0  0
   55.1460   29.3310   44.8350 O   0  0  0  0  0  0  0  0  0  0  0  0
   56.2880   31.3460   44.8590 N   0  0  0  0  0  0  0  0  0  0  0  0
   57.4330   32.2120   44.6010 C   0  0  0  0  0  0  0  0  0  0  0  0
   57.2240   33.5820   45.2600 C   0  0  0  0  0  0  0  0  0  0  0  0
   58.5460   34.2200   45.7030 C   0  0  0  0  0  0  0  0  0  0  0  0
   58.8160   33.9310   47.1110 N   0  0  0  0  0  0  0  0  0  0  0  0
   58.3790   32.8730   47.8150 C   0  0  0  0  0  0  0  0  0  0  0  0
   58.9170   32.9580   49.0790 C   0  0  0  0  0  0  0  0  0  0  0  0
   59.6910   34.0580   49.1690 N   0  0  0  0  0  0  0  0  0  0  0  0
   59.6070   34.6280   47.9490 C   0  0  0  0  0  0  0  0  0  0  0  0
   60.1650   28.6720   48.0120 C   0  0  0  0  0  0  0  0  0  0  0  0
   59.9400   27.3130   48.5880 C   0  0  0  0  0  0  0  0  0  0  0  0
   61.1730   29.4500   48.3150 O   0  0  0  0  0  0  0  0  0  0  0  0
   62.9740   31.7390   48.6630 C   0  0  0  0  0  0  0  0  0  0  0  0
   65.2535   32.0579   51.5318 H   0  0  0  0  0  0  0  0  0  0  0  0
   64.7636   30.9221   50.2293 H   0  0  0  0  0  0  0  0  0  0  0  0
   66.4142   31.6306   50.2293 H   0  0  0  0  0  0  0  0  0  0  0  0
   64.4578   34.7024   47.8110 H   0  0  0  0  0  0  0  0  0  0  0  0
   62.6928   34.6217   46.0569 H   0  0  0  0  0  0  0  0  0  0  0  0
   61.1003   32.7075   45.9656 H   0  0  0  0  0  0  0  0  0  0  0  0
   57.8160   27.8996   46.9281 H   0  0  0  0  0  0  0  0  0  0  0  0
   57.3511   29.5875   46.4984 H   0  0  0  0  0  0  0  0  0  0  0  0
   57.7221   29.9898   43.0192 H   0  0  0  0  0  0  0  0  0  0  0  0
   56.7364   28.4712   43.0857 H   0  0  0  0  0  0  0  0  0  0  0  0
   58.3404   31.7460   45.0126 H   0  0  0  0  0  0  0  0  0  0  0  0
   57.5396   32.3500   43.5149 H   0  0  0  0  0  0  0  0  0  0  0  0
   56.7323   34.2508   44.5383 H   0  0  0  0  0  0  0  0  0  0  0  0
   56.6036   33.4342   46.1563 H   0  0  0  0  0  0  0  0  0  0  0  0
   59.3646   33.8169   45.0887 H   0  0  0  0  0  0  0  0  0  0  0  0
   58.4719   35.3100   45.5747 H   0  0  0  0  0  0  0  0  0  0  0  0
   57.7107   32.0806   47.4468 H   0  0  0  0  0  0  0  0  0  0  0  0
   58.7420   32.2380   49.8920 H   0  0  0  0  0  0  0  0  0  0  0  0
   60.1259   35.5570   47.6703 H   0  0  0  0  0  0  0  0  0  0  0  0
   59.9501   27.3740   49.6863 H   0  0  0  0  0  0  0  0  0  0  0  0
   58.9660   26.9286   48.2510 H   0  0  0  0  0  0  0  0  0  0  0  0
   60.7382   26.6352   48.2510 H   0  0  0  0  0  0  0  0  0  0  0  0
   63.0541   30.9257   49.3993 H   0  0  0  0  0  0  0  0  0  0  0  0
  1  2  1  0
  2  3  1  0
  3  4  2  0
  4  5  1  0
  5  6  2  0
  6  7  1  0
  7  8  1  0
  8  9  2  0
  9 10  1  0
 10 11  1  0
 11 12  1  0
 12 13  2  0
 12 14  2  0
 12 15  1  0
 15 16  1  0
 16 17  2  0
 16 18  1  0
 18 19  1  0
 19 20  1  0
 20 21  1  0
 21 22  1  0
 22 23  1  0
 23 24  2  0
 24 25  1  0
 25 26  2  0
 10 27  2  0
 27 28  1  0
 27 29  1  0
  7 30  2  0
 30  3  1  0
 29  8  1  0
 26 22  1  0
  1 31  1  0
  1 32  1  0
  1 33  1  0
  4 34  1  0
  5 35  1  0
  6 36  1  0
 11 37  1  0
 11 38  1  0
 15 39  1  0
 15 40  1  0
 19 41  1  0
 19 42  1  0
 20 43  1  0
 20 44  1  0
 21 45  1  0
 21 46  1  0
 23 47  1  0
 24 48  1  0
 26 49  1  0
 28 50  1  0
 28 51  1  0
 28 52  1  0
 30 53  1  0
M  CHG  1  18  -1
M  END
>  <UniqueID>  (88) 
83

>  <SMILES>  (88) 
COc1cccc(-c2nc(CS(=O)(=O)CC(=O)[N-]CCCn3ccnc3)c(C)o2)c1

>  <Energy>  (88) 
95.3566781749896

>  <Genealogy>  (88) 
COc1cccc(-c2nc(CS(=O)(=O)CC(=O)[N-]CCCn3ccnc3)c(C)o2)c1 (protonated)
COc1cccc(-c2nc(CS(=O)(=O)CC(=O)[N-]CCCn3ccnc3)c(C)o2)c1 (3D coordinates assigned)
COc1cccc(-c2nc(CS(=O)(=O)CC(=O)[N-]CCCn3ccnc3)c(C)o2)c1 (optimized conformer: 95.3566781749896 kcal/mol)

>  <smiles>  (88) 
COc1cccc(-c2nc(CS(=O)(=O)CC(=O)NCCCn3ccnc3)c(C)o2)c1

>  <score_type>  (88) 
oracle

>  <origin>  (88) 
adg

>  <m_score__min__energy>  (88) 
-10.59

>  <m_primary>  (88) 
energy

$$$$
88:0
     RDKit          3D

 45 47  0  0  0  0  0  0  0  0999 V2000
   64.3510   31.5450   50.5960 C   0  0  0  0  0  0  0  0  0  0  0  0
   63.3540   32.0440   49.5440 C   0  0  0  0  0  0  0  0  0  0  0  0
   63.6220   33.4390   49.1030 N   0  0  0  0  0  0  0  0  0  0  0  0
   63.8300   33.5030   47.6310 C   0  0  0  0  0  0  0  0  0  0  0  0
   62.5520   33.8150   46.8160 C   0  0  0  0  0  0  0  0  0  0  0  0
   61.3260   33.5610   47.5830 N   0  0  0  0  0  0  0  0  0  0  0  0
   60.1440   33.0810   46.9140 C   0  0  0  0  0  0  0  0  0  0  0  0
   59.8300   31.7100   46.9130 C   0  0  0  0  0  0  0  0  0  0  0  0
   58.6870   31.2480   46.2540 C   0  0  0  0  0  0  0  0  0  0  0  0
   57.8510   32.1390   45.5750 C   0  0  0  0  0  0  0  0  0  0  0  0
   56.6790   31.6340   44.9210 N   0  0  0  0  0  0  0  0  0  0  0  0
   56.6160   30.4730   44.0820 C   0  0  0  0  0  0  0  0  0  0  0  0
   56.2670   30.6100   42.8800 O   0  0  0  0  0  0  0  0  0  0  0  0
   56.8800   29.1210   44.6090 C   0  0  0  0  0  0  0  0  0  0  0  0
   58.0750   28.4290   44.5010 C   0  0  0  0  0  0  0  0  0  0  0  0
   57.8680   27.2160   45.1230 C   0  0  0  0  0  0  0  0  0  0  0  0
   56.5590   27.2500   45.5650 C   0  0  0  0  0  0  0  0  0  0  0  0
   55.8900   26.2080   46.2760 N   0  0  0  0  0  0  0  0  0  0  0  0
   56.4800   25.5690   47.1720 O   0  0  0  0  0  0  0  0  0  0  0  0
   54.5810   25.9090   45.9810 O   0  0  0  0  0  0  0  0  0  0  0  0
   55.9930   28.3890   45.2440 O   0  0  0  0  0  0  0  0  0  0  0  0
   58.1420   33.5140   45.6050 C   0  0  0  0  0  0  0  0  0  0  0  0
   59.2840   33.9790   46.2610 C   0  0  0  0  0  0  0  0  0  0  0  0
   61.2110   34.0660   48.9560 C   0  0  0  0  0  0  0  0  0  0  0  0
   62.5900   34.4120   49.5320 C   0  0  0  0  0  0  0  0  0  0  0  0
   63.9530   31.7442   51.6019 H   0  0  0  0  0  0  0  0  0  0  0  0
   64.5057   30.4632   50.4705 H   0  0  0  0  0  0  0  0  0  0  0  0
   65.3097   32.0695   50.4705 H   0  0  0  0  0  0  0  0  0  0  0  0
   63.4099   31.3825   48.6669 H   0  0  0  0  0  0  0  0  0  0  0  0
   62.3556   32.0315   50.0057 H   0  0  0  0  0  0  0  0  0  0  0  0
   64.5230   33.7320   49.5500 H   0  0  0  0  0  0  0  0  0  0  0  0
   64.5710   34.2887   47.4224 H   0  0  0  0  0  0  0  0  0  0  0  0
   64.1645   32.5029   47.3182 H   0  0  0  0  0  0  0  0  0  0  0  0
   62.5710   34.8743   46.5200 H   0  0  0  0  0  0  0  0  0  0  0  0
   62.5428   33.1526   45.9379 H   0  0  0  0  0  0  0  0  0  0  0  0
   60.4871   30.9977   47.4334 H   0  0  0  0  0  0  0  0  0  0  0  0
   58.4437   30.1754   46.2699 H   0  0  0  0  0  0  0  0  0  0  0  0
   59.0001   28.7762   44.0177 H   0  0  0  0  0  0  0  0  0  0  0  0
   58.5910   26.3956   45.2421 H   0  0  0  0  0  0  0  0  0  0  0  0
   57.4670   34.2272   45.1094 H   0  0  0  0  0  0  0  0  0  0  0  0
   59.5112   35.0553   46.2662 H   0  0  0  0  0  0  0  0  0  0  0  0
   60.5843   34.9700   48.9554 H   0  0  0  0  0  0  0  0  0  0  0  0
   60.7569   33.2826   49.5806 H   0  0  0  0  0  0  0  0  0  0  0  0
   62.8797   35.4151   49.1857 H   0  0  0  0  0  0  0  0  0  0  0  0
   62.5219   34.3787   50.6294 H   0  0  0  0  0  0  0  0  0  0  0  0
  1  2  1  0
  2  3  1  0
  3  4  1  0
  4  5  1  0
  5  6  1  0
  6  7  1  0
  7  8  2  0
  8  9  1  0
  9 10  2  0
 10 11  1  0
 11 12  1  0
 12 13  2  0
 12 14  1  0
 14 15  2  0
 15 16  1  0
 16 17  2  0
 17 18  1  0
 18 19  2  0
 18 20  1  0
 17 21  1  0
 10 22  1  0
 22 23  2  0
  6 24  1  0
 24 25  1  0
 25  3  1  0
 23  7  1  0
 21 14  1  0
  1 26  1  0
  1 27  1  0
  1 28  1  0
  2 29  1  0
  2 30  1  0
  3 31  1  0
  4 32  1  0
  4 33  1  0
  5 34  1  0
  5 35  1  0
  8 36  1  0
  9 37  1  0
 15 38  1  0
 16 39  1  0
 22 40  1  0
 23 41  1  0
 24 42  1  0
 24 43  1  0
 25 44  1  0
 25 45  1  0
M  CHG  4   3   1  11  -1  18   1  20  -1
M  END
>  <UniqueID>  (89) 
84

>  <SMILES>  (89) 
CC[NH+]1CCN(c2ccc([N-]C(=O)c3ccc([N+](=O)[O-])o3)cc2)CC1

>  <Energy>  (89) 
87.99792046393448

>  <Genealogy>  (89) 
CC[NH+]1CCN(c2ccc([N-]C(=O)c3ccc([N+](=O)[O-])o3)cc2)CC1 (protonated)
CC[NH+]1CCN(c2ccc([N-]C(=O)c3ccc([N+](=O)[O-])o3)cc2)CC1 (3D coordinates assigned)
CC[NH+]1CCN(c2ccc([N-]C(=O)c3ccc([N+](=O)[O-])o3)cc2)CC1 (nonaromatic ring conformer: 87.99792046393448 kcal/mol)

>  <smiles>  (89) 
CCN1CCN(c2ccc(NC(=O)c3ccc([N+](=O)[O-])o3)cc2)CC1

>  <score_type>  (89) 
oracle

>  <origin>  (89) 
adg

>  <m_score__min__energy>  (89) 
-8.5600000000000005

>  <m_primary>  (89) 
energy

$$$$
89:0
     RDKit          3D

 72 76  0  0  0  0  0  0  0  0999 V2000
   60.3520   28.1560   50.9090 C   0  0  0  0  0  0  0  0  0  0  0  0
   60.3400   29.4990   50.2230 C   0  0  0  0  0  0  0  0  0  0  0  0
   61.3930   29.8420   49.3610 C   0  0  0  0  0  0  0  0  0  0  0  0
   61.4290   31.0880   48.7110 C   0  0  0  0  0  0  0  0  0  0  0  0
   62.5980   31.3850   47.8100 C   0  0  0  0  0  0  0  0  0  0  0  0
   60.3960   32.0270   48.9560 C   0  0  0  0  0  0  0  0  0  0  0  0
   60.3450   33.6540   48.2410 S   0  0  0  0  0  0  0  0  0  0  0  0
   61.7180   34.1730   47.9130 O   0  0  0  0  0  0  0  0  0  0  0  0
   59.7340   34.5830   49.2540 O   0  0  0  0  0  0  0  0  0  0  0  0
   59.3480   33.6310   46.8080 N   0  0  0  0  0  0  0  0  0  0  0  0
   57.9350   33.4890   47.1830 C   0  0  0  0  0  0  0  0  0  0  0  0
   57.0350   33.3880   45.9340 C   0  0  0  0  0  0  0  0  0  0  0  0
   57.7210   33.7710   44.6760 N   0  0  0  0  0  0  0  0  0  0  0  0
   58.4860   32.6700   44.0460 C   0  0  0  0  0  0  0  0  0  0  0  0
   57.8690   31.3270   44.3590 C   0  0  0  0  0  0  0  0  0  0  0  0
   56.7760   30.8770   43.5990 C   0  0  0  0  0  0  0  0  0  0  0  0
   56.1570   29.6630   43.9020 C   0  0  0  0  0  0  0  0  0  0  0  0
   56.6230   28.8800   44.9600 C   0  0  0  0  0  0  0  0  0  0  0  0
   57.7380   29.2940   45.7070 C   0  0  0  0  0  0  0  0  0  0  0  0
   58.2490   28.4540   46.8130 C   0  0  0  0  0  0  0  0  0  0  0  0
   59.3550   28.7520   47.3300 O   0  0  0  0  0  0  0  0  0  0  0  0
   57.5630   27.2860   47.2990 N   0  0  0  0  0  0  0  0  0  0  0  0
   57.1890   26.2340   46.6310 C   0  0  0  0  0  0  0  0  0  0  0  0
   55.9010   25.9110   46.3660 N   0  0  0  0  0  0  0  0  0  0  0  0
   55.8220   24.7530   45.6650 C   0  0  0  0  0  0  0  0  0  0  0  0
   57.0410   24.1880   45.3260 C   0  0  0  0  0  0  0  0  0  0  0  0
   58.2760   25.1170   45.9890 S   0  0  0  0  0  0  0  0  0  0  0  0
   57.1820   22.8520   44.6640 C   0  0  0  0  0  0  0  0  0  0  0  0
   55.9090   22.3930   44.0590 N   0  0  0  0  0  0  0  0  0  0  0  0
   55.7070   22.9520   42.7080 C   0  0  0  0  0  0  0  0  0  0  0  0
   54.7380   22.6220   44.9410 C   0  0  0  0  0  0  0  0  0  0  0  0
   54.5250   24.1150   45.2750 C   0  0  0  0  0  0  0  0  0  0  0  0
   58.3470   30.5310   45.4210 C   0  0  0  0  0  0  0  0  0  0  0  0
   59.4300   30.9590   46.1860 O   0  0  0  0  0  0  0  0  0  0  0  0
   58.5430   34.9850   44.8610 C   0  0  0  0  0  0  0  0  0  0  0  0
   59.5540   34.8610   46.0250 C   0  0  0  0  0  0  0  0  0  0  0  0
   59.3300   31.6680   49.7960 C   0  0  0  0  0  0  0  0  0  0  0  0
   59.2830   30.4140   50.4230 C   0  0  0  0  0  0  0  0  0  0  0  0
   58.1280   30.0870   51.3320 C   0  0  0  0  0  0  0  0  0  0  0  0
   60.3507   28.3012   51.9994 H   0  0  0  0  0  0  0  0  0  0  0  0
   59.4589   27.5856   50.6140 H   0  0  0  0  0  0  0  0  0  0  0  0
   61.2551   27.6016   50.6140 H   0  0  0  0  0  0  0  0  0  0  0  0
   62.2065   29.1215   49.1905 H   0  0  0  0  0  0  0  0  0  0  0  0
   63.4843   31.6102   48.4214 H   0  0  0  0  0  0  0  0  0  0  0  0
   62.8031   30.5104   47.1751 H   0  0  0  0  0  0  0  0  0  0  0  0
   62.3608   32.2514   47.1751 H   0  0  0  0  0  0  0  0  0  0  0  0
   57.8138   32.5780   47.7875 H   0  0  0  0  0  0  0  0  0  0  0  0
   57.6356   34.3778   47.7578 H   0  0  0  0  0  0  0  0  0  0  0  0
   56.6879   32.3486   45.8384 H   0  0  0  0  0  0  0  0  0  0  0  0
   56.2042   34.0947   46.0767 H   0  0  0  0  0  0  0  0  0  0  0  0
   58.4933   32.8162   42.9558 H   0  0  0  0  0  0  0  0  0  0  0  0
   59.5105   32.6843   44.4462 H   0  0  0  0  0  0  0  0  0  0  0  0
   56.4060   31.4850   42.7603 H   0  0  0  0  0  0  0  0  0  0  0  0
   55.2986   29.3218   43.3048 H   0  0  0  0  0  0  0  0  0  0  0  0
   56.1155   27.9364   45.2091 H   0  0  0  0  0  0  0  0  0  0  0  0
   57.9439   22.9261   43.8740 H   0  0  0  0  0  0  0  0  0  0  0  0
   57.4745   22.1218   45.4330 H   0  0  0  0  0  0  0  0  0  0  0  0
   55.3342   23.9836   42.7900 H   0  0  0  0  0  0  0  0  0  0  0  0
   56.6628   22.9497   42.1636 H   0  0  0  0  0  0  0  0  0  0  0  0
   54.9734   22.3392   42.1636 H   0  0  0  0  0  0  0  0  0  0  0  0
   53.8376   22.2427   44.4357 H   0  0  0  0  0  0  0  0  0  0  0  0
   54.9270   22.0939   45.8873 H   0  0  0  0  0  0  0  0  0  0  0  0
   54.1192   24.6297   44.3916 H   0  0  0  0  0  0  0  0  0  0  0  0
   53.8208   24.1954   46.1162 H   0  0  0  0  0  0  0  0  0  0  0  0
   59.1003   35.1755   43.9319 H   0  0  0  0  0  0  0  0  0  0  0  0
   57.8587   35.8103   45.1071 H   0  0  0  0  0  0  0  0  0  0  0  0
   60.5729   34.8513   45.6105 H   0  0  0  0  0  0  0  0  0  0  0  0
   59.4049   35.7194   46.6965 H   0  0  0  0  0  0  0  0  0  0  0  0
   58.5139   32.3856   49.9662 H   0  0  0  0  0  0  0  0  0  0  0  0
   58.4491   30.1779   52.3801 H   0  0  0  0  0  0  0  0  0  0  0  0
   57.3009   30.7863   51.1400 H   0  0  0  0  0  0  0  0  0  0  0  0
   57.7902   29.0579   51.1400 H   0  0  0  0  0  0  0  0  0  0  0  0
  1  2  1  0
  2  3  2  0
  3  4  1  0
  4  5  1  0
  4  6  2  0
  6  7  1  0
  7  8  2  0
  7  9  2  0
  7 10  1  0
 10 11  1  0
 11 12  1  0
 12 13  1  0
 13 14  1  0
 14 15  1  0
 15 16  2  0
 16 17  1  0
 17 18  2  0
 18 19  1  0
 19 20  1  0
 20 21  2  0
 20 22  1  0
 22 23  2  3
 23 24  1  0
 24 25  1  0
 25 26  2  0
 26 27  1  0
 26 28  1  0
 28 29  1  0
 29 30  1  0
 29 31  1  0
 31 32  1  0
 19 33  2  0
 33 34  1  0
 13 35  1  0
 35 36  1  0
  6 37  1  0
 37 38  2  0
 38 39  1  0
 38  2  1  0
 36 10  1  0
 33 15  1  0
 27 23  1  0
 32 25  1  0
  1 40  1  0
  1 41  1  0
  1 42  1  0
  3 43  1  0
  5 44  1  0
  5 45  1  0
  5 46  1  0
 11 47  1  0
 11 48  1  0
 12 49  1  0
 12 50  1  0
 14 51  1  0
 14 52  1  0
 16 53  1  0
 17 54  1  0
 18 55  1  0
 28 56  1  0
 28 57  1  0
 30 58  1  0
 30 59  1  0
 30 60  1  0
 31 61  1  0
 31 62  1  0
 32 63  1  0
 32 64  1  0
 35 65  1  0
 35 66  1  0
 36 67  1  0
 36 68  1  0
 37 69  1  0
 39 70  1  0
 39 71  1  0
 39 72  1  0
M  CHG  2  24  -1  34  -1
M  END
>  <UniqueID>  (90) 
85

>  <SMILES>  (90) 
Cc1cc(C)c(S(=O)(=O)N2CCN(Cc3cccc(C(=O)N=c4[n-]c5c(s4)CN(C)CC5)c3[O-])CC2)cc1C

>  <Energy>  (90) 
134.98162131086687

>  <Genealogy>  (90) 
Cc1cc(C)c(S(=O)(=O)N2CCN(Cc3cccc(C(=O)N=c4[n-]c5c(s4)CN(C)CC5)c3[O-])CC2)cc1C (protonated)
Cc1cc(C)c(S(=O)(=O)N2CCN(Cc3cccc(C(=O)N=c4[n-]c5c(s4)CN(C)CC5)c3[O-])CC2)cc1C (3D coordinates assigned)
Cc1cc(C)c(S(=O)(=O)N2CCN(Cc3cccc(C(=O)N=c4[n-]c5c(s4)CN(C)CC5)c3[O-])CC2)cc1C (nonaromatic ring conformer: 134.98162131086687 kcal/mol)

>  <smiles>  (90) 
Cc1cc(C)c(S(=O)(=O)N2CCN(Cc3cccc(C(=O)N=c4[nH]c5c(s4)CN(C)CC5)c3O)CC2)cc1C

>  <score_type>  (90) 
oracle

>  <origin>  (90) 
adg

>  <m_score__min__energy>  (90) 
-16.170000000000002

>  <m_primary>  (90) 
energy

$$$$
90:0
     RDKit          3D

 46 48  0  0  0  0  0  0  0  0999 V2000
   58.9320   25.5100   46.6730 O   0  0  0  0  0  0  0  0  0  0  0  0
   57.7690   25.9960   46.6920 C   0  0  0  0  0  0  0  0  0  0  0  0
   57.5590   27.3650   47.0810 N   0  0  0  0  0  0  0  0  0  0  0  0
   58.6170   28.2690   47.4470 C   0  0  0  0  0  0  0  0  0  0  0  0
   59.4400   27.9560   48.5360 C   0  0  0  0  0  0  0  0  0  0  0  0
   60.4600   28.8270   48.9280 C   0  0  0  0  0  0  0  0  0  0  0  0
   60.6660   30.0400   48.2470 C   0  0  0  0  0  0  0  0  0  0  0  0
   61.7220   30.9390   48.6450 N   0  0  0  0  0  0  0  0  0  0  0  0
   62.2270   30.8890   50.0260 C   0  0  0  0  0  0  0  0  0  0  0  0
   63.1510   32.0710   50.3130 C   0  0  0  0  0  0  0  0  0  0  0  0
   64.1760   32.1490   49.2570 N   0  0  0  0  0  0  0  0  0  0  0  0
   65.2920   33.0660   49.5750 C   0  0  0  0  0  0  0  0  0  0  0  0
   66.5380   32.3670   50.1510 C   0  0  0  0  0  0  0  0  0  0  0  0
   66.2160   31.0670   50.5660 O   0  0  0  0  0  0  0  0  0  0  0  0
   63.6390   32.3260   47.8840 C   0  0  0  0  0  0  0  0  0  0  0  0
   62.1290   32.0450   47.7650 C   0  0  0  0  0  0  0  0  0  0  0  0
   59.8230   30.3630   47.1680 C   0  0  0  0  0  0  0  0  0  0  0  0
   58.8030   29.4900   46.7770 C   0  0  0  0  0  0  0  0  0  0  0  0
   56.6290   25.1370   46.3030 C   0  0  0  0  0  0  0  0  0  0  0  0
   56.7790   23.7410   46.3210 C   0  0  0  0  0  0  0  0  0  0  0  0
   55.7180   22.9160   45.9470 C   0  0  0  0  0  0  0  0  0  0  0  0
   54.5030   23.4920   45.5700 C   0  0  0  0  0  0  0  0  0  0  0  0
   53.5370   22.7630   45.2250 O   0  0  0  0  0  0  0  0  0  0  0  0
   54.3620   24.8430   45.5790 N   0  0  0  0  0  0  0  0  0  0  0  0
   55.3790   25.6730   45.9390 C   0  0  0  0  0  0  0  0  0  0  0  0
   55.1490   27.0440   45.9710 O   0  0  0  0  0  0  0  0  0  0  0  0
   56.5820   27.7230   47.1540 H   0  0  0  0  0  0  0  0  0  0  0  0
   59.2823   27.0172   49.0871 H   0  0  0  0  0  0  0  0  0  0  0  0
   61.1075   28.5615   49.7767 H   0  0  0  0  0  0  0  0  0  0  0  0
   61.3757   30.9204   50.7219 H   0  0  0  0  0  0  0  0  0  0  0  0
   62.7974   29.9577   50.1575 H   0  0  0  0  0  0  0  0  0  0  0  0
   62.5650   33.0018   50.3270 H   0  0  0  0  0  0  0  0  0  0  0  0
   63.6358   31.9336   51.2908 H   0  0  0  0  0  0  0  0  0  0  0  0
   65.5845   33.5869   48.6514 H   0  0  0  0  0  0  0  0  0  0  0  0
   64.9260   33.7520   50.3531 H   0  0  0  0  0  0  0  0  0  0  0  0
   67.3178   32.3185   49.3767 H   0  0  0  0  0  0  0  0  0  0  0  0
   66.9028   32.9398   51.0163 H   0  0  0  0  0  0  0  0  0  0  0  0
   65.3340   30.8590   50.1590 H   0  0  0  0  0  0  0  0  0  0  0  0
   63.8242   33.3640   47.5705 H   0  0  0  0  0  0  0  0  0  0  0  0
   64.1522   31.5941   47.2429 H   0  0  0  0  0  0  0  0  0  0  0  0
   61.5723   32.9509   48.0467 H   0  0  0  0  0  0  0  0  0  0  0  0
   61.9087   31.7615   46.7252 H   0  0  0  0  0  0  0  0  0  0  0  0
   59.9674   31.3101   46.6275 H   0  0  0  0  0  0  0  0  0  0  0  0
   58.1424   29.7607   45.9401 H   0  0  0  0  0  0  0  0  0  0  0  0
   57.7362   23.2964   46.6310 H   0  0  0  0  0  0  0  0  0  0  0  0
   55.8373   21.8225   45.9490 H   0  0  0  0  0  0  0  0  0  0  0  0
  1  2  2  0
  2  3  1  0
  3  4  1  0
  4  5  2  0
  5  6  1  0
  6  7  2  0
  7  8  1  0
  8  9  1  0
  9 10  1  0
 10 11  1  0
 11 12  1  0
 12 13  1  0
 13 14  1  0
 11 15  1  0
 15 16  1  0
  7 17  1  0
 17 18  2  0
  2 19  1  0
 19 20  1  0
 20 21  2  0
 21 22  1  0
 22 23  2  0
 22 24  1  0
 24 25  1  0
 25 26  1  0
 18  4  1  0
 25 19  2  0
 16  8  1  0
  3 27  1  0
  5 28  1  0
  6 29  1  0
  9 30  1  0
  9 31  1  0
 10 32  1  0
 10 33  1  0
 12 34  1  0
 12 35  1  0
 13 36  1  0
 13 37  1  0
 14 38  1  0
 15 39  1  0
 15 40  1  0
 16 41  1  0
 16 42  1  0
 17 43  1  0
 18 44  1  0
 20 45  1  0
 21 46  1  0
M  CHG  2  24  -1  26  -1
M  END
>  <UniqueID>  (91) 
86

>  <SMILES>  (91) 
O=C(Nc1ccc(N2CCN(CCO)CC2)cc1)c1ccc(=O)[n-]c1[O-]

>  <Energy>  (91) 
68.57405082379053

>  <Genealogy>  (91) 
O=C(Nc1ccc(N2CCN(CCO)CC2)cc1)c1ccc(=O)[n-]c1[O-] (protonated)
O=C(Nc1ccc(N2CCN(CCO)CC2)cc1)c1ccc(=O)[n-]c1[O-] (3D coordinates assigned)
O=C(Nc1ccc(N2CCN(CCO)CC2)cc1)c1ccc(=O)[n-]c1[O-] (nonaromatic ring conformer: 68.57405082379053 kcal/mol)

>  <smiles>  (91) 
O=C(Nc1ccc(N2CCN(CCO)CC2)cc1)c1ccc(=O)[nH]c1O

>  <score_type>  (91) 
oracle

>  <origin>  (91) 
adg

>  <m_score__min__energy>  (91) 
-12.199999999999999

>  <m_primary>  (91) 
energy

$$$$
91:0
     RDKit          3D

 48 51  0  0  0  0  0  0  0  0999 V2000
   55.7850   28.3590   44.7310 H   0  0  0  0  0  0  0  0  0  0  0  0
   55.5070   29.3620   44.6540 N   0  0  0  0  0  0  0  0  0  0  0  0
   56.3690   30.2810   44.3660 C   0  0  0  0  0  0  0  0  0  0  0  0
   56.5020   30.7220   43.0880 N   0  0  0  0  0  0  0  0  0  0  0  0
   57.4140   31.6830   42.7890 C   0  0  0  0  0  0  0  0  0  0  0  0
   57.5290   32.1940   41.3920 C   0  0  0  0  0  0  0  0  0  0  0  0
   57.7705   33.2670   41.4128 H   0  0  0  0  0  0  0  0  0  0  0  0
   58.3269   31.6487   40.8666 H   0  0  0  0  0  0  0  0  0  0  0  0
   56.5744   32.0431   40.8666 H   0  0  0  0  0  0  0  0  0  0  0  0
   58.1710   32.2250   43.7770 N   0  0  0  0  0  0  0  0  0  0  0  0
   58.0280   31.8030   45.0590 C   0  0  0  0  0  0  0  0  0  0  0  0
   58.8560   32.3920   46.1280 C   0  0  0  0  0  0  0  0  0  0  0  0
   58.4990   33.6720   46.5800 C   0  0  0  0  0  0  0  0  0  0  0  0
   57.5422   34.1139   46.2648 H   0  0  0  0  0  0  0  0  0  0  0  0
   59.3450   34.3880   47.4240 C   0  0  0  0  0  0  0  0  0  0  0  0
   59.0584   35.3879   47.7818 H   0  0  0  0  0  0  0  0  0  0  0  0
   60.5570   33.8230   47.8090 C   0  0  0  0  0  0  0  0  0  0  0  0
   61.2535   34.3936   48.4409 H   0  0  0  0  0  0  0  0  0  0  0  0
   60.8800   32.5680   47.4050 N   0  0  0  0  0  0  0  0  0  0  0  0
   60.0690   31.8120   46.6150 C   0  0  0  0  0  0  0  0  0  0  0  0
   60.4510   30.5860   46.3750 N   0  0  0  0  0  0  0  0  0  0  0  0
   59.6710   29.3830   46.3200 C   0  0  0  0  0  0  0  0  0  0  0  0
   59.3500   28.7870   45.0900 C   0  0  0  0  0  0  0  0  0  0  0  0
   59.7023   29.2406   44.1518 H   0  0  0  0  0  0  0  0  0  0  0  0
   58.5840   27.6190   45.0550 C   0  0  0  0  0  0  0  0  0  0  0  0
   58.3689   27.1358   44.0905 H   0  0  0  0  0  0  0  0  0  0  0  0
   58.0880   27.0590   46.2390 C   0  0  0  0  0  0  0  0  0  0  0  0
   57.3320   25.8410   46.1580 N   0  0  0  0  0  0  0  0  0  0  0  0
   55.9070   25.7180   46.2020 C   0  0  0  0  0  0  0  0  0  0  0  0
   55.1700   26.7220   46.0080 O   0  0  0  0  0  0  0  0  0  0  0  0
   55.3310   24.4170   46.3670 N   0  0  0  0  0  0  0  0  0  0  0  0
   55.8770   23.3380   47.1410 C   0  0  0  0  0  0  0  0  0  0  0  0
   56.9070   22.5130   46.6570 C   0  0  0  0  0  0  0  0  0  0  0  0
   57.3338   22.6948   45.6596 H   0  0  0  0  0  0  0  0  0  0  0  0
   57.3760   21.4910   47.4200 N   0  0  0  0  0  0  0  0  0  0  0  0
   56.8760   21.2200   48.6580 C   0  0  0  0  0  0  0  0  0  0  0  0
   57.4170   20.1340   49.4230 N   0  0  0  0  0  0  0  0  0  0  0  0
   56.6620   19.2470   49.8710 O   0  0  0  0  0  0  0  0  0  0  0  0
   58.7690   20.0460   49.6640 O   0  0  0  0  0  0  0  0  0  0  0  0
   55.8310   22.0070   49.1640 C   0  0  0  0  0  0  0  0  0  0  0  0
   55.4095   21.7959   50.1579 H   0  0  0  0  0  0  0  0  0  0  0  0
   55.3300   23.0600   48.3970 C   0  0  0  0  0  0  0  0  0  0  0  0
   54.5020   23.6732   48.7822 H   0  0  0  0  0  0  0  0  0  0  0  0
   58.3860   27.6750   47.4680 C   0  0  0  0  0  0  0  0  0  0  0  0
   58.0134   27.2361   48.4053 H   0  0  0  0  0  0  0  0  0  0  0  0
   59.1540   28.8430   47.5030 C   0  0  0  0  0  0  0  0  0  0  0  0
   59.3526   29.3394   48.4643 H   0  0  0  0  0  0  0  0  0  0  0  0
   57.1390   30.8160   45.3470 N   0  0  0  0  0  0  0  0  0  0  0  0
  1  2  1  0
  2  3  2  0
  3  4  1  0
  4  5  2  0
  5  6  1  0
  6  7  1  0
  6  8  1  0
  6  9  1  0
  5 10  1  0
 10 11  2  0
 11 12  1  0
 12 13  2  0
 13 14  1  0
 13 15  1  0
 15 16  1  0
 15 17  2  0
 17 18  1  0
 17 19  1  0
 19 20  1  0
 20 21  2  3
 21 22  1  0
 22 23  2  0
 23 24  1  0
 23 25  1  0
 25 26  1  0
 25 27  2  0
 27 28  1  0
 28 29  1  0
 29 30  2  0
 29 31  1  0
 31 32  1  0
 32 33  2  0
 33 34  1  0
 33 35  1  0
 35 36  2  0
 36 37  1  0
 37 38  2  0
 37 39  1  0
 36 40  1  0
 40 41  1  0
 40 42  2  0
 42 43  1  0
 27 44  1  0
 44 45  1  0
 44 46  2  0
 46 47  1  0
 11 48  1  0
 48  3  1  0
 20 12  1  0
 46 22  1  0
 42 32  1  0
M  CHG  6  19  -1  28  -1  31  -1  37   1  39  -1  48  -1
M  END
>  <UniqueID>  (92) 
87

>  <SMILES>  (92) 
[H]/N=c1\nc(C)nc(-c2ccc[n-]c2=Nc2ccc([N-]C(=O)[N-]c3ccc([N+](=O)[O-])nc3)cc2)[n-]1

>  <Energy>  (92) 
79.37550951917386

>  <Genealogy>  (92) 
Cc1nc(-c2ccc[n-]c2=Nc2ccc([N-]C(=O)[N-]c3ccc([N+](=O)[O-])nc3)cc2)[n-]c(=N)n1 (protonated)
[H]/N=c1\nc(C)nc(-c2ccc[n-]c2=Nc2ccc([N-]C(=O)[N-]c3ccc([N+](=O)[O-])nc3)cc2)[n-]1 (cis-trans isomerization)
[H]/N=c1\nc(C)nc(-c2ccc[n-]c2=Nc2ccc([N-]C(=O)[N-]c3ccc([N+](=O)[O-])nc3)cc2)[n-]1 (3D coordinates assigned)
[H]/N=c1\nc(C)nc(-c2ccc[n-]c2=Nc2ccc([N-]C(=O)[N-]c3ccc([N+](=O)[O-])nc3)cc2)[n-]1 (optimized conformer: 79.37550951917386 kcal/mol)

>  <smiles>  (92) 
Cc1nc(-c2ccc[nH]c2=Nc2ccc(NC(=O)Nc3ccc([N+](=O)[O-])nc3)cc2)[nH]c(=N)n1

>  <score_type>  (92) 
oracle

>  <origin>  (92) 
adg

>  <m_score__min__energy>  (92) 
-15.210000000000001

>  <m_primary>  (92) 
energy

$$$$
92:0
     RDKit          3D

 71 75  0  0  0  0  0  0  0  0999 V2000
   57.4673   33.2849   50.3114 H   0  0  0  0  0  0  0  0  0  0  0  0
   57.7240   32.3440   50.8200 C   0  0  0  0  0  0  0  0  0  0  0  0
   56.7400   31.5220   51.2590 N   0  0  0  0  0  0  0  0  0  0  0  0
   57.0340   30.3640   51.9100 C   0  0  0  0  0  0  0  0  0  0  0  0
   56.1000   29.5350   52.2710 N   0  0  0  0  0  0  0  0  0  0  0  0
   54.7780   29.8780   52.7140 C   0  0  0  0  0  0  0  0  0  0  0  0
   54.3210   29.5580   54.0030 C   0  0  0  0  0  0  0  0  0  0  0  0
   54.9902   29.0505   54.7134 H   0  0  0  0  0  0  0  0  0  0  0  0
   53.0170   29.8840   54.3830 C   0  0  0  0  0  0  0  0  0  0  0  0
   52.6639   29.6392   55.3956 H   0  0  0  0  0  0  0  0  0  0  0  0
   52.1580   30.5210   53.4800 C   0  0  0  0  0  0  0  0  0  0  0  0
   51.1349   30.7809   53.7894 H   0  0  0  0  0  0  0  0  0  0  0  0
   52.5950   30.8310   52.1790 C   0  0  0  0  0  0  0  0  0  0  0  0
   51.6810   31.4770   51.2090 C   0  0  0  0  0  0  0  0  0  0  0  0
   51.4760   30.9510   50.0800 O   0  0  0  0  0  0  0  0  0  0  0  0
   51.0530   32.7230   51.5390 N   0  0  0  0  0  0  0  0  0  0  0  0
   50.2790   32.9250   52.7560 C   0  0  0  0  0  0  0  0  0  0  0  0
   50.9227   32.7570   53.6320 H   0  0  0  0  0  0  0  0  0  0  0  0
   49.8917   33.9543   52.7776 H   0  0  0  0  0  0  0  0  0  0  0  0
   49.4380   32.2162   52.7776 H   0  0  0  0  0  0  0  0  0  0  0  0
   53.9080   30.4940   51.8060 C   0  0  0  0  0  0  0  0  0  0  0  0
   54.2566   30.7173   50.7869 H   0  0  0  0  0  0  0  0  0  0  0  0
   58.3330   30.0210   52.1120 N   0  0  0  0  0  0  0  0  0  0  0  0
   59.3640   30.8020   51.6840 C   0  0  0  0  0  0  0  0  0  0  0  0
   60.7200   30.3180   51.8360 N   0  0  0  0  0  0  0  0  0  0  0  0
   61.4280   30.2970   53.1220 C   0  0  0  0  0  0  0  0  0  0  0  0
   60.7299   30.5510   53.9333 H   0  0  0  0  0  0  0  0  0  0  0  0
   61.8405   29.2942   53.3069 H   0  0  0  0  0  0  0  0  0  0  0  0
   62.5570   31.3240   53.0750 C   0  0  0  0  0  0  0  0  0  0  0  0
   62.1194   32.3303   52.9983 H   0  0  0  0  0  0  0  0  0  0  0  0
   63.1517   31.2193   53.9945 H   0  0  0  0  0  0  0  0  0  0  0  0
   63.5030   31.0920   51.8590 C   0  0  0  0  0  0  0  0  0  0  0  0
   64.4188   30.6885   52.3156 H   0  0  0  0  0  0  0  0  0  0  0  0
   63.9150   32.3700   51.1480 C   0  0  0  0  0  0  0  0  0  0  0  0
   64.8540   33.0510   51.6400 O   0  0  0  0  0  0  0  0  0  0  0  0
   63.2650   32.8500   49.9570 N   0  0  0  0  0  0  0  0  0  0  0  0
   63.3090   32.0490   48.7260 C   0  0  0  0  0  0  0  0  0  0  0  0
   64.3465   31.7320   48.5441 H   0  0  0  0  0  0  0  0  0  0  0  0
   62.6483   31.1797   48.8593 H   0  0  0  0  0  0  0  0  0  0  0  0
   62.8140   32.8420   47.5160 C   0  0  0  0  0  0  0  0  0  0  0  0
   63.5868   33.5625   47.2101 H   0  0  0  0  0  0  0  0  0  0  0  0
   62.6056   32.1495   46.6872 H   0  0  0  0  0  0  0  0  0  0  0  0
   61.5870   33.5630   47.8660 N   0  0  0  0  0  0  0  0  0  0  0  0
   60.5010   33.6050   46.9270 C   0  0  0  0  0  0  0  0  0  0  0  0
   60.1870   34.8250   46.3120 C   0  0  0  0  0  0  0  0  0  0  0  0
   60.7630   35.7276   46.5642 H   0  0  0  0  0  0  0  0  0  0  0  0
   59.1500   34.9030   45.3830 C   0  0  0  0  0  0  0  0  0  0  0  0
   58.9102   35.8653   44.9072 H   0  0  0  0  0  0  0  0  0  0  0  0
   58.4160   33.7620   45.0560 C   0  0  0  0  0  0  0  0  0  0  0  0
   57.6029   33.8274   44.3181 H   0  0  0  0  0  0  0  0  0  0  0  0
   58.7090   32.5350   45.6620 C   0  0  0  0  0  0  0  0  0  0  0  0
   57.7290   31.1420   45.2150 Cl  0  0  0  0  0  0  0  0  0  0  0  0
   59.7700   32.4360   46.5920 C   0  0  0  0  0  0  0  0  0  0  0  0
   60.0990   31.1050   47.2260 C   0  0  0  0  0  0  0  0  0  0  0  0
   60.0744   31.2045   48.3212 H   0  0  0  0  0  0  0  0  0  0  0  0
   59.3592   30.3551   46.9092 H   0  0  0  0  0  0  0  0  0  0  0  0
   61.1030   30.7861   46.9092 H   0  0  0  0  0  0  0  0  0  0  0  0
   61.5200   34.3620   49.0980 C   0  0  0  0  0  0  0  0  0  0  0  0
   61.3571   35.4168   48.8319 H   0  0  0  0  0  0  0  0  0  0  0  0
   60.6907   33.9815   49.7124 H   0  0  0  0  0  0  0  0  0  0  0  0
   62.8160   34.2470   49.9120 C   0  0  0  0  0  0  0  0  0  0  0  0
   63.5960   34.8642   49.4422 H   0  0  0  0  0  0  0  0  0  0  0  0
   62.6273   34.5963   50.9379 H   0  0  0  0  0  0  0  0  0  0  0  0
   63.0130   30.0000   50.8690 C   0  0  0  0  0  0  0  0  0  0  0  0
   63.5210   30.1550   49.9057 H   0  0  0  0  0  0  0  0  0  0  0  0
   63.2527   29.0288   51.3265 H   0  0  0  0  0  0  0  0  0  0  0  0
   61.4930   30.0080   50.6200 C   0  0  0  0  0  0  0  0  0  0  0  0
   61.2654   30.7654   49.8555 H   0  0  0  0  0  0  0  0  0  0  0  0
   61.2045   28.9989   50.2907 H   0  0  0  0  0  0  0  0  0  0  0  0
   59.0610   31.9990   51.0120 C   0  0  0  0  0  0  0  0  0  0  0  0
   59.8655   32.6526   50.6438 H   0  0  0  0  0  0  0  0  0  0  0  0
  1  2  1  0
  2  3  1  0
  3  4  1  0
  4  5  2  0
  5  6  1  0
  6  7  2  0
  7  8  1  0
  7  9  1  0
  9 10  1  0
  9 11  2  0
 11 12  1  0
 11 13  1  0
 13 14  1  0
 14 15  2  0
 14 16  1  0
 16 17  1  0
 17 18  1  0
 17 19  1  0
 17 20  1  0
 13 21  2  0
 21 22  1  0
  4 23  1  0
 23 24  2  0
 24 25  1  0
 25 26  1  0
 26 27  1  0
 26 28  1  0
 26 29  1  0
 29 30  1  0
 29 31  1  0
 29 32  1  0
 32 33  1  0
 32 34  1  0
 34 35  2  0
 34 36  1  0
 36 37  1  0
 37 38  1  0
 37 39  1  0
 37 40  1  0
 40 41  1  0
 40 42  1  0
 40 43  1  0
 43 44  1  0
 44 45  2  0
 45 46  1  0
 45 47  1  0
 47 48  1  0
 47 49  2  0
 49 50  1  0
 49 51  1  0
 51 52  1  0
 51 53  2  0
 53 54  1  0
 54 55  1  0
 54 56  1  0
 54 57  1  0
 43 58  1  0
 58 59  1  0
 58 60  1  0
 58 61  1  0
 61 62  1  0
 61 63  1  0
 32 64  1  0
 64 65  1  0
 64 66  1  0
 64 67  1  0
 67 68  1  0
 67 69  1  0
 24 70  1  0
 70 71  1  0
 70  2  2  0
 21  6  1  0
 67 25  1  0
 61 36  1  0
 53 44  1  0
M  CHG  2   3  -1  16  -1
M  END
>  <UniqueID>  (93) 
88

>  <SMILES>  (93) 
C[N-]C(=O)c1cccc(/N=c2/nc(N3CCC(C(=O)N4CCN(c5cccc(Cl)c5C)CC4)CC3)cc[n-]2)c1

>  <Energy>  (93) 
98.14883820085191

>  <Genealogy>  (93) 
C[N-]C(=O)c1cccc(N=c2nc(N3CCC(C(=O)N4CCN(c5cccc(Cl)c5C)CC4)CC3)cc[n-]2)c1 (protonated)
C[N-]C(=O)c1cccc(/N=c2/nc(N3CCC(C(=O)N4CCN(c5cccc(Cl)c5C)CC4)CC3)cc[n-]2)c1 (cis-trans isomerization)
C[N-]C(=O)c1cccc(/N=c2/nc(N3CCC(C(=O)N4CCN(c5cccc(Cl)c5C)CC4)CC3)cc[n-]2)c1 (3D coordinates assigned)
C[N-]C(=O)c1cccc(/N=c2/nc(N3CCC(C(=O)N4CCN(c5cccc(Cl)c5C)CC4)CC3)cc[n-]2)c1 (nonaromatic ring conformer: 98.14883820085191 kcal/mol)

>  <smiles>  (93) 
CNC(=O)c1cccc(N=c2nc(N3CCC(C(=O)N4CCN(c5cccc(Cl)c5C)CC4)CC3)cc[nH]2)c1

>  <score_type>  (93) 
oracle

>  <origin>  (93) 
adg

>  <m_score__min__energy>  (93) 
-15.210000000000001

>  <m_primary>  (93) 
energy

$$$$
