0:0
     RDKit          3D

 43 45  0  0  0  0  0  0  0  0999 V2000
   59.8220   29.2830   52.1430 C   0  0  0  0  0  0  0  0  0  0  0  0
   58.5080   29.8010   52.5630 N   0  0  0  0  0  0  0  0  0  0  0  0
   58.6200   31.0700   53.3200 C   0  0  0  0  0  0  0  0  0  0  0  0
   57.8320   32.1780   52.6140 C   0  0  0  0  0  0  0  0  0  0  0  0
   58.4870   32.5990   51.3250 C   0  0  0  0  0  0  0  0  0  0  0  0
   58.1780   31.9400   50.1220 C   0  0  0  0  0  0  0  0  0  0  0  0
   58.8180   32.3080   48.9340 C   0  0  0  0  0  0  0  0  0  0  0  0
   59.7720   33.3300   48.9400 C   0  0  0  0  0  0  0  0  0  0  0  0
   60.0900   33.9830   50.1320 C   0  0  0  0  0  0  0  0  0  0  0  0
   59.4530   33.6190   51.3230 C   0  0  0  0  0  0  0  0  0  0  0  0
   57.6960   28.7750   53.2530 C   0  0  0  0  0  0  0  0  0  0  0  0
   56.2120   28.9730   53.0730 C   0  0  0  0  0  0  0  0  0  0  0  0
   55.2200   28.4090   53.8430 C   0  0  0  0  0  0  0  0  0  0  0  0
   54.0740   28.8480   53.3860 O   0  0  0  0  0  0  0  0  0  0  0  0
   54.3360   29.6500   52.3760 C   0  0  0  0  0  0  0  0  0  0  0  0
   53.2970   30.3500   51.5950 C   0  0  0  0  0  0  0  0  0  0  0  0
   52.8360   31.6180   51.9890 C   0  0  0  0  0  0  0  0  0  0  0  0
   51.8530   32.2730   51.2460 C   0  0  0  0  0  0  0  0  0  0  0  0
   51.3160   31.6740   50.1030 C   0  0  0  0  0  0  0  0  0  0  0  0
   50.3370   32.3400   49.3740 O   0  0  0  0  0  0  0  0  0  0  0  0
   51.7670   30.4070   49.6990 C   0  0  0  0  0  0  0  0  0  0  0  0
   51.2500   29.7850   48.5630 O   0  0  0  0  0  0  0  0  0  0  0  0
   52.7540   29.7510   50.4450 C   0  0  0  0  0  0  0  0  0  0  0  0
   55.6610   29.7660   52.1370 N   0  0  0  0  0  0  0  0  0  0  0  0
   60.4240   29.0457   53.0326 H   0  0  0  0  0  0  0  0  0  0  0  0
   59.6821   28.3727   51.5415 H   0  0  0  0  0  0  0  0  0  0  0  0
   60.3409   30.0439   51.5415 H   0  0  0  0  0  0  0  0  0  0  0  0
   58.2162   30.9258   54.3330 H   0  0  0  0  0  0  0  0  0  0  0  0
   59.6789   31.3624   53.3762 H   0  0  0  0  0  0  0  0  0  0  0  0
   56.8191   31.8094   52.3944 H   0  0  0  0  0  0  0  0  0  0  0  0
   57.8000   33.0518   53.2814 H   0  0  0  0  0  0  0  0  0  0  0  0
   57.4308   31.1327   50.1151 H   0  0  0  0  0  0  0  0  0  0  0  0
   58.5705   31.7928   47.9941 H   0  0  0  0  0  0  0  0  0  0  0  0
   60.2725   33.6198   48.0043 H   0  0  0  0  0  0  0  0  0  0  0  0
   60.8427   34.7851   50.1348 H   0  0  0  0  0  0  0  0  0  0  0  0
   59.7093   34.1331   52.2611 H   0  0  0  0  0  0  0  0  0  0  0  0
   57.9680   27.7869   52.8535 H   0  0  0  0  0  0  0  0  0  0  0  0
   57.9091   28.8582   54.3290 H   0  0  0  0  0  0  0  0  0  0  0  0
   55.3634   27.7174   54.6863 H   0  0  0  0  0  0  0  0  0  0  0  0
   53.2523   32.0965   52.8877 H   0  0  0  0  0  0  0  0  0  0  0  0
   51.4990   33.2656   51.5614 H   0  0  0  0  0  0  0  0  0  0  0  0
   50.5240   30.2110   48.0010 H   0  0  0  0  0  0  0  0  0  0  0  0
   53.1074   28.7586   50.1284 H   0  0  0  0  0  0  0  0  0  0  0  0
  1  2  1  0
  2  3  1  0
  3  4  1  0
  4  5  1  0
  5  6  2  0
  6  7  1  0
  7  8  2  0
  8  9  1  0
  9 10  2  0
  2 11  1  0
 11 12  1  0
 12 13  2  0
 13 14  1  0
 14 15  1  0
 15 16  1  0
 16 17  2  0
 17 18  1  0
 18 19  2  0
 19 20  1  0
 19 21  1  0
 21 22  1  0
 21 23  2  0
 15 24  2  0
 10  5  1  0
 24 12  1  0
 23 16  1  0
  1 25  1  0
  1 26  1  0
  1 27  1  0
  3 28  1  0
  3 29  1  0
  4 30  1  0
  4 31  1  0
  6 32  1  0
  7 33  1  0
  8 34  1  0
  9 35  1  0
 10 36  1  0
 11 37  1  0
 11 38  1  0
 13 39  1  0
 17 40  1  0
 18 41  1  0
 22 42  1  0
 23 43  1  0
M  CHG  1  20  -1
M  END
>  <UniqueID>  (1) 
1

>  <SMILES>  (1) 
CN(CCc1ccccc1)Cc1coc(-c2ccc([O-])c(O)c2)n1

>  <Energy>  (1) 
76.25249425665847

>  <Genealogy>  (1) 
CN(CCc1ccccc1)Cc1coc(-c2ccc([O-])c(O)c2)n1 (protonated)
CN(CCc1ccccc1)Cc1coc(-c2ccc([O-])c(O)c2)n1 (3D coordinates assigned)
CN(CCc1ccccc1)Cc1coc(-c2ccc([O-])c(O)c2)n1 (optimized conformer: 76.25249425665847 kcal/mol)

>  <smiles>  (1) 
CN(CCc1ccccc1)Cc1coc(-c2ccc(O)c(O)c2)n1

>  <score_type>  (1) 
oracle

>  <origin>  (1) 
adg

>  <m_score__min__energy>  (1) 
-10.06

>  <m_primary>  (1) 
energy

$$$$
1:0
     RDKit          3D

 31 32  0  0  0  0  0  0  0  0999 V2000
   55.1530   26.6680   45.9880 N   0  0  0  0  0  0  0  0  0  0  0  0
   56.8610   26.8210   45.7760 S   0  0  0  0  0  0  0  0  0  0  0  0
   57.5620   26.4460   47.0510 O   0  0  0  0  0  0  0  0  0  0  0  0
   57.3140   25.8900   44.6850 O   0  0  0  0  0  0  0  0  0  0  0  0
   57.2540   28.4820   45.3460 C   0  0  0  0  0  0  0  0  0  0  0  0
   58.1130   29.2330   46.1570 C   0  0  0  0  0  0  0  0  0  0  0  0
   58.4200   30.5560   45.8250 C   0  0  0  0  0  0  0  0  0  0  0  0
   57.8670   31.1490   44.6730 C   0  0  0  0  0  0  0  0  0  0  0  0
   58.1660   32.5050   44.2960 N   0  0  0  0  0  0  0  0  0  0  0  0
   58.0170   33.8640   45.3650 S   0  0  0  0  0  0  0  0  0  0  0  0
   56.6880   33.7950   46.0650 O   0  0  0  0  0  0  0  0  0  0  0  0
   58.0820   35.1330   44.5640 O   0  0  0  0  0  0  0  0  0  0  0  0
   59.3360   33.8630   46.5310 C   0  0  0  0  0  0  0  0  0  0  0  0
   59.0560   33.8780   47.9040 C   0  0  0  0  0  0  0  0  0  0  0  0
   60.1010   33.8890   48.8340 C   0  0  0  0  0  0  0  0  0  0  0  0
   61.4280   33.8830   48.3950 C   0  0  0  0  0  0  0  0  0  0  0  0
   61.7130   33.8640   47.0270 C   0  0  0  0  0  0  0  0  0  0  0  0
   60.6700   33.8530   46.0950 C   0  0  0  0  0  0  0  0  0  0  0  0
   56.9940   30.3930   43.8750 C   0  0  0  0  0  0  0  0  0  0  0  0
   56.6890   29.0710   44.2080 C   0  0  0  0  0  0  0  0  0  0  0  0
   54.9250   27.0710   46.9240 H   0  0  0  0  0  0  0  0  0  0  0  0
   58.5486   28.7801   47.0598 H   0  0  0  0  0  0  0  0  0  0  0  0
   59.0976   31.1375   46.4674 H   0  0  0  0  0  0  0  0  0  0  0  0
   58.5650   32.6910   43.3480 H   0  0  0  0  0  0  0  0  0  0  0  0
   58.0123   33.8811   48.2512 H   0  0  0  0  0  0  0  0  0  0  0  0
   59.8783   33.9024   49.9111 H   0  0  0  0  0  0  0  0  0  0  0  0
   62.2489   33.8932   49.1271 H   0  0  0  0  0  0  0  0  0  0  0  0
   62.7578   33.8577   46.6831 H   0  0  0  0  0  0  0  0  0  0  0  0
   60.8957   33.8365   45.0185 H   0  0  0  0  0  0  0  0  0  0  0  0
   56.5456   30.8460   42.9785 H   0  0  0  0  0  0  0  0  0  0  0  0
   56.0026   28.4906   43.5740 H   0  0  0  0  0  0  0  0  0  0  0  0
  1  2  1  0
  2  3  2  0
  2  4  2  0
  2  5  1  0
  5  6  2  0
  6  7  1  0
  7  8  2  0
  8  9  1  0
  9 10  1  0
 10 11  2  0
 10 12  2  0
 10 13  1  0
 13 14  2  0
 14 15  1  0
 15 16  2  0
 16 17  1  0
 17 18  2  0
  8 19  1  0
 19 20  2  0
 20  5  1  0
 18 13  1  0
  1 21  1  0
  6 22  1  0
  7 23  1  0
  9 24  1  0
 14 25  1  0
 15 26  1  0
 16 27  1  0
 17 28  1  0
 18 29  1  0
 19 30  1  0
 20 31  1  0
M  CHG  1   1  -1
M  END
>  <UniqueID>  (2) 
2

>  <SMILES>  (2) 
[NH-]S(=O)(=O)c1ccc(NS(=O)(=O)c2ccccc2)cc1

>  <Energy>  (2) 
33.968214416157

>  <Genealogy>  (2) 
[NH-]S(=O)(=O)c1ccc(NS(=O)(=O)c2ccccc2)cc1 (protonated)
[NH-]S(=O)(=O)c1ccc(NS(=O)(=O)c2ccccc2)cc1 (3D coordinates assigned)
[NH-]S(=O)(=O)c1ccc(NS(=O)(=O)c2ccccc2)cc1 (optimized conformer: 33.968214416157 kcal/mol)

>  <smiles>  (2) 
NS(=O)(=O)c1ccc(NS(=O)(=O)c2ccccc2)cc1

>  <score_type>  (2) 
oracle

>  <origin>  (2) 
adg

>  <m_score__min__energy>  (2) 
-10.56

>  <m_primary>  (2) 
energy

$$$$
2:0
     RDKit          3D

 53 55  0  0  0  0  0  0  0  0999 V2000
   63.1470   33.8430   46.6200 C   0  0  0  0  0  0  0  0  0  0  0  0
   63.4280   33.1670   47.9580 C   0  0  0  0  0  0  0  0  0  0  0  0
   62.5110   31.9910   48.1630 C   0  0  0  0  0  0  0  0  0  0  0  0
   61.9320   31.3450   47.0610 C   0  0  0  0  0  0  0  0  0  0  0  0
   61.1080   30.2310   47.2490 C   0  0  0  0  0  0  0  0  0  0  0  0
   60.8730   29.7320   48.5430 C   0  0  0  0  0  0  0  0  0  0  0  0
   60.0230   28.5990   48.7800 N   0  0  0  0  0  0  0  0  0  0  0  0
   59.9570   27.3820   48.0220 C   0  0  0  0  0  0  0  0  0  0  0  0
   61.0160   26.7160   47.8700 O   0  0  0  0  0  0  0  0  0  0  0  0
   58.7180   26.9410   47.3340 C   0  0  0  0  0  0  0  0  0  0  0  0
   58.3400   25.5890   47.4060 C   0  0  0  0  0  0  0  0  0  0  0  0
   57.1460   25.1470   46.8360 C   0  0  0  0  0  0  0  0  0  0  0  0
   56.2870   26.0570   46.1980 C   0  0  0  0  0  0  0  0  0  0  0  0
   55.0710   25.6630   45.6180 O   0  0  0  0  0  0  0  0  0  0  0  0
   54.7630   24.3310   45.2210 C   0  0  0  0  0  0  0  0  0  0  0  0
   56.6450   27.4060   46.1370 C   0  0  0  0  0  0  0  0  0  0  0  0
   57.8560   27.8600   46.6810 C   0  0  0  0  0  0  0  0  0  0  0  0
   58.1710   29.2580   46.5750 N   0  0  0  0  0  0  0  0  0  0  0  0
   57.4960   30.1420   45.6670 C   0  0  0  0  0  0  0  0  0  0  0  0
   56.4510   29.7540   45.0760 O   0  0  0  0  0  0  0  0  0  0  0  0
   57.9800   31.5270   45.4520 C   0  0  0  0  0  0  0  0  0  0  0  0
   57.9990   32.0490   44.1450 C   0  0  0  0  0  0  0  0  0  0  0  0
   58.4380   33.3520   43.9070 C   0  0  0  0  0  0  0  0  0  0  0  0
   58.8700   34.1480   44.9660 C   0  0  0  0  0  0  0  0  0  0  0  0
   58.8740   33.6420   46.2670 C   0  0  0  0  0  0  0  0  0  0  0  0
   58.4410   32.3250   46.5250 C   0  0  0  0  0  0  0  0  0  0  0  0
   58.4810   31.7820   47.8200 O   0  0  0  0  0  0  0  0  0  0  0  0
   58.8120   32.5110   48.9970 C   0  0  0  0  0  0  0  0  0  0  0  0
   61.4440   30.3860   49.6410 C   0  0  0  0  0  0  0  0  0  0  0  0
   62.2670   31.4990   49.4550 C   0  0  0  0  0  0  0  0  0  0  0  0
   62.7302   34.8456   46.7961 H   0  0  0  0  0  0  0  0  0  0  0  0
   64.0834   33.9302   46.0494 H   0  0  0  0  0  0  0  0  0  0  0  0
   62.4247   33.2407   46.0494 H   0  0  0  0  0  0  0  0  0  0  0  0
   64.4712   32.8186   47.9745 H   0  0  0  0  0  0  0  0  0  0  0  0
   63.2558   33.8946   48.7648 H   0  0  0  0  0  0  0  0  0  0  0  0
   62.1270   31.7164   46.0441 H   0  0  0  0  0  0  0  0  0  0  0  0
   60.6414   29.7426   46.3809 H   0  0  0  0  0  0  0  0  0  0  0  0
   58.9950   24.8694   47.9190 H   0  0  0  0  0  0  0  0  0  0  0  0
   56.8761   24.0818   46.8863 H   0  0  0  0  0  0  0  0  0  0  0  0
   54.6185   23.7062   46.1147 H   0  0  0  0  0  0  0  0  0  0  0  0
   53.8412   24.3312   44.6208 H   0  0  0  0  0  0  0  0  0  0  0  0
   55.5913   23.9265   44.6208 H   0  0  0  0  0  0  0  0  0  0  0  0
   55.9660   28.1243   45.6543 H   0  0  0  0  0  0  0  0  0  0  0  0
   58.7390   29.6850   47.3420 H   0  0  0  0  0  0  0  0  0  0  0  0
   57.6648   31.4242   43.3036 H   0  0  0  0  0  0  0  0  0  0  0  0
   58.4430   33.7513   42.8821 H   0  0  0  0  0  0  0  0  0  0  0  0
   59.2086   35.1773   44.7764 H   0  0  0  0  0  0  0  0  0  0  0  0
   59.2177   34.2758   47.0977 H   0  0  0  0  0  0  0  0  0  0  0  0
   58.5427   31.9180   49.8835 H   0  0  0  0  0  0  0  0  0  0  0  0
   59.8923   32.7179   49.0085 H   0  0  0  0  0  0  0  0  0  0  0  0
   58.2567   33.4605   49.0085 H   0  0  0  0  0  0  0  0  0  0  0  0
   61.2429   30.0203   50.6588 H   0  0  0  0  0  0  0  0  0  0  0  0
   62.7259   31.9922   50.3246 H   0  0  0  0  0  0  0  0  0  0  0  0
  1  2  1  0
  2  3  1  0
  3  4  2  0
  4  5  1  0
  5  6  2  0
  6  7  1  0
  7  8  1  0
  8  9  2  0
  8 10  1  0
 10 11  2  0
 11 12  1  0
 12 13  2  0
 13 14  1  0
 14 15  1  0
 13 16  1  0
 16 17  2  0
 17 18  1  0
 18 19  1  0
 19 20  2  0
 19 21  1  0
 21 22  2  0
 22 23  1  0
 23 24  2  0
 24 25  1  0
 25 26  2  0
 26 27  1  0
 27 28  1  0
  6 29  1  0
 29 30  2  0
 30  3  1  0
 17 10  1  0
 26 21  1  0
  1 31  1  0
  1 32  1  0
  1 33  1  0
  2 34  1  0
  2 35  1  0
  4 36  1  0
  5 37  1  0
 11 38  1  0
 12 39  1  0
 15 40  1  0
 15 41  1  0
 15 42  1  0
 16 43  1  0
 18 44  1  0
 22 45  1  0
 23 46  1  0
 24 47  1  0
 25 48  1  0
 28 49  1  0
 28 50  1  0
 28 51  1  0
 29 52  1  0
 30 53  1  0
M  CHG  1   7  -1
M  END
>  <UniqueID>  (3) 
3

>  <SMILES>  (3) 
CCc1ccc([N-]C(=O)c2ccc(OC)cc2NC(=O)c2ccccc2OC)cc1

>  <Energy>  (3) 
67.70262283977719

>  <Genealogy>  (3) 
CCc1ccc([N-]C(=O)c2ccc(OC)cc2NC(=O)c2ccccc2OC)cc1 (protonated)
CCc1ccc([N-]C(=O)c2ccc(OC)cc2NC(=O)c2ccccc2OC)cc1 (3D coordinates assigned)
CCc1ccc([N-]C(=O)c2ccc(OC)cc2NC(=O)c2ccccc2OC)cc1 (optimized conformer: 67.70262283977719 kcal/mol)

>  <smiles>  (3) 
CCc1ccc(NC(=O)c2ccc(OC)cc2NC(=O)c2ccccc2OC)cc1

>  <score_type>  (3) 
oracle

>  <origin>  (3) 
adg

>  <m_score__min__energy>  (3) 
-8.8699999999999992

>  <m_primary>  (3) 
energy

$$$$
3:0
     RDKit          3D

 52 55  0  0  0  0  0  0  0  0999 V2000
   65.3960   33.5370   50.9070 N   0  0  0  0  0  0  0  0  0  0  0  0
   64.5150   33.5220   50.1560 C   0  0  0  0  0  0  0  0  0  0  0  0
   63.4200   33.5020   49.2210 C   0  0  0  0  0  0  0  0  0  0  0  0
   62.2280   34.1700   49.5230 C   0  0  0  0  0  0  0  0  0  0  0  0
   61.1640   34.1520   48.6160 C   0  0  0  0  0  0  0  0  0  0  0  0
   61.2790   33.4640   47.3940 C   0  0  0  0  0  0  0  0  0  0  0  0
   60.1500   33.4440   46.4300 C   0  0  0  0  0  0  0  0  0  0  0  0
   59.6320   34.6440   45.9090 C   0  0  0  0  0  0  0  0  0  0  0  0
   58.5670   34.6230   45.0070 C   0  0  0  0  0  0  0  0  0  0  0  0
   58.0080   33.4080   44.6090 C   0  0  0  0  0  0  0  0  0  0  0  0
   58.5140   32.2030   45.1110 C   0  0  0  0  0  0  0  0  0  0  0  0
   57.8080   30.6730   44.5990 S   0  0  0  0  0  0  0  0  0  0  0  0
   56.8910   30.9210   43.4350 O   0  0  0  0  0  0  0  0  0  0  0  0
   57.0230   30.0530   45.7210 O   0  0  0  0  0  0  0  0  0  0  0  0
   59.0590   29.5780   44.1170 N   0  0  0  0  0  0  0  0  0  0  0  0
   60.1060   29.1670   45.0020 C   0  0  0  0  0  0  0  0  0  0  0  0
   61.2070   28.7750   44.5270 O   0  0  0  0  0  0  0  0  0  0  0  0
   59.8990   29.1990   46.4680 C   0  0  0  0  0  0  0  0  0  0  0  0
   58.7870   28.5600   47.0450 C   0  0  0  0  0  0  0  0  0  0  0  0
   58.5890   28.5900   48.4290 C   0  0  0  0  0  0  0  0  0  0  0  0
   59.5080   29.2490   49.2620 C   0  0  0  0  0  0  0  0  0  0  0  0
   59.3290   29.3240   50.6850 N   0  0  0  0  0  0  0  0  0  0  0  0
   58.3470   30.1000   51.3810 C   0  0  0  0  0  0  0  0  0  0  0  0
   57.2130   29.6130   51.6390 O   0  0  0  0  0  0  0  0  0  0  0  0
   58.6870   31.4600   51.8550 C   0  0  0  0  0  0  0  0  0  0  0  0
   58.7820   32.5360   50.9400 C   0  0  0  0  0  0  0  0  0  0  0  0
   58.4400   32.3390   49.2230 Cl  0  0  0  0  0  0  0  0  0  0  0  0
   59.1080   33.8180   51.3960 C   0  0  0  0  0  0  0  0  0  0  0  0
   59.3400   34.0460   52.7520 C   0  0  0  0  0  0  0  0  0  0  0  0
   59.2460   32.9970   53.6640 C   0  0  0  0  0  0  0  0  0  0  0  0
   58.9220   31.7070   53.2280 C   0  0  0  0  0  0  0  0  0  0  0  0
   58.8790   30.4200   54.4310 Cl  0  0  0  0  0  0  0  0  0  0  0  0
   60.6000   29.9080   48.6880 C   0  0  0  0  0  0  0  0  0  0  0  0
   60.8010   29.8790   47.3050 C   0  0  0  0  0  0  0  0  0  0  0  0
   59.5790   32.2230   46.0220 C   0  0  0  0  0  0  0  0  0  0  0  0
   62.4820   32.7940   47.1010 C   0  0  0  0  0  0  0  0  0  0  0  0
   63.5450   32.8140   48.0090 C   0  0  0  0  0  0  0  0  0  0  0  0
   62.1279   34.7104   50.4759 H   0  0  0  0  0  0  0  0  0  0  0  0
   60.2301   34.6796   48.8596 H   0  0  0  0  0  0  0  0  0  0  0  0
   60.0696   35.6058   46.2148 H   0  0  0  0  0  0  0  0  0  0  0  0
   58.1671   35.5672   44.6087 H   0  0  0  0  0  0  0  0  0  0  0  0
   57.1678   33.3969   43.8991 H   0  0  0  0  0  0  0  0  0  0  0  0
   58.0670   28.0322   46.4023 H   0  0  0  0  0  0  0  0  0  0  0  0
   57.7096   28.0953   48.8672 H   0  0  0  0  0  0  0  0  0  0  0  0
   59.1817   34.6506   50.6809 H   0  0  0  0  0  0  0  0  0  0  0  0
   59.5978   35.0563   53.1024 H   0  0  0  0  0  0  0  0  0  0  0  0
   59.4274   33.1836   54.7328 H   0  0  0  0  0  0  0  0  0  0  0  0
   61.3067   30.4538   49.3304 H   0  0  0  0  0  0  0  0  0  0  0  0
   61.6709   30.3917   46.8686 H   0  0  0  0  0  0  0  0  0  0  0  0
   59.9723   31.2767   46.4218 H   0  0  0  0  0  0  0  0  0  0  0  0
   62.5865   32.2506   46.1503 H   0  0  0  0  0  0  0  0  0  0  0  0
   64.4811   32.2880   47.7702 H   0  0  0  0  0  0  0  0  0  0  0  0
  1  2  3  0
  2  3  1  0
  3  4  2  0
  4  5  1  0
  5  6  2  0
  6  7  1  0
  7  8  2  0
  8  9  1  0
  9 10  2  0
 10 11  1  0
 11 12  1  0
 12 13  2  0
 12 14  2  0
 12 15  1  0
 15 16  1  0
 16 17  2  0
 16 18  1  0
 18 19  2  0
 19 20  1  0
 20 21  2  0
 21 22  1  0
 22 23  1  0
 23 24  2  0
 23 25  1  0
 25 26  2  0
 26 27  1  0
 26 28  1  0
 28 29  2  0
 29 30  1  0
 30 31  2  0
 31 32  1  0
 21 33  1  0
 33 34  2  0
 11 35  2  0
  6 36  1  0
 36 37  2  0
 37  3  1  0
 35  7  1  0
 34 18  1  0
 31 25  1  0
  4 38  1  0
  5 39  1  0
  8 40  1  0
  9 41  1  0
 10 42  1  0
 19 43  1  0
 20 44  1  0
 28 45  1  0
 29 46  1  0
 30 47  1  0
 33 48  1  0
 34 49  1  0
 35 50  1  0
 36 51  1  0
 37 52  1  0
M  CHG  2  15  -1  22  -1
M  END
>  <UniqueID>  (4) 
4

>  <SMILES>  (4) 
N#Cc1ccc(-c2cccc(S(=O)(=O)[N-]C(=O)c3ccc([N-]C(=O)c4c(Cl)cccc4Cl)cc3)c2)cc1

>  <Energy>  (4) 
75.35062397008257

>  <Genealogy>  (4) 
N#Cc1ccc(-c2cccc(S(=O)(=O)[N-]C(=O)c3ccc([N-]C(=O)c4c(Cl)cccc4Cl)cc3)c2)cc1 (protonated)
N#Cc1ccc(-c2cccc(S(=O)(=O)[N-]C(=O)c3ccc([N-]C(=O)c4c(Cl)cccc4Cl)cc3)c2)cc1 (3D coordinates assigned)
N#Cc1ccc(-c2cccc(S(=O)(=O)[N-]C(=O)c3ccc([N-]C(=O)c4c(Cl)cccc4Cl)cc3)c2)cc1 (optimized conformer: 75.35062397008257 kcal/mol)

>  <smiles>  (4) 
N#Cc1ccc(-c2cccc(S(=O)(=O)NC(=O)c3ccc(NC(=O)c4c(Cl)cccc4Cl)cc3)c2)cc1

>  <score_type>  (4) 
oracle

>  <origin>  (4) 
adg

>  <m_score__min__energy>  (4) 
-12.699999999999999

>  <m_primary>  (4) 
energy

$$$$
4:0
     RDKit          3D

 35 36  0  0  0  0  0  0  0  0999 V2000
   57.4590   34.2100   45.3880 C   0  0  0  0  0  0  0  0  0  0  0  0
   57.7570   32.7430   45.2900 C   0  0  0  0  0  0  0  0  0  0  0  0
   57.0880   31.9480   44.3480 C   0  0  0  0  0  0  0  0  0  0  0  0
   57.3980   30.5870   44.2170 C   0  0  0  0  0  0  0  0  0  0  0  0
   56.6480   29.7310   43.2390 C   0  0  0  0  0  0  0  0  0  0  0  0
   58.3690   30.0140   45.0530 C   0  0  0  0  0  0  0  0  0  0  0  0
   59.0490   30.8020   45.9960 C   0  0  0  0  0  0  0  0  0  0  0  0
   60.1080   30.1940   46.8770 C   0  0  0  0  0  0  0  0  0  0  0  0
   59.5880   29.0800   47.6030 O   0  0  0  0  0  0  0  0  0  0  0  0
   59.2850   27.8240   47.0540 C   0  0  0  0  0  0  0  0  0  0  0  0
   60.2750   26.9510   46.5630 C   0  0  0  0  0  0  0  0  0  0  0  0
   59.9170   25.7160   46.0210 C   0  0  0  0  0  0  0  0  0  0  0  0
   58.5740   25.3340   45.9660 C   0  0  0  0  0  0  0  0  0  0  0  0
   57.5710   26.1880   46.4560 C   0  0  0  0  0  0  0  0  0  0  0  0
   56.1470   25.7830   46.3990 C   0  0  0  0  0  0  0  0  0  0  0  0
   55.1430   26.7130   45.9970 N   0  0  0  0  0  0  0  0  0  0  0  0
   55.8070   24.6080   46.7070 O   0  0  0  0  0  0  0  0  0  0  0  0
   57.9420   27.4320   47.0000 C   0  0  0  0  0  0  0  0  0  0  0  0
   58.7520   32.1690   46.0950 C   0  0  0  0  0  0  0  0  0  0  0  0
   57.3997   34.5022   46.4468 H   0  0  0  0  0  0  0  0  0  0  0  0
   58.2596   34.7806   44.8945 H   0  0  0  0  0  0  0  0  0  0  0  0
   56.4993   34.4230   44.8945 H   0  0  0  0  0  0  0  0  0  0  0  0
   56.3142   32.3957   43.7071 H   0  0  0  0  0  0  0  0  0  0  0  0
   56.0193   29.0134   43.7866 H   0  0  0  0  0  0  0  0  0  0  0  0
   56.0119   30.3679   42.6067 H   0  0  0  0  0  0  0  0  0  0  0  0
   57.3630   29.1842   42.6067 H   0  0  0  0  0  0  0  0  0  0  0  0
   58.5987   28.9415   44.9691 H   0  0  0  0  0  0  0  0  0  0  0  0
   60.9470   29.8561   46.2510 H   0  0  0  0  0  0  0  0  0  0  0  0
   60.4471   30.9547   47.5955 H   0  0  0  0  0  0  0  0  0  0  0  0
   61.3344   27.2438   46.6069 H   0  0  0  0  0  0  0  0  0  0  0  0
   60.6950   25.0406   45.6356 H   0  0  0  0  0  0  0  0  0  0  0  0
   58.3001   24.3590   45.5366 H   0  0  0  0  0  0  0  0  0  0  0  0
   54.7720   26.7150   45.0210 H   0  0  0  0  0  0  0  0  0  0  0  0
   57.1649   28.1066   47.3887 H   0  0  0  0  0  0  0  0  0  0  0  0
   59.3041   32.7965   46.8101 H   0  0  0  0  0  0  0  0  0  0  0  0
  1  2  1  0
  2  3  2  0
  3  4  1  0
  4  5  1  0
  4  6  2  0
  6  7  1  0
  7  8  1  0
  8  9  1  0
  9 10  1  0
 10 11  2  0
 11 12  1  0
 12 13  2  0
 13 14  1  0
 14 15  1  0
 15 16  1  0
 15 17  2  0
 14 18  2  0
  7 19  2  0
 19  2  1  0
 18 10  1  0
  1 20  1  0
  1 21  1  0
  1 22  1  0
  3 23  1  0
  5 24  1  0
  5 25  1  0
  5 26  1  0
  6 27  1  0
  8 28  1  0
  8 29  1  0
 11 30  1  0
 12 31  1  0
 13 32  1  0
 16 33  1  0
 18 34  1  0
 19 35  1  0
M  CHG  1  16  -1
M  END
>  <UniqueID>  (5) 
5

>  <SMILES>  (5) 
Cc1cc(C)cc(COc2cccc(C([NH-])=O)c2)c1

>  <Energy>  (5) 
33.54920984183569

>  <Genealogy>  (5) 
Cc1cc(C)cc(COc2cccc(C([NH-])=O)c2)c1 (protonated)
Cc1cc(C)cc(COc2cccc(C([NH-])=O)c2)c1 (3D coordinates assigned)
Cc1cc(C)cc(COc2cccc(C([NH-])=O)c2)c1 (optimized conformer: 33.54920984183569 kcal/mol)

>  <smiles>  (5) 
Cc1cc(C)cc(COc2cccc(C(N)=O)c2)c1

>  <score_type>  (5) 
oracle

>  <origin>  (5) 
adg

>  <m_score__min__energy>  (5) 
-10.710000000000001

>  <m_primary>  (5) 
energy

$$$$
5:0
     RDKit          3D

 44 47  0  0  0  0  0  0  0  0999 V2000
   54.7760   26.3170   45.9590 N   0  0  0  0  0  0  0  0  0  0  0  0
   56.2690   25.4660   46.1380 S   0  0  0  0  0  0  0  0  0  0  0  0
   56.3140   24.3230   45.1630 O   0  0  0  0  0  0  0  0  0  0  0  0
   56.3670   24.9150   47.5330 O   0  0  0  0  0  0  0  0  0  0  0  0
   57.6110   26.5650   45.8390 C   0  0  0  0  0  0  0  0  0  0  0  0
   57.9320   26.9490   44.5290 C   0  0  0  0  0  0  0  0  0  0  0  0
   58.9990   27.8190   44.2960 C   0  0  0  0  0  0  0  0  0  0  0  0
   59.7410   28.3250   45.3660 C   0  0  0  0  0  0  0  0  0  0  0  0
   59.4040   27.9760   46.6860 C   0  0  0  0  0  0  0  0  0  0  0  0
   60.1580   28.4570   47.8070 N   0  0  0  0  0  0  0  0  0  0  0  0
   59.6510   29.2200   48.9090 C   0  0  0  0  0  0  0  0  0  0  0  0
   59.5510   28.6660   50.0360 O   0  0  0  0  0  0  0  0  0  0  0  0
   59.1980   30.6470   48.7490 C   0  0  0  0  0  0  0  0  0  0  0  0
   60.3330   31.5110   48.4350 N   0  0  0  0  0  0  0  0  0  0  0  0
   61.7050   31.2680   48.8410 C   0  0  0  0  0  0  0  0  0  0  0  0
   62.5060   32.3320   48.0730 C   0  0  0  0  0  0  0  0  0  0  0  0
   61.5280   33.0220   47.2390 N   0  0  0  0  0  0  0  0  0  0  0  0
   60.3530   32.5440   47.4670 C   0  0  0  0  0  0  0  0  0  0  0  0
   59.1660   32.9980   46.7960 N   0  0  0  0  0  0  0  0  0  0  0  0
   58.5330   32.3800   45.8430 C   0  0  0  0  0  0  0  0  0  0  0  0
   57.7390   31.3080   46.0960 N   0  0  0  0  0  0  0  0  0  0  0  0
   57.2970   30.9840   44.8710 C   0  0  0  0  0  0  0  0  0  0  0  0
   56.4360   29.9460   44.5230 C   0  0  0  0  0  0  0  0  0  0  0  0
   56.1100   29.7980   43.1610 C   0  0  0  0  0  0  0  0  0  0  0  0
   56.6470   30.6800   42.1970 C   0  0  0  0  0  0  0  0  0  0  0  0
   57.5150   31.7190   42.5870 C   0  0  0  0  0  0  0  0  0  0  0  0
   57.8140   31.8350   43.9420 C   0  0  0  0  0  0  0  0  0  0  0  0
   58.6090   32.7390   44.5320 N   0  0  0  0  0  0  0  0  0  0  0  0
   58.3510   27.0790   46.9120 C   0  0  0  0  0  0  0  0  0  0  0  0
   54.7620   27.0650   46.6880 H   0  0  0  0  0  0  0  0  0  0  0  0
   57.3424   26.5643   43.6838 H   0  0  0  0  0  0  0  0  0  0  0  0
   59.2563   28.1070   43.2660 H   0  0  0  0  0  0  0  0  0  0  0  0
   60.5904   28.9976   45.1757 H   0  0  0  0  0  0  0  0  0  0  0  0
   58.4627   30.7042   47.9329 H   0  0  0  0  0  0  0  0  0  0  0  0
   58.7439   30.9844   49.6924 H   0  0  0  0  0  0  0  0  0  0  0  0
   61.8215   31.3975   49.9271 H   0  0  0  0  0  0  0  0  0  0  0  0
   62.0390   30.2429   48.6227 H   0  0  0  0  0  0  0  0  0  0  0  0
   62.9811   33.0358   48.7722 H   0  0  0  0  0  0  0  0  0  0  0  0
   63.3131   31.8849   47.4742 H   0  0  0  0  0  0  0  0  0  0  0  0
   56.0255   29.2665   45.2844 H   0  0  0  0  0  0  0  0  0  0  0  0
   55.4329   28.9904   42.8458 H   0  0  0  0  0  0  0  0  0  0  0  0
   56.3860   30.5549   41.1358 H   0  0  0  0  0  0  0  0  0  0  0  0
   57.9410   32.4134   41.8479 H   0  0  0  0  0  0  0  0  0  0  0  0
   58.1035   26.7761   47.9401 H   0  0  0  0  0  0  0  0  0  0  0  0
  1  2  1  0
  2  3  2  0
  2  4  2  0
  2  5  1  0
  5  6  2  0
  6  7  1  0
  7  8  2  0
  8  9  1  0
  9 10  1  0
 10 11  1  0
 11 12  2  0
 11 13  1  0
 13 14  1  0
 14 15  1  0
 15 16  1  0
 16 17  1  0
 17 18  2  0
 18 19  1  0
 19 20  2  3
 20 21  1  0
 21 22  1  0
 22 23  2  0
 23 24  1  0
 24 25  2  0
 25 26  1  0
 26 27  2  0
 27 28  1  0
  9 29  2  0
 29  5  1  0
 18 14  1  0
 28 20  1  0
 27 22  1  0
  1 30  1  0
  6 31  1  0
  7 32  1  0
  8 33  1  0
 13 34  1  0
 13 35  1  0
 15 36  1  0
 15 37  1  0
 16 38  1  0
 16 39  1  0
 23 40  1  0
 24 41  1  0
 25 42  1  0
 26 43  1  0
 29 44  1  0
M  CHG  4   1  -1  10  -1  21  -1  28  -1
M  END
>  <UniqueID>  (6) 
6

>  <SMILES>  (6) 
[NH-]S(=O)(=O)c1cccc([N-]C(=O)CN2CCN=C2N=c2[n-]c3ccccc3[n-]2)c1

>  <Energy>  (6) 
99.77094916985382

>  <Genealogy>  (6) 
[NH-]S(=O)(=O)c1cccc([N-]C(=O)CN2CCN=C2N=c2[n-]c3ccccc3[n-]2)c1 (protonated)
[NH-]S(=O)(=O)c1cccc([N-]C(=O)CN2CCN=C2N=c2[n-]c3ccccc3[n-]2)c1 (3D coordinates assigned)
[NH-]S(=O)(=O)c1cccc([N-]C(=O)CN2CCN=C2N=c2[n-]c3ccccc3[n-]2)c1 (nonaromatic ring conformer: 99.77094916985382 kcal/mol)

>  <smiles>  (6) 
NS(=O)(=O)c1cccc(NC(=O)CN2CCN=C2N=c2[nH]c3ccccc3[nH]2)c1

>  <score_type>  (6) 
oracle

>  <origin>  (6) 
adg

>  <m_score__min__energy>  (6) 
-15.529999999999999

>  <m_primary>  (6) 
energy

$$$$
6:0
     RDKit          3D

 61 64  0  0  0  0  0  0  0  0999 V2000
   55.5220   26.6170   45.9770 O   0  0  0  0  0  0  0  0  0  0  0  0
   56.0190   25.2310   46.2740 S   0  0  0  0  0  0  0  0  0  0  0  0
   56.5090   25.1850   47.6930 O   0  0  0  0  0  0  0  0  0  0  0  0
   54.6930   24.0800   46.1350 C   0  0  0  0  0  0  0  0  0  0  0  0
   53.6000   24.3750   45.3030 C   0  0  0  0  0  0  0  0  0  0  0  0
   52.5140   23.4940   45.2350 C   0  0  0  0  0  0  0  0  0  0  0  0
   52.5110   22.3220   46.0000 C   0  0  0  0  0  0  0  0  0  0  0  0
   53.5970   22.0270   46.8340 C   0  0  0  0  0  0  0  0  0  0  0  0
   54.6840   22.9060   46.9050 C   0  0  0  0  0  0  0  0  0  0  0  0
   57.3270   24.8510   45.1780 N   0  0  0  0  0  0  0  0  0  0  0  0
   58.4330   25.8070   45.0040 C   0  0  0  0  0  0  0  0  0  0  0  0
   58.0530   26.8780   43.9600 C   0  0  0  0  0  0  0  0  0  0  0  0
   57.6050   28.2070   44.6120 C   0  0  0  0  0  0  0  0  0  0  0  0
   58.2540   29.3960   43.9980 N   0  0  2  0  0  0  0  0  0  0  0  0
   59.4880   29.7670   44.7360 C   0  0  0  0  0  0  0  0  0  0  0  0
   59.5930   29.0690   46.0760 C   0  0  0  0  0  0  0  0  0  0  0  0
   58.8570   29.5270   47.1850 C   0  0  0  0  0  0  0  0  0  0  0  0
   58.9640   28.8820   48.4200 C   0  0  0  0  0  0  0  0  0  0  0  0
   59.7900   27.7640   48.5530 C   0  0  0  0  0  0  0  0  0  0  0  0
   60.5060   27.2870   47.4510 C   0  0  0  0  0  0  0  0  0  0  0  0
   60.4060   27.9310   46.2170 C   0  0  0  0  0  0  0  0  0  0  0  0
   57.1140   30.7310   43.9680 S   0  0  0  0  0  0  0  0  0  0  0  0
   56.6990   31.0360   42.5560 O   0  0  0  0  0  0  0  0  0  0  0  0
   55.8770   30.3390   44.7360 O   0  0  0  0  0  0  0  0  0  0  0  0
   57.7980   32.1830   44.7030 C   0  0  0  0  0  0  0  0  0  0  0  0
   58.4550   33.1790   43.9590 C   0  0  0  0  0  0  0  0  0  0  0  0
   58.9400   34.2220   44.7360 C   0  0  0  0  0  0  0  0  0  0  0  0
   58.5520   33.8990   46.3410 S   0  0  0  0  0  0  0  0  0  0  0  0
   57.7660   32.4340   46.0700 C   0  0  0  0  0  0  0  0  0  0  0  0
   57.2990   23.6420   44.3810 C   0  0  0  0  0  0  0  0  0  0  0  0
   58.2570   22.6200   44.5570 C   0  0  0  0  0  0  0  0  0  0  0  0
   58.1890   21.4690   43.7700 C   0  0  0  0  0  0  0  0  0  0  0  0
   57.1980   21.3560   42.7930 C   0  0  0  0  0  0  0  0  0  0  0  0
   56.2780   22.3910   42.6310 C   0  0  0  0  0  0  0  0  0  0  0  0
   56.3490   23.4970   43.4140 N   0  0  0  0  0  0  0  0  0  0  0  0
   53.5975   25.2982   44.7050 H   0  0  0  0  0  0  0  0  0  0  0  0
   51.6614   23.7234   44.5790 H   0  0  0  0  0  0  0  0  0  0  0  0
   51.6557   21.6324   45.9463 H   0  0  0  0  0  0  0  0  0  0  0  0
   53.5956   21.1045   47.4332 H   0  0  0  0  0  0  0  0  0  0  0  0
   55.5331   22.6765   47.5656 H   0  0  0  0  0  0  0  0  0  0  0  0
   58.6448   26.2965   45.9660 H   0  0  0  0  0  0  0  0  0  0  0  0
   59.3239   25.2650   44.6540 H   0  0  0  0  0  0  0  0  0  0  0  0
   58.9273   27.0750   43.3222 H   0  0  0  0  0  0  0  0  0  0  0  0
   57.2058   26.4898   43.3756 H   0  0  0  0  0  0  0  0  0  0  0  0
   56.5151   28.3040   44.4997 H   0  0  0  0  0  0  0  0  0  0  0  0
   57.9042   28.1750   45.6700 H   0  0  0  0  0  0  0  0  0  0  0  0
   58.4790   29.1890   42.9980 H   0  0  0  0  0  0  0  0  0  0  0  0
   60.3606   29.4919   44.1254 H   0  0  0  0  0  0  0  0  0  0  0  0
   59.4524   30.8501   44.9246 H   0  0  0  0  0  0  0  0  0  0  0  0
   58.1936   30.3980   47.0788 H   0  0  0  0  0  0  0  0  0  0  0  0
   58.3981   29.2546   49.2866 H   0  0  0  0  0  0  0  0  0  0  0  0
   59.8774   27.2581   49.5258 H   0  0  0  0  0  0  0  0  0  0  0  0
   61.1500   26.4015   47.5569 H   0  0  0  0  0  0  0  0  0  0  0  0
   60.9655   27.5466   45.3514 H   0  0  0  0  0  0  0  0  0  0  0  0
   58.5733   33.1358   42.8662 H   0  0  0  0  0  0  0  0  0  0  0  0
   59.4828   35.1048   44.3671 H   0  0  0  0  0  0  0  0  0  0  0  0
   57.3093   31.7912   46.8370 H   0  0  0  0  0  0  0  0  0  0  0  0
   59.0519   22.7300   45.3094 H   0  0  0  0  0  0  0  0  0  0  0  0
   58.9131   20.6545   43.9190 H   0  0  0  0  0  0  0  0  0  0  0  0
   57.1437   20.4597   42.1577 H   0  0  0  0  0  0  0  0  0  0  0  0
   55.4919   22.3107   41.8658 H   0  0  0  0  0  0  0  0  0  0  0  0
  1  2  2  0
  2  3  2  0
  2  4  1  0
  4  5  2  0
  5  6  1  0
  6  7  2  0
  7  8  1  0
  8  9  2  0
  2 10  1  0
 10 11  1  0
 11 12  1  0
 12 13  1  0
 13 14  1  0
 14 15  1  0
 15 16  1  0
 16 17  2  0
 17 18  1  0
 18 19  2  0
 19 20  1  0
 20 21  2  0
 14 22  1  0
 22 23  2  0
 22 24  2  0
 22 25  1  0
 25 26  1  0
 26 27  2  0
 27 28  1  0
 28 29  1  0
 10 30  1  0
 30 31  2  0
 31 32  1  0
 32 33  2  0
 33 34  1  0
 34 35  2  0
  9  4  1  0
 21 16  1  0
 29 25  2  0
 35 30  1  0
  5 36  1  0
  6 37  1  0
  7 38  1  0
  8 39  1  0
  9 40  1  0
 11 41  1  0
 11 42  1  0
 12 43  1  0
 12 44  1  0
 13 45  1  0
 13 46  1  0
 14 47  1  6
 15 48  1  0
 15 49  1  0
 17 50  1  0
 18 51  1  0
 19 52  1  0
 20 53  1  0
 21 54  1  0
 26 55  1  0
 27 56  1  0
 29 57  1  0
 31 58  1  0
 32 59  1  0
 33 60  1  0
 34 61  1  0
M  CHG  1  14   1
M  END
>  <UniqueID>  (7) 
7

>  <SMILES>  (7) 
O=S(=O)(c1ccccc1)N(CCC[N@H+](Cc1ccccc1)S(=O)(=O)c1ccsc1)c1ccccn1

>  <Energy>  (7) 
93.68721835893176

>  <Genealogy>  (7) 
O=S(=O)(c1ccccc1)N(CCC[NH+](Cc1ccccc1)S(=O)(=O)c1ccsc1)c1ccccn1 (protonated)
O=S(=O)(c1ccccc1)N(CCC[N@H+](Cc1ccccc1)S(=O)(=O)c1ccsc1)c1ccccn1 (chirality)
O=S(=O)(c1ccccc1)N(CCC[N@H+](Cc1ccccc1)S(=O)(=O)c1ccsc1)c1ccccn1 (3D coordinates assigned)
O=S(=O)(c1ccccc1)N(CCC[N@H+](Cc1ccccc1)S(=O)(=O)c1ccsc1)c1ccccn1 (optimized conformer: 93.68721835893176 kcal/mol)

>  <smiles>  (7) 
O=S(=O)(c1ccsc1)N(CCCN(c1ccccn1)S(=O)(=O)c1ccccc1)Cc1ccccc1

>  <score_type>  (7) 
oracle

>  <origin>  (7) 
adg

>  <m_score__min__energy>  (7) 
-8.7899999999999991

>  <m_primary>  (7) 
energy

$$$$
7:0
     RDKit          3D

 59 61  0  0  0  0  0  0  0  0999 V2000
   56.4810   27.0490   44.7290 H   0  0  0  0  0  0  0  0  0  0  0  0
   56.4300   26.5890   45.6660 N   0  0  0  0  0  0  0  0  0  0  0  0
   57.4130   26.6010   46.5120 C   0  0  0  0  0  0  0  0  0  0  0  0
   58.4980   27.6080   46.4060 C   0  0  0  0  0  0  0  0  0  0  0  0
   59.2400   27.7290   45.2180 C   0  0  0  0  0  0  0  0  0  0  0  0
   59.0125   27.0759   44.3626 H   0  0  0  0  0  0  0  0  0  0  0  0
   57.9790   32.6950   42.6280 C   0  0  0  0  0  0  0  0  0  0  0  0
   58.0850   33.2113   41.6625 H   0  0  0  0  0  0  0  0  0  0  0  0
   58.4380   33.3050   43.7970 C   0  0  0  0  0  0  0  0  0  0  0  0
   58.9067   34.2991   43.7508 H   0  0  0  0  0  0  0  0  0  0  0  0
   58.3020   32.6520   45.0280 C   0  0  0  0  0  0  0  0  0  0  0  0
   58.9420   33.3740   46.5000 S   0  0  0  0  0  0  0  0  0  0  0  0
   58.1200   34.5830   46.8480 O   0  0  0  0  0  0  0  0  0  0  0  0
   60.3650   33.8140   46.2940 O   0  0  0  0  0  0  0  0  0  0  0  0
   58.8540   32.2330   47.8080 N   0  0  0  0  0  0  0  0  0  0  0  0
   60.1840   31.7810   48.2410 C   0  0  1  0  0  0  0  0  0  0  0  0
   60.8895   31.9298   47.4103 H   0  0  0  0  0  0  0  0  0  0  0  0
   60.6690   32.6040   49.4130 C   0  0  0  0  0  0  0  0  0  0  0  0
   59.8590   32.8610   50.3460 O   0  0  0  0  0  0  0  0  0  0  0  0
   62.0430   33.0120   49.5470 N   0  0  0  0  0  0  0  0  0  0  0  0
   62.7310   32.7450   50.8170 C   0  0  0  0  0  0  0  0  0  0  0  0
   62.2225   33.2971   51.6211 H   0  0  0  0  0  0  0  0  0  0  0  0
   62.7001   31.6613   51.0031 H   0  0  0  0  0  0  0  0  0  0  0  0
   64.2020   33.1810   50.7670 C   0  0  0  0  0  0  0  0  0  0  0  0
   64.2604   34.2750   50.8652 H   0  0  0  0  0  0  0  0  0  0  0  0
   64.7474   32.7006   51.5927 H   0  0  0  0  0  0  0  0  0  0  0  0
   64.8330   32.7580   49.4380 C   0  0  0  0  0  0  0  0  0  0  0  0
   65.8808   33.0924   49.4228 H   0  0  0  0  0  0  0  0  0  0  0  0
   64.7567   31.6631   49.3654 H   0  0  0  0  0  0  0  0  0  0  0  0
   64.1030   33.3610   48.2180 C   0  0  0  0  0  0  0  0  0  0  0  0
   64.6956   34.2079   47.8417 H   0  0  0  0  0  0  0  0  0  0  0  0
   64.0016   32.5579   47.4732 H   0  0  0  0  0  0  0  0  0  0  0  0
   62.6850   33.8630   48.5360 C   0  0  0  0  0  0  0  0  0  0  0  0
   62.7445   34.8931   48.9172 H   0  0  0  0  0  0  0  0  0  0  0  0
   62.0848   33.8288   47.6148 H   0  0  0  0  0  0  0  0  0  0  0  0
   60.1730   30.2720   48.5740 C   0  0  0  0  0  0  0  0  0  0  0  0
   61.1712   29.9870   48.9377 H   0  0  0  0  0  0  0  0  0  0  0  0
   59.3946   30.1108   49.3343 H   0  0  0  0  0  0  0  0  0  0  0  0
   59.8290   29.4050   47.3900 C   0  0  0  0  0  0  0  0  0  0  0  0
   60.5600   29.5080   46.1970 C   0  0  0  0  0  0  0  0  0  0  0  0
   61.3687   30.2488   46.1122 H   0  0  0  0  0  0  0  0  0  0  0  0
   60.2650   28.6740   45.1170 C   0  0  0  0  0  0  0  0  0  0  0  0
   60.8409   28.7608   44.1838 H   0  0  0  0  0  0  0  0  0  0  0  0
   57.3850   31.4300   42.6800 C   0  0  0  0  0  0  0  0  0  0  0  0
   57.0312   30.9540   41.7536 H   0  0  0  0  0  0  0  0  0  0  0  0
   57.2370   30.7620   43.9100 C   0  0  0  0  0  0  0  0  0  0  0  0
   56.6380   29.4060   43.9750 C   0  0  0  0  0  0  0  0  0  0  0  0
   57.0640   28.4800   43.1710 N   0  0  0  0  0  0  0  0  0  0  0  0
   57.9130   28.6110   42.5790 H   0  0  0  0  0  0  0  0  0  0  0  0
   55.6040   29.1020   44.9180 N   0  0  0  0  0  0  0  0  0  0  0  0
   55.3430   29.7720   45.6740 H   0  0  0  0  0  0  0  0  0  0  0  0
   55.1420   28.1650   44.9160 H   0  0  0  0  0  0  0  0  0  0  0  0
   58.7990   28.4560   47.4860 C   0  0  0  0  0  0  0  0  0  0  0  0
   58.2203   28.3749   48.4179 H   0  0  0  0  0  0  0  0  0  0  0  0
   57.7010   31.3890   45.0830 C   0  0  0  0  0  0  0  0  0  0  0  0
   57.5899   30.8808   46.0522 H   0  0  0  0  0  0  0  0  0  0  0  0
   57.4310   25.6290   47.5610 N   0  0  0  0  0  0  0  0  0  0  0  0
   58.2460   25.5490   48.2090 H   0  0  0  0  0  0  0  0  0  0  0  0
   56.6480   24.9460   47.6600 H   0  0  0  0  0  0  0  0  0  0  0  0
  1  2  1  0
  2  3  2  0
  3  4  1  0
  4  5  2  0
  5  6  1  0
  5  7  1  0
  7  8  1  0
  7  9  2  0
  9 10  1  0
  9 11  1  0
 11 12  1  0
 12 13  2  0
 12 14  2  0
 12 15  1  0
 15 16  1  0
 16 17  1  6
 16 18  1  0
 18 19  2  0
 18 20  1  0
 20 21  1  0
 21 22  1  0
 21 23  1  0
 21 24  1  0
 24 25  1  0
 24 26  1  0
 24 27  1  0
 27 28  1  0
 27 29  1  0
 27 30  1  0
 30 31  1  0
 30 32  1  0
 30 33  1  0
 33 34  1  0
 33 35  1  0
 16 36  1  0
 36 37  1  0
 36 38  1  0
 36 39  1  0
 39 40  2  0
 40 41  1  0
 40 42  1  0
 42 43  1  0
 42 44  2  0
 44 45  1  0
 44 46  1  0
 46 47  1  0
 47 48  2  0
 48 49  1  0
 47 50  1  0
 50 51  1  0
 50 52  1  0
 46 53  2  0
 53 54  1  0
 11 55  2  0
 55 56  1  0
  3 57  1  0
 57 58  1  0
 57 59  1  0
 55  4  1  0
 33 20  1  0
 53 39  1  0
M  CHG  1  15  -1
M  END
>  <UniqueID>  (8) 
8

>  <SMILES>  (8) 
[H]/N=C(\N)c1cccc(S(=O)(=O)[N-][C@H](Cc2cccc(/C(N)=N\[H])c2)C(=O)N2CCCCC2)c1

>  <Energy>  (8) 
63.166059753801406

>  <Genealogy>  (8) 
N=C(N)c1cccc(CC([N-]S(=O)(=O)c2cccc(C(=N)N)c2)C(=O)N2CCCCC2)c1 (protonated)
N=C(N)c1cccc(C[C@@H]([N-]S(=O)(=O)c2cccc(C(=N)N)c2)C(=O)N2CCCCC2)c1 (chirality)
[H]/N=C(\N)c1cccc(S(=O)(=O)[N-][C@H](Cc2cccc(/C(N)=N\[H])c2)C(=O)N2CCCCC2)c1 (cis-trans isomerization)
[H]/N=C(\N)c1cccc(S(=O)(=O)[N-][C@H](Cc2cccc(/C(N)=N\[H])c2)C(=O)N2CCCCC2)c1 (3D coordinates assigned)
[H]/N=C(\N)c1cccc(S(=O)(=O)[N-][C@H](Cc2cccc(/C(N)=N\[H])c2)C(=O)N2CCCCC2)c1 (nonaromatic ring conformer: 63.166059753801406 kcal/mol)

>  <smiles>  (8) 
N=C(N)c1cccc(CC(NS(=O)(=O)c2cccc(C(=N)N)c2)C(=O)N2CCCCC2)c1

>  <score_type>  (8) 
oracle

>  <origin>  (8) 
adg

>  <m_score__min__energy>  (8) 
-12.33

>  <m_primary>  (8) 
energy

$$$$
8:0
     RDKit          3D

 44 46  0  0  1  0  0  0  0  0999 V2000
   55.5700   24.2600   44.7120 C   0  0  0  0  0  0  0  0  0  0  0  0
   54.6290   25.0240   45.5950 C   0  0  0  0  0  0  0  0  0  0  0  0
   55.1090   26.2830   46.0020 O   0  0  0  0  0  0  0  0  0  0  0  0
   56.4320   26.5970   46.1570 C   0  0  0  0  0  0  0  0  0  0  0  0
   57.2880   25.7450   46.8210 C   0  0  0  0  0  0  0  0  0  0  0  0
   58.6350   26.0190   47.0020 C   0  0  0  0  0  0  0  0  0  0  0  0
   59.1160   27.2170   46.4780 C   0  0  0  0  0  0  0  0  0  0  0  0
   58.2710   28.0910   45.8050 C   0  0  0  0  0  0  0  0  0  0  0  0
   56.9480   27.7930   45.6430 C   0  0  0  0  0  0  0  0  0  0  0  0
   56.0200   28.6330   44.9680 N   0  0  0  0  0  0  0  0  0  0  0  0
   56.3820   29.7040   44.3800 C   0  0  0  0  0  0  0  0  0  0  0  0
   57.0490   30.7090   44.9700 N   0  0  0  0  0  0  0  0  0  0  0  0
   57.2260   31.6420   43.9860 C   0  0  0  0  0  0  0  0  0  0  0  0
   58.0690   33.1760   44.2920 S   0  0  0  0  0  0  0  0  0  0  0  0
   58.4370   33.4490   45.9730 C   0  0  0  0  0  0  0  0  0  0  0  0
   59.7710   33.2190   46.4920 C   0  0  0  0  0  0  0  0  0  0  0  0
   60.8440   34.0980   46.3590 C   0  0  0  0  0  0  0  0  0  0  0  0
   62.0890   33.8490   46.8540 C   0  0  0  0  0  0  0  0  0  0  0  0
   62.3430   32.6900   47.5210 C   0  0  0  0  0  0  0  0  0  0  0  0
   61.3150   31.7830   47.6790 C   0  0  0  0  0  0  0  0  0  0  0  0
   60.0370   32.0470   47.1680 C   0  0  0  0  0  0  0  0  0  0  0  0
   58.9350   31.0630   47.3460 C   0  0  0  0  0  0  0  0  0  0  0  0
   56.6660   31.1600   42.8690 N   0  0  0  0  0  0  0  0  0  0  0  0
   56.1400   29.9680   43.0900 N   0  0  0  0  0  0  0  0  0  0  0  0
   56.2742   23.6883   45.3344 H   0  0  0  0  0  0  0  0  0  0  0  0
   54.9969   23.5684   44.0770 H   0  0  0  0  0  0  0  0  0  0  0  0
   56.1292   24.9629   44.0770 H   0  0  0  0  0  0  0  0  0  0  0  0
   53.6879   25.1753   45.0460 H   0  0  0  0  0  0  0  0  0  0  0  0
   54.4997   24.4260   46.5091 H   0  0  0  0  0  0  0  0  0  0  0  0
   56.8843   24.8052   47.2256 H   0  0  0  0  0  0  0  0  0  0  0  0
   59.2956   25.3205   47.5364 H   0  0  0  0  0  0  0  0  0  0  0  0
   60.1786   27.4743   46.5986 H   0  0  0  0  0  0  0  0  0  0  0  0
   58.6713   29.0317   45.3989 H   0  0  0  0  0  0  0  0  0  0  0  0
   58.1990   34.5032   46.1781 H   0  0  0  0  0  0  0  0  0  0  0  0
   57.8432   32.6739   46.4797 H   0  0  0  0  0  0  0  0  0  0  0  0
   60.6769   35.0451   45.8250 H   0  0  0  0  0  0  0  0  0  0  0  0
   62.8920   34.5877   46.7140 H   0  0  0  0  0  0  0  0  0  0  0  0
   63.3447   32.4811   47.9248 H   0  0  0  0  0  0  0  0  0  0  0  0
   61.5012   30.8398   48.2134 H   0  0  0  0  0  0  0  0  0  0  0  0
   58.7560   30.9032   48.4195 H   0  0  0  0  0  0  0  0  0  0  0  0
   58.0190   31.4492   46.8750 H   0  0  0  0  0  0  0  0  0  0  0  0
   59.2154   30.1093   46.8750 H   0  0  0  0  0  0  0  0  0  0  0  0
   56.6400   31.6430   41.9500 H   0  0  0  0  0  0  0  0  0  0  0  0
   55.6500   29.3880   42.3890 H   0  0  0  0  0  0  0  0  0  0  0  0
  1  2  1  0
  2  3  1  0
  3  4  1  0
  4  5  2  0
  5  6  1  0
  6  7  2  0
  7  8  1  0
  8  9  2  0
  9 10  1  0
 10 11  2  0
 11 12  1  0
 12 13  2  0
 13 14  1  0
 14 15  1  0
 15 16  1  0
 16 17  2  0
 17 18  1  0
 18 19  2  0
 19 20  1  0
 20 21  2  0
 21 22  1  0
 13 23  1  0
 23 24  1  0
  9  4  1  0
 24 11  1  0
 21 16  1  0
  1 25  1  0
  1 26  1  0
  1 27  1  0
  2 28  1  0
  2 29  1  0
  5 30  1  0
  6 31  1  0
  7 32  1  0
  8 33  1  0
 15 34  1  0
 15 35  1  0
 17 36  1  0
 18 37  1  0
 19 38  1  0
 20 39  1  0
 22 40  1  0
 22 41  1  0
 22 42  1  0
 23 43  1  0
 24 44  1  0
M  END
>  <smiles>  (9) 
CCOc1ccccc1N=c1nc(SCc2ccccc2C)[nH][nH]1

>  <score_type>  (9) 
oracle

>  <origin>  (9) 
adg

>  <m_score__min__energy>  (9) 
-9.1999999999999993

>  <m_primary>  (9) 
energy

$$$$
9:0
     RDKit          3D

 49 52  0  0  0  0  0  0  0  0999 V2000
   60.6850   29.6990   51.1920 C   0  0  0  0  0  0  0  0  0  0  0  0
   61.9760   29.5040   50.6260 O   0  0  0  0  0  0  0  0  0  0  0  0
   63.0070   30.4580   50.6410 C   0  0  0  0  0  0  0  0  0  0  0  0
   64.1210   30.3300   51.4910 C   0  0  0  0  0  0  0  0  0  0  0  0
   65.1570   31.2660   51.4470 C   0  0  0  0  0  0  0  0  0  0  0  0
   65.1080   32.3450   50.5500 C   0  0  0  0  0  0  0  0  0  0  0  0
   66.1810   33.3030   50.4930 N   0  0  0  0  0  0  0  0  0  0  0  0
   67.1780   33.1020   49.7690 O   0  0  0  0  0  0  0  0  0  0  0  0
   66.1290   34.4570   51.2420 O   0  0  0  0  0  0  0  0  0  0  0  0
   63.9920   32.4760   49.7070 C   0  0  0  0  0  0  0  0  0  0  0  0
   62.9340   31.5580   49.7640 C   0  0  0  0  0  0  0  0  0  0  0  0
   61.8170   31.7330   48.8800 N   0  0  0  0  0  0  0  0  0  0  0  0
   61.9410   32.2710   47.5550 C   0  0  0  0  0  0  0  0  0  0  0  0
   63.0780   32.5190   47.0690 O   0  0  0  0  0  0  0  0  0  0  0  0
   60.7220   32.4640   46.7080 C   0  0  0  0  0  0  0  0  0  0  0  0
   59.9780   31.1760   46.5870 C   0  0  0  0  0  0  0  0  0  0  0  0
   60.1460   30.1380   47.4430 N   0  0  0  0  0  0  0  0  0  0  0  0
   59.3030   29.1180   47.1390 C   0  0  0  0  0  0  0  0  0  0  0  0
   59.2490   27.9090   47.8310 C   0  0  0  0  0  0  0  0  0  0  0  0
   58.3270   26.9340   47.4180 C   0  0  0  0  0  0  0  0  0  0  0  0
   57.4540   27.1740   46.3280 C   0  0  0  0  0  0  0  0  0  0  0  0
   56.4890   26.1400   45.8810 C   0  0  0  0  0  0  0  0  0  0  0  0
   55.2540   26.3610   46.0160 O   0  0  0  0  0  0  0  0  0  0  0  0
   56.9240   24.8550   45.2790 C   0  0  0  0  0  0  0  0  0  0  0  0
   56.2070   24.2710   44.2180 C   0  0  0  0  0  0  0  0  0  0  0  0
   56.6400   23.0680   43.6500 C   0  0  0  0  0  0  0  0  0  0  0  0
   57.7950   22.4440   44.1240 C   0  0  0  0  0  0  0  0  0  0  0  0
   58.5250   23.0250   45.1640 C   0  0  0  0  0  0  0  0  0  0  0  0
   58.0970   24.2270   45.7370 C   0  0  0  0  0  0  0  0  0  0  0  0
   57.5380   28.3980   45.6320 C   0  0  0  0  0  0  0  0  0  0  0  0
   58.4640   29.3440   46.0630 C   0  0  0  0  0  0  0  0  0  0  0  0
   58.7650   30.8740   45.4430 S   0  0  0  0  0  0  0  0  0  0  0  0
   60.7602   29.6876   52.2894 H   0  0  0  0  0  0  0  0  0  0  0  0
   60.2826   30.6681   50.8621 H   0  0  0  0  0  0  0  0  0  0  0  0
   60.0143   28.8920   50.8621 H   0  0  0  0  0  0  0  0  0  0  0  0
   64.1765   29.4868   52.1952 H   0  0  0  0  0  0  0  0  0  0  0  0
   66.0192   31.1567   52.1213 H   0  0  0  0  0  0  0  0  0  0  0  0
   63.9476   33.3107   48.9920 H   0  0  0  0  0  0  0  0  0  0  0  0
   60.9020   31.3080   49.1550 H   0  0  0  0  0  0  0  0  0  0  0  0
   60.0708   33.2190   47.1727 H   0  0  0  0  0  0  0  0  0  0  0  0
   61.0269   32.8014   45.7064 H   0  0  0  0  0  0  0  0  0  0  0  0
   59.9166   27.7223   48.6851 H   0  0  0  0  0  0  0  0  0  0  0  0
   58.2818   25.9710   47.9477 H   0  0  0  0  0  0  0  0  0  0  0  0
   55.3015   24.7630   43.8333 H   0  0  0  0  0  0  0  0  0  0  0  0
   56.0686   22.6127   42.8276 H   0  0  0  0  0  0  0  0  0  0  0  0
   58.1303   21.4955   43.6791 H   0  0  0  0  0  0  0  0  0  0  0  0
   59.4386   22.5359   45.5331 H   0  0  0  0  0  0  0  0  0  0  0  0
   58.6804   24.6838   46.5500 H   0  0  0  0  0  0  0  0  0  0  0  0
   56.8870   28.6004   44.7687 H   0  0  0  0  0  0  0  0  0  0  0  0
  1  2  1  0
  2  3  1  0
  3  4  2  0
  4  5  1  0
  5  6  2  0
  6  7  1  0
  7  8  2  0
  7  9  1  0
  6 10  1  0
 10 11  2  0
 11 12  1  0
 12 13  1  0
 13 14  2  0
 13 15  1  0
 15 16  1  0
 16 17  2  0
 17 18  1  0
 18 19  2  0
 19 20  1  0
 20 21  2  0
 21 22  1  0
 22 23  2  0
 22 24  1  0
 24 25  2  0
 25 26  1  0
 26 27  2  0
 27 28  1  0
 28 29  2  0
 21 30  1  0
 30 31  2  0
 31 32  1  0
 11  3  1  0
 32 16  1  0
 31 18  1  0
 29 24  1  0
  1 33  1  0
  1 34  1  0
  1 35  1  0
  4 36  1  0
  5 37  1  0
 10 38  1  0
 12 39  1  0
 15 40  1  0
 15 41  1  0
 19 42  1  0
 20 43  1  0
 25 44  1  0
 26 45  1  0
 27 46  1  0
 28 47  1  0
 29 48  1  0
 30 49  1  0
M  CHG  2   7   1   9  -1
M  END
>  <UniqueID>  (10) 
9

>  <SMILES>  (10) 
COc1ccc([N+](=O)[O-])cc1NC(=O)Cc1nc2ccc(C(=O)c3ccccc3)cc2s1

>  <Energy>  (10) 
96.58502738131124

>  <Genealogy>  (10) 
COc1ccc([N+](=O)[O-])cc1NC(=O)Cc1nc2ccc(C(=O)c3ccccc3)cc2s1 (3D coordinates assigned)
COc1ccc([N+](=O)[O-])cc1NC(=O)Cc1nc2ccc(C(=O)c3ccccc3)cc2s1 (optimized conformer: 96.58502738131124 kcal/mol)

>  <smiles>  (10) 
COc1ccc([N+](=O)[O-])cc1NC(=O)Cc1nc2ccc(C(=O)c3ccccc3)cc2s1

>  <score_type>  (10) 
oracle

>  <origin>  (10) 
adg

>  <m_score__min__energy>  (10) 
-9.3800000000000008

>  <m_primary>  (10) 
energy

$$$$
10:0
     RDKit          3D

 65 68  0  0  0  0  0  0  0  0999 V2000
   56.4660   29.7770   43.0360 C   0  0  0  0  0  0  0  0  0  0  0  0
   56.3110   30.2910   44.3540 O   0  0  0  0  0  0  0  0  0  0  0  0
   57.1870   31.2050   44.9600 C   0  0  0  0  0  0  0  0  0  0  0  0
   57.0010   32.5980   44.8620 C   0  0  0  0  0  0  0  0  0  0  0  0
   57.8950   33.4750   45.4830 C   0  0  0  0  0  0  0  0  0  0  0  0
   58.9880   32.9770   46.2020 C   0  0  0  0  0  0  0  0  0  0  0  0
   60.0750   34.0950   47.0170 S   0  0  0  0  0  0  0  0  0  0  0  0
   59.2750   34.9660   47.9470 O   0  0  0  0  0  0  0  0  0  0  0  0
   60.7710   34.9790   46.0190 O   0  0  0  0  0  0  0  0  0  0  0  0
   61.2530   33.1810   47.9040 N   0  0  0  0  0  0  0  0  0  0  0  0
   62.5820   33.0070   47.3240 C   0  0  0  0  0  0  0  0  0  0  0  0
   60.8280   32.3460   48.9900 C   0  0  0  0  0  0  0  0  0  0  0  0
   60.9540   30.9510   48.9060 C   0  0  0  0  0  0  0  0  0  0  0  0
   60.5550   30.1420   49.9710 C   0  0  0  0  0  0  0  0  0  0  0  0
   60.0370   30.7160   51.1440 C   0  0  0  0  0  0  0  0  0  0  0  0
   59.6270   29.8560   52.2770 C   0  0  0  0  0  0  0  0  0  0  0  0
   60.4780   29.0910   52.8090 O   0  0  0  0  0  0  0  0  0  0  0  0
   58.2770   29.8640   52.7740 N   0  0  0  0  0  0  0  0  0  0  0  0
   57.6190   31.1350   53.1100 C   0  0  0  0  0  0  0  0  0  0  0  0
   56.1190   31.0230   52.8330 C   0  0  0  0  0  0  0  0  0  0  0  0
   55.4420   29.8740   53.6520 C   0  0  0  0  0  0  0  0  0  0  0  0
   54.8350   30.4270   54.7980 O   0  0  0  0  0  0  0  0  0  0  0  0
   54.3250   29.2390   52.7740 C   0  0  0  0  0  0  0  0  0  0  0  0
   53.1930   30.1860   52.4410 C   0  0  0  0  0  0  0  0  0  0  0  0
   53.1580   30.8450   51.1980 C   0  0  0  0  0  0  0  0  0  0  0  0
   52.1050   31.7120   50.8890 C   0  0  0  0  0  0  0  0  0  0  0  0
   51.0820   31.9320   51.8160 C   0  0  0  0  0  0  0  0  0  0  0  0
   51.1140   31.2900   53.0560 C   0  0  0  0  0  0  0  0  0  0  0  0
   52.1660   30.4250   53.3720 C   0  0  0  0  0  0  0  0  0  0  0  0
   56.4780   28.7930   54.1020 C   0  0  0  0  0  0  0  0  0  0  0  0
   57.6130   28.5900   53.0880 C   0  0  0  0  0  0  0  0  0  0  0  0
   59.8970   32.1130   51.2180 C   0  0  0  0  0  0  0  0  0  0  0  0
   60.2880   32.9210   50.1470 C   0  0  0  0  0  0  0  0  0  0  0  0
   59.1750   31.5930   46.3090 C   0  0  0  0  0  0  0  0  0  0  0  0
   58.2820   30.7110   45.6880 C   0  0  0  0  0  0  0  0  0  0  0  0
   58.5440   28.9800   45.8370 Cl  0  0  0  0  0  0  0  0  0  0  0  0
   56.7832   28.7250   43.0877 H   0  0  0  0  0  0  0  0  0  0  0  0
   55.5074   29.8450   42.5008 H   0  0  0  0  0  0  0  0  0  0  0  0
   57.2272   30.3637   42.5008 H   0  0  0  0  0  0  0  0  0  0  0  0
   56.1480   32.9976   44.2939 H   0  0  0  0  0  0  0  0  0  0  0  0
   57.7390   34.5612   45.4064 H   0  0  0  0  0  0  0  0  0  0  0  0
   63.3240   32.9098   48.1302 H   0  0  0  0  0  0  0  0  0  0  0  0
   62.5949   32.0995   46.7025 H   0  0  0  0  0  0  0  0  0  0  0  0
   62.8281   33.8806   46.7025 H   0  0  0  0  0  0  0  0  0  0  0  0
   61.3693   30.4928   47.9963 H   0  0  0  0  0  0  0  0  0  0  0  0
   60.6466   29.0487   49.8915 H   0  0  0  0  0  0  0  0  0  0  0  0
   57.7792   31.3603   54.1747 H   0  0  0  0  0  0  0  0  0  0  0  0
   58.0455   31.9416   52.4956 H   0  0  0  0  0  0  0  0  0  0  0  0
   55.6390   31.9762   53.0995 H   0  0  0  0  0  0  0  0  0  0  0  0
   55.9929   30.7911   51.7651 H   0  0  0  0  0  0  0  0  0  0  0  0
   54.9490   29.7880   55.5500 H   0  0  0  0  0  0  0  0  0  0  0  0
   54.7780   28.8962   51.8320 H   0  0  0  0  0  0  0  0  0  0  0  0
   53.8899   28.4149   53.3584 H   0  0  0  0  0  0  0  0  0  0  0  0
   53.9622   30.6775   50.4664 H   0  0  0  0  0  0  0  0  0  0  0  0
   52.0817   32.2218   49.9146 H   0  0  0  0  0  0  0  0  0  0  0  0
   50.2522   32.6105   51.5689 H   0  0  0  0  0  0  0  0  0  0  0  0
   50.3097   31.4653   53.7856 H   0  0  0  0  0  0  0  0  0  0  0  0
   52.1907   29.9289   54.3535 H   0  0  0  0  0  0  0  0  0  0  0  0
   56.9167   29.1058   55.0610 H   0  0  0  0  0  0  0  0  0  0  0  0
   55.9397   27.8376   54.1885 H   0  0  0  0  0  0  0  0  0  0  0  0
   58.3525   27.8942   53.5111 H   0  0  0  0  0  0  0  0  0  0  0  0
   57.1842   28.1819   52.1609 H   0  0  0  0  0  0  0  0  0  0  0  0
   59.4770   32.5729   52.1247 H   0  0  0  0  0  0  0  0  0  0  0  0
   60.1712   34.0128   50.2131 H   0  0  0  0  0  0  0  0  0  0  0  0
   60.0262   31.1976   46.8827 H   0  0  0  0  0  0  0  0  0  0  0  0
  1  2  1  0
  2  3  1  0
  3  4  2  0
  4  5  1  0
  5  6  2  0
  6  7  1  0
  7  8  2  0
  7  9  2  0
  7 10  1  0
 10 11  1  0
 10 12  1  0
 12 13  2  0
 13 14  1  0
 14 15  2  0
 15 16  1  0
 16 17  2  0
 16 18  1  0
 18 19  1  0
 19 20  1  0
 20 21  1  0
 21 22  1  0
 21 23  1  0
 23 24  1  0
 24 25  2  0
 25 26  1  0
 26 27  2  0
 27 28  1  0
 28 29  2  0
 21 30  1  0
 30 31  1  0
 15 32  1  0
 32 33  2  0
  6 34  1  0
 34 35  2  0
 35 36  1  0
 35  3  1  0
 33 12  1  0
 31 18  1  0
 29 24  1  0
  1 37  1  0
  1 38  1  0
  1 39  1  0
  4 40  1  0
  5 41  1  0
 11 42  1  0
 11 43  1  0
 11 44  1  0
 13 45  1  0
 14 46  1  0
 19 47  1  0
 19 48  1  0
 20 49  1  0
 20 50  1  0
 22 51  1  0
 23 52  1  0
 23 53  1  0
 25 54  1  0
 26 55  1  0
 27 56  1  0
 28 57  1  0
 29 58  1  0
 30 59  1  0
 30 60  1  0
 31 61  1  0
 31 62  1  0
 32 63  1  0
 33 64  1  0
 34 65  1  0
M  END
>  <UniqueID>  (11) 
10

>  <SMILES>  (11) 
COc1ccc(S(=O)(=O)N(C)c2ccc(C(=O)N3CCC(O)(Cc4ccccc4)CC3)cc2)cc1Cl

>  <Energy>  (11) 
83.53322499436437

>  <Genealogy>  (11) 
COc1ccc(S(=O)(=O)N(C)c2ccc(C(=O)N3CCC(O)(Cc4ccccc4)CC3)cc2)cc1Cl (3D coordinates assigned)
COc1ccc(S(=O)(=O)N(C)c2ccc(C(=O)N3CCC(O)(Cc4ccccc4)CC3)cc2)cc1Cl (nonaromatic ring conformer: 83.53322499436437 kcal/mol)

>  <smiles>  (11) 
COc1ccc(S(=O)(=O)N(C)c2ccc(C(=O)N3CCC(O)(Cc4ccccc4)CC3)cc2)cc1Cl

>  <score_type>  (11) 
oracle

>  <origin>  (11) 
adg

>  <m_score__min__energy>  (11) 
-9.9600000000000009

>  <m_primary>  (11) 
energy

$$$$
11:0
     RDKit          3D

 36 38  0  0  0  0  0  0  0  0999 V2000
   59.2240   26.1910   46.0260 C   0  0  0  0  0  0  0  0  0  0  0  0
   58.0760   27.0640   47.1360 S   0  0  0  0  0  0  0  0  0  0  0  0
   58.9490   28.6340   46.9950 C   0  0  0  0  0  0  0  0  0  0  0  0
   59.8060   28.9830   47.9970 N   0  0  0  0  0  0  0  0  0  0  0  0
   60.5230   30.1390   47.9500 C   0  0  0  0  0  0  0  0  0  0  0  0
   61.3970   30.4930   48.9880 C   0  0  0  0  0  0  0  0  0  0  0  0
   62.1240   31.6870   48.9140 C   0  0  0  0  0  0  0  0  0  0  0  0
   61.9810   32.5280   47.8060 C   0  0  0  0  0  0  0  0  0  0  0  0
   61.1120   32.1810   46.7680 C   0  0  0  0  0  0  0  0  0  0  0  0
   60.3830   30.9890   46.8380 C   0  0  0  0  0  0  0  0  0  0  0  0
   59.5360   30.6400   45.8380 N   0  0  0  0  0  0  0  0  0  0  0  0
   58.8090   29.4880   45.8710 C   0  0  0  0  0  0  0  0  0  0  0  0
   57.9030   29.2010   44.7280 C   0  0  0  0  0  0  0  0  0  0  0  0
   58.2910   28.4730   43.7750 O   0  0  0  0  0  0  0  0  0  0  0  0
   56.5260   29.7420   44.6920 C   0  0  0  0  0  0  0  0  0  0  0  0
   55.5480   28.9680   44.8710 O   0  0  0  0  0  0  0  0  0  0  0  0
   56.2730   31.1460   44.5440 N   0  0  0  0  0  0  0  0  0  0  0  0
   57.1810   32.2070   44.8730 C   0  0  0  0  0  0  0  0  0  0  0  0
   58.0470   32.7630   43.9140 C   0  0  0  0  0  0  0  0  0  0  0  0
   58.9010   33.8150   44.2610 C   0  0  0  0  0  0  0  0  0  0  0  0
   58.8850   34.3300   45.5620 C   0  0  0  0  0  0  0  0  0  0  0  0
   59.9550   35.6510   45.9970 Cl  0  0  0  0  0  0  0  0  0  0  0  0
   58.0060   33.7980   46.5120 C   0  0  0  0  0  0  0  0  0  0  0  0
   57.1530   32.7460   46.1660 C   0  0  0  0  0  0  0  0  0  0  0  0
   59.9588   25.6322   46.6242 H   0  0  0  0  0  0  0  0  0  0  0  0
   58.6599   25.4916   45.3914 H   0  0  0  0  0  0  0  0  0  0  0  0
   59.7472   26.9215   45.3914 H   0  0  0  0  0  0  0  0  0  0  0  0
   59.9090   28.3430   48.8170 H   0  0  0  0  0  0  0  0  0  0  0  0
   61.5113   29.8325   49.8602 H   0  0  0  0  0  0  0  0  0  0  0  0
   62.8090   31.9642   49.7289 H   0  0  0  0  0  0  0  0  0  0  0  0
   62.5541   33.4653   47.7513 H   0  0  0  0  0  0  0  0  0  0  0  0
   61.0014   32.8441   45.8973 H   0  0  0  0  0  0  0  0  0  0  0  0
   58.0526   32.3689   42.8871 H   0  0  0  0  0  0  0  0  0  0  0  0
   59.5855   34.2377   43.5108 H   0  0  0  0  0  0  0  0  0  0  0  0
   57.9862   34.2082   47.5325 H   0  0  0  0  0  0  0  0  0  0  0  0
   56.4558   32.3390   46.9131 H   0  0  0  0  0  0  0  0  0  0  0  0
  1  2  1  0
  2  3  1  0
  3  4  2  0
  4  5  1  0
  5  6  2  0
  6  7  1  0
  7  8  2  0
  8  9  1  0
  9 10  2  0
 10 11  1  0
 11 12  2  0
 12 13  1  0
 13 14  2  0
 13 15  1  0
 15 16  2  0
 15 17  1  0
 17 18  1  0
 18 19  2  0
 19 20  1  0
 20 21  2  0
 21 22  1  0
 21 23  1  0
 23 24  2  0
 12  3  1  0
 24 18  1  0
 10  5  1  0
  1 25  1  0
  1 26  1  0
  1 27  1  0
  4 28  1  0
  6 29  1  0
  7 30  1  0
  8 31  1  0
  9 32  1  0
 19 33  1  0
 20 34  1  0
 23 35  1  0
 24 36  1  0
M  CHG  2   4   1  17  -1
M  END
>  <UniqueID>  (12) 
11

>  <SMILES>  (12) 
CSc1[nH+]c2ccccc2nc1C(=O)C(=O)[N-]c1ccc(Cl)cc1

>  <Energy>  (12) 
48.07539996148589

>  <Genealogy>  (12) 
CSc1[nH+]c2ccccc2nc1C(=O)C(=O)[N-]c1ccc(Cl)cc1 (protonated)
CSc1[nH+]c2ccccc2nc1C(=O)C(=O)[N-]c1ccc(Cl)cc1 (3D coordinates assigned)
CSc1[nH+]c2ccccc2nc1C(=O)C(=O)[N-]c1ccc(Cl)cc1 (optimized conformer: 48.07539996148589 kcal/mol)

>  <smiles>  (12) 
CSc1nc2ccccc2nc1C(=O)C(=O)Nc1ccc(Cl)cc1

>  <score_type>  (12) 
oracle

>  <origin>  (12) 
adg

>  <m_score__min__energy>  (12) 
-8.2799999999999994

>  <m_primary>  (12) 
energy

$$$$
12:0
     RDKit          3D

 47 49  0  0  1  0  0  0  0  0999 V2000
   61.4010   34.6890   48.8410 O   0  0  0  0  0  0  0  0  0  0  0  0
   60.1880   33.8480   49.1210 S   0  0  0  0  0  0  0  0  0  0  0  0
   59.2970   34.6120   50.0330 O   0  0  0  0  0  0  0  0  0  0  0  0
   60.6840   32.3820   49.9140 N   0  0  0  0  0  0  0  0  0  0  0  0
   60.3090   31.1300   49.3540 C   0  0  0  0  0  0  0  0  0  0  0  0
   61.0490   30.5650   48.3200 C   0  0  0  0  0  0  0  0  0  0  0  0
   60.7090   29.3490   47.7530 C   0  0  0  0  0  0  0  0  0  0  0  0
   59.5930   28.6520   48.2230 C   0  0  0  0  0  0  0  0  0  0  0  0
   59.2690   27.4510   47.6550 O   0  0  0  0  0  0  0  0  0  0  0  0
   58.8190   27.2350   46.3780 C   0  0  0  0  0  0  0  0  0  0  0  0
   59.0850   28.2020   45.4220 C   0  0  0  0  0  0  0  0  0  0  0  0
   58.6730   28.0740   44.1080 C   0  0  0  0  0  0  0  0  0  0  0  0
   57.9630   26.9240   43.7530 C   0  0  0  0  0  0  0  0  0  0  0  0
   57.7090   25.9790   44.7100 C   0  0  0  0  0  0  0  0  0  0  0  0
   58.1080   26.0850   46.0210 C   0  0  0  0  0  0  0  0  0  0  0  0
   58.8430   29.1990   49.2550 C   0  0  0  0  0  0  0  0  0  0  0  0
   59.2130   30.4160   49.7940 C   0  0  0  0  0  0  0  0  0  0  0  0
   59.4360   33.4680   47.5900 C   0  0  0  0  0  0  0  0  0  0  0  0
   60.1020   33.7850   46.4250 C   0  0  0  0  0  0  0  0  0  0  0  0
   59.5260   33.4940   45.2140 C   0  0  0  0  0  0  0  0  0  0  0  0
   58.2890   32.8870   45.0830 C   0  0  0  0  0  0  0  0  0  0  0  0
   57.7130   32.5950   43.7640 C   0  0  0  0  0  0  0  0  0  0  0  0
   57.5310   31.4100   43.2740 C   0  0  0  0  0  0  0  0  0  0  0  0
   56.4760   30.4700   43.5970 C   0  0  0  0  0  0  0  0  0  0  0  0
   55.8850   29.7000   42.5620 O   0  0  0  0  0  0  0  0  0  0  0  0
   55.9970   30.2470   44.7630 N   0  0  0  0  0  0  0  0  0  0  0  0
   55.1560   29.2640   45.1130 O   0  0  0  0  0  0  0  0  0  0  0  0
   57.6380   32.5770   46.2610 C   0  0  0  0  0  0  0  0  0  0  0  0
   58.2040   32.8630   47.5020 C   0  0  0  0  0  0  0  0  0  0  0  0
   61.2610   32.4320   50.8050 H   0  0  0  0  0  0  0  0  0  0  0  0
   61.9316   31.1014   47.9414 H   0  0  0  0  0  0  0  0  0  0  0  0
   61.3154   28.9327   46.9351 H   0  0  0  0  0  0  0  0  0  0  0  0
   59.6430   29.1024   45.7183 H   0  0  0  0  0  0  0  0  0  0  0  0
   58.8973   28.8536   43.3651 H   0  0  0  0  0  0  0  0  0  0  0  0
   57.6135   26.7804   42.7199 H   0  0  0  0  0  0  0  0  0  0  0  0
   57.1511   25.0792   44.4115 H   0  0  0  0  0  0  0  0  0  0  0  0
   57.8783   25.3001   46.7567 H   0  0  0  0  0  0  0  0  0  0  0  0
   57.9606   28.6674   49.6408 H   0  0  0  0  0  0  0  0  0  0  0  0
   58.6067   30.8348   50.6107 H   0  0  0  0  0  0  0  0  0  0  0  0
   61.0893   34.2683   46.4661 H   0  0  0  0  0  0  0  0  0  0  0  0
   60.0766   33.7571   44.2988 H   0  0  0  0  0  0  0  0  0  0  0  0
   57.4121   33.4512   43.1425 H   0  0  0  0  0  0  0  0  0  0  0  0
   58.2638   31.0776   42.5240 H   0  0  0  0  0  0  0  0  0  0  0  0
   55.1430   29.0230   42.7800 H   0  0  0  0  0  0  0  0  0  0  0  0
   54.7710   28.5550   44.5080 H   0  0  0  0  0  0  0  0  0  0  0  0
   56.6508   32.0936   46.2187 H   0  0  0  0  0  0  0  0  0  0  0  0
   57.6593   32.6020   48.4214 H   0  0  0  0  0  0  0  0  0  0  0  0
  1  2  2  0
  2  3  2  0
  2  4  1  0
  4  5  1  0
  5  6  2  0
  6  7  1  0
  7  8  2  0
  8  9  1  0
  9 10  1  0
 10 11  2  0
 11 12  1  0
 12 13  2  0
 13 14  1  0
 14 15  2  0
  8 16  1  0
 16 17  2  0
  2 18  1  0
 18 19  2  0
 19 20  1  0
 20 21  2  0
 21 22  1  0
 22 23  2  0
 23 24  1  0
 24 25  1  0
 24 26  2  0
 26 27  1  0
 21 28  1  0
 28 29  2  0
 17  5  1  0
 29 18  1  0
 15 10  1  0
  4 30  1  0
  6 31  1  0
  7 32  1  0
 11 33  1  0
 12 34  1  0
 13 35  1  0
 14 36  1  0
 15 37  1  0
 16 38  1  0
 17 39  1  0
 19 40  1  0
 20 41  1  0
 22 42  1  0
 23 43  1  0
 25 44  1  0
 27 45  1  0
 28 46  1  0
 29 47  1  0
M  END
>  <smiles>  (13) 
O=S(=O)(Nc1ccc(Oc2ccccc2)cc1)c1ccc(C=CC(O)=NO)cc1

>  <score_type>  (13) 
oracle

>  <origin>  (13) 
adg

>  <m_score__min__energy>  (13) 
-10.57

>  <m_primary>  (13) 
energy

$$$$
13:0
     RDKit          3D

 36 37  0  0  0  0  0  0  0  0999 V2000
   57.9500   22.9250   45.2840 C   0  0  0  0  0  0  0  0  0  0  0  0
   56.7260   23.0980   46.5690 S   0  0  0  0  0  0  0  0  0  0  0  0
   57.0170   22.1470   47.6950 O   0  0  0  0  0  0  0  0  0  0  0  0
   55.3820   22.7690   45.9840 O   0  0  0  0  0  0  0  0  0  0  0  0
   56.6910   24.7290   47.1580 N   0  0  0  0  0  0  0  0  0  0  0  0
   57.1560   25.8710   46.4270 C   0  0  0  0  0  0  0  0  0  0  0  0
   58.5320   25.9990   46.2040 C   0  0  0  0  0  0  0  0  0  0  0  0
   59.0430   27.1250   45.5580 C   0  0  0  0  0  0  0  0  0  0  0  0
   58.1820   28.1310   45.1200 C   0  0  0  0  0  0  0  0  0  0  0  0
   56.7930   28.0000   45.2860 C   0  0  0  0  0  0  0  0  0  0  0  0
   55.8870   29.1320   44.8790 C   0  0  0  0  0  0  0  0  0  0  0  0
   56.6410   30.3800   44.9070 N   0  0  0  0  0  0  0  0  0  0  0  0
   57.1050   31.0580   43.7340 C   0  0  0  0  0  0  0  0  0  0  0  0
   56.5440   30.8620   42.6230 O   0  0  0  0  0  0  0  0  0  0  0  0
   58.2450   31.9180   43.7990 N   0  0  0  0  0  0  0  0  0  0  0  0
   58.4780   32.9080   44.8090 C   0  0  0  0  0  0  0  0  0  0  0  0
   58.0100   32.6730   46.1090 C   0  0  0  0  0  0  0  0  0  0  0  0
   58.2460   33.6050   47.1250 C   0  0  0  0  0  0  0  0  0  0  0  0
   58.9680   34.7700   46.8510 C   0  0  0  0  0  0  0  0  0  0  0  0
   59.4620   35.0010   45.5640 C   0  0  0  0  0  0  0  0  0  0  0  0
   59.2250   34.0720   44.5460 C   0  0  0  0  0  0  0  0  0  0  0  0
   56.2790   26.8540   45.9250 C   0  0  0  0  0  0  0  0  0  0  0  0
   54.9030   26.6890   46.0380 O   0  0  0  0  0  0  0  0  0  0  0  0
   58.9417   22.7848   45.7388 H   0  0  0  0  0  0  0  0  0  0  0  0
   57.7060   22.0524   44.6603 H   0  0  0  0  0  0  0  0  0  0  0  0
   57.9574   23.8310   44.6603 H   0  0  0  0  0  0  0  0  0  0  0  0
   59.2156   25.2057   46.5407 H   0  0  0  0  0  0  0  0  0  0  0  0
   60.1266   27.2195   45.3939 H   0  0  0  0  0  0  0  0  0  0  0  0
   58.5929   29.0324   44.6417 H   0  0  0  0  0  0  0  0  0  0  0  0
   55.5082   28.9532   43.8619 H   0  0  0  0  0  0  0  0  0  0  0  0
   55.0380   29.1961   45.5755 H   0  0  0  0  0  0  0  0  0  0  0  0
   57.4539   31.7504   46.3316 H   0  0  0  0  0  0  0  0  0  0  0  0
   57.8633   33.4210   48.1398 H   0  0  0  0  0  0  0  0  0  0  0  0
   59.1476   35.5057   47.6488 H   0  0  0  0  0  0  0  0  0  0  0  0
   60.0375   35.9141   45.3518 H   0  0  0  0  0  0  0  0  0  0  0  0
   59.6235   34.2513   43.5365 H   0  0  0  0  0  0  0  0  0  0  0  0
  1  2  1  0
  2  3  2  0
  2  4  2  0
  2  5  1  0
  5  6  1  0
  6  7  2  0
  7  8  1  0
  8  9  2  0
  9 10  1  0
 10 11  1  0
 11 12  1  0
 12 13  1  0
 13 14  2  0
 13 15  1  0
 15 16  1  0
 16 17  2  0
 17 18  1  0
 18 19  2  0
 19 20  1  0
 20 21  2  0
 10 22  2  0
 22 23  1  0
 22  6  1  0
 21 16  1  0
  1 24  1  0
  1 25  1  0
  1 26  1  0
  7 27  1  0
  8 28  1  0
  9 29  1  0
 11 30  1  0
 11 31  1  0
 17 32  1  0
 18 33  1  0
 19 34  1  0
 20 35  1  0
 21 36  1  0
M  CHG  4   5  -1  12  -1  15  -1  23  -1
M  END
>  <UniqueID>  (14) 
12

>  <SMILES>  (14) 
CS(=O)(=O)[N-]c1cccc(C[N-]C(=O)[N-]c2ccccc2)c1[O-]

>  <Energy>  (14) 
41.28669170534845

>  <Genealogy>  (14) 
CS(=O)(=O)[N-]c1cccc(C[N-]C(=O)[N-]c2ccccc2)c1[O-] (protonated)
CS(=O)(=O)[N-]c1cccc(C[N-]C(=O)[N-]c2ccccc2)c1[O-] (3D coordinates assigned)
CS(=O)(=O)[N-]c1cccc(C[N-]C(=O)[N-]c2ccccc2)c1[O-] (optimized conformer: 41.28669170534845 kcal/mol)

>  <smiles>  (14) 
CS(=O)(=O)Nc1cccc(CNC(=O)Nc2ccccc2)c1O

>  <score_type>  (14) 
oracle

>  <origin>  (14) 
adg

>  <m_score__min__energy>  (14) 
-16.030000000000001

>  <m_primary>  (14) 
energy

$$$$
14:0
     RDKit          3D

 41 43  0  0  0  0  0  0  0  0999 V2000
   57.4130   22.2870   43.8170 C   0  0  0  0  0  0  0  0  0  0  0  0
   57.9490   23.4260   44.5740 N   0  0  0  0  0  0  0  0  0  0  0  0
   57.2680   24.6140   44.5810 C   0  0  0  0  0  0  0  0  0  0  0  0
   57.7500   25.7150   45.3060 C   0  0  0  0  0  0  0  0  0  0  0  0
   57.0170   27.0000   45.2960 C   0  0  0  0  0  0  0  0  0  0  0  0
   55.8750   27.0620   45.8290 O   0  0  0  0  0  0  0  0  0  0  0  0
   57.5840   28.1820   44.7020 N   0  0  0  0  0  0  0  0  0  0  0  0
   56.7280   29.1050   43.9470 C   0  0  0  0  0  0  0  0  0  0  0  0
   56.7920   30.5020   44.5710 C   0  0  0  0  0  0  0  0  0  0  0  0
   58.1790   30.8880   44.8660 N   0  0  0  0  0  0  0  0  0  0  0  0
   58.4510   32.2210   45.3160 C   0  0  0  0  0  0  0  0  0  0  0  0
   58.2490   33.3010   44.4450 C   0  0  0  0  0  0  0  0  0  0  0  0
   58.5170   34.6050   44.8660 C   0  0  0  0  0  0  0  0  0  0  0  0
   58.9860   34.8390   46.1600 C   0  0  0  0  0  0  0  0  0  0  0  0
   59.1900   33.7720   47.0410 C   0  0  0  0  0  0  0  0  0  0  0  0
   59.7760   34.1130   48.6640 Cl  0  0  0  0  0  0  0  0  0  0  0  0
   58.9210   32.4550   46.6230 C   0  0  0  0  0  0  0  0  0  0  0  0
   59.1470   31.1050   47.7340 Cl  0  0  0  0  0  0  0  0  0  0  0  0
   59.2930   29.9860   44.5540 C   0  0  0  0  0  0  0  0  0  0  0  0
   58.9700   28.5620   45.0260 C   0  0  0  0  0  0  0  0  0  0  0  0
   58.9580   25.5850   46.0020 C   0  0  0  0  0  0  0  0  0  0  0  0
   59.6420   24.3730   45.9880 C   0  0  0  0  0  0  0  0  0  0  0  0
   59.1240   23.2940   45.2690 C   0  0  0  0  0  0  0  0  0  0  0  0
   59.7540   22.2000   45.2650 O   0  0  0  0  0  0  0  0  0  0  0  0
   57.0516   21.5191   44.5168 H   0  0  0  0  0  0  0  0  0  0  0  0
   56.5803   22.6269   43.1837 H   0  0  0  0  0  0  0  0  0  0  0  0
   58.2056   21.8621   43.1837 H   0  0  0  0  0  0  0  0  0  0  0  0
   56.3316   24.7066   44.0114 H   0  0  0  0  0  0  0  0  0  0  0  0
   57.0754   29.1547   42.9045 H   0  0  0  0  0  0  0  0  0  0  0  0
   55.6899   28.7423   43.9756 H   0  0  0  0  0  0  0  0  0  0  0  0
   56.3586   31.2292   43.8686 H   0  0  0  0  0  0  0  0  0  0  0  0
   56.2254   30.4892   45.5138 H   0  0  0  0  0  0  0  0  0  0  0  0
   57.8777   33.1202   43.4255 H   0  0  0  0  0  0  0  0  0  0  0  0
   58.3585   35.4484   44.1778 H   0  0  0  0  0  0  0  0  0  0  0  0
   59.1961   35.8676   46.4883 H   0  0  0  0  0  0  0  0  0  0  0  0
   59.4614   29.9791   43.4670 H   0  0  0  0  0  0  0  0  0  0  0  0
   60.1969   30.3394   45.0718 H   0  0  0  0  0  0  0  0  0  0  0  0
   59.6571   27.8585   44.5330 H   0  0  0  0  0  0  0  0  0  0  0  0
   59.0884   28.5278   46.1191 H   0  0  0  0  0  0  0  0  0  0  0  0
   59.3663   26.4407   46.5598 H   0  0  0  0  0  0  0  0  0  0  0  0
   60.5868   24.2656   46.5411 H   0  0  0  0  0  0  0  0  0  0  0  0
  1  2  1  0
  2  3  1  0
  3  4  2  0
  4  5  1  0
  5  6  2  0
  5  7  1  0
  7  8  1  0
  8  9  1  0
  9 10  1  0
 10 11  1  0
 11 12  2  0
 12 13  1  0
 13 14  2  0
 14 15  1  0
 15 16  1  0
 15 17  2  0
 17 18  1  0
 10 19  1  0
 19 20  1  0
  4 21  1  0
 21 22  2  0
 22 23  1  0
 23 24  2  0
 23  2  1  0
 20  7  1  0
 17 11  1  0
  1 25  1  0
  1 26  1  0
  1 27  1  0
  3 28  1  0
  8 29  1  0
  8 30  1  0
  9 31  1  0
  9 32  1  0
 12 33  1  0
 13 34  1  0
 14 35  1  0
 19 36  1  0
 19 37  1  0
 20 38  1  0
 20 39  1  0
 21 40  1  0
 22 41  1  0
M  END
>  <UniqueID>  (15) 
13

>  <SMILES>  (15) 
Cn1cc(C(=O)N2CCN(c3cccc(Cl)c3Cl)CC2)ccc1=O

>  <Energy>  (15) 
56.936609180639934

>  <Genealogy>  (15) 
Cn1cc(C(=O)N2CCN(c3cccc(Cl)c3Cl)CC2)ccc1=O (3D coordinates assigned)
Cn1cc(C(=O)N2CCN(c3cccc(Cl)c3Cl)CC2)ccc1=O (nonaromatic ring conformer: 56.936609180639934 kcal/mol)

>  <smiles>  (15) 
Cn1cc(C(=O)N2CCN(c3cccc(Cl)c3Cl)CC2)ccc1=O

>  <score_type>  (15) 
oracle

>  <origin>  (15) 
adg

>  <m_score__min__energy>  (15) 
-7.9800000000000004

>  <m_primary>  (15) 
energy

$$$$
15:0
     RDKit          3D

 36 37  0  0  0  0  0  0  0  0999 V2000
   60.7600   26.7160   46.8600 C   0  0  0  0  0  0  0  0  0  0  0  0
   59.7820   27.6030   46.1480 C   0  0  0  0  0  0  0  0  0  0  0  0
   58.4230   27.5780   46.4940 C   0  0  0  0  0  0  0  0  0  0  0  0
   57.5170   28.4310   45.8570 C   0  0  0  0  0  0  0  0  0  0  0  0
   57.9630   29.3250   44.8740 C   0  0  0  0  0  0  0  0  0  0  0  0
   56.8330   30.3960   44.0480 S   0  0  0  0  0  0  0  0  0  0  0  0
   55.5100   30.3360   44.7590 O   0  0  0  0  0  0  0  0  0  0  0  0
   56.6310   29.9450   42.6270 O   0  0  0  0  0  0  0  0  0  0  0  0
   57.4060   32.0410   44.0560 N   0  0  0  0  0  0  0  0  0  0  0  0
   57.0200   32.7420   45.2810 C   0  0  0  0  0  0  0  0  0  0  0  0
   58.2080   32.9790   46.1650 C   0  0  0  0  0  0  0  0  0  0  0  0
   58.0950   33.7540   47.1530 O   0  0  0  0  0  0  0  0  0  0  0  0
   59.4730   32.3760   45.8460 N   0  0  0  0  0  0  0  0  0  0  0  0
   60.6530   32.5000   46.6570 C   0  0  0  0  0  0  0  0  0  0  0  0
   61.0960   31.3940   47.3990 C   0  0  0  0  0  0  0  0  0  0  0  0
   62.2280   31.4950   48.2130 C   0  0  0  0  0  0  0  0  0  0  0  0
   62.9200   32.7060   48.3030 C   0  0  0  0  0  0  0  0  0  0  0  0
   64.3400   32.8330   49.3260 Cl  0  0  0  0  0  0  0  0  0  0  0  0
   62.4730   33.8200   47.5850 C   0  0  0  0  0  0  0  0  0  0  0  0
   61.3410   33.7220   46.7700 C   0  0  0  0  0  0  0  0  0  0  0  0
   59.3230   29.3660   44.5420 C   0  0  0  0  0  0  0  0  0  0  0  0
   60.2300   28.5140   45.1790 C   0  0  0  0  0  0  0  0  0  0  0  0
   60.6344   26.8299   47.9469 H   0  0  0  0  0  0  0  0  0  0  0  0
   60.5780   25.6686   46.5776 H   0  0  0  0  0  0  0  0  0  0  0  0
   61.7847   26.9991   46.5776 H   0  0  0  0  0  0  0  0  0  0  0  0
   58.0684   26.8839   47.2702 H   0  0  0  0  0  0  0  0  0  0  0  0
   56.4513   28.4005   46.1279 H   0  0  0  0  0  0  0  0  0  0  0  0
   56.5716   33.7105   45.0145 H   0  0  0  0  0  0  0  0  0  0  0  0
   56.2971   32.1183   45.8273 H   0  0  0  0  0  0  0  0  0  0  0  0
   59.5730   31.9180   44.9110 H   0  0  0  0  0  0  0  0  0  0  0  0
   60.5489   30.4416   47.3396 H   0  0  0  0  0  0  0  0  0  0  0  0
   62.5745   30.6205   48.7833 H   0  0  0  0  0  0  0  0  0  0  0  0
   63.0131   34.7752   47.6616 H   0  0  0  0  0  0  0  0  0  0  0  0
   60.9871   34.6035   46.2152 H   0  0  0  0  0  0  0  0  0  0  0  0
   59.6790   30.0715   43.7768 H   0  0  0  0  0  0  0  0  0  0  0  0
   61.2982   28.5578   44.9199 H   0  0  0  0  0  0  0  0  0  0  0  0
  1  2  1  0
  2  3  2  0
  3  4  1  0
  4  5  2  0
  5  6  1  0
  6  7  2  0
  6  8  2  0
  6  9  1  0
  9 10  1  0
 10 11  1  0
 11 12  2  0
 11 13  1  0
 13 14  1  0
 14 15  2  0
 15 16  1  0
 16 17  2  0
 17 18  1  0
 17 19  1  0
 19 20  2  0
  5 21  1  0
 21 22  2  0
 22  2  1  0
 20 14  1  0
  1 23  1  0
  1 24  1  0
  1 25  1  0
  3 26  1  0
  4 27  1  0
 10 28  1  0
 10 29  1  0
 13 30  1  0
 15 31  1  0
 16 32  1  0
 19 33  1  0
 20 34  1  0
 21 35  1  0
 22 36  1  0
M  CHG  1   9  -1
M  END
>  <UniqueID>  (16) 
14

>  <SMILES>  (16) 
Cc1ccc(S(=O)(=O)[N-]CC(=O)Nc2ccc(Cl)cc2)cc1

>  <Energy>  (16) 
36.36767195868548

>  <Genealogy>  (16) 
Cc1ccc(S(=O)(=O)[N-]CC(=O)Nc2ccc(Cl)cc2)cc1 (protonated)
Cc1ccc(S(=O)(=O)[N-]CC(=O)Nc2ccc(Cl)cc2)cc1 (3D coordinates assigned)
Cc1ccc(S(=O)(=O)[N-]CC(=O)Nc2ccc(Cl)cc2)cc1 (optimized conformer: 36.36767195868548 kcal/mol)

>  <smiles>  (16) 
Cc1ccc(S(=O)(=O)NCC(=O)Nc2ccc(Cl)cc2)cc1

>  <score_type>  (16) 
oracle

>  <origin>  (16) 
adg

>  <m_score__min__energy>  (16) 
-9.2300000000000004

>  <m_primary>  (16) 
energy

$$$$
16:0
     RDKit          3D

 48 52  0  0  1  0  0  0  0  0999 V2000
   64.2020   32.3540   51.6540 C   0  0  0  0  0  0  0  0  0  0  0  0
   63.8490   32.7210   50.3160 N   0  0  0  0  0  0  0  0  0  0  0  0
   64.8270   32.9410   49.3990 C   0  0  0  0  0  0  0  0  0  0  0  0
   66.0440   32.8370   49.6700 O   0  0  0  0  0  0  0  0  0  0  0  0
   64.4980   33.2900   48.1300 N   0  0  0  0  0  0  0  0  0  0  0  0
   63.2210   33.4290   47.7320 C   0  0  0  0  0  0  0  0  0  0  0  0
   62.8700   33.7460   46.5850 O   0  0  0  0  0  0  0  0  0  0  0  0
   62.2390   33.2020   48.6740 C   0  0  0  0  0  0  0  0  0  0  0  0
   60.8930   33.3120   48.3910 C   0  0  0  0  0  0  0  0  0  0  0  0
   60.5280   33.6370   47.2160 N   0  0  0  0  0  0  0  0  0  0  0  0
   59.4850   32.9680   46.5140 C   0  0  0  0  0  0  0  0  0  0  0  0
   58.3430   33.7290   46.2390 C   0  0  0  0  0  0  0  0  0  0  0  0
   57.2720   33.1590   45.5570 C   0  0  0  0  0  0  0  0  0  0  0  0
   57.3870   31.8570   45.1800 C   0  0  0  0  0  0  0  0  0  0  0  0
   58.5140   31.0770   45.4420 C   0  0  0  0  0  0  0  0  0  0  0  0
   59.5650   31.6510   46.1160 C   0  0  0  0  0  0  0  0  0  0  0  0
   58.5490   29.7530   45.0210 O   0  0  0  0  0  0  0  0  0  0  0  0
   57.5480   29.1510   44.2490 C   0  0  0  0  0  0  0  0  0  0  0  0
   56.2240   29.8600   44.3280 C   0  0  0  0  0  0  0  0  0  0  0  0
   56.3480   31.2500   44.5010 O   0  0  0  0  0  0  0  0  0  0  0  0
   59.9720   33.0780   49.3540 N   0  0  0  0  0  0  0  0  0  0  0  0
   60.2970   32.7350   50.6050 C   0  0  0  0  0  0  0  0  0  0  0  0
   59.3860   32.4680   51.6910 C   0  0  0  0  0  0  0  0  0  0  0  0
   59.8980   32.3900   52.9950 C   0  0  0  0  0  0  0  0  0  0  0  0
   59.1070   32.1390   54.0870 C   0  0  0  0  0  0  0  0  0  0  0  0
   57.7520   31.9490   53.9590 C   0  0  0  0  0  0  0  0  0  0  0  0
   57.2260   32.0210   52.6930 C   0  0  0  0  0  0  0  0  0  0  0  0
   58.0310   32.2750   51.5830 C   0  0  0  0  0  0  0  0  0  0  0  0
   57.3990   32.3250   50.3710 O   0  0  0  0  0  0  0  0  0  0  0  0
   61.6280   32.6320   50.8620 N   0  0  0  0  0  0  0  0  0  0  0  0
   62.5700   32.8480   49.9640 C   0  0  0  0  0  0  0  0  0  0  0  0
   63.6205   32.9586   52.3656 H   0  0  0  0  0  0  0  0  0  0  0  0
   63.9811   31.2881   51.8122 H   0  0  0  0  0  0  0  0  0  0  0  0
   65.2757   32.5333   51.8122 H   0  0  0  0  0  0  0  0  0  0  0  0
   65.2520   33.4590   47.4230 H   0  0  0  0  0  0  0  0  0  0  0  0
   58.2919   34.7792   46.5624 H   0  0  0  0  0  0  0  0  0  0  0  0
   56.3657   33.7400   45.3311 H   0  0  0  0  0  0  0  0  0  0  0  0
   60.4669   31.0614   46.3371 H   0  0  0  0  0  0  0  0  0  0  0  0
   57.8761   29.1413   43.1991 H   0  0  0  0  0  0  0  0  0  0  0  0
   57.3971   28.1368   44.6473 H   0  0  0  0  0  0  0  0  0  0  0  0
   55.6708   29.6719   43.3960 H   0  0  0  0  0  0  0  0  0  0  0  0
   55.6957   29.4674   45.2093 H   0  0  0  0  0  0  0  0  0  0  0  0
   58.9960   33.1760   49.0860 H   0  0  0  0  0  0  0  0  0  0  0  0
   60.9775   32.5361   53.1477 H   0  0  0  0  0  0  0  0  0  0  0  0
   59.5664   32.0888   55.0852 H   0  0  0  0  0  0  0  0  0  0  0  0
   57.1160   31.7478   54.8336 H   0  0  0  0  0  0  0  0  0  0  0  0
   56.1450   31.8750   52.5509 H   0  0  0  0  0  0  0  0  0  0  0  0
   56.3840   32.3210   50.3230 H   0  0  0  0  0  0  0  0  0  0  0  0
  1  2  1  0
  2  3  1  0
  3  4  2  0
  3  5  1  0
  5  6  1  0
  6  7  2  0
  6  8  1  0
  8  9  1  0
  9 10  2  0
 10 11  1  0
 11 12  2  0
 12 13  1  0
 13 14  2  0
 14 15  1  0
 15 16  2  0
 15 17  1  0
 17 18  1  0
 18 19  1  0
 19 20  1  0
  9 21  1  0
 21 22  1  0
 22 23  1  0
 23 24  2  0
 24 25  1  0
 25 26  2  0
 26 27  1  0
 27 28  2  0
 28 29  1  0
 22 30  2  0
 30 31  1  0
 31  2  1  0
 31  8  2  0
 16 11  1  0
 28 23  1  0
 20 14  1  0
  1 32  1  0
  1 33  1  0
  1 34  1  0
  5 35  1  0
 12 36  1  0
 13 37  1  0
 16 38  1  0
 18 39  1  0
 18 40  1  0
 19 41  1  0
 19 42  1  0
 21 43  1  0
 24 44  1  0
 25 45  1  0
 26 46  1  0
 27 47  1  0
 29 48  1  0
M  END
>  <smiles>  (17) 
Cn1c(=O)[nH]c(=O)c2c(=Nc3ccc4c(c3)OCCO4)[nH]c(-c3ccccc3O)nc21

>  <score_type>  (17) 
oracle

>  <origin>  (17) 
adg

>  <m_score__min__energy>  (17) 
-9.0500000000000007

>  <m_primary>  (17) 
energy

$$$$
17:0
     RDKit          3D

 51 53  0  0  0  0  0  0  0  0999 V2000
   56.6860   26.6650   45.6210 C   0  0  0  0  0  0  0  0  0  0  0  0
   57.6650   27.6850   46.1210 C   0  0  0  0  0  0  0  0  0  0  0  0
   58.6140   27.2620   46.9530 O   0  0  0  0  0  0  0  0  0  0  0  0
   59.5300   28.0600   47.4860 C   0  0  0  0  0  0  0  0  0  0  0  0
   60.4050   27.5620   48.2450 O   0  0  0  0  0  0  0  0  0  0  0  0
   59.5330   29.4340   47.1940 C   0  0  0  0  0  0  0  0  0  0  0  0
   60.5320   30.3620   47.7810 C   0  0  0  0  0  0  0  0  0  0  0  0
   60.5390   30.6300   49.1580 C   0  0  0  0  0  0  0  0  0  0  0  0
   61.4740   31.5100   49.7070 C   0  0  0  0  0  0  0  0  0  0  0  0
   62.4280   32.1530   48.8900 C   0  0  0  0  0  0  0  0  0  0  0  0
   63.4010   33.0680   49.4600 N   0  0  0  0  0  0  0  0  0  0  0  0
   62.9670   34.3150   50.1000 C   0  0  0  0  0  0  0  0  0  0  0  0
   64.8350   32.7600   49.4050 C   0  0  0  0  0  0  0  0  0  0  0  0
   62.4100   31.8840   47.5060 C   0  0  0  0  0  0  0  0  0  0  0  0
   61.4730   31.0030   46.9600 C   0  0  0  0  0  0  0  0  0  0  0  0
   58.5590   29.9170   46.3110 C   0  0  0  0  0  0  0  0  0  0  0  0
   57.6090   29.0520   45.7490 C   0  0  0  0  0  0  0  0  0  0  0  0
   56.6000   29.6040   44.8050 C   0  0  0  0  0  0  0  0  0  0  0  0
   55.3760   29.3420   44.9430 O   0  0  0  0  0  0  0  0  0  0  0  0
   57.0260   30.4310   43.7140 N   0  0  0  0  0  0  0  0  0  0  0  0
   57.7520   31.6850   43.8840 C   0  0  0  0  0  0  0  0  0  0  0  0
   57.0320   32.5890   44.8870 C   0  0  0  0  0  0  0  0  0  0  0  0
   58.0240   33.3010   45.7650 C   0  0  0  0  0  0  0  0  0  0  0  0
   58.0700   33.0350   47.1440 C   0  0  0  0  0  0  0  0  0  0  0  0
   59.0160   33.6720   47.9530 C   0  0  0  0  0  0  0  0  0  0  0  0
   59.9270   34.5710   47.3910 C   0  0  0  0  0  0  0  0  0  0  0  0
   59.8980   34.8300   46.0190 C   0  0  0  0  0  0  0  0  0  0  0  0
   58.9530   34.1950   45.2050 C   0  0  0  0  0  0  0  0  0  0  0  0
   56.2072   26.1661   46.4765 H   0  0  0  0  0  0  0  0  0  0  0  0
   55.9184   27.1623   45.0099 H   0  0  0  0  0  0  0  0  0  0  0  0
   57.2143   25.9184   45.0099 H   0  0  0  0  0  0  0  0  0  0  0  0
   59.8008   30.1422   49.8116 H   0  0  0  0  0  0  0  0  0  0  0  0
   61.4667   31.7043   50.7897 H   0  0  0  0  0  0  0  0  0  0  0  0
   63.0072   34.1994   51.1932 H   0  0  0  0  0  0  0  0  0  0  0  0
   63.6324   35.1354   49.7933 H   0  0  0  0  0  0  0  0  0  0  0  0
   61.9360   34.5450   49.7933 H   0  0  0  0  0  0  0  0  0  0  0  0
   65.2312   32.6749   50.4276 H   0  0  0  0  0  0  0  0  0  0  0  0
   64.9856   31.8090   48.8731 H   0  0  0  0  0  0  0  0  0  0  0  0
   65.3628   33.5653   48.8731 H   0  0  0  0  0  0  0  0  0  0  0  0
   63.1428   32.3739   46.8479 H   0  0  0  0  0  0  0  0  0  0  0  0
   61.4727   30.8100   45.8771 H   0  0  0  0  0  0  0  0  0  0  0  0
   58.5390   30.9867   46.0555 H   0  0  0  0  0  0  0  0  0  0  0  0
   58.7654   31.4694   44.2534 H   0  0  0  0  0  0  0  0  0  0  0  0
   57.8039   32.2005   42.9137 H   0  0  0  0  0  0  0  0  0  0  0  0
   56.4347   33.3329   44.3393 H   0  0  0  0  0  0  0  0  0  0  0  0
   56.3801   31.9684   45.5194 H   0  0  0  0  0  0  0  0  0  0  0  0
   57.3592   32.3230   47.5887 H   0  0  0  0  0  0  0  0  0  0  0  0
   59.0433   33.4654   49.0331 H   0  0  0  0  0  0  0  0  0  0  0  0
   60.6673   35.0748   48.0299 H   0  0  0  0  0  0  0  0  0  0  0  0
   60.6188   35.5340   45.5775 H   0  0  0  0  0  0  0  0  0  0  0  0
   58.9372   34.3961   44.1237 H   0  0  0  0  0  0  0  0  0  0  0  0
  1  2  1  0
  2  3  1  0
  3  4  1  0
  4  5  2  0
  4  6  1  0
  6  7  1  0
  7  8  2  0
  8  9  1  0
  9 10  2  0
 10 11  1  0
 11 12  1  0
 11 13  1  0
 10 14  1  0
 14 15  2  0
  6 16  2  0
 16 17  1  0
 17 18  1  0
 18 19  2  0
 18 20  1  0
 20 21  1  0
 21 22  1  0
 22 23  1  0
 23 24  2  0
 24 25  1  0
 25 26  2  0
 26 27  1  0
 27 28  2  0
 17  2  2  0
 28 23  1  0
 15  7  1  0
  1 29  1  0
  1 30  1  0
  1 31  1  0
  8 32  1  0
  9 33  1  0
 12 34  1  0
 12 35  1  0
 12 36  1  0
 13 37  1  0
 13 38  1  0
 13 39  1  0
 14 40  1  0
 15 41  1  0
 16 42  1  0
 21 43  1  0
 21 44  1  0
 22 45  1  0
 22 46  1  0
 24 47  1  0
 25 48  1  0
 26 49  1  0
 27 50  1  0
 28 51  1  0
M  CHG  1  20  -1
M  END
>  <UniqueID>  (18) 
15

>  <SMILES>  (18) 
Cc1oc(=O)c(-c2ccc(N(C)C)cc2)cc1C(=O)[N-]CCc1ccccc1

>  <Energy>  (18) 
61.62410045131881

>  <Genealogy>  (18) 
Cc1oc(=O)c(-c2ccc(N(C)C)cc2)cc1C(=O)[N-]CCc1ccccc1 (protonated)
Cc1oc(=O)c(-c2ccc(N(C)C)cc2)cc1C(=O)[N-]CCc1ccccc1 (3D coordinates assigned)
Cc1oc(=O)c(-c2ccc(N(C)C)cc2)cc1C(=O)[N-]CCc1ccccc1 (optimized conformer: 61.62410045131881 kcal/mol)

>  <smiles>  (18) 
Cc1oc(=O)c(-c2ccc(N(C)C)cc2)cc1C(=O)NCCc1ccccc1

>  <score_type>  (18) 
oracle

>  <origin>  (18) 
adg

>  <m_score__min__energy>  (18) 
-9.9399999999999995

>  <m_primary>  (18) 
energy

$$$$
18:0
     RDKit          3D

 63 66  0  0  0  0  0  0  0  0999 V2000
   61.9570   34.2480   49.3130 C   0  0  0  0  0  0  0  0  0  0  0  0
   61.4330   32.9940   48.7500 N   0  0  0  0  0  0  0  0  0  0  0  0
   62.4710   32.3110   47.9590 C   0  0  0  0  0  0  0  0  0  0  0  0
   61.8240   31.1730   47.1600 C   0  0  0  0  0  0  0  0  0  0  0  0
   60.7900   30.4990   47.9560 N   0  0  0  0  0  0  0  0  0  0  0  0
   59.8280   29.6400   47.3130 C   0  0  0  0  0  0  0  0  0  0  0  0
   59.3400   28.5040   47.9710 C   0  0  0  0  0  0  0  0  0  0  0  0
   58.4160   27.6650   47.3490 C   0  0  0  0  0  0  0  0  0  0  0  0
   57.9490   27.9410   46.0490 C   0  0  0  0  0  0  0  0  0  0  0  0
   57.0400   26.9650   45.3880 C   0  0  0  0  0  0  0  0  0  0  0  0
   57.4250   26.3040   44.3870 O   0  0  0  0  0  0  0  0  0  0  0  0
   55.7210   26.7460   45.9070 N   0  0  0  0  0  0  0  0  0  0  0  0
   54.9420   25.5430   45.6400 C   0  0  0  0  0  0  0  0  0  0  0  0
   55.6050   24.3230   46.2890 C   0  0  0  0  0  0  0  0  0  0  0  0
   56.2150   23.4320   45.2410 C   0  0  0  0  0  0  0  0  0  0  0  0
   55.7030   23.4190   43.9330 C   0  0  0  0  0  0  0  0  0  0  0  0
   56.2890   22.6090   42.9560 C   0  0  0  0  0  0  0  0  0  0  0  0
   57.3920   21.8120   43.2750 C   0  0  0  0  0  0  0  0  0  0  0  0
   57.9140   21.8290   44.5710 C   0  0  0  0  0  0  0  0  0  0  0  0
   57.3330   22.6390   45.5510 C   0  0  0  0  0  0  0  0  0  0  0  0
   58.4140   29.1100   45.3960 C   0  0  0  0  0  0  0  0  0  0  0  0
   57.9530   29.4710   44.0890 N   0  0  0  0  0  0  0  0  0  0  0  0
   56.8930   30.8230   43.8820 S   0  0  0  0  0  0  0  0  0  0  0  0
   56.7020   31.0920   42.4150 O   0  0  0  0  0  0  0  0  0  0  0  0
   55.5550   30.5240   44.4970 O   0  0  0  0  0  0  0  0  0  0  0  0
   57.6200   32.2350   44.6420 C   0  0  0  0  0  0  0  0  0  0  0  0
   58.4740   33.0670   43.9040 C   0  0  0  0  0  0  0  0  0  0  0  0
   59.1040   34.1530   44.5210 C   0  0  0  0  0  0  0  0  0  0  0  0
   58.8890   34.4060   45.8800 C   0  0  0  0  0  0  0  0  0  0  0  0
   59.5070   35.4530   46.4790 F   0  0  0  0  0  0  0  0  0  0  0  0
   58.0440   33.5730   46.6220 C   0  0  0  0  0  0  0  0  0  0  0  0
   57.4110   32.4890   46.0060 C   0  0  0  0  0  0  0  0  0  0  0  0
   59.3500   29.9410   46.0300 C   0  0  0  0  0  0  0  0  0  0  0  0
   60.8140   30.6390   49.4180 C   0  0  0  0  0  0  0  0  0  0  0  0
   60.9020   32.1240   49.8270 C   0  0  0  0  0  0  0  0  0  0  0  0
   61.9346   34.1943   50.4115 H   0  0  0  0  0  0  0  0  0  0  0  0
   62.9928   34.3974   48.9743 H   0  0  0  0  0  0  0  0  0  0  0  0
   61.3354   35.0900   48.9743 H   0  0  0  0  0  0  0  0  0  0  0  0
   62.9384   33.0275   47.2675 H   0  0  0  0  0  0  0  0  0  0  0  0
   63.2402   31.9021   48.6306 H   0  0  0  0  0  0  0  0  0  0  0  0
   61.3657   31.5868   46.2496 H   0  0  0  0  0  0  0  0  0  0  0  0
   62.6011   30.4398   46.8983 H   0  0  0  0  0  0  0  0  0  0  0  0
   59.6889   28.2714   48.9880 H   0  0  0  0  0  0  0  0  0  0  0  0
   58.0468   26.7756   47.8807 H   0  0  0  0  0  0  0  0  0  0  0  0
   53.9298   25.6676   46.0521 H   0  0  0  0  0  0  0  0  0  0  0  0
   54.8903   25.3851   44.5526 H   0  0  0  0  0  0  0  0  0  0  0  0
   56.3926   24.6630   46.9775 H   0  0  0  0  0  0  0  0  0  0  0  0
   54.8402   23.7535   46.8374 H   0  0  0  0  0  0  0  0  0  0  0  0
   54.8380   24.0483   43.6767 H   0  0  0  0  0  0  0  0  0  0  0  0
   55.8814   22.5988   41.9344 H   0  0  0  0  0  0  0  0  0  0  0  0
   57.8489   21.1717   42.5061 H   0  0  0  0  0  0  0  0  0  0  0  0
   58.7839   21.2037   44.8206 H   0  0  0  0  0  0  0  0  0  0  0  0
   57.7522   22.6557   46.5679 H   0  0  0  0  0  0  0  0  0  0  0  0
   58.3960   29.0460   43.2450 H   0  0  0  0  0  0  0  0  0  0  0  0
   58.6490   32.8652   42.8369 H   0  0  0  0  0  0  0  0  0  0  0  0
   59.7682   34.8078   43.9378 H   0  0  0  0  0  0  0  0  0  0  0  0
   57.8776   33.7712   47.6911 H   0  0  0  0  0  0  0  0  0  0  0  0
   56.7484   31.8346   46.5914 H   0  0  0  0  0  0  0  0  0  0  0  0
   59.7138   30.8412   45.5131 H   0  0  0  0  0  0  0  0  0  0  0  0
   59.8945   30.2039   49.8367 H   0  0  0  0  0  0  0  0  0  0  0  0
   61.6989   30.1141   49.8070 H   0  0  0  0  0  0  0  0  0  0  0  0
   59.8939   32.4737   50.0943 H   0  0  0  0  0  0  0  0  0  0  0  0
   61.5994   32.1896   50.6751 H   0  0  0  0  0  0  0  0  0  0  0  0
  1  2  1  0
  2  3  1  0
  3  4  1  0
  4  5  1  0
  5  6  1  0
  6  7  2  0
  7  8  1  0
  8  9  2  0
  9 10  1  0
 10 11  2  0
 10 12  1  0
 12 13  1  0
 13 14  1  0
 14 15  1  0
 15 16  2  0
 16 17  1  0
 17 18  2  0
 18 19  1  0
 19 20  2  0
  9 21  1  0
 21 22  1  0
 22 23  1  0
 23 24  2  0
 23 25  2  0
 23 26  1  0
 26 27  2  0
 27 28  1  0
 28 29  2  0
 29 30  1  0
 29 31  1  0
 31 32  2  0
 21 33  2  0
  5 34  1  0
 34 35  1  0
 35  2  1  0
 33  6  1  0
 20 15  1  0
 32 26  1  0
  1 36  1  0
  1 37  1  0
  1 38  1  0
  3 39  1  0
  3 40  1  0
  4 41  1  0
  4 42  1  0
  7 43  1  0
  8 44  1  0
 13 45  1  0
 13 46  1  0
 14 47  1  0
 14 48  1  0
 16 49  1  0
 17 50  1  0
 18 51  1  0
 19 52  1  0
 20 53  1  0
 22 54  1  0
 27 55  1  0
 28 56  1  0
 31 57  1  0
 32 58  1  0
 33 59  1  0
 34 60  1  0
 34 61  1  0
 35 62  1  0
 35 63  1  0
M  CHG  1  12  -1
M  END
>  <UniqueID>  (19) 
16

>  <SMILES>  (19) 
CN1CCN(c2ccc(C(=O)[N-]CCc3ccccc3)c(NS(=O)(=O)c3ccc(F)cc3)c2)CC1

>  <Energy>  (19) 
78.65095010489382

>  <Genealogy>  (19) 
CN1CCN(c2ccc(C(=O)[N-]CCc3ccccc3)c(NS(=O)(=O)c3ccc(F)cc3)c2)CC1 (protonated)
CN1CCN(c2ccc(C(=O)[N-]CCc3ccccc3)c(NS(=O)(=O)c3ccc(F)cc3)c2)CC1 (3D coordinates assigned)
CN1CCN(c2ccc(C(=O)[N-]CCc3ccccc3)c(NS(=O)(=O)c3ccc(F)cc3)c2)CC1 (nonaromatic ring conformer: 78.65095010489382 kcal/mol)

>  <smiles>  (19) 
CN1CCN(c2ccc(C(=O)NCCc3ccccc3)c(NS(=O)(=O)c3ccc(F)cc3)c2)CC1

>  <score_type>  (19) 
oracle

>  <origin>  (19) 
adg

>  <m_score__min__energy>  (19) 
-12.24

>  <m_primary>  (19) 
energy

$$$$
19:0
     RDKit          3D

 38 40  0  0  0  0  0  0  0  0999 V2000
   56.6570   34.4380   44.8650 C   0  0  0  0  0  0  0  0  0  0  0  0
   57.9290   33.2940   45.3460 S   0  0  0  0  0  0  0  0  0  0  0  0
   57.3200   32.2900   46.2710 O   0  0  0  0  0  0  0  0  0  0  0  0
   58.4960   32.5870   44.1580 O   0  0  0  0  0  0  0  0  0  0  0  0
   59.1470   34.1720   46.1970 N   0  0  0  0  0  0  0  0  0  0  0  0
   60.1380   33.4820   46.9400 C   0  0  0  0  0  0  0  0  0  0  0  0
   60.9130   34.0320   47.9130 C   0  0  0  0  0  0  0  0  0  0  0  0
   61.8480   33.2790   48.5780 C   0  0  0  0  0  0  0  0  0  0  0  0
   62.0520   31.9420   48.3040 C   0  0  0  0  0  0  0  0  0  0  0  0
   61.2650   31.3700   47.3150 C   0  0  0  0  0  0  0  0  0  0  0  0
   61.3990   30.0300   46.9710 O   0  0  0  0  0  0  0  0  0  0  0  0
   60.3160   29.1670   46.8650 C   0  0  0  0  0  0  0  0  0  0  0  0
   60.4260   27.9420   47.5050 C   0  0  0  0  0  0  0  0  0  0  0  0
   59.4150   27.0370   47.4510 N   0  0  0  0  0  0  0  0  0  0  0  0
   58.2970   27.3710   46.7550 C   0  0  0  0  0  0  0  0  0  0  0  0
   57.2960   26.4940   46.6950 N   0  0  0  0  0  0  0  0  0  0  0  0
   56.1690   26.7670   46.0220 C   0  0  0  0  0  0  0  0  0  0  0  0
   55.1780   25.9400   45.9410 N   0  0  0  0  0  0  0  0  0  0  0  0
   56.0350   27.9490   45.3920 N   0  0  0  0  0  0  0  0  0  0  0  0
   57.0220   28.8920   45.4140 C   0  0  0  0  0  0  0  0  0  0  0  0
   56.7950   29.9700   44.7870 N   0  0  0  0  0  0  0  0  0  0  0  0
   58.1510   28.5700   46.1100 C   0  0  0  0  0  0  0  0  0  0  0  0
   59.1760   29.4920   46.1610 C   0  0  0  0  0  0  0  0  0  0  0  0
   60.3210   32.1410   46.6450 C   0  0  0  0  0  0  0  0  0  0  0  0
   56.1858   34.8617   45.7641 H   0  0  0  0  0  0  0  0  0  0  0  0
   57.0995   35.2480   44.2666 H   0  0  0  0  0  0  0  0  0  0  0  0
   55.8983   33.9124   44.2666 H   0  0  0  0  0  0  0  0  0  0  0  0
   59.1690   35.2280   46.1760 H   0  0  0  0  0  0  0  0  0  0  0  0
   60.7887   35.0942   48.1703 H   0  0  0  0  0  0  0  0  0  0  0  0
   62.4572   33.7589   49.3581 H   0  0  0  0  0  0  0  0  0  0  0  0
   62.8069   31.3544   48.8470 H   0  0  0  0  0  0  0  0  0  0  0  0
   61.3427   27.7004   48.0629 H   0  0  0  0  0  0  0  0  0  0  0  0
   57.3540   25.5580   47.1690 H   0  0  0  0  0  0  0  0  0  0  0  0
   54.2580   26.2320   46.3730 H   0  0  0  0  0  0  0  0  0  0  0  0
   55.1360   28.1510   44.8610 H   0  0  0  0  0  0  0  0  0  0  0  0
   57.3970   30.8060   44.6940 H   0  0  0  0  0  0  0  0  0  0  0  0
   59.0859   30.4631   45.6522 H   0  0  0  0  0  0  0  0  0  0  0  0
   59.7049   31.6747   45.8621 H   0  0  0  0  0  0  0  0  0  0  0  0
  1  2  1  0
  2  3  2  0
  2  4  2  0
  2  5  1  0
  5  6  1  0
  6  7  2  0
  7  8  1  0
  8  9  2  0
  9 10  1  0
 10 11  1  0
 11 12  1  0
 12 13  2  0
 13 14  1  0
 14 15  2  0
 15 16  1  0
 16 17  1  0
 17 18  2  3
 17 19  1  0
 19 20  1  0
 20 21  2  3
 20 22  1  0
 22 23  2  0
 10 24  2  0
 24  6  1  0
 23 12  1  0
 22 15  1  0
  1 25  1  0
  1 26  1  0
  1 27  1  0
  5 28  1  0
  7 29  1  0
  8 30  1  0
  9 31  1  0
 13 32  1  0
 16 33  1  0
 18 34  1  0
 19 35  1  0
 21 36  1  0
 23 37  1  0
 24 38  1  0
M  END
>  <smiles>  (20) 
CS(=O)(=O)Nc1cccc(Oc2cnc3[nH]c(=N)[nH]c(=N)c3c2)c1

>  <score_type>  (20) 
oracle

>  <origin>  (20) 
adg

>  <m_score__min__energy>  (20) 
-8.5999999999999996

>  <m_primary>  (20) 
energy

$$$$
20:0
     RDKit          3D

 50 53  0  0  0  0  0  0  0  0999 V2000
   51.0720   29.4140   52.9150 C   0  0  0  0  0  0  0  0  0  0  0  0
   52.5400   29.5980   52.6670 C   0  0  0  0  0  0  0  0  0  0  0  0
   52.9820   30.6770   51.8890 C   0  0  0  0  0  0  0  0  0  0  0  0
   54.3440   30.8380   51.6140 C   0  0  0  0  0  0  0  0  0  0  0  0
   55.2800   29.9320   52.1240 C   0  0  0  0  0  0  0  0  0  0  0  0
   56.6610   30.0900   51.7680 N   0  0  0  0  0  0  0  0  0  0  0  0
   57.5330   31.1190   52.2480 C   0  0  0  0  0  0  0  0  0  0  0  0
   57.4360   31.4810   53.4500 O   0  0  0  0  0  0  0  0  0  0  0  0
   58.5790   31.7190   51.3870 C   0  0  0  0  0  0  0  0  0  0  0  0
   59.5170   30.9090   50.7270 C   0  0  0  0  0  0  0  0  0  0  0  0
   60.5380   31.4830   49.9650 C   0  0  0  0  0  0  0  0  0  0  0  0
   60.6460   32.8860   49.8480 C   0  0  0  0  0  0  0  0  0  0  0  0
   61.6920   33.5190   49.0520 N   0  0  1  0  0  0  0  0  0  0  0  0
   62.9390   32.8040   49.0410 C   0  0  0  0  0  0  0  0  0  0  0  0
   63.3960   32.3000   50.0590 O   0  0  0  0  0  0  0  0  0  0  0  0
   63.7310   32.8140   47.7850 C   0  0  0  0  0  0  0  0  0  0  0  0
   62.8150   33.8380   46.6050 S   0  0  0  0  0  0  0  0  0  0  0  0
   61.3090   33.8040   47.6460 C   0  0  1  0  0  0  0  0  0  0  0  0
   60.2810   32.8480   47.0490 C   0  0  0  0  0  0  0  0  0  0  0  0
   58.9630   33.2560   46.7710 C   0  0  0  0  0  0  0  0  0  0  0  0
   58.0300   32.3510   46.2580 C   0  0  0  0  0  0  0  0  0  0  0  0
   58.3910   31.0150   46.0180 C   0  0  0  0  0  0  0  0  0  0  0  0
   57.3910   30.0360   45.5430 C   0  0  0  0  0  0  0  0  0  0  0  0
   57.5400   28.8050   45.7660 O   0  0  0  0  0  0  0  0  0  0  0  0
   56.2770   30.4600   44.8280 O   0  0  0  0  0  0  0  0  0  0  0  0
   59.7160   30.6150   46.2590 C   0  0  0  0  0  0  0  0  0  0  0  0
   60.6500   31.5230   46.7620 C   0  0  0  0  0  0  0  0  0  0  0  0
   59.6830   33.6880   50.4860 C   0  0  0  0  0  0  0  0  0  0  0  0
   58.6720   33.1140   51.2580 C   0  0  0  0  0  0  0  0  0  0  0  0
   54.8380   28.8490   52.9030 C   0  0  0  0  0  0  0  0  0  0  0  0
   53.4760   28.6820   53.1700 C   0  0  0  0  0  0  0  0  0  0  0  0
   50.8833   29.3903   53.9984 H   0  0  0  0  0  0  0  0  0  0  0  0
   50.5164   30.2495   52.4642 H   0  0  0  0  0  0  0  0  0  0  0  0
   50.7398   28.4672   52.4642 H   0  0  0  0  0  0  0  0  0  0  0  0
   52.2543   31.4006   51.4929 H   0  0  0  0  0  0  0  0  0  0  0  0
   54.6809   31.6815   50.9934 H   0  0  0  0  0  0  0  0  0  0  0  0
   59.4476   29.8144   50.8104 H   0  0  0  0  0  0  0  0  0  0  0  0
   61.2643   30.8359   49.4515 H   0  0  0  0  0  0  0  0  0  0  0  0
   61.9220   34.4370   49.5010 H   0  0  0  0  0  0  0  0  0  0  0  0
   64.7270   33.2438   47.9676 H   0  0  0  0  0  0  0  0  0  0  0  0
   63.8746   31.7944   47.3981 H   0  0  0  0  0  0  0  0  0  0  0  0
   60.8108   34.7846   47.6619 H   0  0  0  0  0  0  0  0  0  0  0  0
   58.6643   34.2978   46.9594 H   0  0  0  0  0  0  0  0  0  0  0  0
   57.0055   32.6873   46.0406 H   0  0  0  0  0  0  0  0  0  0  0  0
   60.0200   29.5787   46.0499 H   0  0  0  0  0  0  0  0  0  0  0  0
   61.6863   31.1973   46.9355 H   0  0  0  0  0  0  0  0  0  0  0  0
   59.7272   34.7815   50.3752 H   0  0  0  0  0  0  0  0  0  0  0  0
   57.9425   33.7593   51.7693 H   0  0  0  0  0  0  0  0  0  0  0  0
   55.5669   28.1296   53.3044 H   0  0  0  0  0  0  0  0  0  0  0  0
   53.1370   27.8293   53.7766 H   0  0  0  0  0  0  0  0  0  0  0  0
  1  2  1  0
  2  3  2  0
  3  4  1  0
  4  5  2  0
  5  6  1  0
  6  7  1  0
  7  8  2  0
  7  9  1  0
  9 10  2  0
 10 11  1  0
 11 12  2  0
 12 13  1  0
 13 14  1  0
 14 15  2  0
 14 16  1  0
 16 17  1  0
 17 18  1  0
 18 19  1  0
 19 20  2  0
 20 21  1  0
 21 22  2  0
 22 23  1  0
 23 24  2  0
 23 25  1  0
 22 26  1  0
 26 27  2  0
 12 28  1  0
 28 29  2  0
  5 30  1  0
 30 31  2  0
 31  2  1  0
 29  9  1  0
 18 13  1  0
 27 19  1  0
  1 32  1  0
  1 33  1  0
  1 34  1  0
  3 35  1  0
  4 36  1  0
 10 37  1  0
 11 38  1  0
 13 39  1  1
 16 40  1  0
 16 41  1  0
 18 42  1  1
 20 43  1  0
 21 44  1  0
 26 45  1  0
 27 46  1  0
 28 47  1  0
 29 48  1  0
 30 49  1  0
 31 50  1  0
M  CHG  3   6  -1  13   1  25  -1
M  END
>  <UniqueID>  (21) 
17

>  <SMILES>  (21) 
Cc1ccc([N-]C(=O)c2ccc([N@H+]3C(=O)CS[C@H]3c3ccc(C(=O)[O-])cc3)cc2)cc1

>  <Energy>  (21) 
65.938031831982

>  <Genealogy>  (21) 
Cc1ccc([N-]C(=O)c2ccc([NH+]3C(=O)CSC3c3ccc(C(=O)[O-])cc3)cc2)cc1 (protonated)
Cc1ccc([N-]C(=O)c2ccc([N@H+]3C(=O)CS[C@H]3c3ccc(C(=O)[O-])cc3)cc2)cc1 (chirality)
Cc1ccc([N-]C(=O)c2ccc([N@H+]3C(=O)CS[C@H]3c3ccc(C(=O)[O-])cc3)cc2)cc1 (3D coordinates assigned)
Cc1ccc([N-]C(=O)c2ccc([N@H+]3C(=O)CS[C@H]3c3ccc(C(=O)[O-])cc3)cc2)cc1 (nonaromatic ring conformer: 65.938031831982 kcal/mol)

>  <smiles>  (21) 
Cc1ccc(NC(=O)c2ccc(N3C(=O)CSC3c3ccc(C(=O)O)cc3)cc2)cc1

>  <score_type>  (21) 
oracle

>  <origin>  (21) 
adg

>  <m_score__min__energy>  (21) 
-11.26

>  <m_primary>  (21) 
energy

$$$$
21:0
     RDKit          3D

 57 63  0  0  1  0  0  0  0  0999 V2000
   57.0270   20.0280   45.2640 C   0  0  0  0  0  0  0  0  0  0  0  0
   57.1320   21.3910   44.6490 C   0  0  0  0  0  0  0  0  0  0  0  0
   57.8590   22.3950   45.2860 C   0  0  0  0  0  0  0  0  0  0  0  0
   57.9810   23.6320   44.7720 N   0  0  0  0  0  0  0  0  0  0  0  0
   57.3850   23.9240   43.6010 C   0  0  0  0  0  0  0  0  0  0  0  0
   57.5340   25.1230   43.1550 N   0  0  0  0  0  0  0  0  0  0  0  0
   57.6360   26.1750   44.1060 C   0  0  0  0  0  0  0  0  0  0  0  0
   56.9410   26.1630   45.3110 C   0  0  0  0  0  0  0  0  0  0  0  0
   57.0750   27.2030   46.1910 C   0  0  0  0  0  0  0  0  0  0  0  0
   57.8770   28.2960   45.9620 C   0  0  0  0  0  0  0  0  0  0  0  0
   58.5720   28.3020   44.7510 C   0  0  0  0  0  0  0  0  0  0  0  0
   58.4450   27.2650   43.8620 C   0  0  0  0  0  0  0  0  0  0  0  0
   59.3590   29.5630   44.7210 C   0  0  0  0  0  0  0  0  0  0  0  0
   58.5940   30.3990   45.7120 C   0  0  2  0  0  0  0  0  0  0  0  0
   58.1830   29.4590   46.6760 O   0  0  0  0  0  0  0  0  0  0  0  0
   57.4240   31.0940   45.0940 C   0  0  0  0  0  0  0  0  0  0  0  0
   56.4740   30.5010   44.4970 O   0  0  0  0  0  0  0  0  0  0  0  0
   57.5340   32.5000   45.2770 N   0  0  0  0  0  0  0  0  0  0  0  0
   58.7440   32.7280   45.9930 C   0  0  0  0  0  0  0  0  0  0  0  0
   59.2550   33.9140   46.3860 N   0  0  0  0  0  0  0  0  0  0  0  0
   60.4190   33.9250   47.0570 C   0  0  0  0  0  0  0  0  0  0  0  0
   61.0870   32.7400   47.3430 C   0  0  0  0  0  0  0  0  0  0  0  0
   62.3480   32.8030   48.0710 C   0  0  0  0  0  0  0  0  0  0  0  0
   63.3630   33.6820   47.7540 C   0  0  0  0  0  0  0  0  0  0  0  0
   64.5200   33.7230   48.4400 N   0  0  0  0  0  0  0  0  0  0  0  0
   64.7100   32.8740   49.4840 C   0  0  0  0  0  0  0  0  0  0  0  0
   63.7050   31.9830   49.8220 C   0  0  0  0  0  0  0  0  0  0  0  0
   64.1100   31.2160   50.9140 C   0  0  0  0  0  0  0  0  0  0  0  0
   65.3840   31.6730   51.2210 C   0  0  0  0  0  0  0  0  0  0  0  0
   65.7030   32.6470   50.3580 N   0  0  0  0  0  0  0  0  0  0  0  0
   66.9690   33.3630   50.3770 C   0  0  0  0  0  0  0  0  0  0  0  0
   62.5040   31.9180   49.1350 C   0  0  0  0  0  0  0  0  0  0  0  0
   60.5780   31.5030   46.9470 C   0  0  0  0  0  0  0  0  0  0  0  0
   59.3690   31.5230   46.2520 C   0  0  0  0  0  0  0  0  0  0  0  0
   56.6790   22.9710   42.9710 N   0  0  0  0  0  0  0  0  0  0  0  0
   56.5360   21.7180   43.4590 C   0  0  0  0  0  0  0  0  0  0  0  0
   57.0340   20.1188   46.3602 H   0  0  0  0  0  0  0  0  0  0  0  0
   56.0895   19.5515   44.9415 H   0  0  0  0  0  0  0  0  0  0  0  0
   57.8805   19.4135   44.9415 H   0  0  0  0  0  0  0  0  0  0  0  0
   58.3506   22.1677   46.2434 H   0  0  0  0  0  0  0  0  0  0  0  0
   56.2829   25.3167   45.5571 H   0  0  0  0  0  0  0  0  0  0  0  0
   56.5096   27.1619   47.1337 H   0  0  0  0  0  0  0  0  0  0  0  0
   59.0098   27.3043   42.9189 H   0  0  0  0  0  0  0  0  0  0  0  0
   60.3972   29.3997   45.0458 H   0  0  0  0  0  0  0  0  0  0  0  0
   59.4551   30.0153   43.7229 H   0  0  0  0  0  0  0  0  0  0  0  0
   56.8480   33.2110   44.9410 H   0  0  0  0  0  0  0  0  0  0  0  0
   60.8486   34.8834   47.3840 H   0  0  0  0  0  0  0  0  0  0  0  0
   63.2215   34.3739   46.9106 H   0  0  0  0  0  0  0  0  0  0  0  0
   63.5431   30.4217   51.4216 H   0  0  0  0  0  0  0  0  0  0  0  0
   66.0231   31.2992   52.0345 H   0  0  0  0  0  0  0  0  0  0  0  0
   67.2763   33.5368   51.4188 H   0  0  0  0  0  0  0  0  0  0  0  0
   67.7362   32.7650   49.8633 H   0  0  0  0  0  0  0  0  0  0  0  0
   66.8519   34.3286   49.8633 H   0  0  0  0  0  0  0  0  0  0  0  0
   61.7148   31.2048   49.4151 H   0  0  0  0  0  0  0  0  0  0  0  0
   61.1021   30.5622   47.1709 H   0  0  0  0  0  0  0  0  0  0  0  0
   56.2170   23.1780   42.0750 H   0  0  0  0  0  0  0  0  0  0  0  0
   55.9481   20.9698   42.9072 H   0  0  0  0  0  0  0  0  0  0  0  0
  1  2  1  0
  2  3  1  0
  3  4  2  0
  4  5  1  0
  5  6  2  3
  6  7  1  0
  7  8  2  0
  8  9  1  0
  9 10  2  0
 10 11  1  0
 11 12  2  0
 11 13  1  0
 13 14  1  0
 14 15  1  1
 14 16  1  0
 16 17  2  0
 16 18  1  0
 18 19  1  0
 19 20  2  0
 20 21  1  0
 21 22  2  0
 22 23  1  0
 23 24  2  0
 24 25  1  0
 25 26  2  0
 26 27  1  0
 27 28  1  0
 28 29  2  0
 29 30  1  0
 30 31  1  0
 27 32  2  0
 22 33  1  0
 33 34  2  0
  5 35  1  0
 35 36  1  0
 36  2  2  0
 12  7  1  0
 34 14  1  0
 15 10  1  0
 34 19  1  0
 32 23  1  0
 30 26  1  0
  1 37  1  0
  1 38  1  0
  1 39  1  0
  3 40  1  0
  8 41  1  0
  9 42  1  0
 12 43  1  0
 13 44  1  0
 13 45  1  0
 18 46  1  0
 21 47  1  0
 24 48  1  0
 28 49  1  0
 29 50  1  0
 31 51  1  0
 31 52  1  0
 31 53  1  0
 32 54  1  0
 33 55  1  0
 35 56  1  0
 36 57  1  0
M  END
>  <smiles>  (22) 
Cc1cnc(=Nc2ccc3c(c2)CC2(O3)C(=O)Nc3ncc(-c4cnc5c(ccn5C)c4)cc32)[nH]c1

>  <score_type>  (22) 
oracle

>  <origin>  (22) 
adg

>  <m_score__min__energy>  (22) 
-10.27

>  <m_primary>  (22) 
energy

$$$$
22:0
     RDKit          3D

 45 48  0  0  0  0  0  0  0  0999 V2000
   59.6770   36.1010   46.3000 N   0  0  0  0  0  0  0  0  0  0  0  0
   59.1130   34.8380   45.9360 C   0  0  0  0  0  0  0  0  0  0  0  0
   58.6010   33.9820   46.9220 C   0  0  0  0  0  0  0  0  0  0  0  0
   58.0490   32.7470   46.5660 C   0  0  0  0  0  0  0  0  0  0  0  0
   58.0000   32.3590   45.2190 C   0  0  0  0  0  0  0  0  0  0  0  0
   57.2560   30.8250   44.7750 S   0  0  0  0  0  0  0  0  0  0  0  0
   57.9250   30.3040   43.5340 O   0  0  0  0  0  0  0  0  0  0  0  0
   55.7890   31.0060   44.5050 O   0  0  0  0  0  0  0  0  0  0  0  0
   57.4590   29.6760   46.0580 N   0  0  0  0  0  0  0  0  0  0  0  0
   57.7040   28.2720   45.8820 C   0  0  0  0  0  0  0  0  0  0  0  0
   56.6510   27.3430   45.7850 C   0  0  0  0  0  0  0  0  0  0  0  0
   56.9130   25.9690   45.6460 C   0  0  0  0  0  0  0  0  0  0  0  0
   55.8090   24.9810   45.5670 C   0  0  0  0  0  0  0  0  0  0  0  0
   55.8730   23.6970   45.0540 C   0  0  0  0  0  0  0  0  0  0  0  0
   54.5960   23.2070   45.2050 C   0  0  0  0  0  0  0  0  0  0  0  0
   53.8190   24.1460   45.7730 N   0  0  0  0  0  0  0  0  0  0  0  0
   54.5540   25.2260   45.9920 N   0  0  0  0  0  0  0  0  0  0  0  0
   58.2470   25.5380   45.5690 C   0  0  0  0  0  0  0  0  0  0  0  0
   59.2950   26.4550   45.6520 C   0  0  0  0  0  0  0  0  0  0  0  0
   59.0310   27.8240   45.8240 C   0  0  0  0  0  0  0  0  0  0  0  0
   60.0710   28.7640   45.8970 O   0  0  0  0  0  0  0  0  0  0  0  0
   60.2680   29.6770   46.9430 C   0  0  0  0  0  0  0  0  0  0  0  0
   59.7410   29.3770   48.2060 C   0  0  0  0  0  0  0  0  0  0  0  0
   59.9290   30.2560   49.2790 C   0  0  0  0  0  0  0  0  0  0  0  0
   60.6570   31.4360   49.0980 C   0  0  0  0  0  0  0  0  0  0  0  0
   61.2010   31.7360   47.8460 C   0  0  0  0  0  0  0  0  0  0  0  0
   61.0150   30.8580   46.7720 C   0  0  0  0  0  0  0  0  0  0  0  0
   58.5170   33.2120   44.2340 C   0  0  0  0  0  0  0  0  0  0  0  0
   59.0700   34.4460   44.5900 C   0  0  0  0  0  0  0  0  0  0  0  0
   59.2840   36.6540   47.0940 H   0  0  0  0  0  0  0  0  0  0  0  0
   60.4910   36.4940   45.7750 H   0  0  0  0  0  0  0  0  0  0  0  0
   58.6337   34.2830   47.9795 H   0  0  0  0  0  0  0  0  0  0  0  0
   57.6524   32.0785   47.3443 H   0  0  0  0  0  0  0  0  0  0  0  0
   55.6099   27.6967   45.8184 H   0  0  0  0  0  0  0  0  0  0  0  0
   56.7461   23.1848   44.6235 H   0  0  0  0  0  0  0  0  0  0  0  0
   54.2623   22.2021   44.9070 H   0  0  0  0  0  0  0  0  0  0  0  0
   58.4677   24.4679   45.4421 H   0  0  0  0  0  0  0  0  0  0  0  0
   60.3351   26.1037   45.5823 H   0  0  0  0  0  0  0  0  0  0  0  0
   59.1761   28.4450   48.3553 H   0  0  0  0  0  0  0  0  0  0  0  0
   59.5038   30.0183   50.2652 H   0  0  0  0  0  0  0  0  0  0  0  0
   60.8015   32.1280   49.9408 H   0  0  0  0  0  0  0  0  0  0  0  0
   61.7759   32.6631   47.7046 H   0  0  0  0  0  0  0  0  0  0  0  0
   61.4540   31.0916   45.7908 H   0  0  0  0  0  0  0  0  0  0  0  0
   58.4875   32.9094   43.1768 H   0  0  0  0  0  0  0  0  0  0  0  0
   59.4725   35.1114   43.8120 H   0  0  0  0  0  0  0  0  0  0  0  0
  1  2  1  0
  2  3  2  0
  3  4  1  0
  4  5  2  0
  5  6  1  0
  6  7  2  0
  6  8  2  0
  6  9  1  0
  9 10  1  0
 10 11  2  0
 11 12  1  0
 12 13  1  0
 13 14  1  0
 14 15  2  0
 15 16  1  0
 16 17  1  0
 12 18  2  0
 18 19  1  0
 19 20  2  0
 20 21  1  0
 21 22  1  0
 22 23  2  0
 23 24  1  0
 24 25  2  0
 25 26  1  0
 26 27  2  0
  5 28  1  0
 28 29  2  0
 29  2  1  0
 20 10  1  0
 27 22  1  0
 17 13  2  0
  1 30  1  0
  1 31  1  0
  3 32  1  0
  4 33  1  0
 11 34  1  0
 14 35  1  0
 15 36  1  0
 18 37  1  0
 19 38  1  0
 23 39  1  0
 24 40  1  0
 25 41  1  0
 26 42  1  0
 27 43  1  0
 28 44  1  0
 29 45  1  0
M  CHG  2   9  -1  16  -1
M  END
>  <UniqueID>  (23) 
18

>  <SMILES>  (23) 
Nc1ccc(S(=O)(=O)[N-]c2cc(-c3cc[n-]n3)ccc2Oc2ccccc2)cc1

>  <Energy>  (23) 
88.33487134442709

>  <Genealogy>  (23) 
Nc1ccc(S(=O)(=O)[N-]c2cc(-c3cc[n-]n3)ccc2Oc2ccccc2)cc1 (protonated)
Nc1ccc(S(=O)(=O)[N-]c2cc(-c3cc[n-]n3)ccc2Oc2ccccc2)cc1 (3D coordinates assigned)
Nc1ccc(S(=O)(=O)[N-]c2cc(-c3cc[n-]n3)ccc2Oc2ccccc2)cc1 (optimized conformer: 88.33487134442709 kcal/mol)

>  <smiles>  (23) 
Nc1ccc(S(=O)(=O)Nc2cc(-c3cc[nH]n3)ccc2Oc2ccccc2)cc1

>  <score_type>  (23) 
oracle

>  <origin>  (23) 
adg

>  <m_score__min__energy>  (23) 
-12.33

>  <m_primary>  (23) 
energy

$$$$
23:0
     RDKit          3D

 30 31  0  0  0  0  0  0  0  0999 V2000
   58.7090   23.6260   45.3710 C   0  0  0  0  0  0  0  0  0  0  0  0
   58.5720   24.7810   46.3560 C   0  0  0  0  0  0  0  0  0  0  0  0
   57.2230   25.3370   46.2980 N   0  0  0  0  0  0  0  0  0  0  0  0
   56.1150   24.6210   46.2530 N   0  0  0  0  0  0  0  0  0  0  0  0
   55.0870   25.4400   46.0820 N   0  0  0  0  0  0  0  0  0  0  0  0
   55.5120   26.6940   45.9980 N   0  0  0  0  0  0  0  0  0  0  0  0
   56.8490   26.6180   46.1330 C   0  0  0  0  0  0  0  0  0  0  0  0
   57.9520   28.0310   46.0520 S   0  0  0  0  0  0  0  0  0  0  0  0
   57.3260   28.6210   44.4390 C   0  0  0  0  0  0  0  0  0  0  0  0
   56.2760   29.6820   44.6130 C   0  0  0  0  0  0  0  0  0  0  0  0
   55.1380   29.3480   45.0350 O   0  0  0  0  0  0  0  0  0  0  0  0
   56.5460   31.0720   44.3870 N   0  0  0  0  0  0  0  0  0  0  0  0
   57.3760   31.9100   45.1990 C   0  0  0  0  0  0  0  0  0  0  0  0
   58.1430   31.3280   46.2170 C   0  0  0  0  0  0  0  0  0  0  0  0
   58.9480   32.1260   47.0360 C   0  0  0  0  0  0  0  0  0  0  0  0
   58.9740   33.5130   46.8570 C   0  0  0  0  0  0  0  0  0  0  0  0
   59.9810   34.5130   47.8870 Cl  0  0  0  0  0  0  0  0  0  0  0  0
   58.1850   34.1020   45.8620 C   0  0  0  0  0  0  0  0  0  0  0  0
   57.3800   33.3040   45.0420 C   0  0  0  0  0  0  0  0  0  0  0  0
   58.8209   22.6826   45.9255 H   0  0  0  0  0  0  0  0  0  0  0  0
   57.8106   23.5751   44.7383 H   0  0  0  0  0  0  0  0  0  0  0  0
   59.5944   23.7867   44.7383 H   0  0  0  0  0  0  0  0  0  0  0  0
   58.7707   24.4154   47.3743 H   0  0  0  0  0  0  0  0  0  0  0  0
   59.2952   25.5662   46.0906 H   0  0  0  0  0  0  0  0  0  0  0  0
   58.1638   29.0380   43.8608 H   0  0  0  0  0  0  0  0  0  0  0  0
   56.8730   27.7690   43.9109 H   0  0  0  0  0  0  0  0  0  0  0  0
   58.1118   30.2395   46.3725 H   0  0  0  0  0  0  0  0  0  0  0  0
   59.5618   31.6622   47.8223 H   0  0  0  0  0  0  0  0  0  0  0  0
   58.1979   35.1933   45.7247 H   0  0  0  0  0  0  0  0  0  0  0  0
   56.7484   33.7710   44.2719 H   0  0  0  0  0  0  0  0  0  0  0  0
  1  2  1  0
  2  3  1  0
  3  4  1  0
  4  5  2  0
  5  6  1  0
  6  7  2  0
  7  8  1  0
  8  9  1  0
  9 10  1  0
 10 11  2  0
 10 12  1  0
 12 13  1  0
 13 14  2  0
 14 15  1  0
 15 16  2  0
 16 17  1  0
 16 18  1  0
 18 19  2  0
  7  3  1  0
 19 13  1  0
  1 20  1  0
  1 21  1  0
  1 22  1  0
  2 23  1  0
  2 24  1  0
  9 25  1  0
  9 26  1  0
 14 27  1  0
 15 28  1  0
 18 29  1  0
 19 30  1  0
M  CHG  1  12  -1
M  END
>  <UniqueID>  (24) 
19

>  <SMILES>  (24) 
CCn1nnnc1SCC(=O)[N-]c1ccc(Cl)cc1

>  <Energy>  (24) 
67.1700714276854

>  <Genealogy>  (24) 
CCn1nnnc1SCC(=O)[N-]c1ccc(Cl)cc1 (protonated)
CCn1nnnc1SCC(=O)[N-]c1ccc(Cl)cc1 (3D coordinates assigned)
CCn1nnnc1SCC(=O)[N-]c1ccc(Cl)cc1 (optimized conformer: 67.1700714276854 kcal/mol)

>  <smiles>  (24) 
CCn1nnnc1SCC(=O)Nc1ccc(Cl)cc1

>  <score_type>  (24) 
oracle

>  <origin>  (24) 
adg

>  <m_score__min__energy>  (24) 
-9.2200000000000006

>  <m_primary>  (24) 
energy

$$$$
24:0
     RDKit          3D

 34 35  0  0  0  0  0  0  0  0999 V2000
   54.0320   25.9720   45.6400 O   0  0  0  0  0  0  0  0  0  0  0  0
   54.2950   24.7410   45.6010 C   0  0  0  0  0  0  0  0  0  0  0  0
   53.4150   23.8680   44.9730 O   0  0  0  0  0  0  0  0  0  0  0  0
   55.5740   24.2280   46.1780 C   0  0  0  0  0  0  0  0  0  0  0  0
   56.1530   25.2460   47.0630 N   0  0  0  0  0  0  0  0  0  0  0  0
   57.6250   25.2570   47.0200 C   0  0  0  0  0  0  0  0  0  0  0  0
   58.1960   26.1190   45.8850 C   0  0  0  0  0  0  0  0  0  0  0  0
   57.3050   27.2380   45.5980 N   0  0  0  0  0  0  0  0  0  0  0  0
   57.4750   28.2120   44.5600 C   0  0  0  0  0  0  0  0  0  0  0  0
   57.7350   27.8020   43.3970 O   0  0  0  0  0  0  0  0  0  0  0  0
   57.3600   29.6680   44.7910 C   0  0  0  0  0  0  0  0  0  0  0  0
   58.3560   30.4780   45.3040 C   0  0  0  0  0  0  0  0  0  0  0  0
   57.7800   31.7350   45.3290 C   0  0  0  0  0  0  0  0  0  0  0  0
   58.3940   33.0000   45.7890 C   0  0  0  0  0  0  0  0  0  0  0  0
   58.6730   33.2310   47.1500 C   0  0  0  0  0  0  0  0  0  0  0  0
   59.2540   34.4340   47.5590 C   0  0  0  0  0  0  0  0  0  0  0  0
   59.5620   35.4210   46.6190 C   0  0  0  0  0  0  0  0  0  0  0  0
   59.2890   35.2040   45.2660 C   0  0  0  0  0  0  0  0  0  0  0  0
   58.7080   34.0010   44.8520 C   0  0  0  0  0  0  0  0  0  0  0  0
   56.5540   31.6390   44.8650 O   0  0  0  0  0  0  0  0  0  0  0  0
   56.2690   30.4140   44.5330 N   0  0  0  0  0  0  0  0  0  0  0  0
   55.3755   23.3117   46.7533 H   0  0  0  0  0  0  0  0  0  0  0  0
   56.2800   24.0039   45.3648 H   0  0  0  0  0  0  0  0  0  0  0  0
   55.7830   26.1870   46.7940 H   0  0  0  0  0  0  0  0  0  0  0  0
   57.9988   25.6491   47.9774 H   0  0  0  0  0  0  0  0  0  0  0  0
   57.9520   24.2226   46.8379 H   0  0  0  0  0  0  0  0  0  0  0  0
   59.1804   26.5074   46.1851 H   0  0  0  0  0  0  0  0  0  0  0  0
   58.2932   25.4997   44.9811 H   0  0  0  0  0  0  0  0  0  0  0  0
   59.3699   30.1899   45.6188 H   0  0  0  0  0  0  0  0  0  0  0  0
   58.4319   32.4593   47.8958 H   0  0  0  0  0  0  0  0  0  0  0  0
   59.4696   34.6047   48.6241 H   0  0  0  0  0  0  0  0  0  0  0  0
   60.0188   36.3675   46.9438 H   0  0  0  0  0  0  0  0  0  0  0  0
   59.5314   35.9804   44.5254 H   0  0  0  0  0  0  0  0  0  0  0  0
   58.4950   33.8364   43.7855 H   0  0  0  0  0  0  0  0  0  0  0  0
  1  2  2  0
  2  3  1  0
  2  4  1  0
  4  5  1  0
  5  6  1  0
  6  7  1  0
  7  8  1  0
  8  9  1  0
  9 10  2  0
  9 11  1  0
 11 12  1  0
 12 13  2  0
 13 14  1  0
 14 15  2  0
 15 16  1  0
 16 17  2  0
 17 18  1  0
 18 19  2  0
 13 20  1  0
 20 21  1  0
 21 11  2  0
 19 14  1  0
  4 22  1  0
  4 23  1  0
  5 24  1  0
  6 25  1  0
  6 26  1  0
  7 27  1  0
  7 28  1  0
 12 29  1  0
 15 30  1  0
 16 31  1  0
 17 32  1  0
 18 33  1  0
 19 34  1  0
M  CHG  2   3  -1   8  -1
M  END
>  <UniqueID>  (25) 
20

>  <SMILES>  (25) 
O=C([O-])CNCC[N-]C(=O)c1cc(-c2ccccc2)on1

>  <Energy>  (25) 
62.44889583515268

>  <Genealogy>  (25) 
O=C([O-])CNCC[N-]C(=O)c1cc(-c2ccccc2)on1 (protonated)
O=C([O-])CNCC[N-]C(=O)c1cc(-c2ccccc2)on1 (3D coordinates assigned)
O=C([O-])CNCC[N-]C(=O)c1cc(-c2ccccc2)on1 (optimized conformer: 62.44889583515268 kcal/mol)

>  <smiles>  (25) 
O=C(O)CNCCNC(=O)c1cc(-c2ccccc2)on1

>  <score_type>  (25) 
oracle

>  <origin>  (25) 
adg

>  <m_score__min__energy>  (25) 
-11.859999999999999

>  <m_primary>  (25) 
energy

$$$$
25:0
     RDKit          3D

 51 54  0  0  0  0  0  0  0  0999 V2000
   59.4389   23.7899   45.6025 H   0  0  0  0  0  0  0  0  0  0  0  0
   58.3800   24.0870   45.6230 C   0  0  0  0  0  0  0  0  0  0  0  0
   57.3830   23.1120   45.6730 C   0  0  0  0  0  0  0  0  0  0  0  0
   57.6575   22.0468   45.6833 H   0  0  0  0  0  0  0  0  0  0  0  0
   56.0370   23.4850   45.7100 C   0  0  0  0  0  0  0  0  0  0  0  0
   55.2555   22.7125   45.7588 H   0  0  0  0  0  0  0  0  0  0  0  0
   55.6770   24.8470   45.6850 C   0  0  0  0  0  0  0  0  0  0  0  0
   54.3370   25.2660   45.7440 O   0  0  0  0  0  0  0  0  0  0  0  0
   53.2270   24.4750   45.3370 C   0  0  0  0  0  0  0  0  0  0  0  0
   52.6992   24.0989   46.2258 H   0  0  0  0  0  0  0  0  0  0  0  0
   52.5405   25.0886   44.7352 H   0  0  0  0  0  0  0  0  0  0  0  0
   53.5829   23.6258   44.7352 H   0  0  0  0  0  0  0  0  0  0  0  0
   56.6870   25.8240   45.5870 C   0  0  0  0  0  0  0  0  0  0  0  0
   56.3560   27.2160   45.6410 N   0  0  0  0  0  0  0  0  0  0  0  0
   57.1040   28.2820   45.7760 C   0  0  0  0  0  0  0  0  0  0  0  0
   58.2340   28.1200   46.5090 N   0  0  0  0  0  0  0  0  0  0  0  0
   59.0550   29.1450   46.8210 C   0  0  0  0  0  0  0  0  0  0  0  0
   60.1880   28.9170   47.6000 C   0  0  0  0  0  0  0  0  0  0  0  0
   60.4237   27.8969   47.9375 H   0  0  0  0  0  0  0  0  0  0  0  0
   61.0250   29.9760   47.9540 C   0  0  0  0  0  0  0  0  0  0  0  0
   61.9147   29.7797   48.5704 H   0  0  0  0  0  0  0  0  0  0  0  0
   60.7480   31.2980   47.5330 C   0  0  0  0  0  0  0  0  0  0  0  0
   61.6240   32.4090   47.9040 N   0  0  0  0  0  0  0  0  0  0  0  0
   61.2930   33.2310   49.0880 C   0  0  0  0  0  0  0  0  0  0  0  0
   60.2751   33.6285   48.9620 H   0  0  0  0  0  0  0  0  0  0  0  0
   61.3807   32.5782   49.9690 H   0  0  0  0  0  0  0  0  0  0  0  0
   62.2480   34.4060   49.3030 C   0  0  0  0  0  0  0  0  0  0  0  0
   61.9534   35.2350   48.6427 H   0  0  0  0  0  0  0  0  0  0  0  0
   62.1923   34.7158   50.3570 H   0  0  0  0  0  0  0  0  0  0  0  0
   63.5740   34.0350   49.0130 O   0  0  0  0  0  0  0  0  0  0  0  0
   63.6840   33.8370   47.6240 C   0  0  0  0  0  0  0  0  0  0  0  0
   63.2872   34.7207   47.1029 H   0  0  0  0  0  0  0  0  0  0  0  0
   64.7449   33.6852   47.3763 H   0  0  0  0  0  0  0  0  0  0  0  0
   62.8990   32.5990   47.1780 C   0  0  0  0  0  0  0  0  0  0  0  0
   62.6764   32.6970   46.1052 H   0  0  0  0  0  0  0  0  0  0  0  0
   63.5276   31.7236   47.3983 H   0  0  0  0  0  0  0  0  0  0  0  0
   59.5880   31.5060   46.7470 C   0  0  0  0  0  0  0  0  0  0  0  0
   59.3407   32.5231   46.4089 H   0  0  0  0  0  0  0  0  0  0  0  0
   58.7450   30.4350   46.3900 C   0  0  0  0  0  0  0  0  0  0  0  0
   57.6080   30.6070   45.5800 C   0  0  0  0  0  0  0  0  0  0  0  0
   57.3400   31.7650   45.1510 O   0  0  0  0  0  0  0  0  0  0  0  0
   56.8100   29.5320   45.2360 N   0  0  0  0  0  0  0  0  0  0  0  0
   55.8460   29.7250   44.1210 C   0  0  0  0  0  0  0  0  0  0  0  0
   55.2573   30.6354   44.3070 H   0  0  0  0  0  0  0  0  0  0  0  0
   55.1867   28.8460   44.0694 H   0  0  0  0  0  0  0  0  0  0  0  0
   56.5780   29.8660   42.7880 C   0  0  0  0  0  0  0  0  0  0  0  0
   57.6426   30.0711   42.9742 H   0  0  0  0  0  0  0  0  0  0  0  0
   56.4792   28.9323   42.2149 H   0  0  0  0  0  0  0  0  0  0  0  0
   56.1394   30.6962   42.2149 H   0  0  0  0  0  0  0  0  0  0  0  0
   58.0340   25.4400   45.5990 C   0  0  0  0  0  0  0  0  0  0  0  0
   58.8224   26.2070   45.5895 H   0  0  0  0  0  0  0  0  0  0  0  0
  1  2  1  0
  2  3  2  0
  3  4  1  0
  3  5  1  0
  5  6  1  0
  5  7  2  0
  7  8  1  0
  8  9  1  0
  9 10  1  0
  9 11  1  0
  9 12  1  0
  7 13  1  0
 13 14  1  0
 14 15  2  0
 15 16  1  0
 16 17  1  0
 17 18  2  0
 18 19  1  0
 18 20  1  0
 20 21  1  0
 20 22  2  0
 22 23  1  0
 23 24  1  0
 24 25  1  0
 24 26  1  0
 24 27  1  0
 27 28  1  0
 27 29  1  0
 27 30  1  0
 30 31  1  0
 31 32  1  0
 31 33  1  0
 31 34  1  0
 34 35  1  0
 34 36  1  0
 22 37  1  0
 37 38  1  0
 37 39  2  0
 39 40  1  0
 40 41  2  0
 40 42  1  0
 42 43  1  0
 43 44  1  0
 43 45  1  0
 43 46  1  0
 46 47  1  0
 46 48  1  0
 46 49  1  0
 13 50  2  0
 50 51  1  0
 50  2  1  0
 42 15  1  0
 39 17  1  0
 34 23  1  0
M  CHG  1  16  -1
M  END
>  <UniqueID>  (26) 
21

>  <SMILES>  (26) 
CCn1c(=O)c2cc(N3CCOCC3)ccc2[n-]/c1=N/c1ccccc1OC

>  <Energy>  (26) 
90.7007549748087

>  <Genealogy>  (26) 
CCn1c(=Nc2ccccc2OC)[n-]c2ccc(N3CCOCC3)cc2c1=O (protonated)
CCn1c(=O)c2cc(N3CCOCC3)ccc2[n-]/c1=N/c1ccccc1OC (cis-trans isomerization)
CCn1c(=O)c2cc(N3CCOCC3)ccc2[n-]/c1=N/c1ccccc1OC (3D coordinates assigned)
CCn1c(=O)c2cc(N3CCOCC3)ccc2[n-]/c1=N/c1ccccc1OC (nonaromatic ring conformer: 90.7007549748087 kcal/mol)

>  <smiles>  (26) 
CCn1c(=Nc2ccccc2OC)[nH]c2ccc(N3CCOCC3)cc2c1=O

>  <score_type>  (26) 
oracle

>  <origin>  (26) 
adg

>  <m_score__min__energy>  (26) 
-9.3699999999999992

>  <m_primary>  (26) 
energy

$$$$
26:0
     RDKit          3D

 82 87  0  0  0  0  0  0  0  0999 V2000
   59.2430   35.4210   44.5510 C   0  0  0  0  0  0  0  0  0  0  0  0
   58.8870   34.1220   45.2290 C   0  0  0  0  0  0  0  0  0  0  0  0
   58.2170   33.1310   44.4910 C   0  0  0  0  0  0  0  0  0  0  0  0
   57.8690   31.9090   45.0760 C   0  0  0  0  0  0  0  0  0  0  0  0
   57.0430   30.6740   44.1290 S   0  0  0  0  0  0  0  0  0  0  0  0
   55.7570   30.2990   44.8120 O   0  0  0  0  0  0  0  0  0  0  0  0
   56.7140   31.1970   42.7590 O   0  0  0  0  0  0  0  0  0  0  0  0
   58.0470   29.2630   43.9960 N   0  0  0  0  0  0  0  0  0  0  0  0
   57.7020   28.0880   44.4260 C   0  0  0  0  0  0  0  0  0  0  0  0
   58.0530   26.9850   43.7120 N   0  0  0  0  0  0  0  0  0  0  0  0
   57.7100   25.7380   44.1310 C   0  0  0  0  0  0  0  0  0  0  0  0
   56.9850   25.5780   45.3120 C   0  0  0  0  0  0  0  0  0  0  0  0
   56.6340   26.7170   46.0360 C   0  0  0  0  0  0  0  0  0  0  0  0
   56.9950   27.9440   45.5820 N   0  0  0  0  0  0  0  0  0  0  0  0
   58.1950   31.6620   46.4120 C   0  0  0  0  0  0  0  0  0  0  0  0
   58.8510   32.6370   47.1750 C   0  0  0  0  0  0  0  0  0  0  0  0
   59.1430   32.3870   48.5240 C   0  0  0  0  0  0  0  0  0  0  0  0
   59.7700   33.3620   49.3160 C   0  0  0  0  0  0  0  0  0  0  0  0
   59.9980   33.1280   50.7930 C   0  0  0  0  0  0  0  0  0  0  0  0
   61.3620   32.6190   51.0480 N   0  0  0  0  0  0  0  0  0  0  0  0
   61.5210   31.3380   51.6920 C   0  0  0  0  0  0  0  0  0  0  0  0
   62.5660   31.0950   52.3540 O   0  0  0  0  0  0  0  0  0  0  0  0
   60.4610   30.3740   51.6440 N   0  0  0  0  0  0  0  0  0  0  0  0
   60.1960   29.4650   50.5700 C   0  0  0  0  0  0  0  0  0  0  0  0
   60.9840   28.3160   50.4510 C   0  0  0  0  0  0  0  0  0  0  0  0
   60.7590   27.4080   49.4140 C   0  0  0  0  0  0  0  0  0  0  0  0
   59.7240   27.6180   48.4950 C   0  0  0  0  0  0  0  0  0  0  0  0
   59.5400   26.6680   47.4770 O   0  0  0  0  0  0  0  0  0  0  0  0
   60.4090   26.4730   46.3630 C   0  0  0  0  0  0  0  0  0  0  0  0
   61.7050   26.3400   46.8230 F   0  0  0  0  0  0  0  0  0  0  0  0
   60.3480   27.5630   45.5140 F   0  0  0  0  0  0  0  0  0  0  0  0
   60.0570   25.3230   45.6800 F   0  0  0  0  0  0  0  0  0  0  0  0
   58.9160   28.7650   48.6260 C   0  0  0  0  0  0  0  0  0  0  0  0
   59.1490   29.6790   49.6570 C   0  0  0  0  0  0  0  0  0  0  0  0
   62.5720   33.3650   50.6280 C   0  0  1  0  0  0  0  0  0  0  0  0
   63.5850   33.5080   51.7910 C   0  0  0  0  0  0  0  0  0  0  0  0
   64.9510   33.9640   51.2640 C   0  0  0  0  0  0  0  0  0  0  0  0
   65.5660   32.9630   50.2500 C   0  0  1  0  0  0  0  0  0  0  0  0
   66.5480   32.1420   50.8880 O   0  0  0  0  0  0  0  0  0  0  0  0
   66.3470   30.7970   51.2170 C   0  0  0  0  0  0  0  0  0  0  0  0
   67.1730   29.7500   50.8710 C   0  0  0  0  0  0  0  0  0  0  0  0
   66.6710   28.6100   51.3830 N   0  0  0  0  0  0  0  0  0  0  0  0
   65.5580   28.9180   52.0320 N   0  0  0  0  0  0  0  0  0  0  0  0
   64.7180   27.9410   52.7140 C   0  0  0  0  0  0  0  0  0  0  0  0
   65.3200   30.2400   51.9510 C   0  0  0  0  0  0  0  0  0  0  0  0
   64.5150   32.0430   49.5970 C   0  0  0  0  0  0  0  0  0  0  0  0
   63.1960   32.7800   49.3340 C   0  0  0  0  0  0  0  0  0  0  0  0
   60.1660   34.5690   48.7210 C   0  0  0  0  0  0  0  0  0  0  0  0
   59.8890   34.8260   47.3770 C   0  0  0  0  0  0  0  0  0  0  0  0
   59.2130   33.8760   46.5870 C   0  0  0  0  0  0  0  0  0  0  0  0
   59.4528   36.1866   45.3125 H   0  0  0  0  0  0  0  0  0  0  0  0
   60.1341   35.2746   43.9230 H   0  0  0  0  0  0  0  0  0  0  0  0
   58.4017   35.7494   43.9230 H   0  0  0  0  0  0  0  0  0  0  0  0
   57.9625   33.3193   43.4375 H   0  0  0  0  0  0  0  0  0  0  0  0
   58.0034   24.8576   43.5404 H   0  0  0  0  0  0  0  0  0  0  0  0
   56.6968   24.5765   45.6641 H   0  0  0  0  0  0  0  0  0  0  0  0
   56.0658   26.6212   46.9730 H   0  0  0  0  0  0  0  0  0  0  0  0
   57.9348   30.6954   46.8680 H   0  0  0  0  0  0  0  0  0  0  0  0
   58.8776   31.4156   48.9666 H   0  0  0  0  0  0  0  0  0  0  0  0
   59.8624   34.0772   51.3320 H   0  0  0  0  0  0  0  0  0  0  0  0
   59.2744   32.3771   51.1430 H   0  0  0  0  0  0  0  0  0  0  0  0
   61.7864   28.1260   51.1790 H   0  0  0  0  0  0  0  0  0  0  0  0
   61.4008   26.5198   49.3185 H   0  0  0  0  0  0  0  0  0  0  0  0
   58.0974   28.9418   47.9128 H   0  0  0  0  0  0  0  0  0  0  0  0
   58.5105   30.5694   49.7545 H   0  0  0  0  0  0  0  0  0  0  0  0
   62.2607   34.3876   50.3685 H   0  0  0  0  0  0  0  0  0  0  0  0
   63.6976   32.5362   52.2939 H   0  0  0  0  0  0  0  0  0  0  0  0
   63.2084   34.2613   52.4987 H   0  0  0  0  0  0  0  0  0  0  0  0
   65.6393   34.0700   52.1155 H   0  0  0  0  0  0  0  0  0  0  0  0
   64.8028   34.9195   50.7395 H   0  0  0  0  0  0  0  0  0  0  0  0
   66.0232   33.5772   49.4602 H   0  0  0  0  0  0  0  0  0  0  0  0
   68.0930   29.8319   50.2736 H   0  0  0  0  0  0  0  0  0  0  0  0
   64.8230   28.0632   53.8021 H   0  0  0  0  0  0  0  0  0  0  0  0
   63.6675   28.0969   52.4272 H   0  0  0  0  0  0  0  0  0  0  0  0
   65.0296   26.9258   52.4272 H   0  0  0  0  0  0  0  0  0  0  0  0
   64.4654   30.7768   52.3887 H   0  0  0  0  0  0  0  0  0  0  0  0
   64.3202   31.1932   50.2677 H   0  0  0  0  0  0  0  0  0  0  0  0
   64.9138   31.7013   48.6304 H   0  0  0  0  0  0  0  0  0  0  0  0
   62.4812   32.0741   48.8860 H   0  0  0  0  0  0  0  0  0  0  0  0
   63.4128   33.6208   48.6587 H   0  0  0  0  0  0  0  0  0  0  0  0
   60.7005   35.3211   49.3198 H   0  0  0  0  0  0  0  0  0  0  0  0
   60.2022   35.7811   46.9301 H   0  0  0  0  0  0  0  0  0  0  0  0
  1  2  1  0
  2  3  2  0
  3  4  1  0
  4  5  1  0
  5  6  2  0
  5  7  2  0
  5  8  1  0
  8  9  2  3
  9 10  1  0
 10 11  2  0
 11 12  1  0
 12 13  2  0
 13 14  1  0
  4 15  2  0
 15 16  1  0
 16 17  2  0
 17 18  1  0
 18 19  1  0
 19 20  1  0
 20 21  1  0
 21 22  2  0
 21 23  1  0
 23 24  1  0
 24 25  2  0
 25 26  1  0
 26 27  2  0
 27 28  1  0
 28 29  1  0
 29 30  1  0
 29 31  1  0
 29 32  1  0
 27 33  1  0
 33 34  2  0
 20 35  1  0
 35 36  1  0
 36 37  1  0
 37 38  1  0
 38 39  1  0
 39 40  1  0
 40 41  1  0
 41 42  2  0
 42 43  1  0
 43 44  1  0
 43 45  1  0
 38 46  1  0
 46 47  1  0
 18 48  2  0
 48 49  1  0
 49 50  2  0
 50  2  1  0
 14  9  1  0
 50 16  1  0
 34 24  1  0
 47 35  1  0
 45 40  2  0
  1 51  1  0
  1 52  1  0
  1 53  1  0
  3 54  1  0
 11 55  1  0
 12 56  1  0
 13 57  1  0
 15 58  1  0
 17 59  1  0
 19 60  1  0
 19 61  1  0
 25 62  1  0
 26 63  1  0
 33 64  1  0
 34 65  1  0
 35 66  1  6
 36 67  1  0
 36 68  1  0
 37 69  1  0
 37 70  1  0
 38 71  1  6
 41 72  1  0
 44 73  1  0
 44 74  1  0
 44 75  1  0
 45 76  1  0
 46 77  1  0
 46 78  1  0
 47 79  1  0
 47 80  1  0
 48 81  1  0
 49 82  1  0
M  CHG  2  14  -1  23  -1
M  END
>  <UniqueID>  (27) 
22

>  <SMILES>  (27) 
Cc1cc(S(=O)(=O)N=c2nccc[n-]2)cc2cc(CN(C(=O)[N-]c3ccc(OC(F)(F)F)cc3)C3CCC(Oc4cnn(C)c4)CC3)ccc12

>  <Energy>  (27) 
135.3253153853244

>  <Genealogy>  (27) 
Cc1cc(S(=O)(=O)N=c2nccc[n-]2)cc2cc(CN(C(=O)[N-]c3ccc(OC(F)(F)F)cc3)C3CCC(Oc4cnn(C)c4)CC3)ccc12 (protonated)
Cc1cc(S(=O)(=O)N=c2nccc[n-]2)cc2cc(CN(C(=O)[N-]c3ccc(OC(F)(F)F)cc3)C3CCC(Oc4cnn(C)c4)CC3)ccc12 (3D coordinates assigned)
Cc1cc(S(=O)(=O)N=c2nccc[n-]2)cc2cc(CN(C(=O)[N-]c3ccc(OC(F)(F)F)cc3)C3CCC(Oc4cnn(C)c4)CC3)ccc12 (nonaromatic ring conformer: 135.3253153853244 kcal/mol)

>  <smiles>  (27) 
Cc1cc(S(=O)(=O)N=c2nccc[nH]2)cc2cc(CN(C(=O)Nc3ccc(OC(F)(F)F)cc3)C3CCC(Oc4cnn(C)c4)CC3)ccc12

>  <score_type>  (27) 
oracle

>  <origin>  (27) 
adg

>  <m_score__min__energy>  (27) 
-12.99

>  <m_primary>  (27) 
energy

$$$$
27:0
     RDKit          3D

 35 37  0  0  0  0  0  0  0  0999 V2000
   64.5272   32.6548   48.0365 H   0  0  0  0  0  0  0  0  0  0  0  0
   63.4910   32.7000   47.6700 C   0  0  0  0  0  0  0  0  0  0  0  0
   63.1010   33.7250   46.8060 C   0  0  0  0  0  0  0  0  0  0  0  0
   63.8325   34.4810   46.4844 H   0  0  0  0  0  0  0  0  0  0  0  0
   61.7830   33.7910   46.3500 C   0  0  0  0  0  0  0  0  0  0  0  0
   61.4832   34.5963   45.6633 H   0  0  0  0  0  0  0  0  0  0  0  0
   60.8360   32.8370   46.7610 C   0  0  0  0  0  0  0  0  0  0  0  0
   59.4530   32.9470   46.2500 C   0  0  0  0  0  0  0  0  0  0  0  0
   58.8270   31.8320   45.7880 N   0  0  0  0  0  0  0  0  0  0  0  0
   57.5570   31.8770   45.2980 C   0  0  0  0  0  0  0  0  0  0  0  0
   56.9690   30.7940   44.8780 N   0  0  0  0  0  0  0  0  0  0  0  0
   57.5990   29.7760   44.0360 C   0  0  0  0  0  0  0  0  0  0  0  0
   58.2300   30.2708   43.2829 H   0  0  0  0  0  0  0  0  0  0  0  0
   56.8103   29.1857   43.5465 H   0  0  0  0  0  0  0  0  0  0  0  0
   58.4520   28.8500   44.8640 C   0  0  0  0  0  0  0  0  0  0  0  0
   57.8490   27.9410   45.7490 C   0  0  0  0  0  0  0  0  0  0  0  0
   56.7524   27.8903   45.8188 H   0  0  0  0  0  0  0  0  0  0  0  0
   58.6360   27.1010   46.5410 C   0  0  0  0  0  0  0  0  0  0  0  0
   58.1579   26.3884   47.2292 H   0  0  0  0  0  0  0  0  0  0  0  0
   60.0300   27.1650   46.4600 C   0  0  0  0  0  0  0  0  0  0  0  0
   60.7930   26.3520   47.2320 F   0  0  0  0  0  0  0  0  0  0  0  0
   60.6380   28.0700   45.5860 C   0  0  0  0  0  0  0  0  0  0  0  0
   61.7351   28.1217   45.5248 H   0  0  0  0  0  0  0  0  0  0  0  0
   59.8540   28.9100   44.7890 C   0  0  0  0  0  0  0  0  0  0  0  0
   60.3363   29.6201   44.1011 H   0  0  0  0  0  0  0  0  0  0  0  0
   56.8950   33.0660   45.2490 N   0  0  0  0  0  0  0  0  0  0  0  0
   55.9210   33.1100   44.8750 H   0  0  0  0  0  0  0  0  0  0  0  0
   57.4910   34.2110   45.6790 C   0  0  0  0  0  0  0  0  0  0  0  0
   56.9467   35.1655   45.6271 H   0  0  0  0  0  0  0  0  0  0  0  0
   58.7890   34.1780   46.1850 C   0  0  0  0  0  0  0  0  0  0  0  0
   59.2819   35.1002   46.5264 H   0  0  0  0  0  0  0  0  0  0  0  0
   61.2430   31.7860   47.6170 C   0  0  0  0  0  0  0  0  0  0  0  0
   60.1600   30.4750   48.0740 Cl  0  0  0  0  0  0  0  0  0  0  0  0
   62.5680   31.7330   48.0690 C   0  0  0  0  0  0  0  0  0  0  0  0
   62.8829   30.9230   48.7434 H   0  0  0  0  0  0  0  0  0  0  0  0
  1  2  1  0
  2  3  2  0
  3  4  1  0
  3  5  1  0
  5  6  1  0
  5  7  2  0
  7  8  1  0
  8  9  2  0
  9 10  1  0
 10 11  2  0
 11 12  1  0
 12 13  1  0
 12 14  1  0
 12 15  1  0
 15 16  2  0
 16 17  1  0
 16 18  1  0
 18 19  1  0
 18 20  2  0
 20 21  1  0
 20 22  1  0
 22 23  1  0
 22 24  2  0
 24 25  1  0
 10 26  1  0
 26 27  1  0
 26 28  1  0
 28 29  1  0
 28 30  2  0
 30 31  1  0
  7 32  1  0
 32 33  1  0
 32 34  2  0
 34 35  1  0
 34  2  1  0
 30  8  1  0
 24 15  1  0
M  END
>  <UniqueID>  (28) 
23

>  <SMILES>  (28) 
Fc1ccc(C/N=c2\nc(-c3ccccc3Cl)cc[nH]2)cc1

>  <Energy>  (28) 
43.59758311540412

>  <Genealogy>  (28) 
Fc1ccc(C/N=c2\nc(-c3ccccc3Cl)cc[nH]2)cc1 (cis-trans isomerization)
Fc1ccc(C/N=c2\nc(-c3ccccc3Cl)cc[nH]2)cc1 (3D coordinates assigned)
Fc1ccc(C/N=c2\nc(-c3ccccc3Cl)cc[nH]2)cc1 (optimized conformer: 43.59758311540412 kcal/mol)

>  <smiles>  (28) 
Fc1ccc(CN=c2nc(-c3ccccc3Cl)cc[nH]2)cc1

>  <score_type>  (28) 
oracle

>  <origin>  (28) 
adg

>  <m_score__min__energy>  (28) 
-7.7199999999999998

>  <m_primary>  (28) 
energy

$$$$
28:0
     RDKit          3D

 38 40  0  0  0  0  0  0  0  0999 V2000
   56.1970   28.9170   53.5180 O   0  0  0  0  0  0  0  0  0  0  0  0
   55.8770   29.7210   52.6020 C   0  0  0  0  0  0  0  0  0  0  0  0
   54.6140   29.5470   51.9420 N   0  0  0  0  0  0  0  0  0  0  0  0
   53.4970   30.4490   51.9860 C   0  0  0  0  0  0  0  0  0  0  0  0
   52.8100   30.7200   53.1850 C   0  0  0  0  0  0  0  0  0  0  0  0
   51.7270   31.6050   53.1890 C   0  0  0  0  0  0  0  0  0  0  0  0
   51.3090   32.2080   51.9980 C   0  0  0  0  0  0  0  0  0  0  0  0
   50.2280   33.0810   52.0030 O   0  0  0  0  0  0  0  0  0  0  0  0
   51.9750   31.9250   50.8030 C   0  0  0  0  0  0  0  0  0  0  0  0
   53.0600   31.0430   50.7960 C   0  0  0  0  0  0  0  0  0  0  0  0
   56.8230   30.7960   52.2190 C   0  0  0  0  0  0  0  0  0  0  0  0
   56.6370   32.0870   52.7270 C   0  0  0  0  0  0  0  0  0  0  0  0
   57.4680   33.1250   52.3160 C   0  0  0  0  0  0  0  0  0  0  0  0
   58.4820   32.8690   51.3960 C   0  0  0  0  0  0  0  0  0  0  0  0
   58.6920   31.6040   50.9190 N   0  0  0  0  0  0  0  0  0  0  0  0
   59.7310   31.3870   49.8990 C   0  0  0  0  0  0  0  0  0  0  0  0
   59.6190   32.4290   48.8180 C   0  0  0  0  0  0  0  0  0  0  0  0
   60.6740   33.3250   48.5760 C   0  0  0  0  0  0  0  0  0  0  0  0
   60.5780   34.2610   47.5410 C   0  0  0  0  0  0  0  0  0  0  0  0
   59.4360   34.3050   46.7370 C   0  0  0  0  0  0  0  0  0  0  0  0
   59.3480   35.2110   45.7340 F   0  0  0  0  0  0  0  0  0  0  0  0
   58.3870   33.4100   46.9660 C   0  0  0  0  0  0  0  0  0  0  0  0
   58.4770   32.4740   48.0010 C   0  0  0  0  0  0  0  0  0  0  0  0
   57.8970   30.5630   51.3360 C   0  0  0  0  0  0  0  0  0  0  0  0
   58.1330   29.3890   50.9350 O   0  0  0  0  0  0  0  0  0  0  0  0
   53.1258   30.2347   54.1203 H   0  0  0  0  0  0  0  0  0  0  0  0
   51.2030   31.8273   54.1303 H   0  0  0  0  0  0  0  0  0  0  0  0
   51.6452   32.3970   49.8657 H   0  0  0  0  0  0  0  0  0  0  0  0
   53.5731   30.8146   49.8502 H   0  0  0  0  0  0  0  0  0  0  0  0
   55.8329   32.2814   53.4520 H   0  0  0  0  0  0  0  0  0  0  0  0
   57.3251   34.1402   52.7148 H   0  0  0  0  0  0  0  0  0  0  0  0
   59.1216   33.6938   51.0488 H   0  0  0  0  0  0  0  0  0  0  0  0
   60.7229   31.4557   50.3695 H   0  0  0  0  0  0  0  0  0  0  0  0
   59.5966   30.3900   49.4540 H   0  0  0  0  0  0  0  0  0  0  0  0
   61.5778   33.2903   49.2021 H   0  0  0  0  0  0  0  0  0  0  0  0
   61.4039   34.9645   47.3595 H   0  0  0  0  0  0  0  0  0  0  0  0
   57.4893   33.4420   46.3311 H   0  0  0  0  0  0  0  0  0  0  0  0
   57.6502   31.7700   48.1762 H   0  0  0  0  0  0  0  0  0  0  0  0
  1  2  2  0
  2  3  1  0
  3  4  1  0
  4  5  2  0
  5  6  1  0
  6  7  2  0
  7  8  1  0
  7  9  1  0
  9 10  2  0
  2 11  1  0
 11 12  2  0
 12 13  1  0
 13 14  2  0
 14 15  1  0
 15 16  1  0
 16 17  1  0
 17 18  2  0
 18 19  1  0
 19 20  2  0
 20 21  1  0
 20 22  1  0
 22 23  2  0
 15 24  1  0
 24 25  2  0
 10  4  1  0
 24 11  1  0
 23 17  1  0
  5 26  1  0
  6 27  1  0
  9 28  1  0
 10 29  1  0
 12 30  1  0
 13 31  1  0
 14 32  1  0
 16 33  1  0
 16 34  1  0
 18 35  1  0
 19 36  1  0
 22 37  1  0
 23 38  1  0
M  CHG  2   3  -1   8  -1
M  END
>  <UniqueID>  (29) 
24

>  <SMILES>  (29) 
O=C([N-]c1ccc([O-])cc1)c1cccn(Cc2ccc(F)cc2)c1=O

>  <Energy>  (29) 
48.10620525955686

>  <Genealogy>  (29) 
O=C([N-]c1ccc([O-])cc1)c1cccn(Cc2ccc(F)cc2)c1=O (protonated)
O=C([N-]c1ccc([O-])cc1)c1cccn(Cc2ccc(F)cc2)c1=O (3D coordinates assigned)
O=C([N-]c1ccc([O-])cc1)c1cccn(Cc2ccc(F)cc2)c1=O (optimized conformer: 48.10620525955686 kcal/mol)

>  <smiles>  (29) 
O=C(Nc1ccc(O)cc1)c1cccn(Cc2ccc(F)cc2)c1=O

>  <score_type>  (29) 
oracle

>  <origin>  (29) 
adg

>  <m_score__min__energy>  (29) 
-12.58

>  <m_primary>  (29) 
energy

$$$$
29:0
     RDKit          3D

 38 39  0  0  0  0  0  0  0  0999 V2000
   57.3550   24.3220   43.9060 C   0  0  0  0  0  0  0  0  0  0  0  0
   56.8410   22.8870   43.9190 C   0  0  0  0  0  0  0  0  0  0  0  0
   57.1910   22.2140   45.2120 C   0  0  0  0  0  0  0  0  0  0  0  0
   57.7680   21.0080   45.3300 N   0  0  0  0  0  0  0  0  0  0  0  0
   57.8220   20.7340   46.6020 O   0  0  0  0  0  0  0  0  0  0  0  0
   57.3090   21.6720   47.3530 N   0  0  0  0  0  0  0  0  0  0  0  0
   56.8890   22.6170   46.4890 C   0  0  0  0  0  0  0  0  0  0  0  0
   56.3120   23.7360   46.8180 N   0  0  0  0  0  0  0  0  0  0  0  0
   56.9740   24.8900   47.3570 C   0  0  0  0  0  0  0  0  0  0  0  0
   57.6060   24.7680   48.4400 O   0  0  0  0  0  0  0  0  0  0  0  0
   56.9970   26.1920   46.6420 C   0  0  0  0  0  0  0  0  0  0  0  0
   58.1670   26.9640   46.6300 C   0  0  0  0  0  0  0  0  0  0  0  0
   58.2200   28.1960   45.9530 C   0  0  0  0  0  0  0  0  0  0  0  0
   59.5240   28.9870   45.9360 C   0  0  0  0  0  0  0  0  0  0  0  0
   60.2760   28.8390   47.2640 C   0  0  0  0  0  0  0  0  0  0  0  0
   60.4080   28.5690   44.7530 C   0  0  0  0  0  0  0  0  0  0  0  0
   57.0410   28.6540   45.3120 C   0  0  0  0  0  0  0  0  0  0  0  0
   56.9790   29.9580   44.5740 C   0  0  0  0  0  0  0  0  0  0  0  0
   55.9140   27.8940   45.3580 N   0  0  0  0  0  0  0  0  0  0  0  0
   55.8580   26.6960   45.9940 C   0  0  0  0  0  0  0  0  0  0  0  0
   54.7790   26.0430   45.9820 O   0  0  0  0  0  0  0  0  0  0  0  0
   57.4816   24.6755   44.9399 H   0  0  0  0  0  0  0  0  0  0  0  0
   58.3227   24.3602   43.3843 H   0  0  0  0  0  0  0  0  0  0  0  0
   56.6316   24.9659   43.3843 H   0  0  0  0  0  0  0  0  0  0  0  0
   55.7476   22.8933   43.7989 H   0  0  0  0  0  0  0  0  0  0  0  0
   57.3109   22.3340   43.0923 H   0  0  0  0  0  0  0  0  0  0  0  0
   58.1040   20.3850   44.5610 H   0  0  0  0  0  0  0  0  0  0  0  0
   59.0598   26.5999   47.1595 H   0  0  0  0  0  0  0  0  0  0  0  0
   59.2707   30.0498   45.8085 H   0  0  0  0  0  0  0  0  0  0  0  0
   59.5745   28.9771   48.1000 H   0  0  0  0  0  0  0  0  0  0  0  0
   60.7231   27.8356   47.3224 H   0  0  0  0  0  0  0  0  0  0  0  0
   61.0699   29.5981   47.3224 H   0  0  0  0  0  0  0  0  0  0  0  0
   61.3418   28.1274   45.1311 H   0  0  0  0  0  0  0  0  0  0  0  0
   59.8739   27.8280   44.1400 H   0  0  0  0  0  0  0  0  0  0  0  0
   60.6418   29.4519   44.1400 H   0  0  0  0  0  0  0  0  0  0  0  0
   56.9396   30.7866   45.2964 H   0  0  0  0  0  0  0  0  0  0  0  0
   57.8731   30.0646   43.9421 H   0  0  0  0  0  0  0  0  0  0  0  0
   56.0788   29.9793   43.9421 H   0  0  0  0  0  0  0  0  0  0  0  0
  1  2  1  0
  2  3  1  0
  3  4  2  0
  4  5  1  0
  5  6  1  0
  6  7  1  0
  7  8  2  3
  8  9  1  0
  9 10  2  0
  9 11  1  0
 11 12  2  0
 12 13  1  0
 13 14  1  0
 14 15  1  0
 14 16  1  0
 13 17  2  0
 17 18  1  0
 17 19  1  0
 19 20  1  0
 20 21  2  0
  7  3  1  0
 20 11  1  0
  1 22  1  0
  1 23  1  0
  1 24  1  0
  2 25  1  0
  2 26  1  0
  4 27  1  0
 12 28  1  0
 14 29  1  0
 15 30  1  0
 15 31  1  0
 15 32  1  0
 16 33  1  0
 16 34  1  0
 16 35  1  0
 18 36  1  0
 18 37  1  0
 18 38  1  0
M  CHG  3   4   1   6  -1  19  -1
M  END
>  <UniqueID>  (30) 
25

>  <SMILES>  (30) 
CCc1[nH+]o[n-]c1=NC(=O)c1cc(C(C)C)c(C)[n-]c1=O

>  <Energy>  (30) 
77.11703873760062

>  <Genealogy>  (30) 
CCc1[nH+]o[n-]c1=NC(=O)c1cc(C(C)C)c(C)[n-]c1=O (protonated)
CCc1[nH+]o[n-]c1=NC(=O)c1cc(C(C)C)c(C)[n-]c1=O (3D coordinates assigned)
CCc1[nH+]o[n-]c1=NC(=O)c1cc(C(C)C)c(C)[n-]c1=O (optimized conformer: 77.11703873760062 kcal/mol)

>  <smiles>  (30) 
CCc1no[nH]c1=NC(=O)c1cc(C(C)C)c(C)[nH]c1=O

>  <score_type>  (30) 
oracle

>  <origin>  (30) 
adg

>  <m_score__min__energy>  (30) 
-9.4000000000000004

>  <m_primary>  (30) 
energy

$$$$
30:0
     RDKit          3D

 64 68  0  0  0  0  0  0  0  0999 V2000
   58.8980   34.4740   45.2500 C   0  0  0  0  0  0  0  0  0  0  0  0
   57.9930   33.2900   44.9240 C   0  0  0  0  0  0  0  0  0  0  0  0
   58.7670   32.1240   44.6330 O   0  0  0  0  0  0  0  0  0  0  0  0
   58.3540   30.7950   44.8350 C   0  0  0  0  0  0  0  0  0  0  0  0
   59.2560   29.7510   45.1170 C   0  0  0  0  0  0  0  0  0  0  0  0
   58.7860   28.4460   45.3030 C   0  0  0  0  0  0  0  0  0  0  0  0
   57.4170   28.1560   45.2010 C   0  0  0  0  0  0  0  0  0  0  0  0
   56.9510   26.7650   45.3920 C   0  0  0  0  0  0  0  0  0  0  0  0
   56.0340   26.5300   46.2260 O   0  0  0  0  0  0  0  0  0  0  0  0
   57.5760   25.6790   44.6920 N   0  0  0  0  0  0  0  0  0  0  0  0
   57.0110   24.3580   44.6520 C   0  0  0  0  0  0  0  0  0  0  0  0
   56.6700   23.7900   43.4140 C   0  0  0  0  0  0  0  0  0  0  0  0
   56.1610   22.4910   43.3610 C   0  0  0  0  0  0  0  0  0  0  0  0
   55.8610   21.9750   42.2530 O   0  0  0  0  0  0  0  0  0  0  0  0
   55.9920   21.7780   44.5020 N   0  0  0  0  0  0  0  0  0  0  0  0
   56.3060   22.2890   45.7230 C   0  0  0  0  0  0  0  0  0  0  0  0
   56.0960   21.5160   46.8700 C   0  0  0  0  0  0  0  0  0  0  0  0
   56.3980   22.0270   48.1400 C   0  0  0  0  0  0  0  0  0  0  0  0
   56.1190   21.2280   49.3030 N   0  0  0  0  0  0  0  0  0  0  0  0
   56.9880   21.1220   50.4430 C   0  0  0  0  0  0  0  0  0  0  0  0
   56.4850   21.4010   51.7180 C   0  0  0  0  0  0  0  0  0  0  0  0
   57.3060   21.2940   52.8400 C   0  0  0  0  0  0  0  0  0  0  0  0
   58.6480   20.8930   52.7100 C   0  0  0  0  0  0  0  0  0  0  0  0
   59.4690   20.7930   53.8450 O   0  0  0  0  0  0  0  0  0  0  0  0
   60.6560   21.5150   54.0420 C   0  0  0  0  0  0  0  0  0  0  0  0
   61.5500   21.0830   54.8220 O   0  0  0  0  0  0  0  0  0  0  0  0
   60.8230   22.8150   53.3710 C   0  0  0  0  0  0  0  0  0  0  0  0
   62.0310   23.1730   52.7470 C   0  0  0  0  0  0  0  0  0  0  0  0
   62.1340   24.3820   52.1340 N   0  0  0  0  0  0  0  0  0  0  0  0
   61.0920   25.2530   52.1140 C   0  0  0  0  0  0  0  0  0  0  0  0
   59.8910   24.9040   52.7360 C   0  0  0  0  0  0  0  0  0  0  0  0
   59.7840   23.6950   53.3480 N   0  0  0  0  0  0  0  0  0  0  0  0
   59.1550   20.5520   51.4320 C   0  0  0  0  0  0  0  0  0  0  0  0
   60.5560   20.0830   51.2350 C   0  0  0  0  0  0  0  0  0  0  0  0
   61.2300   19.3180   52.2310 N   0  0  0  0  0  0  0  0  0  0  0  0
   61.1670   20.3570   50.1670 O   0  0  0  0  0  0  0  0  0  0  0  0
   58.3110   20.6760   50.3090 C   0  0  0  0  0  0  0  0  0  0  0  0
   56.8900   23.3380   48.2510 C   0  0  0  0  0  0  0  0  0  0  0  0
   57.1100   24.1160   47.1100 C   0  0  0  0  0  0  0  0  0  0  0  0
   56.8290   23.5990   45.8310 C   0  0  0  0  0  0  0  0  0  0  0  0
   56.5150   29.2040   44.9320 C   0  0  0  0  0  0  0  0  0  0  0  0
   55.1440   28.9710   44.8740 O   0  0  0  0  0  0  0  0  0  0  0  0
   56.9880   30.5080   44.7430 C   0  0  0  0  0  0  0  0  0  0  0  0
   58.9809   34.5825   46.3415 H   0  0  0  0  0  0  0  0  0  0  0  0
   59.8964   34.3012   44.8218 H   0  0  0  0  0  0  0  0  0  0  0  0
   58.4693   35.3920   44.8218 H   0  0  0  0  0  0  0  0  0  0  0  0
   57.3426   33.0849   45.7871 H   0  0  0  0  0  0  0  0  0  0  0  0
   57.3885   33.5414   44.0400 H   0  0  0  0  0  0  0  0  0  0  0  0
   60.3330   29.9618   45.1913 H   0  0  0  0  0  0  0  0  0  0  0  0
   59.4975   27.6389   45.5316 H   0  0  0  0  0  0  0  0  0  0  0  0
   58.5050   25.8420   44.2410 H   0  0  0  0  0  0  0  0  0  0  0  0
   56.8037   24.3675   42.4874 H   0  0  0  0  0  0  0  0  0  0  0  0
   55.6902   20.4980   46.7745 H   0  0  0  0  0  0  0  0  0  0  0  0
   55.2070   20.7140   49.3380 H   0  0  0  0  0  0  0  0  0  0  0  0
   55.4350   21.7068   51.8363 H   0  0  0  0  0  0  0  0  0  0  0  0
   56.9005   21.5253   53.8360 H   0  0  0  0  0  0  0  0  0  0  0  0
   62.8857   22.4806   52.7548 H   0  0  0  0  0  0  0  0  0  0  0  0
   61.1932   26.2263   51.6116 H   0  0  0  0  0  0  0  0  0  0  0  0
   59.0399   25.6009   52.7306 H   0  0  0  0  0  0  0  0  0  0  0  0
   61.1940   19.5970   53.2370 H   0  0  0  0  0  0  0  0  0  0  0  0
   58.6967   20.4187   49.3115 H   0  0  0  0  0  0  0  0  0  0  0  0
   57.1044   23.7568   49.2453 H   0  0  0  0  0  0  0  0  0  0  0  0
   57.5048   25.1376   47.2124 H   0  0  0  0  0  0  0  0  0  0  0  0
   56.2768   31.3168   44.5194 H   0  0  0  0  0  0  0  0  0  0  0  0
  1  2  1  0
  2  3  1  0
  3  4  1  0
  4  5  2  0
  5  6  1  0
  6  7  2  0
  7  8  1  0
  8  9  2  0
  8 10  1  0
 10 11  1  0
 11 12  2  0
 12 13  1  0
 13 14  2  0
 13 15  1  0
 15 16  1  0
 16 17  2  0
 17 18  1  0
 18 19  1  0
 19 20  1  0
 20 21  2  0
 21 22  1  0
 22 23  2  0
 23 24  1  0
 24 25  1  0
 25 26  2  0
 25 27  1  0
 27 28  2  0
 28 29  1  0
 29 30  2  0
 30 31  1  0
 31 32  2  0
 23 33  1  0
 33 34  1  0
 34 35  1  0
 34 36  2  0
 33 37  2  0
 18 38  2  0
 38 39  1  0
 39 40  2  0
  7 41  1  0
 41 42  1  0
 41 43  2  0
 43  4  1  0
 40 11  1  0
 40 16  1  0
 37 20  1  0
 32 27  1  0
  1 44  1  0
  1 45  1  0
  1 46  1  0
  2 47  1  0
  2 48  1  0
  5 49  1  0
  6 50  1  0
 10 51  1  0
 12 52  1  0
 17 53  1  0
 19 54  1  0
 21 55  1  0
 22 56  1  0
 28 57  1  0
 30 58  1  0
 31 59  1  0
 35 60  1  0
 37 61  1  0
 38 62  1  0
 39 63  1  0
 43 64  1  0
M  CHG  3  15  -1  35  -1  42  -1
M  END
>  <UniqueID>  (31) 
26

>  <SMILES>  (31) 
CCOc1ccc(C(=O)Nc2cc(=O)[n-]c3cc(Nc4ccc(OC(=O)c5cnccn5)c(C([NH-])=O)c4)ccc23)c([O-])c1

>  <Energy>  (31) 
96.50549527524926

>  <Genealogy>  (31) 
CCOc1ccc(C(=O)Nc2cc(=O)[n-]c3cc(Nc4ccc(OC(=O)c5cnccn5)c(C([NH-])=O)c4)ccc23)c([O-])c1 (protonated)
CCOc1ccc(C(=O)Nc2cc(=O)[n-]c3cc(Nc4ccc(OC(=O)c5cnccn5)c(C([NH-])=O)c4)ccc23)c([O-])c1 (3D coordinates assigned)
CCOc1ccc(C(=O)Nc2cc(=O)[n-]c3cc(Nc4ccc(OC(=O)c5cnccn5)c(C([NH-])=O)c4)ccc23)c([O-])c1 (optimized conformer: 96.50549527524926 kcal/mol)

>  <smiles>  (31) 
CCOc1ccc(C(=O)Nc2cc(=O)[nH]c3cc(Nc4ccc(OC(=O)c5cnccn5)c(C(N)=O)c4)ccc23)c(O)c1

>  <score_type>  (31) 
oracle

>  <origin>  (31) 
adg

>  <m_score__min__energy>  (31) 
-14.789999999999999

>  <m_primary>  (31) 
energy

$$$$
31:0
     RDKit          3D

 44 47  0  0  0  0  0  0  0  0999 V2000
   56.6330   26.1080   46.3910 C   0  0  0  0  0  0  0  0  0  0  0  0
   58.0170   26.6690   46.2190 C   0  0  0  0  0  0  0  0  0  0  0  0
   59.0690   26.2010   47.0260 C   0  0  0  0  0  0  0  0  0  0  0  0
   60.3570   26.7170   46.8760 C   0  0  0  0  0  0  0  0  0  0  0  0
   60.6080   27.7090   45.9290 C   0  0  0  0  0  0  0  0  0  0  0  0
   59.5730   28.1820   45.1180 C   0  0  0  0  0  0  0  0  0  0  0  0
   58.2740   27.6540   45.2410 C   0  0  0  0  0  0  0  0  0  0  0  0
   57.1890   28.1390   44.4320 N   0  0  0  0  0  0  0  0  0  0  0  0
   56.4510   29.3520   44.6250 C   0  0  0  0  0  0  0  0  0  0  0  0
   55.1910   29.3450   44.6260 O   0  0  0  0  0  0  0  0  0  0  0  0
   57.1700   30.6060   44.8840 C   0  0  0  0  0  0  0  0  0  0  0  0
   57.7730   30.9630   46.0920 C   0  0  0  0  0  0  0  0  0  0  0  0
   58.3820   32.2240   46.0310 C   0  0  0  0  0  0  0  0  0  0  0  0
   59.0660   32.8790   47.0610 C   0  0  0  0  0  0  0  0  0  0  0  0
   59.1810   32.3250   48.1890 O   0  0  0  0  0  0  0  0  0  0  0  0
   59.6090   34.1240   46.8260 N   0  0  0  0  0  0  0  0  0  0  0  0
   60.3050   34.8540   47.8980 C   0  0  0  0  0  0  0  0  0  0  0  0
   61.5810   34.1440   48.2680 C   0  0  0  0  0  0  0  0  0  0  0  0
   62.3740   33.5510   47.2700 C   0  0  0  0  0  0  0  0  0  0  0  0
   63.5760   32.9210   47.6080 C   0  0  0  0  0  0  0  0  0  0  0  0
   63.9980   32.8830   48.9390 C   0  0  0  0  0  0  0  0  0  0  0  0
   65.1640   32.2720   49.2640 F   0  0  0  0  0  0  0  0  0  0  0  0
   63.2190   33.4770   49.9360 C   0  0  0  0  0  0  0  0  0  0  0  0
   62.0160   34.1090   49.6040 C   0  0  0  0  0  0  0  0  0  0  0  0
   59.4700   34.7290   45.5970 C   0  0  0  0  0  0  0  0  0  0  0  0
   58.7890   34.0920   44.5510 C   0  0  0  0  0  0  0  0  0  0  0  0
   58.2560   32.8370   44.8000 C   0  0  0  0  0  0  0  0  0  0  0  0
   57.3930   31.8480   43.7540 S   0  0  0  0  0  0  0  0  0  0  0  0
   56.4054   26.0157   47.4632 H   0  0  0  0  0  0  0  0  0  0  0  0
   55.9030   26.7812   45.9178 H   0  0  0  0  0  0  0  0  0  0  0  0
   56.5778   25.1165   45.9178 H   0  0  0  0  0  0  0  0  0  0  0  0
   58.8757   25.4237   47.7799 H   0  0  0  0  0  0  0  0  0  0  0  0
   61.1760   26.3402   47.5063 H   0  0  0  0  0  0  0  0  0  0  0  0
   61.6225   28.1200   45.8201 H   0  0  0  0  0  0  0  0  0  0  0  0
   59.7746   28.9716   44.3791 H   0  0  0  0  0  0  0  0  0  0  0  0
   57.7703   30.3269   46.9894 H   0  0  0  0  0  0  0  0  0  0  0  0
   60.5424   35.8703   47.5505 H   0  0  0  0  0  0  0  0  0  0  0  0
   59.6519   34.9020   48.7819 H   0  0  0  0  0  0  0  0  0  0  0  0
   62.0480   33.5826   46.2199 H   0  0  0  0  0  0  0  0  0  0  0  0
   64.1904   32.4544   46.8239 H   0  0  0  0  0  0  0  0  0  0  0  0
   63.5526   33.4474   50.9838 H   0  0  0  0  0  0  0  0  0  0  0  0
   61.4086   34.5800   50.3909 H   0  0  0  0  0  0  0  0  0  0  0  0
   59.9003   35.7281   45.4337 H   0  0  0  0  0  0  0  0  0  0  0  0
   58.6812   34.5712   43.5667 H   0  0  0  0  0  0  0  0  0  0  0  0
  1  2  1  0
  2  3  2  0
  3  4  1  0
  4  5  2  0
  5  6  1  0
  6  7  2  0
  7  8  1  0
  8  9  1  0
  9 10  2  0
  9 11  1  0
 11 12  2  0
 12 13  1  0
 13 14  1  0
 14 15  2  0
 14 16  1  0
 16 17  1  0
 17 18  1  0
 18 19  2  0
 19 20  1  0
 20 21  2  0
 21 22  1  0
 21 23  1  0
 23 24  2  0
 16 25  1  0
 25 26  2  0
 26 27  1  0
 27 28  1  0
  7  2  1  0
 28 11  1  0
 27 13  2  0
 24 18  1  0
  1 29  1  0
  1 30  1  0
  1 31  1  0
  3 32  1  0
  4 33  1  0
  5 34  1  0
  6 35  1  0
 12 36  1  0
 17 37  1  0
 17 38  1  0
 19 39  1  0
 20 40  1  0
 23 41  1  0
 24 42  1  0
 25 43  1  0
 26 44  1  0
M  CHG  1   8  -1
M  END
>  <UniqueID>  (32) 
27

>  <SMILES>  (32) 
Cc1ccccc1[N-]C(=O)c1cc2c(=O)n(Cc3ccc(F)cc3)ccc2s1

>  <Energy>  (32) 
84.4744974991289

>  <Genealogy>  (32) 
Cc1ccccc1[N-]C(=O)c1cc2c(=O)n(Cc3ccc(F)cc3)ccc2s1 (protonated)
Cc1ccccc1[N-]C(=O)c1cc2c(=O)n(Cc3ccc(F)cc3)ccc2s1 (3D coordinates assigned)
Cc1ccccc1[N-]C(=O)c1cc2c(=O)n(Cc3ccc(F)cc3)ccc2s1 (optimized conformer: 84.4744974991289 kcal/mol)

>  <smiles>  (32) 
Cc1ccccc1NC(=O)c1cc2c(=O)n(Cc3ccc(F)cc3)ccc2s1

>  <score_type>  (32) 
oracle

>  <origin>  (32) 
adg

>  <m_score__min__energy>  (32) 
-10.26

>  <m_primary>  (32) 
energy

$$$$
32:0
     RDKit          3D

 37 39  0  0  0  0  0  0  0  0999 V2000
   61.2270   30.8560   47.1450 C   0  0  0  0  0  0  0  0  0  0  0  0
   60.2360   29.8430   46.7810 N   0  0  0  0  0  0  0  0  0  0  0  0
   59.4350   30.0820   45.7410 N   0  0  0  0  0  0  0  0  0  0  0  0
   58.4860   29.2040   45.3170 C   0  0  0  0  0  0  0  0  0  0  0  0
   57.6330   29.5560   44.1150 C   0  0  0  0  0  0  0  0  0  0  0  0
   56.2820   30.0830   44.4960 C   0  0  0  0  0  0  0  0  0  0  0  0
   55.3040   29.2930   44.5870 O   0  0  0  0  0  0  0  0  0  0  0  0
   56.1430   31.4650   44.8490 N   0  0  0  0  0  0  0  0  0  0  0  0
   57.2110   32.3840   45.1310 C   0  0  0  0  0  0  0  0  0  0  0  0
   57.4480   32.8520   46.4370 C   0  0  0  0  0  0  0  0  0  0  0  0
   58.4780   33.7650   46.6840 C   0  0  0  0  0  0  0  0  0  0  0  0
   59.2710   34.2270   45.6330 C   0  0  0  0  0  0  0  0  0  0  0  0
   59.0330   33.7840   44.3300 C   0  0  0  0  0  0  0  0  0  0  0  0
   58.0020   32.8710   44.0720 C   0  0  0  0  0  0  0  0  0  0  0  0
   57.7780   32.4220   42.7200 C   0  0  0  0  0  0  0  0  0  0  0  0
   57.5980   32.0620   41.6350 N   0  0  0  0  0  0  0  0  0  0  0  0
   58.3370   27.9800   46.0060 C   0  0  0  0  0  0  0  0  0  0  0  0
   57.3830   27.0130   45.6250 C   0  0  0  0  0  0  0  0  0  0  0  0
   57.2660   25.8150   46.3330 C   0  0  0  0  0  0  0  0  0  0  0  0
   58.0950   25.5620   47.4260 C   0  0  0  0  0  0  0  0  0  0  0  0
   59.0470   26.5050   47.8160 C   0  0  0  0  0  0  0  0  0  0  0  0
   59.1790   27.7180   47.1140 C   0  0  0  0  0  0  0  0  0  0  0  0
   60.1350   28.6780   47.4890 C   0  0  0  0  0  0  0  0  0  0  0  0
   60.8980   28.4670   48.4730 O   0  0  0  0  0  0  0  0  0  0  0  0
   61.2949   30.9254   48.2407 H   0  0  0  0  0  0  0  0  0  0  0  0
   62.2076   30.5740   46.7340 H   0  0  0  0  0  0  0  0  0  0  0  0
   60.9235   31.8302   46.7340 H   0  0  0  0  0  0  0  0  0  0  0  0
   58.1561   30.3232   43.5253 H   0  0  0  0  0  0  0  0  0  0  0  0
   57.4777   28.6330   43.5372 H   0  0  0  0  0  0  0  0  0  0  0  0
   56.8198   32.4978   47.2676 H   0  0  0  0  0  0  0  0  0  0  0  0
   58.6634   34.1196   47.7086 H   0  0  0  0  0  0  0  0  0  0  0  0
   60.0843   34.9407   45.8308 H   0  0  0  0  0  0  0  0  0  0  0  0
   59.6574   34.1533   43.5031 H   0  0  0  0  0  0  0  0  0  0  0  0
   56.7262   27.2042   44.7636 H   0  0  0  0  0  0  0  0  0  0  0  0
   56.5178   25.0686   46.0279 H   0  0  0  0  0  0  0  0  0  0  0  0
   57.9982   24.6175   47.9815 H   0  0  0  0  0  0  0  0  0  0  0  0
   59.6987   26.2990   48.6779 H   0  0  0  0  0  0  0  0  0  0  0  0
  1  2  1  0
  2  3  1  0
  3  4  2  0
  4  5  1  0
  5  6  1  0
  6  7  2  0
  6  8  1  0
  8  9  1  0
  9 10  2  0
 10 11  1  0
 11 12  2  0
 12 13  1  0
 13 14  2  0
 14 15  1  0
 15 16  3  0
  4 17  1  0
 17 18  2  0
 18 19  1  0
 19 20  2  0
 20 21  1  0
 21 22  2  0
 22 23  1  0
 23 24  2  0
 23  2  1  0
 14  9  1  0
 22 17  1  0
  1 25  1  0
  1 26  1  0
  1 27  1  0
  5 28  1  0
  5 29  1  0
 10 30  1  0
 11 31  1  0
 12 32  1  0
 13 33  1  0
 18 34  1  0
 19 35  1  0
 20 36  1  0
 21 37  1  0
M  CHG  1   8  -1
M  END
>  <UniqueID>  (33) 
28

>  <SMILES>  (33) 
Cn1nc(CC(=O)[N-]c2ccccc2C#N)c2ccccc2c1=O

>  <Energy>  (33) 
49.72534619125397

>  <Genealogy>  (33) 
Cn1nc(CC(=O)[N-]c2ccccc2C#N)c2ccccc2c1=O (protonated)
Cn1nc(CC(=O)[N-]c2ccccc2C#N)c2ccccc2c1=O (3D coordinates assigned)
Cn1nc(CC(=O)[N-]c2ccccc2C#N)c2ccccc2c1=O (optimized conformer: 49.72534619125397 kcal/mol)

>  <smiles>  (33) 
Cn1nc(CC(=O)Nc2ccccc2C#N)c2ccccc2c1=O

>  <score_type>  (33) 
oracle

>  <origin>  (33) 
adg

>  <m_score__min__energy>  (33) 
-9.8100000000000005

>  <m_primary>  (33) 
energy

$$$$
33:0
     RDKit          3D

 45 48  0  0  0  0  0  0  0  0999 V2000
   55.5830   23.1310   43.0330 C   0  0  0  0  0  0  0  0  0  0  0  0
   56.6380   22.8840   44.0140 N   0  0  0  0  0  0  0  0  0  0  0  0
   57.6260   21.8430   43.7320 C   0  0  0  0  0  0  0  0  0  0  0  0
   56.9570   23.9160   44.9610 C   0  0  0  0  0  0  0  0  0  0  0  0
   56.7740   23.6700   46.3270 C   0  0  0  0  0  0  0  0  0  0  0  0
   57.0980   24.6400   47.2690 C   0  0  0  0  0  0  0  0  0  0  0  0
   57.6090   25.8730   46.8670 C   0  0  0  0  0  0  0  0  0  0  0  0
   57.7990   26.1630   45.4990 C   0  0  0  0  0  0  0  0  0  0  0  0
   58.3100   27.4160   45.0610 C   0  0  0  0  0  0  0  0  0  0  0  0
   58.7450   28.7130   46.1900 S   0  0  0  0  0  0  0  0  0  0  0  0
   60.2380   28.7430   46.3620 O   0  0  0  0  0  0  0  0  0  0  0  0
   58.1250   28.4560   47.5350 O   0  0  0  0  0  0  0  0  0  0  0  0
   58.1920   30.2600   45.5990 N   0  0  0  0  0  0  0  0  0  0  0  0
   57.0530   30.5390   44.9000 C   0  0  0  0  0  0  0  0  0  0  0  0
   56.1240   29.5410   44.3380 C   0  0  0  0  0  0  0  0  0  0  0  0
   55.9150   29.5120   43.0960 O   0  0  0  0  0  0  0  0  0  0  0  0
   55.5220   28.5830   45.1450 O   0  0  0  0  0  0  0  0  0  0  0  0
   56.8880   31.8690   44.6960 N   0  0  0  0  0  0  0  0  0  0  0  0
   57.9670   32.4330   45.2570 C   0  0  0  0  0  0  0  0  0  0  0  0
   58.3080   33.7840   45.2880 C   0  0  0  0  0  0  0  0  0  0  0  0
   59.5230   34.1370   45.9030 C   0  0  0  0  0  0  0  0  0  0  0  0
   60.0080   35.8210   45.9720 Cl  0  0  0  0  0  0  0  0  0  0  0  0
   60.3600   33.1400   46.4540 C   0  0  0  0  0  0  0  0  0  0  0  0
   59.9870   31.7840   46.4000 C   0  0  0  0  0  0  0  0  0  0  0  0
   58.7650   31.4660   45.7990 C   0  0  0  0  0  0  0  0  0  0  0  0
   58.4810   27.6460   43.6870 C   0  0  0  0  0  0  0  0  0  0  0  0
   58.1430   26.6720   42.7530 C   0  0  0  0  0  0  0  0  0  0  0  0
   57.6360   25.4440   43.1670 C   0  0  0  0  0  0  0  0  0  0  0  0
   57.4660   25.1660   44.5350 C   0  0  0  0  0  0  0  0  0  0  0  0
   54.6406   23.3516   43.5557 H   0  0  0  0  0  0  0  0  0  0  0  0
   55.8619   23.9881   42.4025 H   0  0  0  0  0  0  0  0  0  0  0  0
   55.4525   22.2391   42.4025 H   0  0  0  0  0  0  0  0  0  0  0  0
   58.0113   21.4370   44.6789 H   0  0  0  0  0  0  0  0  0  0  0  0
   57.1534   21.0363   43.1525 H   0  0  0  0  0  0  0  0  0  0  0  0
   58.4563   22.2728   43.1525 H   0  0  0  0  0  0  0  0  0  0  0  0
   56.3706   22.7015   46.6577 H   0  0  0  0  0  0  0  0  0  0  0  0
   56.9500   24.4329   48.3391 H   0  0  0  0  0  0  0  0  0  0  0  0
   57.8669   26.6281   47.6242 H   0  0  0  0  0  0  0  0  0  0  0  0
   56.1190   32.3490   44.1750 H   0  0  0  0  0  0  0  0  0  0  0  0
   57.6502   34.5475   44.8471 H   0  0  0  0  0  0  0  0  0  0  0  0
   61.3102   33.4262   46.9286 H   0  0  0  0  0  0  0  0  0  0  0  0
   60.6357   30.9997   46.8171 H   0  0  0  0  0  0  0  0  0  0  0  0
   58.8876   28.6089   43.3443 H   0  0  0  0  0  0  0  0  0  0  0  0
   58.2774   26.8739   41.6801 H   0  0  0  0  0  0  0  0  0  0  0  0
   57.3661   24.6847   42.4183 H   0  0  0  0  0  0  0  0  0  0  0  0
  1  2  1  0
  2  3  1  0
  2  4  1  0
  4  5  2  0
  5  6  1  0
  6  7  2  0
  7  8  1  0
  8  9  2  0
  9 10  1  0
 10 11  2  0
 10 12  2  0
 10 13  1  0
 13 14  1  0
 14 15  1  0
 15 16  2  0
 15 17  1  0
 14 18  2  0
 18 19  1  0
 19 20  2  0
 20 21  1  0
 21 22  1  0
 21 23  2  0
 23 24  1  0
 24 25  2  0
  9 26  1  0
 26 27  2  0
 27 28  1  0
 28 29  2  0
 29  4  1  0
 29  8  1  0
 25 13  1  0
 25 19  1  0
  1 30  1  0
  1 31  1  0
  1 32  1  0
  3 33  1  0
  3 34  1  0
  3 35  1  0
  5 36  1  0
  6 37  1  0
  7 38  1  0
 18 39  1  0
 20 40  1  0
 23 41  1  0
 24 42  1  0
 26 43  1  0
 27 44  1  0
 28 45  1  0
M  CHG  2  17  -1  18   1
M  END
>  <UniqueID>  (34) 
29

>  <SMILES>  (34) 
CN(C)c1cccc2c(S(=O)(=O)n3c(C(=O)[O-])[nH+]c4cc(Cl)ccc43)cccc12

>  <Energy>  (34) 
105.03420087710158

>  <Genealogy>  (34) 
CN(C)c1cccc2c(S(=O)(=O)n3c(C(=O)[O-])[nH+]c4cc(Cl)ccc43)cccc12 (protonated)
CN(C)c1cccc2c(S(=O)(=O)n3c(C(=O)[O-])[nH+]c4cc(Cl)ccc43)cccc12 (3D coordinates assigned)
CN(C)c1cccc2c(S(=O)(=O)n3c(C(=O)[O-])[nH+]c4cc(Cl)ccc43)cccc12 (optimized conformer: 105.03420087710158 kcal/mol)

>  <smiles>  (34) 
CN(C)c1cccc2c(S(=O)(=O)n3c(C(=O)O)nc4cc(Cl)ccc43)cccc12

>  <score_type>  (34) 
oracle

>  <origin>  (34) 
adg

>  <m_score__min__energy>  (34) 
-9.0299999999999994

>  <m_primary>  (34) 
energy

$$$$
34:0
     RDKit          3D

 41 44  0  0  0  0  0  0  0  0999 V2000
   58.9540   29.8000   45.0220 O   0  0  0  0  0  0  0  0  0  0  0  0
   57.9540   30.5000   45.3340 C   0  0  0  0  0  0  0  0  0  0  0  0
   56.6880   29.9350   45.2410 O   0  0  0  0  0  0  0  0  0  0  0  0
   58.1370   31.8890   45.8260 C   0  0  0  0  0  0  0  0  0  0  0  0
   57.2220   32.8760   45.4250 C   0  0  0  0  0  0  0  0  0  0  0  0
   57.4060   34.2050   45.7950 C   0  0  0  0  0  0  0  0  0  0  0  0
   58.5070   34.5700   46.5660 C   0  0  0  0  0  0  0  0  0  0  0  0
   59.4330   33.6130   46.9980 C   0  0  0  0  0  0  0  0  0  0  0  0
   59.2320   32.2590   46.6490 C   0  0  0  0  0  0  0  0  0  0  0  0
   60.1430   31.2720   47.1210 N   0  0  0  0  0  0  0  0  0  0  0  0
   59.7010   30.3280   48.5150 S   0  0  0  0  0  0  0  0  0  0  0  0
   58.3860   29.6470   48.2560 O   0  0  0  0  0  0  0  0  0  0  0  0
   60.7440   29.2790   48.7800 O   0  0  0  0  0  0  0  0  0  0  0  0
   59.5650   31.3580   49.9380 C   0  0  0  0  0  0  0  0  0  0  0  0
   60.6940   31.5980   50.7340 C   0  0  0  0  0  0  0  0  0  0  0  0
   60.6040   32.4460   51.8440 C   0  0  0  0  0  0  0  0  0  0  0  0
   59.3860   33.0570   52.1620 C   0  0  0  0  0  0  0  0  0  0  0  0
   59.2650   34.2190   53.6720 Br  0  0  0  0  0  0  0  0  0  0  0  0
   58.2570   32.8170   51.3700 C   0  0  0  0  0  0  0  0  0  0  0  0
   58.3450   31.9700   50.2620 C   0  0  0  0  0  0  0  0  0  0  0  0
   61.5390   31.4350   46.7540 C   0  0  0  0  0  0  0  0  0  0  0  0
   62.2260   32.2640   47.7900 C   0  0  0  0  0  0  0  0  0  0  0  0
   63.4540   31.8100   48.3070 C   0  0  0  0  0  0  0  0  0  0  0  0
   64.1210   32.5300   49.2970 C   0  0  0  0  0  0  0  0  0  0  0  0
   63.5780   33.7200   49.7750 C   0  0  0  0  0  0  0  0  0  0  0  0
   62.3710   34.1940   49.2580 C   0  0  0  0  0  0  0  0  0  0  0  0
   61.6760   33.4850   48.2670 C   0  0  0  0  0  0  0  0  0  0  0  0
   60.4880   34.0870   47.8030 O   0  0  0  0  0  0  0  0  0  0  0  0
   56.3519   32.5961   44.8129 H   0  0  0  0  0  0  0  0  0  0  0  0
   56.6805   34.9686   45.4779 H   0  0  0  0  0  0  0  0  0  0  0  0
   58.6511   35.6257   46.8395 H   0  0  0  0  0  0  0  0  0  0  0  0
   61.6525   31.1189   50.4857 H   0  0  0  0  0  0  0  0  0  0  0  0
   61.4914   32.6322   52.4668 H   0  0  0  0  0  0  0  0  0  0  0  0
   57.2989   33.2960   51.6202 H   0  0  0  0  0  0  0  0  0  0  0  0
   57.4556   31.7827   49.6425 H   0  0  0  0  0  0  0  0  0  0  0  0
   62.0211   30.4481   46.6934 H   0  0  0  0  0  0  0  0  0  0  0  0
   61.6081   31.9339   45.7761 H   0  0  0  0  0  0  0  0  0  0  0  0
   63.8925   30.8761   47.9254 H   0  0  0  0  0  0  0  0  0  0  0  0
   65.0748   32.1587   49.7000 H   0  0  0  0  0  0  0  0  0  0  0  0
   64.1002   34.2865   50.5600 H   0  0  0  0  0  0  0  0  0  0  0  0
   61.9572   35.1410   49.6347 H   0  0  0  0  0  0  0  0  0  0  0  0
  1  2  2  0
  2  3  1  0
  2  4  1  0
  4  5  2  0
  5  6  1  0
  6  7  2  0
  7  8  1  0
  8  9  2  0
  9 10  1  0
 10 11  1  0
 11 12  2  0
 11 13  2  0
 11 14  1  0
 14 15  2  0
 15 16  1  0
 16 17  2  0
 17 18  1  0
 17 19  1  0
 19 20  2  0
 10 21  1  0
 21 22  1  0
 22 23  2  0
 23 24  1  0
 24 25  2  0
 25 26  1  0
 26 27  2  0
 27 28  1  0
  9  4  1  0
 20 14  1  0
 27 22  1  0
 28  8  1  0
  5 29  1  0
  6 30  1  0
  7 31  1  0
 15 32  1  0
 16 33  1  0
 19 34  1  0
 20 35  1  0
 21 36  1  0
 21 37  1  0
 23 38  1  0
 24 39  1  0
 25 40  1  0
 26 41  1  0
M  CHG  1   3  -1
M  END
>  <UniqueID>  (35) 
30

>  <SMILES>  (35) 
O=C([O-])c1cccc2c1N(S(=O)(=O)c1ccc(Br)cc1)Cc1ccccc1O2

>  <Energy>  (35) 
66.57146847989556

>  <Genealogy>  (35) 
O=C([O-])c1cccc2c1N(S(=O)(=O)c1ccc(Br)cc1)Cc1ccccc1O2 (protonated)
O=C([O-])c1cccc2c1N(S(=O)(=O)c1ccc(Br)cc1)Cc1ccccc1O2 (3D coordinates assigned)
O=C([O-])c1cccc2c1N(S(=O)(=O)c1ccc(Br)cc1)Cc1ccccc1O2 (nonaromatic ring conformer: 66.57146847989556 kcal/mol)

>  <smiles>  (35) 
O=C(O)c1cccc2c1N(S(=O)(=O)c1ccc(Br)cc1)Cc1ccccc1O2

>  <score_type>  (35) 
oracle

>  <origin>  (35) 
adg

>  <m_score__min__energy>  (35) 
-9.1300000000000008

>  <m_primary>  (35) 
energy

$$$$
35:0
     RDKit          3D

 47 50  0  0  0  0  0  0  0  0999 V2000
   54.4770   23.1720   46.1300 C   0  0  0  0  0  0  0  0  0  0  0  0
   55.6490   23.9640   46.5190 N   0  0  0  0  0  0  0  0  0  0  0  0
   56.7570   23.3550   47.2040 C   0  0  0  0  0  0  0  0  0  0  0  0
   56.6680   22.1880   47.6700 O   0  0  0  0  0  0  0  0  0  0  0  0
   57.9700   24.0890   47.3900 N   0  0  0  0  0  0  0  0  0  0  0  0
   58.2700   25.3010   46.6310 C   0  0  2  0  0  0  0  0  0  0  0  0
   58.8580   24.9190   45.2520 C   0  0  0  0  0  0  0  0  0  0  0  0
   58.0750   23.8180   44.5750 C   0  0  0  0  0  0  0  0  0  0  0  0
   58.4190   22.4710   44.7850 C   0  0  0  0  0  0  0  0  0  0  0  0
   57.7090   21.4550   44.1380 C   0  0  0  0  0  0  0  0  0  0  0  0
   56.6560   21.7740   43.2770 C   0  0  0  0  0  0  0  0  0  0  0  0
   56.3120   23.1110   43.0590 C   0  0  0  0  0  0  0  0  0  0  0  0
   57.0190   24.1300   43.7040 C   0  0  0  0  0  0  0  0  0  0  0  0
   59.2520   26.0880   47.3770 N   0  0  0  0  0  0  0  0  0  0  0  0
   59.3310   27.4990   47.2100 C   0  0  0  0  0  0  0  0  0  0  0  0
   60.3600   28.1180   47.5920 O   0  0  0  0  0  0  0  0  0  0  0  0
   58.2260   28.1890   46.6050 N   0  0  0  0  0  0  0  0  0  0  0  0
   58.2570   29.6070   46.3600 C   0  0  0  0  0  0  0  0  0  0  0  0
   57.7390   30.1240   45.1620 C   0  0  0  0  0  0  0  0  0  0  0  0
   57.7550   31.5010   44.9200 C   0  0  0  0  0  0  0  0  0  0  0  0
   58.2790   32.3790   45.8790 C   0  0  0  0  0  0  0  0  0  0  0  0
   58.3090   34.1130   45.5750 S   0  0  0  0  0  0  0  0  0  0  0  0
   59.5990   34.4990   44.4910 N   0  0  0  0  0  0  0  0  0  0  0  0
   58.5230   34.8560   46.8640 O   0  0  0  0  0  0  0  0  0  0  0  0
   57.0010   34.5360   44.9680 O   0  0  0  0  0  0  0  0  0  0  0  0
   58.7930   31.8680   47.0780 C   0  0  0  0  0  0  0  0  0  0  0  0
   58.7780   30.4900   47.3200 C   0  0  0  0  0  0  0  0  0  0  0  0
   57.0260   27.4470   46.3190 C   0  0  0  0  0  0  0  0  0  0  0  0
   56.9920   26.1030   46.4080 C   0  0  0  0  0  0  0  0  0  0  0  0
   55.7370   25.3550   46.1580 C   0  0  0  0  0  0  0  0  0  0  0  0
   54.7460   25.9360   45.6330 O   0  0  0  0  0  0  0  0  0  0  0  0
   53.9562   22.8201   47.0327 H   0  0  0  0  0  0  0  0  0  0  0  0
   53.7951   23.7952   45.5328 H   0  0  0  0  0  0  0  0  0  0  0  0
   54.8009   22.3069   45.5328 H   0  0  0  0  0  0  0  0  0  0  0  0
   58.8475   25.8086   44.6051 H   0  0  0  0  0  0  0  0  0  0  0  0
   59.8814   24.5502   45.4151 H   0  0  0  0  0  0  0  0  0  0  0  0
   59.2490   22.2158   45.4602 H   0  0  0  0  0  0  0  0  0  0  0  0
   57.9800   20.4024   44.3072 H   0  0  0  0  0  0  0  0  0  0  0  0
   56.0976   20.9729   42.7706 H   0  0  0  0  0  0  0  0  0  0  0  0
   55.4842   23.3617   42.3793 H   0  0  0  0  0  0  0  0  0  0  0  0
   56.7467   25.1812   43.5283 H   0  0  0  0  0  0  0  0  0  0  0  0
   57.3179   29.4416   44.4090 H   0  0  0  0  0  0  0  0  0  0  0  0
   57.3553   31.8964   43.9745 H   0  0  0  0  0  0  0  0  0  0  0  0
   59.3930   34.0150   43.5890 H   0  0  0  0  0  0  0  0  0  0  0  0
   59.2097   32.5524   47.8316 H   0  0  0  0  0  0  0  0  0  0  0  0
   59.1762   30.0962   48.2668 H   0  0  0  0  0  0  0  0  0  0  0  0
   56.1165   27.9894   46.0212 H   0  0  0  0  0  0  0  0  0  0  0  0
  1  2  1  0
  2  3  1  0
  3  4  2  0
  3  5  1  0
  5  6  1  0
  6  7  1  6
  7  8  1  0
  8  9  2  0
  9 10  1  0
 10 11  2  0
 11 12  1  0
 12 13  2  0
  6 14  1  0
 14 15  1  0
 15 16  2  0
 15 17  1  0
 17 18  1  0
 18 19  2  0
 19 20  1  0
 20 21  2  0
 21 22  1  0
 22 23  1  0
 22 24  2  0
 22 25  2  0
 21 26  1  0
 26 27  2  0
 17 28  1  0
 28 29  2  0
 29 30  1  0
 30 31  2  0
 30  2  1  0
 29  6  1  0
 13  8  1  0
 27 18  1  0
  1 32  1  0
  1 33  1  0
  1 34  1  0
  7 35  1  0
  7 36  1  0
  9 37  1  0
 10 38  1  0
 11 39  1  0
 12 40  1  0
 13 41  1  0
 19 42  1  0
 20 43  1  0
 23 44  1  0
 26 45  1  0
 27 46  1  0
 28 47  1  0
M  CHG  3   5  -1  14  -1  23  -1
M  END
>  <UniqueID>  (36) 
31

>  <SMILES>  (36) 
CN1C(=O)[N-][C@]2(Cc3ccccc3)[N-]C(=O)N(c3ccc(S([NH-])(=O)=O)cc3)C=C2C1=O

>  <Energy>  (36) 
58.479757862040636

>  <Genealogy>  (36) 
CN1C(=O)[N-]C2(Cc3ccccc3)[N-]C(=O)N(c3ccc(S([NH-])(=O)=O)cc3)C=C2C1=O (protonated)
CN1C(=O)[N-][C@]2(Cc3ccccc3)[N-]C(=O)N(c3ccc(S([NH-])(=O)=O)cc3)C=C2C1=O (chirality)
CN1C(=O)[N-][C@]2(Cc3ccccc3)[N-]C(=O)N(c3ccc(S([NH-])(=O)=O)cc3)C=C2C1=O (3D coordinates assigned)
CN1C(=O)[N-][C@]2(Cc3ccccc3)[N-]C(=O)N(c3ccc(S([NH-])(=O)=O)cc3)C=C2C1=O (nonaromatic ring conformer: 58.479757862040636 kcal/mol)

>  <smiles>  (36) 
CN1C(=O)NC2(Cc3ccccc3)NC(=O)N(c3ccc(S(N)(=O)=O)cc3)C=C2C1=O

>  <score_type>  (36) 
oracle

>  <origin>  (36) 
adg

>  <m_score__min__energy>  (36) 
-12.640000000000001

>  <m_primary>  (36) 
energy

$$$$
36:0
     RDKit          3D

 41 43  0  0  0  0  0  0  0  0999 V2000
   58.0680   26.6390   43.0620 C   0  0  0  0  0  0  0  0  0  0  0  0
   57.4120   25.5990   43.9290 C   0  0  0  0  0  0  0  0  0  0  0  0
   57.0240   24.3880   43.3310 C   0  0  0  0  0  0  0  0  0  0  0  0
   56.3750   23.4010   44.0760 C   0  0  0  0  0  0  0  0  0  0  0  0
   56.1060   23.6110   45.4260 C   0  0  0  0  0  0  0  0  0  0  0  0
   56.5000   24.7990   46.0420 C   0  0  0  0  0  0  0  0  0  0  0  0
   57.1780   25.7930   45.3170 C   0  0  0  0  0  0  0  0  0  0  0  0
   57.5670   26.9920   46.0070 N   0  0  0  0  0  0  0  0  0  0  0  0
   58.6140   27.0270   46.9880 C   0  0  0  0  0  0  0  0  0  0  0  0
   59.3060   25.9980   47.2170 O   0  0  0  0  0  0  0  0  0  0  0  0
   58.8220   28.2440   47.8400 C   0  0  0  0  0  0  0  0  0  0  0  0
   59.8740   29.5160   47.0500 S   0  0  0  0  0  0  0  0  0  0  0  0
   58.5630   30.2780   46.0800 C   0  0  0  0  0  0  0  0  0  0  0  0
   57.5760   29.4860   45.5870 N   0  0  0  0  0  0  0  0  0  0  0  0
   56.5460   30.0030   44.8740 C   0  0  0  0  0  0  0  0  0  0  0  0
   55.6430   29.2450   44.4340 O   0  0  0  0  0  0  0  0  0  0  0  0
   56.4880   31.3360   44.6350 N   0  0  0  0  0  0  0  0  0  0  0  0
   57.4490   32.1810   45.0910 C   0  0  0  0  0  0  0  0  0  0  0  0
   58.5540   31.6620   45.8050 C   0  0  0  0  0  0  0  0  0  0  0  0
   59.6570   32.5690   46.3140 C   0  0  0  0  0  0  0  0  0  0  0  0
   59.6750   33.9330   45.6160 C   0  0  0  0  0  0  0  0  0  0  0  0
   58.2690   34.5260   45.5670 C   0  0  0  0  0  0  0  0  0  0  0  0
   57.3500   33.6390   44.7230 C   0  0  0  0  0  0  0  0  0  0  0  0
   58.5467   27.3979   43.6983 H   0  0  0  0  0  0  0  0  0  0  0  0
   58.8281   26.1606   42.4269 H   0  0  0  0  0  0  0  0  0  0  0  0
   57.3088   27.1189   42.4269 H   0  0  0  0  0  0  0  0  0  0  0  0
   57.2336   24.2157   42.2650 H   0  0  0  0  0  0  0  0  0  0  0  0
   56.0762   22.4573   43.5962 H   0  0  0  0  0  0  0  0  0  0  0  0
   55.5818   22.8386   46.0079 H   0  0  0  0  0  0  0  0  0  0  0  0
   56.2773   24.9592   47.1072 H   0  0  0  0  0  0  0  0  0  0  0  0
   56.8990   27.7960   45.9850 H   0  0  0  0  0  0  0  0  0  0  0  0
   57.8399   28.6896   48.0565 H   0  0  0  0  0  0  0  0  0  0  0  0
   59.3410   27.9156   48.7526 H   0  0  0  0  0  0  0  0  0  0  0  0
   59.5111   32.7283   47.3926 H   0  0  0  0  0  0  0  0  0  0  0  0
   60.6164   32.0753   46.1000 H   0  0  0  0  0  0  0  0  0  0  0  0
   60.3365   34.6149   46.1704 H   0  0  0  0  0  0  0  0  0  0  0  0
   60.0424   33.8020   44.5875 H   0  0  0  0  0  0  0  0  0  0  0  0
   57.8683   34.5957   46.5890 H   0  0  0  0  0  0  0  0  0  0  0  0
   58.3173   35.5269   45.1133 H   0  0  0  0  0  0  0  0  0  0  0  0
   56.3109   33.9690   44.8696 H   0  0  0  0  0  0  0  0  0  0  0  0
   57.6648   33.7385   43.6737 H   0  0  0  0  0  0  0  0  0  0  0  0
  1  2  1  0
  2  3  2  0
  3  4  1  0
  4  5  2  0
  5  6  1  0
  6  7  2  0
  7  8  1  0
  8  9  1  0
  9 10  2  0
  9 11  1  0
 11 12  1  0
 12 13  1  0
 13 14  1  0
 14 15  1  0
 15 16  2  0
 15 17  1  0
 17 18  2  0
 18 19  1  0
 19 20  1  0
 20 21  1  0
 21 22  1  0
 22 23  1  0
  7  2  1  0
 19 13  2  0
 23 18  1  0
  1 24  1  0
  1 25  1  0
  1 26  1  0
  3 27  1  0
  4 28  1  0
  5 29  1  0
  6 30  1  0
  8 31  1  0
 11 32  1  0
 11 33  1  0
 20 34  1  0
 20 35  1  0
 21 36  1  0
 21 37  1  0
 22 38  1  0
 22 39  1  0
 23 40  1  0
 23 41  1  0
M  CHG  1  14  -1
M  END
>  <UniqueID>  (37) 
32

>  <SMILES>  (37) 
Cc1ccccc1NC(=O)CSc1[n-]c(=O)nc2c1CCCC2

>  <Energy>  (37) 
44.15597242882813

>  <Genealogy>  (37) 
Cc1ccccc1NC(=O)CSc1[n-]c(=O)nc2c1CCCC2 (protonated)
Cc1ccccc1NC(=O)CSc1[n-]c(=O)nc2c1CCCC2 (3D coordinates assigned)
Cc1ccccc1NC(=O)CSc1[n-]c(=O)nc2c1CCCC2 (nonaromatic ring conformer: 44.15597242882813 kcal/mol)

>  <smiles>  (37) 
Cc1ccccc1NC(=O)CSc1[nH]c(=O)nc2c1CCCC2

>  <score_type>  (37) 
oracle

>  <origin>  (37) 
adg

>  <m_score__min__energy>  (37) 
-10.24

>  <m_primary>  (37) 
energy

$$$$
37:0
     RDKit          3D

 52 56  0  0  1  0  0  0  0  0999 V2000
   55.8870   25.7030   45.9610 C   0  0  0  0  0  0  0  0  0  0  0  0
   55.5260   27.0300   45.6550 O   0  0  0  0  0  0  0  0  0  0  0  0
   56.4310   28.0400   45.4020 C   0  0  0  0  0  0  0  0  0  0  0  0
   57.7660   27.9600   45.6600 C   0  0  0  0  0  0  0  0  0  0  0  0
   58.6200   29.0190   45.3770 C   0  0  0  0  0  0  0  0  0  0  0  0
   58.1740   30.2070   44.8240 C   0  0  0  0  0  0  0  0  0  0  0  0
   58.8720   31.3650   44.6520 N   0  0  0  0  0  0  0  0  0  0  0  0
   58.8640   32.4420   45.2360 C   0  0  0  0  0  0  0  0  0  0  0  0
   57.9200   33.3570   44.8400 N   0  0  0  0  0  0  0  0  0  0  0  0
   57.9010   34.5930   45.3200 C   0  0  0  0  0  0  0  0  0  0  0  0
   58.8270   34.9480   46.2050 N   0  0  0  0  0  0  0  0  0  0  0  0
   59.7610   34.0790   46.6110 C   0  0  0  0  0  0  0  0  0  0  0  0
   59.8420   32.7570   46.1630 C   0  0  0  0  0  0  0  0  0  0  0  0
   60.6860   31.7220   46.7430 C   0  0  2  0  0  0  0  0  0  0  0  0
   59.9470   31.1550   47.9740 C   0  0  0  0  0  0  0  0  0  0  0  0
   59.2150   32.0300   48.7690 C   0  0  0  0  0  0  0  0  0  0  0  0
   58.5140   31.6010   49.8940 C   0  0  0  0  0  0  0  0  0  0  0  0
   58.5340   30.2810   50.2410 C   0  0  0  0  0  0  0  0  0  0  0  0
   59.2560   29.4250   49.4520 C   0  0  0  0  0  0  0  0  0  0  0  0
   59.9630   29.8540   48.3210 C   0  0  0  0  0  0  0  0  0  0  0  0
   60.6340   28.8940   47.6340 O   0  0  0  0  0  0  0  0  0  0  0  0
   60.3830   27.5290   47.8290 C   0  0  0  0  0  0  0  0  0  0  0  0
   61.7910   32.4130   47.5100 C   0  0  0  0  0  0  0  0  0  0  0  0
   62.8830   31.6570   47.9700 C   0  0  0  0  0  0  0  0  0  0  0  0
   63.8340   32.1860   48.8220 C   0  0  0  0  0  0  0  0  0  0  0  0
   63.6890   33.4770   49.2100 C   0  0  0  0  0  0  0  0  0  0  0  0
   62.6400   34.2060   48.7620 C   0  0  0  0  0  0  0  0  0  0  0  0
   61.6860   33.7000   47.9130 C   0  0  0  0  0  0  0  0  0  0  0  0
   60.6940   34.5660   47.5050 O   0  0  0  0  0  0  0  0  0  0  0  0
   56.7680   30.2720   44.5580 C   0  0  0  0  0  0  0  0  0  0  0  0
   55.9520   29.2070   44.8490 C   0  0  0  0  0  0  0  0  0  0  0  0
   55.9218   25.5750   47.0530 H   0  0  0  0  0  0  0  0  0  0  0  0
   55.1439   25.0132   45.5345 H   0  0  0  0  0  0  0  0  0  0  0  0
   56.8772   25.4847   45.5345 H   0  0  0  0  0  0  0  0  0  0  0  0
   58.1760   27.0394   46.1009 H   0  0  0  0  0  0  0  0  0  0  0  0
   59.6913   28.9091   45.6010 H   0  0  0  0  0  0  0  0  0  0  0  0
   57.1770   33.1060   44.1410 H   0  0  0  0  0  0  0  0  0  0  0  0
   57.1341   35.3103   44.9923 H   0  0  0  0  0  0  0  0  0  0  0  0
   60.9737   31.0191   45.9472 H   0  0  0  0  0  0  0  0  0  0  0  0
   59.1885   33.0965   48.5007 H   0  0  0  0  0  0  0  0  0  0  0  0
   57.9469   32.3229   50.5000 H   0  0  0  0  0  0  0  0  0  0  0  0
   57.9888   29.9169   51.1243 H   0  0  0  0  0  0  0  0  0  0  0  0
   59.2817   28.3577   49.7171 H   0  0  0  0  0  0  0  0  0  0  0  0
   60.3434   27.3138   48.9070 H   0  0  0  0  0  0  0  0  0  0  0  0
   59.4209   27.2634   47.3665 H   0  0  0  0  0  0  0  0  0  0  0  0
   61.1876   26.9385   47.3665 H   0  0  0  0  0  0  0  0  0  0  0  0
   62.9838   30.6120   47.6417 H   0  0  0  0  0  0  0  0  0  0  0  0
   64.6813   31.5792   49.1740 H   0  0  0  0  0  0  0  0  0  0  0  0
   64.4244   33.9325   49.8895 H   0  0  0  0  0  0  0  0  0  0  0  0
   62.5473   35.2510   49.0928 H   0  0  0  0  0  0  0  0  0  0  0  0
   56.3383   31.1833   44.1166 H   0  0  0  0  0  0  0  0  0  0  0  0
   54.8766   29.2886   44.6327 H   0  0  0  0  0  0  0  0  0  0  0  0
  1  2  1  0
  2  3  1  0
  3  4  2  0
  4  5  1  0
  5  6  2  0
  6  7  1  0
  7  8  2  0
  8  9  1  0
  9 10  1  0
 10 11  2  0
 11 12  1  0
 12 13  2  0
 13 14  1  0
 14 15  1  0
 15 16  2  0
 16 17  1  0
 17 18  2  0
 18 19  1  0
 19 20  2  0
 20 21  1  0
 21 22  1  0
 14 23  1  0
 23 24  2  0
 24 25  1  0
 25 26  2  0
 26 27  1  0
 27 28  2  0
 28 29  1  0
  6 30  1  0
 30 31  2  0
 31  3  1  0
 13  8  1  0
 20 15  1  0
 28 23  1  0
 29 12  1  0
  1 32  1  0
  1 33  1  0
  1 34  1  0
  4 35  1  0
  5 36  1  0
  9 37  1  0
 10 38  1  0
 14 39  1  6
 16 40  1  0
 17 41  1  0
 18 42  1  0
 19 43  1  0
 22 44  1  0
 22 45  1  0
 22 46  1  0
 24 47  1  0
 25 48  1  0
 26 49  1  0
 27 50  1  0
 30 51  1  0
 31 52  1  0
M  END
>  <smiles>  (38) 
COc1ccc(N=c2[nH]cnc3c2C(c2ccccc2OC)c2ccccc2O3)cc1

>  <score_type>  (38) 
oracle

>  <origin>  (38) 
adg

>  <m_score__min__energy>  (38) 
-8.3800000000000008

>  <m_primary>  (38) 
energy

$$$$
38:0
     RDKit          3D

 50 52  0  0  0  0  0  0  0  0999 V2000
   65.2090   32.4960   49.9360 C   0  0  0  0  0  0  0  0  0  0  0  0
   64.4300   33.6450   49.6160 O   0  0  0  0  0  0  0  0  0  0  0  0
   63.2750   33.6200   48.8210 C   0  0  0  0  0  0  0  0  0  0  0  0
   63.2860   33.1700   47.4860 C   0  0  0  0  0  0  0  0  0  0  0  0
   62.1100   33.1770   46.7310 C   0  0  0  0  0  0  0  0  0  0  0  0
   60.9050   33.6260   47.2970 C   0  0  0  0  0  0  0  0  0  0  0  0
   59.6350   33.5930   46.4900 C   0  0  0  0  0  0  0  0  0  0  0  0
   58.9980   32.2390   46.5780 C   0  0  0  0  0  0  0  0  0  0  0  0
   57.9530   32.0890   47.2660 O   0  0  0  0  0  0  0  0  0  0  0  0
   59.6050   31.1170   45.9160 N   0  0  0  0  0  0  0  0  0  0  0  0
   58.9360   29.8700   45.6610 C   0  0  0  0  0  0  0  0  0  0  0  0
   58.0120   29.7320   44.6110 C   0  0  0  0  0  0  0  0  0  0  0  0
   57.3940   28.5020   44.3730 C   0  0  0  0  0  0  0  0  0  0  0  0
   57.7040   27.3860   45.1600 C   0  0  0  0  0  0  0  0  0  0  0  0
   57.0620   26.1300   44.8900 N   0  0  0  0  0  0  0  0  0  0  0  0
   57.4190   25.3950   43.6710 C   0  0  0  0  0  0  0  0  0  0  0  0
   56.5530   24.1400   43.4930 C   0  0  0  0  0  0  0  0  0  0  0  0
   56.4620   23.3890   44.7550 N   0  0  0  0  0  0  0  0  0  0  0  0
   56.4110   21.9500   44.7440 C   0  0  0  0  0  0  0  0  0  0  0  0
   56.2950   21.2360   43.5130 N   0  0  0  0  0  0  0  0  0  0  0  0
   56.4600   21.3060   45.8270 O   0  0  0  0  0  0  0  0  0  0  0  0
   56.2930   24.1010   46.0330 C   0  0  0  0  0  0  0  0  0  0  0  0
   56.0640   25.5990   45.8220 C   0  0  0  0  0  0  0  0  0  0  0  0
   58.6450   27.5120   46.1980 C   0  0  0  0  0  0  0  0  0  0  0  0
   59.0470   26.1520   47.2380 Cl  0  0  0  0  0  0  0  0  0  0  0  0
   59.2610   28.7470   46.4360 C   0  0  0  0  0  0  0  0  0  0  0  0
   60.8920   34.0600   48.6320 C   0  0  0  0  0  0  0  0  0  0  0  0
   62.0710   34.0620   49.3830 C   0  0  0  0  0  0  0  0  0  0  0  0
   65.2788   32.3931   51.0290 H   0  0  0  0  0  0  0  0  0  0  0  0
   64.7315   31.5998   49.5131 H   0  0  0  0  0  0  0  0  0  0  0  0
   66.2183   32.6079   49.5131 H   0  0  0  0  0  0  0  0  0  0  0  0
   64.2238   32.8118   47.0362 H   0  0  0  0  0  0  0  0  0  0  0  0
   62.1279   32.8290   45.6877 H   0  0  0  0  0  0  0  0  0  0  0  0
   58.9372   34.3484   46.8804 H   0  0  0  0  0  0  0  0  0  0  0  0
   59.8737   33.8086   45.4381 H   0  0  0  0  0  0  0  0  0  0  0  0
   60.6130   31.1990   45.6490 H   0  0  0  0  0  0  0  0  0  0  0  0
   57.7744   30.5965   43.9737 H   0  0  0  0  0  0  0  0  0  0  0  0
   56.6579   28.4094   43.5608 H   0  0  0  0  0  0  0  0  0  0  0  0
   57.2753   26.0539   42.8020 H   0  0  0  0  0  0  0  0  0  0  0  0
   58.4692   25.0789   43.7553 H   0  0  0  0  0  0  0  0  0  0  0  0
   55.5428   24.4399   43.1774 H   0  0  0  0  0  0  0  0  0  0  0  0
   57.0151   23.4961   42.7302 H   0  0  0  0  0  0  0  0  0  0  0  0
   56.8680   20.3830   43.3320 H   0  0  0  0  0  0  0  0  0  0  0  0
   55.4266   23.6795   46.5637 H   0  0  0  0  0  0  0  0  0  0  0  0
   57.2150   23.9750   46.6195 H   0  0  0  0  0  0  0  0  0  0  0  0
   55.0573   25.7593   45.4086 H   0  0  0  0  0  0  0  0  0  0  0  0
   56.1571   26.1189   46.7869 H   0  0  0  0  0  0  0  0  0  0  0  0
   60.0074   28.8373   47.2390 H   0  0  0  0  0  0  0  0  0  0  0  0
   59.9507   34.3997   49.0887 H   0  0  0  0  0  0  0  0  0  0  0  0
   62.0528   34.4140   50.4250 H   0  0  0  0  0  0  0  0  0  0  0  0
  1  2  1  0
  2  3  1  0
  3  4  2  0
  4  5  1  0
  5  6  2  0
  6  7  1  0
  7  8  1  0
  8  9  2  0
  8 10  1  0
 10 11  1  0
 11 12  2  0
 12 13  1  0
 13 14  2  0
 14 15  1  0
 15 16  1  0
 16 17  1  0
 17 18  1  0
 18 19  1  0
 19 20  1  0
 19 21  2  0
 18 22  1  0
 22 23  1  0
 14 24  1  0
 24 25  1  0
 24 26  2  0
  6 27  1  0
 27 28  2  0
 28  3  1  0
 26 11  1  0
 23 15  1  0
  1 29  1  0
  1 30  1  0
  1 31  1  0
  4 32  1  0
  5 33  1  0
  7 34  1  0
  7 35  1  0
 10 36  1  0
 12 37  1  0
 13 38  1  0
 16 39  1  0
 16 40  1  0
 17 41  1  0
 17 42  1  0
 20 43  1  0
 22 44  1  0
 22 45  1  0
 23 46  1  0
 23 47  1  0
 26 48  1  0
 27 49  1  0
 28 50  1  0
M  CHG  1  20  -1
M  END
>  <UniqueID>  (39) 
33

>  <SMILES>  (39) 
COc1ccc(CC(=O)Nc2ccc(N3CCN(C([NH-])=O)CC3)c(Cl)c2)cc1

>  <Energy>  (39) 
56.74991397288611

>  <Genealogy>  (39) 
COc1ccc(CC(=O)Nc2ccc(N3CCN(C([NH-])=O)CC3)c(Cl)c2)cc1 (protonated)
COc1ccc(CC(=O)Nc2ccc(N3CCN(C([NH-])=O)CC3)c(Cl)c2)cc1 (3D coordinates assigned)
COc1ccc(CC(=O)Nc2ccc(N3CCN(C([NH-])=O)CC3)c(Cl)c2)cc1 (nonaromatic ring conformer: 56.74991397288611 kcal/mol)

>  <smiles>  (39) 
COc1ccc(CC(=O)Nc2ccc(N3CCN(C(N)=O)CC3)c(Cl)c2)cc1

>  <score_type>  (39) 
oracle

>  <origin>  (39) 
adg

>  <m_score__min__energy>  (39) 
-8.9600000000000009

>  <m_primary>  (39) 
energy

$$$$
39:0
     RDKit          3D

 50 52  0  0  1  0  0  0  0  0999 V2000
   57.9830   24.9230   47.1890 N   0  0  0  0  0  0  0  0  0  0  0  0
   58.0510   26.3120   46.8940 C   0  0  0  0  0  0  0  0  0  0  0  0
   59.1080   26.9860   47.3720 N   0  0  0  0  0  0  0  0  0  0  0  0
   57.1940   28.2580   45.9030 C   0  0  0  0  0  0  0  0  0  0  0  0
   56.3680   28.9410   45.2360 N   0  0  0  0  0  0  0  0  0  0  0  0
   60.1690   29.5360   48.8820 C   0  0  0  0  0  0  0  0  0  0  0  0
   59.7600   30.9760   48.6550 C   0  0  0  0  0  0  0  0  0  0  0  0
   60.9530   31.8310   48.4300 C   0  0  0  0  0  0  0  0  0  0  0  0
   61.7940   31.6700   47.3410 C   0  0  0  0  0  0  0  0  0  0  0  0
   62.9070   32.5000   47.1640 C   0  0  0  0  0  0  0  0  0  0  0  0
   63.1940   33.5030   48.0780 C   0  0  0  0  0  0  0  0  0  0  0  0
   62.3420   33.6480   49.1610 C   0  0  0  0  0  0  0  0  0  0  0  0
   61.2350   32.8330   49.3470 C   0  0  0  0  0  0  0  0  0  0  0  0
   58.2730   28.8970   46.4020 N   0  0  0  0  0  0  0  0  0  0  0  0
   59.2280   28.2970   47.1270 C   0  0  0  0  0  0  0  0  0  0  0  0
   60.2600   28.8990   47.6090 N   0  0  0  0  0  0  0  0  0  0  0  0
   56.7060   30.0630   44.4850 C   0  0  0  0  0  0  0  0  0  0  0  0
   56.6210   30.2060   43.2470 O   0  0  0  0  0  0  0  0  0  0  0  0
   57.2120   31.1780   45.1900 O   0  0  0  0  0  0  0  0  0  0  0  0
   58.2460   31.9000   44.5860 C   0  0  0  0  0  0  0  0  0  0  0  0
   58.6380   33.0940   45.4140 C   0  0  0  0  0  0  0  0  0  0  0  0
   58.4120   33.1380   46.7740 C   0  0  0  0  0  0  0  0  0  0  0  0
   58.8070   34.2790   47.4440 C   0  0  0  0  0  0  0  0  0  0  0  0
   59.4050   35.3520   46.8150 C   0  0  0  0  0  0  0  0  0  0  0  0
   59.6270   35.3000   45.4550 C   0  0  0  0  0  0  0  0  0  0  0  0
   59.2360   34.1690   44.7900 C   0  0  0  0  0  0  0  0  0  0  0  0
   57.0490   26.9310   46.1350 C   0  0  0  0  0  0  0  0  0  0  0  0
   56.0060   26.0940   45.7020 N   0  0  0  0  0  0  0  0  0  0  0  0
   54.8090   26.1970   45.9880 O   0  0  0  0  0  0  0  0  0  0  0  0
   56.3580   25.0140   44.9060 O   0  0  0  0  0  0  0  0  0  0  0  0
   58.1870   24.5320   48.1510 H   0  0  0  0  0  0  0  0  0  0  0  0
   57.7190   24.2740   46.4080 H   0  0  0  0  0  0  0  0  0  0  0  0
   59.8330   26.4940   47.9310 H   0  0  0  0  0  0  0  0  0  0  0  0
   59.4158   29.0270   49.5014 H   0  0  0  0  0  0  0  0  0  0  0  0
   61.1369   29.4906   49.4027 H   0  0  0  0  0  0  0  0  0  0  0  0
   59.1050   31.0306   47.7730 H   0  0  0  0  0  0  0  0  0  0  0  0
   59.2288   31.3378   49.5477 H   0  0  0  0  0  0  0  0  0  0  0  0
   61.5843   30.8793   46.6056 H   0  0  0  0  0  0  0  0  0  0  0  0
   63.5607   32.3554   46.2912 H   0  0  0  0  0  0  0  0  0  0  0  0
   64.0667   34.1598   47.9478 H   0  0  0  0  0  0  0  0  0  0  0  0
   62.5506   34.4367   49.8988 H   0  0  0  0  0  0  0  0  0  0  0  0
   60.5821   32.9810   50.2198 H   0  0  0  0  0  0  0  0  0  0  0  0
   58.3930   29.9180   46.2270 H   0  0  0  0  0  0  0  0  0  0  0  0
   59.1204   31.2430   44.4688 H   0  0  0  0  0  0  0  0  0  0  0  0
   57.8930   32.2578   43.6076 H   0  0  0  0  0  0  0  0  0  0  0  0
   57.9367   32.2988   47.3030 H   0  0  0  0  0  0  0  0  0  0  0  0
   58.6371   34.3353   48.5293 H   0  0  0  0  0  0  0  0  0  0  0  0
   59.7016   36.2398   47.3927 H   0  0  0  0  0  0  0  0  0  0  0  0
   60.1016   36.1378   44.9232 H   0  0  0  0  0  0  0  0  0  0  0  0
   59.4071   34.1149   43.7047 H   0  0  0  0  0  0  0  0  0  0  0  0
  1  2  1  0
  2  3  1  0
  3  4  1  0
  4  5  2  0
  5  6  1  0
  6  7  1  0
  7  8  1  0
  8  9  2  0
  9 10  1  0
 10 11  2  0
 11 12  1  0
 12 13  2  0
  4 14  1  0
 14 15  1  0
 15 16  2  0
 16 17  1  0
 17 18  2  0
 17 19  1  0
 19 20  1  0
 20 21  1  0
 21 22  2  0
 22 23  1  0
 23 24  2  0
 24 25  1  0
 25 26  2  0
 15 27  1  0
 27 28  1  0
 28 29  2  0
 28 30  1  0
 27  2  2  0
 13  8  1  0
 26 21  1  0
  1 31  1  0
  1 32  1  0
  3 33  1  0
  6 34  1  0
  6 35  1  0
  7 36  1  0
  7 37  1  0
  9 38  1  0
 10 39  1  0
 11 40  1  0
 12 41  1  0
 13 42  1  0
 14 43  1  0
 20 44  1  0
 20 45  1  0
 22 46  1  0
 23 47  1  0
 24 48  1  0
 25 49  1  0
 26 50  1  0
M  CHG  2  28   1  30  -1
M  END
>  <smiles>  (40) 
Nc1[nH]c(=NCCc2ccccc2)[nH]c(=NC(=O)OCc2ccccc2)c1[N+](=O)[O-]

>  <score_type>  (40) 
oracle

>  <origin>  (40) 
adg

>  <m_score__min__energy>  (40) 
-8.4499999999999993

>  <m_primary>  (40) 
energy

$$$$
40:0
     RDKit          3D

 58 61  0  0  0  0  0  0  0  0999 V2000
   55.5150   29.2920   45.2240 N   0  0  0  0  0  0  0  0  0  0  0  0
   56.6240   29.7700   43.9910 S   0  0  0  0  0  0  0  0  0  0  0  0
   55.8670   30.1340   42.7430 O   0  0  0  0  0  0  0  0  0  0  0  0
   57.5460   28.6250   43.6790 O   0  0  0  0  0  0  0  0  0  0  0  0
   57.5520   31.1610   44.5470 C   0  0  0  0  0  0  0  0  0  0  0  0
   57.5540   32.3540   43.8140 C   0  0  0  0  0  0  0  0  0  0  0  0
   58.3090   33.4430   44.2540 C   0  0  0  0  0  0  0  0  0  0  0  0
   59.0630   33.3490   45.4270 C   0  0  0  0  0  0  0  0  0  0  0  0
   59.0660   32.1620   46.1760 C   0  0  0  0  0  0  0  0  0  0  0  0
   59.8440   32.0920   47.3840 N   0  0  0  0  0  0  0  0  0  0  0  0
   60.7800   30.7020   47.8390 S   0  0  0  0  0  0  0  0  0  0  0  0
   62.2020   30.8810   47.3780 O   0  0  0  0  0  0  0  0  0  0  0  0
   60.7760   30.5680   49.3360 O   0  0  0  0  0  0  0  0  0  0  0  0
   60.0670   29.2510   47.1390 C   0  0  0  0  0  0  0  0  0  0  0  0
   60.3870   28.8920   45.8260 C   0  0  0  0  0  0  0  0  0  0  0  0
   59.8530   27.7300   45.2650 C   0  0  0  0  0  0  0  0  0  0  0  0
   58.9970   26.9010   46.0160 C   0  0  0  0  0  0  0  0  0  0  0  0
   58.4240   25.6680   45.4130 C   0  0  0  0  0  0  0  0  0  0  0  0
   58.8520   24.3970   45.8390 C   0  0  0  0  0  0  0  0  0  0  0  0
   58.3480   23.2410   45.2380 C   0  0  0  0  0  0  0  0  0  0  0  0
   57.3990   23.3310   44.2170 C   0  0  0  0  0  0  0  0  0  0  0  0
   56.8360   21.8680   43.4130 S   0  0  0  0  0  0  0  0  0  0  0  0
   58.0020   21.0700   42.9050 O   0  0  0  0  0  0  0  0  0  0  0  0
   55.9680   22.2450   42.2490 O   0  0  0  0  0  0  0  0  0  0  0  0
   55.9090   20.9210   44.5390 N   0  0  0  0  0  0  0  0  0  0  0  0
   55.6550   21.6790   45.7680 C   0  0  0  0  0  0  0  0  0  0  0  0
   54.3000   22.3250   45.6810 C   0  0  0  0  0  0  0  0  0  0  0  0
   54.1100   23.5040   44.9400 C   0  0  0  0  0  0  0  0  0  0  0  0
   52.8430   24.0940   44.8700 C   0  0  0  0  0  0  0  0  0  0  0  0
   51.7640   23.5200   45.5490 C   0  0  0  0  0  0  0  0  0  0  0  0
   51.9460   22.3530   46.2970 C   0  0  0  0  0  0  0  0  0  0  0  0
   53.2080   21.7540   46.3630 C   0  0  0  0  0  0  0  0  0  0  0  0
   56.9540   24.5900   43.8010 C   0  0  0  0  0  0  0  0  0  0  0  0
   57.4620   25.7510   44.3920 C   0  0  0  0  0  0  0  0  0  0  0  0
   58.6840   27.2640   47.3380 C   0  0  0  0  0  0  0  0  0  0  0  0
   59.2100   28.4350   47.8930 C   0  0  0  0  0  0  0  0  0  0  0  0
   58.3190   31.0630   45.7150 C   0  0  0  0  0  0  0  0  0  0  0  0
   54.5510   29.3510   44.8120 H   0  0  0  0  0  0  0  0  0  0  0  0
   56.9606   32.4333   42.8912 H   0  0  0  0  0  0  0  0  0  0  0  0
   58.3104   34.3784   43.6752 H   0  0  0  0  0  0  0  0  0  0  0  0
   59.6576   34.2104   45.7652 H   0  0  0  0  0  0  0  0  0  0  0  0
   59.7400   32.8450   48.0960 H   0  0  0  0  0  0  0  0  0  0  0  0
   61.0616   29.5270   45.2330 H   0  0  0  0  0  0  0  0  0  0  0  0
   60.1029   27.4599   44.2283 H   0  0  0  0  0  0  0  0  0  0  0  0
   59.5889   24.3131   46.6513 H   0  0  0  0  0  0  0  0  0  0  0  0
   58.7007   22.2537   45.5709 H   0  0  0  0  0  0  0  0  0  0  0  0
   55.6832   20.9987   46.6320 H   0  0  0  0  0  0  0  0  0  0  0  0
   56.4261   22.4540   45.8895 H   0  0  0  0  0  0  0  0  0  0  0  0
   54.9593   23.9641   44.4138 H   0  0  0  0  0  0  0  0  0  0  0  0
   52.6958   25.0106   44.2800 H   0  0  0  0  0  0  0  0  0  0  0  0
   50.7698   23.9876   45.4946 H   0  0  0  0  0  0  0  0  0  0  0  0
   51.0963   21.9058   46.8338 H   0  0  0  0  0  0  0  0  0  0  0  0
   53.3482   20.8340   46.9494 H   0  0  0  0  0  0  0  0  0  0  0  0
   56.1998   24.6673   43.0040 H   0  0  0  0  0  0  0  0  0  0  0  0
   57.1062   26.7359   44.0554 H   0  0  0  0  0  0  0  0  0  0  0  0
   58.0218   26.6234   47.9389 H   0  0  0  0  0  0  0  0  0  0  0  0
   58.9510   28.7173   48.9241 H   0  0  0  0  0  0  0  0  0  0  0  0
   58.3373   30.1176   46.2770 H   0  0  0  0  0  0  0  0  0  0  0  0
  1  2  1  0
  2  3  2  0
  2  4  2  0
  2  5  1  0
  5  6  2  0
  6  7  1  0
  7  8  2  0
  8  9  1  0
  9 10  1  0
 10 11  1  0
 11 12  2  0
 11 13  2  0
 11 14  1  0
 14 15  2  0
 15 16  1  0
 16 17  2  0
 17 18  1  0
 18 19  2  0
 19 20  1  0
 20 21  2  0
 21 22  1  0
 22 23  2  0
 22 24  2  0
 22 25  1  0
 25 26  1  0
 26 27  1  0
 27 28  2  0
 28 29  1  0
 29 30  2  0
 30 31  1  0
 31 32  2  0
 21 33  1  0
 33 34  2  0
 17 35  1  0
 35 36  2  0
  9 37  2  0
 37  5  1  0
 36 14  1  0
 34 18  1  0
 32 27  1  0
  1 38  1  0
  6 39  1  0
  7 40  1  0
  8 41  1  0
 10 42  1  0
 15 43  1  0
 16 44  1  0
 19 45  1  0
 20 46  1  0
 26 47  1  0
 26 48  1  0
 28 49  1  0
 29 50  1  0
 30 51  1  0
 31 52  1  0
 32 53  1  0
 33 54  1  0
 34 55  1  0
 35 56  1  0
 36 57  1  0
 37 58  1  0
M  CHG  2   1  -1  25  -1
M  END
>  <UniqueID>  (41) 
34

>  <SMILES>  (41) 
[NH-]S(=O)(=O)c1cccc(NS(=O)(=O)c2ccc(-c3ccc(S(=O)(=O)[N-]Cc4ccccc4)cc3)cc2)c1

>  <Energy>  (41) 
68.60760947589347

>  <Genealogy>  (41) 
[NH-]S(=O)(=O)c1cccc(NS(=O)(=O)c2ccc(-c3ccc(S(=O)(=O)[N-]Cc4ccccc4)cc3)cc2)c1 (protonated)
[NH-]S(=O)(=O)c1cccc(NS(=O)(=O)c2ccc(-c3ccc(S(=O)(=O)[N-]Cc4ccccc4)cc3)cc2)c1 (3D coordinates assigned)
[NH-]S(=O)(=O)c1cccc(NS(=O)(=O)c2ccc(-c3ccc(S(=O)(=O)[N-]Cc4ccccc4)cc3)cc2)c1 (optimized conformer: 68.60760947589347 kcal/mol)

>  <smiles>  (41) 
NS(=O)(=O)c1cccc(NS(=O)(=O)c2ccc(-c3ccc(S(=O)(=O)NCc4ccccc4)cc3)cc2)c1

>  <score_type>  (41) 
oracle

>  <origin>  (41) 
adg

>  <m_score__min__energy>  (41) 
-13.99

>  <m_primary>  (41) 
energy

$$$$
41:0
     RDKit          3D

 30 31  0  0  0  0  0  0  0  0999 V2000
   58.1990   24.1250   46.6730 N   0  0  0  0  0  0  0  0  0  0  0  0
   58.3110   25.3590   46.2880 C   0  0  0  0  0  0  0  0  0  0  0  0
   59.5570   25.8580   46.0670 N   0  0  0  0  0  0  0  0  0  0  0  0
   59.7670   27.1490   45.7070 C   0  0  0  0  0  0  0  0  0  0  0  0
   58.6890   28.0190   45.5640 C   0  0  0  0  0  0  0  0  0  0  0  0
   57.3900   27.5530   45.7940 C   0  0  0  0  0  0  0  0  0  0  0  0
   56.2690   28.4260   45.6060 N   0  0  0  0  0  0  0  0  0  0  0  0
   56.0710   29.2810   44.4710 C   0  0  0  0  0  0  0  0  0  0  0  0
   54.8950   29.5650   44.1240 O   0  0  0  0  0  0  0  0  0  0  0  0
   57.2270   29.9100   43.7370 C   0  0  0  0  0  0  0  0  0  0  0  0
   57.6430   31.2000   44.3960 C   0  0  0  0  0  0  0  0  0  0  0  0
   57.8200   32.3610   43.6230 C   0  0  0  0  0  0  0  0  0  0  0  0
   58.1690   33.5680   44.2360 C   0  0  0  0  0  0  0  0  0  0  0  0
   58.3440   33.6260   45.6200 C   0  0  0  0  0  0  0  0  0  0  0  0
   58.1760   32.4760   46.3960 C   0  0  0  0  0  0  0  0  0  0  0  0
   57.8310   31.2650   45.7870 C   0  0  0  0  0  0  0  0  0  0  0  0
   57.1820   26.2010   46.1320 C   0  0  0  0  0  0  0  0  0  0  0  0
   55.8490   25.7030   46.3230 N   0  0  0  0  0  0  0  0  0  0  0  0
   55.6300   24.7790   47.1340 O   0  0  0  0  0  0  0  0  0  0  0  0
   54.7840   26.3360   45.7250 O   0  0  0  0  0  0  0  0  0  0  0  0
   57.3420   23.7210   47.1090 H   0  0  0  0  0  0  0  0  0  0  0  0
   60.7907   27.5093   45.5277 H   0  0  0  0  0  0  0  0  0  0  0  0
   58.8578   29.0660   45.2720 H   0  0  0  0  0  0  0  0  0  0  0  0
   58.0780   29.2130   43.7401 H   0  0  0  0  0  0  0  0  0  0  0  0
   56.9127   30.1271   42.7055 H   0  0  0  0  0  0  0  0  0  0  0  0
   57.6834   32.3195   42.5323 H   0  0  0  0  0  0  0  0  0  0  0  0
   58.3060   34.4736   43.6269 H   0  0  0  0  0  0  0  0  0  0  0  0
   58.6144   34.5780   46.1001 H   0  0  0  0  0  0  0  0  0  0  0  0
   58.3151   32.5232   47.4861 H   0  0  0  0  0  0  0  0  0  0  0  0
   57.7064   30.3598   46.3995 H   0  0  0  0  0  0  0  0  0  0  0  0
  1  2  2  3
  2  3  1  0
  3  4  1  0
  4  5  2  0
  5  6  1  0
  6  7  1  0
  7  8  1  0
  8  9  2  0
  8 10  1  0
 10 11  1  0
 11 12  2  0
 12 13  1  0
 13 14  2  0
 14 15  1  0
 15 16  2  0
  6 17  2  0
 17 18  1  0
 18 19  2  0
 18 20  1  0
 17  2  1  0
 16 11  1  0
  1 21  1  0
  4 22  1  0
  5 23  1  0
 10 24  1  0
 10 25  1  0
 12 26  1  0
 13 27  1  0
 14 28  1  0
 15 29  1  0
 16 30  1  0
M  CHG  4   3  -1   7  -1  18   1  20  -1
M  END
>  <UniqueID>  (42) 
35

>  <SMILES>  (42) 
N=c1[n-]ccc([N-]C(=O)Cc2ccccc2)c1[N+](=O)[O-]

>  <Energy>  (42) 
41.890349299283926

>  <Genealogy>  (42) 
N=c1[n-]ccc([N-]C(=O)Cc2ccccc2)c1[N+](=O)[O-] (protonated)
N=c1[n-]ccc([N-]C(=O)Cc2ccccc2)c1[N+](=O)[O-] (3D coordinates assigned)
N=c1[n-]ccc([N-]C(=O)Cc2ccccc2)c1[N+](=O)[O-] (optimized conformer: 41.890349299283926 kcal/mol)

>  <smiles>  (42) 
N=c1[nH]ccc(NC(=O)Cc2ccccc2)c1[N+](=O)[O-]

>  <score_type>  (42) 
oracle

>  <origin>  (42) 
adg

>  <m_score__min__energy>  (42) 
-11.02

>  <m_primary>  (42) 
energy

$$$$
42:0
     RDKit          3D

 67 69  0  0  0  0  0  0  0  0999 V2000
   64.0560   32.7210   48.4450 C   0  0  0  0  0  0  0  0  0  0  0  0
   62.6290   32.9600   48.6570 N   0  0  0  0  0  0  0  0  0  0  0  0
   62.1880   34.2150   49.2590 C   0  0  0  0  0  0  0  0  0  0  0  0
   61.6770   32.1410   47.9670 C   0  0  0  0  0  0  0  0  0  0  0  0
   61.4530   32.3600   46.7460 O   0  0  0  0  0  0  0  0  0  0  0  0
   60.9820   30.9840   48.6450 C   0  0  1  0  0  0  0  0  0  0  0  0
   61.1120   31.0360   50.1810 C   0  0  0  0  0  0  0  0  0  0  0  0
   59.8490   31.5440   50.8290 C   0  0  0  0  0  0  0  0  0  0  0  0
   59.7230   32.9040   51.1600 C   0  0  0  0  0  0  0  0  0  0  0  0
   58.5470   33.3810   51.7480 C   0  0  0  0  0  0  0  0  0  0  0  0
   57.4870   32.5050   52.0010 C   0  0  0  0  0  0  0  0  0  0  0  0
   57.5990   31.1530   51.6640 C   0  0  0  0  0  0  0  0  0  0  0  0
   58.7740   30.6730   51.0780 C   0  0  0  0  0  0  0  0  0  0  0  0
   59.5800   30.8630   48.2350 N   0  0  0  0  0  0  0  0  0  0  0  0
   58.9530   29.7430   47.5930 C   0  0  0  0  0  0  0  0  0  0  0  0
   58.7120   28.6910   48.2420 O   0  0  0  0  0  0  0  0  0  0  0  0
   58.5610   29.8070   46.1270 C   0  0  2  0  0  0  0  0  0  0  0  0
   59.1470   28.5970   45.3780 C   0  0  0  0  0  0  0  0  0  0  0  0
   58.4060   27.3300   45.7250 C   0  0  0  0  0  0  0  0  0  0  0  0
   57.0000   27.3160   45.7480 C   0  0  0  0  0  0  0  0  0  0  0  0
   56.3120   26.1330   46.0320 C   0  0  0  0  0  0  0  0  0  0  0  0
   57.0210   24.9550   46.2850 C   0  0  0  0  0  0  0  0  0  0  0  0
   58.4180   24.9570   46.2470 C   0  0  0  0  0  0  0  0  0  0  0  0
   59.1090   26.1380   45.9650 C   0  0  0  0  0  0  0  0  0  0  0  0
   59.0280   31.0430   45.4710 N   0  0  0  0  0  0  0  0  0  0  0  0
   57.7190   31.9100   44.7150 S   0  0  0  0  0  0  0  0  0  0  0  0
   56.4520   31.1010   44.7800 O   0  0  0  0  0  0  0  0  0  0  0  0
   58.0720   32.1160   43.2670 O   0  0  0  0  0  0  0  0  0  0  0  0
   57.4520   33.4800   45.4430 N   0  0  0  0  0  0  0  0  0  0  0  0
   58.2830   34.5580   44.8740 C   0  0  0  0  0  0  0  0  0  0  0  0
   59.6440   34.7040   45.5650 C   0  0  0  0  0  0  0  0  0  0  0  0
   59.4820   34.8150   47.0790 C   0  0  0  0  0  0  0  0  0  0  0  0
   58.6990   33.6250   47.6280 C   0  0  0  0  0  0  0  0  0  0  0  0
   57.3480   33.4740   46.9170 C   0  0  0  0  0  0  0  0  0  0  0  0
   64.5621   32.6362   49.4180 H   0  0  0  0  0  0  0  0  0  0  0  0
   64.1913   31.7877   47.8788 H   0  0  0  0  0  0  0  0  0  0  0  0
   64.4880   33.5593   47.8788 H   0  0  0  0  0  0  0  0  0  0  0  0
   62.2190   34.1267   50.3550 H   0  0  0  0  0  0  0  0  0  0  0  0
   62.8537   35.0296   48.9378 H   0  0  0  0  0  0  0  0  0  0  0  0
   61.1590   34.4341   48.9378 H   0  0  0  0  0  0  0  0  0  0  0  0
   61.5035   30.0764   48.3068 H   0  0  0  0  0  0  0  0  0  0  0  0
   61.3229   30.0235   50.5557 H   0  0  0  0  0  0  0  0  0  0  0  0
   61.9297   31.7271   50.4334 H   0  0  0  0  0  0  0  0  0  0  0  0
   60.5530   33.5964   50.9557 H   0  0  0  0  0  0  0  0  0  0  0  0
   58.4561   34.4451   52.0114 H   0  0  0  0  0  0  0  0  0  0  0  0
   56.5635   32.8803   52.4660 H   0  0  0  0  0  0  0  0  0  0  0  0
   56.7622   30.4664   51.8600 H   0  0  0  0  0  0  0  0  0  0  0  0
   58.8577   29.6093   50.8106 H   0  0  0  0  0  0  0  0  0  0  0  0
   57.4617   29.7961   46.0881 H   0  0  0  0  0  0  0  0  0  0  0  0
   59.0690   28.7732   44.2950 H   0  0  0  0  0  0  0  0  0  0  0  0
   60.1990   28.4784   45.6767 H   0  0  0  0  0  0  0  0  0  0  0  0
   56.4395   28.2397   45.5417 H   0  0  0  0  0  0  0  0  0  0  0  0
   55.2123   26.1289   46.0565 H   0  0  0  0  0  0  0  0  0  0  0  0
   56.4788   24.0257   46.5142 H   0  0  0  0  0  0  0  0  0  0  0  0
   58.9741   24.0276   46.4393 H   0  0  0  0  0  0  0  0  0  0  0  0
   60.2085   26.1343   45.9308 H   0  0  0  0  0  0  0  0  0  0  0  0
   59.5340   31.6510   46.1470 H   0  0  0  0  0  0  0  0  0  0  0  0
   58.4536   34.3421   43.8090 H   0  0  0  0  0  0  0  0  0  0  0  0
   57.7388   35.5022   45.0237 H   0  0  0  0  0  0  0  0  0  0  0  0
   60.2610   33.8233   45.3332 H   0  0  0  0  0  0  0  0  0  0  0  0
   60.1264   35.6215   45.1968 H   0  0  0  0  0  0  0  0  0  0  0  0
   60.4769   34.8394   47.5475 H   0  0  0  0  0  0  0  0  0  0  0  0
   58.9287   35.7377   47.3082 H   0  0  0  0  0  0  0  0  0  0  0  0
   59.2878   32.7081   47.4780 H   0  0  0  0  0  0  0  0  0  0  0  0
   58.5120   33.7952   48.6986 H   0  0  0  0  0  0  0  0  0  0  0  0
   56.8947   32.5218   47.2299 H   0  0  0  0  0  0  0  0  0  0  0  0
   56.7349   34.3421   47.2009 H   0  0  0  0  0  0  0  0  0  0  0  0
  1  2  1  0
  2  3  1  0
  2  4  1  0
  4  5  2  0
  4  6  1  0
  6  7  1  0
  7  8  1  0
  8  9  2  0
  9 10  1  0
 10 11  2  0
 11 12  1  0
 12 13  2  0
  6 14  1  0
 14 15  1  0
 15 16  2  0
 15 17  1  0
 17 18  1  0
 18 19  1  0
 19 20  2  0
 20 21  1  0
 21 22  2  0
 22 23  1  0
 23 24  2  0
 17 25  1  0
 25 26  1  0
 26 27  2  0
 26 28  2  0
 26 29  1  0
 29 30  1  0
 30 31  1  0
 31 32  1  0
 32 33  1  0
 33 34  1  0
 13  8  1  0
 24 19  1  0
 34 29  1  0
  1 35  1  0
  1 36  1  0
  1 37  1  0
  3 38  1  0
  3 39  1  0
  3 40  1  0
  6 41  1  6
  7 42  1  0
  7 43  1  0
  9 44  1  0
 10 45  1  0
 11 46  1  0
 12 47  1  0
 13 48  1  0
 17 49  1  1
 18 50  1  0
 18 51  1  0
 20 52  1  0
 21 53  1  0
 22 54  1  0
 23 55  1  0
 24 56  1  0
 25 57  1  0
 30 58  1  0
 30 59  1  0
 31 60  1  0
 31 61  1  0
 32 62  1  0
 32 63  1  0
 33 64  1  0
 33 65  1  0
 34 66  1  0
 34 67  1  0
M  CHG  1  14  -1
M  END
>  <UniqueID>  (43) 
36

>  <SMILES>  (43) 
CN(C)C(=O)[C@@H](Cc1ccccc1)[N-]C(=O)[C@H](Cc1ccccc1)NS(=O)(=O)N1CCCCC1

>  <Energy>  (43) 
67.09535596337376

>  <Genealogy>  (43) 
CN(C)C(=O)C(Cc1ccccc1)[N-]C(=O)C(Cc1ccccc1)NS(=O)(=O)N1CCCCC1 (protonated)
CN(C)C(=O)[C@@H](Cc1ccccc1)[N-]C(=O)[C@H](Cc1ccccc1)NS(=O)(=O)N1CCCCC1 (chirality)
CN(C)C(=O)[C@@H](Cc1ccccc1)[N-]C(=O)[C@H](Cc1ccccc1)NS(=O)(=O)N1CCCCC1 (3D coordinates assigned)
CN(C)C(=O)[C@@H](Cc1ccccc1)[N-]C(=O)[C@H](Cc1ccccc1)NS(=O)(=O)N1CCCCC1 (nonaromatic ring conformer: 67.09535596337376 kcal/mol)

>  <smiles>  (43) 
CN(C)C(=O)C(Cc1ccccc1)NC(=O)C(Cc1ccccc1)NS(=O)(=O)N1CCCCC1

>  <score_type>  (43) 
oracle

>  <origin>  (43) 
adg

>  <m_score__min__energy>  (43) 
-10.74

>  <m_primary>  (43) 
energy

$$$$
43:0
     RDKit          3D

 32 33  0  0  0  0  0  0  0  0999 V2000
   55.3250   28.7160   45.6400 H   0  0  0  0  0  0  0  0  0  0  0  0
   55.1410   29.3620   44.8410 N   0  0  0  0  0  0  0  0  0  0  0  0
   56.6770   29.7650   44.1560 S   0  0  0  0  0  0  0  0  0  0  0  0
   57.3130   28.5330   43.5790 O   0  0  0  0  0  0  0  0  0  0  0  0
   56.4600   30.7620   43.0520 O   0  0  0  0  0  0  0  0  0  0  0  0
   57.7340   30.4490   45.4040 C   0  0  0  0  0  0  0  0  0  0  0  0
   57.6770   31.8300   45.6550 C   0  0  0  0  0  0  0  0  0  0  0  0
   56.9996   32.4635   45.0635 H   0  0  0  0  0  0  0  0  0  0  0  0
   58.4710   32.4060   46.6470 C   0  0  0  0  0  0  0  0  0  0  0  0
   58.4145   33.4881   46.8362 H   0  0  0  0  0  0  0  0  0  0  0  0
   59.3350   31.6130   47.3980 C   0  0  0  0  0  0  0  0  0  0  0  0
   59.9594   32.0696   48.1801 H   0  0  0  0  0  0  0  0  0  0  0  0
   59.4100   30.2400   47.1600 C   0  0  0  0  0  0  0  0  0  0  0  0
   60.1015   29.6224   47.7520 H   0  0  0  0  0  0  0  0  0  0  0  0
   58.6100   29.6360   46.1700 C   0  0  0  0  0  0  0  0  0  0  0  0
   58.7290   28.1810   45.9060 C   0  0  0  0  0  0  0  0  0  0  0  0
   59.6711   27.7956   45.4890 H   0  0  0  0  0  0  0  0  0  0  0  0
   57.7350   27.3170   46.1550 C   0  0  0  0  0  0  0  0  0  0  0  0
   56.7627   27.7109   46.4857 H   0  0  0  0  0  0  0  0  0  0  0  0
   57.8950   25.8510   46.0020 C   0  0  0  0  0  0  0  0  0  0  0  0
   59.1910   25.3000   45.9240 C   0  0  0  0  0  0  0  0  0  0  0  0
   60.0673   25.9522   46.0532 H   0  0  0  0  0  0  0  0  0  0  0  0
   59.3750   23.9380   45.6850 C   0  0  0  0  0  0  0  0  0  0  0  0
   60.3918   23.5209   45.6379 H   0  0  0  0  0  0  0  0  0  0  0  0
   58.2730   23.1060   45.5060 C   0  0  0  0  0  0  0  0  0  0  0  0
   58.4210   22.0338   45.3097 H   0  0  0  0  0  0  0  0  0  0  0  0
   56.9820   23.6290   45.5750 C   0  0  0  0  0  0  0  0  0  0  0  0
   56.1182   22.9640   45.4275 H   0  0  0  0  0  0  0  0  0  0  0  0
   56.7700   24.9970   45.8310 C   0  0  0  0  0  0  0  0  0  0  0  0
   55.3730   25.4840   45.9570 C   0  0  0  0  0  0  0  0  0  0  0  0
   55.1340   26.7210   45.9880 O   0  0  0  0  0  0  0  0  0  0  0  0
   54.3050   24.5950   45.9910 O   0  0  0  0  0  0  0  0  0  0  0  0
  1  2  1  0
  2  3  1  0
  3  4  2  0
  3  5  2  0
  3  6  1  0
  6  7  2  0
  7  8  1  0
  7  9  1  0
  9 10  1  0
  9 11  2  0
 11 12  1  0
 11 13  1  0
 13 14  1  0
 13 15  2  0
 15 16  1  0
 16 17  1  0
 16 18  2  0
 18 19  1  0
 18 20  1  0
 20 21  2  0
 21 22  1  0
 21 23  1  0
 23 24  1  0
 23 25  2  0
 25 26  1  0
 25 27  1  0
 27 28  1  0
 27 29  2  0
 29 30  1  0
 30 31  2  0
 30 32  1  0
 15  6  1  0
 29 20  1  0
M  CHG  2   2  -1  32  -1
M  END
>  <UniqueID>  (44) 
37

>  <SMILES>  (44) 
[NH-]S(=O)(=O)c1ccccc1/C=C/c1ccccc1C(=O)[O-]

>  <Energy>  (44) 
45.61449936307646

>  <Genealogy>  (44) 
[NH-]S(=O)(=O)c1ccccc1C=Cc1ccccc1C(=O)[O-] (protonated)
[NH-]S(=O)(=O)c1ccccc1/C=C/c1ccccc1C(=O)[O-] (cis-trans isomerization)
[NH-]S(=O)(=O)c1ccccc1/C=C/c1ccccc1C(=O)[O-] (3D coordinates assigned)
[NH-]S(=O)(=O)c1ccccc1/C=C/c1ccccc1C(=O)[O-] (optimized conformer: 45.61449936307646 kcal/mol)

>  <smiles>  (44) 
NS(=O)(=O)c1ccccc1C=Cc1ccccc1C(=O)O

>  <score_type>  (44) 
oracle

>  <origin>  (44) 
adg

>  <m_score__min__energy>  (44) 
-13.01

>  <m_primary>  (44) 
energy

$$$$
44:0
     RDKit          3D

 54 59  0  0  0  0  0  0  0  0999 V2000
   59.1820   35.0790   51.4740 H   0  0  0  0  0  0  0  0  0  0  0  0
   59.7130   34.1990   51.3080 N   0  0  0  0  0  0  0  0  0  0  0  0
   59.2080   33.0830   50.8730 C   0  0  0  0  0  0  0  0  0  0  0  0
   58.8210   32.1000   51.8080 C   0  0  0  0  0  0  0  0  0  0  0  0
   58.3120   30.8790   51.3520 C   0  0  0  0  0  0  0  0  0  0  0  0
   58.1680   30.6500   50.0200 N   0  0  0  0  0  0  0  0  0  0  0  0
   57.7870   29.7330   49.6910 H   0  0  0  0  0  0  0  0  0  0  0  0
   58.4980   31.5850   49.0910 C   0  0  0  0  0  0  0  0  0  0  0  0
   59.0410   32.8270   49.4840 C   0  0  0  0  0  0  0  0  0  0  0  0
   59.5220   33.8030   48.4110 C   0  0  1  0  0  0  0  0  0  0  0  0
   59.1370   34.7909   48.7041 H   0  0  0  0  0  0  0  0  0  0  0  0
   61.0390   33.8090   48.3550 C   0  0  0  0  0  0  0  0  0  0  0  0
   61.7060   33.3910   47.1890 C   0  0  0  0  0  0  0  0  0  0  0  0
   61.1248   33.0740   46.3105 H   0  0  0  0  0  0  0  0  0  0  0  0
   63.1040   33.3760   47.1400 C   0  0  0  0  0  0  0  0  0  0  0  0
   63.6180   33.0543   46.2222 H   0  0  0  0  0  0  0  0  0  0  0  0
   63.8480   33.7690   48.2550 C   0  0  0  0  0  0  0  0  0  0  0  0
   64.9472   33.7602   48.2129 H   0  0  0  0  0  0  0  0  0  0  0  0
   63.1980   34.1730   49.4230 C   0  0  0  0  0  0  0  0  0  0  0  0
   63.9210   34.5470   50.5070 F   0  0  0  0  0  0  0  0  0  0  0  0
   61.8000   34.1890   49.4760 C   0  0  0  0  0  0  0  0  0  0  0  0
   61.2921   34.5008   50.4006 H   0  0  0  0  0  0  0  0  0  0  0  0
   58.9740   33.5050   47.0260 C   0  0  0  0  0  0  0  0  0  0  0  0
   58.4290   32.2480   46.7320 C   0  0  0  0  0  0  0  0  0  0  0  0
   58.0180   31.9500   45.4250 C   0  0  0  0  0  0  0  0  0  0  0  0
   58.1790   32.9410   44.4330 C   0  0  0  0  0  0  0  0  0  0  0  0
   58.6820   34.1290   44.7530 O   0  0  0  0  0  0  0  0  0  0  0  0
   59.0790   34.4420   45.9820 C   0  0  0  0  0  0  0  0  0  0  0  0
   59.5550   35.5890   46.1960 O   0  0  0  0  0  0  0  0  0  0  0  0
   57.7400   32.7160   43.0100 C   0  0  0  0  0  0  0  0  0  0  0  0
   56.7641   33.2013   42.8612 H   0  0  0  0  0  0  0  0  0  0  0  0
   58.5100   33.1443   42.3515 H   0  0  0  0  0  0  0  0  0  0  0  0
   57.6070   31.2300   42.6640 C   0  0  0  0  0  0  0  0  0  0  0  0
   57.1017   31.1271   41.6924 H   0  0  0  0  0  0  0  0  0  0  0  0
   58.6104   30.7819   42.6151 H   0  0  0  0  0  0  0  0  0  0  0  0
   56.7910   30.5090   43.7360 C   0  0  0  0  0  0  0  0  0  0  0  0
   55.8077   30.9933   43.8289 H   0  0  0  0  0  0  0  0  0  0  0  0
   56.6696   29.4561   43.4417 H   0  0  0  0  0  0  0  0  0  0  0  0
   57.5100   30.5650   45.0880 C   0  0  0  0  0  0  0  0  0  0  0  0
   56.8078   30.2476   45.8729 H   0  0  0  0  0  0  0  0  0  0  0  0
   58.3825   29.8979   45.0270 H   0  0  0  0  0  0  0  0  0  0  0  0
   58.2780   31.2970   47.7430 O   0  0  0  0  0  0  0  0  0  0  0  0
   57.9700   29.8140   52.3580 C   0  0  0  0  0  0  0  0  0  0  0  0
   57.3497   29.0456   51.8735 H   0  0  0  0  0  0  0  0  0  0  0  0
   58.9035   29.3699   52.7339 H   0  0  0  0  0  0  0  0  0  0  0  0
   57.1960   30.4140   53.5430 C   0  0  0  0  0  0  0  0  0  0  0  0
   56.1571   30.5850   53.2245 H   0  0  0  0  0  0  0  0  0  0  0  0
   57.2772   29.6925   54.3693 H   0  0  0  0  0  0  0  0  0  0  0  0
   57.7700   31.7560   54.0680 C   0  0  0  0  0  0  0  0  0  0  0  0
   56.9792   32.5175   53.9991 H   0  0  0  0  0  0  0  0  0  0  0  0
   58.1020   31.5698   55.1000 H   0  0  0  0  0  0  0  0  0  0  0  0
   59.0010   32.2720   53.3010 C   0  0  0  0  0  0  0  0  0  0  0  0
   59.1434   33.3394   53.5256 H   0  0  0  0  0  0  0  0  0  0  0  0
   59.8799   31.6911   53.6173 H   0  0  0  0  0  0  0  0  0  0  0  0
  1  2  1  0
  2  3  2  0
  3  4  1  0
  4  5  2  0
  5  6  1  0
  6  7  1  0
  6  8  1  0
  8  9  2  0
  9 10  1  0
 10 11  1  1
 10 12  1  0
 12 13  2  0
 13 14  1  0
 13 15  1  0
 15 16  1  0
 15 17  2  0
 17 18  1  0
 17 19  1  0
 19 20  1  0
 19 21  2  0
 21 22  1  0
 10 23  1  0
 23 24  2  0
 24 25  1  0
 25 26  2  0
 26 27  1  0
 27 28  1  0
 28 29  2  0
 26 30  1  0
 30 31  1  0
 30 32  1  0
 30 33  1  0
 33 34  1  0
 33 35  1  0
 33 36  1  0
 36 37  1  0
 36 38  1  0
 36 39  1  0
 39 40  1  0
 39 41  1  0
 24 42  1  0
  5 43  1  0
 43 44  1  0
 43 45  1  0
 43 46  1  0
 46 47  1  0
 46 48  1  0
 46 49  1  0
 49 50  1  0
 49 51  1  0
 49 52  1  0
 52 53  1  0
 52 54  1  0
  9  3  1  0
 21 12  1  0
 28 23  1  0
 52  4  1  0
 42  8  1  0
 39 25  1  0
M  END
>  <UniqueID>  (45) 
38

>  <SMILES>  (45) 
[H]/N=c1/c2c([nH]c3c1[C@@H](c1cccc(F)c1)c1c(c4c(oc1=O)CCCC4)O3)CCCC2

>  <Energy>  (45) 
74.50946845762151

>  <Genealogy>  (45) 
N=c1c2c([nH]c3c1[C@@H](c1cccc(F)c1)c1c(c4c(oc1=O)CCCC4)O3)CCCC2 (chirality)
[H]/N=c1/c2c([nH]c3c1[C@@H](c1cccc(F)c1)c1c(c4c(oc1=O)CCCC4)O3)CCCC2 (cis-trans isomerization)
[H]/N=c1/c2c([nH]c3c1[C@@H](c1cccc(F)c1)c1c(c4c(oc1=O)CCCC4)O3)CCCC2 (3D coordinates assigned)
[H]/N=c1/c2c([nH]c3c1[C@@H](c1cccc(F)c1)c1c(c4c(oc1=O)CCCC4)O3)CCCC2 (nonaromatic ring conformer: 74.50946845762151 kcal/mol)

>  <smiles>  (45) 
N=c1c2c([nH]c3c1C(c1cccc(F)c1)c1c(c4c(oc1=O)CCCC4)O3)CCCC2

>  <score_type>  (45) 
oracle

>  <origin>  (45) 
adg

>  <m_score__min__energy>  (45) 
-8.9900000000000002

>  <m_primary>  (45) 
energy

$$$$
45:0
     RDKit          3D

 39 41  0  0  0  0  0  0  0  0999 V2000
   65.0204   33.2862   48.7018 H   0  0  0  0  0  0  0  0  0  0  0  0
   63.9630   33.4490   48.4460 C   0  0  0  0  0  0  0  0  0  0  0  0
   63.5290   33.2830   47.1280 C   0  0  0  0  0  0  0  0  0  0  0  0
   64.2455   32.9916   46.3459 H   0  0  0  0  0  0  0  0  0  0  0  0
   62.1850   33.4870   46.8030 C   0  0  0  0  0  0  0  0  0  0  0  0
   61.8493   33.3598   45.7632 H   0  0  0  0  0  0  0  0  0  0  0  0
   61.2630   33.8520   47.7910 C   0  0  0  0  0  0  0  0  0  0  0  0
   59.9240   34.0430   47.4210 O   0  0  0  0  0  0  0  0  0  0  0  0
   59.3150   33.3950   46.3420 C   0  0  0  0  0  0  0  0  0  0  0  0
   59.0570   34.1270   45.1780 C   0  0  0  0  0  0  0  0  0  0  0  0
   59.3715   35.1791   45.1133 H   0  0  0  0  0  0  0  0  0  0  0  0
   58.4030   33.5310   44.0980 C   0  0  0  0  0  0  0  0  0  0  0  0
   58.2061   34.1154   43.1871 H   0  0  0  0  0  0  0  0  0  0  0  0
   57.9960   32.1910   44.1690 C   0  0  0  0  0  0  0  0  0  0  0  0
   57.2750   31.5710   43.0310 C   0  0  0  0  0  0  0  0  0  0  0  0
   57.3800   32.0770   41.8820 O   0  0  0  0  0  0  0  0  0  0  0  0
   56.5080   30.3670   43.1820 N   0  0  0  0  0  0  0  0  0  0  0  0
   56.8090   29.3640   43.9530 C   0  0  0  0  0  0  0  0  0  0  0  0
   56.4080   29.3010   45.2410 N   0  0  0  0  0  0  0  0  0  0  0  0
   56.8450   28.2140   45.8740 N   0  0  0  0  0  0  0  0  0  0  0  0
   57.5930   27.4030   45.0920 C   0  0  0  0  0  0  0  0  0  0  0  0
   58.2530   26.1610   45.5850 C   0  0  0  0  0  0  0  0  0  0  0  0
   58.2544   26.1584   46.6850 H   0  0  0  0  0  0  0  0  0  0  0  0
   57.7027   25.2825   45.2169 H   0  0  0  0  0  0  0  0  0  0  0  0
   59.2890   26.1254   45.2169 H   0  0  0  0  0  0  0  0  0  0  0  0
   57.7770   28.0390   43.5420 S   0  0  0  0  0  0  0  0  0  0  0  0
   58.2990   31.4420   45.3180 C   0  0  0  0  0  0  0  0  0  0  0  0
   58.0115   30.3813   45.3664 H   0  0  0  0  0  0  0  0  0  0  0  0
   58.9640   32.0300   46.4050 C   0  0  0  0  0  0  0  0  0  0  0  0
   59.3450   31.0490   47.8290 S   0  0  0  0  0  0  0  0  0  0  0  0
   58.9360   31.7890   49.0700 O   0  0  0  0  0  0  0  0  0  0  0  0
   60.8210   30.7730   47.8780 O   0  0  0  0  0  0  0  0  0  0  0  0
   58.5180   29.5300   47.7720 N   0  0  0  0  0  0  0  0  0  0  0  0
   59.2200   28.8010   47.5130 H   0  0  0  0  0  0  0  0  0  0  0  0
   57.8180   29.5800   46.9980 H   0  0  0  0  0  0  0  0  0  0  0  0
   61.7080   34.0260   49.1170 C   0  0  0  0  0  0  0  0  0  0  0  0
   60.9952   34.3230   49.9004 H   0  0  0  0  0  0  0  0  0  0  0  0
   63.0530   33.8220   49.4390 C   0  0  0  0  0  0  0  0  0  0  0  0
   63.3957   33.9553   50.4757 H   0  0  0  0  0  0  0  0  0  0  0  0
  1  2  1  0
  2  3  2  0
  3  4  1  0
  3  5  1  0
  5  6  1  0
  5  7  2  0
  7  8  1  0
  8  9  1  0
  9 10  2  0
 10 11  1  0
 10 12  1  0
 12 13  1  0
 12 14  2  0
 14 15  1  0
 15 16  2  0
 15 17  1  0
 17 18  2  0
 18 19  1  0
 19 20  1  0
 20 21  2  0
 21 22  1  0
 22 23  1  0
 22 24  1  0
 22 25  1  0
 21 26  1  0
 14 27  1  0
 27 28  1  0
 27 29  2  0
 29 30  1  0
 30 31  2  0
 30 32  2  0
 30 33  1  0
 33 34  1  0
 33 35  1  0
  7 36  1  0
 36 37  1  0
 36 38  2  0
 38 39  1  0
 38  2  1  0
 29  9  1  0
 26 18  1  0
M  CHG  1  19  -1
M  END
>  <UniqueID>  (46) 
39

>  <SMILES>  (46) 
Cc1n[n-]/c(=N/C(=O)c2ccc(Oc3ccccc3)c(S(N)(=O)=O)c2)s1

>  <Energy>  (46) 
90.08439860130142

>  <Genealogy>  (46) 
Cc1n[n-]c(=NC(=O)c2ccc(Oc3ccccc3)c(S(N)(=O)=O)c2)s1 (protonated)
Cc1n[n-]/c(=N/C(=O)c2ccc(Oc3ccccc3)c(S(N)(=O)=O)c2)s1 (cis-trans isomerization)
Cc1n[n-]/c(=N/C(=O)c2ccc(Oc3ccccc3)c(S(N)(=O)=O)c2)s1 (3D coordinates assigned)
Cc1n[n-]/c(=N/C(=O)c2ccc(Oc3ccccc3)c(S(N)(=O)=O)c2)s1 (optimized conformer: 90.08439860130142 kcal/mol)

>  <smiles>  (46) 
Cc1n[nH]c(=NC(=O)c2ccc(Oc3ccccc3)c(S(N)(=O)=O)c2)s1

>  <score_type>  (46) 
oracle

>  <origin>  (46) 
adg

>  <m_score__min__energy>  (46) 
-11.82

>  <m_primary>  (46) 
energy

$$$$
46:0
     RDKit          3D

 36 37  0  0  0  0  0  0  0  0999 V2000
   58.1010   22.1640   44.1480 C   0  0  0  0  0  0  0  0  0  0  0  0
   56.3820   22.4000   43.7610 S   0  0  0  0  0  0  0  0  0  0  0  0
   56.1420   21.9760   42.3370 O   0  0  0  0  0  0  0  0  0  0  0  0
   55.5530   21.5570   44.6890 O   0  0  0  0  0  0  0  0  0  0  0  0
   56.0090   24.0410   43.9600 O   0  0  0  0  0  0  0  0  0  0  0  0
   56.1240   24.3630   45.3250 C   0  0  0  0  0  0  0  0  0  0  0  0
   55.2020   25.4970   45.6240 C   0  0  0  0  0  0  0  0  0  0  0  0
   53.9590   25.2960   45.6570 O   0  0  0  0  0  0  0  0  0  0  0  0
   55.7530   26.7680   45.9900 N   0  0  0  0  0  0  0  0  0  0  0  0
   57.0970   27.2160   45.7530 C   0  0  0  0  0  0  0  0  0  0  0  0
   58.2070   26.5000   46.2380 C   0  0  0  0  0  0  0  0  0  0  0  0
   59.5040   26.9630   46.0010 C   0  0  0  0  0  0  0  0  0  0  0  0
   59.7050   28.1480   45.2890 C   0  0  0  0  0  0  0  0  0  0  0  0
   58.6090   28.8780   44.8240 C   0  0  0  0  0  0  0  0  0  0  0  0
   57.3060   28.4210   45.0570 C   0  0  0  0  0  0  0  0  0  0  0  0
   55.9200   29.3920   44.4480 S   0  0  0  0  0  0  0  0  0  0  0  0
   56.9320   30.8430   44.1540 C   0  0  0  0  0  0  0  0  0  0  0  0
   57.3390   31.6460   45.2270 C   0  0  0  0  0  0  0  0  0  0  0  0
   58.1330   32.7740   44.9960 C   0  0  0  0  0  0  0  0  0  0  0  0
   58.5150   33.1060   43.6910 C   0  0  0  0  0  0  0  0  0  0  0  0
   58.1030   32.3100   42.6180 C   0  0  0  0  0  0  0  0  0  0  0  0
   57.3090   31.1830   42.8470 C   0  0  0  0  0  0  0  0  0  0  0  0
   58.2319   22.1460   45.2400 H   0  0  0  0  0  0  0  0  0  0  0  0
   58.4452   21.2102   43.7217 H   0  0  0  0  0  0  0  0  0  0  0  0
   58.6895   22.9898   43.7217 H   0  0  0  0  0  0  0  0  0  0  0  0
   55.8494   23.4907   45.9363 H   0  0  0  0  0  0  0  0  0  0  0  0
   57.1603   24.6487   45.5585 H   0  0  0  0  0  0  0  0  0  0  0  0
   58.0530   25.5710   46.8066 H   0  0  0  0  0  0  0  0  0  0  0  0
   60.3676   26.3938   46.3755 H   0  0  0  0  0  0  0  0  0  0  0  0
   60.7267   28.5062   45.0946 H   0  0  0  0  0  0  0  0  0  0  0  0
   58.7700   29.8160   44.2724 H   0  0  0  0  0  0  0  0  0  0  0  0
   57.0339   31.3893   46.2522 H   0  0  0  0  0  0  0  0  0  0  0  0
   58.4573   33.4004   45.8401 H   0  0  0  0  0  0  0  0  0  0  0  0
   59.1394   33.9933   43.5096 H   0  0  0  0  0  0  0  0  0  0  0  0
   58.4041   32.5710   41.5927 H   0  0  0  0  0  0  0  0  0  0  0  0
   56.9794   30.5620   42.0010 H   0  0  0  0  0  0  0  0  0  0  0  0
  1  2  1  0
  2  3  2  0
  2  4  2  0
  2  5  1  0
  5  6  1  0
  6  7  1  0
  7  8  2  0
  7  9  1  0
  9 10  1  0
 10 11  2  0
 11 12  1  0
 12 13  2  0
 13 14  1  0
 14 15  2  0
 15 16  1  0
 16 17  1  0
 17 18  2  0
 18 19  1  0
 19 20  2  0
 20 21  1  0
 21 22  2  0
 15 10  1  0
 22 17  1  0
  1 23  1  0
  1 24  1  0
  1 25  1  0
  6 26  1  0
  6 27  1  0
 11 28  1  0
 12 29  1  0
 13 30  1  0
 14 31  1  0
 18 32  1  0
 19 33  1  0
 20 34  1  0
 21 35  1  0
 22 36  1  0
M  CHG  1   9  -1
M  END
>  <UniqueID>  (47) 
40

>  <SMILES>  (47) 
CS(=O)(=O)OCC(=O)[N-]c1ccccc1Sc1ccccc1

>  <Energy>  (47) 
30.385741595364863

>  <Genealogy>  (47) 
CS(=O)(=O)OCC(=O)[N-]c1ccccc1Sc1ccccc1 (protonated)
CS(=O)(=O)OCC(=O)[N-]c1ccccc1Sc1ccccc1 (3D coordinates assigned)
CS(=O)(=O)OCC(=O)[N-]c1ccccc1Sc1ccccc1 (optimized conformer: 30.385741595364863 kcal/mol)

>  <smiles>  (47) 
CS(=O)(=O)OCC(=O)Nc1ccccc1Sc1ccccc1

>  <score_type>  (47) 
oracle

>  <origin>  (47) 
adg

>  <m_score__min__energy>  (47) 
-10.460000000000001

>  <m_primary>  (47) 
energy

$$$$
47:0
     RDKit          3D

 41 43  0  0  0  0  0  0  0  0999 V2000
   55.9670   26.3300   46.4630 O   0  0  0  0  0  0  0  0  0  0  0  0
   56.5220   27.1210   45.6520 C   0  0  0  0  0  0  0  0  0  0  0  0
   55.8640   28.3280   45.2490 N   0  0  0  0  0  0  0  0  0  0  0  0
   56.4110   29.3640   44.4200 C   0  0  0  0  0  0  0  0  0  0  0  0
   56.0020   29.4390   43.0810 C   0  0  0  0  0  0  0  0  0  0  0  0
   56.5250   30.4210   42.2350 C   0  0  0  0  0  0  0  0  0  0  0  0
   57.4740   31.3300   42.7170 C   0  0  0  0  0  0  0  0  0  0  0  0
   58.1310   32.5610   41.6540 Cl  0  0  0  0  0  0  0  0  0  0  0  0
   57.9060   31.2460   44.0450 C   0  0  0  0  0  0  0  0  0  0  0  0
   57.3840   30.2650   44.8920 C   0  0  0  0  0  0  0  0  0  0  0  0
   57.8480   26.7980   45.0970 C   0  0  0  0  0  0  0  0  0  0  0  0
   57.9410   25.9170   44.2040 O   0  0  0  0  0  0  0  0  0  0  0  0
   59.0290   27.5090   45.4910 N   0  0  0  0  0  0  0  0  0  0  0  0
   59.3400   27.9550   46.8190 C   0  0  0  0  0  0  0  0  0  0  0  0
   60.0700   27.1520   47.7110 C   0  0  0  0  0  0  0  0  0  0  0  0
   60.3910   27.6300   48.9840 C   0  0  0  0  0  0  0  0  0  0  0  0
   59.9870   28.9090   49.3750 C   0  0  0  0  0  0  0  0  0  0  0  0
   59.2570   29.7180   48.4980 C   0  0  0  0  0  0  0  0  0  0  0  0
   58.8630   31.0300   48.9280 N   0  0  0  0  0  0  0  0  0  0  0  0
   59.4930   32.2640   48.5560 C   0  0  0  0  0  0  0  0  0  0  0  0
   60.4070   32.7190   49.2940 O   0  0  0  0  0  0  0  0  0  0  0  0
   59.0670   33.0390   47.3660 C   0  0  0  0  0  0  0  0  0  0  0  0
   60.0120   33.7000   46.5580 C   0  0  0  0  0  0  0  0  0  0  0  0
   59.5980   34.4310   45.4410 C   0  0  0  0  0  0  0  0  0  0  0  0
   58.2420   34.5010   45.1120 C   0  0  0  0  0  0  0  0  0  0  0  0
   57.2980   33.8350   45.8960 C   0  0  0  0  0  0  0  0  0  0  0  0
   57.7060   33.1020   47.0160 C   0  0  0  0  0  0  0  0  0  0  0  0
   58.9640   29.2470   47.2050 C   0  0  0  0  0  0  0  0  0  0  0  0
   55.2647   28.7203   42.6938 H   0  0  0  0  0  0  0  0  0  0  0  0
   56.1903   30.4796   41.1888 H   0  0  0  0  0  0  0  0  0  0  0  0
   58.6583   31.9538   44.4232 H   0  0  0  0  0  0  0  0  0  0  0  0
   57.7350   30.1965   45.9323 H   0  0  0  0  0  0  0  0  0  0  0  0
   60.3897   26.1445   47.4065 H   0  0  0  0  0  0  0  0  0  0  0  0
   60.9628   26.9982   49.6796 H   0  0  0  0  0  0  0  0  0  0  0  0
   60.2443   29.2816   50.3775 H   0  0  0  0  0  0  0  0  0  0  0  0
   61.0818   33.6407   46.8072 H   0  0  0  0  0  0  0  0  0  0  0  0
   60.3412   34.9522   44.8197 H   0  0  0  0  0  0  0  0  0  0  0  0
   57.9181   35.0809   44.2352 H   0  0  0  0  0  0  0  0  0  0  0  0
   56.2312   33.8866   45.6327 H   0  0  0  0  0  0  0  0  0  0  0  0
   56.9589   32.5726   47.6256 H   0  0  0  0  0  0  0  0  0  0  0  0
   58.4361   29.8982   46.4928 H   0  0  0  0  0  0  0  0  0  0  0  0
  1  2  2  0
  2  3  1  0
  3  4  1  0
  4  5  2  0
  5  6  1  0
  6  7  2  0
  7  8  1  0
  7  9  1  0
  9 10  2  0
  2 11  1  0
 11 12  2  0
 11 13  1  0
 13 14  1  0
 14 15  2  0
 15 16  1  0
 16 17  2  0
 17 18  1  0
 18 19  1  0
 19 20  1  0
 20 21  2  0
 20 22  1  0
 22 23  2  0
 23 24  1  0
 24 25  2  0
 25 26  1  0
 26 27  2  0
 18 28  2  0
 10  4  1  0
 28 14  1  0
 27 22  1  0
  5 29  1  0
  6 30  1  0
  9 31  1  0
 10 32  1  0
 15 33  1  0
 16 34  1  0
 17 35  1  0
 23 36  1  0
 24 37  1  0
 25 38  1  0
 26 39  1  0
 27 40  1  0
 28 41  1  0
M  CHG  3   3  -1  13  -1  19  -1
M  END
>  <UniqueID>  (48) 
41

>  <SMILES>  (48) 
O=C([N-]c1ccc(Cl)cc1)C(=O)[N-]c1cccc([N-]C(=O)c2ccccc2)c1

>  <Energy>  (48) 
58.774711530865545

>  <Genealogy>  (48) 
O=C([N-]c1ccc(Cl)cc1)C(=O)[N-]c1cccc([N-]C(=O)c2ccccc2)c1 (protonated)
O=C([N-]c1ccc(Cl)cc1)C(=O)[N-]c1cccc([N-]C(=O)c2ccccc2)c1 (3D coordinates assigned)
O=C([N-]c1ccc(Cl)cc1)C(=O)[N-]c1cccc([N-]C(=O)c2ccccc2)c1 (optimized conformer: 58.774711530865545 kcal/mol)

>  <smiles>  (48) 
O=C(Nc1ccc(Cl)cc1)C(=O)Nc1cccc(NC(=O)c2ccccc2)c1

>  <score_type>  (48) 
oracle

>  <origin>  (48) 
adg

>  <m_score__min__energy>  (48) 
-13.289999999999999

>  <m_primary>  (48) 
energy

$$$$
48:0
     RDKit          3D

 26 27  0  0  0  0  0  0  0  0999 V2000
   54.8120   27.0930   46.6880 H   0  0  0  0  0  0  0  0  0  0  0  0
   54.7490   26.3380   45.9690 N   0  0  0  0  0  0  0  0  0  0  0  0
   56.1830   25.3840   46.1090 S   0  0  0  0  0  0  0  0  0  0  0  0
   56.0520   24.4760   47.2990 O   0  0  0  0  0  0  0  0  0  0  0  0
   56.3590   24.5590   44.8650 O   0  0  0  0  0  0  0  0  0  0  0  0
   57.5720   26.4320   46.3200 C   0  0  0  0  0  0  0  0  0  0  0  0
   59.1700   25.9200   46.3580 S   0  0  0  0  0  0  0  0  0  0  0  0
   59.8360   27.4460   46.6010 C   0  0  0  0  0  0  0  0  0  0  0  0
   60.9081   27.6697   46.7039 H   0  0  0  0  0  0  0  0  0  0  0  0
   58.8020   28.3790   46.6500 C   0  0  0  0  0  0  0  0  0  0  0  0
   59.0310   29.8260   46.8590 C   0  0  0  0  0  0  0  0  0  0  0  0
   60.0010   30.2040   47.5670 O   0  0  0  0  0  0  0  0  0  0  0  0
   58.1260   30.8130   46.3440 N   0  0  0  0  0  0  0  0  0  0  0  0
   58.4230   32.0350   45.9960 C   0  0  0  0  0  0  0  0  0  0  0  0
   57.4820   32.7680   45.2600 C   0  0  0  0  0  0  0  0  0  0  0  0
   56.5165   32.3150   44.9905 H   0  0  0  0  0  0  0  0  0  0  0  0
   57.7760   34.0750   44.8710 C   0  0  0  0  0  0  0  0  0  0  0  0
   57.0454   34.6542   44.2873 H   0  0  0  0  0  0  0  0  0  0  0  0
   58.9980   34.6450   45.2240 C   0  0  0  0  0  0  0  0  0  0  0  0
   59.2950   35.9140   44.8510 F   0  0  0  0  0  0  0  0  0  0  0  0
   59.9090   33.8990   45.9730 C   0  0  0  0  0  0  0  0  0  0  0  0
   60.8738   34.3421   46.2610 H   0  0  0  0  0  0  0  0  0  0  0  0
   59.6090   32.6250   46.3490 N   0  0  0  0  0  0  0  0  0  0  0  0
   60.3100   32.1240   46.9380 H   0  0  0  0  0  0  0  0  0  0  0  0
   57.5270   27.8050   46.5020 C   0  0  0  0  0  0  0  0  0  0  0  0
   56.5925   28.3846   46.5279 H   0  0  0  0  0  0  0  0  0  0  0  0
  1  2  1  0
  2  3  1  0
  3  4  2  0
  3  5  2  0
  3  6  1  0
  6  7  1  0
  7  8  1  0
  8  9  1  0
  8 10  2  0
 10 11  1  0
 11 12  2  0
 11 13  1  0
 13 14  2  0
 14 15  1  0
 15 16  1  0
 15 17  2  0
 17 18  1  0
 17 19  1  0
 19 20  1  0
 19 21  2  0
 21 22  1  0
 21 23  1  0
 23 24  1  0
 10 25  1  0
 25 26  1  0
 25  6  2  0
 23 14  1  0
M  CHG  1   2  -1
M  END
>  <UniqueID>  (49) 
42

>  <SMILES>  (49) 
[NH-]S(=O)(=O)c1cc(C(=O)/N=c2/ccc(F)c[nH]2)cs1

>  <Energy>  (49) 
60.89800234122461

>  <Genealogy>  (49) 
[NH-]S(=O)(=O)c1cc(C(=O)N=c2ccc(F)c[nH]2)cs1 (protonated)
[NH-]S(=O)(=O)c1cc(C(=O)/N=c2/ccc(F)c[nH]2)cs1 (cis-trans isomerization)
[NH-]S(=O)(=O)c1cc(C(=O)/N=c2/ccc(F)c[nH]2)cs1 (3D coordinates assigned)
[NH-]S(=O)(=O)c1cc(C(=O)/N=c2/ccc(F)c[nH]2)cs1 (optimized conformer: 60.89800234122461 kcal/mol)

>  <smiles>  (49) 
NS(=O)(=O)c1cc(C(=O)N=c2ccc(F)c[nH]2)cs1

>  <score_type>  (49) 
oracle

>  <origin>  (49) 
adg

>  <m_score__min__energy>  (49) 
-9.6999999999999993

>  <m_primary>  (49) 
energy

$$$$
49:0
     RDKit          3D

 55 57  0  0  0  0  0  0  0  0999 V2000
   61.0460   24.0320   52.5620 C   0  0  0  0  0  0  0  0  0  0  0  0
   62.0280   24.9150   52.0310 O   0  0  0  0  0  0  0  0  0  0  0  0
   61.7220   26.2040   51.5810 C   0  0  0  0  0  0  0  0  0  0  0  0
   61.1160   26.3920   50.3760 N   0  0  0  0  0  0  0  0  0  0  0  0
   60.8070   27.6340   49.9230 C   0  0  0  0  0  0  0  0  0  0  0  0
   60.1650   27.7920   48.6480 C   0  0  0  0  0  0  0  0  0  0  0  0
   59.6270   27.9240   47.5780 C   0  0  0  0  0  0  0  0  0  0  0  0
   58.9850   28.0840   46.2990 C   0  0  0  0  0  0  0  0  0  0  0  0
   59.1330   27.1000   45.3140 C   0  0  0  0  0  0  0  0  0  0  0  0
   58.5170   27.2590   44.0700 C   0  0  0  0  0  0  0  0  0  0  0  0
   57.7490   28.3960   43.8080 C   0  0  0  0  0  0  0  0  0  0  0  0
   57.5800   29.3850   44.7940 C   0  0  0  0  0  0  0  0  0  0  0  0
   56.7580   30.5810   44.5090 C   0  0  0  0  0  0  0  0  0  0  0  0
   55.5010   30.4800   44.4840 O   0  0  0  0  0  0  0  0  0  0  0  0
   57.3610   31.8580   44.2350 N   0  0  0  0  0  0  0  0  0  0  0  0
   57.7850   32.1200   42.8590 C   0  0  0  0  0  0  0  0  0  0  0  0
   57.3800   32.9340   45.2510 C   0  0  0  0  0  0  0  0  0  0  0  0
   57.9820   32.4430   46.5910 C   0  0  0  0  0  0  0  0  0  0  0  0
   58.4360   33.6340   47.4500 C   0  0  0  0  0  0  0  0  0  0  0  0
   59.4680   34.4730   46.7800 N   0  0  0  0  0  0  0  0  0  0  0  0
   60.8080   34.2320   47.3410 C   0  0  0  0  0  0  0  0  0  0  0  0
   59.5010   34.3460   45.3020 C   0  0  0  0  0  0  0  0  0  0  0  0
   58.0890   34.2060   44.7230 C   0  0  0  0  0  0  0  0  0  0  0  0
   58.2150   29.2240   46.0380 C   0  0  0  0  0  0  0  0  0  0  0  0
   61.1160   28.7470   50.7100 C   0  0  0  0  0  0  0  0  0  0  0  0
   61.7220   28.5700   51.9150 N   0  0  0  0  0  0  0  0  0  0  0  0
   62.0370   27.3220   52.3710 C   0  0  0  0  0  0  0  0  0  0  0  0
   62.6960   27.1460   53.7090 C   0  0  0  0  0  0  0  0  0  0  0  0
   61.0807   24.0632   53.6610 H   0  0  0  0  0  0  0  0  0  0  0  0
   60.0487   24.3430   52.2177 H   0  0  0  0  0  0  0  0  0  0  0  0
   61.2497   23.0073   52.2177 H   0  0  0  0  0  0  0  0  0  0  0  0
   59.7341   26.2020   45.5195 H   0  0  0  0  0  0  0  0  0  0  0  0
   58.6371   26.4873   43.2954 H   0  0  0  0  0  0  0  0  0  0  0  0
   57.2731   28.5188   42.8239 H   0  0  0  0  0  0  0  0  0  0  0  0
   58.7207   32.6982   42.8675 H   0  0  0  0  0  0  0  0  0  0  0  0
   57.9486   31.1653   42.3377 H   0  0  0  0  0  0  0  0  0  0  0  0
   57.0044   32.6934   42.3377 H   0  0  0  0  0  0  0  0  0  0  0  0
   56.3356   33.2132   45.4542 H   0  0  0  0  0  0  0  0  0  0  0  0
   57.2206   31.8704   47.1409 H   0  0  0  0  0  0  0  0  0  0  0  0
   58.8544   31.8085   46.3759 H   0  0  0  0  0  0  0  0  0  0  0  0
   57.5604   34.2629   47.6685 H   0  0  0  0  0  0  0  0  0  0  0  0
   58.8869   33.2263   48.3668 H   0  0  0  0  0  0  0  0  0  0  0  0
   60.7528   34.2419   48.4396 H   0  0  0  0  0  0  0  0  0  0  0  0
   61.1771   33.2531   47.0012 H   0  0  0  0  0  0  0  0  0  0  0  0
   61.4951   35.0210   47.0012 H   0  0  0  0  0  0  0  0  0  0  0  0
   59.9756   35.2422   44.8759 H   0  0  0  0  0  0  0  0  0  0  0  0
   60.0730   33.4425   45.0441 H   0  0  0  0  0  0  0  0  0  0  0  0
   57.4974   35.0886   45.0075 H   0  0  0  0  0  0  0  0  0  0  0  0
   58.1721   34.1248   43.6292 H   0  0  0  0  0  0  0  0  0  0  0  0
   58.1062   29.9987   46.8113 H   0  0  0  0  0  0  0  0  0  0  0  0
   60.8707   29.7596   50.3572 H   0  0  0  0  0  0  0  0  0  0  0  0
   61.9420   29.4120   52.4910 H   0  0  0  0  0  0  0  0  0  0  0  0
   61.9642   27.3414   54.5067 H   0  0  0  0  0  0  0  0  0  0  0  0
   63.0715   26.1161   53.8002 H   0  0  0  0  0  0  0  0  0  0  0  0
   63.5350   27.8516   53.8002 H   0  0  0  0  0  0  0  0  0  0  0  0
  1  2  1  0
  2  3  1  0
  3  4  2  0
  4  5  1  0
  5  6  1  0
  6  7  3  0
  7  8  1  0
  8  9  2  0
  9 10  1  0
 10 11  2  0
 11 12  1  0
 12 13  1  0
 13 14  2  0
 13 15  1  0
 15 16  1  0
 15 17  1  0
 17 18  1  0
 18 19  1  0
 19 20  1  0
 20 21  1  0
 20 22  1  0
 22 23  1  0
 12 24  2  0
  5 25  2  0
 25 26  1  0
 26 27  2  0
 27 28  1  0
 27  3  1  0
 24  8  1  0
 23 17  1  0
  1 29  1  0
  1 30  1  0
  1 31  1  0
  9 32  1  0
 10 33  1  0
 11 34  1  0
 16 35  1  0
 16 36  1  0
 16 37  1  0
 17 38  1  0
 18 39  1  0
 18 40  1  0
 19 41  1  0
 19 42  1  0
 21 43  1  0
 21 44  1  0
 21 45  1  0
 22 46  1  0
 22 47  1  0
 23 48  1  0
 23 49  1  0
 24 50  1  0
 25 51  1  0
 26 52  1  0
 28 53  1  0
 28 54  1  0
 28 55  1  0
M  CHG  1  26   1
M  END
>  <UniqueID>  (50) 
43

>  <SMILES>  (50) 
COc1nc(C#Cc2cccc(C(=O)N(C)C3CCN(C)CC3)c2)c[nH+]c1C

>  <Energy>  (50) 
64.1881351669804

>  <Genealogy>  (50) 
COc1nc(C#Cc2cccc(C(=O)N(C)C3CCN(C)CC3)c2)c[nH+]c1C (protonated)
COc1nc(C#Cc2cccc(C(=O)N(C)C3CCN(C)CC3)c2)c[nH+]c1C (3D coordinates assigned)
COc1nc(C#Cc2cccc(C(=O)N(C)C3CCN(C)CC3)c2)c[nH+]c1C (nonaromatic ring conformer: 64.1881351669804 kcal/mol)

>  <smiles>  (50) 
COc1nc(C#Cc2cccc(C(=O)N(C)C3CCN(C)CC3)c2)cnc1C

>  <score_type>  (50) 
oracle

>  <origin>  (50) 
adg

>  <m_score__min__energy>  (50) 
-7.75

>  <m_primary>  (50) 
energy

$$$$
50:0
     RDKit          3D

 43 46  0  0  0  0  0  0  0  0999 V2000
   62.8860   33.8380   45.6840 O   0  0  0  0  0  0  0  0  0  0  0  0
   62.8850   33.7680   46.9430 C   0  0  0  0  0  0  0  0  0  0  0  0
   63.9670   33.2510   47.5910 N   0  0  0  0  0  0  0  0  0  0  0  0
   63.9990   33.1380   48.9510 C   0  0  0  0  0  0  0  0  0  0  0  0
   65.1160   32.5840   49.5960 C   0  0  0  0  0  0  0  0  0  0  0  0
   65.1310   32.4570   50.9880 C   0  0  0  0  0  0  0  0  0  0  0  0
   64.0340   32.8760   51.7440 C   0  0  0  0  0  0  0  0  0  0  0  0
   62.9180   33.4360   51.1150 C   0  0  0  0  0  0  0  0  0  0  0  0
   62.8950   33.5720   49.7190 C   0  0  0  0  0  0  0  0  0  0  0  0
   61.7850   34.1200   49.0670 C   0  0  0  0  0  0  0  0  0  0  0  0
   61.7740   34.2180   47.6740 C   0  0  0  0  0  0  0  0  0  0  0  0
   60.3240   34.8800   46.8440 S   0  0  0  0  0  0  0  0  0  0  0  0
   59.5170   33.2810   46.7490 C   0  0  0  0  0  0  0  0  0  0  0  0
   59.9020   32.2520   47.6150 C   0  0  0  0  0  0  0  0  0  0  0  0
   59.2520   31.0170   47.5660 C   0  0  0  0  0  0  0  0  0  0  0  0
   58.2110   30.8090   46.6570 C   0  0  0  0  0  0  0  0  0  0  0  0
   57.8120   31.8340   45.7880 C   0  0  0  0  0  0  0  0  0  0  0  0
   56.7240   31.5820   44.8900 N   0  0  0  0  0  0  0  0  0  0  0  0
   56.5270   30.1540   43.9270 S   0  0  0  0  0  0  0  0  0  0  0  0
   56.8440   30.4750   42.4930 O   0  0  0  0  0  0  0  0  0  0  0  0
   55.0980   29.7000   44.0170 O   0  0  0  0  0  0  0  0  0  0  0  0
   57.5710   28.8690   44.5250 C   0  0  0  0  0  0  0  0  0  0  0  0
   58.9480   28.9060   44.2630 C   0  0  0  0  0  0  0  0  0  0  0  0
   59.7920   27.9290   44.7980 C   0  0  0  0  0  0  0  0  0  0  0  0
   59.2670   26.9140   45.6050 C   0  0  0  0  0  0  0  0  0  0  0  0
   60.3350   25.7270   46.3300 Cl  0  0  0  0  0  0  0  0  0  0  0  0
   57.8900   26.8620   45.8530 C   0  0  0  0  0  0  0  0  0  0  0  0
   57.0430   27.8370   45.3160 C   0  0  0  0  0  0  0  0  0  0  0  0
   58.4780   33.0730   45.8330 C   0  0  0  0  0  0  0  0  0  0  0  0
   64.7850   32.9260   47.0240 H   0  0  0  0  0  0  0  0  0  0  0  0
   65.9811   32.2492   49.0049 H   0  0  0  0  0  0  0  0  0  0  0  0
   66.0098   32.0256   51.4896 H   0  0  0  0  0  0  0  0  0  0  0  0
   64.0481   32.7650   52.8383 H   0  0  0  0  0  0  0  0  0  0  0  0
   62.0583   33.7698   51.7146 H   0  0  0  0  0  0  0  0  0  0  0  0
   60.9222   34.4732   49.6508 H   0  0  0  0  0  0  0  0  0  0  0  0
   60.7173   32.4158   48.3350 H   0  0  0  0  0  0  0  0  0  0  0  0
   59.5597   30.2070   48.2436 H   0  0  0  0  0  0  0  0  0  0  0  0
   57.7015   29.8347   46.6233 H   0  0  0  0  0  0  0  0  0  0  0  0
   59.3652   29.7065   43.6344 H   0  0  0  0  0  0  0  0  0  0  0  0
   60.8706   27.9581   44.5843 H   0  0  0  0  0  0  0  0  0  0  0  0
   57.4736   26.0530   46.4712 H   0  0  0  0  0  0  0  0  0  0  0  0
   55.9618   27.7948   45.5139 H   0  0  0  0  0  0  0  0  0  0  0  0
   58.1818   33.8802   45.1470 H   0  0  0  0  0  0  0  0  0  0  0  0
  1  2  2  0
  2  3  1  0
  3  4  1  0
  4  5  2  0
  5  6  1  0
  6  7  2  0
  7  8  1  0
  8  9  2  0
  9 10  1  0
 10 11  2  0
 11 12  1  0
 12 13  1  0
 13 14  2  0
 14 15  1  0
 15 16  2  0
 16 17  1  0
 17 18  1  0
 18 19  1  0
 19 20  2  0
 19 21  2  0
 19 22  1  0
 22 23  2  0
 23 24  1  0
 24 25  2  0
 25 26  1  0
 25 27  1  0
 27 28  2  0
 17 29  2  0
 11  2  1  0
 29 13  1  0
  9  4  1  0
 28 22  1  0
  3 30  1  0
  5 31  1  0
  6 32  1  0
  7 33  1  0
  8 34  1  0
 10 35  1  0
 14 36  1  0
 15 37  1  0
 16 38  1  0
 23 39  1  0
 24 40  1  0
 27 41  1  0
 28 42  1  0
 29 43  1  0
M  CHG  1  18  -1
M  END
>  <UniqueID>  (51) 
44

>  <SMILES>  (51) 
O=c1[nH]c2ccccc2cc1Sc1cccc([N-]S(=O)(=O)c2ccc(Cl)cc2)c1

>  <Energy>  (51) 
47.26701870307101

>  <Genealogy>  (51) 
O=c1[nH]c2ccccc2cc1Sc1cccc([N-]S(=O)(=O)c2ccc(Cl)cc2)c1 (protonated)
O=c1[nH]c2ccccc2cc1Sc1cccc([N-]S(=O)(=O)c2ccc(Cl)cc2)c1 (3D coordinates assigned)
O=c1[nH]c2ccccc2cc1Sc1cccc([N-]S(=O)(=O)c2ccc(Cl)cc2)c1 (optimized conformer: 47.26701870307101 kcal/mol)

>  <smiles>  (51) 
O=c1[nH]c2ccccc2cc1Sc1cccc(NS(=O)(=O)c2ccc(Cl)cc2)c1

>  <score_type>  (51) 
oracle

>  <origin>  (51) 
adg

>  <m_score__min__energy>  (51) 
-11.17

>  <m_primary>  (51) 
energy

$$$$
51:0
     RDKit          3D

 21 21  0  0  0  0  0  0  0  0999 V2000
   54.4630   29.3540   45.6430 H   0  0  0  0  0  0  0  0  0  0  0  0
   55.1490   29.3380   44.8560 N   0  0  0  0  0  0  0  0  0  0  0  0
   56.5090   28.9650   45.0770 C   0  0  0  0  0  0  0  0  0  0  0  0
   56.7590   27.8800   45.6660 O   0  0  0  0  0  0  0  0  0  0  0  0
   57.6210   29.8320   44.6180 C   0  0  0  0  0  0  0  0  0  0  0  0
   58.9580   29.2810   44.6280 C   0  0  0  0  0  0  0  0  0  0  0  0
   60.0290   28.8400   44.6380 N   0  0  0  0  0  0  0  0  0  0  0  0
   57.3960   31.1140   44.2660 C   0  0  0  0  0  0  0  0  0  0  0  0
   56.7294   31.2978   43.4105 H   0  0  0  0  0  0  0  0  0  0  0  0
   57.9800   32.2930   44.9460 C   0  0  0  0  0  0  0  0  0  0  0  0
   58.0230   32.3200   46.3490 C   0  0  0  0  0  0  0  0  0  0  0  0
   57.6491   31.4600   46.9239 H   0  0  0  0  0  0  0  0  0  0  0  0
   58.5380   33.4330   47.0200 C   0  0  0  0  0  0  0  0  0  0  0  0
   58.5822   33.4390   48.1191 H   0  0  0  0  0  0  0  0  0  0  0  0
   58.9980   34.5410   46.2960 C   0  0  0  0  0  0  0  0  0  0  0  0
   59.5140   35.6550   46.9540 O   0  0  0  0  0  0  0  0  0  0  0  0
   58.9170   36.2820   47.4800 H   0  0  0  0  0  0  0  0  0  0  0  0
   58.9340   34.5320   44.8990 C   0  0  0  0  0  0  0  0  0  0  0  0
   59.2899   35.4025   44.3284 H   0  0  0  0  0  0  0  0  0  0  0  0
   58.4190   33.4200   44.2250 C   0  0  0  0  0  0  0  0  0  0  0  0
   58.3566   33.4258   43.1268 H   0  0  0  0  0  0  0  0  0  0  0  0
  1  2  1  0
  2  3  1  0
  3  4  2  0
  3  5  1  0
  5  6  1  0
  6  7  3  0
  5  8  2  0
  8  9  1  0
  8 10  1  0
 10 11  2  0
 11 12  1  0
 11 13  1  0
 13 14  1  0
 13 15  2  0
 15 16  1  0
 16 17  1  0
 15 18  1  0
 18 19  1  0
 18 20  2  0
 20 21  1  0
 20 10  1  0
M  CHG  1   2  -1
M  END
>  <UniqueID>  (52) 
45

>  <SMILES>  (52) 
N#C/C(=C\c1ccc(O)cc1)C([NH-])=O

>  <Energy>  (52) 
24.24619983143892

>  <Genealogy>  (52) 
N#CC(=Cc1ccc(O)cc1)C([NH-])=O (protonated)
N#C/C(=C\c1ccc(O)cc1)C([NH-])=O (cis-trans isomerization)
N#C/C(=C\c1ccc(O)cc1)C([NH-])=O (3D coordinates assigned)
N#C/C(=C\c1ccc(O)cc1)C([NH-])=O (optimized conformer: 24.24619983143892 kcal/mol)

>  <smiles>  (52) 
N#CC(=Cc1ccc(O)cc1)C(N)=O

>  <score_type>  (52) 
oracle

>  <origin>  (52) 
adg

>  <m_score__min__energy>  (52) 
-8.8499999999999996

>  <m_primary>  (52) 
energy

$$$$
52:0
     RDKit          3D

 30 31  0  0  0  0  0  0  0  0999 V2000
   58.8639   28.7013   44.9566 H   0  0  0  0  0  0  0  0  0  0  0  0
   57.9420   29.2960   44.8760 C   0  0  0  0  0  0  0  0  0  0  0  0
   56.6760   28.7330   45.3980 C   0  0  0  0  0  0  0  0  0  0  0  0
   55.5840   29.3070   45.1410 O   0  0  0  0  0  0  0  0  0  0  0  0
   56.6430   27.4930   46.1230 N   0  0  0  0  0  0  0  0  0  0  0  0
   56.4850   26.3000   45.6260 C   0  0  0  0  0  0  0  0  0  0  0  0
   55.4190   25.5240   45.9700 N   0  0  0  0  0  0  0  0  0  0  0  0
   55.2260   24.2850   45.4440 C   0  0  0  0  0  0  0  0  0  0  0  0
   54.3549   23.6887   45.7534 H   0  0  0  0  0  0  0  0  0  0  0  0
   56.1330   23.7630   44.5080 C   0  0  0  0  0  0  0  0  0  0  0  0
   55.9360   22.4530   43.9460 N   0  0  0  0  0  0  0  0  0  0  0  0
   55.8560   22.2960   42.7100 O   0  0  0  0  0  0  0  0  0  0  0  0
   55.8340   21.3500   44.7640 O   0  0  0  0  0  0  0  0  0  0  0  0
   57.2300   24.5540   44.1320 C   0  0  0  0  0  0  0  0  0  0  0  0
   57.9544   24.1726   43.3973 H   0  0  0  0  0  0  0  0  0  0  0  0
   57.4050   25.8230   44.6870 C   0  0  0  0  0  0  0  0  0  0  0  0
   58.2619   26.4443   44.3873 H   0  0  0  0  0  0  0  0  0  0  0  0
   57.9980   30.5090   44.3080 C   0  0  0  0  0  0  0  0  0  0  0  0
   57.8494   30.5792   43.2204 H   0  0  0  0  0  0  0  0  0  0  0  0
   58.2490   31.7630   45.0620 C   0  0  0  0  0  0  0  0  0  0  0  0
   59.0150   31.7960   46.2460 C   0  0  0  0  0  0  0  0  0  0  0  0
   59.4444   30.8658   46.6465 H   0  0  0  0  0  0  0  0  0  0  0  0
   59.2310   33.0060   46.9130 C   0  0  0  0  0  0  0  0  0  0  0  0
   59.8246   33.0229   47.8390 H   0  0  0  0  0  0  0  0  0  0  0  0
   58.6960   34.1930   46.4080 C   0  0  0  0  0  0  0  0  0  0  0  0
   58.9080   35.3640   47.0580 F   0  0  0  0  0  0  0  0  0  0  0  0
   57.9480   34.1730   45.2280 C   0  0  0  0  0  0  0  0  0  0  0  0
   57.5308   35.1083   44.8265 H   0  0  0  0  0  0  0  0  0  0  0  0
   57.7290   32.9670   44.5570 C   0  0  0  0  0  0  0  0  0  0  0  0
   57.1444   32.9600   43.6252 H   0  0  0  0  0  0  0  0  0  0  0  0
  1  2  1  0
  2  3  1  0
  3  4  2  0
  3  5  1  0
  5  6  2  3
  6  7  1  0
  7  8  1  0
  8  9  1  0
  8 10  2  0
 10 11  1  0
 11 12  2  0
 11 13  1  0
 10 14  1  0
 14 15  1  0
 14 16  2  0
 16 17  1  0
  2 18  2  0
 18 19  1  0
 18 20  1  0
 20 21  2  0
 21 22  1  0
 21 23  1  0
 23 24  1  0
 23 25  2  0
 25 26  1  0
 25 27  1  0
 27 28  1  0
 27 29  2  0
 29 30  1  0
 16  6  1  0
 29 20  1  0
M  CHG  3   7  -1  11   1  13  -1
M  END
>  <UniqueID>  (53) 
46

>  <SMILES>  (53) 
O=C(/C=C/c1ccc(F)cc1)N=c1ccc([N+](=O)[O-])c[n-]1

>  <Energy>  (53) 
39.95845195603866

>  <Genealogy>  (53) 
O=C(C=Cc1ccc(F)cc1)N=c1ccc([N+](=O)[O-])c[n-]1 (protonated)
O=C(/C=C/c1ccc(F)cc1)N=c1ccc([N+](=O)[O-])c[n-]1 (cis-trans isomerization)
O=C(/C=C/c1ccc(F)cc1)N=c1ccc([N+](=O)[O-])c[n-]1 (3D coordinates assigned)
O=C(/C=C/c1ccc(F)cc1)N=c1ccc([N+](=O)[O-])c[n-]1 (optimized conformer: 39.95845195603866 kcal/mol)

>  <smiles>  (53) 
O=C(C=Cc1ccc(F)cc1)N=c1ccc([N+](=O)[O-])c[nH]1

>  <score_type>  (53) 
oracle

>  <origin>  (53) 
adg

>  <m_score__min__energy>  (53) 
-9.6799999999999997

>  <m_primary>  (53) 
energy

$$$$
53:0
     RDKit          3D

 58 61  0  0  0  0  0  0  0  0999 V2000
   57.8120   32.0200   43.0410 C   0  0  0  0  0  0  0  0  0  0  0  0
   57.5430   33.2290   43.7470 O   0  0  0  0  0  0  0  0  0  0  0  0
   58.2160   33.6310   44.9130 C   0  0  0  0  0  0  0  0  0  0  0  0
   58.8010   34.9030   45.0450 C   0  0  0  0  0  0  0  0  0  0  0  0
   59.4440   35.2610   46.2320 C   0  0  0  0  0  0  0  0  0  0  0  0
   59.5220   34.3530   47.2900 C   0  0  0  0  0  0  0  0  0  0  0  0
   58.9750   33.0650   47.1610 C   0  0  0  0  0  0  0  0  0  0  0  0
   59.0400   32.1000   48.2770 C   0  0  0  0  0  0  0  0  0  0  0  0
   58.2870   32.2160   49.3890 N   0  0  0  0  0  0  0  0  0  0  0  0
   58.6430   31.2520   50.2260 N   0  0  0  0  0  0  0  0  0  0  0  0
   58.0470   31.0610   51.5260 C   0  0  0  0  0  0  0  0  0  0  0  0
   57.9660   32.1220   52.4440 C   0  0  0  0  0  0  0  0  0  0  0  0
   57.3860   31.9250   53.6970 C   0  0  0  0  0  0  0  0  0  0  0  0
   56.8720   30.6680   54.0620 C   0  0  0  0  0  0  0  0  0  0  0  0
   56.2700   30.4450   55.3110 O   0  0  0  0  0  0  0  0  0  0  0  0
   54.8970   30.1080   55.4810 C   0  0  0  0  0  0  0  0  0  0  0  0
   56.9520   29.5990   53.1560 C   0  0  0  0  0  0  0  0  0  0  0  0
   56.4460   28.3530   53.5550 O   0  0  0  0  0  0  0  0  0  0  0  0
   57.1490   27.4120   54.3650 C   0  0  0  0  0  0  0  0  0  0  0  0
   57.5350   29.8050   51.8890 C   0  0  0  0  0  0  0  0  0  0  0  0
   59.6180   30.5050   49.6680 C   0  0  0  0  0  0  0  0  0  0  0  0
   59.8920   31.0110   48.4150 C   0  0  0  0  0  0  0  0  0  0  0  0
   60.8120   30.4150   47.4310 C   0  0  0  0  0  0  0  0  0  0  0  0
   61.6050   31.1580   46.7920 O   0  0  0  0  0  0  0  0  0  0  0  0
   60.8640   28.9910   47.2660 N   0  0  0  0  0  0  0  0  0  0  0  0
   59.7370   28.1230   47.0950 C   0  0  0  0  0  0  0  0  0  0  0  0
   58.6440   28.5800   46.3490 C   0  0  0  0  0  0  0  0  0  0  0  0
   57.5430   27.7490   46.1300 C   0  0  0  0  0  0  0  0  0  0  0  0
   57.5300   26.4390   46.6410 C   0  0  0  0  0  0  0  0  0  0  0  0
   56.1550   25.3760   46.3520 S   0  0  0  0  0  0  0  0  0  0  0  0
   54.7520   26.3210   45.9910 N   0  0  0  0  0  0  0  0  0  0  0  0
   55.8990   24.5410   47.5760 O   0  0  0  0  0  0  0  0  0  0  0  0
   56.4460   24.4590   45.1980 O   0  0  0  0  0  0  0  0  0  0  0  0
   58.6300   25.9750   47.3730 C   0  0  0  0  0  0  0  0  0  0  0  0
   59.7330   26.8070   47.5910 C   0  0  0  0  0  0  0  0  0  0  0  0
   58.2990   32.7240   45.9780 C   0  0  0  0  0  0  0  0  0  0  0  0
   57.9927   31.2077   43.7604 H   0  0  0  0  0  0  0  0  0  0  0  0
   56.9487   31.7646   42.4089 H   0  0  0  0  0  0  0  0  0  0  0  0
   58.7021   32.1548   42.4089 H   0  0  0  0  0  0  0  0  0  0  0  0
   58.7520   35.6183   44.2107 H   0  0  0  0  0  0  0  0  0  0  0  0
   59.8903   36.2612   46.3338 H   0  0  0  0  0  0  0  0  0  0  0  0
   60.0139   34.6473   48.2288 H   0  0  0  0  0  0  0  0  0  0  0  0
   58.3617   33.1120   52.1732 H   0  0  0  0  0  0  0  0  0  0  0  0
   57.3300   32.7625   54.4079 H   0  0  0  0  0  0  0  0  0  0  0  0
   54.6637   30.0507   56.5544 H   0  0  0  0  0  0  0  0  0  0  0  0
   54.2692   30.8787   55.0099 H   0  0  0  0  0  0  0  0  0  0  0  0
   54.6974   29.1342   55.0099 H   0  0  0  0  0  0  0  0  0  0  0  0
   56.9773   27.6418   55.4269 H   0  0  0  0  0  0  0  0  0  0  0  0
   56.7863   26.3968   54.1463 H   0  0  0  0  0  0  0  0  0  0  0  0
   58.2254   27.4719   54.1463 H   0  0  0  0  0  0  0  0  0  0  0  0
   57.5895   28.9701   51.1749 H   0  0  0  0  0  0  0  0  0  0  0  0
   60.1109   29.6389   50.1338 H   0  0  0  0  0  0  0  0  0  0  0  0
   58.6524   29.5984   45.9333 H   0  0  0  0  0  0  0  0  0  0  0  0
   56.6821   28.1210   45.5552 H   0  0  0  0  0  0  0  0  0  0  0  0
   54.7040   27.0820   46.7080 H   0  0  0  0  0  0  0  0  0  0  0  0
   58.6266   24.9523   47.7781 H   0  0  0  0  0  0  0  0  0  0  0  0
   60.6007   26.4305   48.1526 H   0  0  0  0  0  0  0  0  0  0  0  0
   57.8293   31.7335   45.8864 H   0  0  0  0  0  0  0  0  0  0  0  0
  1  2  1  0
  2  3  1  0
  3  4  2  0
  4  5  1  0
  5  6  2  0
  6  7  1  0
  7  8  1  0
  8  9  2  0
  9 10  1  0
 10 11  1  0
 11 12  2  0
 12 13  1  0
 13 14  2  0
 14 15  1  0
 15 16  1  0
 14 17  1  0
 17 18  1  0
 18 19  1  0
 17 20  2  0
 10 21  1  0
 21 22  2  0
 22 23  1  0
 23 24  2  0
 23 25  1  0
 25 26  1  0
 26 27  2  0
 27 28  1  0
 28 29  2  0
 29 30  1  0
 30 31  1  0
 30 32  2  0
 30 33  2  0
 29 34  1  0
 34 35  2  0
  7 36  2  0
 36  3  1  0
 22  8  1  0
 35 26  1  0
 20 11  1  0
  1 37  1  0
  1 38  1  0
  1 39  1  0
  4 40  1  0
  5 41  1  0
  6 42  1  0
 12 43  1  0
 13 44  1  0
 16 45  1  0
 16 46  1  0
 16 47  1  0
 19 48  1  0
 19 49  1  0
 19 50  1  0
 20 51  1  0
 21 52  1  0
 27 53  1  0
 28 54  1  0
 31 55  1  0
 34 56  1  0
 35 57  1  0
 36 58  1  0
M  CHG  2  25  -1  31  -1
M  END
>  <UniqueID>  (54) 
47

>  <SMILES>  (54) 
COc1cccc(-c2nn(-c3ccc(OC)c(OC)c3)cc2C(=O)[N-]c2ccc(S([NH-])(=O)=O)cc2)c1

>  <Energy>  (54) 
102.38427635016556

>  <Genealogy>  (54) 
COc1cccc(-c2nn(-c3ccc(OC)c(OC)c3)cc2C(=O)[N-]c2ccc(S([NH-])(=O)=O)cc2)c1 (protonated)
COc1cccc(-c2nn(-c3ccc(OC)c(OC)c3)cc2C(=O)[N-]c2ccc(S([NH-])(=O)=O)cc2)c1 (3D coordinates assigned)
COc1cccc(-c2nn(-c3ccc(OC)c(OC)c3)cc2C(=O)[N-]c2ccc(S([NH-])(=O)=O)cc2)c1 (optimized conformer: 102.38427635016556 kcal/mol)

>  <smiles>  (54) 
COc1cccc(-c2nn(-c3ccc(OC)c(OC)c3)cc2C(=O)Nc2ccc(S(N)(=O)=O)cc2)c1

>  <score_type>  (54) 
oracle

>  <origin>  (54) 
adg

>  <m_score__min__energy>  (54) 
-12.94

>  <m_primary>  (54) 
energy

$$$$
54:0
     RDKit          3D

 47 49  0  0  0  0  0  0  0  0999 V2000
   57.9740   32.7230   43.0380 C   0  0  0  0  0  0  0  0  0  0  0  0
   57.4270   33.1900   44.6650 S   0  0  0  0  0  0  0  0  0  0  0  0
   56.7610   34.5360   44.6120 O   0  0  0  0  0  0  0  0  0  0  0  0
   56.4340   32.1720   45.1530 O   0  0  0  0  0  0  0  0  0  0  0  0
   58.8120   33.2650   45.7510 C   0  0  0  0  0  0  0  0  0  0  0  0
   59.1790   34.4890   46.3240 C   0  0  0  0  0  0  0  0  0  0  0  0
   60.2940   34.5670   47.1630 C   0  0  0  0  0  0  0  0  0  0  0  0
   61.0510   33.4240   47.4290 C   0  0  0  0  0  0  0  0  0  0  0  0
   60.6950   32.1910   46.8610 C   0  0  0  0  0  0  0  0  0  0  0  0
   61.5460   30.9740   47.1080 C   0  0  0  0  0  0  0  0  0  0  0  0
   60.7000   29.7970   47.3660 N   0  0  0  0  0  0  0  0  0  0  0  0
   60.3450   28.8680   46.3130 C   0  0  0  0  0  0  0  0  0  0  0  0
   61.2070   28.5200   45.4620 O   0  0  0  0  0  0  0  0  0  0  0  0
   58.9860   28.3030   46.1980 C   0  0  0  0  0  0  0  0  0  0  0  0
   58.5900   27.2520   47.0400 C   0  0  0  0  0  0  0  0  0  0  0  0
   57.3030   26.7170   46.9420 C   0  0  0  0  0  0  0  0  0  0  0  0
   56.4080   27.2160   45.9910 C   0  0  0  0  0  0  0  0  0  0  0  0
   55.1280   26.6850   45.8950 O   0  0  0  0  0  0  0  0  0  0  0  0
   56.8010   28.2500   45.1350 C   0  0  0  0  0  0  0  0  0  0  0  0
   58.0880   28.7960   45.2330 C   0  0  0  0  0  0  0  0  0  0  0  0
   58.4700   29.8400   44.3900 O   0  0  0  0  0  0  0  0  0  0  0  0
   60.3510   29.4960   48.7290 C   0  0  0  0  0  0  0  0  0  0  0  0
   61.1140   28.5750   49.4620 C   0  0  0  0  0  0  0  0  0  0  0  0
   60.7670   28.2650   50.7810 C   0  0  0  0  0  0  0  0  0  0  0  0
   61.5110   27.3760   51.4840 F   0  0  0  0  0  0  0  0  0  0  0  0
   59.6530   28.8670   51.3720 C   0  0  0  0  0  0  0  0  0  0  0  0
   58.8810   29.7820   50.6460 C   0  0  0  0  0  0  0  0  0  0  0  0
   57.7270   30.3940   51.2510 C   0  0  0  0  0  0  0  0  0  0  0  0
   56.7990   30.8860   51.7370 N   0  0  0  0  0  0  0  0  0  0  0  0
   59.2290   30.0940   49.3250 C   0  0  0  0  0  0  0  0  0  0  0  0
   59.5630   32.1150   46.0310 C   0  0  0  0  0  0  0  0  0  0  0  0
   58.8081   32.0109   43.1220 H   0  0  0  0  0  0  0  0  0  0  0  0
   57.1429   32.2516   42.4930 H   0  0  0  0  0  0  0  0  0  0  0  0
   58.3092   33.6178   42.4930 H   0  0  0  0  0  0  0  0  0  0  0  0
   58.5876   35.3922   46.1130 H   0  0  0  0  0  0  0  0  0  0  0  0
   60.5756   35.5298   47.6143 H   0  0  0  0  0  0  0  0  0  0  0  0
   61.9302   33.4904   48.0867 H   0  0  0  0  0  0  0  0  0  0  0  0
   62.1710   30.7836   46.2230 H   0  0  0  0  0  0  0  0  0  0  0  0
   62.1803   31.1561   47.9881 H   0  0  0  0  0  0  0  0  0  0  0  0
   59.2961   26.8478   47.7803 H   0  0  0  0  0  0  0  0  0  0  0  0
   56.9938   25.9026   47.6136 H   0  0  0  0  0  0  0  0  0  0  0  0
   56.0976   28.6359   44.3824 H   0  0  0  0  0  0  0  0  0  0  0  0
   58.5460   29.7120   43.3880 H   0  0  0  0  0  0  0  0  0  0  0  0
   61.9882   28.0950   48.9979 H   0  0  0  0  0  0  0  0  0  0  0  0
   59.3821   28.6216   52.4095 H   0  0  0  0  0  0  0  0  0  0  0  0
   58.6209   30.8101   48.7527 H   0  0  0  0  0  0  0  0  0  0  0  0
   59.2650   31.1482   45.5991 H   0  0  0  0  0  0  0  0  0  0  0  0
  1  2  1  0
  2  3  2  0
  2  4  2  0
  2  5  1  0
  5  6  2  0
  6  7  1  0
  7  8  2  0
  8  9  1  0
  9 10  1  0
 10 11  1  0
 11 12  1  0
 12 13  2  0
 12 14  1  0
 14 15  2  0
 15 16  1  0
 16 17  2  0
 17 18  1  0
 17 19  1  0
 19 20  2  0
 20 21  1  0
 11 22  1  0
 22 23  2  0
 23 24  1  0
 24 25  1  0
 24 26  2  0
 26 27  1  0
 27 28  1  0
 28 29  3  0
 27 30  2  0
  9 31  2  0
 31  5  1  0
 20 14  1  0
 30 22  1  0
  1 32  1  0
  1 33  1  0
  1 34  1  0
  6 35  1  0
  7 36  1  0
  8 37  1  0
 10 38  1  0
 10 39  1  0
 15 40  1  0
 16 41  1  0
 19 42  1  0
 21 43  1  0
 23 44  1  0
 26 45  1  0
 30 46  1  0
 31 47  1  0
M  CHG  1  18  -1
M  END
>  <UniqueID>  (55) 
48

>  <SMILES>  (55) 
CS(=O)(=O)c1cccc(CN(C(=O)c2ccc([O-])cc2O)c2cc(F)cc(C#N)c2)c1

>  <Energy>  (55) 
54.44613227517125

>  <Genealogy>  (55) 
CS(=O)(=O)c1cccc(CN(C(=O)c2ccc([O-])cc2O)c2cc(F)cc(C#N)c2)c1 (protonated)
CS(=O)(=O)c1cccc(CN(C(=O)c2ccc([O-])cc2O)c2cc(F)cc(C#N)c2)c1 (3D coordinates assigned)
CS(=O)(=O)c1cccc(CN(C(=O)c2ccc([O-])cc2O)c2cc(F)cc(C#N)c2)c1 (optimized conformer: 54.44613227517125 kcal/mol)

>  <smiles>  (55) 
CS(=O)(=O)c1cccc(CN(C(=O)c2ccc(O)cc2O)c2cc(F)cc(C#N)c2)c1

>  <score_type>  (55) 
oracle

>  <origin>  (55) 
adg

>  <m_score__min__energy>  (55) 
-12.52

>  <m_primary>  (55) 
energy

$$$$
55:0
     RDKit          3D

 59 62  0  0  0  0  0  0  0  0999 V2000
   57.0100   22.2000   49.0120 O   0  0  0  0  0  0  0  0  0  0  0  0
   56.3190   22.9160   48.2420 C   0  0  0  0  0  0  0  0  0  0  0  0
   56.9430   24.0180   47.5700 N   0  0  0  0  0  0  0  0  0  0  0  0
   56.7590   24.3430   46.1560 C   0  0  0  0  0  0  0  0  0  0  0  0
   57.3490   25.7010   45.8510 C   0  0  0  0  0  0  0  0  0  0  0  0
   56.5150   26.8350   45.8160 C   0  0  0  0  0  0  0  0  0  0  0  0
   55.1400   26.7050   45.9880 O   0  0  0  0  0  0  0  0  0  0  0  0
   57.0580   28.1060   45.6160 C   0  0  0  0  0  0  0  0  0  0  0  0
   58.4440   28.2790   45.4650 C   0  0  0  0  0  0  0  0  0  0  0  0
   59.0290   29.6780   45.2980 C   0  0  2  0  0  0  0  0  0  0  0  0
   60.4020   29.6820   45.5970 O   0  0  0  0  0  0  0  0  0  0  0  0
   58.3470   30.6970   46.1330 N   0  0  0  0  0  0  0  0  0  0  0  0
   58.6820   30.6370   47.5750 C   0  0  0  0  0  0  0  0  0  0  0  0
   59.3870   31.9100   48.0640 C   0  0  0  0  0  0  0  0  0  0  0  0
   58.5450   33.1150   47.8560 N   0  0  0  0  0  0  0  0  0  0  0  0
   59.2850   34.4050   47.9880 C   0  0  0  0  0  0  0  0  0  0  0  0
   59.8020   34.9900   46.6650 C   0  0  0  0  0  0  0  0  0  0  0  0
   61.0980   34.2570   46.3700 C   0  0  0  0  0  0  0  0  0  0  0  0
   61.6390   33.8000   47.7230 C   0  0  0  0  0  0  0  0  0  0  0  0
   60.5890   34.1800   48.7630 C   0  0  0  0  0  0  0  0  0  0  0  0
   57.7710   33.0610   46.5820 C   0  0  0  0  0  0  0  0  0  0  0  0
   58.3530   32.0630   45.5700 C   0  0  0  0  0  0  0  0  0  0  0  0
   59.2710   27.1430   45.4660 C   0  0  0  0  0  0  0  0  0  0  0  0
   58.7340   25.8670   45.6470 C   0  0  0  0  0  0  0  0  0  0  0  0
   59.5890   24.7700   45.6260 O   0  0  0  0  0  0  0  0  0  0  0  0
   54.8980   22.5940   48.0370 C   0  0  0  0  0  0  0  0  0  0  0  0
   54.0630   22.3550   49.1390 C   0  0  0  0  0  0  0  0  0  0  0  0
   52.7070   22.0730   48.9450 C   0  0  0  0  0  0  0  0  0  0  0  0
   52.1790   22.0350   47.6500 C   0  0  0  0  0  0  0  0  0  0  0  0
   53.0060   22.2720   46.5470 C   0  0  0  0  0  0  0  0  0  0  0  0
   52.4740   22.2500   45.2630 O   0  0  0  0  0  0  0  0  0  0  0  0
   54.3670   22.5390   46.7410 C   0  0  0  0  0  0  0  0  0  0  0  0
   57.2609   23.5822   45.5401 H   0  0  0  0  0  0  0  0  0  0  0  0
   55.6828   24.3602   45.9289 H   0  0  0  0  0  0  0  0  0  0  0  0
   56.3931   28.9814   45.5763 H   0  0  0  0  0  0  0  0  0  0  0  0
   58.8695   29.9487   44.2438 H   0  0  0  0  0  0  0  0  0  0  0  0
   60.8440   29.0790   44.9390 H   0  0  0  0  0  0  0  0  0  0  0  0
   57.7527   30.5050   48.1486 H   0  0  0  0  0  0  0  0  0  0  0  0
   59.3709   29.7926   47.7251 H   0  0  0  0  0  0  0  0  0  0  0  0
   59.6048   31.8076   49.1373 H   0  0  0  0  0  0  0  0  0  0  0  0
   60.3142   32.0339   47.4852 H   0  0  0  0  0  0  0  0  0  0  0  0
   58.5506   35.0742   48.4600 H   0  0  0  0  0  0  0  0  0  0  0  0
   59.0729   34.8192   45.8593 H   0  0  0  0  0  0  0  0  0  0  0  0
   59.9572   36.0767   46.7350 H   0  0  0  0  0  0  0  0  0  0  0  0
   60.9075   33.3892   45.7214 H   0  0  0  0  0  0  0  0  0  0  0  0
   61.8169   34.9037   45.8456 H   0  0  0  0  0  0  0  0  0  0  0  0
   61.7949   32.7111   47.7213 H   0  0  0  0  0  0  0  0  0  0  0  0
   62.6065   34.2744   47.9442 H   0  0  0  0  0  0  0  0  0  0  0  0
   60.4636   33.3672   49.4935 H   0  0  0  0  0  0  0  0  0  0  0  0
   60.8845   35.0799   49.3223 H   0  0  0  0  0  0  0  0  0  0  0  0
   56.7369   32.7647   46.8120 H   0  0  0  0  0  0  0  0  0  0  0  0
   57.8188   34.0602   46.1245 H   0  0  0  0  0  0  0  0  0  0  0  0
   57.7451   32.0800   44.6534 H   0  0  0  0  0  0  0  0  0  0  0  0
   59.3898   32.3503   45.3410 H   0  0  0  0  0  0  0  0  0  0  0  0
   60.3552   27.2605   45.3224 H   0  0  0  0  0  0  0  0  0  0  0  0
   54.4759   22.3895   50.1580 H   0  0  0  0  0  0  0  0  0  0  0  0
   52.0557   21.8811   49.8105 H   0  0  0  0  0  0  0  0  0  0  0  0
   51.1112   21.8183   47.4988 H   0  0  0  0  0  0  0  0  0  0  0  0
   55.0217   22.7062   45.8730 H   0  0  0  0  0  0  0  0  0  0  0  0
  1  2  2  0
  2  3  1  0
  3  4  1  0
  4  5  1  0
  5  6  2  0
  6  7  1  0
  6  8  1  0
  8  9  2  0
  9 10  1  0
 10 11  1  0
 10 12  1  0
 12 13  1  0
 13 14  1  0
 14 15  1  0
 15 16  1  0
 16 17  1  0
 17 18  1  0
 18 19  1  0
 19 20  1  0
 15 21  1  0
 21 22  1  0
  9 23  1  0
 23 24  2  0
 24 25  1  0
  2 26  1  0
 26 27  2  0
 27 28  1  0
 28 29  2  0
 29 30  1  0
 30 31  1  0
 30 32  2  0
 24  5  1  0
 32 26  1  0
 22 12  1  0
 20 16  1  0
  4 33  1  0
  4 34  1  0
  8 35  1  0
 10 36  1  6
 11 37  1  0
 13 38  1  0
 13 39  1  0
 14 40  1  0
 14 41  1  0
 16 42  1  0
 17 43  1  0
 17 44  1  0
 18 45  1  0
 18 46  1  0
 19 47  1  0
 19 48  1  0
 20 49  1  0
 20 50  1  0
 21 51  1  0
 21 52  1  0
 22 53  1  0
 22 54  1  0
 23 55  1  0
 27 56  1  0
 28 57  1  0
 29 58  1  0
 32 59  1  0
M  CHG  4   3  -1   7  -1  25  -1  31  -1
M  END
>  <UniqueID>  (56) 
49

>  <SMILES>  (56) 
O=C([N-]Cc1c([O-])cc([C@H](O)N2CCN(C3CCCC3)CC2)cc1[O-])c1cccc([O-])c1

>  <Energy>  (56) 
86.89405454239774

>  <Genealogy>  (56) 
O=C([N-]Cc1c([O-])cc(C(O)N2CCN(C3CCCC3)CC2)cc1[O-])c1cccc([O-])c1 (protonated)
O=C([N-]Cc1c([O-])cc([C@H](O)N2CCN(C3CCCC3)CC2)cc1[O-])c1cccc([O-])c1 (chirality)
O=C([N-]Cc1c([O-])cc([C@H](O)N2CCN(C3CCCC3)CC2)cc1[O-])c1cccc([O-])c1 (3D coordinates assigned)
O=C([N-]Cc1c([O-])cc([C@H](O)N2CCN(C3CCCC3)CC2)cc1[O-])c1cccc([O-])c1 (nonaromatic ring conformer: 86.89405454239774 kcal/mol)

>  <smiles>  (56) 
O=C(NCc1c(O)cc(C(O)N2CCN(C3CCCC3)CC2)cc1O)c1cccc(O)c1

>  <score_type>  (56) 
oracle

>  <origin>  (56) 
adg

>  <m_score__min__energy>  (56) 
-18.170000000000002

>  <m_primary>  (56) 
energy

$$$$
56:0
     RDKit          3D

 57 59  0  0  0  0  0  0  0  0999 V2000
   55.4470   25.2420   46.3450 O   0  0  0  0  0  0  0  0  0  0  0  0
   56.2720   26.1890   46.2550 C   0  0  0  0  0  0  0  0  0  0  0  0
   57.6710   25.9790   46.7720 C   0  0  0  0  0  0  0  0  0  0  0  0
   58.5830   25.3720   45.6980 C   0  0  0  0  0  0  0  0  0  0  0  0
   57.8980   24.2570   44.9500 C   0  0  0  0  0  0  0  0  0  0  0  0
   58.0240   22.9290   45.3920 C   0  0  0  0  0  0  0  0  0  0  0  0
   57.4440   21.8860   44.6610 C   0  0  0  0  0  0  0  0  0  0  0  0
   56.7420   22.1600   43.4850 C   0  0  0  0  0  0  0  0  0  0  0  0
   56.6160   23.4780   43.0370 C   0  0  0  0  0  0  0  0  0  0  0  0
   57.1910   24.5240   43.7640 C   0  0  0  0  0  0  0  0  0  0  0  0
   55.8560   27.4100   45.6230 N   0  0  0  0  0  0  0  0  0  0  0  0
   56.7300   28.5080   45.2200 C   0  0  1  0  0  0  0  0  0  0  0  0
   57.8140   28.0010   44.2550 C   0  0  0  0  0  0  0  0  0  0  0  0
   59.4540   28.7910   44.4980 S   0  0  0  0  0  0  0  0  0  0  0  0
   59.7060   28.3750   46.2650 C   0  0  0  0  0  0  0  0  0  0  0  0
   59.9050   29.6240   47.0830 C   0  0  0  0  0  0  0  0  0  0  0  0
   59.0730   29.8950   48.1860 C   0  0  0  0  0  0  0  0  0  0  0  0
   59.2760   31.0430   48.9580 C   0  0  0  0  0  0  0  0  0  0  0  0
   60.3130   31.9250   48.6430 C   0  0  0  0  0  0  0  0  0  0  0  0
   61.1540   31.6560   47.5610 C   0  0  0  0  0  0  0  0  0  0  0  0
   60.9610   30.5050   46.7920 C   0  0  0  0  0  0  0  0  0  0  0  0
   55.9320   29.6320   44.6160 C   0  0  0  0  0  0  0  0  0  0  0  0
   54.8880   29.3720   43.9570 O   0  0  0  0  0  0  0  0  0  0  0  0
   56.3410   30.9880   44.8190 N   0  0  0  0  0  0  0  0  0  0  0  0
   57.4890   31.5780   44.1490 C   0  0  0  0  0  0  0  0  0  0  0  0
   58.0250   32.7100   44.9790 C   0  0  0  0  0  0  0  0  0  0  0  0
   58.8420   33.6990   44.4040 C   0  0  0  0  0  0  0  0  0  0  0  0
   59.3430   34.7420   45.1890 C   0  0  0  0  0  0  0  0  0  0  0  0
   59.0260   34.8090   46.5490 C   0  0  0  0  0  0  0  0  0  0  0  0
   58.2070   33.8350   47.1260 C   0  0  0  0  0  0  0  0  0  0  0  0
   57.7060   32.7880   46.3450 C   0  0  0  0  0  0  0  0  0  0  0  0
   58.0851   26.9485   47.0861 H   0  0  0  0  0  0  0  0  0  0  0  0
   57.6239   25.2797   47.6198 H   0  0  0  0  0  0  0  0  0  0  0  0
   58.8656   26.1594   44.9838 H   0  0  0  0  0  0  0  0  0  0  0  0
   59.4703   24.9555   46.1971 H   0  0  0  0  0  0  0  0  0  0  0  0
   58.5801   22.7087   46.3152 H   0  0  0  0  0  0  0  0  0  0  0  0
   57.5412   20.8485   45.0133 H   0  0  0  0  0  0  0  0  0  0  0  0
   56.2882   21.3384   42.9113 H   0  0  0  0  0  0  0  0  0  0  0  0
   56.0632   23.6924   42.1105 H   0  0  0  0  0  0  0  0  0  0  0  0
   57.0902   25.5597   43.4073 H   0  0  0  0  0  0  0  0  0  0  0  0
   57.2329   28.9056   46.1139 H   0  0  0  0  0  0  0  0  0  0  0  0
   57.9270   26.9164   44.3998 H   0  0  0  0  0  0  0  0  0  0  0  0
   57.4826   28.2587   43.2382 H   0  0  0  0  0  0  0  0  0  0  0  0
   58.8230   27.8357   46.6384 H   0  0  0  0  0  0  0  0  0  0  0  0
   60.6040   27.7462   46.3556 H   0  0  0  0  0  0  0  0  0  0  0  0
   58.2594   29.2003   48.4417 H   0  0  0  0  0  0  0  0  0  0  0  0
   58.6184   31.2521   49.8146 H   0  0  0  0  0  0  0  0  0  0  0  0
   60.4669   32.8312   49.2473 H   0  0  0  0  0  0  0  0  0  0  0  0
   61.9697   32.3512   47.3136 H   0  0  0  0  0  0  0  0  0  0  0  0
   61.6395   30.2872   45.9540 H   0  0  0  0  0  0  0  0  0  0  0  0
   58.2709   30.8150   44.0206 H   0  0  0  0  0  0  0  0  0  0  0  0
   57.1831   31.9584   43.1632 H   0  0  0  0  0  0  0  0  0  0  0  0
   59.0880   33.6522   43.3329 H   0  0  0  0  0  0  0  0  0  0  0  0
   59.9870   35.5103   44.7362 H   0  0  0  0  0  0  0  0  0  0  0  0
   59.4218   35.6295   47.1656 H   0  0  0  0  0  0  0  0  0  0  0  0
   57.9559   33.8915   48.1955 H   0  0  0  0  0  0  0  0  0  0  0  0
   57.0603   32.0235   46.8018 H   0  0  0  0  0  0  0  0  0  0  0  0
  1  2  2  0
  2  3  1  0
  3  4  1  0
  4  5  1  0
  5  6  2  0
  6  7  1  0
  7  8  2  0
  8  9  1  0
  9 10  2  0
  2 11  1  0
 11 12  1  0
 12 13  1  0
 13 14  1  0
 14 15  1  0
 15 16  1  0
 16 17  2  0
 17 18  1  0
 18 19  2  0
 19 20  1  0
 20 21  2  0
 12 22  1  0
 22 23  2  0
 22 24  1  0
 24 25  1  0
 25 26  1  0
 26 27  2  0
 27 28  1  0
 28 29  2  0
 29 30  1  0
 30 31  2  0
 10  5  1  0
 21 16  1  0
 31 26  1  0
  3 32  1  0
  3 33  1  0
  4 34  1  0
  4 35  1  0
  6 36  1  0
  7 37  1  0
  8 38  1  0
  9 39  1  0
 10 40  1  0
 12 41  1  1
 13 42  1  0
 13 43  1  0
 15 44  1  0
 15 45  1  0
 17 46  1  0
 18 47  1  0
 19 48  1  0
 20 49  1  0
 21 50  1  0
 25 51  1  0
 25 52  1  0
 27 53  1  0
 28 54  1  0
 29 55  1  0
 30 56  1  0
 31 57  1  0
M  CHG  2  11  -1  24  -1
M  END
>  <UniqueID>  (57) 
50

>  <SMILES>  (57) 
O=C(CCc1ccccc1)[N-][C@@H](CSCc1ccccc1)C(=O)[N-]Cc1ccccc1

>  <Energy>  (57) 
42.655627456907595

>  <Genealogy>  (57) 
O=C(CCc1ccccc1)[N-]C(CSCc1ccccc1)C(=O)[N-]Cc1ccccc1 (protonated)
O=C(CCc1ccccc1)[N-][C@@H](CSCc1ccccc1)C(=O)[N-]Cc1ccccc1 (chirality)
O=C(CCc1ccccc1)[N-][C@@H](CSCc1ccccc1)C(=O)[N-]Cc1ccccc1 (3D coordinates assigned)
O=C(CCc1ccccc1)[N-][C@@H](CSCc1ccccc1)C(=O)[N-]Cc1ccccc1 (optimized conformer: 42.655627456907595 kcal/mol)

>  <smiles>  (57) 
O=C(CCc1ccccc1)NC(CSCc1ccccc1)C(=O)NCc1ccccc1

>  <score_type>  (57) 
oracle

>  <origin>  (57) 
adg

>  <m_score__min__energy>  (57) 
-13.76

>  <m_primary>  (57) 
energy

$$$$
57:0
     RDKit          3D

 40 42  0  0  0  0  0  0  0  0999 V2000
   56.7420   31.1760   42.8640 O   0  0  0  0  0  0  0  0  0  0  0  0
   57.1230   30.4810   44.1420 S   0  0  0  0  0  0  0  0  0  0  0  0
   55.8640   30.0880   44.8650 O   0  0  0  0  0  0  0  0  0  0  0  0
   58.0490   31.6070   45.1340 C   0  0  0  0  0  0  0  0  0  0  0  0
   58.5210   32.8130   44.5950 C   0  0  0  0  0  0  0  0  0  0  0  0
   59.2410   33.7050   45.3950 C   0  0  0  0  0  0  0  0  0  0  0  0
   59.5060   33.3950   46.7410 C   0  0  0  0  0  0  0  0  0  0  0  0
   60.2110   34.2720   47.5790 O   0  0  0  0  0  0  0  0  0  0  0  0
   61.4350   33.9940   48.2030 C   0  0  0  0  0  0  0  0  0  0  0  0
   61.6420   34.2280   49.5750 C   0  0  0  0  0  0  0  0  0  0  0  0
   62.8840   33.9530   50.1560 C   0  0  0  0  0  0  0  0  0  0  0  0
   63.9300   33.4550   49.3740 C   0  0  0  0  0  0  0  0  0  0  0  0
   65.4880   33.1120   50.1030 Cl  0  0  0  0  0  0  0  0  0  0  0  0
   63.7360   33.2400   48.0050 C   0  0  0  0  0  0  0  0  0  0  0  0
   62.4940   33.5150   47.4220 C   0  0  0  0  0  0  0  0  0  0  0  0
   59.0110   32.2020   47.2790 C   0  0  0  0  0  0  0  0  0  0  0  0
   58.2910   31.3090   46.4800 C   0  0  0  0  0  0  0  0  0  0  0  0
   58.1060   29.0720   43.7940 N   0  0  0  0  0  0  0  0  0  0  0  0
   57.4000   27.8220   44.1410 C   0  0  0  0  0  0  0  0  0  0  0  0
   57.3250   27.5970   45.6710 C   0  0  0  0  0  0  0  0  0  0  0  0
   58.2570   28.3720   46.4060 O   0  0  0  0  0  0  0  0  0  0  0  0
   59.5100   28.3680   45.7620 C   0  0  0  0  0  0  0  0  0  0  0  0
   59.4390   29.1570   44.4410 C   0  0  0  0  0  0  0  0  0  0  0  0
   58.3242   33.0573   43.5407 H   0  0  0  0  0  0  0  0  0  0  0  0
   59.6018   34.6533   44.9700 H   0  0  0  0  0  0  0  0  0  0  0  0
   60.8244   34.6284   50.1924 H   0  0  0  0  0  0  0  0  0  0  0  0
   63.0381   34.1290   51.2308 H   0  0  0  0  0  0  0  0  0  0  0  0
   64.5602   32.8546   47.3868 H   0  0  0  0  0  0  0  0  0  0  0  0
   62.3487   33.3539   46.3436 H   0  0  0  0  0  0  0  0  0  0  0  0
   59.1897   31.9651   48.3382 H   0  0  0  0  0  0  0  0  0  0  0  0
   57.9136   30.3696   46.9103 H   0  0  0  0  0  0  0  0  0  0  0  0
   58.2510   29.0700   42.7570 H   0  0  0  0  0  0  0  0  0  0  0  0
   56.3770   27.8700   43.7396 H   0  0  0  0  0  0  0  0  0  0  0  0
   57.9631   26.9841   43.7041 H   0  0  0  0  0  0  0  0  0  0  0  0
   56.3118   27.8571   46.0113 H   0  0  0  0  0  0  0  0  0  0  0  0
   57.5699   26.5403   45.8535 H   0  0  0  0  0  0  0  0  0  0  0  0
   60.2577   28.8326   46.4216 H   0  0  0  0  0  0  0  0  0  0  0  0
   59.7936   27.3284   45.5411 H   0  0  0  0  0  0  0  0  0  0  0  0
   59.6621   30.2137   44.6498 H   0  0  0  0  0  0  0  0  0  0  0  0
   60.1723   28.7152   43.7503 H   0  0  0  0  0  0  0  0  0  0  0  0
  1  2  2  0
  2  3  2  0
  2  4  1  0
  4  5  2  0
  5  6  1  0
  6  7  2  0
  7  8  1  0
  8  9  1  0
  9 10  2  0
 10 11  1  0
 11 12  2  0
 12 13  1  0
 12 14  1  0
 14 15  2  0
  7 16  1  0
 16 17  2  0
  2 18  1  0
 18 19  1  0
 19 20  1  0
 20 21  1  0
 21 22  1  0
 22 23  1  0
 17  4  1  0
 23 18  1  0
 15  9  1  0
  5 24  1  0
  6 25  1  0
 10 26  1  0
 11 27  1  0
 14 28  1  0
 15 29  1  0
 16 30  1  0
 17 31  1  0
 18 32  1  0
 19 33  1  0
 19 34  1  0
 20 35  1  0
 20 36  1  0
 22 37  1  0
 22 38  1  0
 23 39  1  0
 23 40  1  0
M  CHG  1  18   1
M  END
>  <UniqueID>  (58) 
51

>  <SMILES>  (58) 
O=S(=O)(c1ccc(Oc2ccc(Cl)cc2)cc1)[NH+]1CCOCC1

>  <Energy>  (58) 
58.457990082063766

>  <Genealogy>  (58) 
O=S(=O)(c1ccc(Oc2ccc(Cl)cc2)cc1)[NH+]1CCOCC1 (protonated)
O=S(=O)(c1ccc(Oc2ccc(Cl)cc2)cc1)[NH+]1CCOCC1 (3D coordinates assigned)
O=S(=O)(c1ccc(Oc2ccc(Cl)cc2)cc1)[NH+]1CCOCC1 (nonaromatic ring conformer: 58.457990082063766 kcal/mol)

>  <smiles>  (58) 
O=S(=O)(c1ccc(Oc2ccc(Cl)cc2)cc1)N1CCOCC1

>  <score_type>  (58) 
oracle

>  <origin>  (58) 
adg

>  <m_score__min__energy>  (58) 
-6.7599999999999998

>  <m_primary>  (58) 
energy

$$$$
58:0
     RDKit          3D

 49 52  0  0  0  0  0  0  0  0999 V2000
   56.1150   30.7090   44.8690 O   0  0  0  0  0  0  0  0  0  0  0  0
   57.2270   30.9570   44.3270 C   0  0  0  0  0  0  0  0  0  0  0  0
   57.5280   32.3510   43.8710 C   0  0  0  0  0  0  0  0  0  0  0  0
   57.7490   33.4390   45.2730 S   0  0  0  0  0  0  0  0  0  0  0  0
   57.6770   34.8640   44.8040 O   0  0  0  0  0  0  0  0  0  0  0  0
   56.6470   33.2050   46.2680 O   0  0  0  0  0  0  0  0  0  0  0  0
   59.3040   33.1380   46.0480 C   0  0  0  0  0  0  0  0  0  0  0  0
   60.2890   34.1350   46.0840 C   0  0  0  0  0  0  0  0  0  0  0  0
   61.5400   33.8670   46.6460 C   0  0  0  0  0  0  0  0  0  0  0  0
   61.8210   32.6060   47.1820 C   0  0  0  0  0  0  0  0  0  0  0  0
   63.0980   32.3690   47.7130 O   0  0  0  0  0  0  0  0  0  0  0  0
   63.5790   32.8760   48.9280 C   0  0  0  0  0  0  0  0  0  0  0  0
   64.8390   32.4620   49.3790 C   0  0  0  0  0  0  0  0  0  0  0  0
   65.3590   32.9570   50.5790 C   0  0  0  0  0  0  0  0  0  0  0  0
   64.6280   33.8810   51.3310 C   0  0  0  0  0  0  0  0  0  0  0  0
   63.3800   34.3170   50.8780 C   0  0  0  0  0  0  0  0  0  0  0  0
   62.8570   33.8230   49.6790 C   0  0  0  0  0  0  0  0  0  0  0  0
   60.8380   31.6010   47.1290 C   0  0  0  0  0  0  0  0  0  0  0  0
   59.5860   31.8690   46.5690 C   0  0  0  0  0  0  0  0  0  0  0  0
   58.1890   29.9110   44.1330 N   0  0  0  0  0  0  0  0  0  0  0  0
   58.2330   28.7060   44.9160 C   0  0  0  0  0  0  0  0  0  0  0  0
   59.4570   28.1380   45.3240 C   0  0  0  0  0  0  0  0  0  0  0  0
   59.4760   26.9460   46.0540 C   0  0  0  0  0  0  0  0  0  0  0  0
   58.2770   26.3100   46.3810 C   0  0  0  0  0  0  0  0  0  0  0  0
   57.0580   26.8440   45.9440 C   0  0  0  0  0  0  0  0  0  0  0  0
   57.0350   28.0390   45.2200 C   0  0  0  0  0  0  0  0  0  0  0  0
   55.8720   26.1650   46.2420 O   0  0  0  0  0  0  0  0  0  0  0  0
   55.8940   24.8230   46.7340 C   0  0  0  0  0  0  0  0  0  0  0  0
   57.0620   24.6320   47.7110 C   0  0  0  0  0  0  0  0  0  0  0  0
   58.2720   25.1360   47.1400 O   0  0  0  0  0  0  0  0  0  0  0  0
   58.4496   32.3437   43.2705 H   0  0  0  0  0  0  0  0  0  0  0  0
   56.6835   32.7167   43.2684 H   0  0  0  0  0  0  0  0  0  0  0  0
   60.0764   35.1311   45.6686 H   0  0  0  0  0  0  0  0  0  0  0  0
   62.3091   34.6532   46.6670 H   0  0  0  0  0  0  0  0  0  0  0  0
   65.4229   31.7431   48.7855 H   0  0  0  0  0  0  0  0  0  0  0  0
   66.3446   32.6188   50.9316 H   0  0  0  0  0  0  0  0  0  0  0  0
   65.0346   34.2646   52.2784 H   0  0  0  0  0  0  0  0  0  0  0  0
   62.8080   35.0501   51.4657 H   0  0  0  0  0  0  0  0  0  0  0  0
   61.8783   34.1754   49.3214 H   0  0  0  0  0  0  0  0  0  0  0  0
   61.0558   30.6001   47.5300 H   0  0  0  0  0  0  0  0  0  0  0  0
   58.8195   31.0807   46.5373 H   0  0  0  0  0  0  0  0  0  0  0  0
   58.8970   30.0340   43.3740 H   0  0  0  0  0  0  0  0  0  0  0  0
   60.4033   28.6360   45.0662 H   0  0  0  0  0  0  0  0  0  0  0  0
   60.4348   26.5095   46.3705 H   0  0  0  0  0  0  0  0  0  0  0  0
   56.0745   28.4591   44.8868 H   0  0  0  0  0  0  0  0  0  0  0  0
   54.9479   24.6118   47.2540 H   0  0  0  0  0  0  0  0  0  0  0  0
   56.0207   24.1336   45.8863 H   0  0  0  0  0  0  0  0  0  0  0  0
   56.8474   25.1739   48.6439 H   0  0  0  0  0  0  0  0  0  0  0  0
   57.1836   23.5587   47.9190 H   0  0  0  0  0  0  0  0  0  0  0  0
  1  2  2  0
  2  3  1  0
  3  4  1  0
  4  5  2  0
  4  6  2  0
  4  7  1  0
  7  8  2  0
  8  9  1  0
  9 10  2  0
 10 11  1  0
 11 12  1  0
 12 13  2  0
 13 14  1  0
 14 15  2  0
 15 16  1  0
 16 17  2  0
 10 18  1  0
 18 19  2  0
  2 20  1  0
 20 21  1  0
 21 22  2  0
 22 23  1  0
 23 24  2  0
 24 25  1  0
 25 26  2  0
 25 27  1  0
 27 28  1  0
 28 29  1  0
 29 30  1  0
 19  7  1  0
 26 21  1  0
 17 12  1  0
 30 24  1  0
  3 31  1  0
  3 32  1  0
  8 33  1  0
  9 34  1  0
 13 35  1  0
 14 36  1  0
 15 37  1  0
 16 38  1  0
 17 39  1  0
 18 40  1  0
 19 41  1  0
 20 42  1  0
 22 43  1  0
 23 44  1  0
 26 45  1  0
 28 46  1  0
 28 47  1  0
 29 48  1  0
 29 49  1  0
M  END
>  <UniqueID>  (59) 
52

>  <SMILES>  (59) 
O=C(CS(=O)(=O)c1ccc(Oc2ccccc2)cc1)Nc1ccc2c(c1)OCCO2

>  <Energy>  (59) 
57.73478136172011

>  <Genealogy>  (59) 
O=C(CS(=O)(=O)c1ccc(Oc2ccccc2)cc1)Nc1ccc2c(c1)OCCO2 (3D coordinates assigned)
O=C(CS(=O)(=O)c1ccc(Oc2ccccc2)cc1)Nc1ccc2c(c1)OCCO2 (nonaromatic ring conformer: 57.73478136172011 kcal/mol)

>  <smiles>  (59) 
O=C(CS(=O)(=O)c1ccc(Oc2ccccc2)cc1)Nc1ccc2c(c1)OCCO2

>  <score_type>  (59) 
oracle

>  <origin>  (59) 
adg

>  <m_score__min__energy>  (59) 
-9.6600000000000001

>  <m_primary>  (59) 
energy

$$$$
59:0
     RDKit          3D

 40 43  0  0  0  0  0  0  0  0999 V2000
   56.7710   34.5270   44.8730 C   0  0  0  0  0  0  0  0  0  0  0  0
   57.8750   33.9280   45.6170 N   0  0  0  0  0  0  0  0  0  0  0  0
   58.6340   34.6080   46.4640 N   0  0  0  0  0  0  0  0  0  0  0  0
   59.5120   33.7670   47.0460 C   0  0  0  0  0  0  0  0  0  0  0  0
   60.4850   34.1780   48.0760 C   0  0  0  0  0  0  0  0  0  0  0  0
   60.1090   34.9550   48.9940 O   0  0  0  0  0  0  0  0  0  0  0  0
   61.8460   33.7140   48.0520 N   0  0  0  0  0  0  0  0  0  0  0  0
   62.6420   33.8420   46.8230 C   0  0  0  0  0  0  0  0  0  0  0  0
   63.7770   32.7920   46.7620 C   0  0  0  0  0  0  0  0  0  0  0  0
   63.8710   31.9880   47.9260 O   0  0  0  0  0  0  0  0  0  0  0  0
   63.8940   32.8090   49.0730 C   0  0  0  0  0  0  0  0  0  0  0  0
   62.4960   33.3720   49.3210 C   0  0  0  0  0  0  0  0  0  0  0  0
   59.2840   32.4890   46.5540 C   0  0  0  0  0  0  0  0  0  0  0  0
   58.2670   32.6310   45.6330 C   0  0  0  0  0  0  0  0  0  0  0  0
   57.7150   31.4820   44.8760 C   0  0  0  0  0  0  0  0  0  0  0  0
   57.2130   31.6210   43.5710 C   0  0  0  0  0  0  0  0  0  0  0  0
   56.8570   30.4910   42.8280 C   0  0  0  0  0  0  0  0  0  0  0  0
   57.0300   29.2140   43.3670 C   0  0  0  0  0  0  0  0  0  0  0  0
   57.5560   29.0610   44.6500 C   0  0  0  0  0  0  0  0  0  0  0  0
   57.8910   30.1870   45.4140 C   0  0  0  0  0  0  0  0  0  0  0  0
   58.5160   29.9500   47.0960 S   0  0  0  0  0  0  0  0  0  0  0  0
   59.8710   31.1690   46.9540 C   0  0  0  0  0  0  0  0  0  0  0  0
   56.0291   34.9295   45.5784 H   0  0  0  0  0  0  0  0  0  0  0  0
   57.1543   35.3409   44.2400 H   0  0  0  0  0  0  0  0  0  0  0  0
   56.2977   33.7620   44.2400 H   0  0  0  0  0  0  0  0  0  0  0  0
   58.5420   35.6320   46.6540 H   0  0  0  0  0  0  0  0  0  0  0  0
   61.9812   33.7030   45.9546 H   0  0  0  0  0  0  0  0  0  0  0  0
   63.1003   34.8420   46.8148 H   0  0  0  0  0  0  0  0  0  0  0  0
   63.5960   32.1343   45.8990 H   0  0  0  0  0  0  0  0  0  0  0  0
   64.7236   33.3456   46.6756 H   0  0  0  0  0  0  0  0  0  0  0  0
   64.2104   32.2152   49.9432 H   0  0  0  0  0  0  0  0  0  0  0  0
   64.6018   33.6368   48.9186 H   0  0  0  0  0  0  0  0  0  0  0  0
   61.8905   32.6185   49.8460 H   0  0  0  0  0  0  0  0  0  0  0  0
   62.5831   34.2825   49.9321 H   0  0  0  0  0  0  0  0  0  0  0  0
   57.0995   32.6231   43.1318 H   0  0  0  0  0  0  0  0  0  0  0  0
   56.4398   30.6080   41.8169 H   0  0  0  0  0  0  0  0  0  0  0  0
   56.7510   28.3274   42.7787 H   0  0  0  0  0  0  0  0  0  0  0  0
   57.7083   28.0531   45.0634 H   0  0  0  0  0  0  0  0  0  0  0  0
   60.3831   31.2689   47.9224 H   0  0  0  0  0  0  0  0  0  0  0  0
   60.5993   30.8365   46.1996 H   0  0  0  0  0  0  0  0  0  0  0  0
  1  2  1  0
  2  3  1  0
  3  4  2  0
  4  5  1  0
  5  6  2  0
  5  7  1  0
  7  8  1  0
  8  9  1  0
  9 10  1  0
 10 11  1  0
 11 12  1  0
  4 13  1  0
 13 14  2  0
 14 15  1  0
 15 16  2  0
 16 17  1  0
 17 18  2  0
 18 19  1  0
 19 20  2  0
 20 21  1  0
 21 22  1  0
 14  2  1  0
 20 15  1  0
 12  7  1  0
 22 13  1  0
  1 23  1  0
  1 24  1  0
  1 25  1  0
  3 26  1  0
  8 27  1  0
  8 28  1  0
  9 29  1  0
  9 30  1  0
 11 31  1  0
 11 32  1  0
 12 33  1  0
 12 34  1  0
 16 35  1  0
 17 36  1  0
 18 37  1  0
 19 38  1  0
 22 39  1  0
 22 40  1  0
M  CHG  1   3   1
M  END
>  <UniqueID>  (60) 
53

>  <SMILES>  (60) 
Cn1[nH+]c(C(=O)N2CCOCC2)c2c1-c1ccccc1SC2

>  <Energy>  (60) 
94.31802070262081

>  <Genealogy>  (60) 
Cn1[nH+]c(C(=O)N2CCOCC2)c2c1-c1ccccc1SC2 (protonated)
Cn1[nH+]c(C(=O)N2CCOCC2)c2c1-c1ccccc1SC2 (3D coordinates assigned)
Cn1[nH+]c(C(=O)N2CCOCC2)c2c1-c1ccccc1SC2 (nonaromatic ring conformer: 94.31802070262081 kcal/mol)

>  <smiles>  (60) 
Cn1nc(C(=O)N2CCOCC2)c2c1-c1ccccc1SC2

>  <score_type>  (60) 
oracle

>  <origin>  (60) 
adg

>  <m_score__min__energy>  (60) 
-6.4100000000000001

>  <m_primary>  (60) 
energy

$$$$
60:0
     RDKit          3D

 35 36  0  0  1  0  0  0  0  0999 V2000
   56.8450   23.8110   43.8340 C   0  0  0  0  0  0  0  0  0  0  0  0
   56.8130   24.2370   45.2640 C   0  0  0  0  0  0  0  0  0  0  0  0
   56.4540   25.6810   45.4170 C   0  0  0  0  0  0  0  0  0  0  0  0
   55.3920   26.0670   45.9590 O   0  0  0  0  0  0  0  0  0  0  0  0
   57.4270   26.6090   44.8910 N   0  0  0  0  0  0  0  0  0  0  0  0
   57.2190   27.8840   44.9630 C   0  0  0  0  0  0  0  0  0  0  0  0
   56.1080   28.6030   45.0440 N   0  0  0  0  0  0  0  0  0  0  0  0
   56.2660   29.8780   45.1010 N   0  0  0  0  0  0  0  0  0  0  0  0
   57.2380   30.5350   45.0960 C   0  0  0  0  0  0  0  0  0  0  0  0
   57.7940   32.2030   45.1420 S   0  0  0  0  0  0  0  0  0  0  0  0
   58.6990   32.4810   43.9490 O   0  0  0  0  0  0  0  0  0  0  0  0
   56.6290   33.1400   44.9570 O   0  0  0  0  0  0  0  0  0  0  0  0
   58.5860   32.6110   46.5960 N   0  0  0  0  0  0  0  0  0  0  0  0
   59.9940   32.5970   46.7860 C   0  0  0  0  0  0  0  0  0  0  0  0
   60.7050   31.4600   47.1160 C   0  0  0  0  0  0  0  0  0  0  0  0
   62.0790   31.4570   47.2900 C   0  0  0  0  0  0  0  0  0  0  0  0
   62.8060   32.6000   47.1410 C   0  0  0  0  0  0  0  0  0  0  0  0
   62.1290   33.7560   46.8120 C   0  0  0  0  0  0  0  0  0  0  0  0
   60.7620   33.7580   46.6380 C   0  0  0  0  0  0  0  0  0  0  0  0
   60.0150   34.9960   46.2830 C   0  0  0  0  0  0  0  0  0  0  0  0
   58.5330   29.1370   44.9730 S   0  0  0  0  0  0  0  0  0  0  0  0
   56.9273   22.7154   43.7795 H   0  0  0  0  0  0  0  0  0  0  0  0
   55.9200   24.1345   43.3342 H   0  0  0  0  0  0  0  0  0  0  0  0
   57.7113   24.2691   43.3342 H   0  0  0  0  0  0  0  0  0  0  0  0
   56.0682   23.6286   45.7980 H   0  0  0  0  0  0  0  0  0  0  0  0
   57.8209   24.0943   45.6808 H   0  0  0  0  0  0  0  0  0  0  0  0
   55.1480   28.1340   45.0590 H   0  0  0  0  0  0  0  0  0  0  0  0
   58.0240   32.9040   47.4520 H   0  0  0  0  0  0  0  0  0  0  0  0
   60.1562   30.5157   47.2463 H   0  0  0  0  0  0  0  0  0  0  0  0
   62.5905   30.5191   47.5521 H   0  0  0  0  0  0  0  0  0  0  0  0
   63.8974   32.6008   47.2786 H   0  0  0  0  0  0  0  0  0  0  0  0
   62.6906   34.6934   46.6862 H   0  0  0  0  0  0  0  0  0  0  0  0
   59.7033   35.5126   47.2028 H   0  0  0  0  0  0  0  0  0  0  0  0
   60.6639   35.6590   45.6920 H   0  0  0  0  0  0  0  0  0  0  0  0
   59.1259   34.7310   45.6920 H   0  0  0  0  0  0  0  0  0  0  0  0
  1  2  1  0
  2  3  1  0
  3  4  2  0
  3  5  1  0
  5  6  2  0
  6  7  1  0
  7  8  1  0
  8  9  2  0
  9 10  1  0
 10 11  2  0
 10 12  2  0
 10 13  1  0
 13 14  1  0
 14 15  2  0
 15 16  1  0
 16 17  2  0
 17 18  1  0
 18 19  2  0
 19 20  1  0
  9 21  1  0
 21  6  1  0
 19 14  1  0
  1 22  1  0
  1 23  1  0
  1 24  1  0
  2 25  1  0
  2 26  1  0
  7 27  1  0
 13 28  1  0
 15 29  1  0
 16 30  1  0
 17 31  1  0
 18 32  1  0
 20 33  1  0
 20 34  1  0
 20 35  1  0
M  END
>  <smiles>  (61) 
CCC(=O)N=c1[nH]nc(S(=O)(=O)Nc2ccccc2C)s1

>  <score_type>  (61) 
oracle

>  <origin>  (61) 
adg

>  <m_score__min__energy>  (61) 
-8.0399999999999991

>  <m_primary>  (61) 
energy

$$$$
61:0
     RDKit          3D

 33 34  0  0  0  0  0  0  0  0999 V2000
   55.1650   29.3650   44.8840 O   0  0  0  0  0  0  0  0  0  0  0  0
   56.1290   29.9790   44.3560 C   0  0  0  0  0  0  0  0  0  0  0  0
   56.9090   29.3030   43.2600 C   0  0  0  0  0  0  0  0  0  0  0  0
   57.7780   28.1650   43.8120 C   0  0  0  0  0  0  0  0  0  0  0  0
   58.4770   28.5800   45.0340 N   0  0  0  0  0  0  0  0  0  0  0  0
   59.5870   29.3170   44.9100 N   0  0  0  0  0  0  0  0  0  0  0  0
   60.3140   29.7140   45.9860 C   0  0  0  0  0  0  0  0  0  0  0  0
   59.9040   29.3470   47.2630 C   0  0  0  0  0  0  0  0  0  0  0  0
   58.7550   28.5780   47.4110 C   0  0  0  0  0  0  0  0  0  0  0  0
   58.0410   28.1900   46.2760 C   0  0  0  0  0  0  0  0  0  0  0  0
   57.0080   27.4800   46.4060 O   0  0  0  0  0  0  0  0  0  0  0  0
   56.4710   31.2790   44.8510 N   0  0  0  0  0  0  0  0  0  0  0  0
   57.3880   32.2080   44.2040 C   0  0  0  0  0  0  0  0  0  0  0  0
   58.0920   33.0210   45.2500 C   0  0  0  0  0  0  0  0  0  0  0  0
   58.7190   34.2310   44.9080 C   0  0  0  0  0  0  0  0  0  0  0  0
   59.4000   34.9700   45.8800 C   0  0  0  0  0  0  0  0  0  0  0  0
   59.4680   34.5030   47.1950 C   0  0  0  0  0  0  0  0  0  0  0  0
   58.8600   33.2910   47.5400 C   0  0  0  0  0  0  0  0  0  0  0  0
   58.9570   32.6990   49.1900 Cl  0  0  0  0  0  0  0  0  0  0  0  0
   58.1760   32.5490   46.5700 C   0  0  0  0  0  0  0  0  0  0  0  0
   56.2054   28.8904   42.5219 H   0  0  0  0  0  0  0  0  0  0  0  0
   57.5699   30.0489   42.7944 H   0  0  0  0  0  0  0  0  0  0  0  0
   57.1363   27.3013   44.0407 H   0  0  0  0  0  0  0  0  0  0  0  0
   58.5285   27.8985   43.0532 H   0  0  0  0  0  0  0  0  0  0  0  0
   61.2207   30.3215   45.8484 H   0  0  0  0  0  0  0  0  0  0  0  0
   60.4814   29.6611   48.1450 H   0  0  0  0  0  0  0  0  0  0  0  0
   58.4122   28.2784   48.4124 H   0  0  0  0  0  0  0  0  0  0  0  0
   58.1282   31.6445   43.6171 H   0  0  0  0  0  0  0  0  0  0  0  0
   56.8245   32.8762   43.5361 H   0  0  0  0  0  0  0  0  0  0  0  0
   58.6739   34.5981   43.8720 H   0  0  0  0  0  0  0  0  0  0  0  0
   59.8829   35.9204   45.6090 H   0  0  0  0  0  0  0  0  0  0  0  0
   59.9998   35.0885   47.9595 H   0  0  0  0  0  0  0  0  0  0  0  0
   57.7031   31.5939   46.8423 H   0  0  0  0  0  0  0  0  0  0  0  0
  1  2  2  0
  2  3  1  0
  3  4  1  0
  4  5  1  0
  5  6  1  0
  6  7  2  0
  7  8  1  0
  8  9  2  0
  9 10  1  0
 10 11  2  0
  2 12  1  0
 12 13  1  0
 13 14  1  0
 14 15  2  0
 15 16  1  0
 16 17  2  0
 17 18  1  0
 18 19  1  0
 18 20  2  0
 10  5  1  0
 20 14  1  0
  3 21  1  0
  3 22  1  0
  4 23  1  0
  4 24  1  0
  7 25  1  0
  8 26  1  0
  9 27  1  0
 13 28  1  0
 13 29  1  0
 15 30  1  0
 16 31  1  0
 17 32  1  0
 20 33  1  0
M  CHG  1  12  -1
M  END
>  <UniqueID>  (62) 
54

>  <SMILES>  (62) 
O=C(CCn1ncccc1=O)[N-]Cc1cccc(Cl)c1

>  <Energy>  (62) 
28.059267296030928

>  <Genealogy>  (62) 
O=C(CCn1ncccc1=O)[N-]Cc1cccc(Cl)c1 (protonated)
O=C(CCn1ncccc1=O)[N-]Cc1cccc(Cl)c1 (3D coordinates assigned)
O=C(CCn1ncccc1=O)[N-]Cc1cccc(Cl)c1 (optimized conformer: 28.059267296030928 kcal/mol)

>  <smiles>  (62) 
O=C(CCn1ncccc1=O)NCc1cccc(Cl)c1

>  <score_type>  (62) 
oracle

>  <origin>  (62) 
adg

>  <m_score__min__energy>  (62) 
-9.3599999999999994

>  <m_primary>  (62) 
energy

$$$$
62:0
     RDKit          3D

 31 32  0  0  0  0  0  0  0  0999 V2000
   60.9910   34.1720   47.2980 C   0  0  0  0  0  0  0  0  0  0  0  0
   59.8390   33.5070   46.6060 C   0  0  0  0  0  0  0  0  0  0  0  0
   59.0950   34.1940   45.6420 C   0  0  0  0  0  0  0  0  0  0  0  0
   58.0010   33.5810   45.0310 C   0  0  0  0  0  0  0  0  0  0  0  0
   57.6470   32.2640   45.3940 C   0  0  0  0  0  0  0  0  0  0  0  0
   56.6320   31.6320   44.8670 N   0  0  0  0  0  0  0  0  0  0  0  0
   56.5810   30.8200   43.6810 C   0  0  0  0  0  0  0  0  0  0  0  0
   57.3930   30.9900   42.7340 O   0  0  0  0  0  0  0  0  0  0  0  0
   55.5790   29.7160   43.6020 C   0  0  0  0  0  0  0  0  0  0  0  0
   55.5380   29.0180   44.8790 N   0  0  0  0  0  0  0  0  0  0  0  0
   56.5090   28.0850   45.3750 C   0  0  0  0  0  0  0  0  0  0  0  0
   56.0950   27.0050   45.8730 O   0  0  0  0  0  0  0  0  0  0  0  0
   57.9640   28.3390   45.3790 C   0  0  0  0  0  0  0  0  0  0  0  0
   58.8550   28.2000   44.3280 C   0  0  0  0  0  0  0  0  0  0  0  0
   60.0920   28.5250   44.8400 C   0  0  0  0  0  0  0  0  0  0  0  0
   59.8890   28.8340   46.1680 C   0  0  0  0  0  0  0  0  0  0  0  0
   58.6150   28.7090   46.4590 O   0  0  0  0  0  0  0  0  0  0  0  0
   58.3680   31.6320   46.3660 N   0  0  0  0  0  0  0  0  0  0  0  0
   59.4390   32.2170   46.9700 C   0  0  0  0  0  0  0  0  0  0  0  0
   60.8582   34.0953   48.3873 H   0  0  0  0  0  0  0  0  0  0  0  0
   61.9290   33.6764   47.0072 H   0  0  0  0  0  0  0  0  0  0  0  0
   61.0310   35.2321   47.0072 H   0  0  0  0  0  0  0  0  0  0  0  0
   59.3733   35.2214   45.3644 H   0  0  0  0  0  0  0  0  0  0  0  0
   57.4177   34.1210   44.2707 H   0  0  0  0  0  0  0  0  0  0  0  0
   54.5865   30.1345   43.3789 H   0  0  0  0  0  0  0  0  0  0  0  0
   55.8633   29.0137   42.8046 H   0  0  0  0  0  0  0  0  0  0  0  0
   58.6230   27.8934   43.2974 H   0  0  0  0  0  0  0  0  0  0  0  0
   61.0492   28.5358   44.2981 H   0  0  0  0  0  0  0  0  0  0  0  0
   60.6743   29.1387   46.8755 H   0  0  0  0  0  0  0  0  0  0  0  0
   58.1010   30.6650   46.6600 H   0  0  0  0  0  0  0  0  0  0  0  0
   59.9928   31.6720   47.7486 H   0  0  0  0  0  0  0  0  0  0  0  0
  1  2  1  0
  2  3  1  0
  3  4  2  0
  4  5  1  0
  5  6  2  3
  6  7  1  0
  7  8  2  0
  7  9  1  0
  9 10  1  0
 10 11  1  0
 11 12  2  0
 11 13  1  0
 13 14  2  0
 14 15  1  0
 15 16  2  0
 16 17  1  0
  5 18  1  0
 18 19  1  0
 19  2  2  0
 17 13  1  0
  1 20  1  0
  1 21  1  0
  1 22  1  0
  3 23  1  0
  4 24  1  0
  9 25  1  0
  9 26  1  0
 14 27  1  0
 15 28  1  0
 16 29  1  0
 18 30  1  0
 19 31  1  0
M  CHG  1  10  -1
M  END
>  <UniqueID>  (63) 
55

>  <SMILES>  (63) 
Cc1ccc(=NC(=O)C[N-]C(=O)c2ccco2)[nH]c1

>  <Energy>  (63) 
64.86841492113487

>  <Genealogy>  (63) 
Cc1ccc(=NC(=O)C[N-]C(=O)c2ccco2)[nH]c1 (protonated)
Cc1ccc(=NC(=O)C[N-]C(=O)c2ccco2)[nH]c1 (3D coordinates assigned)
Cc1ccc(=NC(=O)C[N-]C(=O)c2ccco2)[nH]c1 (optimized conformer: 64.86841492113487 kcal/mol)

>  <smiles>  (63) 
Cc1ccc(=NC(=O)CNC(=O)c2ccco2)[nH]c1

>  <score_type>  (63) 
oracle

>  <origin>  (63) 
adg

>  <m_score__min__energy>  (63) 
-8.4399999999999995

>  <m_primary>  (63) 
energy

$$$$
63:0
     RDKit          3D

 18 18  0  0  0  0  0  0  0  0999 V2000
   54.8510   26.3410   45.9770 N   0  0  0  0  0  0  0  0  0  0  0  0
   56.2730   25.3720   46.1310 S   0  0  0  0  0  0  0  0  0  0  0  0
   56.1900   24.2090   45.1830 O   0  0  0  0  0  0  0  0  0  0  0  0
   56.3710   24.8440   47.5340 O   0  0  0  0  0  0  0  0  0  0  0  0
   57.6920   26.3460   45.7600 C   0  0  0  0  0  0  0  0  0  0  0  0
   57.7810   27.0230   44.5350 C   0  0  0  0  0  0  0  0  0  0  0  0
   58.9120   27.7870   44.2330 C   0  0  0  0  0  0  0  0  0  0  0  0
   59.9680   27.8770   45.1520 C   0  0  0  0  0  0  0  0  0  0  0  0
   61.1250   28.6590   44.8440 N   0  0  0  0  0  0  0  0  0  0  0  0
   59.8820   27.1930   46.3730 C   0  0  0  0  0  0  0  0  0  0  0  0
   58.7510   26.4300   46.6750 C   0  0  0  0  0  0  0  0  0  0  0  0
   55.1520   27.3380   46.0500 H   0  0  0  0  0  0  0  0  0  0  0  0
   56.9576   26.9525   43.8090 H   0  0  0  0  0  0  0  0  0  0  0  0
   58.9741   28.3190   43.2722 H   0  0  0  0  0  0  0  0  0  0  0  0
   61.7890   28.3590   44.0960 H   0  0  0  0  0  0  0  0  0  0  0  0
   61.3260   29.5440   45.3620 H   0  0  0  0  0  0  0  0  0  0  0  0
   60.7084   27.2573   47.0962 H   0  0  0  0  0  0  0  0  0  0  0  0
   58.6913   25.8936   47.6335 H   0  0  0  0  0  0  0  0  0  0  0  0
  1  2  1  0
  2  3  2  0
  2  4  2  0
  2  5  1  0
  5  6  2  0
  6  7  1  0
  7  8  2  0
  8  9  1  0
  8 10  1  0
 10 11  2  0
 11  5  1  0
  1 12  1  0
  6 13  1  0
  7 14  1  0
  9 15  1  0
  9 16  1  0
 10 17  1  0
 11 18  1  0
M  CHG  1   1  -1
M  END
>  <UniqueID>  (64) 
56

>  <SMILES>  (64) 
[NH-]S(=O)(=O)c1ccc(N)cc1

>  <Energy>  (64) 
15.226837241819746

>  <Genealogy>  (64) 
[NH-]S(=O)(=O)c1ccc(N)cc1 (protonated)
[NH-]S(=O)(=O)c1ccc(N)cc1 (3D coordinates assigned)
[NH-]S(=O)(=O)c1ccc(N)cc1 (optimized conformer: 15.226837241819746 kcal/mol)

>  <smiles>  (64) 
Nc1ccc(S(N)(=O)=O)cc1

>  <score_type>  (64) 
oracle

>  <origin>  (64) 
adg

>  <m_score__min__energy>  (64) 
-7.6699999999999999

>  <m_primary>  (64) 
energy

$$$$
64:0
     RDKit          3D

 65 69  0  0  0  0  0  0  0  0999 V2000
   59.4440   34.3752   44.8855 H   0  0  0  0  0  0  0  0  0  0  0  0
   58.8610   33.4600   44.7050 C   0  0  0  0  0  0  0  0  0  0  0  0
   58.5180   33.0950   43.3990 C   0  0  0  0  0  0  0  0  0  0  0  0
   58.8299   33.7240   42.5522 H   0  0  0  0  0  0  0  0  0  0  0  0
   57.7790   31.9310   43.1700 C   0  0  0  0  0  0  0  0  0  0  0  0
   57.5122   31.6447   42.1420 H   0  0  0  0  0  0  0  0  0  0  0  0
   57.3760   31.1260   44.2470 C   0  0  0  0  0  0  0  0  0  0  0  0
   56.4650   29.6400   43.9680 S   0  0  0  0  0  0  0  0  0  0  0  0
   56.0170   29.5890   42.5350 O   0  0  0  0  0  0  0  0  0  0  0  0
   55.2520   29.6470   44.8500 O   0  0  0  0  0  0  0  0  0  0  0  0
   57.4000   28.2190   44.3130 N   0  0  0  0  0  0  0  0  0  0  0  0
   58.2770   28.0820   45.4320 C   0  0  0  0  0  0  0  0  0  0  0  0
   59.5450   28.6760   45.4440 C   0  0  0  0  0  0  0  0  0  0  0  0
   59.8875   29.2525   44.5720 H   0  0  0  0  0  0  0  0  0  0  0  0
   60.3790   28.5400   46.5600 C   0  0  0  0  0  0  0  0  0  0  0  0
   61.3609   29.0356   46.5743 H   0  0  0  0  0  0  0  0  0  0  0  0
   59.9650   27.7710   47.6640 C   0  0  0  0  0  0  0  0  0  0  0  0
   60.7530   27.6410   48.8620 N   0  0  0  0  0  0  0  0  0  0  0  0
   60.8710   28.4900   49.8410 C   0  0  0  0  0  0  0  0  0  0  0  0
   61.5530   29.6470   49.6330 N   0  0  0  0  0  0  0  0  0  0  0  0
   61.6680   30.5670   50.6220 C   0  0  0  0  0  0  0  0  0  0  0  0
   62.3570   31.6520   50.4150 N   0  0  0  0  0  0  0  0  0  0  0  0
   62.4300   32.3730   49.1710 C   0  0  0  0  0  0  0  0  0  0  0  0
   63.6740   32.6470   48.5710 C   0  0  0  0  0  0  0  0  0  0  0  0
   64.6017   32.3148   49.0598 H   0  0  0  0  0  0  0  0  0  0  0  0
   63.7370   33.3380   47.3590 C   0  0  0  0  0  0  0  0  0  0  0  0
   64.7117   33.5368   46.8895 H   0  0  0  0  0  0  0  0  0  0  0  0
   62.5650   33.7760   46.7440 C   0  0  0  0  0  0  0  0  0  0  0  0
   62.6162   34.3076   45.7823 H   0  0  0  0  0  0  0  0  0  0  0  0
   61.3260   33.5420   47.3450 C   0  0  0  0  0  0  0  0  0  0  0  0
   60.4062   33.8997   46.8592 H   0  0  0  0  0  0  0  0  0  0  0  0
   61.2480   32.8520   48.5670 C   0  0  0  0  0  0  0  0  0  0  0  0
   59.6760   32.5470   49.3240 S   0  0  0  0  0  0  0  0  0  0  0  0
   58.6120   33.2880   48.5660 O   0  0  0  0  0  0  0  0  0  0  0  0
   59.7100   33.0400   50.7420 O   0  0  0  0  0  0  0  0  0  0  0  0
   59.2740   30.8640   49.3260 N   0  0  0  0  0  0  0  0  0  0  0  0
   59.8130   30.4110   48.5560 H   0  0  0  0  0  0  0  0  0  0  0  0
   59.6070   30.4590   50.2300 H   0  0  0  0  0  0  0  0  0  0  0  0
   61.1020   30.3200   51.8310 N   0  0  0  0  0  0  0  0  0  0  0  0
   60.4180   29.1690   52.0530 C   0  0  0  0  0  0  0  0  0  0  0  0
   59.8830   28.9250   53.2140 N   0  0  0  0  0  0  0  0  0  0  0  0
   58.4520   29.0300   53.5100 C   0  0  0  0  0  0  0  0  0  0  0  0
   58.0404   28.0201   53.6535 H   0  0  0  0  0  0  0  0  0  0  0  0
   58.3286   29.6327   54.4219 H   0  0  0  0  0  0  0  0  0  0  0  0
   57.6950   29.7220   52.3630 C   0  0  1  0  0  0  0  0  0  0  0  0
   58.1702   29.3977   51.4254 H   0  0  0  0  0  0  0  0  0  0  0  0
   56.3330   29.3440   52.3590 O   0  0  0  0  0  0  0  0  0  0  0  0
   55.5610   30.5150   52.4540 C   0  0  0  0  0  0  0  0  0  0  0  0
   55.1979   30.6354   53.4853 H   0  0  0  0  0  0  0  0  0  0  0  0
   54.6984   30.4492   51.7745 H   0  0  0  0  0  0  0  0  0  0  0  0
   56.4190   31.6970   52.0780 C   0  0  0  0  0  0  0  0  0  0  0  0
   56.1275   32.5946   52.6431 H   0  0  0  0  0  0  0  0  0  0  0  0
   56.3320   31.9805   51.0187 H   0  0  0  0  0  0  0  0  0  0  0  0
   57.7910   31.2410   52.4600 C   0  0  0  0  0  0  0  0  0  0  0  0
   58.0400   31.5556   53.4842 H   0  0  0  0  0  0  0  0  0  0  0  0
   58.5793   31.6644   51.8202 H   0  0  0  0  0  0  0  0  0  0  0  0
   60.2950   28.2620   51.0530 N   0  0  0  0  0  0  0  0  0  0  0  0
   58.6990   27.1760   47.6390 C   0  0  0  0  0  0  0  0  0  0  0  0
   58.3534   26.5945   48.5064 H   0  0  0  0  0  0  0  0  0  0  0  0
   57.8700   27.3130   46.5240 C   0  0  0  0  0  0  0  0  0  0  0  0
   56.8907   26.8123   46.5057 H   0  0  0  0  0  0  0  0  0  0  0  0
   57.7190   31.4980   45.5540 C   0  0  0  0  0  0  0  0  0  0  0  0
   57.4027   30.8739   46.4028 H   0  0  0  0  0  0  0  0  0  0  0  0
   58.4620   32.6600   45.7820 C   0  0  0  0  0  0  0  0  0  0  0  0
   58.7334   32.9459   46.8089 H   0  0  0  0  0  0  0  0  0  0  0  0
  1  2  1  0
  2  3  2  0
  3  4  1  0
  3  5  1  0
  5  6  1  0
  5  7  2  0
  7  8  1  0
  8  9  2  0
  8 10  2  0
  8 11  1  0
 11 12  1  0
 12 13  2  0
 13 14  1  0
 13 15  1  0
 15 16  1  0
 15 17  2  0
 17 18  1  0
 18 19  2  0
 19 20  1  0
 20 21  1  0
 21 22  2  3
 22 23  1  0
 23 24  2  0
 24 25  1  0
 24 26  1  0
 26 27  1  0
 26 28  2  0
 28 29  1  0
 28 30  1  0
 30 31  1  0
 30 32  2  0
 32 33  1  0
 33 34  2  0
 33 35  2  0
 33 36  1  0
 36 37  1  0
 36 38  1  0
 21 39  1  0
 39 40  1  0
 40 41  2  3
 41 42  1  0
 42 43  1  0
 42 44  1  0
 42 45  1  0
 45 46  1  6
 45 47  1  0
 47 48  1  0
 48 49  1  0
 48 50  1  0
 48 51  1  0
 51 52  1  0
 51 53  1  0
 51 54  1  0
 54 55  1  0
 54 56  1  0
 40 57  1  0
 17 58  1  0
 58 59  1  0
 58 60  2  0
 60 61  1  0
  7 62  1  0
 62 63  1  0
 62 64  2  0
 64 65  1  0
 64  2  1  0
 60 12  1  0
 57 19  1  0
 32 23  1  0
 54 45  1  0
M  CHG  4  11  -1  20  -1  39  -1  57  -1
M  END
>  <UniqueID>  (65) 
57

>  <SMILES>  (65) 
NS(=O)(=O)c1ccccc1N=c1[n-]c(=NC[C@@H]2CCCO2)[n-]/c(=N\c2ccc([N-]S(=O)(=O)c3ccccc3)cc2)[n-]1

>  <Energy>  (65) 
88.0452728489463

>  <Genealogy>  (65) 
NS(=O)(=O)c1ccccc1N=c1[n-]c(=NCC2CCCO2)[n-]c(=Nc2ccc([N-]S(=O)(=O)c3ccccc3)cc2)[n-]1 (protonated)
NS(=O)(=O)c1ccccc1N=c1[n-]c(=NC[C@@H]2CCCO2)[n-]c(=Nc2ccc([N-]S(=O)(=O)c3ccccc3)cc2)[n-]1 (chirality)
NS(=O)(=O)c1ccccc1N=c1[n-]c(=NC[C@@H]2CCCO2)[n-]/c(=N\c2ccc([N-]S(=O)(=O)c3ccccc3)cc2)[n-]1 (cis-trans isomerization)
NS(=O)(=O)c1ccccc1N=c1[n-]c(=NC[C@@H]2CCCO2)[n-]/c(=N\c2ccc([N-]S(=O)(=O)c3ccccc3)cc2)[n-]1 (3D coordinates assigned)
NS(=O)(=O)c1ccccc1N=c1[n-]c(=NC[C@@H]2CCCO2)[n-]/c(=N\c2ccc([N-]S(=O)(=O)c3ccccc3)cc2)[n-]1 (nonaromatic ring conformer: 88.0452728489463 kcal/mol)

>  <smiles>  (65) 
NS(=O)(=O)c1ccccc1N=c1[nH]c(=NCC2CCCO2)[nH]c(=Nc2ccc(NS(=O)(=O)c3ccccc3)cc2)[nH]1

>  <score_type>  (65) 
oracle

>  <origin>  (65) 
adg

>  <m_score__min__energy>  (65) 
-16.66

>  <m_primary>  (65) 
energy

$$$$
65:0
     RDKit          3D

 69 74  0  0  0  0  0  0  0  0999 V2000
   64.5220   32.2440   47.2250 H   0  0  0  0  0  0  0  0  0  0  0  0
   63.5570   32.1730   47.6190 N   0  0  0  0  0  0  0  0  0  0  0  0
   62.8160   33.7210   47.4120 S   0  0  0  0  0  0  0  0  0  0  0  0
   63.6910   34.5790   46.5390 O   0  0  0  0  0  0  0  0  0  0  0  0
   62.6620   34.3870   48.7500 O   0  0  0  0  0  0  0  0  0  0  0  0
   61.2330   33.5230   46.6670 C   0  0  0  0  0  0  0  0  0  0  0  0
   60.7250   32.2450   46.3980 C   0  0  0  0  0  0  0  0  0  0  0  0
   61.3147   31.3543   46.6605 H   0  0  0  0  0  0  0  0  0  0  0  0
   59.4710   32.0980   45.7970 C   0  0  0  0  0  0  0  0  0  0  0  0
   59.0800   31.0921   45.5844 H   0  0  0  0  0  0  0  0  0  0  0  0
   58.7070   33.2320   45.4630 C   0  0  0  0  0  0  0  0  0  0  0  0
   57.4270   33.1140   44.8290 N   0  0  0  0  0  0  0  0  0  0  0  0
   56.6670   32.1160   45.0330 N   0  0  0  0  0  0  0  0  0  0  0  0
   57.0410   30.7920   44.6450 C   0  0  0  0  0  0  0  0  0  0  0  0
   56.9320   30.1990   43.3950 C   0  0  0  0  0  0  0  0  0  0  0  0
   56.4010   30.8040   42.2630 O   0  0  0  0  0  0  0  0  0  0  0  0
   57.4130   28.9310   43.4010 N   0  0  0  0  0  0  0  0  0  0  0  0
   57.8270   28.7420   44.6710 C   0  0  0  0  0  0  0  0  0  0  0  0
   58.4060   27.5880   45.1910 C   0  0  0  0  0  0  0  0  0  0  0  0
   58.5658   26.7043   44.5557 H   0  0  0  0  0  0  0  0  0  0  0  0
   58.7840   27.5760   46.5520 C   0  0  0  0  0  0  0  0  0  0  0  0
   59.4110   26.0720   47.2400 S   0  0  0  0  0  0  0  0  0  0  0  0
   60.1180   26.3680   48.5310 O   0  0  0  0  0  0  0  0  0  0  0  0
   60.3870   25.4270   46.2980 O   0  0  0  0  0  0  0  0  0  0  0  0
   58.0970   24.9830   47.5310 N   0  0  0  0  0  0  0  0  0  0  0  0
   57.2150   24.5680   46.4880 C   0  0  0  0  0  0  0  0  0  0  0  0
   55.9640   25.1840   46.3140 C   0  0  0  0  0  0  0  0  0  0  0  0
   55.6439   25.9808   47.0015 H   0  0  0  0  0  0  0  0  0  0  0  0
   55.1260   24.7860   45.2690 C   0  0  0  0  0  0  0  0  0  0  0  0
   54.1498   25.2738   45.1308 H   0  0  0  0  0  0  0  0  0  0  0  0
   55.5280   23.7680   44.3990 C   0  0  0  0  0  0  0  0  0  0  0  0
   54.8675   23.4557   43.5767 H   0  0  0  0  0  0  0  0  0  0  0  0
   56.7710   23.1450   44.5730 C   0  0  0  0  0  0  0  0  0  0  0  0
   57.2700   21.8540   43.4920 Cl  0  0  0  0  0  0  0  0  0  0  0  0
   57.6180   23.5560   45.6070 C   0  0  0  0  0  0  0  0  0  0  0  0
   58.6037   23.0833   45.7290 H   0  0  0  0  0  0  0  0  0  0  0  0
   58.5860   28.7470   47.3540 C   0  0  0  0  0  0  0  0  0  0  0  0
   58.9590   28.8100   48.7020 O   0  0  0  0  0  0  0  0  0  0  0  0
   59.9570   29.6430   49.2320 C   0  0  0  0  0  0  0  0  0  0  0  0
   61.1400   29.0370   49.6670 C   0  0  0  0  0  0  0  0  0  0  0  0
   61.2320   27.9413   49.6363 H   0  0  0  0  0  0  0  0  0  0  0  0
   62.2040   29.8040   50.1390 C   0  0  0  0  0  0  0  0  0  0  0  0
   63.1365   29.3105   50.4503 H   0  0  0  0  0  0  0  0  0  0  0  0
   62.0950   31.1990   50.2200 C   0  0  0  0  0  0  0  0  0  0  0  0
   63.2380   32.0120   50.7010 C   0  0  0  0  0  0  0  0  0  0  0  0
   63.0160   33.1740   51.4590 C   0  0  0  0  0  0  0  0  0  0  0  0
   61.9873   33.4886   51.6888 H   0  0  0  0  0  0  0  0  0  0  0  0
   64.0950   33.9330   51.9230 C   0  0  0  0  0  0  0  0  0  0  0  0
   63.8720   35.0470   52.6590 F   0  0  0  0  0  0  0  0  0  0  0  0
   65.4040   33.5410   51.6330 C   0  0  0  0  0  0  0  0  0  0  0  0
   66.2513   34.1383   52.0010 H   0  0  0  0  0  0  0  0  0  0  0  0
   65.6370   32.3910   50.8760 C   0  0  0  0  0  0  0  0  0  0  0  0
   66.9080   32.0170   50.5870 F   0  0  0  0  0  0  0  0  0  0  0  0
   64.5600   31.6270   50.4130 C   0  0  0  0  0  0  0  0  0  0  0  0
   64.7483   30.7198   49.8202 H   0  0  0  0  0  0  0  0  0  0  0  0
   60.8880   31.8110   49.8440 C   0  0  0  0  0  0  0  0  0  0  0  0
   60.7873   32.9036   49.9213 H   0  0  0  0  0  0  0  0  0  0  0  0
   59.8060   31.0470   49.3700 C   0  0  0  0  0  0  0  0  0  0  0  0
   58.5160   31.7460   49.0390 C   0  0  0  0  0  0  0  0  0  0  0  0
   58.0009   32.0251   49.9700 H   0  0  0  0  0  0  0  0  0  0  0  0
   58.7297   32.6517   48.4525 H   0  0  0  0  0  0  0  0  0  0  0  0
   57.8740   31.0724   48.4525 H   0  0  0  0  0  0  0  0  0  0  0  0
   57.9680   29.8830   46.7970 C   0  0  0  0  0  0  0  0  0  0  0  0
   57.7698   30.7752   47.4091 H   0  0  0  0  0  0  0  0  0  0  0  0
   57.6150   29.8470   45.4530 C   0  0  0  0  0  0  0  0  0  0  0  0
   59.2120   34.5070   45.7460 C   0  0  0  0  0  0  0  0  0  0  0  0
   58.6183   35.3988   45.4965 H   0  0  0  0  0  0  0  0  0  0  0  0
   60.4690   34.6520   46.3450 C   0  0  0  0  0  0  0  0  0  0  0  0
   60.8585   35.6572   46.5638 H   0  0  0  0  0  0  0  0  0  0  0  0
  1  2  1  0
  2  3  1  0
  3  4  2  0
  3  5  2  0
  3  6  1  0
  6  7  2  0
  7  8  1  0
  7  9  1  0
  9 10  1  0
  9 11  2  0
 11 12  1  0
 12 13  2  0
 13 14  1  0
 14 15  2  0
 15 16  1  0
 15 17  1  0
 17 18  1  0
 18 19  2  0
 19 20  1  0
 19 21  1  0
 21 22  1  0
 22 23  2  0
 22 24  2  0
 22 25  1  0
 25 26  1  0
 26 27  2  0
 27 28  1  0
 27 29  1  0
 29 30  1  0
 29 31  2  0
 31 32  1  0
 31 33  1  0
 33 34  1  0
 33 35  2  0
 35 36  1  0
 21 37  2  0
 37 38  1  0
 38 39  1  0
 39 40  2  0
 40 41  1  0
 40 42  1  0
 42 43  1  0
 42 44  2  0
 44 45  1  0
 45 46  2  0
 46 47  1  0
 46 48  1  0
 48 49  1  0
 48 50  2  0
 50 51  1  0
 50 52  1  0
 52 53  1  0
 52 54  2  0
 54 55  1  0
 44 56  1  0
 56 57  1  0
 56 58  2  0
 58 59  1  0
 59 60  1  0
 59 61  1  0
 59 62  1  0
 37 63  1  0
 63 64  1  0
 63 65  2  0
 11 66  1  0
 66 67  1  0
 66 68  2  0
 68 69  1  0
 68  6  1  0
 65 14  1  0
 65 18  1  0
 35 26  1  0
 58 39  1  0
 54 45  1  0
M  CHG  4   2  -1  16  -1  17  -1  25  -1
M  END
>  <UniqueID>  (66) 
58

>  <SMILES>  (66) 
Cc1cc(-c2cc(F)cc(F)c2)ccc1Oc1cc2c(/N=N/c3ccc(S([NH-])(=O)=O)cc3)c([O-])[n-]c2cc1S(=O)(=O)[N-]c1cccc(Cl)c1

>  <Energy>  (66) 
135.95332818081948

>  <Genealogy>  (66) 
Cc1cc(-c2cc(F)cc(F)c2)ccc1Oc1cc2c(N=Nc3ccc(S([NH-])(=O)=O)cc3)c([O-])[n-]c2cc1S(=O)(=O)[N-]c1cccc(Cl)c1 (protonated)
Cc1cc(-c2cc(F)cc(F)c2)ccc1Oc1cc2c(/N=N/c3ccc(S([NH-])(=O)=O)cc3)c([O-])[n-]c2cc1S(=O)(=O)[N-]c1cccc(Cl)c1 (cis-trans isomerization)
Cc1cc(-c2cc(F)cc(F)c2)ccc1Oc1cc2c(/N=N/c3ccc(S([NH-])(=O)=O)cc3)c([O-])[n-]c2cc1S(=O)(=O)[N-]c1cccc(Cl)c1 (3D coordinates assigned)
Cc1cc(-c2cc(F)cc(F)c2)ccc1Oc1cc2c(/N=N/c3ccc(S([NH-])(=O)=O)cc3)c([O-])[n-]c2cc1S(=O)(=O)[N-]c1cccc(Cl)c1 (optimized conformer: 135.95332818081948 kcal/mol)

>  <smiles>  (66) 
Cc1cc(-c2cc(F)cc(F)c2)ccc1Oc1cc2c(N=Nc3ccc(S(N)(=O)=O)cc3)c(O)[nH]c2cc1S(=O)(=O)Nc1cccc(Cl)c1

>  <score_type>  (66) 
oracle

>  <origin>  (66) 
adg

>  <m_score__min__energy>  (66) 
-16.460000000000001

>  <m_primary>  (66) 
energy

$$$$
66:0
     RDKit          3D

 39 40  0  0  0  0  0  0  0  0999 V2000
   62.5250   34.2520   49.1150 C   0  0  0  0  0  0  0  0  0  0  0  0
   62.7720   33.2650   47.9990 C   0  0  0  0  0  0  0  0  0  0  0  0
   63.1590   33.7660   46.6320 C   0  0  0  0  0  0  0  0  0  0  0  0
   62.6630   31.9330   48.1920 C   0  0  0  0  0  0  0  0  0  0  0  0
   62.1950   30.9660   47.1350 C   0  0  0  0  0  0  0  0  0  0  0  0
   60.7890   30.7410   47.2350 O   0  0  0  0  0  0  0  0  0  0  0  0
   59.9820   30.1110   46.2680 C   0  0  0  0  0  0  0  0  0  0  0  0
   60.4910   29.0860   45.4490 C   0  0  0  0  0  0  0  0  0  0  0  0
   59.6680   28.4760   44.5090 C   0  0  0  0  0  0  0  0  0  0  0  0
   58.3450   28.8790   44.3870 C   0  0  0  0  0  0  0  0  0  0  0  0
   57.8530   29.8960   45.2060 C   0  0  0  0  0  0  0  0  0  0  0  0
   56.6460   30.2430   45.0810 O   0  0  0  0  0  0  0  0  0  0  0  0
   58.6710   30.5060   46.1310 N   0  0  0  0  0  0  0  0  0  0  0  0
   58.1430   31.5710   47.0080 C   0  0  0  0  0  0  0  0  0  0  0  0
   58.6830   32.9150   46.5930 C   0  0  0  0  0  0  0  0  0  0  0  0
   59.2540   33.7800   47.5420 C   0  0  0  0  0  0  0  0  0  0  0  0
   59.7330   35.0350   47.1540 C   0  0  0  0  0  0  0  0  0  0  0  0
   59.6440   35.4360   45.8190 C   0  0  0  0  0  0  0  0  0  0  0  0
   59.0760   34.5830   44.8680 C   0  0  0  0  0  0  0  0  0  0  0  0
   58.5970   33.3270   45.2520 C   0  0  0  0  0  0  0  0  0  0  0  0
   62.6511   33.7482   50.0847 H   0  0  0  0  0  0  0  0  0  0  0  0
   63.2433   35.0814   49.0366 H   0  0  0  0  0  0  0  0  0  0  0  0
   61.5007   34.6453   49.0366 H   0  0  0  0  0  0  0  0  0  0  0  0
   63.8285   34.6327   46.7351 H   0  0  0  0  0  0  0  0  0  0  0  0
   63.6763   32.9665   46.0814 H   0  0  0  0  0  0  0  0  0  0  0  0
   62.2548   34.0646   46.0814 H   0  0  0  0  0  0  0  0  0  0  0  0
   62.9318   31.5297   49.1795 H   0  0  0  0  0  0  0  0  0  0  0  0
   62.4234   31.3802   46.1419 H   0  0  0  0  0  0  0  0  0  0  0  0
   62.7149   30.0077   47.2814 H   0  0  0  0  0  0  0  0  0  0  0  0
   61.5389   28.7678   45.5524 H   0  0  0  0  0  0  0  0  0  0  0  0
   60.0635   27.6772   43.8644 H   0  0  0  0  0  0  0  0  0  0  0  0
   57.6873   28.3985   43.6477 H   0  0  0  0  0  0  0  0  0  0  0  0
   57.0453   31.5853   46.9389 H   0  0  0  0  0  0  0  0  0  0  0  0
   58.4562   31.3667   48.0425 H   0  0  0  0  0  0  0  0  0  0  0  0
   59.3244   33.4684   48.5946 H   0  0  0  0  0  0  0  0  0  0  0  0
   60.1804   35.7073   47.9009 H   0  0  0  0  0  0  0  0  0  0  0  0
   60.0211   36.4238   45.5156 H   0  0  0  0  0  0  0  0  0  0  0  0
   59.0060   34.9003   43.8171 H   0  0  0  0  0  0  0  0  0  0  0  0
   58.1508   32.6582   44.5013 H   0  0  0  0  0  0  0  0  0  0  0  0
  1  2  1  0
  2  3  1  0
  2  4  2  3
  4  5  1  0
  5  6  1  0
  6  7  1  0
  7  8  2  0
  8  9  1  0
  9 10  2  0
 10 11  1  0
 11 12  2  0
 11 13  1  0
 13 14  1  0
 14 15  1  0
 15 16  2  0
 16 17  1  0
 17 18  2  0
 18 19  1  0
 19 20  2  0
 13  7  1  0
 20 15  1  0
  1 21  1  0
  1 22  1  0
  1 23  1  0
  3 24  1  0
  3 25  1  0
  3 26  1  0
  4 27  1  0
  5 28  1  0
  5 29  1  0
  8 30  1  0
  9 31  1  0
 10 32  1  0
 14 33  1  0
 14 34  1  0
 16 35  1  0
 17 36  1  0
 18 37  1  0
 19 38  1  0
 20 39  1  0
M  END
>  <UniqueID>  (67) 
59

>  <SMILES>  (67) 
CC(C)=CCOc1cccc(=O)n1Cc1ccccc1

>  <Energy>  (67) 
36.8145088951918

>  <Genealogy>  (67) 
CC(C)=CCOc1cccc(=O)n1Cc1ccccc1 (3D coordinates assigned)
CC(C)=CCOc1cccc(=O)n1Cc1ccccc1 (optimized conformer: 36.8145088951918 kcal/mol)

>  <smiles>  (67) 
CC(C)=CCOc1cccc(=O)n1Cc1ccccc1

>  <score_type>  (67) 
oracle

>  <origin>  (67) 
adg

>  <m_score__min__energy>  (67) 
-6.4400000000000004

>  <m_primary>  (67) 
energy

$$$$
67:0
     RDKit          3D

 43 45  0  0  0  0  0  0  0  0999 V2000
   59.6145   28.3778   44.7193 H   0  0  0  0  0  0  0  0  0  0  0  0
   59.6450   28.6010   45.7960 C   0  0  0  0  0  0  0  0  0  0  0  0
   60.0300   29.9600   46.2240 C   0  0  0  0  0  0  0  0  0  0  0  0
   61.0220   30.0880   46.9930 O   0  0  0  0  0  0  0  0  0  0  0  0
   59.3440   31.1270   45.7400 N   0  0  0  0  0  0  0  0  0  0  0  0
   58.7760   31.0460   44.8690 H   0  0  0  0  0  0  0  0  0  0  0  0
   59.5380   32.4320   46.3130 C   0  0  0  0  0  0  0  0  0  0  0  0
   60.8190   32.8170   46.7480 C   0  0  0  0  0  0  0  0  0  0  0  0
   61.6628   32.1193   46.6420 H   0  0  0  0  0  0  0  0  0  0  0  0
   61.0300   34.0760   47.3130 C   0  0  0  0  0  0  0  0  0  0  0  0
   62.0367   34.3668   47.6478 H   0  0  0  0  0  0  0  0  0  0  0  0
   59.9650   34.9650   47.4530 C   0  0  0  0  0  0  0  0  0  0  0  0
   60.1335   35.9579   47.8955 H   0  0  0  0  0  0  0  0  0  0  0  0
   58.6860   34.5980   47.0330 C   0  0  0  0  0  0  0  0  0  0  0  0
   57.8519   35.3066   47.1438 H   0  0  0  0  0  0  0  0  0  0  0  0
   58.4530   33.3300   46.4690 C   0  0  0  0  0  0  0  0  0  0  0  0
   57.0620   32.9880   45.9860 C   0  0  0  0  0  0  0  0  0  0  0  0
   56.5384   32.4158   46.7661 H   0  0  0  0  0  0  0  0  0  0  0  0
   56.5203   33.9211   45.7721 H   0  0  0  0  0  0  0  0  0  0  0  0
   57.1280   32.1690   44.7350 C   0  0  0  0  0  0  0  0  0  0  0  0
   57.7750   32.5750   43.6220 N   0  0  0  0  0  0  0  0  0  0  0  0
   57.6220   31.5470   42.7700 C   0  0  0  0  0  0  0  0  0  0  0  0
   58.0155   31.5076   41.7435 H   0  0  0  0  0  0  0  0  0  0  0  0
   56.8980   30.5540   43.3810 C   0  0  0  0  0  0  0  0  0  0  0  0
   56.6206   29.5940   42.9210 H   0  0  0  0  0  0  0  0  0  0  0  0
   56.5810   30.9380   44.6290 N   0  0  0  0  0  0  0  0  0  0  0  0
   59.3310   27.6270   46.6610 C   0  0  0  0  0  0  0  0  0  0  0  0
   59.7659   27.6673   47.6706 H   0  0  0  0  0  0  0  0  0  0  0  0
   58.4280   26.4970   46.3300 C   0  0  0  0  0  0  0  0  0  0  0  0
   58.9150   25.2130   46.0110 C   0  0  0  0  0  0  0  0  0  0  0  0
   59.9983   25.0223   46.0128 H   0  0  0  0  0  0  0  0  0  0  0  0
   58.0290   24.1830   45.6930 C   0  0  0  0  0  0  0  0  0  0  0  0
   58.4168   23.1820   45.4530 H   0  0  0  0  0  0  0  0  0  0  0  0
   56.6520   24.4170   45.6780 C   0  0  0  0  0  0  0  0  0  0  0  0
   55.9608   23.5972   45.4326 H   0  0  0  0  0  0  0  0  0  0  0  0
   56.1470   25.6870   45.9730 C   0  0  0  0  0  0  0  0  0  0  0  0
   54.7570   25.8740   45.9370 O   0  0  0  0  0  0  0  0  0  0  0  0
   53.8170   24.8530   45.6170 C   0  0  0  0  0  0  0  0  0  0  0  0
   53.4172   24.4187   46.5452 H   0  0  0  0  0  0  0  0  0  0  0  0
   52.9932   25.2842   45.0293 H   0  0  0  0  0  0  0  0  0  0  0  0
   54.3147   24.0675   45.0293 H   0  0  0  0  0  0  0  0  0  0  0  0
   57.0420   26.7270   46.2940 C   0  0  0  0  0  0  0  0  0  0  0  0
   56.6514   27.7304   46.5190 H   0  0  0  0  0  0  0  0  0  0  0  0
  1  2  1  0
  2  3  1  0
  3  4  2  0
  3  5  1  0
  5  6  1  0
  5  7  1  0
  7  8  2  0
  8  9  1  0
  8 10  1  0
 10 11  1  0
 10 12  2  0
 12 13  1  0
 12 14  1  0
 14 15  1  0
 14 16  2  0
 16 17  1  0
 17 18  1  0
 17 19  1  0
 17 20  1  0
 20 21  2  0
 21 22  1  0
 22 23  1  0
 22 24  2  0
 24 25  1  0
 24 26  1  0
  2 27  2  0
 27 28  1  0
 27 29  1  0
 29 30  2  0
 30 31  1  0
 30 32  1  0
 32 33  1  0
 32 34  2  0
 34 35  1  0
 34 36  1  0
 36 37  1  0
 37 38  1  0
 38 39  1  0
 38 40  1  0
 38 41  1  0
 36 42  2  0
 42 43  1  0
 16  7  1  0
 26 20  1  0
 42 29  1  0
M  CHG  1  26  -1
M  END
>  <UniqueID>  (68) 
60

>  <SMILES>  (68) 
COc1cccc(/C=C/C(=O)Nc2ccccc2Cc2ncc[n-]2)c1

>  <Energy>  (68) 
77.54552554825608

>  <Genealogy>  (68) 
COc1cccc(C=CC(=O)Nc2ccccc2Cc2ncc[n-]2)c1 (protonated)
COc1cccc(/C=C/C(=O)Nc2ccccc2Cc2ncc[n-]2)c1 (cis-trans isomerization)
COc1cccc(/C=C/C(=O)Nc2ccccc2Cc2ncc[n-]2)c1 (3D coordinates assigned)
COc1cccc(/C=C/C(=O)Nc2ccccc2Cc2ncc[n-]2)c1 (optimized conformer: 77.54552554825608 kcal/mol)

>  <smiles>  (68) 
COc1cccc(C=CC(=O)Nc2ccccc2Cc2ncc[nH]2)c1

>  <score_type>  (68) 
oracle

>  <origin>  (68) 
adg

>  <m_score__min__energy>  (68) 
-9.2400000000000002

>  <m_primary>  (68) 
energy

$$$$
68:0
     RDKit          3D

 47 49  0  0  0  0  0  0  0  0999 V2000
   55.1590   26.6800   45.9980 N   0  0  0  0  0  0  0  0  0  0  0  0
   56.2990   25.4070   46.2540 S   0  0  0  0  0  0  0  0  0  0  0  0
   57.1620   25.7500   47.4350 O   0  0  0  0  0  0  0  0  0  0  0  0
   55.5630   24.1270   46.5380 O   0  0  0  0  0  0  0  0  0  0  0  0
   57.3350   25.2070   44.8100 C   0  0  0  0  0  0  0  0  0  0  0  0
   57.9610   26.5320   44.3610 C   0  0  0  0  0  0  0  0  0  0  0  0
   58.5740   27.2390   45.4830 N   0  0  0  0  0  0  0  0  0  0  0  0
   59.5570   28.2680   45.3040 C   0  0  0  0  0  0  0  0  0  0  0  0
   59.9080   28.6130   44.1420 O   0  0  0  0  0  0  0  0  0  0  0  0
   60.2130   28.8930   46.5050 C   0  0  1  0  0  0  0  0  0  0  0  0
   59.9510   30.3700   46.5210 C   0  0  0  0  0  0  0  0  0  0  0  0
   60.9420   31.2850   46.6890 N   0  0  0  0  0  0  0  0  0  0  0  0
   60.2780   32.4480   46.6170 C   0  0  0  0  0  0  0  0  0  0  0  0
   60.8000   33.7340   46.7170 C   0  0  0  0  0  0  0  0  0  0  0  0
   59.9040   34.8130   46.6030 C   0  0  0  0  0  0  0  0  0  0  0  0
   58.5250   34.5770   46.3920 C   0  0  0  0  0  0  0  0  0  0  0  0
   58.0340   33.2620   46.2940 C   0  0  0  0  0  0  0  0  0  0  0  0
   58.9520   32.2200   46.4140 C   0  0  0  0  0  0  0  0  0  0  0  0
   58.7110   30.9040   46.3480 N   0  0  0  0  0  0  0  0  0  0  0  0
   59.6610   28.1370   48.0350 S   0  0  0  0  0  0  0  0  0  0  0  0
   59.8660   26.6480   47.9760 O   0  0  0  0  0  0  0  0  0  0  0  0
   58.1970   28.4190   48.2210 O   0  0  0  0  0  0  0  0  0  0  0  0
   60.5660   28.7890   49.4320 C   0  0  0  0  0  0  0  0  0  0  0  0
   60.1950   30.2240   49.6880 C   0  0  0  0  0  0  0  0  0  0  0  0
   58.8450   30.5960   49.8010 C   0  0  0  0  0  0  0  0  0  0  0  0
   58.4970   31.9360   49.9980 C   0  0  0  0  0  0  0  0  0  0  0  0
   59.4930   32.9130   50.0810 C   0  0  0  0  0  0  0  0  0  0  0  0
   60.8380   32.5510   49.9690 C   0  0  0  0  0  0  0  0  0  0  0  0
   61.1900   31.2130   49.7740 C   0  0  0  0  0  0  0  0  0  0  0  0
   54.4840   26.3440   45.2750 H   0  0  0  0  0  0  0  0  0  0  0  0
   58.1406   24.4966   45.0472 H   0  0  0  0  0  0  0  0  0  0  0  0
   56.7038   24.8355   43.9893 H   0  0  0  0  0  0  0  0  0  0  0  0
   58.7319   26.3253   43.6040 H   0  0  0  0  0  0  0  0  0  0  0  0
   57.1654   27.1673   43.9445 H   0  0  0  0  0  0  0  0  0  0  0  0
   58.2500   27.0070   46.4490 H   0  0  0  0  0  0  0  0  0  0  0  0
   61.2964   28.7188   46.4279 H   0  0  0  0  0  0  0  0  0  0  0  0
   61.8750   33.9012   46.8794 H   0  0  0  0  0  0  0  0  0  0  0  0
   60.2775   35.8449   46.6783 H   0  0  0  0  0  0  0  0  0  0  0  0
   57.8323   35.4270   46.3040 H   0  0  0  0  0  0  0  0  0  0  0  0
   56.9647   33.0636   46.1287 H   0  0  0  0  0  0  0  0  0  0  0  0
   60.3304   28.1911   50.3248 H   0  0  0  0  0  0  0  0  0  0  0  0
   61.6420   28.7381   49.2091 H   0  0  0  0  0  0  0  0  0  0  0  0
   58.0584   29.8300   49.7342 H   0  0  0  0  0  0  0  0  0  0  0  0
   57.4385   32.2214   50.0877 H   0  0  0  0  0  0  0  0  0  0  0  0
   59.2181   33.9670   50.2345 H   0  0  0  0  0  0  0  0  0  0  0  0
   61.6210   33.3208   50.0345 H   0  0  0  0  0  0  0  0  0  0  0  0
   62.2501   30.9325   49.6874 H   0  0  0  0  0  0  0  0  0  0  0  0
  1  2  1  0
  2  3  2  0
  2  4  2  0
  2  5  1  0
  5  6  1  0
  6  7  1  0
  7  8  1  0
  8  9  2  0
  8 10  1  0
 10 11  1  0
 11 12  2  0
 12 13  1  0
 13 14  2  0
 14 15  1  0
 15 16  2  0
 16 17  1  0
 17 18  2  0
 18 19  1  0
 10 20  1  0
 20 21  2  0
 20 22  2  0
 20 23  1  0
 23 24  1  0
 24 25  2  0
 25 26  1  0
 26 27  2  0
 27 28  1  0
 28 29  2  0
 19 11  1  0
 29 24  1  0
 18 13  1  0
  1 30  1  0
  5 31  1  0
  5 32  1  0
  6 33  1  0
  6 34  1  0
  7 35  1  0
 10 36  1  6
 14 37  1  0
 15 38  1  0
 16 39  1  0
 17 40  1  0
 23 41  1  0
 23 42  1  0
 25 43  1  0
 26 44  1  0
 27 45  1  0
 28 46  1  0
 29 47  1  0
M  CHG  2   1  -1  19  -1
M  END
>  <UniqueID>  (69) 
61

>  <SMILES>  (69) 
[NH-]S(=O)(=O)CCNC(=O)[C@@H](c1nc2ccccc2[n-]1)S(=O)(=O)Cc1ccccc1

>  <Energy>  (69) 
62.48477782970566

>  <Genealogy>  (69) 
[NH-]S(=O)(=O)CCNC(=O)C(c1nc2ccccc2[n-]1)S(=O)(=O)Cc1ccccc1 (protonated)
[NH-]S(=O)(=O)CCNC(=O)[C@@H](c1nc2ccccc2[n-]1)S(=O)(=O)Cc1ccccc1 (chirality)
[NH-]S(=O)(=O)CCNC(=O)[C@@H](c1nc2ccccc2[n-]1)S(=O)(=O)Cc1ccccc1 (3D coordinates assigned)
[NH-]S(=O)(=O)CCNC(=O)[C@@H](c1nc2ccccc2[n-]1)S(=O)(=O)Cc1ccccc1 (optimized conformer: 62.48477782970566 kcal/mol)

>  <smiles>  (69) 
NS(=O)(=O)CCNC(=O)C(c1nc2ccccc2[nH]1)S(=O)(=O)Cc1ccccc1

>  <score_type>  (69) 
oracle

>  <origin>  (69) 
adg

>  <m_score__min__energy>  (69) 
-11.619999999999999

>  <m_primary>  (69) 
energy

$$$$
69:0
     RDKit          3D

 48 50  0  0  0  0  0  0  0  0999 V2000
   57.2410   32.7040   49.2760 H   0  0  0  0  0  0  0  0  0  0  0  0
   58.1930   32.3220   49.4730 N   0  0  0  0  0  0  0  0  0  0  0  0
   59.2980   33.1690   48.4500 S   0  0  0  0  0  0  0  0  0  0  0  0
   60.6700   32.5690   48.5850 O   0  0  0  0  0  0  0  0  0  0  0  0
   59.3600   34.6130   48.8630 O   0  0  0  0  0  0  0  0  0  0  0  0
   58.7570   33.0480   46.7800 C   0  0  0  0  0  0  0  0  0  0  0  0
   59.2240   33.9540   45.8190 C   0  0  0  0  0  0  0  0  0  0  0  0
   59.9475   34.7319   46.1042 H   0  0  0  0  0  0  0  0  0  0  0  0
   58.7730   33.8720   44.4990 C   0  0  0  0  0  0  0  0  0  0  0  0
   59.1389   34.5882   43.7486 H   0  0  0  0  0  0  0  0  0  0  0  0
   57.8580   32.8820   44.1300 C   0  0  0  0  0  0  0  0  0  0  0  0
   57.4994   32.8267   43.0916 H   0  0  0  0  0  0  0  0  0  0  0  0
   57.3940   31.9560   45.0820 C   0  0  0  0  0  0  0  0  0  0  0  0
   56.4300   30.9450   44.7540 N   0  0  0  0  0  0  0  0  0  0  0  0
   56.6690   29.5340   44.6670 C   0  0  0  0  0  0  0  0  0  0  0  0
   55.8860   28.7110   45.2130 O   0  0  0  0  0  0  0  0  0  0  0  0
   57.8080   29.0330   43.8360 C   0  0  0  0  0  0  0  0  0  0  0  0
   57.4109   28.4995   42.9598 H   0  0  0  0  0  0  0  0  0  0  0  0
   58.4179   29.8889   43.5113 H   0  0  0  0  0  0  0  0  0  0  0  0
   58.6230   28.1450   44.5980 O   0  0  0  0  0  0  0  0  0  0  0  0
   59.8270   28.5310   45.2020 C   0  0  0  0  0  0  0  0  0  0  0  0
   60.7980   28.9020   44.4860 O   0  0  0  0  0  0  0  0  0  0  0  0
   59.9580   28.5230   46.6800 C   0  0  0  0  0  0  0  0  0  0  0  0
   59.7840   29.7250   47.3940 C   0  0  0  0  0  0  0  0  0  0  0  0
   59.5683   30.6551   46.8477 H   0  0  0  0  0  0  0  0  0  0  0  0
   59.8820   29.7500   48.7860 C   0  0  0  0  0  0  0  0  0  0  0  0
   59.7331   30.6943   49.3302 H   0  0  0  0  0  0  0  0  0  0  0  0
   60.1680   28.5810   49.4870 C   0  0  0  0  0  0  0  0  0  0  0  0
   60.2465   28.6032   50.5840 H   0  0  0  0  0  0  0  0  0  0  0  0
   60.3550   27.3820   48.7990 C   0  0  0  0  0  0  0  0  0  0  0  0
   60.5986   26.4658   49.3569 H   0  0  0  0  0  0  0  0  0  0  0  0
   60.2350   27.3340   47.3990 C   0  0  0  0  0  0  0  0  0  0  0  0
   60.5070   26.1060   46.7020 N   0  0  0  0  0  0  0  0  0  0  0  0
   59.8240   25.6380   45.7260 N   0  0  0  0  0  0  0  0  0  0  0  0
   58.3940   25.5020   45.6920 C   0  0  0  0  0  0  0  0  0  0  0  0
   57.6230   26.1900   46.6360 C   0  0  0  0  0  0  0  0  0  0  0  0
   58.1143   26.8420   47.3732 H   0  0  0  0  0  0  0  0  0  0  0  0
   56.2320   26.0530   46.6470 C   0  0  0  0  0  0  0  0  0  0  0  0
   55.6315   26.6109   47.3806 H   0  0  0  0  0  0  0  0  0  0  0  0
   55.6000   25.2060   45.7250 C   0  0  0  0  0  0  0  0  0  0  0  0
   54.2120   25.0720   45.7310 O   0  0  0  0  0  0  0  0  0  0  0  0
   53.6630   25.2100   44.8890 H   0  0  0  0  0  0  0  0  0  0  0  0
   56.3700   24.4890   44.7980 C   0  0  0  0  0  0  0  0  0  0  0  0
   55.6040   23.4070   43.6460 Cl  0  0  0  0  0  0  0  0  0  0  0  0
   57.7630   24.6260   44.7920 C   0  0  0  0  0  0  0  0  0  0  0  0
   58.3669   24.0452   44.0793 H   0  0  0  0  0  0  0  0  0  0  0  0
   57.8320   32.0600   46.4090 C   0  0  0  0  0  0  0  0  0  0  0  0
   57.4474   31.3612   47.1665 H   0  0  0  0  0  0  0  0  0  0  0  0
  1  2  1  0
  2  3  1  0
  3  4  2  0
  3  5  2  0
  3  6  1  0
  6  7  2  0
  7  8  1  0
  7  9  1  0
  9 10  1  0
  9 11  2  0
 11 12  1  0
 11 13  1  0
 13 14  1  0
 14 15  1  0
 15 16  2  0
 15 17  1  0
 17 18  1  0
 17 19  1  0
 17 20  1  0
 20 21  1  0
 21 22  2  0
 21 23  1  0
 23 24  2  0
 24 25  1  0
 24 26  1  0
 26 27  1  0
 26 28  2  0
 28 29  1  0
 28 30  1  0
 30 31  1  0
 30 32  2  0
 32 33  1  0
 33 34  2  0
 34 35  1  0
 35 36  2  0
 36 37  1  0
 36 38  1  0
 38 39  1  0
 38 40  2  0
 40 41  1  0
 41 42  1  0
 40 43  1  0
 43 44  1  0
 43 45  2  0
 45 46  1  0
 13 47  2  0
 47 48  1  0
 47  6  1  0
 32 23  1  0
 45 35  1  0
M  CHG  2   2  -1  14  -1
M  END
>  <UniqueID>  (70) 
62

>  <SMILES>  (70) 
[NH-]S(=O)(=O)c1cccc([N-]C(=O)COC(=O)c2ccccc2/N=N\c2ccc(O)c(Cl)c2)c1

>  <Energy>  (70) 
66.6687110992268

>  <Genealogy>  (70) 
[NH-]S(=O)(=O)c1cccc([N-]C(=O)COC(=O)c2ccccc2N=Nc2ccc(O)c(Cl)c2)c1 (protonated)
[NH-]S(=O)(=O)c1cccc([N-]C(=O)COC(=O)c2ccccc2/N=N\c2ccc(O)c(Cl)c2)c1 (cis-trans isomerization)
[NH-]S(=O)(=O)c1cccc([N-]C(=O)COC(=O)c2ccccc2/N=N\c2ccc(O)c(Cl)c2)c1 (3D coordinates assigned)
[NH-]S(=O)(=O)c1cccc([N-]C(=O)COC(=O)c2ccccc2/N=N\c2ccc(O)c(Cl)c2)c1 (optimized conformer: 66.6687110992268 kcal/mol)

>  <smiles>  (70) 
NS(=O)(=O)c1cccc(NC(=O)COC(=O)c2ccccc2N=Nc2ccc(O)c(Cl)c2)c1

>  <score_type>  (70) 
oracle

>  <origin>  (70) 
adg

>  <m_score__min__energy>  (70) 
-12.970000000000001

>  <m_primary>  (70) 
energy

$$$$
70:0
     RDKit          3D

 46 49  0  0  0  0  0  0  0  0999 V2000
   56.6460   30.5860   45.0130 O   0  0  0  0  0  0  0  0  0  0  0  0
   57.8460   30.9050   45.2270 C   0  0  0  0  0  0  0  0  0  0  0  0
   58.8610   29.9020   45.3590 N   0  0  0  0  0  0  0  0  0  0  0  0
   58.7040   28.6170   45.9790 C   0  0  0  0  0  0  0  0  0  0  0  0
   59.4040   28.3520   47.1630 C   0  0  0  0  0  0  0  0  0  0  0  0
   59.2590   27.1220   47.8080 C   0  0  0  0  0  0  0  0  0  0  0  0
   58.4020   26.1520   47.2850 C   0  0  0  0  0  0  0  0  0  0  0  0
   57.6750   26.4060   46.1090 C   0  0  0  0  0  0  0  0  0  0  0  0
   56.7430   25.3860   45.5700 C   0  0  0  0  0  0  0  0  0  0  0  0
   57.2550   24.2210   44.9680 C   0  0  0  0  0  0  0  0  0  0  0  0
   56.3910   23.2450   44.4640 C   0  0  0  0  0  0  0  0  0  0  0  0
   55.0080   23.4220   44.5510 C   0  0  0  0  0  0  0  0  0  0  0  0
   54.4870   24.5760   45.1380 C   0  0  0  0  0  0  0  0  0  0  0  0
   55.3440   25.5600   45.6440 C   0  0  0  0  0  0  0  0  0  0  0  0
   54.7960   26.7140   46.1950 O   0  0  0  0  0  0  0  0  0  0  0  0
   57.8210   27.6490   45.4690 C   0  0  0  0  0  0  0  0  0  0  0  0
   58.2170   32.3480   45.3470 C   0  0  0  0  0  0  0  0  0  0  0  0
   59.2910   32.7260   46.3210 C   0  0  0  0  0  0  0  0  0  0  0  0
   59.1980   33.8100   46.9580 O   0  0  0  0  0  0  0  0  0  0  0  0
   60.4190   31.8570   46.5110 N   0  0  0  0  0  0  0  0  0  0  0  0
   61.6270   32.2400   47.1890 C   0  0  0  0  0  0  0  0  0  0  0  0
   62.3150   33.3900   46.7710 C   0  0  0  0  0  0  0  0  0  0  0  0
   63.4770   33.8000   47.4310 C   0  0  0  0  0  0  0  0  0  0  0  0
   63.9530   33.0740   48.5260 C   0  0  0  0  0  0  0  0  0  0  0  0
   65.0780   33.4740   49.1690 F   0  0  0  0  0  0  0  0  0  0  0  0
   63.2650   31.9390   48.9630 C   0  0  0  0  0  0  0  0  0  0  0  0
   62.1030   31.5260   48.3050 C   0  0  0  0  0  0  0  0  0  0  0  0
   57.0810   33.3500   45.1780 C   0  0  0  0  0  0  0  0  0  0  0  0
   58.1180   33.1840   44.0750 C   0  0  0  0  0  0  0  0  0  0  0  0
   60.0714   29.1168   47.5869 H   0  0  0  0  0  0  0  0  0  0  0  0
   59.8216   26.9168   48.7307 H   0  0  0  0  0  0  0  0  0  0  0  0
   58.2950   25.1837   47.7959 H   0  0  0  0  0  0  0  0  0  0  0  0
   58.3431   24.0778   44.8938 H   0  0  0  0  0  0  0  0  0  0  0  0
   56.8004   22.3364   43.9983 H   0  0  0  0  0  0  0  0  0  0  0  0
   54.3293   22.6514   44.1566 H   0  0  0  0  0  0  0  0  0  0  0  0
   53.3975   24.7128   45.2033 H   0  0  0  0  0  0  0  0  0  0  0  0
   57.2392   27.8663   44.5611 H   0  0  0  0  0  0  0  0  0  0  0  0
   60.3330   30.8690   46.1810 H   0  0  0  0  0  0  0  0  0  0  0  0
   61.9370   33.9727   45.9180 H   0  0  0  0  0  0  0  0  0  0  0  0
   64.0171   34.6948   47.0881 H   0  0  0  0  0  0  0  0  0  0  0  0
   63.6386   31.3693   49.8266 H   0  0  0  0  0  0  0  0  0  0  0  0
   61.5581   30.6392   48.6608 H   0  0  0  0  0  0  0  0  0  0  0  0
   56.0519   32.9935   45.0233 H   0  0  0  0  0  0  0  0  0  0  0  0
   56.6992   34.1985   45.7647 H   0  0  0  0  0  0  0  0  0  0  0  0
   57.8379   32.7074   43.1240 H   0  0  0  0  0  0  0  0  0  0  0  0
   58.7952   33.8625   43.5355 H   0  0  0  0  0  0  0  0  0  0  0  0
  1  2  2  0
  2  3  1  0
  3  4  1  0
  4  5  2  0
  5  6  1  0
  6  7  2  0
  7  8  1  0
  8  9  1  0
  9 10  2  0
 10 11  1  0
 11 12  2  0
 12 13  1  0
 13 14  2  0
 14 15  1  0
  8 16  2  0
  2 17  1  0
 17 18  1  0
 18 19  2  0
 18 20  1  0
 20 21  1  0
 21 22  2  0
 22 23  1  0
 23 24  2  0
 24 25  1  0
 24 26  1  0
 26 27  2  0
 17 28  1  0
 28 29  1  0
 16  4  1  0
 29 17  1  0
 14  9  1  0
 27 21  1  0
  5 30  1  0
  6 31  1  0
  7 32  1  0
 10 33  1  0
 11 34  1  0
 12 35  1  0
 13 36  1  0
 16 37  1  0
 20 38  1  0
 22 39  1  0
 23 40  1  0
 26 41  1  0
 27 42  1  0
 28 43  1  0
 28 44  1  0
 29 45  1  0
 29 46  1  0
M  CHG  2   3  -1  15  -1
M  END
>  <UniqueID>  (71) 
63

>  <SMILES>  (71) 
O=C([N-]c1cccc(-c2ccccc2[O-])c1)C1(C(=O)Nc2ccc(F)cc2)CC1

>  <Energy>  (71) 
327.64555800357743

>  <Genealogy>  (71) 
O=C([N-]c1cccc(-c2ccccc2[O-])c1)C1(C(=O)Nc2ccc(F)cc2)CC1 (protonated)
O=C([N-]c1cccc(-c2ccccc2[O-])c1)C1(C(=O)Nc2ccc(F)cc2)CC1 (3D coordinates assigned)
O=C([N-]c1cccc(-c2ccccc2[O-])c1)C1(C(=O)Nc2ccc(F)cc2)CC1 (nonaromatic ring conformer: 327.64555800357743 kcal/mol)

>  <smiles>  (71) 
O=C(Nc1ccc(F)cc1)C1(C(=O)Nc2cccc(-c3ccccc3O)c2)CC1

>  <score_type>  (71) 
oracle

>  <origin>  (71) 
adg

>  <m_score__min__energy>  (71) 
-14.289999999999999

>  <m_primary>  (71) 
energy

$$$$
71:0
     RDKit          3D

 42 44  0  0  1  0  0  0  0  0999 V2000
   60.2250   29.9460   47.7430 Cl  0  0  0  0  0  0  0  0  0  0  0  0
   58.9260   29.0890   46.9430 C   0  0  0  0  0  0  0  0  0  0  0  0
   58.8400   27.7530   47.0740 N   0  0  0  0  0  0  0  0  0  0  0  0
   57.8420   27.0630   46.4630 C   0  0  0  0  0  0  0  0  0  0  0  0
   57.7920   25.8110   46.6070 N   0  0  0  0  0  0  0  0  0  0  0  0
   57.6100   24.9030   45.5250 C   0  0  0  0  0  0  0  0  0  0  0  0
   56.1570   24.6110   45.3770 C   0  0  0  0  0  0  0  0  0  0  0  0
   55.5280   23.5820   44.7170 C   0  0  0  0  0  0  0  0  0  0  0  0
   54.1530   23.7500   44.8720 C   0  0  0  0  0  0  0  0  0  0  0  0
   54.0130   24.8800   45.6220 C   0  0  0  0  0  0  0  0  0  0  0  0
   55.1940   25.3600   45.9030 O   0  0  0  0  0  0  0  0  0  0  0  0
   56.9480   27.7450   45.7290 N   0  0  0  0  0  0  0  0  0  0  0  0
   57.0160   29.0800   45.5860 C   0  0  0  0  0  0  0  0  0  0  0  0
   56.1340   29.7130   44.8690 N   0  0  0  0  0  0  0  0  0  0  0  0
   56.3860   30.0960   43.4970 C   0  0  0  0  0  0  0  0  0  0  0  0
   57.7590   30.7520   43.4700 C   0  0  0  0  0  0  0  0  0  0  0  0
   57.6800   32.2370   43.2130 C   0  0  0  0  0  0  0  0  0  0  0  0
   57.9990   32.9790   44.4620 C   0  0  0  0  0  0  0  0  0  0  0  0
   59.0840   33.8600   44.5250 C   0  0  0  0  0  0  0  0  0  0  0  0
   59.3760   34.5470   45.6890 C   0  0  0  0  0  0  0  0  0  0  0  0
   58.6050   34.3860   46.8290 C   0  0  0  0  0  0  0  0  0  0  0  0
   57.5230   33.5110   46.7780 C   0  0  0  0  0  0  0  0  0  0  0  0
   57.2510   32.8370   45.6090 C   0  0  0  0  0  0  0  0  0  0  0  0
   58.0020   29.7530   46.1910 N   0  0  0  0  0  0  0  0  0  0  0  0
   57.9921   25.3535   44.5971 H   0  0  0  0  0  0  0  0  0  0  0  0
   58.1581   23.9707   45.7257 H   0  0  0  0  0  0  0  0  0  0  0  0
   56.0225   22.7696   44.1643 H   0  0  0  0  0  0  0  0  0  0  0  0
   53.3526   23.1086   44.4745 H   0  0  0  0  0  0  0  0  0  0  0  0
   53.0556   25.3182   45.9402 H   0  0  0  0  0  0  0  0  0  0  0  0
   56.1730   27.2430   45.2510 H   0  0  0  0  0  0  0  0  0  0  0  0
   56.3776   29.2079   42.8480 H   0  0  0  0  0  0  0  0  0  0  0  0
   55.6113   30.7856   43.1305 H   0  0  0  0  0  0  0  0  0  0  0  0
   58.2490   30.5867   44.4409 H   0  0  0  0  0  0  0  0  0  0  0  0
   58.3322   30.2985   42.6479 H   0  0  0  0  0  0  0  0  0  0  0  0
   58.4020   32.5116   42.4299 H   0  0  0  0  0  0  0  0  0  0  0  0
   56.6628   32.4965   42.8845 H   0  0  0  0  0  0  0  0  0  0  0  0
   59.7140   34.0084   43.6356 H   0  0  0  0  0  0  0  0  0  0  0  0
   60.2354   35.2333   45.7103 H   0  0  0  0  0  0  0  0  0  0  0  0
   58.8419   34.9360   47.7517 H   0  0  0  0  0  0  0  0  0  0  0  0
   56.8904   33.3595   47.6651 H   0  0  0  0  0  0  0  0  0  0  0  0
   56.3922   32.1499   45.5904 H   0  0  0  0  0  0  0  0  0  0  0  0
   58.1000   30.8020   46.1110 H   0  0  0  0  0  0  0  0  0  0  0  0
  1  2  1  0
  2  3  2  0
  3  4  1  0
  4  5  2  0
  5  6  1  0
  6  7  1  0
  7  8  2  0
  8  9  1  0
  9 10  2  0
 10 11  1  0
  4 12  1  0
 12 13  1  0
 13 14  2  0
 14 15  1  0
 15 16  1  0
 16 17  1  0
 17 18  1  0
 18 19  2  0
 19 20  1  0
 20 21  2  0
 21 22  1  0
 22 23  2  0
 13 24  1  0
 24  2  1  0
 11  7  1  0
 23 18  1  0
  6 25  1  0
  6 26  1  0
  8 27  1  0
  9 28  1  0
 10 29  1  0
 12 30  1  0
 15 31  1  0
 15 32  1  0
 16 33  1  0
 16 34  1  0
 17 35  1  0
 17 36  1  0
 19 37  1  0
 20 38  1  0
 21 39  1  0
 22 40  1  0
 23 41  1  0
 24 42  1  0
M  END
>  <smiles>  (72) 
Clc1nc(=NCc2ccco2)[nH]c(=NCCCc2ccccc2)[nH]1

>  <score_type>  (72) 
oracle

>  <origin>  (72) 
adg

>  <m_score__min__energy>  (72) 
-8.3000000000000007

>  <m_primary>  (72) 
energy

$$$$
72:0
     RDKit          3D

 26 27  0  0  0  0  0  0  0  0999 V2000
   56.1470   30.1330   44.8780 O   0  0  0  0  0  0  0  0  0  0  0  0
   56.6370   31.2080   44.4740 N   0  0  0  0  0  0  0  0  0  0  0  0
   57.4120   32.0550   45.3270 C   0  0  0  0  0  0  0  0  0  0  0  0
   57.4140   33.4350   45.1010 C   0  0  0  0  0  0  0  0  0  0  0  0
   58.1620   34.2860   45.9200 C   0  0  0  0  0  0  0  0  0  0  0  0
   58.9270   33.7630   46.9790 C   0  0  0  0  0  0  0  0  0  0  0  0
   59.6730   34.6420   47.8440 N   0  0  0  0  0  0  0  0  0  0  0  0
   61.0460   34.2050   47.9090 C   0  0  0  0  0  0  0  0  0  0  0  0
   61.7440   33.8730   46.7340 C   0  0  0  0  0  0  0  0  0  0  0  0
   63.0840   33.4790   46.7970 C   0  0  0  0  0  0  0  0  0  0  0  0
   63.7400   33.4200   48.0300 C   0  0  0  0  0  0  0  0  0  0  0  0
   63.0570   33.7560   49.2010 C   0  0  0  0  0  0  0  0  0  0  0  0
   61.7170   34.1510   49.1440 C   0  0  0  0  0  0  0  0  0  0  0  0
   58.9150   32.3760   47.2090 C   0  0  0  0  0  0  0  0  0  0  0  0
   58.1670   31.5270   46.3890 C   0  0  0  0  0  0  0  0  0  0  0  0
   56.8230   33.8538   44.2732 H   0  0  0  0  0  0  0  0  0  0  0  0
   58.1525   35.3704   45.7356 H   0  0  0  0  0  0  0  0  0  0  0  0
   59.6240   35.6250   47.4870 H   0  0  0  0  0  0  0  0  0  0  0  0
   59.2520   34.6470   48.8020 H   0  0  0  0  0  0  0  0  0  0  0  0
   61.2333   33.9235   45.7610 H   0  0  0  0  0  0  0  0  0  0  0  0
   63.6228   33.2151   45.8750 H   0  0  0  0  0  0  0  0  0  0  0  0
   64.7940   33.1090   48.0780 H   0  0  0  0  0  0  0  0  0  0  0  0
   63.5746   33.7098   50.1705 H   0  0  0  0  0  0  0  0  0  0  0  0
   61.1855   34.4206   50.0686 H   0  0  0  0  0  0  0  0  0  0  0  0
   59.4991   31.9558   48.0411 H   0  0  0  0  0  0  0  0  0  0  0  0
   58.1689   30.4428   46.5749 H   0  0  0  0  0  0  0  0  0  0  0  0
  1  2  2  0
  2  3  1  0
  3  4  2  0
  4  5  1  0
  5  6  2  0
  6  7  1  0
  7  8  1  0
  8  9  2  0
  9 10  1  0
 10 11  2  0
 11 12  1  0
 12 13  2  0
  6 14  1  0
 14 15  2  0
 15  3  1  0
 13  8  1  0
  4 16  1  0
  5 17  1  0
  7 18  1  0
  7 19  1  0
  9 20  1  0
 10 21  1  0
 11 22  1  0
 12 23  1  0
 13 24  1  0
 14 25  1  0
 15 26  1  0
M  CHG  1   7   1
M  END
>  <UniqueID>  (73) 
64

>  <SMILES>  (73) 
O=Nc1ccc([NH2+]c2ccccc2)cc1

>  <Energy>  (73) 
29.20821560151296

>  <Genealogy>  (73) 
O=Nc1ccc([NH2+]c2ccccc2)cc1 (protonated)
O=Nc1ccc([NH2+]c2ccccc2)cc1 (3D coordinates assigned)
O=Nc1ccc([NH2+]c2ccccc2)cc1 (optimized conformer: 29.20821560151296 kcal/mol)

>  <smiles>  (73) 
O=Nc1ccc(Nc2ccccc2)cc1

>  <score_type>  (73) 
oracle

>  <origin>  (73) 
adg

>  <m_score__min__energy>  (73) 
-5.4400000000000004

>  <m_primary>  (73) 
energy

$$$$
73:0
     RDKit          3D

 41 43  0  0  0  0  0  0  0  0999 V2000
   57.0540   31.0140   43.9830 C   0  0  0  0  0  0  0  0  0  0  0  0
   57.1760   31.6410   45.2560 O   0  0  0  0  0  0  0  0  0  0  0  0
   57.9670   32.7710   45.5120 C   0  0  0  0  0  0  0  0  0  0  0  0
   58.0890   33.8260   44.5850 C   0  0  0  0  0  0  0  0  0  0  0  0
   58.8920   34.9320   44.8770 C   0  0  0  0  0  0  0  0  0  0  0  0
   59.5800   34.9980   46.0910 C   0  0  0  0  0  0  0  0  0  0  0  0
   59.4620   33.9610   47.0180 C   0  0  0  0  0  0  0  0  0  0  0  0
   58.6550   32.8520   46.7350 C   0  0  0  0  0  0  0  0  0  0  0  0
   58.5220   31.8150   47.7060 N   0  0  0  0  0  0  0  0  0  0  0  0
   59.8140   30.7000   47.9890 S   0  0  0  0  0  0  0  0  0  0  0  0
   61.0640   31.2170   47.3310 O   0  0  0  0  0  0  0  0  0  0  0  0
   60.0650   30.5810   49.4660 O   0  0  0  0  0  0  0  0  0  0  0  0
   59.4040   29.1250   47.3170 C   0  0  0  0  0  0  0  0  0  0  0  0
   59.9650   27.9640   47.8640 C   0  0  0  0  0  0  0  0  0  0  0  0
   59.5970   26.7070   47.3760 C   0  0  0  0  0  0  0  0  0  0  0  0
   58.6800   26.5970   46.3240 C   0  0  0  0  0  0  0  0  0  0  0  0
   58.2960   25.2890   45.8690 N   0  0  0  0  0  0  0  0  0  0  0  0
   57.5700   25.0360   44.8460 N   0  0  0  0  0  0  0  0  0  0  0  0
   56.2200   24.5450   44.8820 C   0  0  0  0  0  0  0  0  0  0  0  0
   55.2190   25.1830   45.6330 C   0  0  0  0  0  0  0  0  0  0  0  0
   55.5090   26.3260   46.3720 O   0  0  0  0  0  0  0  0  0  0  0  0
   53.9520   24.6930   45.6230 N   0  0  0  0  0  0  0  0  0  0  0  0
   53.6260   23.6070   44.8770 C   0  0  0  0  0  0  0  0  0  0  0  0
   52.4470   23.1680   44.8860 O   0  0  0  0  0  0  0  0  0  0  0  0
   54.5700   22.9970   44.1140 N   0  0  0  0  0  0  0  0  0  0  0  0
   55.8510   23.4470   44.0940 C   0  0  0  0  0  0  0  0  0  0  0  0
   56.7040   22.8650   43.3720 O   0  0  0  0  0  0  0  0  0  0  0  0
   58.0890   27.7610   45.8010 C   0  0  0  0  0  0  0  0  0  0  0  0
   58.4570   29.0180   46.2900 C   0  0  0  0  0  0  0  0  0  0  0  0
   56.8456   29.9427   44.1204 H   0  0  0  0  0  0  0  0  0  0  0  0
   56.2295   31.4791   43.4227 H   0  0  0  0  0  0  0  0  0  0  0  0
   57.9927   31.1360   43.4227 H   0  0  0  0  0  0  0  0  0  0  0  0
   57.5497   33.7785   43.6274 H   0  0  0  0  0  0  0  0  0  0  0  0
   58.9824   35.7521   44.1495 H   0  0  0  0  0  0  0  0  0  0  0  0
   60.2150   35.8675   46.3165 H   0  0  0  0  0  0  0  0  0  0  0  0
   60.0044   34.0151   47.9734 H   0  0  0  0  0  0  0  0  0  0  0  0
   60.6979   28.0418   48.6806 H   0  0  0  0  0  0  0  0  0  0  0  0
   60.0303   25.7992   47.8210 H   0  0  0  0  0  0  0  0  0  0  0  0
   56.4580   26.5320   46.6640 H   0  0  0  0  0  0  0  0  0  0  0  0
   57.3346   27.6822   45.0044 H   0  0  0  0  0  0  0  0  0  0  0  0
   58.0017   29.9257   45.8672 H   0  0  0  0  0  0  0  0  0  0  0  0
  1  2  1  0
  2  3  1  0
  3  4  2  0
  4  5  1  0
  5  6  2  0
  6  7  1  0
  7  8  2  0
  8  9  1  0
  9 10  1  0
 10 11  2  0
 10 12  2  0
 10 13  1  0
 13 14  2  0
 14 15  1  0
 15 16  2  0
 16 17  1  0
 17 18  2  3
 18 19  1  0
 19 20  2  0
 20 21  1  0
 20 22  1  0
 22 23  1  0
 23 24  2  0
 23 25  1  0
 25 26  1  0
 26 27  2  0
 16 28  1  0
 28 29  2  0
  8  3  1  0
 29 13  1  0
 26 19  1  0
  1 30  1  0
  1 31  1  0
  1 32  1  0
  4 33  1  0
  5 34  1  0
  6 35  1  0
  7 36  1  0
 14 37  1  0
 15 38  1  0
 21 39  1  0
 28 40  1  0
 29 41  1  0
M  CHG  3   9  -1  22  -1  25  -1
M  END
>  <UniqueID>  (74) 
65

>  <SMILES>  (74) 
COc1ccccc1[N-]S(=O)(=O)c1ccc(N=Nc2c(O)[n-]c(=O)[n-]c2=O)cc1

>  <Energy>  (74) 
66.31188327923755

>  <Genealogy>  (74) 
COc1ccccc1[N-]S(=O)(=O)c1ccc(N=Nc2c(O)[n-]c(=O)[n-]c2=O)cc1 (protonated)
COc1ccccc1[N-]S(=O)(=O)c1ccc(N=Nc2c(O)[n-]c(=O)[n-]c2=O)cc1 (3D coordinates assigned)
COc1ccccc1[N-]S(=O)(=O)c1ccc(N=Nc2c(O)[n-]c(=O)[n-]c2=O)cc1 (optimized conformer: 66.31188327923755 kcal/mol)

>  <smiles>  (74) 
COc1ccccc1NS(=O)(=O)c1ccc(N=Nc2c(O)[nH]c(=O)[nH]c2=O)cc1

>  <score_type>  (74) 
oracle

>  <origin>  (74) 
adg

>  <m_score__min__energy>  (74) 
-13.789999999999999

>  <m_primary>  (74) 
energy

$$$$
74:0
     RDKit          3D

 37 39  0  0  0  0  0  0  0  0999 V2000
   57.3990   24.0410   47.4270 H   0  0  0  0  0  0  0  0  0  0  0  0
   57.6970   23.1320   47.0940 O   0  0  0  0  0  0  0  0  0  0  0  0
   57.4480   22.7150   45.7870 C   0  0  0  0  0  0  0  0  0  0  0  0
   58.3850   21.9180   45.1130 C   0  0  0  0  0  0  0  0  0  0  0  0
   59.3227   21.6333   45.6127 H   0  0  0  0  0  0  0  0  0  0  0  0
   58.1320   21.4850   43.8110 C   0  0  0  0  0  0  0  0  0  0  0  0
   58.8701   20.8597   43.2873 H   0  0  0  0  0  0  0  0  0  0  0  0
   56.9430   21.8440   43.1710 C   0  0  0  0  0  0  0  0  0  0  0  0
   56.7445   21.4955   42.1467 H   0  0  0  0  0  0  0  0  0  0  0  0
   56.0050   22.6450   43.8290 C   0  0  0  0  0  0  0  0  0  0  0  0
   54.8160   22.9680   43.1830 O   0  0  0  0  0  0  0  0  0  0  0  0
   56.2590   23.0990   45.1390 C   0  0  0  0  0  0  0  0  0  0  0  0
   55.2460   23.8850   45.8750 C   0  0  0  0  0  0  0  0  0  0  0  0
   54.1847   23.6576   45.6961 H   0  0  0  0  0  0  0  0  0  0  0  0
   55.5350   24.8300   46.7220 N   0  0  0  0  0  0  0  0  0  0  0  0
   56.3890   25.9590   46.4960 C   0  0  0  0  0  0  0  0  0  0  0  0
   56.1270   26.9480   45.6170 N   0  0  0  0  0  0  0  0  0  0  0  0
   57.2480   27.6930   45.7120 C   0  0  0  0  0  0  0  0  0  0  0  0
   57.5250   28.8990   44.8690 C   0  0  0  0  0  0  0  0  0  0  0  0
   57.7876   28.5711   43.8524 H   0  0  0  0  0  0  0  0  0  0  0  0
   58.3543   29.4567   45.3287 H   0  0  0  0  0  0  0  0  0  0  0  0
   56.3350   29.8060   44.7950 C   0  0  0  0  0  0  0  0  0  0  0  0
   55.1780   29.3130   44.8700 O   0  0  0  0  0  0  0  0  0  0  0  0
   56.5230   31.2030   44.5260 N   0  0  0  0  0  0  0  0  0  0  0  0
   57.4340   32.1000   45.1790 C   0  0  0  0  0  0  0  0  0  0  0  0
   58.1670   31.7310   46.3250 C   0  0  0  0  0  0  0  0  0  0  0  0
   58.0319   30.7313   46.7637 H   0  0  0  0  0  0  0  0  0  0  0  0
   59.0650   32.6310   46.9060 C   0  0  0  0  0  0  0  0  0  0  0  0
   59.6256   32.3423   47.8073 H   0  0  0  0  0  0  0  0  0  0  0  0
   59.2520   33.8970   46.3440 C   0  0  0  0  0  0  0  0  0  0  0  0
   59.9563   34.6053   46.8048 H   0  0  0  0  0  0  0  0  0  0  0  0
   58.5440   34.2620   45.1970 C   0  0  0  0  0  0  0  0  0  0  0  0
   58.6942   35.2565   44.7517 H   0  0  0  0  0  0  0  0  0  0  0  0
   57.6440   33.3640   44.6140 C   0  0  0  0  0  0  0  0  0  0  0  0
   57.0968   33.6529   43.7045 H   0  0  0  0  0  0  0  0  0  0  0  0
   58.1470   27.1680   46.5640 N   0  0  0  0  0  0  0  0  0  0  0  0
   57.6050   26.0690   47.0590 N   0  0  0  0  0  0  0  0  0  0  0  0
  1  2  1  0
  2  3  1  0
  3  4  2  0
  4  5  1  0
  4  6  1  0
  6  7  1  0
  6  8  2  0
  8  9  1  0
  8 10  1  0
 10 11  1  0
 10 12  2  0
 12 13  1  0
 13 14  1  0
 13 15  2  0
 15 16  1  0
 16 17  2  0
 17 18  1  0
 18 19  1  0
 19 20  1  0
 19 21  1  0
 19 22  1  0
 22 23  2  0
 22 24  1  0
 24 25  1  0
 25 26  2  0
 26 27  1  0
 26 28  1  0
 28 29  1  0
 28 30  2  0
 30 31  1  0
 30 32  1  0
 32 33  1  0
 32 34  2  0
 34 35  1  0
 18 36  2  0
 36 37  1  0
 12  3  1  0
 37 16  1  0
 34 25  1  0
M  CHG  3  11  -1  24  -1  37  -1
M  END
>  <UniqueID>  (75) 
66

>  <SMILES>  (75) 
O=C(Cc1n[n-]c(/N=C\c2c([O-])cccc2O)n1)[N-]c1ccccc1

>  <Energy>  (75) 
80.35129884342578

>  <Genealogy>  (75) 
O=C(Cc1n[n-]c(N=Cc2c([O-])cccc2O)n1)[N-]c1ccccc1 (protonated)
O=C(Cc1n[n-]c(/N=C\c2c([O-])cccc2O)n1)[N-]c1ccccc1 (cis-trans isomerization)
O=C(Cc1n[n-]c(/N=C\c2c([O-])cccc2O)n1)[N-]c1ccccc1 (3D coordinates assigned)
O=C(Cc1n[n-]c(/N=C\c2c([O-])cccc2O)n1)[N-]c1ccccc1 (optimized conformer: 80.35129884342578 kcal/mol)

>  <smiles>  (75) 
O=C(Cc1n[nH]c(N=Cc2c(O)cccc2O)n1)Nc1ccccc1

>  <score_type>  (75) 
oracle

>  <origin>  (75) 
adg

>  <m_score__min__energy>  (75) 
-13.380000000000001

>  <m_primary>  (75) 
energy

$$$$
75:0
     RDKit          3D

 33 34  0  0  0  0  0  0  0  0999 V2000
   63.4590   32.0180   47.1340 C   0  0  0  0  0  0  0  0  0  0  0  0
   62.9690   33.7190   46.7110 S   0  0  0  0  0  0  0  0  0  0  0  0
   61.6640   33.7790   47.9460 C   0  0  0  0  0  0  0  0  0  0  0  0
   61.9550   33.4040   49.2640 C   0  0  0  0  0  0  0  0  0  0  0  0
   60.9590   33.4420   50.2420 C   0  0  0  0  0  0  0  0  0  0  0  0
   59.6670   33.8480   49.9070 C   0  0  0  0  0  0  0  0  0  0  0  0
   59.3680   34.2270   48.5950 C   0  0  0  0  0  0  0  0  0  0  0  0
   60.3700   34.2170   47.6070 C   0  0  0  0  0  0  0  0  0  0  0  0
   60.0870   34.5740   46.2450 N   0  0  0  0  0  0  0  0  0  0  0  0
   58.9420   34.1900   45.4730 C   0  0  0  0  0  0  0  0  0  0  0  0
   58.2940   35.0460   44.8140 O   0  0  0  0  0  0  0  0  0  0  0  0
   58.5510   32.7770   45.4090 C   0  0  0  0  0  0  0  0  0  0  0  0
   59.0660   31.7500   46.1900 C   0  0  0  0  0  0  0  0  0  0  0  0
   58.5000   30.4940   45.9120 C   0  0  0  0  0  0  0  0  0  0  0  0
   58.9130   29.2530   46.6450 C   0  0  0  0  0  0  0  0  0  0  0  0
   57.5260   30.5360   44.9020 C   0  0  0  0  0  0  0  0  0  0  0  0
   56.7330   29.4070   44.3660 C   0  0  0  0  0  0  0  0  0  0  0  0
   57.2320   28.6070   43.2900 N   0  0  0  0  0  0  0  0  0  0  0  0
   55.6030   29.1360   44.8520 O   0  0  0  0  0  0  0  0  0  0  0  0
   57.3940   32.1330   44.3760 S   0  0  0  0  0  0  0  0  0  0  0  0
   63.4910   31.9069   48.2279 H   0  0  0  0  0  0  0  0  0  0  0  0
   62.7280   31.3109   46.7149 H   0  0  0  0  0  0  0  0  0  0  0  0
   64.4541   31.8081   46.7149 H   0  0  0  0  0  0  0  0  0  0  0  0
   62.9716   33.0785   49.5295 H   0  0  0  0  0  0  0  0  0  0  0  0
   61.1932   33.1517   51.2768 H   0  0  0  0  0  0  0  0  0  0  0  0
   58.8817   33.8700   50.6770 H   0  0  0  0  0  0  0  0  0  0  0  0
   58.3447   34.5345   48.3337 H   0  0  0  0  0  0  0  0  0  0  0  0
   59.8428   31.9051   46.9533 H   0  0  0  0  0  0  0  0  0  0  0  0
   58.8539   29.4306   47.7290 H   0  0  0  0  0  0  0  0  0  0  0  0
   58.2419   28.4254   46.3719 H   0  0  0  0  0  0  0  0  0  0  0  0
   59.9462   28.9926   46.3719 H   0  0  0  0  0  0  0  0  0  0  0  0
   56.6620   27.8140   42.9220 H   0  0  0  0  0  0  0  0  0  0  0  0
   58.1590   28.7960   42.8520 H   0  0  0  0  0  0  0  0  0  0  0  0
  1  2  1  0
  2  3  1  0
  3  4  2  0
  4  5  1  0
  5  6  2  0
  6  7  1  0
  7  8  2  0
  8  9  1  0
  9 10  1  0
 10 11  2  0
 10 12  1  0
 12 13  2  0
 13 14  1  0
 14 15  1  0
 14 16  2  0
 16 17  1  0
 17 18  1  0
 17 19  2  0
 16 20  1  0
  8  3  1  0
 20 12  1  0
  1 21  1  0
  1 22  1  0
  1 23  1  0
  4 24  1  0
  5 25  1  0
  6 26  1  0
  7 27  1  0
 13 28  1  0
 15 29  1  0
 15 30  1  0
 15 31  1  0
 18 32  1  0
 18 33  1  0
M  CHG  1   9  -1
M  END
>  <UniqueID>  (76) 
67

>  <SMILES>  (76) 
CSc1ccccc1[N-]C(=O)c1cc(C)c(C(N)=O)s1

>  <Energy>  (76) 
56.74469457429908

>  <Genealogy>  (76) 
CSc1ccccc1[N-]C(=O)c1cc(C)c(C(N)=O)s1 (protonated)
CSc1ccccc1[N-]C(=O)c1cc(C)c(C(N)=O)s1 (3D coordinates assigned)
CSc1ccccc1[N-]C(=O)c1cc(C)c(C(N)=O)s1 (optimized conformer: 56.74469457429908 kcal/mol)

>  <smiles>  (76) 
CSc1ccccc1NC(=O)c1cc(C)c(C(N)=O)s1

>  <score_type>  (76) 
oracle

>  <origin>  (76) 
adg

>  <m_score__min__energy>  (76) 
-9.3499999999999996

>  <m_primary>  (76) 
energy

$$$$
76:0
     RDKit          3D

 62 65  0  0  0  0  0  0  0  0999 V2000
   57.4210   28.5610   53.1950 C   0  0  0  0  0  0  0  0  0  0  0  0
   56.3810   29.1970   52.3750 N   0  0  0  0  0  0  0  0  0  0  0  0
   55.0520   28.7310   52.7880 C   0  0  0  0  0  0  0  0  0  0  0  0
   56.4800   30.9330   52.5290 S   0  0  0  0  0  0  0  0  0  0  0  0
   56.6620   31.3010   53.9770 O   0  0  0  0  0  0  0  0  0  0  0  0
   55.1910   31.5460   52.0560 O   0  0  0  0  0  0  0  0  0  0  0  0
   57.8260   31.6020   51.6010 C   0  0  0  0  0  0  0  0  0  0  0  0
   58.1660   32.9610   51.7160 C   0  0  0  0  0  0  0  0  0  0  0  0
   59.3000   33.4600   51.0690 C   0  0  0  0  0  0  0  0  0  0  0  0
   60.1010   32.6060   50.3050 C   0  0  0  0  0  0  0  0  0  0  0  0
   59.7440   31.2540   50.1440 C   0  0  0  0  0  0  0  0  0  0  0  0
   60.5770   30.3540   49.3240 C   0  0  0  0  0  0  0  0  0  0  0  0
   61.4280   29.6160   49.8860 O   0  0  0  0  0  0  0  0  0  0  0  0
   60.4250   30.2790   47.9000 N   0  0  0  0  0  0  0  0  0  0  0  0
   59.4500   29.4920   47.1960 C   0  0  0  0  0  0  0  0  0  0  0  0
   58.6370   30.1350   46.2500 C   0  0  0  0  0  0  0  0  0  0  0  0
   57.6550   29.4220   45.5450 C   0  0  0  0  0  0  0  0  0  0  0  0
   56.5870   30.2810   44.4250 S   0  0  0  0  0  0  0  0  0  0  0  0
   55.2500   29.6030   44.3540 O   0  0  0  0  0  0  0  0  0  0  0  0
   57.2210   30.2540   43.0620 O   0  0  0  0  0  0  0  0  0  0  0  0
   56.3780   31.9430   44.8890 N   0  0  0  0  0  0  0  0  0  0  0  0
   57.4010   32.7550   45.4790 C   0  0  0  0  0  0  0  0  0  0  0  0
   58.4570   33.2040   44.6700 C   0  0  0  0  0  0  0  0  0  0  0  0
   59.5520   33.8600   45.2410 C   0  0  0  0  0  0  0  0  0  0  0  0
   59.5980   34.0720   46.6250 C   0  0  0  0  0  0  0  0  0  0  0  0
   60.7460   34.6160   47.2030 O   0  0  0  0  0  0  0  0  0  0  0  0
   61.7980   33.8370   47.7050 C   0  0  0  0  0  0  0  0  0  0  0  0
   62.3890   34.2140   48.9170 C   0  0  0  0  0  0  0  0  0  0  0  0
   63.4660   33.4860   49.4330 C   0  0  0  0  0  0  0  0  0  0  0  0
   63.9390   32.3570   48.7610 C   0  0  0  0  0  0  0  0  0  0  0  0
   63.3540   31.9690   47.5530 C   0  0  0  0  0  0  0  0  0  0  0  0
   62.2960   32.7080   47.0180 C   0  0  0  0  0  0  0  0  0  0  0  0
   58.5110   33.6920   47.4250 C   0  0  0  0  0  0  0  0  0  0  0  0
   57.4210   33.0280   46.8570 C   0  0  0  0  0  0  0  0  0  0  0  0
   57.4840   28.0550   45.8000 C   0  0  0  0  0  0  0  0  0  0  0  0
   58.2840   27.4060   46.7400 C   0  0  0  0  0  0  0  0  0  0  0  0
   59.2280   28.1220   47.4820 C   0  0  0  0  0  0  0  0  0  0  0  0
   59.8630   27.4600   48.5330 O   0  0  0  0  0  0  0  0  0  0  0  0
   58.6060   30.7580   50.7960 C   0  0  0  0  0  0  0  0  0  0  0  0
   57.1867   28.7043   54.2602 H   0  0  0  0  0  0  0  0  0  0  0  0
   57.4589   27.4851   52.9694 H   0  0  0  0  0  0  0  0  0  0  0  0
   58.3960   29.0175   52.9694 H   0  0  0  0  0  0  0  0  0  0  0  0
   54.9954   28.7111   53.8864 H   0  0  0  0  0  0  0  0  0  0  0  0
   54.2851   29.4138   52.3936 H   0  0  0  0  0  0  0  0  0  0  0  0
   54.8795   27.7187   52.3936 H   0  0  0  0  0  0  0  0  0  0  0  0
   57.5374   33.6342   52.3173 H   0  0  0  0  0  0  0  0  0  0  0  0
   59.5622   34.5243   51.1609 H   0  0  0  0  0  0  0  0  0  0  0  0
   61.0138   32.9922   49.8278 H   0  0  0  0  0  0  0  0  0  0  0  0
   58.7709   31.2100   46.0589 H   0  0  0  0  0  0  0  0  0  0  0  0
   58.4229   33.0391   43.5830 H   0  0  0  0  0  0  0  0  0  0  0  0
   60.3773   34.2096   44.6034 H   0  0  0  0  0  0  0  0  0  0  0  0
   62.0046   35.0865   49.4657 H   0  0  0  0  0  0  0  0  0  0  0  0
   63.9424   33.8041   50.3721 H   0  0  0  0  0  0  0  0  0  0  0  0
   64.7712   31.7738   49.1822 H   0  0  0  0  0  0  0  0  0  0  0  0
   63.7270   31.0805   47.0225 H   0  0  0  0  0  0  0  0  0  0  0  0
   61.8492   32.4095   46.0582 H   0  0  0  0  0  0  0  0  0  0  0  0
   58.5165   33.9171   48.5017 H   0  0  0  0  0  0  0  0  0  0  0  0
   56.5765   32.7182   47.4901 H   0  0  0  0  0  0  0  0  0  0  0  0
   56.7135   27.4898   45.2551 H   0  0  0  0  0  0  0  0  0  0  0  0
   58.1715   26.3233   46.8987 H   0  0  0  0  0  0  0  0  0  0  0  0
   60.5640   27.8970   49.1180 H   0  0  0  0  0  0  0  0  0  0  0  0
   58.3233   29.7018   50.6758 H   0  0  0  0  0  0  0  0  0  0  0  0
  1  2  1  0
  2  3  1  0
  2  4  1  0
  4  5  2  0
  4  6  2  0
  4  7  1  0
  7  8  2  0
  8  9  1  0
  9 10  2  0
 10 11  1  0
 11 12  1  0
 12 13  2  0
 12 14  1  0
 14 15  1  0
 15 16  2  0
 16 17  1  0
 17 18  1  0
 18 19  2  0
 18 20  2  0
 18 21  1  0
 21 22  1  0
 22 23  2  0
 23 24  1  0
 24 25  2  0
 25 26  1  0
 26 27  1  0
 27 28  2  0
 28 29  1  0
 29 30  2  0
 30 31  1  0
 31 32  2  0
 25 33  1  0
 33 34  2  0
 17 35  2  0
 35 36  1  0
 36 37  2  0
 37 38  1  0
 11 39  2  0
 39  7  1  0
 37 15  1  0
 34 22  1  0
 32 27  1  0
  1 40  1  0
  1 41  1  0
  1 42  1  0
  3 43  1  0
  3 44  1  0
  3 45  1  0
  8 46  1  0
  9 47  1  0
 10 48  1  0
 16 49  1  0
 23 50  1  0
 24 51  1  0
 28 52  1  0
 29 53  1  0
 30 54  1  0
 31 55  1  0
 32 56  1  0
 33 57  1  0
 34 58  1  0
 35 59  1  0
 36 60  1  0
 38 61  1  0
 39 62  1  0
M  CHG  2  14  -1  21  -1
M  END
>  <UniqueID>  (77) 
68

>  <SMILES>  (77) 
CN(C)S(=O)(=O)c1cccc(C(=O)[N-]c2cc(S(=O)(=O)[N-]c3ccc(Oc4ccccc4)cc3)ccc2O)c1

>  <Energy>  (77) 
86.52588692460954

>  <Genealogy>  (77) 
CN(C)S(=O)(=O)c1cccc(C(=O)[N-]c2cc(S(=O)(=O)[N-]c3ccc(Oc4ccccc4)cc3)ccc2O)c1 (protonated)
CN(C)S(=O)(=O)c1cccc(C(=O)[N-]c2cc(S(=O)(=O)[N-]c3ccc(Oc4ccccc4)cc3)ccc2O)c1 (3D coordinates assigned)
CN(C)S(=O)(=O)c1cccc(C(=O)[N-]c2cc(S(=O)(=O)[N-]c3ccc(Oc4ccccc4)cc3)ccc2O)c1 (optimized conformer: 86.52588692460954 kcal/mol)

>  <smiles>  (77) 
CN(C)S(=O)(=O)c1cccc(C(=O)Nc2cc(S(=O)(=O)Nc3ccc(Oc4ccccc4)cc3)ccc2O)c1

>  <score_type>  (77) 
oracle

>  <origin>  (77) 
adg

>  <m_score__min__energy>  (77) 
-13.33

>  <m_primary>  (77) 
energy

$$$$
77:0
     RDKit          3D

 39 41  0  0  0  0  0  0  0  0999 V2000
   52.7080   22.6520   46.3320 C   0  0  0  0  0  0  0  0  0  0  0  0
   52.8770   23.7600   44.8990 S   0  0  0  0  0  0  0  0  0  0  0  0
   54.6440   23.9430   45.1050 C   0  0  0  0  0  0  0  0  0  0  0  0
   55.1340   24.8100   46.0280 N   0  0  0  0  0  0  0  0  0  0  0  0
   56.4710   24.9650   46.2020 C   0  0  0  0  0  0  0  0  0  0  0  0
   57.3740   24.2280   45.4220 C   0  0  0  0  0  0  0  0  0  0  0  0
   58.8370   24.3790   45.5950 C   0  0  0  0  0  0  0  0  0  0  0  0
   59.5690   23.3560   45.6680 O   0  0  0  0  0  0  0  0  0  0  0  0
   59.4120   25.6870   45.7300 N   0  0  0  0  0  0  0  0  0  0  0  0
   58.8420   26.9240   45.2760 C   0  0  0  0  0  0  0  0  0  0  0  0
   58.3080   26.9830   43.9840 C   0  0  0  0  0  0  0  0  0  0  0  0
   57.7610   28.1730   43.4960 C   0  0  0  0  0  0  0  0  0  0  0  0
   57.7540   29.3240   44.2940 C   0  0  0  0  0  0  0  0  0  0  0  0
   57.0770   30.8250   43.6710 S   0  0  0  0  0  0  0  0  0  0  0  0
   55.8850   31.2080   44.5030 O   0  0  0  0  0  0  0  0  0  0  0  0
   56.6620   30.6340   42.2390 O   0  0  0  0  0  0  0  0  0  0  0  0
   58.2800   32.0740   43.7510 N   0  0  0  0  0  0  0  0  0  0  0  0
   58.4290   32.8670   44.7660 C   0  0  0  0  0  0  0  0  0  0  0  0
   57.8950   32.5590   45.9820 N   0  0  0  0  0  0  0  0  0  0  0  0
   58.0510   33.3890   47.0460 C   0  0  0  0  0  0  0  0  0  0  0  0
   58.7660   34.5770   46.9020 C   0  0  0  0  0  0  0  0  0  0  0  0
   59.3060   34.8790   45.6530 C   0  0  0  0  0  0  0  0  0  0  0  0
   59.1280   34.0230   44.6120 N   0  0  0  0  0  0  0  0  0  0  0  0
   58.3160   29.2790   45.5760 C   0  0  0  0  0  0  0  0  0  0  0  0
   58.8610   28.0880   46.0650 C   0  0  0  0  0  0  0  0  0  0  0  0
   56.8420   23.3400   44.4740 C   0  0  0  0  0  0  0  0  0  0  0  0
   55.4950   23.2180   44.3360 N   0  0  0  0  0  0  0  0  0  0  0  0
   52.7971   23.2362   47.2597 H   0  0  0  0  0  0  0  0  0  0  0  0
   51.7245   22.1603   46.3014 H   0  0  0  0  0  0  0  0  0  0  0  0
   53.5002   21.8895   46.3014 H   0  0  0  0  0  0  0  0  0  0  0  0
   56.8475   25.6708   46.9570 H   0  0  0  0  0  0  0  0  0  0  0  0
   58.3188   26.0859   43.3475 H   0  0  0  0  0  0  0  0  0  0  0  0
   57.3348   28.2057   42.4824 H   0  0  0  0  0  0  0  0  0  0  0  0
   57.6137   33.1240   48.0199 H   0  0  0  0  0  0  0  0  0  0  0  0
   58.9008   35.2598   47.7538 H   0  0  0  0  0  0  0  0  0  0  0  0
   59.8756   35.8091   45.5098 H   0  0  0  0  0  0  0  0  0  0  0  0
   58.3287   30.1843   46.2007 H   0  0  0  0  0  0  0  0  0  0  0  0
   59.3063   28.0613   47.0705 H   0  0  0  0  0  0  0  0  0  0  0  0
   57.5155   22.7423   43.8422 H   0  0  0  0  0  0  0  0  0  0  0  0
  1  2  1  0
  2  3  1  0
  3  4  2  0
  4  5  1  0
  5  6  2  0
  6  7  1  0
  7  8  2  0
  7  9  1  0
  9 10  1  0
 10 11  2  0
 11 12  1  0
 12 13  2  0
 13 14  1  0
 14 15  2  0
 14 16  2  0
 14 17  1  0
 17 18  2  3
 18 19  1  0
 19 20  2  0
 20 21  1  0
 21 22  2  0
 22 23  1  0
 13 24  1  0
 24 25  2  0
  6 26  1  0
 26 27  2  0
 27  3  1  0
 25 10  1  0
 23 18  1  0
  1 28  1  0
  1 29  1  0
  1 30  1  0
  5 31  1  0
 11 32  1  0
 12 33  1  0
 20 34  1  0
 21 35  1  0
 22 36  1  0
 24 37  1  0
 25 38  1  0
 26 39  1  0
M  CHG  2   9  -1  23  -1
M  END
>  <UniqueID>  (78) 
69

>  <SMILES>  (78) 
CSc1ncc(C(=O)[N-]c2ccc(S(=O)(=O)N=c3nccc[n-]3)cc2)cn1

>  <Energy>  (78) 
47.90071888292213

>  <Genealogy>  (78) 
CSc1ncc(C(=O)[N-]c2ccc(S(=O)(=O)N=c3nccc[n-]3)cc2)cn1 (protonated)
CSc1ncc(C(=O)[N-]c2ccc(S(=O)(=O)N=c3nccc[n-]3)cc2)cn1 (3D coordinates assigned)
CSc1ncc(C(=O)[N-]c2ccc(S(=O)(=O)N=c3nccc[n-]3)cc2)cn1 (optimized conformer: 47.90071888292213 kcal/mol)

>  <smiles>  (78) 
CSc1ncc(C(=O)Nc2ccc(S(=O)(=O)N=c3nccc[nH]3)cc2)cn1

>  <score_type>  (78) 
oracle

>  <origin>  (78) 
adg

>  <m_score__min__energy>  (78) 
-10.57

>  <m_primary>  (78) 
energy

$$$$
78:0
     RDKit          3D

 50 52  0  0  0  0  0  0  0  0999 V2000
   56.2920   22.4210   48.4860 C   0  0  0  0  0  0  0  0  0  0  0  0
   57.3200   22.3870   47.5020 O   0  0  0  0  0  0  0  0  0  0  0  0
   57.0960   22.4370   46.1160 C   0  0  0  0  0  0  0  0  0  0  0  0
   57.3770   21.3420   45.2740 C   0  0  0  0  0  0  0  0  0  0  0  0
   57.1500   21.4330   43.8990 C   0  0  0  0  0  0  0  0  0  0  0  0
   56.6520   22.6140   43.3490 C   0  0  0  0  0  0  0  0  0  0  0  0
   56.3690   23.7050   44.1730 C   0  0  0  0  0  0  0  0  0  0  0  0
   56.5720   23.6180   45.5630 C   0  0  0  0  0  0  0  0  0  0  0  0
   56.3120   24.7330   46.4320 N   0  0  0  0  0  0  0  0  0  0  0  0
   56.2520   26.1140   46.0560 C   0  0  0  0  0  0  0  0  0  0  0  0
   55.1450   26.7140   46.0000 O   0  0  0  0  0  0  0  0  0  0  0  0
   57.4720   26.8070   45.7530 N   0  0  0  0  0  0  0  0  0  0  0  0
   57.5680   28.2280   45.5540 C   0  0  0  0  0  0  0  0  0  0  0  0
   56.8600   28.8230   44.4990 C   0  0  0  0  0  0  0  0  0  0  0  0
   56.9520   30.1980   44.2690 C   0  0  0  0  0  0  0  0  0  0  0  0
   57.7550   31.0020   45.0920 C   0  0  0  0  0  0  0  0  0  0  0  0
   57.8490   32.4530   44.8330 C   0  0  0  0  0  0  0  0  0  0  0  0
   58.3480   32.8490   43.7470 O   0  0  0  0  0  0  0  0  0  0  0  0
   57.3460   33.4300   45.7530 N   0  0  0  0  0  0  0  0  0  0  0  0
   58.0090   33.8440   46.9860 C   0  0  0  0  0  0  0  0  0  0  0  0
   59.4980   34.1000   46.7230 C   0  0  0  0  0  0  0  0  0  0  0  0
   60.3080   34.2910   48.0140 C   0  0  0  0  0  0  0  0  0  0  0  0
   61.7020   33.8850   47.8390 N   0  0  0  0  0  0  0  0  0  0  0  0
   62.2860   33.4630   46.7060 C   0  0  0  0  0  0  0  0  0  0  0  0
   63.5930   33.1460   46.9990 C   0  0  0  0  0  0  0  0  0  0  0  0
   63.8300   33.3650   48.3090 N   0  0  0  0  0  0  0  0  0  0  0  0
   62.6520   33.8150   48.7920 C   0  0  0  0  0  0  0  0  0  0  0  0
   58.4990   30.4030   46.1200 C   0  0  0  0  0  0  0  0  0  0  0  0
   58.4080   29.0270   46.3490 C   0  0  0  0  0  0  0  0  0  0  0  0
   56.7437   22.4061   49.4889 H   0  0  0  0  0  0  0  0  0  0  0  0
   55.6986   23.3393   48.3648 H   0  0  0  0  0  0  0  0  0  0  0  0
   55.6392   21.5440   48.3648 H   0  0  0  0  0  0  0  0  0  0  0  0
   57.7771   20.4111   45.7021 H   0  0  0  0  0  0  0  0  0  0  0  0
   57.3643   20.5720   43.2488 H   0  0  0  0  0  0  0  0  0  0  0  0
   56.4820   22.6860   42.2646 H   0  0  0  0  0  0  0  0  0  0  0  0
   55.9853   24.6375   43.7335 H   0  0  0  0  0  0  0  0  0  0  0  0
   58.3220   26.2250   45.5780 H   0  0  0  0  0  0  0  0  0  0  0  0
   56.2274   28.2020   43.8477 H   0  0  0  0  0  0  0  0  0  0  0  0
   56.3920   30.6525   43.4385 H   0  0  0  0  0  0  0  0  0  0  0  0
   57.5412   34.7674   47.3583 H   0  0  0  0  0  0  0  0  0  0  0  0
   57.9078   33.0449   47.7352 H   0  0  0  0  0  0  0  0  0  0  0  0
   59.9103   33.2408   46.1737 H   0  0  0  0  0  0  0  0  0  0  0  0
   59.5758   35.0316   46.1432 H   0  0  0  0  0  0  0  0  0  0  0  0
   60.2785   35.3527   48.3003 H   0  0  0  0  0  0  0  0  0  0  0  0
   59.8614   33.6608   48.7972 H   0  0  0  0  0  0  0  0  0  0  0  0
   61.8056   33.3846   45.7196 H   0  0  0  0  0  0  0  0  0  0  0  0
   64.3318   32.7712   46.2753 H   0  0  0  0  0  0  0  0  0  0  0  0
   62.4868   34.0927   49.8435 H   0  0  0  0  0  0  0  0  0  0  0  0
   59.1576   31.0197   46.7492 H   0  0  0  0  0  0  0  0  0  0  0  0
   58.9971   28.5668   47.1560 H   0  0  0  0  0  0  0  0  0  0  0  0
  1  2  1  0
  2  3  1  0
  3  4  2  0
  4  5  1  0
  5  6  2  0
  6  7  1  0
  7  8  2  0
  8  9  1  0
  9 10  1  0
 10 11  2  0
 10 12  1  0
 12 13  1  0
 13 14  2  0
 14 15  1  0
 15 16  2  0
 16 17  1  0
 17 18  2  0
 17 19  1  0
 19 20  1  0
 20 21  1  0
 21 22  1  0
 22 23  1  0
 23 24  1  0
 24 25  2  0
 25 26  1  0
 26 27  2  0
 16 28  1  0
 28 29  2  0
  8  3  1  0
 29 13  1  0
 27 23  1  0
  1 30  1  0
  1 31  1  0
  1 32  1  0
  4 33  1  0
  5 34  1  0
  6 35  1  0
  7 36  1  0
 12 37  1  0
 14 38  1  0
 15 39  1  0
 20 40  1  0
 20 41  1  0
 21 42  1  0
 21 43  1  0
 22 44  1  0
 22 45  1  0
 24 46  1  0
 25 47  1  0
 27 48  1  0
 28 49  1  0
 29 50  1  0
M  CHG  2   9  -1  19  -1
M  END
>  <UniqueID>  (79) 
70

>  <SMILES>  (79) 
COc1ccccc1[N-]C(=O)Nc1ccc(C(=O)[N-]CCCn2ccnc2)cc1

>  <Energy>  (79) 
86.37143259014198

>  <Genealogy>  (79) 
COc1ccccc1[N-]C(=O)Nc1ccc(C(=O)[N-]CCCn2ccnc2)cc1 (protonated)
COc1ccccc1[N-]C(=O)Nc1ccc(C(=O)[N-]CCCn2ccnc2)cc1 (3D coordinates assigned)
COc1ccccc1[N-]C(=O)Nc1ccc(C(=O)[N-]CCCn2ccnc2)cc1 (optimized conformer: 86.37143259014198 kcal/mol)

>  <smiles>  (79) 
COc1ccccc1NC(=O)Nc1ccc(C(=O)NCCCn2ccnc2)cc1

>  <score_type>  (79) 
oracle

>  <origin>  (79) 
adg

>  <m_score__min__energy>  (79) 
-10.77

>  <m_primary>  (79) 
energy

$$$$
79:0
     RDKit          3D

 62 66  0  0  0  0  0  0  0  0999 V2000
   56.8740   30.6130   54.4780 C   0  0  0  0  0  0  0  0  0  0  0  0
   56.1810   29.8010   53.0480 S   0  0  0  0  0  0  0  0  0  0  0  0
   54.7060   30.0720   53.0090 O   0  0  0  0  0  0  0  0  0  0  0  0
   56.4050   28.3160   53.1090 O   0  0  0  0  0  0  0  0  0  0  0  0
   56.8930   30.4450   51.6030 N   0  0  0  0  0  0  0  0  0  0  0  0
   58.1610   30.0570   51.0510 C   0  0  0  0  0  0  0  0  0  0  0  0
   59.0430   29.3200   51.8540 C   0  0  0  0  0  0  0  0  0  0  0  0
   60.2700   28.8770   51.3450 C   0  0  0  0  0  0  0  0  0  0  0  0
   60.6310   29.1790   50.0290 C   0  0  0  0  0  0  0  0  0  0  0  0
   59.7800   29.9600   49.2330 C   0  0  0  0  0  0  0  0  0  0  0  0
   60.1540   30.2720   47.8870 N   0  0  0  0  0  0  0  0  0  0  0  0
   60.5200   31.4110   47.3490 C   0  0  0  0  0  0  0  0  0  0  0  0
   61.7430   32.1000   47.6600 C   0  0  0  0  0  0  0  0  0  0  0  0
   62.8240   31.5360   48.3870 C   0  0  0  0  0  0  0  0  0  0  0  0
   63.9580   32.2910   48.6990 C   0  0  0  0  0  0  0  0  0  0  0  0
   64.0740   33.6020   48.2430 C   0  0  0  0  0  0  0  0  0  0  0  0
   63.0720   34.1540   47.4480 C   0  0  0  0  0  0  0  0  0  0  0  0
   61.9300   33.4080   47.1330 C   0  0  0  0  0  0  0  0  0  0  0  0
   61.0220   33.9450   46.2860 N   0  0  0  0  0  0  0  0  0  0  0  0
   59.9050   33.2870   45.9050 C   0  0  0  0  0  0  0  0  0  0  0  0
   59.0310   33.8960   45.0020 C   0  0  0  0  0  0  0  0  0  0  0  0
   57.8450   33.2640   44.6390 C   0  0  0  0  0  0  0  0  0  0  0  0
   57.4990   32.0300   45.2030 C   0  0  0  0  0  0  0  0  0  0  0  0
   56.2660   31.3850   44.8650 N   0  0  0  0  0  0  0  0  0  0  0  0
   56.1300   30.0190   44.4430 C   0  0  0  0  0  0  0  0  0  0  0  0
   55.1630   29.3430   44.8850 O   0  0  0  0  0  0  0  0  0  0  0  0
   56.9740   29.4550   43.3240 C   0  0  0  0  0  0  0  0  0  0  0  0
   57.7450   28.1890   43.7370 C   0  0  0  0  0  0  0  0  0  0  0  0
   58.4430   28.3810   45.0230 N   0  0  0  0  0  0  0  0  0  0  0  0
   57.9950   27.4190   46.0320 C   0  0  0  0  0  0  0  0  0  0  0  0
   59.1400   27.2530   47.0200 C   0  0  0  0  0  0  0  0  0  0  0  0
   60.3730   27.7900   46.3090 C   0  0  0  0  0  0  0  0  0  0  0  0
   59.8960   28.1760   44.9220 C   0  0  0  0  0  0  0  0  0  0  0  0
   58.4010   31.3870   46.0590 C   0  0  0  0  0  0  0  0  0  0  0  0
   59.6190   32.0070   46.4280 C   0  0  0  0  0  0  0  0  0  0  0  0
   58.5400   30.3860   49.7370 C   0  0  0  0  0  0  0  0  0  0  0  0
   56.4769   30.1477   55.3922 H   0  0  0  0  0  0  0  0  0  0  0  0
   57.9693   30.5129   54.4616 H   0  0  0  0  0  0  0  0  0  0  0  0
   56.6030   31.6790   54.4616 H   0  0  0  0  0  0  0  0  0  0  0  0
   58.7685   29.0876   52.8936 H   0  0  0  0  0  0  0  0  0  0  0  0
   60.9499   28.2912   51.9811 H   0  0  0  0  0  0  0  0  0  0  0  0
   61.5805   28.8050   49.6183 H   0  0  0  0  0  0  0  0  0  0  0  0
   62.7681   30.4861   48.7105 H   0  0  0  0  0  0  0  0  0  0  0  0
   64.7613   31.8486   49.3065 H   0  0  0  0  0  0  0  0  0  0  0  0
   64.9567   34.2014   48.5106 H   0  0  0  0  0  0  0  0  0  0  0  0
   63.1785   35.1801   47.0663 H   0  0  0  0  0  0  0  0  0  0  0  0
   59.2807   34.8789   44.5759 H   0  0  0  0  0  0  0  0  0  0  0  0
   57.1759   33.7367   43.9049 H   0  0  0  0  0  0  0  0  0  0  0  0
   56.3155   29.2052   42.4790 H   0  0  0  0  0  0  0  0  0  0  0  0
   57.7160   30.2200   43.0516 H   0  0  0  0  0  0  0  0  0  0  0  0
   57.0358   27.3539   43.8356 H   0  0  0  0  0  0  0  0  0  0  0  0
   58.4965   27.9727   42.9634 H   0  0  0  0  0  0  0  0  0  0  0  0
   57.1016   27.8001   46.5483 H   0  0  0  0  0  0  0  0  0  0  0  0
   57.7299   26.4567   45.5697 H   0  0  0  0  0  0  0  0  0  0  0  0
   58.9434   27.8290   47.9363 H   0  0  0  0  0  0  0  0  0  0  0  0
   59.2686   26.2032   47.3222 H   0  0  0  0  0  0  0  0  0  0  0  0
   60.7715   28.6682   46.8381 H   0  0  0  0  0  0  0  0  0  0  0  0
   61.1831   27.0467   46.2730 H   0  0  0  0  0  0  0  0  0  0  0  0
   60.3889   29.1034   44.5949 H   0  0  0  0  0  0  0  0  0  0  0  0
   60.1377   27.3949   44.1861 H   0  0  0  0  0  0  0  0  0  0  0  0
   58.1603   30.3873   46.4498 H   0  0  0  0  0  0  0  0  0  0  0  0
   57.8639   30.9781   49.1027 H   0  0  0  0  0  0  0  0  0  0  0  0
  1  2  1  0
  2  3  2  0
  2  4  2  0
  2  5  1  0
  5  6  1  0
  6  7  2  0
  7  8  1  0
  8  9  2  0
  9 10  1  0
 10 11  1  0
 11 12  2  3
 12 13  1  0
 13 14  2  0
 14 15  1  0
 15 16  2  0
 16 17  1  0
 17 18  2  0
 18 19  1  0
 19 20  1  0
 20 21  2  0
 21 22  1  0
 22 23  2  0
 23 24  1  0
 24 25  1  0
 25 26  2  0
 25 27  1  0
 27 28  1  0
 28 29  1  0
 29 30  1  0
 30 31  1  0
 31 32  1  0
 32 33  1  0
 23 34  1  0
 34 35  2  0
 10 36  2  0
 36  6  1  0
 35 12  1  0
 18 13  1  0
 35 20  1  0
 33 29  1  0
  1 37  1  0
  1 38  1  0
  1 39  1  0
  7 40  1  0
  8 41  1  0
  9 42  1  0
 14 43  1  0
 15 44  1  0
 16 45  1  0
 17 46  1  0
 21 47  1  0
 22 48  1  0
 27 49  1  0
 27 50  1  0
 28 51  1  0
 28 52  1  0
 30 53  1  0
 30 54  1  0
 31 55  1  0
 31 56  1  0
 32 57  1  0
 32 58  1  0
 33 59  1  0
 33 60  1  0
 34 61  1  0
 36 62  1  0
M  CHG  3   5  -1  19  -1  24  -1
M  END
>  <UniqueID>  (80) 
71

>  <SMILES>  (80) 
CS(=O)(=O)[N-]c1cccc(N=c2c3ccccc3[n-]c3ccc([N-]C(=O)CCN4CCCC4)cc23)c1

>  <Energy>  (80) 
101.41774384730118

>  <Genealogy>  (80) 
CS(=O)(=O)[N-]c1cccc(N=c2c3ccccc3[n-]c3ccc([N-]C(=O)CCN4CCCC4)cc23)c1 (protonated)
CS(=O)(=O)[N-]c1cccc(N=c2c3ccccc3[n-]c3ccc([N-]C(=O)CCN4CCCC4)cc23)c1 (3D coordinates assigned)
CS(=O)(=O)[N-]c1cccc(N=c2c3ccccc3[n-]c3ccc([N-]C(=O)CCN4CCCC4)cc23)c1 (nonaromatic ring conformer: 101.41774384730118 kcal/mol)

>  <smiles>  (80) 
CS(=O)(=O)Nc1cccc(N=c2c3ccccc3[nH]c3ccc(NC(=O)CCN4CCCC4)cc23)c1

>  <score_type>  (80) 
oracle

>  <origin>  (80) 
adg

>  <m_score__min__energy>  (80) 
-13.85

>  <m_primary>  (80) 
energy

$$$$
80:0
     RDKit          3D

 46 49  0  0  1  0  0  0  0  0999 V2000
   61.2370   34.4650   49.0580 C   0  0  0  0  0  0  0  0  0  0  0  0
   60.2830   34.3050   47.9450 C   0  0  0  0  0  0  0  0  0  0  0  0
   60.6100   34.5890   46.6150 C   0  0  0  0  0  0  0  0  0  0  0  0
   59.6520   34.4190   45.6060 C   0  0  0  0  0  0  0  0  0  0  0  0
   58.4110   33.9790   45.8880 C   0  0  0  0  0  0  0  0  0  0  0  0
   57.3180   33.7660   44.9510 C   0  0  0  0  0  0  0  0  0  0  0  0
   56.3240   34.5710   44.8700 O   0  0  0  0  0  0  0  0  0  0  0  0
   57.2950   32.6710   44.0780 N   0  0  0  0  0  0  0  0  0  0  0  0
   57.2760   31.4600   44.4210 C   0  0  0  0  0  0  0  0  0  0  0  0
   56.2610   30.6090   44.1000 N   0  0  0  0  0  0  0  0  0  0  0  0
   56.5030   29.4090   44.5880 N   0  0  0  0  0  0  0  0  0  0  0  0
   57.6870   29.4700   45.2320 C   0  0  0  0  0  0  0  0  0  0  0  0
   58.3850   28.4940   45.9070 C   0  0  0  0  0  0  0  0  0  0  0  0
   59.5880   28.8600   46.4710 C   0  0  0  0  0  0  0  0  0  0  0  0
   60.0960   30.1410   46.3790 C   0  0  0  0  0  0  0  0  0  0  0  0
   61.3680   30.4260   47.0000 N   0  0  0  0  0  0  0  0  0  0  0  0
   61.3260   31.0430   48.2820 C   0  0  0  0  0  0  0  0  0  0  0  0
   60.1750   31.2820   48.7480 O   0  0  0  0  0  0  0  0  0  0  0  0
   62.5430   31.3810   49.0180 C   0  0  0  0  0  0  0  0  0  0  0  0
   62.8430   30.8650   50.2580 C   0  0  0  0  0  0  0  0  0  0  0  0
   64.0270   31.2580   50.8770 C   0  0  0  0  0  0  0  0  0  0  0  0
   64.8930   32.1520   50.2620 C   0  0  0  0  0  0  0  0  0  0  0  0
   66.5220   32.6790   51.1380 Br  0  0  0  0  0  0  0  0  0  0  0  0
   64.5990   32.6740   49.0130 C   0  0  0  0  0  0  0  0  0  0  0  0
   63.4200   32.2670   48.4260 C   0  0  0  0  0  0  0  0  0  0  0  0
   59.3960   31.1300   45.7000 C   0  0  0  0  0  0  0  0  0  0  0  0
   58.1960   30.7550   45.1420 C   0  0  0  0  0  0  0  0  0  0  0  0
   58.1160   33.6990   47.2340 C   0  0  0  0  0  0  0  0  0  0  0  0
   59.0110   33.8530   48.2420 C   0  0  0  0  0  0  0  0  0  0  0  0
   60.7022   34.3753   50.0151 H   0  0  0  0  0  0  0  0  0  0  0  0
   62.0088   33.6837   48.9946 H   0  0  0  0  0  0  0  0  0  0  0  0
   61.7117   35.4553   48.9946 H   0  0  0  0  0  0  0  0  0  0  0  0
   61.6190   34.9458   46.3609 H   0  0  0  0  0  0  0  0  0  0  0  0
   59.9190   34.6494   44.5641 H   0  0  0  0  0  0  0  0  0  0  0  0
   55.4000   30.8750   43.5390 H   0  0  0  0  0  0  0  0  0  0  0  0
   55.8870   28.5750   44.4850 H   0  0  0  0  0  0  0  0  0  0  0  0
   57.9995   27.4673   45.9924 H   0  0  0  0  0  0  0  0  0  0  0  0
   60.1674   28.1008   47.0168 H   0  0  0  0  0  0  0  0  0  0  0  0
   62.2680   30.1920   46.5330 H   0  0  0  0  0  0  0  0  0  0  0  0
   62.1611   30.1562   50.7505 H   0  0  0  0  0  0  0  0  0  0  0  0
   64.2799   30.8539   51.8683 H   0  0  0  0  0  0  0  0  0  0  0  0
   65.2760   33.3816   48.5120 H   0  0  0  0  0  0  0  0  0  0  0  0
   63.1650   32.6692   47.4344 H   0  0  0  0  0  0  0  0  0  0  0  0
   59.7803   32.1570   45.6132 H   0  0  0  0  0  0  0  0  0  0  0  0
   57.1077   33.3364   47.4825 H   0  0  0  0  0  0  0  0  0  0  0  0
   58.7287   33.6217   49.2797 H   0  0  0  0  0  0  0  0  0  0  0  0
  1  2  1  0
  2  3  2  0
  3  4  1  0
  4  5  2  0
  5  6  1  0
  6  7  2  0
  6  8  1  0
  8  9  2  0
  9 10  1  0
 10 11  1  0
 11 12  1  0
 12 13  2  0
 13 14  1  0
 14 15  2  0
 15 16  1  0
 16 17  1  0
 17 18  2  0
 17 19  1  0
 19 20  2  0
 20 21  1  0
 21 22  2  0
 22 23  1  0
 22 24  1  0
 24 25  2  0
 15 26  1  0
 26 27  2  0
  5 28  1  0
 28 29  2  0
 29  2  1  0
 27  9  1  0
 27 12  1  0
 25 19  1  0
  1 30  1  0
  1 31  1  0
  1 32  1  0
  3 33  1  0
  4 34  1  0
 10 35  1  0
 11 36  1  0
 13 37  1  0
 14 38  1  0
 16 39  1  0
 20 40  1  0
 21 41  1  0
 24 42  1  0
 25 43  1  0
 26 44  1  0
 28 45  1  0
 29 46  1  0
M  END
>  <smiles>  (81) 
Cc1ccc(C(=O)N=c2[nH][nH]c3ccc(NC(=O)c4ccc(Br)cc4)cc23)cc1

>  <score_type>  (81) 
oracle

>  <origin>  (81) 
adg

>  <m_score__min__energy>  (81) 
-9.8300000000000001

>  <m_primary>  (81) 
energy

$$$$
81:0
     RDKit          3D

 57 61  0  0  0  0  0  0  0  0999 V2000
   61.7360   32.9380   47.5260 C   0  0  0  0  0  0  0  0  0  0  0  0
   60.3260   33.2640   47.1090 C   0  0  0  0  0  0  0  0  0  0  0  0
   60.1260   34.1160   46.0090 C   0  0  0  0  0  0  0  0  0  0  0  0
   58.8360   34.4550   45.5990 C   0  0  0  0  0  0  0  0  0  0  0  0
   57.7310   33.9450   46.2770 C   0  0  0  0  0  0  0  0  0  0  0  0
   57.9100   33.0790   47.3560 C   0  0  0  0  0  0  0  0  0  0  0  0
   59.2000   32.7130   47.7740 C   0  0  0  0  0  0  0  0  0  0  0  0
   59.3670   31.6030   49.1460 S   0  0  0  0  0  0  0  0  0  0  0  0
   58.1680   31.7430   50.0390 O   0  0  0  0  0  0  0  0  0  0  0  0
   60.6100   31.9140   49.9320 O   0  0  0  0  0  0  0  0  0  0  0  0
   59.4840   29.9680   48.5870 N   0  0  0  0  0  0  0  0  0  0  0  0
   58.6190   29.3650   47.7540 C   0  0  0  0  0  0  0  0  0  0  0  0
   59.0830   28.0830   47.5090 C   0  0  0  0  0  0  0  0  0  0  0  0
   58.5170   27.0730   46.5930 C   0  0  0  0  0  0  0  0  0  0  0  0
   58.5120   25.7750   46.9990 N   0  0  0  0  0  0  0  0  0  0  0  0
   58.0890   24.7550   46.2070 C   0  0  0  0  0  0  0  0  0  0  0  0
   58.1270   23.4510   46.7140 O   0  0  0  0  0  0  0  0  0  0  0  0
   56.9940   22.6790   47.0140 C   0  0  0  0  0  0  0  0  0  0  0  0
   56.1040   23.0270   48.0500 C   0  0  0  0  0  0  0  0  0  0  0  0
   54.9830   22.2330   48.3110 C   0  0  0  0  0  0  0  0  0  0  0  0
   54.7370   21.0940   47.5380 C   0  0  0  0  0  0  0  0  0  0  0  0
   55.6070   20.7510   46.5000 C   0  0  0  0  0  0  0  0  0  0  0  0
   55.3620   19.6520   45.7460 F   0  0  0  0  0  0  0  0  0  0  0  0
   56.7290   21.5440   46.2370 C   0  0  0  0  0  0  0  0  0  0  0  0
   57.6030   25.0370   44.9170 C   0  0  0  0  0  0  0  0  0  0  0  0
   57.0680   23.9980   44.0710 C   0  0  0  0  0  0  0  0  0  0  0  0
   56.6380   23.1650   43.3920 N   0  0  0  0  0  0  0  0  0  0  0  0
   57.5800   26.3610   44.4740 C   0  0  0  0  0  0  0  0  0  0  0  0
   58.0290   27.3980   45.3030 C   0  0  0  0  0  0  0  0  0  0  0  0
   57.8810   28.7960   44.8410 C   0  0  0  0  0  0  0  0  0  0  0  0
   59.0220   29.5760   44.5930 C   0  0  0  0  0  0  0  0  0  0  0  0
   58.8920   30.8970   44.1580 C   0  0  0  0  0  0  0  0  0  0  0  0
   57.6230   31.4490   43.9620 C   0  0  0  0  0  0  0  0  0  0  0  0
   57.4990   32.7280   43.5300 F   0  0  0  0  0  0  0  0  0  0  0  0
   56.4820   30.6820   44.2140 C   0  0  0  0  0  0  0  0  0  0  0  0
   56.6060   29.3620   44.6580 C   0  0  0  0  0  0  0  0  0  0  0  0
   55.4870   28.6280   44.8840 F   0  0  0  0  0  0  0  0  0  0  0  0
   60.2690   27.9830   48.2170 C   0  0  0  0  0  0  0  0  0  0  0  0
   60.4790   29.1420   48.8680 N   0  0  0  0  0  0  0  0  0  0  0  0
   61.7995   32.9233   48.6241 H   0  0  0  0  0  0  0  0  0  0  0  0
   62.0168   31.9512   47.1293 H   0  0  0  0  0  0  0  0  0  0  0  0
   62.4215   33.7014   47.1293 H   0  0  0  0  0  0  0  0  0  0  0  0
   60.9940   34.5190   45.4667 H   0  0  0  0  0  0  0  0  0  0  0  0
   58.6914   35.1258   44.7393 H   0  0  0  0  0  0  0  0  0  0  0  0
   56.7154   34.2257   45.9610 H   0  0  0  0  0  0  0  0  0  0  0  0
   57.0322   32.6789   47.8846 H   0  0  0  0  0  0  0  0  0  0  0  0
   57.7030   29.8112   47.3394 H   0  0  0  0  0  0  0  0  0  0  0  0
   56.2919   23.9261   48.6552 H   0  0  0  0  0  0  0  0  0  0  0  0
   54.2944   22.5045   49.1247 H   0  0  0  0  0  0  0  0  0  0  0  0
   53.8575   20.4674   47.7474 H   0  0  0  0  0  0  0  0  0  0  0  0
   57.4078   21.2744   45.4144 H   0  0  0  0  0  0  0  0  0  0  0  0
   57.2062   26.5921   43.4656 H   0  0  0  0  0  0  0  0  0  0  0  0
   60.0229   29.1447   44.7420 H   0  0  0  0  0  0  0  0  0  0  0  0
   59.7899   31.5039   43.9694 H   0  0  0  0  0  0  0  0  0  0  0  0
   55.4836   31.1181   44.0626 H   0  0  0  0  0  0  0  0  0  0  0  0
   60.9290   27.1034   48.2429 H   0  0  0  0  0  0  0  0  0  0  0  0
   61.2930   29.3700   49.4800 H   0  0  0  0  0  0  0  0  0  0  0  0
  1  2  1  0
  2  3  2  0
  3  4  1  0
  4  5  2  0
  5  6  1  0
  6  7  2  0
  7  8  1  0
  8  9  2  0
  8 10  2  0
  8 11  1  0
 11 12  1  0
 12 13  2  0
 13 14  1  0
 14 15  2  0
 15 16  1  0
 16 17  1  0
 17 18  1  0
 18 19  2  0
 19 20  1  0
 20 21  2  0
 21 22  1  0
 22 23  1  0
 22 24  2  0
 16 25  2  0
 25 26  1  0
 26 27  3  0
 25 28  1  0
 28 29  2  0
 29 30  1  0
 30 31  2  0
 31 32  1  0
 32 33  2  0
 33 34  1  0
 33 35  1  0
 35 36  2  0
 36 37  1  0
 13 38  1  0
 38 39  2  0
  7  2  1  0
 39 11  1  0
 29 14  1  0
 36 30  1  0
 24 18  1  0
  1 40  1  0
  1 41  1  0
  1 42  1  0
  3 43  1  0
  4 44  1  0
  5 45  1  0
  6 46  1  0
 12 47  1  0
 19 48  1  0
 20 49  1  0
 21 50  1  0
 24 51  1  0
 28 52  1  0
 31 53  1  0
 32 54  1  0
 35 55  1  0
 38 56  1  0
 39 57  1  0
M  CHG  1  39   1
M  END
>  <UniqueID>  (82) 
72

>  <SMILES>  (82) 
Cc1ccccc1S(=O)(=O)n1cc(-c2nc(Oc3cccc(F)c3)c(C#N)cc2-c2ccc(F)cc2F)c[nH+]1

>  <Energy>  (82) 
114.9243826342195

>  <Genealogy>  (82) 
Cc1ccccc1S(=O)(=O)n1cc(-c2nc(Oc3cccc(F)c3)c(C#N)cc2-c2ccc(F)cc2F)c[nH+]1 (protonated)
Cc1ccccc1S(=O)(=O)n1cc(-c2nc(Oc3cccc(F)c3)c(C#N)cc2-c2ccc(F)cc2F)c[nH+]1 (3D coordinates assigned)
Cc1ccccc1S(=O)(=O)n1cc(-c2nc(Oc3cccc(F)c3)c(C#N)cc2-c2ccc(F)cc2F)c[nH+]1 (optimized conformer: 114.9243826342195 kcal/mol)

>  <smiles>  (82) 
Cc1ccccc1S(=O)(=O)n1cc(-c2nc(Oc3cccc(F)c3)c(C#N)cc2-c2ccc(F)cc2F)cn1

>  <score_type>  (82) 
oracle

>  <origin>  (82) 
adg

>  <m_score__min__energy>  (82) 
-7.9400000000000004

>  <m_primary>  (82) 
energy

$$$$
82:0
     RDKit          3D

 58 62  0  0  0  0  0  0  0  0999 V2000
   63.2450   30.8410   49.8290 O   0  0  0  0  0  0  0  0  0  0  0  0
   62.1200   31.3830   49.6510 C   0  0  0  0  0  0  0  0  0  0  0  0
   61.0560   31.0510   50.4890 C   0  0  0  0  0  0  0  0  0  0  0  0
   59.8040   31.6570   50.2860 C   0  0  0  0  0  0  0  0  0  0  0  0
   58.6250   31.3410   51.1350 C   0  0  0  0  0  0  0  0  0  0  0  0
   57.7260   32.3380   51.5630 C   0  0  0  0  0  0  0  0  0  0  0  0
   56.6360   32.0080   52.3740 C   0  0  0  0  0  0  0  0  0  0  0  0
   56.4350   30.6860   52.7760 C   0  0  0  0  0  0  0  0  0  0  0  0
   57.3260   29.6910   52.3710 C   0  0  0  0  0  0  0  0  0  0  0  0
   58.4180   30.0150   51.5610 C   0  0  0  0  0  0  0  0  0  0  0  0
   59.6620   32.5530   49.3120 O   0  0  0  0  0  0  0  0  0  0  0  0
   60.6450   32.9050   48.4870 C   0  0  0  0  0  0  0  0  0  0  0  0
   60.4030   33.8570   47.4740 C   0  0  0  0  0  0  0  0  0  0  0  0
   59.0940   34.4510   47.3160 N   0  0  0  0  0  0  0  0  0  0  0  0
   58.2620   33.6880   46.3600 C   0  0  1  0  0  0  0  0  0  0  0  0
   58.8560   33.7760   44.9460 C   0  0  0  0  0  0  0  0  0  0  0  0
   57.9730   33.0560   43.9140 C   0  0  0  0  0  0  0  0  0  0  0  0
   57.0720   31.9780   44.5480 C   0  0  0  0  0  0  0  0  0  0  0  0
   57.7270   31.2790   45.6760 N   0  0  0  0  0  0  0  0  0  0  0  0
   58.8340   30.3940   45.2490 C   0  0  0  0  0  0  0  0  0  0  0  0
   59.1330   29.3560   46.2990 C   0  0  0  0  0  0  0  0  0  0  0  0
   60.1180   29.5870   47.2740 C   0  0  0  0  0  0  0  0  0  0  0  0
   60.4020   28.6100   48.2330 C   0  0  0  0  0  0  0  0  0  0  0  0
   59.7070   27.3980   48.2250 C   0  0  0  0  0  0  0  0  0  0  0  0
   58.7280   27.1590   47.2560 C   0  0  0  0  0  0  0  0  0  0  0  0
   58.4420   28.1330   46.2950 C   0  0  0  0  0  0  0  0  0  0  0  0
   58.1180   32.1960   46.7820 C   0  0  0  0  0  0  0  0  0  0  0  0
   61.4490   34.2080   46.6030 C   0  0  0  0  0  0  0  0  0  0  0  0
   62.7130   33.6300   46.7390 C   0  0  0  0  0  0  0  0  0  0  0  0
   62.9550   32.6930   47.7450 C   0  0  0  0  0  0  0  0  0  0  0  0
   61.9240   32.3220   48.6250 C   0  0  0  0  0  0  0  0  0  0  0  0
   61.1951   30.3220   51.3009 H   0  0  0  0  0  0  0  0  0  0  0  0
   57.8828   33.3829   51.2570 H   0  0  0  0  0  0  0  0  0  0  0  0
   55.9349   32.7919   52.6963 H   0  0  0  0  0  0  0  0  0  0  0  0
   55.5748   30.4289   53.4116 H   0  0  0  0  0  0  0  0  0  0  0  0
   57.1686   28.6501   52.6898 H   0  0  0  0  0  0  0  0  0  0  0  0
   59.1217   29.2274   51.2537 H   0  0  0  0  0  0  0  0  0  0  0  0
   58.6260   34.4700   48.2540 H   0  0  0  0  0  0  0  0  0  0  0  0
   59.1780   35.4480   47.0040 H   0  0  0  0  0  0  0  0  0  0  0  0
   57.2587   34.1390   46.3637 H   0  0  0  0  0  0  0  0  0  0  0  0
   58.9456   34.8349   44.6620 H   0  0  0  0  0  0  0  0  0  0  0  0
   59.8411   33.2866   44.9562 H   0  0  0  0  0  0  0  0  0  0  0  0
   57.3338   33.8009   43.4176 H   0  0  0  0  0  0  0  0  0  0  0  0
   58.6412   32.5517   43.2005 H   0  0  0  0  0  0  0  0  0  0  0  0
   56.1540   32.4588   44.9170 H   0  0  0  0  0  0  0  0  0  0  0  0
   56.8545   31.2282   43.7731 H   0  0  0  0  0  0  0  0  0  0  0  0
   58.5499   29.8883   44.3143 H   0  0  0  0  0  0  0  0  0  0  0  0
   59.7341   31.0079   45.0977 H   0  0  0  0  0  0  0  0  0  0  0  0
   60.6676   30.5398   47.2828 H   0  0  0  0  0  0  0  0  0  0  0  0
   61.1735   28.7958   48.9947 H   0  0  0  0  0  0  0  0  0  0  0  0
   59.9302   26.6314   48.9816 H   0  0  0  0  0  0  0  0  0  0  0  0
   58.1824   26.2039   47.2498 H   0  0  0  0  0  0  0  0  0  0  0  0
   57.6727   27.9410   45.5325 H   0  0  0  0  0  0  0  0  0  0  0  0
   57.3512   32.1333   47.5682 H   0  0  0  0  0  0  0  0  0  0  0  0
   59.1110   31.8693   47.1244 H   0  0  0  0  0  0  0  0  0  0  0  0
   61.2702   34.9452   45.8064 H   0  0  0  0  0  0  0  0  0  0  0  0
   63.5219   33.9145   46.0500 H   0  0  0  0  0  0  0  0  0  0  0  0
   63.9540   32.2444   47.8491 H   0  0  0  0  0  0  0  0  0  0  0  0
  1  2  2  0
  2  3  1  0
  3  4  2  0
  4  5  1  0
  5  6  2  0
  6  7  1  0
  7  8  2  0
  8  9  1  0
  9 10  2  0
  4 11  1  0
 11 12  1  0
 12 13  2  0
 13 14  1  0
 14 15  1  0
 15 16  1  0
 16 17  1  0
 17 18  1  0
 18 19  1  0
 19 20  1  0
 20 21  1  0
 21 22  2  0
 22 23  1  0
 23 24  2  0
 24 25  1  0
 25 26  2  0
 19 27  1  0
 13 28  1  0
 28 29  2  0
 29 30  1  0
 30 31  2  0
 31  2  1  0
 10  5  1  0
 31 12  1  0
 27 15  1  0
 26 21  1  0
  3 32  1  0
  6 33  1  0
  7 34  1  0
  8 35  1  0
  9 36  1  0
 10 37  1  0
 14 38  1  0
 14 39  1  0
 15 40  1  6
 16 41  1  0
 16 42  1  0
 17 43  1  0
 17 44  1  0
 18 45  1  0
 18 46  1  0
 20 47  1  0
 20 48  1  0
 22 49  1  0
 23 50  1  0
 24 51  1  0
 25 52  1  0
 26 53  1  0
 27 54  1  0
 27 55  1  0
 28 56  1  0
 29 57  1  0
 30 58  1  0
M  CHG  1  14   1
M  END
>  <UniqueID>  (83) 
73

>  <SMILES>  (83) 
O=c1cc(-c2ccccc2)oc2c([NH2+][C@H]3CCCN(Cc4ccccc4)C3)cccc12

>  <Energy>  (83) 
82.93573530633348

>  <Genealogy>  (83) 
O=c1cc(-c2ccccc2)oc2c([NH2+]C3CCCN(Cc4ccccc4)C3)cccc12 (protonated)
O=c1cc(-c2ccccc2)oc2c([NH2+][C@H]3CCCN(Cc4ccccc4)C3)cccc12 (chirality)
O=c1cc(-c2ccccc2)oc2c([NH2+][C@H]3CCCN(Cc4ccccc4)C3)cccc12 (3D coordinates assigned)
O=c1cc(-c2ccccc2)oc2c([NH2+][C@H]3CCCN(Cc4ccccc4)C3)cccc12 (nonaromatic ring conformer: 82.93573530633348 kcal/mol)

>  <smiles>  (83) 
O=c1cc(-c2ccccc2)oc2c(NC3CCCN(Cc4ccccc4)C3)cccc12

>  <score_type>  (83) 
oracle

>  <origin>  (83) 
adg

>  <m_score__min__energy>  (83) 
-7.4000000000000004

>  <m_primary>  (83) 
energy

$$$$
83:0
     RDKit          3D

 64 67  0  0  0  0  0  0  0  0999 V2000
   59.0274   32.6438   50.9944 H   0  0  0  0  0  0  0  0  0  0  0  0
   58.4870   31.7640   50.6150 C   0  0  0  0  0  0  0  0  0  0  0  0
   58.6750   31.4070   49.3390 C   0  0  0  0  0  0  0  0  0  0  0  0
   57.9102   31.6646   48.5915 H   0  0  0  0  0  0  0  0  0  0  0  0
   60.1150   30.5360   48.8280 S   0  0  0  0  0  0  0  0  0  0  0  0
   60.4790   30.9140   47.4190 O   0  0  0  0  0  0  0  0  0  0  0  0
   61.2720   30.8810   49.7240 O   0  0  0  0  0  0  0  0  0  0  0  0
   59.8220   28.8290   48.9380 N   0  0  0  0  0  0  0  0  0  0  0  0
   59.1940   28.0200   47.9320 C   0  0  0  0  0  0  0  0  0  0  0  0
   58.0500   28.4570   47.2360 C   0  0  0  0  0  0  0  0  0  0  0  0
   57.6072   29.4358   47.4724 H   0  0  0  0  0  0  0  0  0  0  0  0
   57.4710   27.6510   46.2420 C   0  0  0  0  0  0  0  0  0  0  0  0
   56.3170   28.0740   45.5000 N   0  0  0  0  0  0  0  0  0  0  0  0
   56.1860   29.2910   44.7560 C   0  0  0  0  0  0  0  0  0  0  0  0
   55.1360   29.9840   44.8370 O   0  0  0  0  0  0  0  0  0  0  0  0
   57.3650   29.8090   43.9910 C   0  0  0  0  0  0  0  0  0  0  0  0
   58.1924   29.0893   44.0771 H   0  0  0  0  0  0  0  0  0  0  0  0
   57.0681   29.9364   42.9395 H   0  0  0  0  0  0  0  0  0  0  0  0
   57.8180   31.1430   44.5220 C   0  0  0  0  0  0  0  0  0  0  0  0
   57.9880   31.3380   45.9030 C   0  0  0  0  0  0  0  0  0  0  0  0
   57.7857   30.5127   46.6016 H   0  0  0  0  0  0  0  0  0  0  0  0
   58.4130   32.5760   46.3930 C   0  0  0  0  0  0  0  0  0  0  0  0
   58.5255   32.7286   47.4765 H   0  0  0  0  0  0  0  0  0  0  0  0
   58.6960   33.6230   45.5060 C   0  0  0  0  0  0  0  0  0  0  0  0
   59.2520   35.2120   46.1290 S   0  0  0  0  0  0  0  0  0  0  0  0
   59.6940   34.5900   47.7910 C   0  0  0  0  0  0  0  0  0  0  0  0
   59.6104   35.4110   48.5183 H   0  0  0  0  0  0  0  0  0  0  0  0
   59.0072   33.7735   48.0585 H   0  0  0  0  0  0  0  0  0  0  0  0
   61.1080   34.0600   47.8010 C   0  0  0  0  0  0  0  0  0  0  0  0
   61.7930   33.9510   46.5770 C   0  0  0  0  0  0  0  0  0  0  0  0
   61.2797   34.2156   45.6408 H   0  0  0  0  0  0  0  0  0  0  0  0
   63.1160   33.5110   46.5380 C   0  0  0  0  0  0  0  0  0  0  0  0
   63.6386   33.4248   45.5739 H   0  0  0  0  0  0  0  0  0  0  0  0
   63.7770   33.1800   47.7220 C   0  0  0  0  0  0  0  0  0  0  0  0
   64.8220   32.8380   47.6915 H   0  0  0  0  0  0  0  0  0  0  0  0
   63.1120   33.2830   48.9440 C   0  0  0  0  0  0  0  0  0  0  0  0
   63.6382   33.0232   49.8744 H   0  0  0  0  0  0  0  0  0  0  0  0
   61.7810   33.7140   48.9970 C   0  0  0  0  0  0  0  0  0  0  0  0
   61.0100   33.8080   50.5790 Cl  0  0  0  0  0  0  0  0  0  0  0  0
   58.5350   33.4320   44.1290 C   0  0  0  0  0  0  0  0  0  0  0  0
   58.7486   34.2555   43.4317 H   0  0  0  0  0  0  0  0  0  0  0  0
   58.1030   32.1960   43.6380 C   0  0  0  0  0  0  0  0  0  0  0  0
   57.9859   32.0480   42.5543 H   0  0  0  0  0  0  0  0  0  0  0  0
   58.0080   26.3890   45.9820 C   0  0  0  0  0  0  0  0  0  0  0  0
   57.5349   25.7378   45.2322 H   0  0  0  0  0  0  0  0  0  0  0  0
   59.1410   25.9480   46.6670 C   0  0  0  0  0  0  0  0  0  0  0  0
   59.5631   24.9569   46.4441 H   0  0  0  0  0  0  0  0  0  0  0  0
   59.7470   26.7630   47.6410 C   0  0  0  0  0  0  0  0  0  0  0  0
   60.8930   26.3540   48.3440 O   0  0  0  0  0  0  0  0  0  0  0  0
   61.0590   26.4640   49.7540 C   0  0  0  0  0  0  0  0  0  0  0  0
   60.2457   25.9251   50.2621 H   0  0  0  0  0  0  0  0  0  0  0  0
   62.0259   26.0273   50.0446 H   0  0  0  0  0  0  0  0  0  0  0  0
   61.0336   27.5246   50.0446 H   0  0  0  0  0  0  0  0  0  0  0  0
   57.5890   31.0370   51.5450 C   0  0  0  0  0  0  0  0  0  0  0  0
   56.3160   31.5350   51.8940 C   0  0  0  0  0  0  0  0  0  0  0  0
   55.9707   32.4925   51.4769 H   0  0  0  0  0  0  0  0  0  0  0  0
   55.4910   30.8200   52.7660 C   0  0  0  0  0  0  0  0  0  0  0  0
   54.5014   31.2182   53.0346 H   0  0  0  0  0  0  0  0  0  0  0  0
   55.9180   29.6030   53.2970 C   0  0  0  0  0  0  0  0  0  0  0  0
   55.2679   29.0447   53.9867 H   0  0  0  0  0  0  0  0  0  0  0  0
   57.1720   29.0940   52.9520 C   0  0  0  0  0  0  0  0  0  0  0  0
   57.5067   28.1329   53.3695 H   0  0  0  0  0  0  0  0  0  0  0  0
   58.0040   29.8010   52.0780 C   0  0  0  0  0  0  0  0  0  0  0  0
   59.2230   29.2870   51.7650 F   0  0  0  0  0  0  0  0  0  0  0  0
  1  2  1  0
  2  3  2  0
  3  4  1  0
  3  5  1  0
  5  6  2  0
  5  7  2  0
  5  8  1  0
  8  9  1  0
  9 10  2  0
 10 11  1  0
 10 12  1  0
 12 13  1  0
 13 14  1  0
 14 15  2  0
 14 16  1  0
 16 17  1  0
 16 18  1  0
 16 19  1  0
 19 20  2  0
 20 21  1  0
 20 22  1  0
 22 23  1  0
 22 24  2  0
 24 25  1  0
 25 26  1  0
 26 27  1  0
 26 28  1  0
 26 29  1  0
 29 30  2  0
 30 31  1  0
 30 32  1  0
 32 33  1  0
 32 34  2  0
 34 35  1  0
 34 36  1  0
 36 37  1  0
 36 38  2  0
 38 39  1  0
 24 40  1  0
 40 41  1  0
 40 42  2  0
 42 43  1  0
 12 44  2  0
 44 45  1  0
 44 46  1  0
 46 47  1  0
 46 48  2  0
 48 49  1  0
 49 50  1  0
 50 51  1  0
 50 52  1  0
 50 53  1  0
  2 54  1  0
 54 55  2  0
 55 56  1  0
 55 57  1  0
 57 58  1  0
 57 59  2  0
 59 60  1  0
 59 61  1  0
 61 62  1  0
 61 63  2  0
 63 64  1  0
 48  9  1  0
 63 54  1  0
 42 19  1  0
 38 29  1  0
M  CHG  2   8  -1  13  -1
M  END
>  <UniqueID>  (84) 
74

>  <SMILES>  (84) 
COc1ccc([N-]C(=O)Cc2ccc(SCc3ccccc3Cl)cc2)cc1[N-]S(=O)(=O)/C=C/c1ccccc1F

>  <Energy>  (84) 
67.74090872847208

>  <Genealogy>  (84) 
COc1ccc([N-]C(=O)Cc2ccc(SCc3ccccc3Cl)cc2)cc1[N-]S(=O)(=O)C=Cc1ccccc1F (protonated)
COc1ccc([N-]C(=O)Cc2ccc(SCc3ccccc3Cl)cc2)cc1[N-]S(=O)(=O)/C=C/c1ccccc1F (cis-trans isomerization)
COc1ccc([N-]C(=O)Cc2ccc(SCc3ccccc3Cl)cc2)cc1[N-]S(=O)(=O)/C=C/c1ccccc1F (3D coordinates assigned)
COc1ccc([N-]C(=O)Cc2ccc(SCc3ccccc3Cl)cc2)cc1[N-]S(=O)(=O)/C=C/c1ccccc1F (optimized conformer: 67.74090872847208 kcal/mol)

>  <smiles>  (84) 
COc1ccc(NC(=O)Cc2ccc(SCc3ccccc3Cl)cc2)cc1NS(=O)(=O)C=Cc1ccccc1F

>  <score_type>  (84) 
oracle

>  <origin>  (84) 
adg

>  <m_score__min__energy>  (84) 
-14.35

>  <m_primary>  (84) 
energy

$$$$
84:0
     RDKit          3D

 46 49  0  0  0  0  0  0  0  0999 V2000
   58.0940   20.0890   46.7390 N   0  0  0  0  0  0  0  0  0  0  0  0
   57.4140   21.3450   46.6580 C   0  0  0  0  0  0  0  0  0  0  0  0
   57.0190   21.8980   47.7200 O   0  0  0  0  0  0  0  0  0  0  0  0
   57.1600   21.9900   45.3470 C   0  0  0  0  0  0  0  0  0  0  0  0
   56.9310   21.1840   44.2160 C   0  0  0  0  0  0  0  0  0  0  0  0
   56.6470   21.7600   42.9770 C   0  0  0  0  0  0  0  0  0  0  0  0
   56.5880   23.1470   42.8470 C   0  0  0  0  0  0  0  0  0  0  0  0
   56.8130   23.9630   43.9560 C   0  0  0  0  0  0  0  0  0  0  0  0
   57.0890   23.3990   45.2150 C   0  0  0  0  0  0  0  0  0  0  0  0
   57.3950   24.2600   46.3260 N   0  0  0  0  0  0  0  0  0  0  0  0
   57.6850   25.6640   46.2010 C   0  0  0  0  0  0  0  0  0  0  0  0
   58.9780   26.1660   46.4310 C   0  0  0  0  0  0  0  0  0  0  0  0
   59.2370   27.5320   46.2920 C   0  0  0  0  0  0  0  0  0  0  0  0
   58.2180   28.4050   45.9030 C   0  0  0  0  0  0  0  0  0  0  0  0
   56.9310   27.9110   45.6260 C   0  0  0  0  0  0  0  0  0  0  0  0
   55.8520   28.7730   45.2380 N   0  0  0  0  0  0  0  0  0  0  0  0
   55.8750   29.7520   44.1890 C   0  0  0  0  0  0  0  0  0  0  0  0
   55.1100   29.6360   43.1940 O   0  0  0  0  0  0  0  0  0  0  0  0
   56.7540   30.9310   44.2930 C   0  0  0  0  0  0  0  0  0  0  0  0
   57.3190   31.5230   43.1500 C   0  0  0  0  0  0  0  0  0  0  0  0
   58.1450   32.6400   43.2870 C   0  0  0  0  0  0  0  0  0  0  0  0
   58.4060   33.1640   44.5580 C   0  0  0  0  0  0  0  0  0  0  0  0
   59.2320   34.2850   44.7300 C   0  0  0  0  0  0  0  0  0  0  0  0
   59.4710   34.7850   46.0150 C   0  0  0  0  0  0  0  0  0  0  0  0
   58.8910   34.1700   47.1280 C   0  0  0  0  0  0  0  0  0  0  0  0
   58.0660   33.0520   46.9660 C   0  0  0  0  0  0  0  0  0  0  0  0
   57.8210   32.5460   45.6850 C   0  0  0  0  0  0  0  0  0  0  0  0
   57.0190   31.4590   45.5210 N   0  0  0  0  0  0  0  0  0  0  0  0
   56.6720   26.5430   45.7920 C   0  0  0  0  0  0  0  0  0  0  0  0
   58.2250   19.6250   47.6640 H   0  0  0  0  0  0  0  0  0  0  0  0
   58.5200   19.6480   45.8940 H   0  0  0  0  0  0  0  0  0  0  0  0
   56.9764   20.0889   44.3097 H   0  0  0  0  0  0  0  0  0  0  0  0
   56.4693   21.1185   42.1012 H   0  0  0  0  0  0  0  0  0  0  0  0
   56.3639   23.5982   41.8692 H   0  0  0  0  0  0  0  0  0  0  0  0
   56.7743   25.0567   43.8451 H   0  0  0  0  0  0  0  0  0  0  0  0
   57.4440   23.8280   47.2770 H   0  0  0  0  0  0  0  0  0  0  0  0
   59.7884   25.4811   46.7213 H   0  0  0  0  0  0  0  0  0  0  0  0
   60.2467   27.9213   46.4895 H   0  0  0  0  0  0  0  0  0  0  0  0
   58.4231   29.4820   45.8132 H   0  0  0  0  0  0  0  0  0  0  0  0
   57.1113   31.1081   42.1526 H   0  0  0  0  0  0  0  0  0  0  0  0
   58.5903   33.1079   42.3966 H   0  0  0  0  0  0  0  0  0  0  0  0
   59.6911   34.7702   43.8560 H   0  0  0  0  0  0  0  0  0  0  0  0
   60.1174   35.6648   46.1495 H   0  0  0  0  0  0  0  0  0  0  0  0
   59.0841   34.5668   48.1356 H   0  0  0  0  0  0  0  0  0  0  0  0
   57.6106   32.5715   47.8445 H   0  0  0  0  0  0  0  0  0  0  0  0
   55.6612   26.1544   45.5989 H   0  0  0  0  0  0  0  0  0  0  0  0
  1  2  1  0
  2  3  2  0
  2  4  1  0
  4  5  2  0
  5  6  1  0
  6  7  2  0
  7  8  1  0
  8  9  2  0
  9 10  1  0
 10 11  1  0
 11 12  2  0
 12 13  1  0
 13 14  2  0
 14 15  1  0
 15 16  1  0
 16 17  1  0
 17 18  2  0
 17 19  1  0
 19 20  2  0
 20 21  1  0
 21 22  2  0
 22 23  1  0
 23 24  2  0
 24 25  1  0
 25 26  2  0
 26 27  1  0
 27 28  2  0
 15 29  2  0
  9  4  1  0
 29 11  1  0
 28 19  1  0
 27 22  1  0
  1 30  1  0
  1 31  1  0
  5 32  1  0
  6 33  1  0
  7 34  1  0
  8 35  1  0
 10 36  1  0
 12 37  1  0
 13 38  1  0
 14 39  1  0
 20 40  1  0
 21 41  1  0
 23 42  1  0
 24 43  1  0
 25 44  1  0
 26 45  1  0
 29 46  1  0
M  CHG  1  16  -1
M  END
>  <UniqueID>  (85) 
75

>  <SMILES>  (85) 
NC(=O)c1ccccc1Nc1cccc([N-]C(=O)c2ccc3ccccc3n2)c1

>  <Energy>  (85) 
66.54028393259021

>  <Genealogy>  (85) 
NC(=O)c1ccccc1Nc1cccc([N-]C(=O)c2ccc3ccccc3n2)c1 (protonated)
NC(=O)c1ccccc1Nc1cccc([N-]C(=O)c2ccc3ccccc3n2)c1 (3D coordinates assigned)
NC(=O)c1ccccc1Nc1cccc([N-]C(=O)c2ccc3ccccc3n2)c1 (optimized conformer: 66.54028393259021 kcal/mol)

>  <smiles>  (85) 
NC(=O)c1ccccc1Nc1cccc(NC(=O)c2ccc3ccccc3n2)c1

>  <score_type>  (85) 
oracle

>  <origin>  (85) 
adg

>  <m_score__min__energy>  (85) 
-12.44

>  <m_primary>  (85) 
energy

$$$$
85:0
     RDKit          3D

 40 41  0  0  0  0  0  0  0  0999 V2000
   59.3130   34.2790   48.1740 C   0  0  0  0  0  0  0  0  0  0  0  0
   58.9200   33.8310   46.7980 C   0  0  0  0  0  0  0  0  0  0  0  0
   57.8680   32.9180   46.6250 C   0  0  0  0  0  0  0  0  0  0  0  0
   57.5250   32.4730   45.3450 C   0  0  0  0  0  0  0  0  0  0  0  0
   58.2410   32.9180   44.2230 C   0  0  0  0  0  0  0  0  0  0  0  0
   57.8480   32.4650   42.8440 C   0  0  0  0  0  0  0  0  0  0  0  0
   57.0170   31.1820   42.9140 C   0  0  0  0  0  0  0  0  0  0  0  0
   57.7460   30.1380   43.6310 N   0  0  0  0  0  0  0  0  0  0  0  0
   57.1450   29.3550   44.6730 C   0  0  0  0  0  0  0  0  0  0  0  0
   55.9440   29.5520   45.0070 O   0  0  0  0  0  0  0  0  0  0  0  0
   57.9450   28.3120   45.3900 C   0  0  0  0  0  0  0  0  0  0  0  0
   59.7240   28.5060   45.0310 S   0  0  0  0  0  0  0  0  0  0  0  0
   60.0450   29.5700   46.4350 C   0  0  0  0  0  0  0  0  0  0  0  0
   59.2360   29.5170   47.5260 N   0  0  0  0  0  0  0  0  0  0  0  0
   59.4610   30.3170   48.6000 C   0  0  0  0  0  0  0  0  0  0  0  0
   60.5330   31.2080   48.5900 C   0  0  0  0  0  0  0  0  0  0  0  0
   61.3590   31.2490   47.4620 C   0  0  0  0  0  0  0  0  0  0  0  0
   62.5260   32.1830   47.4100 C   0  0  0  0  0  0  0  0  0  0  0  0
   61.0990   30.4280   46.4110 N   0  0  0  0  0  0  0  0  0  0  0  0
   59.2950   33.8290   44.3980 C   0  0  0  0  0  0  0  0  0  0  0  0
   59.6390   34.2730   45.6770 C   0  0  0  0  0  0  0  0  0  0  0  0
   58.7815   33.6731   48.9226 H   0  0  0  0  0  0  0  0  0  0  0  0
   60.3981   34.1540   48.3044 H   0  0  0  0  0  0  0  0  0  0  0  0
   59.0477   35.3385   48.3044 H   0  0  0  0  0  0  0  0  0  0  0  0
   57.3113   32.5513   47.5000 H   0  0  0  0  0  0  0  0  0  0  0  0
   56.6889   31.7698   45.2164 H   0  0  0  0  0  0  0  0  0  0  0  0
   57.2541   33.2543   42.3600 H   0  0  0  0  0  0  0  0  0  0  0  0
   58.7606   32.2647   42.2634 H   0  0  0  0  0  0  0  0  0  0  0  0
   56.0732   31.3903   43.4393 H   0  0  0  0  0  0  0  0  0  0  0  0
   56.8129   30.8343   41.8906 H   0  0  0  0  0  0  0  0  0  0  0  0
   58.7250   29.9270   43.3370 H   0  0  0  0  0  0  0  0  0  0  0  0
   57.7819   28.4127   46.4732 H   0  0  0  0  0  0  0  0  0  0  0  0
   57.6206   27.3186   45.0467 H   0  0  0  0  0  0  0  0  0  0  0  0
   58.7985   30.2620   49.4764 H   0  0  0  0  0  0  0  0  0  0  0  0
   60.7253   31.8650   49.4510 H   0  0  0  0  0  0  0  0  0  0  0  0
   62.8402   32.4345   48.4337 H   0  0  0  0  0  0  0  0  0  0  0  0
   63.3592   31.6995   46.8790 H   0  0  0  0  0  0  0  0  0  0  0  0
   62.2368   33.1019   46.8790 H   0  0  0  0  0  0  0  0  0  0  0  0
   59.8528   34.1950   43.5234 H   0  0  0  0  0  0  0  0  0  0  0  0
   60.4779   34.9727   45.8060 H   0  0  0  0  0  0  0  0  0  0  0  0
  1  2  1  0
  2  3  2  0
  3  4  1  0
  4  5  2  0
  5  6  1  0
  6  7  1  0
  7  8  1  0
  8  9  1  0
  9 10  2  0
  9 11  1  0
 11 12  1  0
 12 13  1  0
 13 14  2  0
 14 15  1  0
 15 16  2  0
 16 17  1  0
 17 18  1  0
 17 19  2  0
  5 20  1  0
 20 21  2  0
 21  2  1  0
 19 13  1  0
  1 22  1  0
  1 23  1  0
  1 24  1  0
  3 25  1  0
  4 26  1  0
  6 27  1  0
  6 28  1  0
  7 29  1  0
  7 30  1  0
  8 31  1  0
 11 32  1  0
 11 33  1  0
 15 34  1  0
 16 35  1  0
 18 36  1  0
 18 37  1  0
 18 38  1  0
 20 39  1  0
 21 40  1  0
M  END
>  <UniqueID>  (86) 
76

>  <SMILES>  (86) 
Cc1ccc(CCNC(=O)CSc2nccc(C)n2)cc1

>  <Energy>  (86) 
27.436821584462283

>  <Genealogy>  (86) 
Cc1ccc(CCNC(=O)CSc2nccc(C)n2)cc1 (3D coordinates assigned)
Cc1ccc(CCNC(=O)CSc2nccc(C)n2)cc1 (optimized conformer: 27.436821584462283 kcal/mol)

>  <smiles>  (86) 
Cc1ccc(CCNC(=O)CSc2nccc(C)n2)cc1

>  <score_type>  (86) 
oracle

>  <origin>  (86) 
adg

>  <m_score__min__energy>  (86) 
-7.1500000000000004

>  <m_primary>  (86) 
energy

$$$$
86:0
     RDKit          3D

 31 33  0  0  0  0  0  0  0  0999 V2000
   59.6890   34.1990   49.4940 C   0  0  0  0  0  0  0  0  0  0  0  0
   61.0340   33.9550   48.8590 C   0  0  0  0  0  0  0  0  0  0  0  0
   62.1790   34.0420   49.6740 C   0  0  0  0  0  0  0  0  0  0  0  0
   63.4510   33.8260   49.1440 C   0  0  0  0  0  0  0  0  0  0  0  0
   63.6020   33.5220   47.7940 C   0  0  0  0  0  0  0  0  0  0  0  0
   62.4820   33.4330   46.9680 C   0  0  0  0  0  0  0  0  0  0  0  0
   61.1860   33.6450   47.4760 C   0  0  0  0  0  0  0  0  0  0  0  0
   60.0450   33.5320   46.5270 C   0  0  0  0  0  0  0  0  0  0  0  0
   59.6430   32.3960   45.9170 N   0  0  0  0  0  0  0  0  0  0  0  0
   58.5960   32.8180   45.1770 C   0  0  0  0  0  0  0  0  0  0  0  0
   57.7950   31.9230   44.3060 C   0  0  0  0  0  0  0  0  0  0  0  0
   57.7790   32.0810   42.9060 C   0  0  0  0  0  0  0  0  0  0  0  0
   57.0160   31.2250   42.1060 C   0  0  0  0  0  0  0  0  0  0  0  0
   56.2630   30.2040   42.6890 C   0  0  0  0  0  0  0  0  0  0  0  0
   56.2700   30.0350   44.0750 C   0  0  0  0  0  0  0  0  0  0  0  0
   55.5390   29.0430   44.6400 F   0  0  0  0  0  0  0  0  0  0  0  0
   57.0310   30.8890   44.8800 C   0  0  0  0  0  0  0  0  0  0  0  0
   58.3850   34.1380   45.3400 N   0  0  0  0  0  0  0  0  0  0  0  0
   59.2900   34.5470   46.1730 O   0  0  0  0  0  0  0  0  0  0  0  0
   59.7917   34.1804   50.5890 H   0  0  0  0  0  0  0  0  0  0  0  0
   59.3072   35.1811   49.1782 H   0  0  0  0  0  0  0  0  0  0  0  0
   58.9865   33.4136   49.1782 H   0  0  0  0  0  0  0  0  0  0  0  0
   62.0690   34.2832   50.7416 H   0  0  0  0  0  0  0  0  0  0  0  0
   64.3359   33.8960   49.7936 H   0  0  0  0  0  0  0  0  0  0  0  0
   64.6061   33.3518   47.3782 H   0  0  0  0  0  0  0  0  0  0  0  0
   62.6131   33.1933   45.9025 H   0  0  0  0  0  0  0  0  0  0  0  0
   58.3704   32.8827   42.4396 H   0  0  0  0  0  0  0  0  0  0  0  0
   57.0090   31.3564   41.0139 H   0  0  0  0  0  0  0  0  0  0  0  0
   55.6640   29.5325   42.0562 H   0  0  0  0  0  0  0  0  0  0  0  0
   57.0326   30.7515   45.9714 H   0  0  0  0  0  0  0  0  0  0  0  0
   57.6580   34.7480   44.9070 H   0  0  0  0  0  0  0  0  0  0  0  0
  1  2  1  0
  2  3  2  0
  3  4  1  0
  4  5  2  0
  5  6  1  0
  6  7  2  0
  7  8  1  0
  8  9  2  0
  9 10  1  0
 10 11  1  0
 11 12  2  0
 12 13  1  0
 13 14  2  0
 14 15  1  0
 15 16  1  0
 15 17  2  0
 10 18  2  0
 18 19  1  0
  7  2  1  0
 19  8  1  0
 17 11  1  0
  1 20  1  0
  1 21  1  0
  1 22  1  0
  3 23  1  0
  4 24  1  0
  5 25  1  0
  6 26  1  0
 12 27  1  0
 13 28  1  0
 14 29  1  0
 17 30  1  0
 18 31  1  0
M  CHG  1  18   1
M  END
>  <UniqueID>  (87) 
77

>  <SMILES>  (87) 
Cc1ccccc1-c1nc(-c2cccc(F)c2)[nH+]o1

>  <Energy>  (87) 
72.57882729990675

>  <Genealogy>  (87) 
Cc1ccccc1-c1nc(-c2cccc(F)c2)[nH+]o1 (protonated)
Cc1ccccc1-c1nc(-c2cccc(F)c2)[nH+]o1 (3D coordinates assigned)
Cc1ccccc1-c1nc(-c2cccc(F)c2)[nH+]o1 (optimized conformer: 72.57882729990675 kcal/mol)

>  <smiles>  (87) 
Cc1ccccc1-c1nc(-c2cccc(F)c2)no1

>  <score_type>  (87) 
oracle

>  <origin>  (87) 
adg

>  <m_score__min__energy>  (87) 
-6.0199999999999996

>  <m_primary>  (87) 
energy

$$$$
87:0
     RDKit          3D

 42 44  0  0  0  0  0  0  0  0999 V2000
   57.7950   27.9770   43.5730 C   0  0  0  0  0  0  0  0  0  0  0  0
   58.3300   28.2830   44.9780 C   0  0  2  0  0  0  0  0  0  0  0  0
   57.2820   27.9530   46.0570 C   0  0  0  0  0  0  0  0  0  0  0  0
   56.7580   26.6000   45.8860 N   0  0  0  0  0  0  0  0  0  0  0  0
   57.4820   25.4950   45.6290 C   0  0  0  0  0  0  0  0  0  0  0  0
   56.6220   24.4200   45.5700 C   0  0  0  0  0  0  0  0  0  0  0  0
   55.3700   24.9560   45.8080 C   0  0  0  0  0  0  0  0  0  0  0  0
   55.4780   26.2860   46.0000 N   0  0  0  0  0  0  0  0  0  0  0  0
   58.7120   29.6980   45.0620 N   0  0  0  0  0  0  0  0  0  0  0  0
   57.7370   30.7540   45.0830 C   0  0  0  0  0  0  0  0  0  0  0  0
   56.5300   30.4950   44.8220 O   0  0  0  0  0  0  0  0  0  0  0  0
   58.1320   32.1500   45.3850 C   0  0  0  0  0  0  0  0  0  0  0  0
   57.6770   33.2030   44.5770 C   0  0  0  0  0  0  0  0  0  0  0  0
   58.0470   34.5150   44.8760 C   0  0  0  0  0  0  0  0  0  0  0  0
   58.8450   34.7730   45.9450 N   0  0  0  0  0  0  0  0  0  0  0  0
   59.3110   33.7820   46.7510 C   0  0  0  0  0  0  0  0  0  0  0  0
   60.1110   34.1270   47.8490 O   0  0  0  0  0  0  0  0  0  0  0  0
   61.4600   33.7790   48.0150 C   0  0  0  0  0  0  0  0  0  0  0  0
   62.2850   33.4510   46.9220 C   0  0  0  0  0  0  0  0  0  0  0  0
   63.6280   33.1210   47.1290 C   0  0  0  0  0  0  0  0  0  0  0  0
   64.1610   33.1300   48.4210 C   0  0  0  0  0  0  0  0  0  0  0  0
   63.3520   33.4750   49.5070 C   0  0  0  0  0  0  0  0  0  0  0  0
   62.0090   33.8040   49.3030 C   0  0  0  0  0  0  0  0  0  0  0  0
   58.9400   32.4510   46.4940 C   0  0  0  0  0  0  0  0  0  0  0  0
   56.8427   27.4323   43.6538 H   0  0  0  0  0  0  0  0  0  0  0  0
   57.6334   28.9193   43.0289 H   0  0  0  0  0  0  0  0  0  0  0  0
   58.5253   27.3600   43.0289 H   0  0  0  0  0  0  0  0  0  0  0  0
   59.2125   27.6518   45.1592 H   0  0  0  0  0  0  0  0  0  0  0  0
   57.7502   28.0340   47.0491 H   0  0  0  0  0  0  0  0  0  0  0  0
   56.4484   28.6646   45.9631 H   0  0  0  0  0  0  0  0  0  0  0  0
   58.5725   25.4566   45.4900 H   0  0  0  0  0  0  0  0  0  0  0  0
   56.8757   23.3673   45.3762 H   0  0  0  0  0  0  0  0  0  0  0  0
   54.4302   24.3850   45.8363 H   0  0  0  0  0  0  0  0  0  0  0  0
   59.7270   29.9500   45.0360 H   0  0  0  0  0  0  0  0  0  0  0  0
   57.0311   32.9952   43.7112 H   0  0  0  0  0  0  0  0  0  0  0  0
   57.6916   35.3426   44.2445 H   0  0  0  0  0  0  0  0  0  0  0  0
   61.8719   33.4544   45.9025 H   0  0  0  0  0  0  0  0  0  0  0  0
   64.2660   32.8539   46.2736 H   0  0  0  0  0  0  0  0  0  0  0  0
   65.2164   32.8657   48.5829 H   0  0  0  0  0  0  0  0  0  0  0  0
   63.7726   33.4876   50.5233 H   0  0  0  0  0  0  0  0  0  0  0  0
   61.3790   34.0845   50.1600 H   0  0  0  0  0  0  0  0  0  0  0  0
   59.2820   31.6457   47.1607 H   0  0  0  0  0  0  0  0  0  0  0  0
  1  2  1  0
  2  3  1  0
  3  4  1  0
  4  5  1  0
  5  6  2  0
  6  7  1  0
  7  8  2  0
  2  9  1  0
  9 10  1  0
 10 11  2  0
 10 12  1  0
 12 13  2  0
 13 14  1  0
 14 15  2  0
 15 16  1  0
 16 17  1  0
 17 18  1  0
 18 19  2  0
 19 20  1  0
 20 21  2  0
 21 22  1  0
 22 23  2  0
 16 24  2  0
  8  4  1  0
 24 12  1  0
 23 18  1  0
  1 25  1  0
  1 26  1  0
  1 27  1  0
  2 28  1  1
  3 29  1  0
  3 30  1  0
  5 31  1  0
  6 32  1  0
  7 33  1  0
  9 34  1  0
 13 35  1  0
 14 36  1  0
 19 37  1  0
 20 38  1  0
 21 39  1  0
 22 40  1  0
 23 41  1  0
 24 42  1  0
M  END
>  <UniqueID>  (88) 
78

>  <SMILES>  (88) 
C[C@H](Cn1cccn1)NC(=O)c1ccnc(Oc2ccccc2)c1

>  <Energy>  (88) 
77.1151378949594

>  <Genealogy>  (88) 
C[C@H](Cn1cccn1)NC(=O)c1ccnc(Oc2ccccc2)c1 (chirality)
C[C@H](Cn1cccn1)NC(=O)c1ccnc(Oc2ccccc2)c1 (3D coordinates assigned)
C[C@H](Cn1cccn1)NC(=O)c1ccnc(Oc2ccccc2)c1 (optimized conformer: 77.1151378949594 kcal/mol)

>  <smiles>  (88) 
CC(Cn1cccn1)NC(=O)c1ccnc(Oc2ccccc2)c1

>  <score_type>  (88) 
oracle

>  <origin>  (88) 
adg

>  <m_score__min__energy>  (88) 
-8.0299999999999994

>  <m_primary>  (88) 
energy

$$$$
88:0
     RDKit          3D

 43 44  0  0  0  0  0  0  0  0999 V2000
   56.9986   28.3120   43.1134 H   0  0  0  0  0  0  0  0  0  0  0  0
   57.3480   28.8060   44.0320 C   0  0  0  0  0  0  0  0  0  0  0  0
   56.3850   29.6870   44.7380 C   0  0  0  0  0  0  0  0  0  0  0  0
   55.1830   29.3340   44.8720 O   0  0  0  0  0  0  0  0  0  0  0  0
   56.7720   30.9760   45.2320 N   0  0  0  0  0  0  0  0  0  0  0  0
   57.3610   32.0550   44.4420 C   0  0  0  0  0  0  0  0  0  0  0  0
   58.0396   31.6231   43.6917 H   0  0  0  0  0  0  0  0  0  0  0  0
   56.5509   32.6137   43.9505 H   0  0  0  0  0  0  0  0  0  0  0  0
   58.1360   33.0030   45.3210 C   0  0  0  0  0  0  0  0  0  0  0  0
   58.7360   34.1490   44.7750 C   0  0  0  0  0  0  0  0  0  0  0  0
   58.6237   34.3676   43.7028 H   0  0  0  0  0  0  0  0  0  0  0  0
   59.4750   35.0130   45.5870 C   0  0  0  0  0  0  0  0  0  0  0  0
   59.9393   35.9107   45.1528 H   0  0  0  0  0  0  0  0  0  0  0  0
   59.6260   34.7400   46.9490 C   0  0  0  0  0  0  0  0  0  0  0  0
   60.2126   35.4213   47.5828 H   0  0  0  0  0  0  0  0  0  0  0  0
   59.0320   33.6000   47.5110 C   0  0  0  0  0  0  0  0  0  0  0  0
   59.2350   33.2850   48.9640 C   0  0  0  0  0  0  0  0  0  0  0  0
   58.7406   34.0522   49.5780 H   0  0  0  0  0  0  0  0  0  0  0  0
   58.8016   32.2994   49.1896 H   0  0  0  0  0  0  0  0  0  0  0  0
   60.3116   33.2725   49.1896 H   0  0  0  0  0  0  0  0  0  0  0  0
   58.3080   32.7220   46.6880 C   0  0  0  0  0  0  0  0  0  0  0  0
   57.8721   31.8073   47.1161 H   0  0  0  0  0  0  0  0  0  0  0  0
   58.6100   28.5610   44.4200 C   0  0  0  0  0  0  0  0  0  0  0  0
   59.2616   28.0284   43.7116 H   0  0  0  0  0  0  0  0  0  0  0  0
   59.1950   28.9480   45.7200 C   0  0  0  0  0  0  0  0  0  0  0  0
   59.0220   28.1100   46.8260 C   0  0  0  0  0  0  0  0  0  0  0  0
   58.4296   27.1885   46.7263 H   0  0  0  0  0  0  0  0  0  0  0  0
   59.5970   28.4360   48.0570 C   0  0  0  0  0  0  0  0  0  0  0  0
   59.4377   27.7799   48.9254 H   0  0  0  0  0  0  0  0  0  0  0  0
   60.3790   29.5990   48.1930 C   0  0  0  0  0  0  0  0  0  0  0  0
   60.9670   29.9650   49.4140 O   0  0  0  0  0  0  0  0  0  0  0  0
   60.2390   30.2950   50.5930 C   0  0  0  0  0  0  0  0  0  0  0  0
   60.8334   30.0255   51.4785 H   0  0  0  0  0  0  0  0  0  0  0  0
   60.0315   31.3752   50.6055 H   0  0  0  0  0  0  0  0  0  0  0  0
   59.2899   29.7391   50.6055 H   0  0  0  0  0  0  0  0  0  0  0  0
   60.5890   30.4260   47.0780 C   0  0  0  0  0  0  0  0  0  0  0  0
   61.3890   31.5680   47.2380 O   0  0  0  0  0  0  0  0  0  0  0  0
   62.7910   31.5430   47.4910 C   0  0  0  0  0  0  0  0  0  0  0  0
   62.9677   31.5398   48.5767 H   0  0  0  0  0  0  0  0  0  0  0  0
   63.2278   30.6369   47.0458 H   0  0  0  0  0  0  0  0  0  0  0  0
   63.2599   32.4329   47.0458 H   0  0  0  0  0  0  0  0  0  0  0  0
   60.0040   30.0900   45.8410 C   0  0  0  0  0  0  0  0  0  0  0  0
   60.1823   30.7274   44.9624 H   0  0  0  0  0  0  0  0  0  0  0  0
  1  2  1  0
  2  3  1  0
  3  4  2  0
  3  5  1  0
  5  6  1  0
  6  7  1  0
  6  8  1  0
  6  9  1  0
  9 10  2  0
 10 11  1  0
 10 12  1  0
 12 13  1  0
 12 14  2  0
 14 15  1  0
 14 16  1  0
 16 17  1  0
 17 18  1  0
 17 19  1  0
 17 20  1  0
 16 21  2  0
 21 22  1  0
  2 23  2  0
 23 24  1  0
 23 25  1  0
 25 26  2  0
 26 27  1  0
 26 28  1  0
 28 29  1  0
 28 30  2  0
 30 31  1  0
 31 32  1  0
 32 33  1  0
 32 34  1  0
 32 35  1  0
 30 36  1  0
 36 37  1  0
 37 38  1  0
 38 39  1  0
 38 40  1  0
 38 41  1  0
 36 42  2  0
 42 43  1  0
 21  9  1  0
 42 25  1  0
M  CHG  1   5  -1
M  END
>  <UniqueID>  (89) 
79

>  <SMILES>  (89) 
COc1ccc(/C=C\C(=O)[N-]Cc2cccc(C)c2)cc1OC

>  <Energy>  (89) 
47.61534279372218

>  <Genealogy>  (89) 
COc1ccc(C=CC(=O)[N-]Cc2cccc(C)c2)cc1OC (protonated)
COc1ccc(/C=C\C(=O)[N-]Cc2cccc(C)c2)cc1OC (cis-trans isomerization)
COc1ccc(/C=C\C(=O)[N-]Cc2cccc(C)c2)cc1OC (3D coordinates assigned)
COc1ccc(/C=C\C(=O)[N-]Cc2cccc(C)c2)cc1OC (optimized conformer: 47.61534279372218 kcal/mol)

>  <smiles>  (89) 
COc1ccc(C=CC(=O)NCc2cccc(C)c2)cc1OC

>  <score_type>  (89) 
oracle

>  <origin>  (89) 
adg

>  <m_score__min__energy>  (89) 
-9.3300000000000001

>  <m_primary>  (89) 
energy

$$$$
89:0
     RDKit          3D

 85 91  0  0  0  0  0  0  0  0999 V2000
   57.2349   21.0030   42.7245 H   0  0  0  0  0  0  0  0  0  0  0  0
   57.3230   21.8490   43.4220 C   0  0  0  0  0  0  0  0  0  0  0  0
   58.2320   21.8490   44.8560 S   0  0  0  0  0  0  0  0  0  0  0  0
   57.8220   23.4220   45.2690 C   0  0  0  0  0  0  0  0  0  0  0  0
   57.0050   23.9600   44.3170 C   0  0  0  0  0  0  0  0  0  0  0  0
   56.5470   25.2240   44.4530 N   0  0  0  0  0  0  0  0  0  0  0  0
   56.8830   25.9810   45.5400 C   0  0  0  0  0  0  0  0  0  0  0  0
   56.3190   27.1560   45.6210 N   0  0  0  0  0  0  0  0  0  0  0  0
   56.6750   28.3900   44.9930 C   0  0  0  0  0  0  0  0  0  0  0  0
   55.7080   29.3830   44.8070 C   0  0  0  0  0  0  0  0  0  0  0  0
   54.6694   29.2024   45.1211 H   0  0  0  0  0  0  0  0  0  0  0  0
   56.0570   30.6050   44.2230 C   0  0  0  0  0  0  0  0  0  0  0  0
   55.2863   31.3719   44.0560 H   0  0  0  0  0  0  0  0  0  0  0  0
   57.3900   30.8580   43.8480 C   0  0  0  0  0  0  0  0  0  0  0  0
   57.7410   32.0750   43.0870 C   0  0  0  0  0  0  0  0  0  0  0  0
   58.1090   31.9880   41.8830 O   0  0  0  0  0  0  0  0  0  0  0  0
   57.7250   33.3530   43.7320 N   0  0  0  0  0  0  0  0  0  0  0  0
   58.1700   33.5360   45.1070 C   0  0  0  0  0  0  0  0  0  0  0  0
   57.3464   33.9485   45.7082 H   0  0  0  0  0  0  0  0  0  0  0  0
   58.4777   32.5672   45.5274 H   0  0  0  0  0  0  0  0  0  0  0  0
   59.3560   34.5060   45.1290 C   0  0  0  0  0  0  0  0  0  0  0  0
   60.2841   33.9397   44.9616 H   0  0  0  0  0  0  0  0  0  0  0  0
   59.2052   35.2537   44.3364 H   0  0  0  0  0  0  0  0  0  0  0  0
   59.4560   35.2420   46.4730 C   0  0  0  0  0  0  0  0  0  0  0  0
   60.2095   36.0382   46.3815 H   0  0  0  0  0  0  0  0  0  0  0  0
   58.4587   35.6453   46.7026 H   0  0  0  0  0  0  0  0  0  0  0  0
   59.8590   34.3150   47.6390 C   0  0  0  0  0  0  0  0  0  0  0  0
   59.2524   34.5686   48.5209 H   0  0  0  0  0  0  0  0  0  0  0  0
   59.6853   33.2755   47.3238 H   0  0  0  0  0  0  0  0  0  0  0  0
   61.2930   34.4560   47.9870 N   0  0  0  0  0  0  0  0  0  0  0  0
   62.1710   33.7220   47.0340 C   0  0  0  0  0  0  0  0  0  0  0  0
   61.6339   32.8309   46.6771 H   0  0  0  0  0  0  0  0  0  0  0  0
   62.4136   34.4108   46.2114 H   0  0  0  0  0  0  0  0  0  0  0  0
   63.4950   33.2750   47.6650 C   0  0  0  0  0  0  0  0  0  0  0  0
   64.1017   32.7613   46.9047 H   0  0  0  0  0  0  0  0  0  0  0  0
   64.0243   34.1630   48.0409 H   0  0  0  0  0  0  0  0  0  0  0  0
   63.2420   32.3140   48.8440 C   0  0  0  0  0  0  0  0  0  0  0  0
   63.0803   31.3108   48.4227 H   0  0  0  0  0  0  0  0  0  0  0  0
   64.4460   32.2540   49.7510 C   0  0  0  0  0  0  0  0  0  0  0  0
   64.5090   31.5890   50.9780 C   0  0  0  0  0  0  0  0  0  0  0  0
   63.7026   31.0371   51.4831 H   0  0  0  0  0  0  0  0  0  0  0  0
   65.8000   31.7750   51.4170 C   0  0  0  0  0  0  0  0  0  0  0  0
   66.4350   31.3310   52.5750 C   0  0  0  0  0  0  0  0  0  0  0  0
   65.8964   30.7358   53.3271 H   0  0  0  0  0  0  0  0  0  0  0  0
   67.7910   31.6710   52.7490 C   0  0  0  0  0  0  0  0  0  0  0  0
   68.3261   31.3367   53.6501 H   0  0  0  0  0  0  0  0  0  0  0  0
   68.4700   32.4390   51.7740 C   0  0  0  0  0  0  0  0  0  0  0  0
   69.5284   32.6992   51.9226 H   0  0  0  0  0  0  0  0  0  0  0  0
   67.7990   32.8720   50.6150 C   0  0  0  0  0  0  0  0  0  0  0  0
   68.3155   33.4689   49.8489 H   0  0  0  0  0  0  0  0  0  0  0  0
   66.4570   32.5190   50.4700 C   0  0  0  0  0  0  0  0  0  0  0  0
   65.6410   32.8170   49.4450 N   0  0  0  0  0  0  0  0  0  0  0  0
   65.8810   33.3640   48.5870 H   0  0  0  0  0  0  0  0  0  0  0  0
   61.9550   32.6740   49.6280 C   0  0  0  0  0  0  0  0  0  0  0  0
   61.1354   32.0255   49.2849 H   0  0  0  0  0  0  0  0  0  0  0  0
   62.1532   32.5250   50.6997 H   0  0  0  0  0  0  0  0  0  0  0  0
   61.5520   34.1400   49.4150 C   0  0  0  0  0  0  0  0  0  0  0  0
   60.6380   34.3423   49.9926 H   0  0  0  0  0  0  0  0  0  0  0  0
   62.3894   34.7694   49.7505 H   0  0  0  0  0  0  0  0  0  0  0  0
   58.3740   29.8930   44.1320 C   0  0  0  0  0  0  0  0  0  0  0  0
   59.4277   30.0990   43.8924 H   0  0  0  0  0  0  0  0  0  0  0  0
   58.0200   28.6760   44.7160 C   0  0  0  0  0  0  0  0  0  0  0  0
   58.7986   27.9383   44.9600 H   0  0  0  0  0  0  0  0  0  0  0  0
   57.8090   25.4290   46.5090 C   0  0  0  0  0  0  0  0  0  0  0  0
   58.5470   26.2460   47.5580 C   0  0  0  0  0  0  0  0  0  0  0  0
   57.8839   27.0428   47.9259 H   0  0  0  0  0  0  0  0  0  0  0  0
   58.8393   25.5782   48.3818 H   0  0  0  0  0  0  0  0  0  0  0  0
   59.8130   26.8790   46.9680 C   0  0  0  0  0  0  0  0  0  0  0  0
   60.6941   26.4414   47.4602 H   0  0  0  0  0  0  0  0  0  0  0  0
   59.8279   26.6774   45.8867 H   0  0  0  0  0  0  0  0  0  0  0  0
   59.8300   28.3740   47.1710 C   0  0  0  0  0  0  0  0  0  0  0  0
   60.6910   29.1840   46.4100 C   0  0  0  0  0  0  0  0  0  0  0  0
   61.3252   28.7300   45.6343 H   0  0  0  0  0  0  0  0  0  0  0  0
   60.7460   30.5620   46.6330 C   0  0  0  0  0  0  0  0  0  0  0  0
   61.4320   31.1869   46.0423 H   0  0  0  0  0  0  0  0  0  0  0  0
   59.9320   31.1470   47.6040 C   0  0  0  0  0  0  0  0  0  0  0  0
   59.9844   32.2305   47.7861 H   0  0  0  0  0  0  0  0  0  0  0  0
   59.0500   30.3550   48.3450 C   0  0  0  0  0  0  0  0  0  0  0  0
   58.3960   30.8186   49.0982 H   0  0  0  0  0  0  0  0  0  0  0  0
   58.9980   28.9740   48.1300 C   0  0  0  0  0  0  0  0  0  0  0  0
   58.3020   28.3548   48.7150 H   0  0  0  0  0  0  0  0  0  0  0  0
   58.2320   24.1340   46.3430 N   0  0  0  0  0  0  0  0  0  0  0  0
   58.9050   23.6940   47.0100 H   0  0  0  0  0  0  0  0  0  0  0  0
   56.7050   23.0910   43.2670 C   0  0  0  0  0  0  0  0  0  0  0  0
   56.0578   23.3538   42.4173 H   0  0  0  0  0  0  0  0  0  0  0  0
  1  2  1  0
  2  3  1  0
  3  4  1  0
  4  5  2  0
  5  6  1  0
  6  7  1  0
  7  8  2  0
  8  9  1  0
  9 10  2  0
 10 11  1  0
 10 12  1  0
 12 13  1  0
 12 14  2  0
 14 15  1  0
 15 16  2  0
 15 17  1  0
 17 18  1  0
 18 19  1  0
 18 20  1  0
 18 21  1  0
 21 22  1  0
 21 23  1  0
 21 24  1  0
 24 25  1  0
 24 26  1  0
 24 27  1  0
 27 28  1  0
 27 29  1  0
 27 30  1  0
 30 31  1  0
 31 32  1  0
 31 33  1  0
 31 34  1  0
 34 35  1  0
 34 36  1  0
 34 37  1  0
 37 38  1  0
 37 39  1  0
 39 40  2  0
 40 41  1  0
 40 42  1  0
 42 43  2  0
 43 44  1  0
 43 45  1  0
 45 46  1  0
 45 47  2  0
 47 48  1  0
 47 49  1  0
 49 50  1  0
 49 51  2  0
 51 52  1  0
 52 53  1  0
 37 54  1  0
 54 55  1  0
 54 56  1  0
 54 57  1  0
 57 58  1  0
 57 59  1  0
 14 60  1  0
 60 61  1  0
 60 62  2  0
 62 63  1  0
  7 64  1  0
 64 65  1  0
 65 66  1  0
 65 67  1  0
 65 68  1  0
 68 69  1  0
 68 70  1  0
 68 71  1  0
 71 72  2  0
 72 73  1  0
 72 74  1  0
 74 75  1  0
 74 76  2  0
 76 77  1  0
 76 78  1  0
 78 79  1  0
 78 80  2  0
 80 81  1  0
 64 82  2  0
 82 83  1  0
  5 84  1  0
 84 85  1  0
 84  2  2  0
 82  4  1  0
 62  9  1  0
 80 71  1  0
 57 30  1  0
 52 39  1  0
 51 42  1  0
M  CHG  3   6  -1  17  -1  82   1
M  END
>  <UniqueID>  (90) 
80

>  <SMILES>  (90) 
O=C([N-]CCCCN1CCC(c2cc3ccccc3[nH]2)CC1)c1ccc(/N=c2/[n-]c3ccsc3[nH+]c2CCc2ccccc2)cc1

>  <Energy>  (90) 
181.8214122645837

>  <Genealogy>  (90) 
O=C([N-]CCCCN1CCC(c2cc3ccccc3[nH]2)CC1)c1ccc(N=c2[n-]c3ccsc3[nH+]c2CCc2ccccc2)cc1 (protonated)
O=C([N-]CCCCN1CCC(c2cc3ccccc3[nH]2)CC1)c1ccc(/N=c2/[n-]c3ccsc3[nH+]c2CCc2ccccc2)cc1 (cis-trans isomerization)
O=C([N-]CCCCN1CCC(c2cc3ccccc3[nH]2)CC1)c1ccc(/N=c2/[n-]c3ccsc3[nH+]c2CCc2ccccc2)cc1 (3D coordinates assigned)
O=C([N-]CCCCN1CCC(c2cc3ccccc3[nH]2)CC1)c1ccc(/N=c2/[n-]c3ccsc3[nH+]c2CCc2ccccc2)cc1 (nonaromatic ring conformer: 181.8214122645837 kcal/mol)

>  <smiles>  (90) 
O=C(NCCCCN1CCC(c2cc3ccccc3[nH]2)CC1)c1ccc(N=c2[nH]c3ccsc3nc2CCc2ccccc2)cc1

>  <score_type>  (90) 
oracle

>  <origin>  (90) 
adg

>  <m_score__min__energy>  (90) 
-11.859999999999999

>  <m_primary>  (90) 
energy

$$$$
90:0
     RDKit          3D

 34 36  0  0  0  0  0  0  0  0999 V2000
   62.5370   29.7810   50.7300 H   0  0  0  0  0  0  0  0  0  0  0  0
   61.7720   29.1050   50.5040 N   0  0  0  0  0  0  0  0  0  0  0  0
   61.0030   29.2720   49.4780 C   0  0  0  0  0  0  0  0  0  0  0  0
   60.7950   30.5190   48.9880 N   0  0  0  0  0  0  0  0  0  0  0  0
   59.9920   30.7390   47.9130 C   0  0  0  0  0  0  0  0  0  0  0  0
   59.7850   32.1350   47.4700 C   0  0  0  0  0  0  0  0  0  0  0  0
   58.4810   32.5820   47.2010 C   0  0  0  0  0  0  0  0  0  0  0  0
   57.6322   31.8911   47.3112 H   0  0  0  0  0  0  0  0  0  0  0  0
   58.2560   33.9000   46.7940 C   0  0  0  0  0  0  0  0  0  0  0  0
   57.2311   34.2462   46.5949 H   0  0  0  0  0  0  0  0  0  0  0  0
   59.3300   34.7770   46.6400 C   0  0  0  0  0  0  0  0  0  0  0  0
   59.1500   35.8158   46.3260 H   0  0  0  0  0  0  0  0  0  0  0  0
   60.6340   34.3380   46.8840 C   0  0  0  0  0  0  0  0  0  0  0  0
   61.4780   35.0323   46.7594 H   0  0  0  0  0  0  0  0  0  0  0  0
   60.8710   33.0160   47.2870 C   0  0  0  0  0  0  0  0  0  0  0  0
   62.1770   32.5750   47.4920 O   0  0  0  0  0  0  0  0  0  0  0  0
   62.3800   31.7520   48.0490 H   0  0  0  0  0  0  0  0  0  0  0  0
   59.3760   29.6390   47.2710 C   0  0  0  0  0  0  0  0  0  0  0  0
   58.5580   29.7790   46.0420 C   0  0  0  0  0  0  0  0  0  0  0  0
   59.0950   30.3730   44.8880 C   0  0  0  0  0  0  0  0  0  0  0  0
   60.1344   30.7330   44.8913 H   0  0  0  0  0  0  0  0  0  0  0  0
   58.3170   30.5090   43.7370 C   0  0  0  0  0  0  0  0  0  0  0  0
   58.7455   30.9823   42.8413 H   0  0  0  0  0  0  0  0  0  0  0  0
   56.9940   30.0470   43.7140 C   0  0  0  0  0  0  0  0  0  0  0  0
   56.2080   30.1950   42.5270 N   0  0  0  0  0  0  0  0  0  0  0  0
   55.3190   29.6590   42.4070 H   0  0  0  0  0  0  0  0  0  0  0  0
   56.5010   30.8360   41.7580 H   0  0  0  0  0  0  0  0  0  0  0  0
   56.4570   29.4380   44.8620 C   0  0  0  0  0  0  0  0  0  0  0  0
   55.1480   28.9680   44.8660 O   0  0  0  0  0  0  0  0  0  0  0  0
   57.2360   29.3020   46.0150 C   0  0  0  0  0  0  0  0  0  0  0  0
   56.8115   28.8184   46.9071 H   0  0  0  0  0  0  0  0  0  0  0  0
   59.5950   28.3630   47.8120 C   0  0  0  0  0  0  0  0  0  0  0  0
   59.1122   27.4855   47.3571 H   0  0  0  0  0  0  0  0  0  0  0  0
   60.3990   28.2060   48.8930 N   0  0  0  0  0  0  0  0  0  0  0  0
  1  2  1  0
  2  3  2  0
  3  4  1  0
  4  5  2  0
  5  6  1  0
  6  7  2  0
  7  8  1  0
  7  9  1  0
  9 10  1  0
  9 11  2  0
 11 12  1  0
 11 13  1  0
 13 14  1  0
 13 15  2  0
 15 16  1  0
 16 17  1  0
  5 18  1  0
 18 19  1  0
 19 20  2  0
 20 21  1  0
 20 22  1  0
 22 23  1  0
 22 24  2  0
 24 25  1  0
 25 26  1  0
 25 27  1  0
 24 28  1  0
 28 29  1  0
 28 30  2  0
 30 31  1  0
 18 32  2  0
 32 33  1  0
 32 34  1  0
 34  3  1  0
 15  6  1  0
 30 19  1  0
M  CHG  2  29  -1  34  -1
M  END
>  <UniqueID>  (91) 
81

>  <SMILES>  (91) 
[H]/N=c1/nc(-c2ccccc2O)c(-c2ccc(N)c([O-])c2)c[n-]1

>  <Energy>  (91) 
49.80087535021994

>  <Genealogy>  (91) 
N=c1nc(-c2ccccc2O)c(-c2ccc(N)c([O-])c2)c[n-]1 (protonated)
[H]/N=c1/nc(-c2ccccc2O)c(-c2ccc(N)c([O-])c2)c[n-]1 (cis-trans isomerization)
[H]/N=c1/nc(-c2ccccc2O)c(-c2ccc(N)c([O-])c2)c[n-]1 (3D coordinates assigned)
[H]/N=c1/nc(-c2ccccc2O)c(-c2ccc(N)c([O-])c2)c[n-]1 (optimized conformer: 49.80087535021994 kcal/mol)

>  <smiles>  (91) 
N=c1nc(-c2ccccc2O)c(-c2ccc(N)c(O)c2)c[nH]1

>  <score_type>  (91) 
oracle

>  <origin>  (91) 
adg

>  <m_score__min__energy>  (91) 
-10.710000000000001

>  <m_primary>  (91) 
energy

$$$$
91:0
     RDKit          3D

 81 85  0  0  0  0  0  0  0  0999 V2000
   61.4990   34.2590   50.0550 C   0  0  0  0  0  0  0  0  0  0  0  0
   62.9950   34.5510   50.0710 C   0  0  0  0  0  0  0  0  0  0  0  0
   63.9200   33.2260   49.3110 S   0  0  0  0  0  0  0  0  0  0  0  0
   64.0300   33.4770   47.8310 O   0  0  0  0  0  0  0  0  0  0  0  0
   65.3050   33.1800   49.8900 O   0  0  0  0  0  0  0  0  0  0  0  0
   63.1070   31.6860   49.5850 C   0  0  0  0  0  0  0  0  0  0  0  0
   63.3150   30.9800   50.7770 C   0  0  0  0  0  0  0  0  0  0  0  0
   62.6510   29.7710   51.0040 C   0  0  0  0  0  0  0  0  0  0  0  0
   61.7740   29.2530   50.0360 C   0  0  0  0  0  0  0  0  0  0  0  0
   61.0420   27.9620   50.2900 C   0  0  0  0  0  0  0  0  0  0  0  0
   60.1370   27.6120   49.1490 C   0  0  0  0  0  0  0  0  0  0  0  0
   60.4060   26.6300   48.4060 O   0  0  0  0  0  0  0  0  0  0  0  0
   58.9970   28.3960   48.9260 O   0  0  0  0  0  0  0  0  0  0  0  0
   58.8060   29.7260   49.3370 C   0  0  0  0  0  0  0  0  0  0  0  0
   58.8310   30.1040   50.6930 C   0  0  0  0  0  0  0  0  0  0  0  0
   58.5850   31.4260   51.0640 C   0  0  0  0  0  0  0  0  0  0  0  0
   58.2930   32.3850   50.0950 C   0  0  0  0  0  0  0  0  0  0  0  0
   58.2430   32.0290   48.7410 C   0  0  0  0  0  0  0  0  0  0  0  0
   57.9180   33.0610   47.7390 C   0  0  0  0  0  0  0  0  0  0  0  0
   56.7160   33.4130   47.5920 O   0  0  0  0  0  0  0  0  0  0  0  0
   58.9480   33.6880   46.9560 N   0  0  0  0  0  0  0  0  0  0  0  0
   60.3690   33.4790   47.1700 C   0  0  0  0  0  0  0  0  0  0  0  0
   61.0700   34.2990   46.0950 C   0  0  0  0  0  0  0  0  0  0  0  0
   60.0230   35.2710   45.5540 C   0  0  0  0  0  0  0  0  0  0  0  0
   58.6690   34.6920   45.9440 C   0  0  0  0  0  0  0  0  0  0  0  0
   58.5110   30.6970   48.3590 C   0  0  0  0  0  0  0  0  0  0  0  0
   58.3980   30.2880   46.9480 C   0  0  0  0  0  0  0  0  0  0  0  0
   57.5850   30.8820   46.1900 O   0  0  0  0  0  0  0  0  0  0  0  0
   59.2140   29.1350   46.4390 C   0  0  0  0  0  0  0  0  0  0  0  0
   58.4790   28.3710   45.3320 C   0  0  0  0  0  0  0  0  0  0  0  0
   57.9320   27.0710   45.8660 C   0  0  0  0  0  0  0  0  0  0  0  0
   58.8110   26.0300   46.1990 C   0  0  0  0  0  0  0  0  0  0  0  0
   58.3190   24.8040   46.6520 C   0  0  0  0  0  0  0  0  0  0  0  0
   56.9350   24.5980   46.7950 C   0  0  0  0  0  0  0  0  0  0  0  0
   56.3950   23.2950   47.2600 C   0  0  0  0  0  0  0  0  0  0  0  0
   57.2000   22.4220   47.6890 O   0  0  0  0  0  0  0  0  0  0  0  0
   54.9450   22.9790   47.2430 C   0  0  0  0  0  0  0  0  0  0  0  0
   54.1780   23.1410   46.0720 C   0  0  0  0  0  0  0  0  0  0  0  0
   52.8150   22.8240   46.0690 C   0  0  0  0  0  0  0  0  0  0  0  0
   52.2070   22.3300   47.2250 C   0  0  0  0  0  0  0  0  0  0  0  0
   52.9640   22.1480   48.3880 C   0  0  0  0  0  0  0  0  0  0  0  0
   54.3260   22.4650   48.3970 C   0  0  0  0  0  0  0  0  0  0  0  0
   56.0540   25.6320   46.4330 C   0  0  0  0  0  0  0  0  0  0  0  0
   56.5430   26.8570   45.9660 C   0  0  0  0  0  0  0  0  0  0  0  0
   55.6410   27.8520   45.6000 O   0  0  0  0  0  0  0  0  0  0  0  0
   61.5530   29.9710   48.8500 C   0  0  0  0  0  0  0  0  0  0  0  0
   62.2170   31.1810   48.6270 C   0  0  0  0  0  0  0  0  0  0  0  0
   61.1285   34.1867   51.0882 H   0  0  0  0  0  0  0  0  0  0  0  0
   60.9724   35.0713   49.5326 H   0  0  0  0  0  0  0  0  0  0  0  0
   61.3165   33.3083   49.5326 H   0  0  0  0  0  0  0  0  0  0  0  0
   63.1845   35.4834   49.5190 H   0  0  0  0  0  0  0  0  0  0  0  0
   63.3199   34.6469   51.1175 H   0  0  0  0  0  0  0  0  0  0  0  0
   64.0032   31.3784   51.5370 H   0  0  0  0  0  0  0  0  0  0  0  0
   62.8156   29.2233   51.9436 H   0  0  0  0  0  0  0  0  0  0  0  0
   61.7769   27.1546   50.4243 H   0  0  0  0  0  0  0  0  0  0  0  0
   60.4271   28.0853   51.1937 H   0  0  0  0  0  0  0  0  0  0  0  0
   59.0461   29.3512   51.4657 H   0  0  0  0  0  0  0  0  0  0  0  0
   58.6215   31.7130   52.1253 H   0  0  0  0  0  0  0  0  0  0  0  0
   58.1010   33.4257   50.3950 H   0  0  0  0  0  0  0  0  0  0  0  0
   60.6619   33.8280   48.1712 H   0  0  0  0  0  0  0  0  0  0  0  0
   60.6374   32.4140   47.1093 H   0  0  0  0  0  0  0  0  0  0  0  0
   61.9167   34.8519   46.5279 H   0  0  0  0  0  0  0  0  0  0  0  0
   61.4722   33.6566   45.2977 H   0  0  0  0  0  0  0  0  0  0  0  0
   60.1569   36.2658   46.0039 H   0  0  0  0  0  0  0  0  0  0  0  0
   60.1104   35.3907   44.4640 H   0  0  0  0  0  0  0  0  0  0  0  0
   58.0188   35.4791   46.3535 H   0  0  0  0  0  0  0  0  0  0  0  0
   58.1468   34.2608   45.0772 H   0  0  0  0  0  0  0  0  0  0  0  0
   60.1638   29.5188   46.0382 H   0  0  0  0  0  0  0  0  0  0  0  0
   59.3925   28.4432   47.2753 H   0  0  0  0  0  0  0  0  0  0  0  0
   57.6486   28.9868   44.9563 H   0  0  0  0  0  0  0  0  0  0  0  0
   59.1861   28.1536   44.5179 H   0  0  0  0  0  0  0  0  0  0  0  0
   59.8964   26.1804   46.1026 H   0  0  0  0  0  0  0  0  0  0  0  0
   59.0196   23.9928   46.8990 H   0  0  0  0  0  0  0  0  0  0  0  0
   54.6535   23.5189   45.1549 H   0  0  0  0  0  0  0  0  0  0  0  0
   52.2211   22.9643   45.1538 H   0  0  0  0  0  0  0  0  0  0  0  0
   51.1348   22.0843   47.2215 H   0  0  0  0  0  0  0  0  0  0  0  0
   52.4864   21.7546   49.2974 H   0  0  0  0  0  0  0  0  0  0  0  0
   54.9169   22.3115   49.3120 H   0  0  0  0  0  0  0  0  0  0  0  0
   54.9684   25.4763   46.5178 H   0  0  0  0  0  0  0  0  0  0  0  0
   60.8556   29.5806   48.0942 H   0  0  0  0  0  0  0  0  0  0  0  0
   62.0402   31.7391   47.6957 H   0  0  0  0  0  0  0  0  0  0  0  0
  1  2  1  0
  2  3  1  0
  3  4  2  0
  3  5  2  0
  3  6  1  0
  6  7  2  0
  7  8  1  0
  8  9  2  0
  9 10  1  0
 10 11  1  0
 11 12  2  0
 11 13  1  0
 13 14  1  0
 14 15  2  0
 15 16  1  0
 16 17  2  0
 17 18  1  0
 18 19  1  0
 19 20  2  0
 19 21  1  0
 21 22  1  0
 22 23  1  0
 23 24  1  0
 24 25  1  0
 18 26  2  0
 26 27  1  0
 27 28  2  0
 27 29  1  0
 29 30  1  0
 30 31  1  0
 31 32  2  0
 32 33  1  0
 33 34  2  0
 34 35  1  0
 35 36  2  0
 35 37  1  0
 37 38  2  0
 38 39  1  0
 39 40  2  0
 40 41  1  0
 41 42  2  0
 34 43  1  0
 43 44  2  0
 44 45  1  0
  9 46  1  0
 46 47  2  0
 47  6  1  0
 26 14  1  0
 44 31  1  0
 25 21  1  0
 42 37  1  0
  1 48  1  0
  1 49  1  0
  1 50  1  0
  2 51  1  0
  2 52  1  0
  7 53  1  0
  8 54  1  0
 10 55  1  0
 10 56  1  0
 15 57  1  0
 16 58  1  0
 17 59  1  0
 22 60  1  0
 22 61  1  0
 23 62  1  0
 23 63  1  0
 24 64  1  0
 24 65  1  0
 25 66  1  0
 25 67  1  0
 29 68  1  0
 29 69  1  0
 30 70  1  0
 30 71  1  0
 32 72  1  0
 33 73  1  0
 38 74  1  0
 39 75  1  0
 40 76  1  0
 41 77  1  0
 42 78  1  0
 43 79  1  0
 46 80  1  0
 47 81  1  0
M  CHG  1  45  -1
M  END
>  <UniqueID>  (92) 
82

>  <SMILES>  (92) 
CCS(=O)(=O)c1ccc(CC(=O)Oc2cccc(C(=O)N3CCCC3)c2C(=O)CCc2ccc(C(=O)c3ccccc3)cc2[O-])cc1

>  <Energy>  (92) 
100.51249879289395

>  <Genealogy>  (92) 
CCS(=O)(=O)c1ccc(CC(=O)Oc2cccc(C(=O)N3CCCC3)c2C(=O)CCc2ccc(C(=O)c3ccccc3)cc2[O-])cc1 (protonated)
CCS(=O)(=O)c1ccc(CC(=O)Oc2cccc(C(=O)N3CCCC3)c2C(=O)CCc2ccc(C(=O)c3ccccc3)cc2[O-])cc1 (3D coordinates assigned)
CCS(=O)(=O)c1ccc(CC(=O)Oc2cccc(C(=O)N3CCCC3)c2C(=O)CCc2ccc(C(=O)c3ccccc3)cc2[O-])cc1 (nonaromatic ring conformer: 100.51249879289395 kcal/mol)

>  <smiles>  (92) 
CCS(=O)(=O)c1ccc(CC(=O)Oc2cccc(C(=O)N3CCCC3)c2C(=O)CCc2ccc(C(=O)c3ccccc3)cc2O)cc1

>  <score_type>  (92) 
oracle

>  <origin>  (92) 
adg

>  <m_score__min__energy>  (92) 
-12.69

>  <m_primary>  (92) 
energy

$$$$
92:0
     RDKit          3D

 45 47  0  0  0  0  0  0  0  0999 V2000
   58.7430   32.7350   48.3400 C   0  0  0  0  0  0  0  0  0  0  0  0
   58.5260   32.6050   46.8500 C   0  0  0  0  0  0  0  0  0  0  0  0
   57.7710   31.5180   46.3890 C   0  0  0  0  0  0  0  0  0  0  0  0
   57.5480   31.3370   45.0240 C   0  0  0  0  0  0  0  0  0  0  0  0
   56.5960   29.9480   44.4760 S   0  0  0  0  0  0  0  0  0  0  0  0
   57.0430   29.5260   43.1030 O   0  0  0  0  0  0  0  0  0  0  0  0
   55.1460   30.3390   44.4270 O   0  0  0  0  0  0  0  0  0  0  0  0
   56.7750   28.6110   45.5740 N   0  0  0  0  0  0  0  0  0  0  0  0
   58.0810   27.9820   45.3880 C   0  0  0  0  0  0  0  0  0  0  0  0
   59.0940   28.6910   46.2390 C   0  0  0  0  0  0  0  0  0  0  0  0
   58.9750   28.6830   47.6390 C   0  0  0  0  0  0  0  0  0  0  0  0
   59.8990   29.3750   48.4280 C   0  0  0  0  0  0  0  0  0  0  0  0
   60.9390   30.0880   47.8270 C   0  0  0  0  0  0  0  0  0  0  0  0
   61.0540   30.1150   46.4340 C   0  0  0  0  0  0  0  0  0  0  0  0
   60.1330   29.4230   45.6410 C   0  0  0  0  0  0  0  0  0  0  0  0
   58.0590   32.2800   44.1210 C   0  0  0  0  0  0  0  0  0  0  0  0
   57.7460   32.1550   42.3870 Cl  0  0  0  0  0  0  0  0  0  0  0  0
   58.8160   33.3570   44.6030 C   0  0  0  0  0  0  0  0  0  0  0  0
   59.2660   34.2020   43.7790 O   0  0  0  0  0  0  0  0  0  0  0  0
   59.0650   33.5010   45.9490 N   0  0  0  0  0  0  0  0  0  0  0  0
   59.8620   34.6630   46.4020 C   0  0  0  0  0  0  0  0  0  0  0  0
   61.2230   34.2270   46.8570 C   0  0  0  0  0  0  0  0  0  0  0  0
   62.0400   33.7800   46.0080 O   0  0  0  0  0  0  0  0  0  0  0  0
   61.5300   34.2200   48.2590 N   0  0  0  0  0  0  0  0  0  0  0  0
   62.5580   33.6830   48.8500 C   0  0  0  0  0  0  0  0  0  0  0  0
   63.5540   32.9980   48.2360 N   0  0  0  0  0  0  0  0  0  0  0  0
   64.5070   32.5870   49.1150 C   0  0  0  0  0  0  0  0  0  0  0  0
   64.2790   32.9520   50.4380 C   0  0  0  0  0  0  0  0  0  0  0  0
   62.8370   33.8210   50.4990 S   0  0  0  0  0  0  0  0  0  0  0  0
   57.9185   32.2411   48.8751 H   0  0  0  0  0  0  0  0  0  0  0  0
   59.6958   32.2588   48.6147 H   0  0  0  0  0  0  0  0  0  0  0  0
   58.7726   33.7997   48.6147 H   0  0  0  0  0  0  0  0  0  0  0  0
   57.3506   30.8013   47.1099 H   0  0  0  0  0  0  0  0  0  0  0  0
   58.0260   26.9243   45.6852 H   0  0  0  0  0  0  0  0  0  0  0  0
   58.3758   28.0465   44.3302 H   0  0  0  0  0  0  0  0  0  0  0  0
   58.1521   28.1304   48.1160 H   0  0  0  0  0  0  0  0  0  0  0  0
   59.8067   29.3579   49.5240 H   0  0  0  0  0  0  0  0  0  0  0  0
   61.6674   30.6281   48.4497 H   0  0  0  0  0  0  0  0  0  0  0  0
   61.8699   30.6812   45.9611 H   0  0  0  0  0  0  0  0  0  0  0  0
   60.2226   29.4521   44.5450 H   0  0  0  0  0  0  0  0  0  0  0  0
   59.9700   35.3735   45.5693 H   0  0  0  0  0  0  0  0  0  0  0  0
   59.3429   35.1406   47.2461 H   0  0  0  0  0  0  0  0  0  0  0  0
   63.6350   32.8180   47.2130 H   0  0  0  0  0  0  0  0  0  0  0  0
   65.3904   32.0102   48.8037 H   0  0  0  0  0  0  0  0  0  0  0  0
   64.9270   32.7147   51.2946 H   0  0  0  0  0  0  0  0  0  0  0  0
  1  2  1  0
  2  3  2  0
  3  4  1  0
  4  5  1  0
  5  6  2  0
  5  7  2  0
  5  8  1  0
  8  9  1  0
  9 10  1  0
 10 11  2  0
 11 12  1  0
 12 13  2  0
 13 14  1  0
 14 15  2  0
  4 16  2  0
 16 17  1  0
 16 18  1  0
 18 19  2  0
 18 20  1  0
 20 21  1  0
 21 22  1  0
 22 23  2  0
 22 24  1  0
 24 25  2  3
 25 26  1  0
 26 27  1  0
 27 28  2  0
 28 29  1  0
 20  2  1  0
 29 25  1  0
 15 10  1  0
  1 30  1  0
  1 31  1  0
  1 32  1  0
  3 33  1  0
  9 34  1  0
  9 35  1  0
 11 36  1  0
 12 37  1  0
 13 38  1  0
 14 39  1  0
 15 40  1  0
 21 41  1  0
 21 42  1  0
 26 43  1  0
 27 44  1  0
 28 45  1  0
M  CHG  1   8  -1
M  END
>  <UniqueID>  (93) 
83

>  <SMILES>  (93) 
Cc1cc(S(=O)(=O)[N-]Cc2ccccc2)c(Cl)c(=O)n1CC(=O)N=c1[nH]ccs1

>  <Energy>  (93) 
85.81335473018079

>  <Genealogy>  (93) 
Cc1cc(S(=O)(=O)[N-]Cc2ccccc2)c(Cl)c(=O)n1CC(=O)N=c1[nH]ccs1 (protonated)
Cc1cc(S(=O)(=O)[N-]Cc2ccccc2)c(Cl)c(=O)n1CC(=O)N=c1[nH]ccs1 (3D coordinates assigned)
Cc1cc(S(=O)(=O)[N-]Cc2ccccc2)c(Cl)c(=O)n1CC(=O)N=c1[nH]ccs1 (optimized conformer: 85.81335473018079 kcal/mol)

>  <smiles>  (93) 
Cc1cc(S(=O)(=O)NCc2ccccc2)c(Cl)c(=O)n1CC(=O)N=c1[nH]ccs1

>  <score_type>  (93) 
oracle

>  <origin>  (93) 
adg

>  <m_score__min__energy>  (93) 
-9.8800000000000008

>  <m_primary>  (93) 
energy

$$$$
93:0
     RDKit          3D

 14 15  0  0  0  0  0  0  0  0999 V2000
   50.2620   33.0580   47.5950 H   0  0  0  0  0  0  0  0  0  0  0  0
   50.1400   32.9570   48.6280 N   0  0  0  0  0  0  0  0  0  0  0  0
   50.7910   32.0640   49.3020 C   0  0  0  0  0  0  0  0  0  0  0  0
   51.1880   32.3320   50.5850 N   0  0  0  0  0  0  0  0  0  0  0  0
   51.8670   31.3750   51.2610 C   0  0  0  0  0  0  0  0  0  0  0  0
   52.3320   31.4550   52.5130 N   0  0  0  0  0  0  0  0  0  0  0  0
   52.9180   30.2380   52.6750 C   0  0  0  0  0  0  0  0  0  0  0  0
   53.4180   29.9389   53.6080 H   0  0  0  0  0  0  0  0  0  0  0  0
   52.8360   29.4200   51.5900 N   0  0  0  0  0  0  0  0  0  0  0  0
   52.1610   30.1780   50.7150 C   0  0  0  0  0  0  0  0  0  0  0  0
   51.7680   29.8880   49.4160 C   0  0  0  0  0  0  0  0  0  0  0  0
   52.0330   28.7760   48.8870 O   0  0  0  0  0  0  0  0  0  0  0  0
   51.0820   30.8490   48.7250 N   0  0  0  0  0  0  0  0  0  0  0  0
   50.7740   30.6530   47.7460 H   0  0  0  0  0  0  0  0  0  0  0  0
  1  2  1  0
  2  3  2  0
  3  4  1  0
  4  5  1  0
  5  6  1  0
  6  7  1  0
  7  8  1  0
  7  9  2  0
  9 10  1  0
 10 11  1  0
 11 12  2  0
 11 13  1  0
 13 14  1  0
 13  3  1  0
 10  5  2  0
M  CHG  2   4  -1   6  -1
M  END
>  <UniqueID>  (94) 
84

>  <SMILES>  (94) 
[H]/N=c1\[n-]c2[n-]cnc2c(=O)[nH]1

>  <Energy>  (94) 
52.727436318179365

>  <Genealogy>  (94) 
N=c1[n-]c2[n-]cnc2c(=O)[nH]1 (protonated)
[H]/N=c1\[n-]c2[n-]cnc2c(=O)[nH]1 (cis-trans isomerization)
[H]/N=c1\[n-]c2[n-]cnc2c(=O)[nH]1 (3D coordinates assigned)
[H]/N=c1\[n-]c2[n-]cnc2c(=O)[nH]1 (optimized conformer: 52.727436318179365 kcal/mol)

>  <smiles>  (94) 
N=c1[nH]c(=O)c2nc[nH]c2[nH]1

>  <score_type>  (94) 
oracle

>  <origin>  (94) 
adg

>  <m_score__min__energy>  (94) 
-9.5600000000000005

>  <m_primary>  (94) 
energy

$$$$
94:0
     RDKit          3D

 41 43  0  0  0  0  0  0  0  0999 V2000
   59.2190   31.0970   48.4410 C   0  0  0  0  0  0  0  0  0  0  0  0
   59.3830   30.8250   46.9610 C   0  0  0  0  0  0  0  0  0  0  0  0
   58.5280   31.6690   46.1570 N   0  0  0  0  0  0  0  0  0  0  0  0
   58.3900   33.0500   46.6080 C   0  0  0  0  0  0  0  0  0  0  0  0
   59.4420   33.8640   45.8910 C   0  0  0  0  0  0  0  0  0  0  0  0
   59.9120   34.9540   46.8410 C   0  0  0  0  0  0  0  0  0  0  0  0
   60.8910   34.3240   47.7150 N   0  0  0  0  0  0  0  0  0  0  0  0
   60.5410   34.2730   49.0330 C   0  0  0  0  0  0  0  0  0  0  0  0
   61.3470   33.7370   49.9600 N   0  0  0  0  0  0  0  0  0  0  0  0
   62.5550   33.2210   49.5910 C   0  0  0  0  0  0  0  0  0  0  0  0
   63.5370   32.6390   50.2780 N   0  0  0  0  0  0  0  0  0  0  0  0
   64.5170   32.3160   49.3960 C   0  0  0  0  0  0  0  0  0  0  0  0
   64.1180   32.7060   48.1860 N   0  0  0  0  0  0  0  0  0  0  0  0
   62.8910   33.2810   48.2500 C   0  0  0  0  0  0  0  0  0  0  0  0
   62.0630   33.8350   47.2910 C   0  0  0  0  0  0  0  0  0  0  0  0
   62.3590   33.8890   46.0850 O   0  0  0  0  0  0  0  0  0  0  0  0
   57.8560   31.1960   44.9780 C   0  0  0  0  0  0  0  0  0  0  0  0
   57.1190   30.0390   44.9560 C   0  0  0  0  0  0  0  0  0  0  0  0
   56.4960   29.5600   43.8060 C   0  0  0  0  0  0  0  0  0  0  0  0
   56.6190   30.2740   42.6280 C   0  0  0  0  0  0  0  0  0  0  0  0
   57.3450   31.4340   42.6100 C   0  0  0  0  0  0  0  0  0  0  0  0
   57.4990   32.3500   41.1240 Cl  0  0  0  0  0  0  0  0  0  0  0  0
   57.9610   31.8910   43.7840 C   0  0  0  0  0  0  0  0  0  0  0  0
   59.7028   30.2945   49.0171 H   0  0  0  0  0  0  0  0  0  0  0  0
   59.6866   32.0608   48.6907 H   0  0  0  0  0  0  0  0  0  0  0  0
   58.1483   31.1333   48.6907 H   0  0  0  0  0  0  0  0  0  0  0  0
   60.4303   31.0099   46.6799 H   0  0  0  0  0  0  0  0  0  0  0  0
   59.0997   29.7786   46.7745 H   0  0  0  0  0  0  0  0  0  0  0  0
   57.3874   33.4286   46.3601 H   0  0  0  0  0  0  0  0  0  0  0  0
   58.5204   33.1186   47.6981 H   0  0  0  0  0  0  0  0  0  0  0  0
   60.2887   33.2194   45.6125 H   0  0  0  0  0  0  0  0  0  0  0  0
   59.0269   34.3062   44.9733 H   0  0  0  0  0  0  0  0  0  0  0  0
   60.3749   35.7785   46.2789 H   0  0  0  0  0  0  0  0  0  0  0  0
   59.0749   35.3812   47.4126 H   0  0  0  0  0  0  0  0  0  0  0  0
   59.5690   34.6838   49.3436 H   0  0  0  0  0  0  0  0  0  0  0  0
   65.4694   31.8212   49.6369 H   0  0  0  0  0  0  0  0  0  0  0  0
   64.6700   32.5930   47.2900 H   0  0  0  0  0  0  0  0  0  0  0  0
   57.0155   29.4640   45.8881 H   0  0  0  0  0  0  0  0  0  0  0  0
   55.9143   28.6268   43.8344 H   0  0  0  0  0  0  0  0  0  0  0  0
   56.1352   29.9110   41.7092 H   0  0  0  0  0  0  0  0  0  0  0  0
   58.5421   32.8246   43.7562 H   0  0  0  0  0  0  0  0  0  0  0  0
  1  2  1  0
  2  3  1  0
  3  4  1  0
  4  5  1  0
  5  6  1  0
  6  7  1  0
  7  8  1  0
  8  9  2  0
  9 10  1  0
 10 11  1  0
 11 12  2  0
 12 13  1  0
 13 14  1  0
 14 15  1  0
 15 16  2  0
  3 17  1  0
 17 18  2  0
 18 19  1  0
 19 20  2  0
 20 21  1  0
 21 22  1  0
 21 23  2  0
 15  7  1  0
 23 17  1  0
 14 10  2  0
  1 24  1  0
  1 25  1  0
  1 26  1  0
  2 27  1  0
  2 28  1  0
  4 29  1  0
  4 30  1  0
  5 31  1  0
  5 32  1  0
  6 33  1  0
  6 34  1  0
  8 35  1  0
 12 36  1  0
 13 37  1  0
 18 38  1  0
 19 39  1  0
 20 40  1  0
 23 41  1  0
M  END
>  <smiles>  (95) 
CCN(CCCn1cnc2nc[nH]c2c1=O)c1cccc(Cl)c1

>  <score_type>  (95) 
oracle

>  <origin>  (95) 
adg

>  <m_score__min__energy>  (95) 
-7.2599999999999998

>  <m_primary>  (95) 
energy

$$$$
95:0
     RDKit          3D

 56 58  0  0  0  0  0  0  0  0999 V2000
   59.1760   30.8510   53.8690 C   0  0  0  0  0  0  0  0  0  0  0  0
   59.2110   29.6860   52.8590 C   0  0  0  0  0  0  0  0  0  0  0  0
   60.6810   29.2600   52.6520 C   0  0  0  0  0  0  0  0  0  0  0  0
   58.4140   28.4980   53.4240 C   0  0  0  0  0  0  0  0  0  0  0  0
   58.5770   30.1250   51.5450 C   0  0  0  0  0  0  0  0  0  0  0  0
   57.4030   29.7620   51.2620 O   0  0  0  0  0  0  0  0  0  0  0  0
   59.3180   30.8780   50.5740 N   0  0  0  0  0  0  0  0  0  0  0  0
   59.5700   32.3010   50.8110 C   0  0  0  0  0  0  0  0  0  0  0  0
   59.0470   33.1680   49.6600 C   0  0  0  0  0  0  0  0  0  0  0  0
   59.7700   32.8980   48.3240 C   0  0  0  0  0  0  0  0  0  0  0  0
   59.1910   31.7910   47.5240 N   0  0  0  0  0  0  0  0  0  0  0  0
   58.6900   32.0910   46.1930 C   0  0  0  0  0  0  0  0  0  0  0  0
   59.1190   33.2670   45.5440 C   0  0  0  0  0  0  0  0  0  0  0  0
   58.7250   33.5540   44.2390 C   0  0  0  0  0  0  0  0  0  0  0  0
   57.9030   32.6690   43.5500 C   0  0  0  0  0  0  0  0  0  0  0  0
   57.4490   31.5090   44.1720 C   0  0  0  0  0  0  0  0  0  0  0  0
   57.7980   31.2180   45.5080 C   0  0  0  0  0  0  0  0  0  0  0  0
   57.3110   30.0320   46.1660 N   0  0  0  0  0  0  0  0  0  0  0  0
   56.6800   28.8760   45.5900 C   0  0  0  0  0  0  0  0  0  0  0  0
   55.6890   28.9810   44.8220 O   0  0  0  0  0  0  0  0  0  0  0  0
   57.1660   27.5720   45.9150 N   0  0  0  0  0  0  0  0  0  0  0  0
   56.5410   26.4740   45.6130 C   0  0  0  0  0  0  0  0  0  0  0  0
   57.2060   25.4730   44.8960 C   0  0  0  0  0  0  0  0  0  0  0  0
   56.5320   24.2920   44.5780 C   0  0  0  0  0  0  0  0  0  0  0  0
   55.2040   24.1240   44.9670 C   0  0  0  0  0  0  0  0  0  0  0  0
   54.5650   25.1470   45.6740 C   0  0  0  0  0  0  0  0  0  0  0  0
   55.2400   26.2880   45.9770 N   0  0  0  0  0  0  0  0  0  0  0  0
   58.9550   30.4650   48.1260 C   0  0  0  0  0  0  0  0  0  0  0  0
   59.8330   30.2120   49.3720 C   0  0  0  0  0  0  0  0  0  0  0  0
   59.1881   30.4491   54.8929 H   0  0  0  0  0  0  0  0  0  0  0  0
   60.0552   31.4944   53.7172 H   0  0  0  0  0  0  0  0  0  0  0  0
   58.2597   31.4404   53.7172 H   0  0  0  0  0  0  0  0  0  0  0  0
   61.1635   29.1202   53.6306 H   0  0  0  0  0  0  0  0  0  0  0  0
   60.7133   28.3156   52.0890 H   0  0  0  0  0  0  0  0  0  0  0  0
   61.2132   30.0409   52.0890 H   0  0  0  0  0  0  0  0  0  0  0  0
   58.4362   28.5312   54.5233 H   0  0  0  0  0  0  0  0  0  0  0  0
   57.3720   28.5570   53.0764 H   0  0  0  0  0  0  0  0  0  0  0  0
   58.8637   27.5562   53.0764 H   0  0  0  0  0  0  0  0  0  0  0  0
   59.0666   32.6022   51.7416 H   0  0  0  0  0  0  0  0  0  0  0  0
   60.6574   32.4492   50.8857 H   0  0  0  0  0  0  0  0  0  0  0  0
   57.9747   32.9626   49.5259 H   0  0  0  0  0  0  0  0  0  0  0  0
   59.2339   34.2182   49.9284 H   0  0  0  0  0  0  0  0  0  0  0  0
   59.7295   33.8163   47.7197 H   0  0  0  0  0  0  0  0  0  0  0  0
   60.7965   32.5959   48.5792 H   0  0  0  0  0  0  0  0  0  0  0  0
   59.7760   33.9698   46.0773 H   0  0  0  0  0  0  0  0  0  0  0  0
   59.0642   34.4809   43.7535 H   0  0  0  0  0  0  0  0  0  0  0  0
   57.6110   32.8857   42.5119 H   0  0  0  0  0  0  0  0  0  0  0  0
   56.8092   30.8095   43.6141 H   0  0  0  0  0  0  0  0  0  0  0  0
   58.2516   25.6153   44.5853 H   0  0  0  0  0  0  0  0  0  0  0  0
   57.0481   23.4958   44.0216 H   0  0  0  0  0  0  0  0  0  0  0  0
   54.6650   23.1973   44.7206 H   0  0  0  0  0  0  0  0  0  0  0  0
   53.5165   25.0290   45.9851 H   0  0  0  0  0  0  0  0  0  0  0  0
   57.8974   30.3952   48.4204 H   0  0  0  0  0  0  0  0  0  0  0  0
   59.2183   29.7066   47.3740 H   0  0  0  0  0  0  0  0  0  0  0  0
   59.8731   29.1289   49.5599 H   0  0  0  0  0  0  0  0  0  0  0  0
   60.8305   30.6268   49.1646 H   0  0  0  0  0  0  0  0  0  0  0  0
  1  2  1  0
  2  3  1  0
  2  4  1  0
  2  5  1  0
  5  6  2  0
  5  7  1  0
  7  8  1  0
  8  9  1  0
  9 10  1  0
 10 11  1  0
 11 12  1  0
 12 13  2  0
 13 14  1  0
 14 15  2  0
 15 16  1  0
 16 17  2  0
 17 18  1  0
 18 19  1  0
 19 20  2  0
 19 21  1  0
 21 22  2  3
 22 23  1  0
 23 24  2  0
 24 25  1  0
 25 26  2  0
 26 27  1  0
 11 28  1  0
 28 29  1  0
 29  7  1  0
 17 12  1  0
 27 22  1  0
  1 30  1  0
  1 31  1  0
  1 32  1  0
  3 33  1  0
  3 34  1  0
  3 35  1  0
  4 36  1  0
  4 37  1  0
  4 38  1  0
  8 39  1  0
  8 40  1  0
  9 41  1  0
  9 42  1  0
 10 43  1  0
 10 44  1  0
 13 45  1  0
 14 46  1  0
 15 47  1  0
 16 48  1  0
 23 49  1  0
 24 50  1  0
 25 51  1  0
 26 52  1  0
 28 53  1  0
 28 54  1  0
 29 55  1  0
 29 56  1  0
M  CHG  2  18  -1  27  -1
M  END
>  <UniqueID>  (96) 
85

>  <SMILES>  (96) 
CC(C)(C)C(=O)N1CCCN(c2ccccc2[N-]C(=O)N=c2cccc[n-]2)CC1

>  <Energy>  (96) 
79.09569634343947

>  <Genealogy>  (96) 
CC(C)(C)C(=O)N1CCCN(c2ccccc2[N-]C(=O)N=c2cccc[n-]2)CC1 (protonated)
CC(C)(C)C(=O)N1CCCN(c2ccccc2[N-]C(=O)N=c2cccc[n-]2)CC1 (3D coordinates assigned)
CC(C)(C)C(=O)N1CCCN(c2ccccc2[N-]C(=O)N=c2cccc[n-]2)CC1 (nonaromatic ring conformer: 79.09569634343947 kcal/mol)

>  <smiles>  (96) 
CC(C)(C)C(=O)N1CCCN(c2ccccc2NC(=O)N=c2cccc[nH]2)CC1

>  <score_type>  (96) 
oracle

>  <origin>  (96) 
adg

>  <m_score__min__energy>  (96) 
-8.9100000000000001

>  <m_primary>  (96) 
energy

$$$$
96:0
     RDKit          3D

 39 40  0  0  0  0  0  0  0  0999 V2000
   52.4950   23.4380   44.5640 H   0  0  0  0  0  0  0  0  0  0  0  0
   53.0400   22.9310   45.2970 N   0  0  0  0  0  0  0  0  0  0  0  0
   54.1440   23.4080   45.7720 C   0  0  0  0  0  0  0  0  0  0  0  0
   54.4150   24.7370   45.6710 N   0  0  0  0  0  0  0  0  0  0  0  0
   55.5690   25.2690   46.1590 C   0  0  0  0  0  0  0  0  0  0  0  0
   55.7990   26.6810   45.9960 N   0  0  0  0  0  0  0  0  0  0  0  0
   55.0450   27.3290   46.3170 H   0  0  0  0  0  0  0  0  0  0  0  0
   56.9800   27.2910   45.3770 C   0  0  0  0  0  0  0  0  0  0  0  0
   57.8819   26.8618   45.8379 H   0  0  0  0  0  0  0  0  0  0  0  0
   56.9397   27.0806   44.2981 H   0  0  0  0  0  0  0  0  0  0  0  0
   57.0130   28.8260   45.5570 C   0  0  1  0  0  0  0  0  0  0  0  0
   56.3581   29.0635   46.4083 H   0  0  0  0  0  0  0  0  0  0  0  0
   58.4050   29.3200   45.9240 C   0  0  0  0  0  0  0  0  0  0  0  0
   58.5690   30.1240   47.0680 C   0  0  0  0  0  0  0  0  0  0  0  0
   57.6885   30.4226   47.6558 H   0  0  0  0  0  0  0  0  0  0  0  0
   59.8420   30.5460   47.4630 C   0  0  0  0  0  0  0  0  0  0  0  0
   59.9580   31.1790   48.3551 H   0  0  0  0  0  0  0  0  0  0  0  0
   60.9660   30.1660   46.7280 C   0  0  0  0  0  0  0  0  0  0  0  0
   61.9663   30.4997   47.0410 H   0  0  0  0  0  0  0  0  0  0  0  0
   60.8210   29.3620   45.5950 C   0  0  0  0  0  0  0  0  0  0  0  0
   61.7078   29.0621   45.0174 H   0  0  0  0  0  0  0  0  0  0  0  0
   59.5510   28.9380   45.1940 C   0  0  0  0  0  0  0  0  0  0  0  0
   59.4438   28.3019   44.3030 H   0  0  0  0  0  0  0  0  0  0  0  0
   56.4180   29.5750   44.3400 C   0  0  0  0  0  0  0  0  0  0  0  0
   57.1437   29.5496   43.5137 H   0  0  0  0  0  0  0  0  0  0  0  0
   55.4809   29.0773   44.0500 H   0  0  0  0  0  0  0  0  0  0  0  0
   56.1190   30.9660   44.6680 N   0  0  0  0  0  0  0  0  0  0  0  0
   57.0460   32.0560   44.8090 C   0  0  0  0  0  0  0  0  0  0  0  0
   57.0360   32.7030   45.8880 O   0  0  0  0  0  0  0  0  0  0  0  0
   57.9990   32.4590   43.7480 C   0  0  0  0  0  0  0  0  0  0  0  0
   58.6130   33.5550   43.8110 O   0  0  0  0  0  0  0  0  0  0  0  0
   58.2520   31.5900   42.6410 N   0  0  0  0  0  0  0  0  0  0  0  0
   57.7590   30.6750   42.5440 H   0  0  0  0  0  0  0  0  0  0  0  0
   58.9340   31.8700   41.9000 H   0  0  0  0  0  0  0  0  0  0  0  0
   56.4930   24.4190   46.7920 C   0  0  0  0  0  0  0  0  0  0  0  0
   57.4287   24.8191   47.2095 H   0  0  0  0  0  0  0  0  0  0  0  0
   56.1990   23.0570   46.8800 C   0  0  0  0  0  0  0  0  0  0  0  0
   57.0130   22.2680   47.4290 O   0  0  0  0  0  0  0  0  0  0  0  0
   55.0350   22.5790   46.3720 N   0  0  0  0  0  0  0  0  0  0  0  0
  1  2  1  0
  2  3  2  0
  3  4  1  0
  4  5  1  0
  5  6  1  0
  6  7  1  0
  6  8  1  0
  8  9  1  0
  8 10  1  0
  8 11  1  0
 11 12  1  1
 11 13  1  0
 13 14  2  0
 14 15  1  0
 14 16  1  0
 16 17  1  0
 16 18  2  0
 18 19  1  0
 18 20  1  0
 20 21  1  0
 20 22  2  0
 22 23  1  0
 11 24  1  0
 24 25  1  0
 24 26  1  0
 24 27  1  0
 27 28  1  0
 28 29  2  0
 28 30  1  0
 30 31  2  0
 30 32  1  0
 32 33  1  0
 32 34  1  0
  5 35  2  0
 35 36  1  0
 35 37  1  0
 37 38  2  0
 37 39  1  0
 39  3  1  0
 22 13  1  0
M  CHG  3   4  -1  27  -1  39  -1
M  END
>  <UniqueID>  (97) 
86

>  <SMILES>  (97) 
[H]/N=c1\[n-]c(NC[C@H](C[N-]C(=O)C(N)=O)c2ccccc2)cc(=O)[n-]1

>  <Energy>  (97) 
38.319473542125294

>  <Genealogy>  (97) 
N=c1[n-]c(NCC(C[N-]C(=O)C(N)=O)c2ccccc2)cc(=O)[n-]1 (protonated)
N=c1[n-]c(NC[C@H](C[N-]C(=O)C(N)=O)c2ccccc2)cc(=O)[n-]1 (chirality)
[H]/N=c1\[n-]c(NC[C@H](C[N-]C(=O)C(N)=O)c2ccccc2)cc(=O)[n-]1 (cis-trans isomerization)
[H]/N=c1\[n-]c(NC[C@H](C[N-]C(=O)C(N)=O)c2ccccc2)cc(=O)[n-]1 (3D coordinates assigned)
[H]/N=c1\[n-]c(NC[C@H](C[N-]C(=O)C(N)=O)c2ccccc2)cc(=O)[n-]1 (optimized conformer: 38.319473542125294 kcal/mol)

>  <smiles>  (97) 
N=c1[nH]c(NCC(CNC(=O)C(N)=O)c2ccccc2)cc(=O)[nH]1

>  <score_type>  (97) 
oracle

>  <origin>  (97) 
adg

>  <m_score__min__energy>  (97) 
-12.470000000000001

>  <m_primary>  (97) 
energy

$$$$
