0:0
     RDKit          3D

 60 64  0  0  0  0  0  0  0  0999 V2000
   55.8870   19.7040   43.6500 O   0  0  0  0  0  0  0  0  0  0  0  0
   56.2250   20.6080   44.4600 C   0  0  0  0  0  0  0  0  0  0  0  0
   56.5220   20.2750   45.7410 N   0  0  0  0  0  0  0  0  0  0  0  0
   56.8770   21.2060   46.6590 C   0  0  0  0  0  0  0  0  0  0  0  0
   56.9730   22.5490   46.2950 C   0  0  0  0  0  0  0  0  0  0  0  0
   57.3470   23.4620   47.2220 N   0  0  0  0  0  0  0  0  0  0  0  0
   57.4860   24.7710   46.9100 C   0  0  0  0  0  0  0  0  0  0  0  0
   57.8350   25.5820   47.8120 O   0  0  0  0  0  0  0  0  0  0  0  0
   57.2700   25.2010   45.6290 N   0  0  0  0  0  0  0  0  0  0  0  0
   57.4540   26.5950   45.3050 C   0  0  0  0  0  0  0  0  0  0  0  0
   58.6810   27.0380   44.7910 C   0  0  0  0  0  0  0  0  0  0  0  0
   58.8680   28.3860   44.4750 C   0  0  0  0  0  0  0  0  0  0  0  0
   57.8320   29.3100   44.6770 C   0  0  0  0  0  0  0  0  0  0  0  0
   58.0200   30.7560   44.3030 C   0  0  0  0  0  0  0  0  0  0  0  0
   57.5900   31.6730   45.4540 C   0  0  0  0  0  0  0  0  0  0  0  0
   58.7730   32.1710   46.1860 N   0  0  0  0  0  0  0  0  0  0  0  0
   58.9000   31.5630   47.5380 C   0  0  0  0  0  0  0  0  0  0  0  0
   58.4480   32.5140   48.6600 C   0  0  0  0  0  0  0  0  0  0  0  0
   59.1910   33.7970   48.6350 N   0  0  0  0  0  0  0  0  0  0  0  0
   60.1630   33.9730   49.7370 C   0  0  0  0  0  0  0  0  0  0  0  0
   61.5510   33.4480   49.4240 C   0  0  0  0  0  0  0  0  0  0  0  0
   62.6560   34.3180   49.3890 C   0  0  0  0  0  0  0  0  0  0  0  0
   63.9330   33.8280   49.1000 C   0  0  0  0  0  0  0  0  0  0  0  0
   64.1180   32.4700   48.8290 C   0  0  0  0  0  0  0  0  0  0  0  0
   63.0240   31.6020   48.8360 C   0  0  0  0  0  0  0  0  0  0  0  0
   61.7450   32.0880   49.1230 C   0  0  0  0  0  0  0  0  0  0  0  0
   59.7170   34.1770   47.3060 C   0  0  0  0  0  0  0  0  0  0  0  0
   58.8050   33.6520   46.1950 C   0  0  0  0  0  0  0  0  0  0  0  0
   56.5990   28.8650   45.1770 C   0  0  0  0  0  0  0  0  0  0  0  0
   56.4090   27.5150   45.4920 C   0  0  0  0  0  0  0  0  0  0  0  0
   55.1780   27.0900   45.9820 O   0  0  0  0  0  0  0  0  0  0  0  0
   56.9000   24.3130   44.6510 C   0  0  0  0  0  0  0  0  0  0  0  0
   56.7670   24.7260   43.4670 O   0  0  0  0  0  0  0  0  0  0  0  0
   56.6980   22.9460   44.9670 C   0  0  0  0  0  0  0  0  0  0  0  0
   56.2720   21.9470   44.0400 C   0  0  0  0  0  0  0  0  0  0  0  0
   55.8650   22.2210   42.7290 O   0  0  0  0  0  0  0  0  0  0  0  0
   57.0901   20.9018   47.6944 H   0  0  0  0  0  0  0  0  0  0  0  0
   59.5004   26.3207   44.6358 H   0  0  0  0  0  0  0  0  0  0  0  0
   59.8316   28.7242   44.0661 H   0  0  0  0  0  0  0  0  0  0  0  0
   59.0812   30.9352   44.0755 H   0  0  0  0  0  0  0  0  0  0  0  0
   57.3986   30.9776   43.4228 H   0  0  0  0  0  0  0  0  0  0  0  0
   57.0298   32.5275   45.0466 H   0  0  0  0  0  0  0  0  0  0  0  0
   56.9561   31.1012   46.1477 H   0  0  0  0  0  0  0  0  0  0  0  0
   58.2806   30.6548   47.5753 H   0  0  0  0  0  0  0  0  0  0  0  0
   59.9637   31.3361   47.7024 H   0  0  0  0  0  0  0  0  0  0  0  0
   57.3750   32.7228   48.5375 H   0  0  0  0  0  0  0  0  0  0  0  0
   58.6510   32.0231   49.6232 H   0  0  0  0  0  0  0  0  0  0  0  0
   60.2416   35.0471   49.9608 H   0  0  0  0  0  0  0  0  0  0  0  0
   59.7865   33.3894   50.5901 H   0  0  0  0  0  0  0  0  0  0  0  0
   62.5144   35.3901   49.5902 H   0  0  0  0  0  0  0  0  0  0  0  0
   64.7937   34.5129   49.0859 H   0  0  0  0  0  0  0  0  0  0  0  0
   65.1248   32.0847   48.6102 H   0  0  0  0  0  0  0  0  0  0  0  0
   63.1689   30.5341   48.6153 H   0  0  0  0  0  0  0  0  0  0  0  0
   60.8849   31.4023   49.1133 H   0  0  0  0  0  0  0  0  0  0  0  0
   59.7731   35.2736   47.2396 H   0  0  0  0  0  0  0  0  0  0  0  0
   60.7171   33.7363   47.1814 H   0  0  0  0  0  0  0  0  0  0  0  0
   57.7857   34.0323   46.3573 H   0  0  0  0  0  0  0  0  0  0  0  0
   59.1978   33.9987   45.2278 H   0  0  0  0  0  0  0  0  0  0  0  0
   55.7770   29.5814   45.3222 H   0  0  0  0  0  0  0  0  0  0  0  0
   56.0970   23.0570   42.2160 H   0  0  0  0  0  0  0  0  0  0  0  0
  1  2  2  0
  2  3  1  0
  3  4  1  0
  4  5  2  0
  5  6  1  0
  6  7  1  0
  7  8  2  0
  7  9  1  0
  9 10  1  0
 10 11  2  0
 11 12  1  0
 12 13  2  0
 13 14  1  0
 14 15  1  0
 15 16  1  0
 16 17  1  0
 17 18  1  0
 18 19  1  0
 19 20  1  0
 20 21  1  0
 21 22  2  0
 22 23  1  0
 23 24  2  0
 24 25  1  0
 25 26  2  0
 19 27  1  0
 27 28  1  0
 13 29  1  0
 29 30  2  0
 30 31  1  0
  9 32  1  0
 32 33  2  0
 32 34  1  0
 34 35  2  0
 35 36  1  0
 35  2  1  0
 34  5  1  0
 30 10  1  0
 28 16  1  0
 26 21  1  0
  4 37  1  0
 11 38  1  0
 12 39  1  0
 14 40  1  0
 14 41  1  0
 15 42  1  0
 15 43  1  0
 17 44  1  0
 17 45  1  0
 18 46  1  0
 18 47  1  0
 20 48  1  0
 20 49  1  0
 22 50  1  0
 23 51  1  0
 24 52  1  0
 25 53  1  0
 26 54  1  0
 27 55  1  0
 27 56  1  0
 28 57  1  0
 28 58  1  0
 29 59  1  0
 36 60  1  0
M  CHG  3   3  -1   6  -1  31  -1
M  END
>  <UniqueID>  (1) 
1

>  <SMILES>  (1) 
O=c1[n-]cc2[n-]c(=O)n(-c3ccc(CCN4CCN(Cc5ccccc5)CC4)cc3[O-])c(=O)c2c1O

>  <Energy>  (1) 
102.43903466905337

>  <Genealogy>  (1) 
O=c1[n-]cc2[n-]c(=O)n(-c3ccc(CCN4CCN(Cc5ccccc5)CC4)cc3[O-])c(=O)c2c1O (protonated)
O=c1[n-]cc2[n-]c(=O)n(-c3ccc(CCN4CCN(Cc5ccccc5)CC4)cc3[O-])c(=O)c2c1O (3D coordinates assigned)
O=c1[n-]cc2[n-]c(=O)n(-c3ccc(CCN4CCN(Cc5ccccc5)CC4)cc3[O-])c(=O)c2c1O (nonaromatic ring conformer: 102.43903466905337 kcal/mol)

>  <smiles>  (1) 
O=c1[nH]cc2[nH]c(=O)n(-c3ccc(CCN4CCN(Cc5ccccc5)CC4)cc3O)c(=O)c2c1O

>  <score_type>  (1) 
oracle

>  <origin>  (1) 
adg

>  <m_score__min__energy>  (1) 
-16.260000000000002

>  <m_primary>  (1) 
energy

$$$$
1:0
     RDKit          3D

 59 60  0  0  0  0  0  0  0  0999 V2000
   58.7640   34.2400   52.4220 C   0  0  0  0  0  0  0  0  0  0  0  0
   57.6730   33.4500   51.9990 O   0  0  0  0  0  0  0  0  0  0  0  0
   57.6540   32.2250   52.7090 C   0  0  0  0  0  0  0  0  0  0  0  0
   57.2240   31.0660   51.7880 C   0  0  0  0  0  0  0  0  0  0  0  0
   58.3580   30.6240   50.8570 C   0  0  0  0  0  0  0  0  0  0  0  0
   59.2260   31.7550   50.5350 N   0  0  0  0  0  0  0  0  0  0  0  0
   60.6610   31.6430   50.5100 C   0  0  0  0  0  0  0  0  0  0  0  0
   61.2170   30.5610   50.8380 O   0  0  0  0  0  0  0  0  0  0  0  0
   61.4790   32.7660   50.1670 N   0  0  0  0  0  0  0  0  0  0  0  0
   62.0420   33.0190   48.8730 C   0  0  0  0  0  0  0  0  0  0  0  0
   63.4170   32.8300   48.6440 C   0  0  0  0  0  0  0  0  0  0  0  0
   63.9760   33.1360   47.4000 C   0  0  0  0  0  0  0  0  0  0  0  0
   63.1740   33.6460   46.3790 C   0  0  0  0  0  0  0  0  0  0  0  0
   61.8120   33.8530   46.5980 C   0  0  0  0  0  0  0  0  0  0  0  0
   61.2340   33.5420   47.8410 C   0  0  0  0  0  0  0  0  0  0  0  0
   59.5080   33.8370   48.0900 S   0  0  0  0  0  0  0  0  0  0  0  0
   58.7740   32.5270   48.1650 O   0  0  0  0  0  0  0  0  0  0  0  0
   59.2950   34.5710   49.3850 O   0  0  0  0  0  0  0  0  0  0  0  0
   58.8500   34.8010   46.7390 C   0  0  0  0  0  0  0  0  0  0  0  0
   57.7870   34.0290   46.0230 C   0  0  0  0  0  0  0  0  0  0  0  0
   56.8540   33.4880   46.6790 O   0  0  0  0  0  0  0  0  0  0  0  0
   57.8560   33.8830   44.6010 N   0  0  0  0  0  0  0  0  0  0  0  0
   58.4340   32.7230   43.9310 C   0  0  0  0  0  0  0  0  0  0  0  0
   57.7690   31.4520   44.3910 C   0  0  0  0  0  0  0  0  0  0  0  0
   56.6490   30.9480   43.7140 C   0  0  0  0  0  0  0  0  0  0  0  0
   56.0460   29.7610   44.1360 C   0  0  0  0  0  0  0  0  0  0  0  0
   56.5580   29.0450   45.2260 C   0  0  0  0  0  0  0  0  0  0  0  0
   55.9000   27.8220   45.5900 N   0  0  0  0  0  0  0  0  0  0  0  0
   56.6480   26.3130   46.0100 S   0  0  0  0  0  0  0  0  0  0  0  0
   57.5620   25.6690   44.6230 C   0  0  0  0  0  0  0  0  0  0  0  0
   55.5680   25.3280   46.3550 O   0  0  0  0  0  0  0  0  0  0  0  0
   57.5420   26.4880   47.2050 O   0  0  0  0  0  0  0  0  0  0  0  0
   57.6710   29.5640   45.9240 C   0  0  0  0  0  0  0  0  0  0  0  0
   58.1750   28.9510   47.0200 F   0  0  0  0  0  0  0  0  0  0  0  0
   58.2660   30.7580   45.5050 C   0  0  0  0  0  0  0  0  0  0  0  0
   58.7957   34.2629   53.5213 H   0  0  0  0  0  0  0  0  0  0  0  0
   59.6999   33.8088   52.0371 H   0  0  0  0  0  0  0  0  0  0  0  0
   58.6464   35.2637   52.0371 H   0  0  0  0  0  0  0  0  0  0  0  0
   58.6610   32.0196   53.1011 H   0  0  0  0  0  0  0  0  0  0  0  0
   56.9314   32.3066   53.5343 H   0  0  0  0  0  0  0  0  0  0  0  0
   56.9213   30.2110   52.4103 H   0  0  0  0  0  0  0  0  0  0  0  0
   56.3892   31.4183   51.1644 H   0  0  0  0  0  0  0  0  0  0  0  0
   58.9511   29.8426   51.3546 H   0  0  0  0  0  0  0  0  0  0  0  0
   57.9220   30.2336   49.9256 H   0  0  0  0  0  0  0  0  0  0  0  0
   58.7760   32.6700   50.3090 H   0  0  0  0  0  0  0  0  0  0  0  0
   64.0564   32.4389   49.4491 H   0  0  0  0  0  0  0  0  0  0  0  0
   65.0500   32.9744   47.2259 H   0  0  0  0  0  0  0  0  0  0  0  0
   63.6159   33.8851   45.4005 H   0  0  0  0  0  0  0  0  0  0  0  0
   61.1856   34.2627   45.7919 H   0  0  0  0  0  0  0  0  0  0  0  0
   58.4188   35.7328   47.1337 H   0  0  0  0  0  0  0  0  0  0  0  0
   59.6622   35.0321   46.0340 H   0  0  0  0  0  0  0  0  0  0  0  0
   58.2969   32.8288   42.8447 H   0  0  0  0  0  0  0  0  0  0  0  0
   59.5044   32.6701   44.1790 H   0  0  0  0  0  0  0  0  0  0  0  0
   56.2436   31.4899   42.8468 H   0  0  0  0  0  0  0  0  0  0  0  0
   55.1587   29.3839   43.6064 H   0  0  0  0  0  0  0  0  0  0  0  0
   58.4101   25.0714   44.9884 H   0  0  0  0  0  0  0  0  0  0  0  0
   56.9028   25.0348   44.0121 H   0  0  0  0  0  0  0  0  0  0  0  0
   57.9374   26.5032   44.0121 H   0  0  0  0  0  0  0  0  0  0  0  0
   59.1318   31.1571   46.0537 H   0  0  0  0  0  0  0  0  0  0  0  0
  1  2  1  0
  2  3  1  0
  3  4  1  0
  4  5  1  0
  5  6  1  0
  6  7  1  0
  7  8  2  0
  7  9  1  0
  9 10  1  0
 10 11  2  0
 11 12  1  0
 12 13  2  0
 13 14  1  0
 14 15  2  0
 15 16  1  0
 16 17  2  0
 16 18  2  0
 16 19  1  0
 19 20  1  0
 20 21  2  0
 20 22  1  0
 22 23  1  0
 23 24  1  0
 24 25  2  0
 25 26  1  0
 26 27  2  0
 27 28  1  0
 28 29  1  0
 29 30  1  0
 29 31  2  0
 29 32  2  0
 27 33  1  0
 33 34  1  0
 33 35  2  0
 15 10  1  0
 35 24  1  0
  1 36  1  0
  1 37  1  0
  1 38  1  0
  3 39  1  0
  3 40  1  0
  4 41  1  0
  4 42  1  0
  5 43  1  0
  5 44  1  0
  6 45  1  0
 11 46  1  0
 12 47  1  0
 13 48  1  0
 14 49  1  0
 19 50  1  0
 19 51  1  0
 23 52  1  0
 23 53  1  0
 25 54  1  0
 26 55  1  0
 30 56  1  0
 30 57  1  0
 30 58  1  0
 35 59  1  0
M  CHG  3   9  -1  22  -1  28  -1
M  END
>  <UniqueID>  (2) 
2

>  <SMILES>  (2) 
COCCCNC(=O)[N-]c1ccccc1S(=O)(=O)CC(=O)[N-]Cc1ccc([N-]S(C)(=O)=O)c(F)c1

>  <Energy>  (2) 
58.13563418250301

>  <Genealogy>  (2) 
COCCCNC(=O)[N-]c1ccccc1S(=O)(=O)CC(=O)[N-]Cc1ccc([N-]S(C)(=O)=O)c(F)c1 (protonated)
COCCCNC(=O)[N-]c1ccccc1S(=O)(=O)CC(=O)[N-]Cc1ccc([N-]S(C)(=O)=O)c(F)c1 (3D coordinates assigned)
COCCCNC(=O)[N-]c1ccccc1S(=O)(=O)CC(=O)[N-]Cc1ccc([N-]S(C)(=O)=O)c(F)c1 (optimized conformer: 58.13563418250301 kcal/mol)

>  <smiles>  (2) 
COCCCNC(=O)Nc1ccccc1S(=O)(=O)CC(=O)NCc1ccc(NS(C)(=O)=O)c(F)c1

>  <score_type>  (2) 
oracle

>  <origin>  (2) 
adg

>  <m_score__min__energy>  (2) 
-13.17

>  <m_primary>  (2) 
energy

$$$$
2:0
     RDKit          3D

 54 57  0  0  0  0  0  0  0  0999 V2000
   52.6040   29.2550   53.6950 O   0  0  0  0  0  0  0  0  0  0  0  0
   53.0910   29.8730   52.7120 C   0  0  0  0  0  0  0  0  0  0  0  0
   54.3720   29.4700   52.2100 N   0  0  0  0  0  0  0  0  0  0  0  0
   55.5560   30.2800   52.1780 C   0  0  0  0  0  0  0  0  0  0  0  0
   55.5000   31.6690   52.3770 C   0  0  0  0  0  0  0  0  0  0  0  0
   56.6710   32.4310   52.3420 C   0  0  0  0  0  0  0  0  0  0  0  0
   57.9060   31.8100   52.1410 C   0  0  0  0  0  0  0  0  0  0  0  0
   57.9840   30.4160   51.9960 C   0  0  0  0  0  0  0  0  0  0  0  0
   59.3280   29.7390   51.8420 C   0  0  0  0  0  0  0  0  0  0  0  0
   60.2410   30.4810   50.9530 N   0  0  0  0  0  0  0  0  0  0  0  0
   59.5710   31.1410   49.8190 C   0  0  0  0  0  0  0  0  0  0  0  0
   59.7340   30.3850   48.5190 C   0  0  0  0  0  0  0  0  0  0  0  0
   60.7060   30.7810   47.5870 C   0  0  0  0  0  0  0  0  0  0  0  0
   60.9010   30.0440   46.4180 C   0  0  0  0  0  0  0  0  0  0  0  0
   60.1250   28.9120   46.1620 C   0  0  0  0  0  0  0  0  0  0  0  0
   59.1170   28.5250   47.0630 C   0  0  0  0  0  0  0  0  0  0  0  0
   58.3310   27.3410   46.8480 N   0  0  0  0  0  0  0  0  0  0  0  0
   57.2690   27.2470   45.8850 C   0  0  0  0  0  0  0  0  0  0  0  0
   56.6410   28.2880   45.5440 O   0  0  0  0  0  0  0  0  0  0  0  0
   56.8630   25.9320   45.3290 C   0  0  0  0  0  0  0  0  0  0  0  0
   57.5520   25.3790   44.2330 C   0  0  0  0  0  0  0  0  0  0  0  0
   57.1720   24.1410   43.7090 C   0  0  0  0  0  0  0  0  0  0  0  0
   56.1060   23.4370   44.2720 C   0  0  0  0  0  0  0  0  0  0  0  0
   55.7380   22.2370   43.7610 F   0  0  0  0  0  0  0  0  0  0  0  0
   55.4210   23.9700   45.3680 C   0  0  0  0  0  0  0  0  0  0  0  0
   55.7970   25.2090   45.8960 C   0  0  0  0  0  0  0  0  0  0  0  0
   58.9260   29.2710   48.2360 C   0  0  0  0  0  0  0  0  0  0  0  0
   56.7990   29.6590   51.9980 C   0  0  0  0  0  0  0  0  0  0  0  0
   52.3000   30.9400   52.0710 C   0  0  0  0  0  0  0  0  0  0  0  0
   51.5450   31.9160   52.7000 C   0  0  0  0  0  0  0  0  0  0  0  0
   50.9880   32.7470   51.7960 N   0  0  0  0  0  0  0  0  0  0  0  0
   51.4020   32.2900   50.5990 C   0  0  0  0  0  0  0  0  0  0  0  0
   51.0420   32.8780   49.3940 O   0  0  0  0  0  0  0  0  0  0  0  0
   52.2170   31.1860   50.7170 C   0  0  0  0  0  0  0  0  0  0  0  0
   54.5322   32.1584   52.5609 H   0  0  0  0  0  0  0  0  0  0  0  0
   56.6201   33.5220   52.4730 H   0  0  0  0  0  0  0  0  0  0  0  0
   58.8224   32.4167   52.0961 H   0  0  0  0  0  0  0  0  0  0  0  0
   59.7950   29.6542   52.8343 H   0  0  0  0  0  0  0  0  0  0  0  0
   59.1527   28.7521   51.3889 H   0  0  0  0  0  0  0  0  0  0  0  0
   60.8310   31.1570   51.4900 H   0  0  0  0  0  0  0  0  0  0  0  0
   58.4976   31.2235   50.0450 H   0  0  0  0  0  0  0  0  0  0  0  0
   60.0384   32.1281   49.6881 H   0  0  0  0  0  0  0  0  0  0  0  0
   61.3164   31.6758   47.7788 H   0  0  0  0  0  0  0  0  0  0  0  0
   61.6693   30.3563   45.6953 H   0  0  0  0  0  0  0  0  0  0  0  0
   60.3028   28.3204   45.2518 H   0  0  0  0  0  0  0  0  0  0  0  0
   58.4860   26.5280   47.4870 H   0  0  0  0  0  0  0  0  0  0  0  0
   58.3955   25.9255   43.7861 H   0  0  0  0  0  0  0  0  0  0  0  0
   57.7145   23.7195   42.8499 H   0  0  0  0  0  0  0  0  0  0  0  0
   54.5845   23.4135   45.8159 H   0  0  0  0  0  0  0  0  0  0  0  0
   55.2559   25.6214   46.7604 H   0  0  0  0  0  0  0  0  0  0  0  0
   58.1344   28.9802   48.9423 H   0  0  0  0  0  0  0  0  0  0  0  0
   56.8483   28.5692   51.8569 H   0  0  0  0  0  0  0  0  0  0  0  0
   51.4171   32.0016   53.7892 H   0  0  0  0  0  0  0  0  0  0  0  0
   52.6985   30.6215   49.9049 H   0  0  0  0  0  0  0  0  0  0  0  0
  1  2  2  0
  2  3  1  0
  3  4  1  0
  4  5  2  0
  5  6  1  0
  6  7  2  0
  7  8  1  0
  8  9  1  0
  9 10  1  0
 10 11  1  0
 11 12  1  0
 12 13  2  0
 13 14  1  0
 14 15  2  0
 15 16  1  0
 16 17  1  0
 17 18  1  0
 18 19  2  0
 18 20  1  0
 20 21  2  0
 21 22  1  0
 22 23  2  0
 23 24  1  0
 23 25  1  0
 25 26  2  0
 16 27  2  0
  8 28  2  0
  2 29  1  0
 29 30  2  0
 30 31  1  0
 31 32  1  0
 32 33  1  0
 32 34  2  0
 28  4  1  0
 34 29  1  0
 27 12  1  0
 26 20  1  0
  5 35  1  0
  6 36  1  0
  7 37  1  0
  9 38  1  0
  9 39  1  0
 10 40  1  0
 11 41  1  0
 11 42  1  0
 13 43  1  0
 14 44  1  0
 15 45  1  0
 17 46  1  0
 21 47  1  0
 22 48  1  0
 25 49  1  0
 26 50  1  0
 27 51  1  0
 28 52  1  0
 30 53  1  0
 34 54  1  0
M  CHG  3   3  -1  31  -1  33  -1
M  END
>  <UniqueID>  (3) 
3

>  <SMILES>  (3) 
O=C([N-]c1cccc(CNCc2cccc(NC(=O)c3ccc(F)cc3)c2)c1)c1c[n-]c([O-])c1

>  <Energy>  (3) 
92.5448681386069

>  <Genealogy>  (3) 
O=C([N-]c1cccc(CNCc2cccc(NC(=O)c3ccc(F)cc3)c2)c1)c1c[n-]c([O-])c1 (protonated)
O=C([N-]c1cccc(CNCc2cccc(NC(=O)c3ccc(F)cc3)c2)c1)c1c[n-]c([O-])c1 (3D coordinates assigned)
O=C([N-]c1cccc(CNCc2cccc(NC(=O)c3ccc(F)cc3)c2)c1)c1c[n-]c([O-])c1 (optimized conformer: 92.5448681386069 kcal/mol)

>  <smiles>  (3) 
O=C(Nc1cccc(CNCc2cccc(NC(=O)c3c[nH]c(O)c3)c2)c1)c1ccc(F)cc1

>  <score_type>  (3) 
oracle

>  <origin>  (3) 
adg

>  <m_score__min__energy>  (3) 
-16.960000000000001

>  <m_primary>  (3) 
energy

$$$$
3:0
     RDKit          3D

 42 45  0  0  1  0  0  0  0  0999 V2000
   56.4620   29.4140   42.4780 N   0  0  0  0  0  0  0  0  0  0  0  0
   56.1850   29.7850   43.8200 C   0  0  0  0  0  0  0  0  0  0  0  0
   55.1410   29.3920   44.3850 O   0  0  0  0  0  0  0  0  0  0  0  0
   57.0910   30.6280   44.5890 C   0  0  0  0  0  0  0  0  0  0  0  0
   57.7900   30.0340   45.6330 C   0  0  0  0  0  0  0  0  0  0  0  0
   58.6720   30.7940   46.4030 C   0  0  0  0  0  0  0  0  0  0  0  0
   58.8660   32.1330   46.1460 C   0  0  0  0  0  0  0  0  0  0  0  0
   59.7480   32.9020   46.9130 C   0  0  0  0  0  0  0  0  0  0  0  0
   60.3530   32.2680   47.8610 N   0  0  0  0  0  0  0  0  0  0  0  0
   59.6080   31.8940   49.0100 C   0  0  0  0  0  0  0  0  0  0  0  0
   59.5160   30.5660   49.3410 C   0  0  0  0  0  0  0  0  0  0  0  0
   58.8080   30.1420   50.4440 C   0  0  0  0  0  0  0  0  0  0  0  0
   58.1410   31.0460   51.2860 C   0  0  0  0  0  0  0  0  0  0  0  0
   57.4730   30.5190   52.3440 O   0  0  0  0  0  0  0  0  0  0  0  0
   56.1640   30.1440   52.3840 C   0  0  0  0  0  0  0  0  0  0  0  0
   55.2220   31.1010   51.9920 C   0  0  0  0  0  0  0  0  0  0  0  0
   53.8740   30.8480   51.9880 C   0  0  0  0  0  0  0  0  0  0  0  0
   53.4170   29.6020   52.3840 C   0  0  0  0  0  0  0  0  0  0  0  0
   54.3510   28.6590   52.7690 C   0  0  0  0  0  0  0  0  0  0  0  0
   55.6680   28.9620   52.7540 N   0  0  0  0  0  0  0  0  0  0  0  0
   58.2450   32.3650   50.9370 C   0  0  0  0  0  0  0  0  0  0  0  0
   58.9620   32.8020   49.8220 C   0  0  0  0  0  0  0  0  0  0  0  0
   59.9360   34.2100   46.6580 N   0  0  0  0  0  0  0  0  0  0  0  0
   59.2360   34.7360   45.6360 C   0  0  0  0  0  0  0  0  0  0  0  0
   58.3800   34.0280   44.8800 N   0  0  0  0  0  0  0  0  0  0  0  0
   58.1620   32.7100   45.1000 C   0  0  0  0  0  0  0  0  0  0  0  0
   57.2850   31.9690   44.3290 C   0  0  0  0  0  0  0  0  0  0  0  0
   57.4020   29.5610   42.0500 H   0  0  0  0  0  0  0  0  0  0  0  0
   55.7070   28.9830   41.9020 H   0  0  0  0  0  0  0  0  0  0  0  0
   57.6483   28.9655   45.8524 H   0  0  0  0  0  0  0  0  0  0  0  0
   59.2206   30.3160   47.2279 H   0  0  0  0  0  0  0  0  0  0  0  0
   60.0207   29.8202   48.7092 H   0  0  0  0  0  0  0  0  0  0  0  0
   58.7641   29.0666   50.6711 H   0  0  0  0  0  0  0  0  0  0  0  0
   55.5755   32.0933   51.6752 H   0  0  0  0  0  0  0  0  0  0  0  0
   53.1633   31.6265   51.6736 H   0  0  0  0  0  0  0  0  0  0  0  0
   52.3418   29.3697   52.3918 H   0  0  0  0  0  0  0  0  0  0  0  0
   54.0217   27.6593   53.0885 H   0  0  0  0  0  0  0  0  0  0  0  0
   57.7405   33.1152   51.5637 H   0  0  0  0  0  0  0  0  0  0  0  0
   59.0119   33.8761   49.5900 H   0  0  0  0  0  0  0  0  0  0  0  0
   60.5990   34.7630   47.2440 H   0  0  0  0  0  0  0  0  0  0  0  0
   59.3720   35.8033   45.4072 H   0  0  0  0  0  0  0  0  0  0  0  0
   56.7395   32.4511   43.5044 H   0  0  0  0  0  0  0  0  0  0  0  0
  1  2  1  0
  2  3  2  0
  2  4  1  0
  4  5  2  0
  5  6  1  0
  6  7  2  0
  7  8  1  0
  8  9  2  0
  9 10  1  0
 10 11  2  0
 11 12  1  0
 12 13  2  0
 13 14  1  0
 14 15  1  0
 15 16  2  0
 16 17  1  0
 17 18  2  0
 18 19  1  0
 19 20  2  0
 13 21  1  0
 21 22  2  0
  8 23  1  0
 23 24  1  0
 24 25  2  0
 25 26  1  0
 26 27  2  0
 27  4  1  0
 26  7  1  0
 22 10  1  0
 20 15  1  0
  1 28  1  0
  1 29  1  0
  5 30  1  0
  6 31  1  0
 11 32  1  0
 12 33  1  0
 16 34  1  0
 17 35  1  0
 18 36  1  0
 19 37  1  0
 21 38  1  0
 22 39  1  0
 23 40  1  0
 24 41  1  0
 27 42  1  0
M  END
>  <smiles>  (4) 
NC(=O)c1ccc2c(=Nc3ccc(Oc4ccccn4)cc3)[nH]cnc2c1

>  <score_type>  (4) 
oracle

>  <origin>  (4) 
adg

>  <m_score__min__energy>  (4) 
-8.7100000000000009

>  <m_primary>  (4) 
energy

$$$$
4:0
     RDKit          3D

 77 80  0  0  0  0  0  0  0  0999 V2000
   53.0780   29.7770   53.1260 C   0  0  0  0  0  0  0  0  0  0  0  0
   53.3690   30.5730   51.5620 S   0  0  0  0  0  0  0  0  0  0  0  0
   52.7080   31.9220   51.5790 O   0  0  0  0  0  0  0  0  0  0  0  0
   52.7600   29.7480   50.4630 O   0  0  0  0  0  0  0  0  0  0  0  0
   55.0710   30.7840   51.2680 N   0  0  0  0  0  0  0  0  0  0  0  0
   55.8070   31.1310   52.5000 C   0  0  2  0  0  0  0  0  0  0  0  0
   56.6000   32.4640   52.3640 C   0  0  0  0  0  0  0  0  0  0  0  0
   58.1190   32.2790   52.1730 C   0  0  0  0  0  0  0  0  0  0  0  0
   58.4280   31.0760   51.2590 C   0  0  1  0  0  0  0  0  0  0  0  0
   59.9420   30.9320   50.9690 C   0  0  0  0  0  0  0  0  0  0  0  0
   60.3140   31.2730   49.5190 C   0  0  0  0  0  0  0  0  0  0  0  0
   61.0740   32.5460   49.4810 N   0  0  0  0  0  0  0  0  0  0  0  0
   62.1710   32.5310   48.4880 C   0  0  0  0  0  0  0  0  0  0  0  0
   61.6500   32.5150   47.0340 C   0  0  0  0  0  0  0  0  0  0  0  0
   60.2700   33.0110   46.9730 N   0  0  0  0  0  0  0  0  0  0  0  0
   59.2370   32.2230   46.3510 C   0  0  0  0  0  0  0  0  0  0  0  0
   59.1540   30.8950   46.6360 N   0  0  0  0  0  0  0  0  0  0  0  0
   58.2460   30.0790   46.0420 C   0  0  0  0  0  0  0  0  0  0  0  0
   57.3580   30.5900   45.0860 C   0  0  0  0  0  0  0  0  0  0  0  0
   56.3740   29.7110   44.4240 C   0  0  0  0  0  0  0  0  0  0  0  0
   56.0740   29.9200   43.2190 O   0  0  0  0  0  0  0  0  0  0  0  0
   55.7240   28.6420   45.1220 N   0  0  0  0  0  0  0  0  0  0  0  0
   56.4100   27.4580   45.6340 C   0  0  0  0  0  0  0  0  0  0  0  0
   57.4630   26.9890   44.6270 C   0  0  0  0  0  0  0  0  0  0  0  0
   58.6440   26.4260   45.3170 N   0  0  0  0  0  0  0  0  0  0  0  0
   58.3130   25.8930   46.6630 C   0  0  0  0  0  0  0  0  0  0  0  0
   58.7910   26.8250   47.7900 C   0  0  0  0  0  0  0  0  0  0  0  0
   60.1930   27.0510   47.7720 O   0  0  0  0  0  0  0  0  0  0  0  0
   60.7530   27.0670   46.4640 C   0  0  0  0  0  0  0  0  0  0  0  0
   59.7440   27.4130   45.3560 C   0  0  0  0  0  0  0  0  0  0  0  0
   57.3860   31.9630   44.8120 C   0  0  0  0  0  0  0  0  0  0  0  0
   58.3250   32.7900   45.4390 C   0  0  0  0  0  0  0  0  0  0  0  0
   58.2880   34.5180   45.1090 Cl  0  0  0  0  0  0  0  0  0  0  0  0
   59.9090   34.1130   47.8660 C   0  0  0  0  0  0  0  0  0  0  0  0
   60.2200   33.7500   49.3350 C   0  0  0  0  0  0  0  0  0  0  0  0
   57.8710   29.7580   51.8590 C   0  0  0  0  0  0  0  0  0  0  0  0
   56.7310   29.9650   52.8760 C   0  0  0  0  0  0  0  0  0  0  0  0
   53.3311   30.4693   53.9425 H   0  0  0  0  0  0  0  0  0  0  0  0
   52.0179   29.4931   53.2013 H   0  0  0  0  0  0  0  0  0  0  0  0
   53.7050   28.8764   53.2013 H   0  0  0  0  0  0  0  0  0  0  0  0
   55.1860   31.5210   50.5340 H   0  0  0  0  0  0  0  0  0  0  0  0
   55.0769   31.2962   53.3060 H   0  0  0  0  0  0  0  0  0  0  0  0
   56.2072   33.0120   51.4948 H   0  0  0  0  0  0  0  0  0  0  0  0
   56.4644   33.0104   53.3090 H   0  0  0  0  0  0  0  0  0  0  0  0
   58.5364   33.1900   51.7192 H   0  0  0  0  0  0  0  0  0  0  0  0
   58.5717   32.0913   53.1578 H   0  0  0  0  0  0  0  0  0  0  0  0
   57.9224   31.2722   50.3020 H   0  0  0  0  0  0  0  0  0  0  0  0
   60.4925   31.6082   51.6396 H   0  0  0  0  0  0  0  0  0  0  0  0
   60.2086   29.8780   51.1362 H   0  0  0  0  0  0  0  0  0  0  0  0
   60.9333   30.4655   49.1014 H   0  0  0  0  0  0  0  0  0  0  0  0
   59.3950   31.3810   48.9242 H   0  0  0  0  0  0  0  0  0  0  0  0
   62.7896   33.4292   48.6316 H   0  0  0  0  0  0  0  0  0  0  0  0
   62.7529   31.6109   48.6455 H   0  0  0  0  0  0  0  0  0  0  0  0
   62.2923   33.1567   46.4130 H   0  0  0  0  0  0  0  0  0  0  0  0
   61.6711   31.4802   46.6617 H   0  0  0  0  0  0  0  0  0  0  0  0
   58.2073   29.0134   46.3120 H   0  0  0  0  0  0  0  0  0  0  0  0
   56.9011   27.7047   46.5869 H   0  0  0  0  0  0  0  0  0  0  0  0
   55.6759   26.6540   45.7909 H   0  0  0  0  0  0  0  0  0  0  0  0
   57.0225   26.2163   43.9798 H   0  0  0  0  0  0  0  0  0  0  0  0
   57.7861   27.8544   44.0298 H   0  0  0  0  0  0  0  0  0  0  0  0
   57.2220   25.7755   46.7391 H   0  0  0  0  0  0  0  0  0  0  0  0
   58.8284   24.9284   46.7807 H   0  0  0  0  0  0  0  0  0  0  0  0
   58.2794   27.7930   47.6838 H   0  0  0  0  0  0  0  0  0  0  0  0
   58.5513   26.3336   48.7445 H   0  0  0  0  0  0  0  0  0  0  0  0
   61.5602   27.8140   46.4424 H   0  0  0  0  0  0  0  0  0  0  0  0
   61.1134   26.0480   46.2595 H   0  0  0  0  0  0  0  0  0  0  0  0
   59.3251   28.4116   45.5494 H   0  0  0  0  0  0  0  0  0  0  0  0
   60.2658   27.3961   44.3878 H   0  0  0  0  0  0  0  0  0  0  0  0
   56.6663   32.3937   44.1003 H   0  0  0  0  0  0  0  0  0  0  0  0
   60.4839   35.0080   47.5858 H   0  0  0  0  0  0  0  0  0  0  0  0
   58.8304   34.3067   47.7704 H   0  0  0  0  0  0  0  0  0  0  0  0
   60.7367   34.6016   49.8018 H   0  0  0  0  0  0  0  0  0  0  0  0
   59.2596   33.5254   49.8221 H   0  0  0  0  0  0  0  0  0  0  0  0
   57.4909   29.1363   51.0350 H   0  0  0  0  0  0  0  0  0  0  0  0
   58.6996   29.2804   52.4024 H   0  0  0  0  0  0  0  0  0  0  0  0
   56.1324   29.0435   52.9261 H   0  0  0  0  0  0  0  0  0  0  0  0
   57.1905   30.2046   53.8463 H   0  0  0  0  0  0  0  0  0  0  0  0
  1  2  1  0
  2  3  2  0
  2  4  2  0
  2  5  1  0
  5  6  1  0
  6  7  1  0
  7  8  1  0
  8  9  1  0
  9 10  1  0
 10 11  1  0
 11 12  1  0
 12 13  1  0
 13 14  1  0
 14 15  1  0
 15 16  1  0
 16 17  2  0
 17 18  1  0
 18 19  2  0
 19 20  1  0
 20 21  2  0
 20 22  1  0
 22 23  1  0
 23 24  1  0
 24 25  1  0
 25 26  1  0
 26 27  1  0
 27 28  1  0
 28 29  1  0
 29 30  1  0
 19 31  1  0
 31 32  2  0
 32 33  1  0
 15 34  1  0
 34 35  1  0
  9 36  1  0
 36 37  1  0
 37  6  1  0
 35 12  1  0
 32 16  1  0
 30 25  1  0
  1 38  1  0
  1 39  1  0
  1 40  1  0
  5 41  1  0
  6 42  1  1
  7 43  1  0
  7 44  1  0
  8 45  1  0
  8 46  1  0
  9 47  1  6
 10 48  1  0
 10 49  1  0
 11 50  1  0
 11 51  1  0
 13 52  1  0
 13 53  1  0
 14 54  1  0
 14 55  1  0
 18 56  1  0
 23 57  1  0
 23 58  1  0
 24 59  1  0
 24 60  1  0
 26 61  1  0
 26 62  1  0
 27 63  1  0
 27 64  1  0
 29 65  1  0
 29 66  1  0
 30 67  1  0
 30 68  1  0
 31 69  1  0
 34 70  1  0
 34 71  1  0
 35 72  1  0
 35 73  1  0
 36 74  1  0
 36 75  1  0
 37 76  1  0
 37 77  1  0
M  CHG  1  22  -1
M  END
>  <UniqueID>  (5) 
4

>  <SMILES>  (5) 
CS(=O)(=O)NC1CCC(CCN2CCN(c3ncc(C(=O)[N-]CCN4CCOCC4)cc3Cl)CC2)CC1

>  <Energy>  (5) 
104.12871587973113

>  <Genealogy>  (5) 
CS(=O)(=O)NC1CCC(CCN2CCN(c3ncc(C(=O)[N-]CCN4CCOCC4)cc3Cl)CC2)CC1 (protonated)
CS(=O)(=O)NC1CCC(CCN2CCN(c3ncc(C(=O)[N-]CCN4CCOCC4)cc3Cl)CC2)CC1 (3D coordinates assigned)
CS(=O)(=O)NC1CCC(CCN2CCN(c3ncc(C(=O)[N-]CCN4CCOCC4)cc3Cl)CC2)CC1 (nonaromatic ring conformer: 104.12871587973113 kcal/mol)

>  <smiles>  (5) 
CS(=O)(=O)NC1CCC(CCN2CCN(c3ncc(C(=O)NCCN4CCOCC4)cc3Cl)CC2)CC1

>  <score_type>  (5) 
oracle

>  <origin>  (5) 
adg

>  <m_score__min__energy>  (5) 
-12.41

>  <m_primary>  (5) 
energy

$$$$
5:0
     RDKit          3D

 30 31  0  0  0  0  0  0  0  0999 V2000
   58.3300   29.2560   44.1310 O   0  0  0  0  0  0  0  0  0  0  0  0
   58.4360   28.8440   45.3190 C   0  0  0  0  0  0  0  0  0  0  0  0
   59.2870   29.6360   46.2740 C   0  0  0  0  0  0  0  0  0  0  0  0
   58.4540   30.6930   47.0080 C   0  0  0  0  0  0  0  0  0  0  0  0
   58.6730   32.0200   46.4120 N   0  0  0  0  0  0  0  0  0  0  0  0
   59.6590   32.8220   46.9170 C   0  0  0  0  0  0  0  0  0  0  0  0
   59.8750   34.0950   46.3920 C   0  0  0  0  0  0  0  0  0  0  0  0
   59.0580   34.5320   45.3530 C   0  0  0  0  0  0  0  0  0  0  0  0
   59.2250   35.6750   44.8530 O   0  0  0  0  0  0  0  0  0  0  0  0
   58.0780   33.7230   44.8790 N   0  0  0  0  0  0  0  0  0  0  0  0
   57.8740   32.4840   45.3970 C   0  0  0  0  0  0  0  0  0  0  0  0
   56.9430   31.7710   44.9330 O   0  0  0  0  0  0  0  0  0  0  0  0
   57.6740   27.6390   45.7370 C   0  0  0  0  0  0  0  0  0  0  0  0
   58.3780   26.5540   46.2890 C   0  0  0  0  0  0  0  0  0  0  0  0
   57.7080   25.3970   46.6860 C   0  0  0  0  0  0  0  0  0  0  0  0
   56.3220   25.3050   46.5460 C   0  0  0  0  0  0  0  0  0  0  0  0
   55.6660   24.1440   46.9390 O   0  0  0  0  0  0  0  0  0  0  0  0
   55.5970   26.3770   46.0150 C   0  0  0  0  0  0  0  0  0  0  0  0
   54.2120   26.2670   45.8960 O   0  0  0  0  0  0  0  0  0  0  0  0
   56.2670   27.5500   45.6180 C   0  0  0  0  0  0  0  0  0  0  0  0
   55.5240   28.6240   45.1380 O   0  0  0  0  0  0  0  0  0  0  0  0
   59.7307   28.9518   47.0122 H   0  0  0  0  0  0  0  0  0  0  0  0
   60.0736   30.1475   45.6998 H   0  0  0  0  0  0  0  0  0  0  0  0
   57.3881   30.4323   46.9315 H   0  0  0  0  0  0  0  0  0  0  0  0
   58.7605   30.7201   48.0641 H   0  0  0  0  0  0  0  0  0  0  0  0
   60.2868   32.4594   47.7443 H   0  0  0  0  0  0  0  0  0  0  0  0
   60.6728   34.7396   46.7896 H   0  0  0  0  0  0  0  0  0  0  0  0
   59.4695   26.6186   46.4090 H   0  0  0  0  0  0  0  0  0  0  0  0
   58.2733   24.5544   47.1107 H   0  0  0  0  0  0  0  0  0  0  0  0
   53.6780   25.5770   46.4090 H   0  0  0  0  0  0  0  0  0  0  0  0
  1  2  2  0
  2  3  1  0
  3  4  1  0
  4  5  1  0
  5  6  1  0
  6  7  2  0
  7  8  1  0
  8  9  2  0
  8 10  1  0
 10 11  1  0
 11 12  2  0
  2 13  1  0
 13 14  2  0
 14 15  1  0
 15 16  2  0
 16 17  1  0
 16 18  1  0
 18 19  1  0
 18 20  2  0
 20 21  1  0
 11  5  1  0
 20 13  1  0
  3 22  1  0
  3 23  1  0
  4 24  1  0
  4 25  1  0
  6 26  1  0
  7 27  1  0
 14 28  1  0
 15 29  1  0
 19 30  1  0
M  CHG  3  10  -1  17  -1  21  -1
M  END
>  <UniqueID>  (6) 
5

>  <SMILES>  (6) 
O=C(CCn1ccc(=O)[n-]c1=O)c1ccc([O-])c(O)c1[O-]

>  <Energy>  (6) 
36.15963460109736

>  <Genealogy>  (6) 
O=C(CCn1ccc(=O)[n-]c1=O)c1ccc([O-])c(O)c1[O-] (protonated)
O=C(CCn1ccc(=O)[n-]c1=O)c1ccc([O-])c(O)c1[O-] (3D coordinates assigned)
O=C(CCn1ccc(=O)[n-]c1=O)c1ccc([O-])c(O)c1[O-] (optimized conformer: 36.15963460109736 kcal/mol)

>  <smiles>  (6) 
O=C(CCn1ccc(=O)[nH]c1=O)c1ccc(O)c(O)c1O

>  <score_type>  (6) 
oracle

>  <origin>  (6) 
adg

>  <m_score__min__energy>  (6) 
-14.390000000000001

>  <m_primary>  (6) 
energy

$$$$
6:0
     RDKit          3D

 48 51  0  0  0  0  0  0  0  0999 V2000
   56.0370   28.2300   45.2570 O   0  0  0  0  0  0  0  0  0  0  0  0
   57.0590   28.8680   45.6220 C   0  0  0  0  0  0  0  0  0  0  0  0
   58.3280   28.1360   45.9790 C   0  0  0  0  0  0  0  0  0  0  0  0
   58.1300   26.9850   47.3890 S   0  0  0  0  0  0  0  0  0  0  0  0
   57.2640   25.7340   46.4450 C   0  0  0  0  0  0  0  0  0  0  0  0
   55.8980   25.7340   46.4050 N   0  0  0  0  0  0  0  0  0  0  0  0
   55.2180   24.7990   45.6870 C   0  0  0  0  0  0  0  0  0  0  0  0
   53.9600   24.8210   45.6470 O   0  0  0  0  0  0  0  0  0  0  0  0
   55.9410   23.8280   44.9960 C   0  0  0  0  0  0  0  0  0  0  0  0
   57.3030   23.8320   45.0680 C   0  0  0  0  0  0  0  0  0  0  0  0
   57.9690   24.7770   45.7770 N   0  0  0  0  0  0  0  0  0  0  0  0
   57.9210   22.7520   44.2720 C   0  0  0  0  0  0  0  0  0  0  0  0
   56.7170   22.0790   43.5810 C   0  0  0  0  0  0  0  0  0  0  0  0
   55.4340   22.7370   44.1330 C   0  0  0  0  0  0  0  0  0  0  0  0
   57.0190   30.3000   45.6030 N   0  0  0  0  0  0  0  0  0  0  0  0
   57.2710   31.0910   44.4360 C   0  0  0  0  0  0  0  0  0  0  0  0
   56.9500   30.5660   43.1780 C   0  0  0  0  0  0  0  0  0  0  0  0
   57.2410   31.2860   42.0170 C   0  0  0  0  0  0  0  0  0  0  0  0
   57.8540   32.5380   42.1070 C   0  0  0  0  0  0  0  0  0  0  0  0
   58.1600   33.0810   43.3570 C   0  0  0  0  0  0  0  0  0  0  0  0
   57.8500   32.3760   44.5310 C   0  0  0  0  0  0  0  0  0  0  0  0
   58.1340   32.9940   45.8410 C   0  0  0  0  0  0  0  0  0  0  0  0
   57.2720   33.7520   46.3620 O   0  0  0  0  0  0  0  0  0  0  0  0
   59.3660   32.7340   46.5320 N   0  0  0  0  0  0  0  0  0  0  0  0
   59.9160   33.6300   47.5310 C   0  0  0  0  0  0  0  0  0  0  0  0
   61.0110   32.8420   48.2340 C   0  0  0  0  0  0  0  0  0  0  0  0
   61.3280   31.6630   47.3180 C   0  0  0  0  0  0  0  0  0  0  0  0
   60.1080   31.4890   46.4230 C   0  0  0  0  0  0  0  0  0  0  0  0
   58.6569   27.5596   45.1017 H   0  0  0  0  0  0  0  0  0  0  0  0
   59.0670   28.8936   46.2790 H   0  0  0  0  0  0  0  0  0  0  0  0
   58.6214   23.1623   43.5296 H   0  0  0  0  0  0  0  0  0  0  0  0
   58.5097   22.0524   44.8836 H   0  0  0  0  0  0  0  0  0  0  0  0
   56.7771   22.2289   42.4929 H   0  0  0  0  0  0  0  0  0  0  0  0
   56.7126   20.9972   43.7800 H   0  0  0  0  0  0  0  0  0  0  0  0
   54.8165   23.1383   43.3159 H   0  0  0  0  0  0  0  0  0  0  0  0
   54.7917   22.0281   44.6760 H   0  0  0  0  0  0  0  0  0  0  0  0
   56.4659   29.5810   43.1038 H   0  0  0  0  0  0  0  0  0  0  0  0
   56.9875   30.8672   41.0319 H   0  0  0  0  0  0  0  0  0  0  0  0
   58.0963   33.0975   41.1914 H   0  0  0  0  0  0  0  0  0  0  0  0
   58.6461   34.0656   43.4220 H   0  0  0  0  0  0  0  0  0  0  0  0
   60.3362   34.5266   47.0520 H   0  0  0  0  0  0  0  0  0  0  0  0
   59.1452   33.9721   48.2373 H   0  0  0  0  0  0  0  0  0  0  0  0
   61.9040   33.4688   48.3746 H   0  0  0  0  0  0  0  0  0  0  0  0
   60.6912   32.5055   49.2312 H   0  0  0  0  0  0  0  0  0  0  0  0
   62.2198   31.8790   46.7113 H   0  0  0  0  0  0  0  0  0  0  0  0
   61.5395   30.7500   47.8939 H   0  0  0  0  0  0  0  0  0  0  0  0
   60.4168   31.3153   45.3816 H   0  0  0  0  0  0  0  0  0  0  0  0
   59.5000   30.6236   46.7254 H   0  0  0  0  0  0  0  0  0  0  0  0
  1  2  2  0
  2  3  1  0
  3  4  1  0
  4  5  1  0
  5  6  2  0
  6  7  1  0
  7  8  2  0
  7  9  1  0
  9 10  2  0
 10 11  1  0
 10 12  1  0
 12 13  1  0
 13 14  1  0
  2 15  1  0
 15 16  1  0
 16 17  2  0
 17 18  1  0
 18 19  2  0
 19 20  1  0
 20 21  2  0
 21 22  1  0
 22 23  2  0
 22 24  1  0
 24 25  1  0
 25 26  1  0
 26 27  1  0
 27 28  1  0
 11  5  1  0
 21 16  1  0
 28 24  1  0
 14  9  1  0
  3 29  1  0
  3 30  1  0
 12 31  1  0
 12 32  1  0
 13 33  1  0
 13 34  1  0
 14 35  1  0
 14 36  1  0
 17 37  1  0
 18 38  1  0
 19 39  1  0
 20 40  1  0
 25 41  1  0
 25 42  1  0
 26 43  1  0
 26 44  1  0
 27 45  1  0
 27 46  1  0
 28 47  1  0
 28 48  1  0
M  CHG  2  11  -1  15  -1
M  END
>  <UniqueID>  (7) 
6

>  <SMILES>  (7) 
O=C(CSc1nc(=O)c2c([n-]1)CCC2)[N-]c1ccccc1C(=O)N1CCCC1

>  <Energy>  (7) 
65.11621552960099

>  <Genealogy>  (7) 
O=C(CSc1nc(=O)c2c([n-]1)CCC2)[N-]c1ccccc1C(=O)N1CCCC1 (protonated)
O=C(CSc1nc(=O)c2c([n-]1)CCC2)[N-]c1ccccc1C(=O)N1CCCC1 (3D coordinates assigned)
O=C(CSc1nc(=O)c2c([n-]1)CCC2)[N-]c1ccccc1C(=O)N1CCCC1 (nonaromatic ring conformer: 65.11621552960099 kcal/mol)

>  <smiles>  (7) 
O=C(CSc1nc(=O)c2c([nH]1)CCC2)Nc1ccccc1C(=O)N1CCCC1

>  <score_type>  (7) 
oracle

>  <origin>  (7) 
adg

>  <m_score__min__energy>  (7) 
-12.31

>  <m_primary>  (7) 
energy

$$$$
7:0
     RDKit          3D

 50 52  0  0  0  0  0  0  0  0999 V2000
   62.9030   32.7430   47.5540 C   0  0  0  0  0  0  0  0  0  0  0  0
   61.4960   32.9660   47.0850 C   0  0  0  0  0  0  0  0  0  0  0  0
   60.5360   31.9530   47.2280 C   0  0  0  0  0  0  0  0  0  0  0  0
   59.2330   32.1430   46.7610 C   0  0  0  0  0  0  0  0  0  0  0  0
   58.8710   33.3510   46.1430 C   0  0  0  0  0  0  0  0  0  0  0  0
   57.4660   33.5650   45.6410 C   0  0  0  0  0  0  0  0  0  0  0  0
   57.3730   33.2750   44.2120 N   0  0  0  0  0  0  0  0  0  0  0  0
   57.6830   32.0300   43.5670 C   0  0  0  0  0  0  0  0  0  0  0  0
   58.1180   32.0620   42.3850 O   0  0  0  0  0  0  0  0  0  0  0  0
   57.5120   30.7180   44.2270 C   0  0  0  0  0  0  0  0  0  0  0  0
   56.4600   30.4680   44.8720 O   0  0  0  0  0  0  0  0  0  0  0  0
   58.5470   29.7250   44.1230 N   0  0  0  0  0  0  0  0  0  0  0  0
   58.5530   28.4930   44.8630 C   0  0  0  0  0  0  0  0  0  0  0  0
   59.6680   28.1680   45.6470 C   0  0  0  0  0  0  0  0  0  0  0  0
   59.6950   26.9810   46.3830 C   0  0  0  0  0  0  0  0  0  0  0  0
   58.5990   26.1170   46.3580 C   0  0  0  0  0  0  0  0  0  0  0  0
   57.4540   26.4400   45.6080 C   0  0  0  0  0  0  0  0  0  0  0  0
   56.2870   25.5270   45.5830 C   0  0  0  0  0  0  0  0  0  0  0  0
   55.2470   25.8300   46.2300 O   0  0  0  0  0  0  0  0  0  0  0  0
   56.3110   24.3120   44.8150 N   0  0  0  0  0  0  0  0  0  0  0  0
   55.0880   23.8590   44.1470 C   0  0  0  0  0  0  0  0  0  0  0  0
   55.4560   22.9610   42.9620 C   0  0  0  0  0  0  0  0  0  0  0  0
   56.3230   21.9180   43.3680 O   0  0  0  0  0  0  0  0  0  0  0  0
   57.5550   22.4610   43.8080 C   0  0  0  0  0  0  0  0  0  0  0  0
   57.3530   23.3130   45.0650 C   0  0  0  0  0  0  0  0  0  0  0  0
   57.4400   27.6310   44.8600 C   0  0  0  0  0  0  0  0  0  0  0  0
   59.8420   34.3520   45.9690 C   0  0  0  0  0  0  0  0  0  0  0  0
   61.1460   34.1590   46.4350 C   0  0  0  0  0  0  0  0  0  0  0  0
   62.9267   32.7392   48.6537 H   0  0  0  0  0  0  0  0  0  0  0  0
   63.2665   31.7760   47.1761 H   0  0  0  0  0  0  0  0  0  0  0  0
   63.5477   33.5502   47.1761 H   0  0  0  0  0  0  0  0  0  0  0  0
   60.8108   31.0035   47.7107 H   0  0  0  0  0  0  0  0  0  0  0  0
   58.4873   31.3428   46.8779 H   0  0  0  0  0  0  0  0  0  0  0  0
   56.7826   32.8995   46.1888 H   0  0  0  0  0  0  0  0  0  0  0  0
   57.1908   34.6174   45.8046 H   0  0  0  0  0  0  0  0  0  0  0  0
   59.2690   29.8490   43.3780 H   0  0  0  0  0  0  0  0  0  0  0  0
   60.5283   28.8525   45.6832 H   0  0  0  0  0  0  0  0  0  0  0  0
   60.5812   26.7268   46.9831 H   0  0  0  0  0  0  0  0  0  0  0  0
   58.6311   25.1772   46.9287 H   0  0  0  0  0  0  0  0  0  0  0  0
   54.4700   23.2919   44.8587 H   0  0  0  0  0  0  0  0  0  0  0  0
   54.5236   24.7309   43.7848 H   0  0  0  0  0  0  0  0  0  0  0  0
   54.5378   22.5234   42.5431 H   0  0  0  0  0  0  0  0  0  0  0  0
   55.9709   23.5713   42.2055 H   0  0  0  0  0  0  0  0  0  0  0  0
   58.2505   21.6399   44.0362 H   0  0  0  0  0  0  0  0  0  0  0  0
   57.9654   23.0984   43.0109 H   0  0  0  0  0  0  0  0  0  0  0  0
   57.0482   22.6665   45.9012 H   0  0  0  0  0  0  0  0  0  0  0  0
   58.2950   23.8211   45.3191 H   0  0  0  0  0  0  0  0  0  0  0  0
   56.5509   27.8914   44.2670 H   0  0  0  0  0  0  0  0  0  0  0  0
   59.5748   35.2919   45.4638 H   0  0  0  0  0  0  0  0  0  0  0  0
   61.9009   34.9461   46.2913 H   0  0  0  0  0  0  0  0  0  0  0  0
  1  2  1  0
  2  3  2  0
  3  4  1  0
  4  5  2  0
  5  6  1  0
  6  7  1  0
  7  8  1  0
  8  9  2  0
  8 10  1  0
 10 11  2  0
 10 12  1  0
 12 13  1  0
 13 14  2  0
 14 15  1  0
 15 16  2  0
 16 17  1  0
 17 18  1  0
 18 19  2  0
 18 20  1  0
 20 21  1  0
 21 22  1  0
 22 23  1  0
 23 24  1  0
 24 25  1  0
 17 26  2  0
  5 27  1  0
 27 28  2  0
 28  2  1  0
 26 13  1  0
 25 20  1  0
  1 29  1  0
  1 30  1  0
  1 31  1  0
  3 32  1  0
  4 33  1  0
  6 34  1  0
  6 35  1  0
 12 36  1  0
 14 37  1  0
 15 38  1  0
 16 39  1  0
 21 40  1  0
 21 41  1  0
 22 42  1  0
 22 43  1  0
 24 44  1  0
 24 45  1  0
 25 46  1  0
 25 47  1  0
 26 48  1  0
 27 49  1  0
 28 50  1  0
M  CHG  1   7  -1
M  END
>  <UniqueID>  (8) 
7

>  <SMILES>  (8) 
Cc1ccc(C[N-]C(=O)C(=O)Nc2cccc(C(=O)N3CCOCC3)c2)cc1

>  <Energy>  (8) 
59.41998402501549

>  <Genealogy>  (8) 
Cc1ccc(C[N-]C(=O)C(=O)Nc2cccc(C(=O)N3CCOCC3)c2)cc1 (protonated)
Cc1ccc(C[N-]C(=O)C(=O)Nc2cccc(C(=O)N3CCOCC3)c2)cc1 (3D coordinates assigned)
Cc1ccc(C[N-]C(=O)C(=O)Nc2cccc(C(=O)N3CCOCC3)c2)cc1 (nonaromatic ring conformer: 59.41998402501549 kcal/mol)

>  <smiles>  (8) 
Cc1ccc(CNC(=O)C(=O)Nc2cccc(C(=O)N3CCOCC3)c2)cc1

>  <score_type>  (8) 
oracle

>  <origin>  (8) 
adg

>  <m_score__min__energy>  (8) 
-10.640000000000001

>  <m_primary>  (8) 
energy

$$$$
8:0
     RDKit          3D

 68 71  0  0  0  0  0  0  0  0999 V2000
   59.9353   21.9367   43.5394 H   0  0  0  0  0  0  0  0  0  0  0  0
   59.1510   22.1720   44.2740 C   0  0  0  0  0  0  0  0  0  0  0  0
   59.4510   23.1950   45.2900 C   0  0  0  0  0  0  0  0  0  0  0  0
   60.6500   23.3930   45.6200 O   0  0  0  0  0  0  0  0  0  0  0  0
   58.3980   23.8830   45.9730 N   0  0  0  0  0  0  0  0  0  0  0  0
   58.0940   25.2710   45.7940 C   0  0  0  0  0  0  0  0  0  0  0  0
   59.0890   26.1180   45.2960 C   0  0  0  0  0  0  0  0  0  0  0  0
   60.0842   25.7126   45.0611 H   0  0  0  0  0  0  0  0  0  0  0  0
   58.8280   27.4740   45.0950 C   0  0  0  0  0  0  0  0  0  0  0  0
   59.6090   28.1238   44.6733 H   0  0  0  0  0  0  0  0  0  0  0  0
   57.5800   28.0130   45.4260 C   0  0  0  0  0  0  0  0  0  0  0  0
   57.3200   29.4040   45.1760 N   0  0  0  0  0  0  0  0  0  0  0  0
   57.3750   30.0670   45.9820 H   0  0  0  0  0  0  0  0  0  0  0  0
   56.8390   29.9060   43.9180 C   0  0  0  0  0  0  0  0  0  0  0  0
   56.2100   29.1420   43.1370 O   0  0  0  0  0  0  0  0  0  0  0  0
   57.0050   31.3210   43.5420 C   0  0  0  0  0  0  0  0  0  0  0  0
   56.1639   31.8448   43.0643 H   0  0  0  0  0  0  0  0  0  0  0  0
   58.1440   31.9930   43.7610 C   0  0  0  0  0  0  0  0  0  0  0  0
   58.8200   32.1612   42.9097 H   0  0  0  0  0  0  0  0  0  0  0  0
   58.5430   32.5220   45.0870 C   0  0  0  0  0  0  0  0  0  0  0  0
   58.7510   33.9030   45.2260 C   0  0  0  0  0  0  0  0  0  0  0  0
   58.6127   34.5654   44.3588 H   0  0  0  0  0  0  0  0  0  0  0  0
   59.1320   34.4430   46.4560 C   0  0  0  0  0  0  0  0  0  0  0  0
   59.2763   35.5287   46.5582 H   0  0  0  0  0  0  0  0  0  0  0  0
   59.3300   33.6070   47.5560 C   0  0  0  0  0  0  0  0  0  0  0  0
   59.6142   34.0385   48.5271 H   0  0  0  0  0  0  0  0  0  0  0  0
   59.1690   32.2240   47.4300 C   0  0  0  0  0  0  0  0  0  0  0  0
   59.3880   31.3950   48.5810 N   0  0  0  0  0  0  0  0  0  0  0  0
   59.2390   29.9700   48.6380 C   0  0  0  0  0  0  0  0  0  0  0  0
   58.3800   29.4210   47.8990 O   0  0  0  0  0  0  0  0  0  0  0  0
   60.0080   29.1380   49.5840 C   0  0  0  0  0  0  0  0  0  0  0  0
   60.4300   27.8370   49.3750 C   0  0  0  0  0  0  0  0  0  0  0  0
   60.2357   27.2145   48.4891 H   0  0  0  0  0  0  0  0  0  0  0  0
   61.1440   27.4760   50.5010 C   0  0  0  0  0  0  0  0  0  0  0  0
   61.6245   26.5050   50.6911 H   0  0  0  0  0  0  0  0  0  0  0  0
   61.1370   28.5710   51.3410 C   0  0  0  0  0  0  0  0  0  0  0  0
   61.6231   28.6124   52.3269 H   0  0  0  0  0  0  0  0  0  0  0  0
   60.4490   29.5800   50.7780 N   0  0  0  0  0  0  0  0  0  0  0  0
   60.2970   30.5270   51.1900 H   0  0  0  0  0  0  0  0  0  0  0  0
   58.7560   31.6830   46.1990 C   0  0  0  0  0  0  0  0  0  0  0  0
   58.5984   30.5985   46.1038 H   0  0  0  0  0  0  0  0  0  0  0  0
   56.5840   27.1710   45.9490 C   0  0  0  0  0  0  0  0  0  0  0  0
   55.5970   27.5859   46.2015 H   0  0  0  0  0  0  0  0  0  0  0  0
   56.8380   25.8000   46.1530 C   0  0  0  0  0  0  0  0  0  0  0  0
   55.8810   24.9460   46.7270 O   0  0  0  0  0  0  0  0  0  0  0  0
   56.1320   24.0660   47.8170 C   0  0  0  0  0  0  0  0  0  0  0  0
   55.9788   24.6031   48.7647 H   0  0  0  0  0  0  0  0  0  0  0  0
   55.4419   23.2110   47.7644 H   0  0  0  0  0  0  0  0  0  0  0  0
   57.1693   23.7037   47.7644 H   0  0  0  0  0  0  0  0  0  0  0  0
   57.9910   21.5070   44.1800 C   0  0  0  0  0  0  0  0  0  0  0  0
   57.8045   20.6903   44.8929 H   0  0  0  0  0  0  0  0  0  0  0  0
   56.9280   21.8100   43.1580 C   0  0  0  0  0  0  0  0  0  0  0  0
   57.2626   22.6417   42.5205 H   0  0  0  0  0  0  0  0  0  0  0  0
   56.7534   20.9144   42.5436 H   0  0  0  0  0  0  0  0  0  0  0  0
   55.6690   22.1870   43.8320 N   0  0  0  0  0  0  0  0  0  0  0  0
   55.6820   21.8100   45.2580 C   0  0  0  0  0  0  0  0  0  0  0  0
   55.8593   20.7281   45.3475 H   0  0  0  0  0  0  0  0  0  0  0  0
   56.4833   22.3622   45.7709 H   0  0  0  0  0  0  0  0  0  0  0  0
   54.3260   22.1620   45.9080 C   0  0  0  0  0  0  0  0  0  0  0  0
   53.7915   21.2286   46.1385 H   0  0  0  0  0  0  0  0  0  0  0  0
   54.5309   22.7437   46.8188 H   0  0  0  0  0  0  0  0  0  0  0  0
   53.5130   22.9550   45.0620 O   0  0  0  0  0  0  0  0  0  0  0  0
   54.2440   24.0750   44.6050 C   0  0  0  0  0  0  0  0  0  0  0  0
   53.5739   24.7343   44.0338 H   0  0  0  0  0  0  0  0  0  0  0  0
   54.6542   24.6072   45.4759 H   0  0  0  0  0  0  0  0  0  0  0  0
   55.4120   23.6350   43.7000 C   0  0  0  0  0  0  0  0  0  0  0  0
   55.1608   23.8615   42.6533 H   0  0  0  0  0  0  0  0  0  0  0  0
   56.3168   24.1803   44.0066 H   0  0  0  0  0  0  0  0  0  0  0  0
  1  2  1  0
  2  3  1  0
  3  4  2  0
  3  5  1  0
  5  6  1  0
  6  7  2  0
  7  8  1  0
  7  9  1  0
  9 10  1  0
  9 11  2  0
 11 12  1  0
 12 13  1  0
 12 14  1  0
 14 15  2  0
 14 16  1  0
 16 17  1  0
 16 18  2  0
 18 19  1  0
 18 20  1  0
 20 21  2  0
 21 22  1  0
 21 23  1  0
 23 24  1  0
 23 25  2  0
 25 26  1  0
 25 27  1  0
 27 28  1  0
 28 29  1  0
 29 30  2  0
 29 31  1  0
 31 32  2  0
 32 33  1  0
 32 34  1  0
 34 35  1  0
 34 36  2  0
 36 37  1  0
 36 38  1  0
 38 39  1  0
 27 40  2  0
 40 41  1  0
 11 42  1  0
 42 43  1  0
 42 44  2  0
 44 45  1  0
 45 46  1  0
 46 47  1  0
 46 48  1  0
 46 49  1  0
  2 50  2  3
 50 51  1  0
 50 52  1  0
 52 53  1  0
 52 54  1  0
 52 55  1  0
 55 56  1  0
 56 57  1  0
 56 58  1  0
 56 59  1  0
 59 60  1  0
 59 61  1  0
 59 62  1  0
 62 63  1  0
 63 64  1  0
 63 65  1  0
 63 66  1  0
 66 67  1  0
 66 68  1  0
 44  6  1  0
 66 55  1  0
 40 20  1  0
 38 31  1  0
M  CHG  2   5  -1  28  -1
M  END
>  <UniqueID>  (9) 
8

>  <SMILES>  (9) 
COc1cc(NC(=O)/C=C/c2cccc([N-]C(=O)c3ccc[nH]3)c2)ccc1[N-]C(=O)C=CCN1CCOCC1

>  <Energy>  (9) 
122.90339961188712

>  <Genealogy>  (9) 
COc1cc(NC(=O)C=Cc2cccc([N-]C(=O)c3ccc[nH]3)c2)ccc1[N-]C(=O)C=CCN1CCOCC1 (protonated)
COc1cc(NC(=O)/C=C/c2cccc([N-]C(=O)c3ccc[nH]3)c2)ccc1[N-]C(=O)C=CCN1CCOCC1 (cis-trans isomerization)
COc1cc(NC(=O)/C=C/c2cccc([N-]C(=O)c3ccc[nH]3)c2)ccc1[N-]C(=O)C=CCN1CCOCC1 (3D coordinates assigned)
COc1cc(NC(=O)/C=C/c2cccc([N-]C(=O)c3ccc[nH]3)c2)ccc1[N-]C(=O)C=CCN1CCOCC1 (nonaromatic ring conformer: 122.90339961188712 kcal/mol)

>  <smiles>  (9) 
COc1cc(NC(=O)C=Cc2cccc(NC(=O)c3ccc[nH]3)c2)ccc1NC(=O)C=CCN1CCOCC1

>  <score_type>  (9) 
oracle

>  <origin>  (9) 
adg

>  <m_score__min__energy>  (9) 
-11.76

>  <m_primary>  (9) 
energy

$$$$
9:0
     RDKit          3D

 39 41  0  0  0  0  0  0  0  0999 V2000
   59.6177   25.7313   46.0742 H   0  0  0  0  0  0  0  0  0  0  0  0
   58.5240   25.8480   46.0570 C   0  0  0  0  0  0  0  0  0  0  0  0
   57.9730   27.0440   45.7160 N   0  0  0  0  0  0  0  0  0  0  0  0
   56.6220   27.2330   45.6750 C   0  0  0  0  0  0  0  0  0  0  0  0
   56.1180   28.3930   45.3660 N   0  0  0  0  0  0  0  0  0  0  0  0
   56.8540   29.6160   45.2040 C   0  0  0  0  0  0  0  0  0  0  0  0
   56.3610   30.5270   44.4890 O   0  0  0  0  0  0  0  0  0  0  0  0
   58.1800   29.8280   45.8180 C   0  0  0  0  0  0  0  0  0  0  0  0
   58.2540   30.3680   47.0640 N   0  0  0  0  0  0  0  0  0  0  0  0
   59.4380   30.5820   47.7010 C   0  0  0  0  0  0  0  0  0  0  0  0
   59.4280   31.1080   49.0780 C   0  0  0  0  0  0  0  0  0  0  0  0
   59.7630   30.3780   50.0490 O   0  0  0  0  0  0  0  0  0  0  0  0
   59.0060   32.4510   49.3230 N   0  0  0  0  0  0  0  0  0  0  0  0
   59.6460   33.5840   48.6680 C   0  0  0  0  0  0  0  0  0  0  0  0
   59.5494   34.4753   49.3053 H   0  0  0  0  0  0  0  0  0  0  0  0
   60.7095   33.3541   48.5066 H   0  0  0  0  0  0  0  0  0  0  0  0
   58.9910   33.8480   47.3400 C   0  0  0  0  0  0  0  0  0  0  0  0
   57.6660   33.4420   47.1070 C   0  0  0  0  0  0  0  0  0  0  0  0
   57.0827   32.9838   47.9193 H   0  0  0  0  0  0  0  0  0  0  0  0
   57.0860   33.6180   45.8470 C   0  0  0  0  0  0  0  0  0  0  0  0
   56.0464   33.3038   45.6720 H   0  0  0  0  0  0  0  0  0  0  0  0
   57.8260   34.1930   44.8090 C   0  0  0  0  0  0  0  0  0  0  0  0
   57.3671   34.3350   43.8194 H   0  0  0  0  0  0  0  0  0  0  0  0
   59.1480   34.5870   45.0290 C   0  0  0  0  0  0  0  0  0  0  0  0
   59.7308   35.0349   44.2106 H   0  0  0  0  0  0  0  0  0  0  0  0
   59.7320   34.4130   46.2880 C   0  0  0  0  0  0  0  0  0  0  0  0
   60.7751   34.7195   46.4553 H   0  0  0  0  0  0  0  0  0  0  0  0
   60.6380   30.2570   47.0500 C   0  0  0  0  0  0  0  0  0  0  0  0
   61.6038   30.4213   47.5502 H   0  0  0  0  0  0  0  0  0  0  0  0
   60.5930   29.7230   45.7610 C   0  0  0  0  0  0  0  0  0  0  0  0
   61.5272   29.4724   45.2371 H   0  0  0  0  0  0  0  0  0  0  0  0
   59.3650   29.5070   45.1370 C   0  0  0  0  0  0  0  0  0  0  0  0
   59.3250   29.0889   44.1204 H   0  0  0  0  0  0  0  0  0  0  0  0
   55.7680   26.1700   46.0070 C   0  0  0  0  0  0  0  0  0  0  0  0
   54.3870   26.3350   45.9880 O   0  0  0  0  0  0  0  0  0  0  0  0
   56.3160   24.9350   46.3600 C   0  0  0  0  0  0  0  0  0  0  0  0
   55.6561   24.0936   46.6182 H   0  0  0  0  0  0  0  0  0  0  0  0
   57.7020   24.7690   46.3850 C   0  0  0  0  0  0  0  0  0  0  0  0
   58.1411   23.7987   46.6601 H   0  0  0  0  0  0  0  0  0  0  0  0
  1  2  1  0
  2  3  1  0
  3  4  1  0
  4  5  2  0
  5  6  1  0
  6  7  2  0
  6  8  1  0
  8  9  2  0
  9 10  1  0
 10 11  1  0
 11 12  2  0
 11 13  1  0
 13 14  1  0
 14 15  1  0
 14 16  1  0
 14 17  1  0
 17 18  2  0
 18 19  1  0
 18 20  1  0
 20 21  1  0
 20 22  2  0
 22 23  1  0
 22 24  1  0
 24 25  1  0
 24 26  2  0
 26 27  1  0
 10 28  2  0
 28 29  1  0
 28 30  1  0
 30 31  1  0
 30 32  2  0
 32 33  1  0
  4 34  1  0
 34 35  1  0
 34 36  2  0
 36 37  1  0
 36 38  1  0
 38 39  1  0
 38  2  2  0
 32  8  1  0
 26 17  1  0
M  CHG  3   3  -1  13  -1  35  -1
M  END
>  <UniqueID>  (10) 
9

>  <SMILES>  (10) 
O=C(/N=c1\[n-]cccc1[O-])c1cccc(C(=O)[N-]Cc2ccccc2)n1

>  <Energy>  (10) 
52.30766114735908

>  <Genealogy>  (10) 
O=C(N=c1[n-]cccc1[O-])c1cccc(C(=O)[N-]Cc2ccccc2)n1 (protonated)
O=C(/N=c1\[n-]cccc1[O-])c1cccc(C(=O)[N-]Cc2ccccc2)n1 (cis-trans isomerization)
O=C(/N=c1\[n-]cccc1[O-])c1cccc(C(=O)[N-]Cc2ccccc2)n1 (3D coordinates assigned)
O=C(/N=c1\[n-]cccc1[O-])c1cccc(C(=O)[N-]Cc2ccccc2)n1 (optimized conformer: 52.30766114735908 kcal/mol)

>  <smiles>  (10) 
O=C(N=c1[nH]cccc1O)c1cccc(C(=O)NCc2ccccc2)n1

>  <score_type>  (10) 
oracle

>  <origin>  (10) 
adg

>  <m_score__min__energy>  (10) 
-15.56

>  <m_primary>  (10) 
energy

$$$$
10:0
     RDKit          3D

 44 46  0  0  0  0  0  0  0  0999 V2000
   64.1262   31.1804   47.0380 H   0  0  0  0  0  0  0  0  0  0  0  0
   63.2630   31.8060   47.3090 C   0  0  0  0  0  0  0  0  0  0  0  0
   63.4640   33.0990   47.7980 C   0  0  0  0  0  0  0  0  0  0  0  0
   64.4859   33.4892   47.9142 H   0  0  0  0  0  0  0  0  0  0  0  0
   62.3690   33.8980   48.1400 C   0  0  0  0  0  0  0  0  0  0  0  0
   62.5317   34.9130   48.5315 H   0  0  0  0  0  0  0  0  0  0  0  0
   61.0610   33.4080   47.9850 C   0  0  0  0  0  0  0  0  0  0  0  0
   59.8820   34.2470   48.3930 C   0  0  0  0  0  0  0  0  0  0  0  0
   60.2174   35.0356   49.0826 H   0  0  0  0  0  0  0  0  0  0  0  0
   59.1386   33.6072   48.8910 H   0  0  0  0  0  0  0  0  0  0  0  0
   59.2600   34.8750   47.1880 C   0  0  0  0  0  0  0  0  0  0  0  0
   59.8470   35.8340   46.6160 O   0  0  0  0  0  0  0  0  0  0  0  0
   57.9850   34.4010   46.7260 N   0  0  0  0  0  0  0  0  0  0  0  0
   57.7870   33.3880   45.9360 C   0  0  0  0  0  0  0  0  0  0  0  0
   57.4920   32.1370   46.3570 N   0  0  0  0  0  0  0  0  0  0  0  0
   57.3440   31.2760   45.3520 N   0  0  0  0  0  0  0  0  0  0  0  0
   57.5260   31.8410   44.1390 C   0  0  0  0  0  0  0  0  0  0  0  0
   57.3960   30.9420   42.5960 S   0  0  0  0  0  0  0  0  0  0  0  0
   55.8030   30.1450   43.0110 C   0  0  0  0  0  0  0  0  0  0  0  0
   55.5064   29.4888   42.1795 H   0  0  0  0  0  0  0  0  0  0  0  0
   55.0582   30.9375   43.1760 H   0  0  0  0  0  0  0  0  0  0  0  0
   55.8970   29.3240   44.2690 C   0  0  0  0  0  0  0  0  0  0  0  0
   55.1810   29.6350   45.2560 O   0  0  0  0  0  0  0  0  0  0  0  0
   56.8170   28.2320   44.4020 N   0  0  0  0  0  0  0  0  0  0  0  0
   57.8530   28.1300   45.3880 C   0  0  0  0  0  0  0  0  0  0  0  0
   58.9940   28.9440   45.2940 C   0  0  0  0  0  0  0  0  0  0  0  0
   59.0945   29.6482   44.4550 H   0  0  0  0  0  0  0  0  0  0  0  0
   60.0010   28.8660   46.2570 C   0  0  0  0  0  0  0  0  0  0  0  0
   60.8863   29.5144   46.1808 H   0  0  0  0  0  0  0  0  0  0  0  0
   59.8850   27.9660   47.3160 C   0  0  0  0  0  0  0  0  0  0  0  0
   60.6756   27.9112   48.0789 H   0  0  0  0  0  0  0  0  0  0  0  0
   58.7670   27.1340   47.4100 C   0  0  0  0  0  0  0  0  0  0  0  0
   58.6885   26.4189   48.2421 H   0  0  0  0  0  0  0  0  0  0  0  0
   57.7400   27.2020   46.4500 C   0  0  0  0  0  0  0  0  0  0  0  0
   56.5560   26.3170   46.5770 C   0  0  0  0  0  0  0  0  0  0  0  0
   56.6670   25.1870   47.1220 O   0  0  0  0  0  0  0  0  0  0  0  0
   55.2780   26.7240   46.0810 N   0  0  0  0  0  0  0  0  0  0  0  0
   55.1620   27.6090   45.5400 H   0  0  0  0  0  0  0  0  0  0  0  0
   54.4500   26.1010   46.1960 H   0  0  0  0  0  0  0  0  0  0  0  0
   57.8780   33.4850   44.2600 S   0  0  0  0  0  0  0  0  0  0  0  0
   60.8670   32.1020   47.5040 C   0  0  0  0  0  0  0  0  0  0  0  0
   59.8475   31.7038   47.3946 H   0  0  0  0  0  0  0  0  0  0  0  0
   61.9660   31.3070   47.1640 C   0  0  0  0  0  0  0  0  0  0  0  0
   61.8092   30.2875   46.7819 H   0  0  0  0  0  0  0  0  0  0  0  0
  1  2  1  0
  2  3  2  0
  3  4  1  0
  3  5  1  0
  5  6  1  0
  5  7  2  0
  7  8  1  0
  8  9  1  0
  8 10  1  0
  8 11  1  0
 11 12  2  0
 11 13  1  0
 13 14  2  0
 14 15  1  0
 15 16  1  0
 16 17  2  0
 17 18  1  0
 18 19  1  0
 19 20  1  0
 19 21  1  0
 19 22  1  0
 22 23  2  0
 22 24  1  0
 24 25  1  0
 25 26  2  0
 26 27  1  0
 26 28  1  0
 28 29  1  0
 28 30  2  0
 30 31  1  0
 30 32  1  0
 32 33  1  0
 32 34  2  0
 34 35  1  0
 35 36  2  0
 35 37  1  0
 37 38  1  0
 37 39  1  0
 17 40  1  0
  7 41  1  0
 41 42  1  0
 41 43  2  0
 43 44  1  0
 43  2  1  0
 40 14  1  0
 34 25  1  0
M  CHG  2  15  -1  24  -1
M  END
>  <UniqueID>  (11) 
10

>  <SMILES>  (11) 
NC(=O)c1ccccc1[N-]C(=O)CSc1n[n-]/c(=N\C(=O)Cc2ccccc2)s1

>  <Energy>  (11) 
84.34902134946178

>  <Genealogy>  (11) 
NC(=O)c1ccccc1[N-]C(=O)CSc1n[n-]c(=NC(=O)Cc2ccccc2)s1 (protonated)
NC(=O)c1ccccc1[N-]C(=O)CSc1n[n-]/c(=N\C(=O)Cc2ccccc2)s1 (cis-trans isomerization)
NC(=O)c1ccccc1[N-]C(=O)CSc1n[n-]/c(=N\C(=O)Cc2ccccc2)s1 (3D coordinates assigned)
NC(=O)c1ccccc1[N-]C(=O)CSc1n[n-]/c(=N\C(=O)Cc2ccccc2)s1 (optimized conformer: 84.34902134946178 kcal/mol)

>  <smiles>  (11) 
NC(=O)c1ccccc1NC(=O)CSc1n[nH]c(=NC(=O)Cc2ccccc2)s1

>  <score_type>  (11) 
oracle

>  <origin>  (11) 
adg

>  <m_score__min__energy>  (11) 
-11.94

>  <m_primary>  (11) 
energy

$$$$
11:0
     RDKit          3D

 53 56  0  0  0  0  0  0  0  0999 V2000
   58.5996   34.5764   48.1409 H   0  0  0  0  0  0  0  0  0  0  0  0
   58.5390   34.2810   47.0830 C   0  0  0  0  0  0  0  0  0  0  0  0
   57.7460   33.1900   46.7070 C   0  0  0  0  0  0  0  0  0  0  0  0
   57.1963   32.6219   47.4719 H   0  0  0  0  0  0  0  0  0  0  0  0
   57.6500   32.8170   45.3480 C   0  0  0  0  0  0  0  0  0  0  0  0
   56.8890   31.6720   44.9210 N   0  0  0  0  0  0  0  0  0  0  0  0
   57.1090   30.4260   45.2250 C   0  0  0  0  0  0  0  0  0  0  0  0
   58.2620   30.0440   45.8610 N   0  0  0  0  0  0  0  0  0  0  0  0
   58.4310   28.7350   46.1600 C   0  0  0  0  0  0  0  0  0  0  0  0
   57.4860   27.8020   45.8750 C   0  0  0  0  0  0  0  0  0  0  0  0
   56.2980   28.1770   45.2560 C   0  0  0  0  0  0  0  0  0  0  0  0
   55.5151   27.4384   45.0288 H   0  0  0  0  0  0  0  0  0  0  0  0
   56.1400   29.4960   44.9410 N   0  0  0  0  0  0  0  0  0  0  0  0
   57.8810   26.6080   46.3530 N   0  0  0  0  0  0  0  0  0  0  0  0
   57.1190   25.3610   46.4060 C   0  0  0  0  0  0  0  0  0  0  0  0
   56.9475   25.0804   47.4557 H   0  0  0  0  0  0  0  0  0  0  0  0
   56.1518   25.5006   45.9011 H   0  0  0  0  0  0  0  0  0  0  0  0
   57.6845   24.5640   45.9011 H   0  0  0  0  0  0  0  0  0  0  0  0
   59.0690   26.8740   46.9580 C   0  0  0  0  0  0  0  0  0  0  0  0
   59.7240   26.0050   47.5930 O   0  0  0  0  0  0  0  0  0  0  0  0
   59.4580   28.1770   46.8340 N   0  0  0  0  0  0  0  0  0  0  0  0
   60.5990   28.8900   47.4360 C   0  0  1  0  0  0  0  0  0  0  0  0
   61.4024   28.1575   47.6031 H   0  0  0  0  0  0  0  0  0  0  0  0
   61.1700   29.9580   46.4700 C   0  0  0  0  0  0  0  0  0  0  0  0
   62.2685   29.9288   46.5195 H   0  0  0  0  0  0  0  0  0  0  0  0
   60.8076   29.7250   45.4579 H   0  0  0  0  0  0  0  0  0  0  0  0
   60.6960   31.3780   46.8250 C   0  0  0  0  0  0  0  0  0  0  0  0
   61.1959   32.0911   46.1530 H   0  0  0  0  0  0  0  0  0  0  0  0
   59.6024   31.3950   46.7082 H   0  0  0  0  0  0  0  0  0  0  0  0
   60.9970   31.7670   48.2400 N   0  0  2  0  0  0  0  0  0  0  0  0
   60.1580   32.2940   48.5950 H   0  0  0  0  0  0  0  0  0  0  0  0
   62.1470   32.6560   48.2980 C   0  0  0  0  0  0  0  0  0  0  0  0
   63.2240   32.3090   47.8220 O   0  0  0  0  0  0  0  0  0  0  0  0
   62.0380   34.0360   48.9020 C   0  0  0  0  0  0  0  0  0  0  0  0
   62.3517   34.7843   48.1593 H   0  0  0  0  0  0  0  0  0  0  0  0
   62.6872   34.0942   49.7881 H   0  0  0  0  0  0  0  0  0  0  0  0
   60.7000   34.2920   49.2890 O   0  0  0  0  0  0  0  0  0  0  0  0
   60.4670   33.7910   50.5890 C   0  0  0  0  0  0  0  0  0  0  0  0
   60.8090   34.5264   51.3321 H   0  0  0  0  0  0  0  0  0  0  0  0
   59.3909   33.6070   50.7236 H   0  0  0  0  0  0  0  0  0  0  0  0
   61.0196   32.8495   50.7236 H   0  0  0  0  0  0  0  0  0  0  0  0
   61.1900   30.6220   49.1660 C   0  0  0  0  0  0  0  0  0  0  0  0
   62.2304   30.2728   49.0915 H   0  0  0  0  0  0  0  0  0  0  0  0
   60.9645   30.9612   50.1878 H   0  0  0  0  0  0  0  0  0  0  0  0
   60.2490   29.4620   48.8240 C   0  0  0  0  0  0  0  0  0  0  0  0
   60.3556   28.6712   49.5812 H   0  0  0  0  0  0  0  0  0  0  0  0
   59.2124   29.8299   48.8117 H   0  0  0  0  0  0  0  0  0  0  0  0
   58.3940   33.5260   44.3910 C   0  0  0  0  0  0  0  0  0  0  0  0
   58.3550   33.2219   43.3346 H   0  0  0  0  0  0  0  0  0  0  0  0
   59.1850   34.6170   44.7710 C   0  0  0  0  0  0  0  0  0  0  0  0
   59.7518   35.1758   44.0118 H   0  0  0  0  0  0  0  0  0  0  0  0
   59.2550   34.9970   46.1160 C   0  0  0  0  0  0  0  0  0  0  0  0
   60.0330   36.0480   46.4850 F   0  0  0  0  0  0  0  0  0  0  0  0
  1  2  1  0
  2  3  2  0
  3  4  1  0
  3  5  1  0
  5  6  1  0
  6  7  2  0
  7  8  1  0
  8  9  2  0
  9 10  1  0
 10 11  2  0
 11 12  1  0
 11 13  1  0
 10 14  1  0
 14 15  1  0
 15 16  1  0
 15 17  1  0
 15 18  1  0
 14 19  1  0
 19 20  2  0
 19 21  1  0
 21 22  1  0
 22 23  1  1
 22 24  1  0
 24 25  1  0
 24 26  1  0
 24 27  1  0
 27 28  1  0
 27 29  1  0
 27 30  1  0
 30 31  1  1
 30 32  1  0
 32 33  2  0
 32 34  1  0
 34 35  1  0
 34 36  1  0
 34 37  1  0
 37 38  1  0
 38 39  1  0
 38 40  1  0
 38 41  1  0
 30 42  1  0
 42 43  1  0
 42 44  1  0
 42 45  1  0
 45 46  1  0
 45 47  1  0
  5 48  2  0
 48 49  1  0
 48 50  1  0
 50 51  1  0
 50 52  2  0
 52 53  1  0
 52  2  1  0
 13  7  1  0
 45 22  1  0
 21  9  1  0
M  CHG  2  13  -1  30   1
M  END
>  <UniqueID>  (12) 
11

>  <SMILES>  (12) 
COCC(=O)[NH+]1CCC(n2c(=O)n(C)c3c[n-]/c(=N/c4ccc(F)cc4)nc32)CC1

>  <Energy>  (12) 
117.46966947052474

>  <Genealogy>  (12) 
COCC(=O)[NH+]1CCC(n2c(=O)n(C)c3c[n-]c(=Nc4ccc(F)cc4)nc32)CC1 (protonated)
COCC(=O)[NH+]1CCC(n2c(=O)n(C)c3c[n-]/c(=N/c4ccc(F)cc4)nc32)CC1 (cis-trans isomerization)
COCC(=O)[NH+]1CCC(n2c(=O)n(C)c3c[n-]/c(=N/c4ccc(F)cc4)nc32)CC1 (3D coordinates assigned)
COCC(=O)[NH+]1CCC(n2c(=O)n(C)c3c[n-]/c(=N/c4ccc(F)cc4)nc32)CC1 (nonaromatic ring conformer: 117.46966947052474 kcal/mol)

>  <smiles>  (12) 
COCC(=O)N1CCC(n2c(=O)n(C)c3c[nH]c(=Nc4ccc(F)cc4)nc32)CC1

>  <score_type>  (12) 
oracle

>  <origin>  (12) 
adg

>  <m_score__min__energy>  (12) 
-8.0700000000000003

>  <m_primary>  (12) 
energy

$$$$
12:0
     RDKit          3D

 35 36  0  0  0  0  0  0  0  0999 V2000
   57.3220   34.3340   44.5240 O   0  0  0  0  0  0  0  0  0  0  0  0
   57.2010   33.3870   45.3460 C   0  0  0  0  0  0  0  0  0  0  0  0
   57.7820   33.5440   46.7280 C   0  0  0  0  0  0  0  0  0  0  0  0
   59.0440   32.7290   46.8660 C   0  0  0  0  0  0  0  0  0  0  0  0
   60.2880   33.3790   46.9490 C   0  0  0  0  0  0  0  0  0  0  0  0
   61.4630   32.6390   47.1040 C   0  0  0  0  0  0  0  0  0  0  0  0
   61.4090   31.2470   47.1850 C   0  0  0  0  0  0  0  0  0  0  0  0
   60.1770   30.5890   47.1160 C   0  0  0  0  0  0  0  0  0  0  0  0
   58.9920   31.3230   46.9610 C   0  0  0  0  0  0  0  0  0  0  0  0
   57.7660   30.6600   46.9030 O   0  0  0  0  0  0  0  0  0  0  0  0
   56.5370   32.1890   44.9220 N   0  0  0  0  0  0  0  0  0  0  0  0
   57.1310   31.1500   44.0920 C   0  0  0  0  0  0  0  0  0  0  0  0
   56.2230   29.9660   44.0610 C   0  0  0  0  0  0  0  0  0  0  0  0
   55.5330   29.7360   43.0320 O   0  0  0  0  0  0  0  0  0  0  0  0
   56.0680   29.1660   45.2390 N   0  0  0  0  0  0  0  0  0  0  0  0
   56.8040   27.9710   45.5370 C   0  0  0  0  0  0  0  0  0  0  0  0
   58.1930   27.9790   45.3560 C   0  0  0  0  0  0  0  0  0  0  0  0
   58.9490   26.8350   45.6290 C   0  0  0  0  0  0  0  0  0  0  0  0
   58.3200   25.6680   46.0680 C   0  0  0  0  0  0  0  0  0  0  0  0
   56.9310   25.6400   46.2190 C   0  0  0  0  0  0  0  0  0  0  0  0
   56.1660   26.7790   45.9420 C   0  0  0  0  0  0  0  0  0  0  0  0
   54.7810   26.7020   46.0370 O   0  0  0  0  0  0  0  0  0  0  0  0
   58.0148   34.6045   46.9046 H   0  0  0  0  0  0  0  0  0  0  0  0
   57.0469   33.1894   47.4655 H   0  0  0  0  0  0  0  0  0  0  0  0
   60.3365   34.4764   46.8916 H   0  0  0  0  0  0  0  0  0  0  0  0
   62.4328   33.1549   47.1623 H   0  0  0  0  0  0  0  0  0  0  0  0
   62.3361   30.6669   47.3032 H   0  0  0  0  0  0  0  0  0  0  0  0
   60.1372   29.4918   47.1835 H   0  0  0  0  0  0  0  0  0  0  0  0
   57.0650   30.8970   46.2100 H   0  0  0  0  0  0  0  0  0  0  0  0
   57.2724   31.5318   43.0701 H   0  0  0  0  0  0  0  0  0  0  0  0
   58.1057   30.8567   44.5091 H   0  0  0  0  0  0  0  0  0  0  0  0
   58.6921   28.8911   44.9968 H   0  0  0  0  0  0  0  0  0  0  0  0
   60.0410   26.8542   45.4978 H   0  0  0  0  0  0  0  0  0  0  0  0
   58.9169   24.7723   46.2946 H   0  0  0  0  0  0  0  0  0  0  0  0
   56.4361   24.7177   46.5574 H   0  0  0  0  0  0  0  0  0  0  0  0
  1  2  2  0
  2  3  1  0
  3  4  1  0
  4  5  2  0
  5  6  1  0
  6  7  2  0
  7  8  1  0
  8  9  2  0
  9 10  1  0
  2 11  1  0
 11 12  1  0
 12 13  1  0
 13 14  2  0
 13 15  1  0
 15 16  1  0
 16 17  2  0
 17 18  1  0
 18 19  2  0
 19 20  1  0
 20 21  2  0
 21 22  1  0
  9  4  1  0
 21 16  1  0
  3 23  1  0
  3 24  1  0
  5 25  1  0
  6 26  1  0
  7 27  1  0
  8 28  1  0
 10 29  1  0
 12 30  1  0
 12 31  1  0
 17 32  1  0
 18 33  1  0
 19 34  1  0
 20 35  1  0
M  CHG  3  11  -1  15  -1  22  -1
M  END
>  <UniqueID>  (13) 
12

>  <SMILES>  (13) 
O=C(Cc1ccccc1O)[N-]CC(=O)[N-]c1ccccc1[O-]

>  <Energy>  (13) 
37.397587348226146

>  <Genealogy>  (13) 
O=C(Cc1ccccc1O)[N-]CC(=O)[N-]c1ccccc1[O-] (protonated)
O=C(Cc1ccccc1O)[N-]CC(=O)[N-]c1ccccc1[O-] (3D coordinates assigned)
O=C(Cc1ccccc1O)[N-]CC(=O)[N-]c1ccccc1[O-] (optimized conformer: 37.397587348226146 kcal/mol)

>  <smiles>  (13) 
O=C(Cc1ccccc1O)NCC(=O)Nc1ccccc1O

>  <score_type>  (13) 
oracle

>  <origin>  (13) 
adg

>  <m_score__min__energy>  (13) 
-14.02

>  <m_primary>  (13) 
energy

$$$$
13:0
     RDKit          3D

 68 72  0  0  0  0  0  0  0  0999 V2000
   58.0150   25.5030   47.4750 C   0  0  0  0  0  0  0  0  0  0  0  0
   58.0630   26.3590   46.4410 C   0  0  0  0  0  0  0  0  0  0  0  0
   57.6840   26.1100   45.1100 C   0  0  0  0  0  0  0  0  0  0  0  0
   57.0370   25.0670   44.5520 C   0  0  0  0  0  0  0  0  0  0  0  0
   55.6920   24.5870   44.9290 C   0  0  0  0  0  0  0  0  0  0  0  0
   54.7840   25.4170   45.6100 C   0  0  0  0  0  0  0  0  0  0  0  0
   55.1420   26.7080   45.9820 O   0  0  0  0  0  0  0  0  0  0  0  0
   53.5410   24.9580   45.9090 N   0  0  0  0  0  0  0  0  0  0  0  0
   53.1460   23.7120   45.5400 C   0  0  0  0  0  0  0  0  0  0  0  0
   51.9910   23.3080   45.8310 O   0  0  0  0  0  0  0  0  0  0  0  0
   53.9930   22.9070   44.8510 N   0  0  0  0  0  0  0  0  0  0  0  0
   55.2480   23.3170   44.5310 C   0  0  0  0  0  0  0  0  0  0  0  0
   56.0050   22.5450   43.8840 O   0  0  0  0  0  0  0  0  0  0  0  0
   58.1000   27.2090   44.3770 C   0  0  0  0  0  0  0  0  0  0  0  0
   58.6530   28.1010   45.2710 C   0  0  0  0  0  0  0  0  0  0  0  0
   59.2150   29.4420   44.9010 C   0  0  0  0  0  0  0  0  0  0  0  0
   58.6320   27.5890   46.5200 N   0  0  0  0  0  0  0  0  0  0  0  0
   59.1290   28.2410   47.7020 C   0  0  0  0  0  0  0  0  0  0  0  0
   60.2060   27.6890   48.4100 C   0  0  0  0  0  0  0  0  0  0  0  0
   60.6780   28.3090   49.5700 C   0  0  0  0  0  0  0  0  0  0  0  0
   60.0740   29.4860   50.0430 C   0  0  0  0  0  0  0  0  0  0  0  0
   60.5680   30.1430   51.2730 C   0  0  0  0  0  0  0  0  0  0  0  0
   59.8910   30.0570   52.3330 O   0  0  0  0  0  0  0  0  0  0  0  0
   61.8120   30.8670   51.2870 N   0  0  0  0  0  0  0  0  0  0  0  0
   61.8680   32.2080   51.8740 C   0  0  0  0  0  0  0  0  0  0  0  0
   63.1870   32.3970   52.6320 C   0  0  0  0  0  0  0  0  0  0  0  0
   64.3640   32.0410   51.8100 N   0  0  0  0  0  0  0  0  0  0  0  0
   64.6190   33.0230   50.7330 C   0  0  0  0  0  0  0  0  0  0  0  0
   63.7090   34.2130   50.8780 C   0  0  0  0  0  0  0  0  0  0  0  0
   62.8720   34.6460   49.9230 C   0  0  0  0  0  0  0  0  0  0  0  0
   62.1380   33.7700   48.9840 C   0  0  0  0  0  0  0  0  0  0  0  0
   60.7350   33.7880   48.9020 C   0  0  0  0  0  0  0  0  0  0  0  0
   60.0710   32.9570   47.9920 C   0  0  0  0  0  0  0  0  0  0  0  0
   60.8030   32.1170   47.1500 C   0  0  0  0  0  0  0  0  0  0  0  0
   62.1990   32.1140   47.2060 C   0  0  0  0  0  0  0  0  0  0  0  0
   62.8660   32.9440   48.1130 C   0  0  0  0  0  0  0  0  0  0  0  0
   64.2700   30.6470   51.3190 C   0  0  0  0  0  0  0  0  0  0  0  0
   62.9740   30.3710   50.5420 C   0  0  0  0  0  0  0  0  0  0  0  0
   59.0100   30.0490   49.3180 C   0  0  0  0  0  0  0  0  0  0  0  0
   58.5370   29.4260   48.1600 C   0  0  0  0  0  0  0  0  0  0  0  0
   58.3441   25.8273   48.4732 H   0  0  0  0  0  0  0  0  0  0  0  0
   57.6466   24.4777   47.3235 H   0  0  0  0  0  0  0  0  0  0  0  0
   57.5557   24.5268   43.7463 H   0  0  0  0  0  0  0  0  0  0  0  0
   58.0070   27.3443   43.2893 H   0  0  0  0  0  0  0  0  0  0  0  0
   59.4512   30.0056   45.8156 H   0  0  0  0  0  0  0  0  0  0  0  0
   60.1313   29.3046   44.3080 H   0  0  0  0  0  0  0  0  0  0  0  0
   58.4746   29.9989   44.3080 H   0  0  0  0  0  0  0  0  0  0  0  0
   60.6813   26.7642   48.0509 H   0  0  0  0  0  0  0  0  0  0  0  0
   61.5275   27.8729   50.1160 H   0  0  0  0  0  0  0  0  0  0  0  0
   61.7979   32.9588   51.0732 H   0  0  0  0  0  0  0  0  0  0  0  0
   61.0293   32.3291   52.5754 H   0  0  0  0  0  0  0  0  0  0  0  0
   63.2729   33.4510   52.9347 H   0  0  0  0  0  0  0  0  0  0  0  0
   63.1719   31.7277   53.5049 H   0  0  0  0  0  0  0  0  0  0  0  0
   65.6651   33.3584   50.7892 H   0  0  0  0  0  0  0  0  0  0  0  0
   64.4259   32.5439   49.7618 H   0  0  0  0  0  0  0  0  0  0  0  0
   63.7316   34.7641   51.8297 H   0  0  0  0  0  0  0  0  0  0  0  0
   62.7206   35.7317   49.8317 H   0  0  0  0  0  0  0  0  0  0  0  0
   60.1565   34.4576   49.5554 H   0  0  0  0  0  0  0  0  0  0  0  0
   58.9723   32.9656   47.9401 H   0  0  0  0  0  0  0  0  0  0  0  0
   60.2800   31.4572   46.4421 H   0  0  0  0  0  0  0  0  0  0  0  0
   62.7743   31.4581   46.5360 H   0  0  0  0  0  0  0  0  0  0  0  0
   63.9656   32.9496   48.1440 H   0  0  0  0  0  0  0  0  0  0  0  0
   65.1252   30.4505   50.6556 H   0  0  0  0  0  0  0  0  0  0  0  0
   64.2732   29.9870   52.1990 H   0  0  0  0  0  0  0  0  0  0  0  0
   63.0218   30.8777   49.5668 H   0  0  0  0  0  0  0  0  0  0  0  0
   62.8686   29.2852   50.4008 H   0  0  0  0  0  0  0  0  0  0  0  0
   58.5470   30.9850   49.6638 H   0  0  0  0  0  0  0  0  0  0  0  0
   57.6961   29.8677   47.6053 H   0  0  0  0  0  0  0  0  0  0  0  0
  1  2  2  0
  2  3  1  0
  3  4  2  3
  4  5  1  0
  5  6  2  0
  6  7  1  0
  6  8  1  0
  8  9  1  0
  9 10  2  0
  9 11  1  0
 11 12  1  0
 12 13  2  0
  3 14  1  0
 14 15  2  0
 15 16  1  0
 15 17  1  0
 17 18  1  0
 18 19  2  0
 19 20  1  0
 20 21  2  0
 21 22  1  0
 22 23  2  0
 22 24  1  0
 24 25  1  0
 25 26  1  0
 26 27  1  0
 27 28  1  0
 28 29  1  0
 29 30  2  3
 30 31  1  0
 31 32  2  0
 32 33  1  0
 33 34  2  0
 34 35  1  0
 35 36  2  0
 27 37  1  0
 37 38  1  0
 21 39  1  0
 39 40  2  0
 17  2  1  0
 40 18  1  0
 12  5  1  0
 38 24  1  0
 36 31  1  0
  1 41  1  0
  1 42  1  0
  4 43  1  0
 14 44  1  0
 16 45  1  0
 16 46  1  0
 16 47  1  0
 19 48  1  0
 20 49  1  0
 25 50  1  0
 25 51  1  0
 26 52  1  0
 26 53  1  0
 28 54  1  0
 28 55  1  0
 29 56  1  0
 30 57  1  0
 32 58  1  0
 33 59  1  0
 34 60  1  0
 35 61  1  0
 36 62  1  0
 37 63  1  0
 37 64  1  0
 38 65  1  0
 38 66  1  0
 39 67  1  0
 40 68  1  0
M  CHG  3   7  -1   8  -1  11  -1
M  END
>  <UniqueID>  (14) 
13

>  <SMILES>  (14) 
C=c1c(=Cc2c([O-])[n-]c(=O)[n-]c2=O)cc(C)n1-c1ccc(C(=O)N2CCN(CC=Cc3ccccc3)CC2)cc1

>  <Energy>  (14) 
136.18156008166895

>  <Genealogy>  (14) 
C=c1c(=Cc2c([O-])[n-]c(=O)[n-]c2=O)cc(C)n1-c1ccc(C(=O)N2CCN(CC=Cc3ccccc3)CC2)cc1 (protonated)
C=c1c(=Cc2c([O-])[n-]c(=O)[n-]c2=O)cc(C)n1-c1ccc(C(=O)N2CCN(CC=Cc3ccccc3)CC2)cc1 (3D coordinates assigned)
C=c1c(=Cc2c([O-])[n-]c(=O)[n-]c2=O)cc(C)n1-c1ccc(C(=O)N2CCN(CC=Cc3ccccc3)CC2)cc1 (nonaromatic ring conformer: 136.18156008166895 kcal/mol)

>  <smiles>  (14) 
C=c1c(=Cc2c(O)[nH]c(=O)[nH]c2=O)cc(C)n1-c1ccc(C(=O)N2CCN(CC=Cc3ccccc3)CC2)cc1

>  <score_type>  (14) 
oracle

>  <origin>  (14) 
adg

>  <m_score__min__energy>  (14) 
-16.969999999999999

>  <m_primary>  (14) 
energy

$$$$
14:0
     RDKit          3D

 49 51  0  0  0  0  0  0  0  0999 V2000
   53.7350   28.9790   54.6270 H   0  0  0  0  0  0  0  0  0  0  0  0
   54.2630   28.8550   53.6700 C   0  0  0  0  0  0  0  0  0  0  0  0
   55.6390   28.3340   53.6830 C   0  0  0  0  0  0  0  0  0  0  0  0
   55.8250   27.1070   53.9010 O   0  0  0  0  0  0  0  0  0  0  0  0
   56.7550   29.2030   53.4460 N   0  0  0  0  0  0  0  0  0  0  0  0
   57.2220   29.5910   52.1180 C   0  0  0  0  0  0  0  0  0  0  0  0
   58.3126   29.7314   52.1475 H   0  0  0  0  0  0  0  0  0  0  0  0
   56.9537   28.7956   51.4071 H   0  0  0  0  0  0  0  0  0  0  0  0
   56.5610   30.8970   51.6600 C   0  0  0  0  0  0  0  0  0  0  0  0
   56.9743   31.1704   50.6779 H   0  0  0  0  0  0  0  0  0  0  0  0
   55.4770   30.7140   51.6209 H   0  0  0  0  0  0  0  0  0  0  0  0
   56.7860   32.0710   52.6260 C   0  0  0  0  0  0  0  0  0  0  0  0
   56.3030   32.9702   52.2161 H   0  0  0  0  0  0  0  0  0  0  0  0
   56.3514   31.8068   53.6014 H   0  0  0  0  0  0  0  0  0  0  0  0
   58.2240   32.3410   52.8140 N   0  0  0  0  0  0  0  0  0  0  0  0
   58.4320   32.2810   53.8380 H   0  0  0  0  0  0  0  0  0  0  0  0
   58.6160   33.6890   52.3750 C   0  0  0  0  0  0  0  0  0  0  0  0
   57.7420   34.1937   51.9375 H   0  0  0  0  0  0  0  0  0  0  0  0
   58.9864   34.2487   53.2465 H   0  0  0  0  0  0  0  0  0  0  0  0
   59.7120   33.6210   51.3460 C   0  0  0  0  0  0  0  0  0  0  0  0
   61.0470   33.4370   51.7390 C   0  0  0  0  0  0  0  0  0  0  0  0
   61.2894   33.2982   52.8030 H   0  0  0  0  0  0  0  0  0  0  0  0
   62.0700   33.4290   50.7870 C   0  0  0  0  0  0  0  0  0  0  0  0
   63.1122   33.2762   51.1040 H   0  0  0  0  0  0  0  0  0  0  0  0
   61.7730   33.6150   49.4290 C   0  0  0  0  0  0  0  0  0  0  0  0
   62.7940   33.6190   48.4670 C   0  0  0  0  0  0  0  0  0  0  0  0
   63.8390   33.4677   48.7753 H   0  0  0  0  0  0  0  0  0  0  0  0
   62.4860   33.8150   47.1160 C   0  0  0  0  0  0  0  0  0  0  0  0
   63.5010   33.8190   46.1670 O   0  0  0  0  0  0  0  0  0  0  0  0
   61.1600   34.0070   46.7200 C   0  0  0  0  0  0  0  0  0  0  0  0
   60.9229   34.1628   45.6572 H   0  0  0  0  0  0  0  0  0  0  0  0
   60.1340   34.0020   47.6680 C   0  0  0  0  0  0  0  0  0  0  0  0
   59.0923   34.1545   47.3492 H   0  0  0  0  0  0  0  0  0  0  0  0
   60.4280   33.8030   49.0260 C   0  0  0  0  0  0  0  0  0  0  0  0
   59.4070   33.7980   49.9870 C   0  0  0  0  0  0  0  0  0  0  0  0
   58.3611   33.9335   49.6744 H   0  0  0  0  0  0  0  0  0  0  0  0
   53.6290   29.1840   52.5370 C   0  0  0  0  0  0  0  0  0  0  0  0
   53.7971   28.5712   51.6391 H   0  0  0  0  0  0  0  0  0  0  0  0
   52.7110   30.3410   52.4480 C   0  0  0  0  0  0  0  0  0  0  0  0
   52.2090   30.8900   53.6390 C   0  0  0  0  0  0  0  0  0  0  0  0
   52.5040   30.4567   54.6061 H   0  0  0  0  0  0  0  0  0  0  0  0
   51.3380   31.9820   53.6060 C   0  0  0  0  0  0  0  0  0  0  0  0
   50.9578   32.4095   54.5455 H   0  0  0  0  0  0  0  0  0  0  0  0
   50.9490   32.5320   52.3820 C   0  0  0  0  0  0  0  0  0  0  0  0
   50.0870   33.6210   52.3570 O   0  0  0  0  0  0  0  0  0  0  0  0
   51.4240   31.9820   51.1850 C   0  0  0  0  0  0  0  0  0  0  0  0
   51.0240   32.5230   49.9690 O   0  0  0  0  0  0  0  0  0  0  0  0
   52.2950   30.8840   51.2120 C   0  0  0  0  0  0  0  0  0  0  0  0
   52.7150   30.3240   50.0090 O   0  0  0  0  0  0  0  0  0  0  0  0
  1  2  1  0
  2  3  1  0
  3  4  2  0
  3  5  1  0
  5  6  1  0
  6  7  1  0
  6  8  1  0
  6  9  1  0
  9 10  1  0
  9 11  1  0
  9 12  1  0
 12 13  1  0
 12 14  1  0
 12 15  1  0
 15 16  1  0
 15 17  1  0
 17 18  1  0
 17 19  1  0
 17 20  1  0
 20 21  2  0
 21 22  1  0
 21 23  1  0
 23 24  1  0
 23 25  2  0
 25 26  1  0
 26 27  1  0
 26 28  2  0
 28 29  1  0
 28 30  1  0
 30 31  1  0
 30 32  2  0
 32 33  1  0
 32 34  1  0
 34 35  2  0
 35 36  1  0
  2 37  2  0
 37 38  1  0
 37 39  1  0
 39 40  2  0
 40 41  1  0
 40 42  1  0
 42 43  1  0
 42 44  2  0
 44 45  1  0
 44 46  1  0
 46 47  1  0
 46 48  2  0
 48 49  1  0
 35 20  1  0
 48 39  1  0
 34 25  1  0
M  CHG  5   5  -1  29  -1  45  -1  47  -1  49  -1
M  END
>  <UniqueID>  (15) 
14

>  <SMILES>  (15) 
O=C(/C=C/c1ccc([O-])c([O-])c1[O-])[N-]CCCNCc1ccc2cc([O-])ccc2c1

>  <Energy>  (15) 
52.49861791171206

>  <Genealogy>  (15) 
O=C(C=Cc1ccc([O-])c([O-])c1[O-])[N-]CCCNCc1ccc2cc([O-])ccc2c1 (protonated)
O=C(/C=C/c1ccc([O-])c([O-])c1[O-])[N-]CCCNCc1ccc2cc([O-])ccc2c1 (cis-trans isomerization)
O=C(/C=C/c1ccc([O-])c([O-])c1[O-])[N-]CCCNCc1ccc2cc([O-])ccc2c1 (3D coordinates assigned)
O=C(/C=C/c1ccc([O-])c([O-])c1[O-])[N-]CCCNCc1ccc2cc([O-])ccc2c1 (optimized conformer: 52.49861791171206 kcal/mol)

>  <smiles>  (15) 
O=C(C=Cc1ccc(O)c(O)c1O)NCCCNCc1ccc2cc(O)ccc2c1

>  <score_type>  (15) 
oracle

>  <origin>  (15) 
adg

>  <m_score__min__energy>  (15) 
-20.02

>  <m_primary>  (15) 
energy

$$$$
15:0
     RDKit          3D

 44 46  0  0  1  0  0  0  0  0999 V2000
   56.4030   20.8510   43.1040 N   0  0  0  0  0  0  0  0  0  0  0  0
   57.1910   24.2140   43.6660 C   0  0  0  0  0  0  0  0  0  0  0  0
   57.4220   21.7690   44.9490 C   0  0  0  0  0  0  0  0  0  0  0  0
   57.8850   22.9450   45.5380 C   0  0  0  0  0  0  0  0  0  0  0  0
   57.7600   24.1360   44.8880 N   0  0  0  0  0  0  0  0  0  0  0  0
   58.2540   25.2970   45.5500 C   0  0  1  0  0  0  0  0  0  0  0  0
   58.7060   26.2910   44.6980 O   0  0  0  0  0  0  0  0  0  0  0  0
   59.0940   27.2700   45.6300 C   0  0  1  0  0  0  0  0  0  0  0  0
   59.2220   28.6190   45.0210 C   0  0  0  0  0  0  0  0  0  0  0  0
   58.3010   29.5290   45.3900 C   0  0  0  0  0  0  0  0  0  0  0  0
   57.0960   29.6310   44.5240 C   0  0  0  0  0  0  0  0  0  0  0  0
   57.0180   31.2620   43.7700 S   0  0  0  0  0  0  0  0  0  0  0  0
   57.7280   32.5330   44.7710 C   0  0  0  0  0  0  0  0  0  0  0  0
   57.5380   32.6720   46.1210 C   0  0  0  0  0  0  0  0  0  0  0  0
   58.1230   33.6800   46.8640 C   0  0  0  0  0  0  0  0  0  0  0  0
   58.9310   34.5930   46.2420 C   0  0  0  0  0  0  0  0  0  0  0  0
   59.1520   34.4900   44.8710 C   0  0  0  0  0  0  0  0  0  0  0  0
   58.5470   33.4620   44.1550 C   0  0  0  0  0  0  0  0  0  0  0  0
   57.9980   27.3240   46.6590 C   0  0  2  0  0  0  0  0  0  0  0  0
   58.5600   27.2180   47.9270 O   0  0  0  0  0  0  0  0  0  0  0  0
   57.2230   26.0450   46.3650 C   0  0  1  0  0  0  0  0  0  0  0  0
   56.1110   26.4290   45.6390 O   0  0  0  0  0  0  0  0  0  0  0  0
   56.8490   21.9050   43.7000 C   0  0  0  0  0  0  0  0  0  0  0  0
   57.0660   25.2970   43.0480 O   0  0  0  0  0  0  0  0  0  0  0  0
   56.7380   23.0920   43.0780 N   0  0  0  0  0  0  0  0  0  0  0  0
   56.8560   19.9170   43.2000 H   0  0  0  0  0  0  0  0  0  0  0  0
   57.5079   20.7928   45.4487 H   0  0  0  0  0  0  0  0  0  0  0  0
   58.3536   22.9111   46.5326 H   0  0  0  0  0  0  0  0  0  0  0  0
   59.0492   24.8468   46.1624 H   0  0  0  0  0  0  0  0  0  0  0  0
   60.0771   27.0047   46.0461 H   0  0  0  0  0  0  0  0  0  0  0  0
   60.0244   28.8608   44.3085 H   0  0  0  0  0  0  0  0  0  0  0  0
   58.4321   30.1608   46.2808 H   0  0  0  0  0  0  0  0  0  0  0  0
   57.1488   28.8667   43.7346 H   0  0  0  0  0  0  0  0  0  0  0  0
   56.1962   29.4725   45.1365 H   0  0  0  0  0  0  0  0  0  0  0  0
   56.8902   31.9481   46.6370 H   0  0  0  0  0  0  0  0  0  0  0  0
   57.9406   33.7479   47.9466 H   0  0  0  0  0  0  0  0  0  0  0  0
   59.4019   35.4015   46.8204 H   0  0  0  0  0  0  0  0  0  0  0  0
   59.8000   35.2159   44.3580 H   0  0  0  0  0  0  0  0  0  0  0  0
   58.7244   33.3861   43.0720 H   0  0  0  0  0  0  0  0  0  0  0  0
   57.3949   28.2433   46.6255 H   0  0  0  0  0  0  0  0  0  0  0  0
   59.5080   26.9460   47.8990 H   0  0  0  0  0  0  0  0  0  0  0  0
   56.8500   25.4435   47.2071 H   0  0  0  0  0  0  0  0  0  0  0  0
   56.2640   26.5120   44.6680 H   0  0  0  0  0  0  0  0  0  0  0  0
   56.3010   23.1670   42.1340 H   0  0  0  0  0  0  0  0  0  0  0  0
  1  2  2  3
  2  3  1  0
  3  4  2  0
  4  5  1  0
  5  6  1  0
  6  7  1  0
  7  8  1  0
  8  9  1  0
  9 10  2  0
 10 11  1  0
 11 12  1  0
 12 13  1  0
 13 14  2  0
 14 15  1  0
 15 16  2  0
 16 17  1  0
 17 18  2  0
  8 19  1  0
 19 20  1  0
 19 21  1  0
 21 22  1  0
  5 23  1  0
 23 24  2  0
 23 25  1  0
 25  2  1  0
 21  6  1  0
 18 13  1  0
  1 26  1  0
  3 27  1  0
  4 28  1  0
  6 29  1  1
  8 30  1  1
  9 31  1  0
 10 32  1  0
 11 33  1  0
 11 34  1  0
 14 35  1  0
 15 36  1  0
 16 37  1  0
 17 38  1  0
 18 39  1  0
 19 40  1  1
 20 41  1  0
 21 42  1  1
 22 43  1  0
 25 44  1  0
M  END
>  <smiles>  (16) 
N=c1ccn(C2OC(C=CCSc3ccccc3)C(O)C2O)c(=O)[nH]1

>  <score_type>  (16) 
oracle

>  <origin>  (16) 
adg

>  <m_score__min__energy>  (16) 
-8.8499999999999996

>  <m_primary>  (16) 
energy

$$$$
16:0
     RDKit          3D

 71 76  0  0  1  0  0  0  0  0999 V2000
   58.9280   27.4940   43.4520 C   0  0  0  0  0  0  0  0  0  0  0  0
   57.5620   27.8820   43.6280 N   0  0  0  0  0  0  0  0  0  0  0  0
   57.0080   28.6690   42.5960 C   0  0  0  0  0  0  0  0  0  0  0  0
   56.6130   30.0660   42.9800 C   0  0  0  0  0  0  0  0  0  0  0  0
   56.8720   30.3460   44.3830 N   0  0  0  0  0  0  0  0  0  0  0  0
   57.5150   31.5400   44.8240 C   0  0  0  0  0  0  0  0  0  0  0  0
   57.8340   32.4520   43.8220 C   0  0  0  0  0  0  0  0  0  0  0  0
   58.4480   33.6580   44.0840 C   0  0  0  0  0  0  0  0  0  0  0  0
   58.7310   33.9050   45.4310 C   0  0  0  0  0  0  0  0  0  0  0  0
   59.3300   35.0580   45.7790 N   0  0  0  0  0  0  0  0  0  0  0  0
   59.6290   35.3630   47.0480 C   0  0  0  0  0  0  0  0  0  0  0  0
   59.3170   34.4720   48.0330 N   0  0  0  0  0  0  0  0  0  0  0  0
   58.7140   33.3090   47.6970 C   0  0  0  0  0  0  0  0  0  0  0  0
   58.4230   32.5040   48.6250 N   0  0  0  0  0  0  0  0  0  0  0  0
   59.0530   32.4310   49.8920 C   0  0  0  0  0  0  0  0  0  0  0  0
   58.4190   32.7060   51.0870 C   0  0  0  0  0  0  0  0  0  0  0  0
   59.0910   32.5840   52.2900 C   0  0  0  0  0  0  0  0  0  0  0  0
   60.4130   32.1850   52.3170 C   0  0  0  0  0  0  0  0  0  0  0  0
   61.0630   31.9070   51.1400 C   0  0  0  0  0  0  0  0  0  0  0  0
   60.3910   32.0260   49.9150 C   0  0  0  0  0  0  0  0  0  0  0  0
   61.2160   31.6700   48.4000 S   0  0  0  0  0  0  0  0  0  0  0  0
   60.8260   30.0900   47.7040 C   0  0  0  0  0  0  0  0  0  0  0  0
   60.9110   29.8140   46.3750 C   0  0  0  0  0  0  0  0  0  0  0  0
   60.6010   28.5710   45.8790 C   0  0  0  0  0  0  0  0  0  0  0  0
   60.1790   27.5100   46.7080 C   0  0  0  0  0  0  0  0  0  0  0  0
   59.9090   26.2690   46.1160 N   0  0  0  0  0  0  0  0  0  0  0  0
   58.8110   25.4260   46.1600 C   0  0  0  0  0  0  0  0  0  0  0  0
   57.3940   25.6330   46.9190 S   0  0  0  0  0  0  0  0  0  0  0  0
   58.9120   24.1810   45.4040 N   0  0  0  0  0  0  0  0  0  0  0  0
   57.8440   23.2450   45.3850 C   0  0  0  0  0  0  0  0  0  0  0  0
   57.9260   22.0070   45.9840 C   0  0  0  0  0  0  0  0  0  0  0  0
   56.8300   21.1450   45.9090 C   0  0  0  0  0  0  0  0  0  0  0  0
   55.6800   21.5410   45.2370 C   0  0  0  0  0  0  0  0  0  0  0  0
   55.5890   22.7910   44.6280 C   0  0  0  0  0  0  0  0  0  0  0  0
   56.6840   23.6410   44.7090 C   0  0  0  0  0  0  0  0  0  0  0  0
   60.1040   27.8220   48.0400 C   0  0  0  0  0  0  0  0  0  0  0  0
   59.7380   26.9150   48.9590 F   0  0  0  0  0  0  0  0  0  0  0  0
   60.4200   29.0890   48.5470 C   0  0  0  0  0  0  0  0  0  0  0  0
   58.4000   32.9780   46.3950 C   0  0  0  0  0  0  0  0  0  0  0  0
   57.7960   31.8010   46.1090 N   0  0  0  0  0  0  0  0  0  0  0  0
   56.4430   29.3020   45.3260 C   0  0  0  0  0  0  0  0  0  0  0  0
   57.0690   27.9860   44.9400 C   0  0  0  0  0  0  0  0  0  0  0  0
   59.4007   27.3597   44.4361 H   0  0  0  0  0  0  0  0  0  0  0  0
   58.9713   26.5480   42.8923 H   0  0  0  0  0  0  0  0  0  0  0  0
   59.4621   28.2760   42.8923 H   0  0  0  0  0  0  0  0  0  0  0  0
   57.7515   28.7384   41.7883 H   0  0  0  0  0  0  0  0  0  0  0  0
   56.0753   28.1645   42.3033 H   0  0  0  0  0  0  0  0  0  0  0  0
   57.1851   30.7770   42.3658 H   0  0  0  0  0  0  0  0  0  0  0  0
   55.5311   30.1688   42.8102 H   0  0  0  0  0  0  0  0  0  0  0  0
   57.5864   32.2004   42.7802 H   0  0  0  0  0  0  0  0  0  0  0  0
   58.6979   34.3760   43.2890 H   0  0  0  0  0  0  0  0  0  0  0  0
   60.1186   36.3172   47.2926 H   0  0  0  0  0  0  0  0  0  0  0  0
   59.5440   34.6980   49.0260 H   0  0  0  0  0  0  0  0  0  0  0  0
   57.3666   33.0261   51.0826 H   0  0  0  0  0  0  0  0  0  0  0  0
   58.5686   32.8064   53.2321 H   0  0  0  0  0  0  0  0  0  0  0  0
   60.9424   32.0904   53.2766 H   0  0  0  0  0  0  0  0  0  0  0  0
   62.1160   31.5894   51.1581 H   0  0  0  0  0  0  0  0  0  0  0  0
   61.2353   30.6039   45.6816 H   0  0  0  0  0  0  0  0  0  0  0  0
   60.6848   28.3965   44.7962 H   0  0  0  0  0  0  0  0  0  0  0  0
   60.7300   25.8940   45.5050 H   0  0  0  0  0  0  0  0  0  0  0  0
   59.7710   23.9490   44.8620 H   0  0  0  0  0  0  0  0  0  0  0  0
   58.8409   21.7023   46.5133 H   0  0  0  0  0  0  0  0  0  0  0  0
   56.8770   20.1529   46.3817 H   0  0  0  0  0  0  0  0  0  0  0  0
   54.8233   20.8531   45.1847 H   0  0  0  0  0  0  0  0  0  0  0  0
   54.6748   23.0960   44.0976 H   0  0  0  0  0  0  0  0  0  0  0  0
   56.6395   24.6340   44.2379 H   0  0  0  0  0  0  0  0  0  0  0  0
   60.3418   29.2813   49.6272 H   0  0  0  0  0  0  0  0  0  0  0  0
   56.7605   29.5743   46.3434 H   0  0  0  0  0  0  0  0  0  0  0  0
   55.3474   29.2091   45.2955 H   0  0  0  0  0  0  0  0  0  0  0  0
   57.9082   27.8019   45.6269 H   0  0  0  0  0  0  0  0  0  0  0  0
   56.2544   27.2494   45.0018 H   0  0  0  0  0  0  0  0  0  0  0  0
  1  2  1  0
  2  3  1  0
  3  4  1  0
  4  5  1  0
  5  6  1  0
  6  7  2  0
  7  8  1  0
  8  9  2  0
  9 10  1  0
 10 11  2  0
 11 12  1  0
 12 13  1  0
 13 14  2  0
 14 15  1  0
 15 16  2  0
 16 17  1  0
 17 18  2  0
 18 19  1  0
 19 20  2  0
 20 21  1  0
 21 22  1  0
 22 23  2  0
 23 24  1  0
 24 25  2  0
 25 26  1  0
 26 27  1  0
 27 28  2  0
 27 29  1  0
 29 30  1  0
 30 31  2  0
 31 32  1  0
 32 33  2  0
 33 34  1  0
 34 35  2  0
 25 36  1  0
 36 37  1  0
 36 38  2  0
 13 39  1  0
 39 40  2  0
  5 41  1  0
 41 42  1  0
 42  2  1  0
 40  6  1  0
 39  9  1  0
 20 15  1  0
 38 22  1  0
 35 30  1  0
  1 43  1  0
  1 44  1  0
  1 45  1  0
  3 46  1  0
  3 47  1  0
  4 48  1  0
  4 49  1  0
  7 50  1  0
  8 51  1  0
 11 52  1  0
 12 53  1  0
 16 54  1  0
 17 55  1  0
 18 56  1  0
 19 57  1  0
 23 58  1  0
 24 59  1  0
 26 60  1  0
 29 61  1  0
 31 62  1  0
 32 63  1  0
 33 64  1  0
 34 65  1  0
 35 66  1  0
 38 67  1  0
 41 68  1  0
 41 69  1  0
 42 70  1  0
 42 71  1  0
M  END
>  <smiles>  (17) 
CN1CCN(c2ccc3nc[nH]c(=Nc4ccccc4Sc4ccc(NC(=S)Nc5ccccc5)c(F)c4)c3n2)CC1

>  <score_type>  (17) 
oracle

>  <origin>  (17) 
adg

>  <m_score__min__energy>  (17) 
-10.699999999999999

>  <m_primary>  (17) 
energy

$$$$
17:0
     RDKit          3D

 55 57  0  0  0  0  0  0  0  0999 V2000
   58.2780   29.9100   53.6120 C   0  0  0  0  0  0  0  0  0  0  0  0
   58.5170   29.3400   52.2920 N   0  0  0  0  0  0  0  0  0  0  0  0
   58.5580   30.1520   51.1110 C   0  0  0  0  0  0  0  0  0  0  0  0
   58.3750   31.3980   51.1990 O   0  0  0  0  0  0  0  0  0  0  0  0
   58.8210   29.5400   49.8380 N   0  0  0  0  0  0  0  0  0  0  0  0
   58.8950   30.2650   48.6010 C   0  0  0  0  0  0  0  0  0  0  0  0
   58.5680   31.4830   48.5500 O   0  0  0  0  0  0  0  0  0  0  0  0
   59.3160   29.5710   47.3390 C   0  0  0  0  0  0  0  0  0  0  0  0
   58.8000   30.2700   46.1600 N   0  0  0  0  0  0  0  0  0  0  0  0
   58.9350   31.5720   45.9630 N   0  0  0  0  0  0  0  0  0  0  0  0
   58.4250   31.8800   44.7560 C   0  0  0  0  0  0  0  0  0  0  0  0
   58.4480   33.2490   44.1560 C   0  0  0  0  0  0  0  0  0  0  0  0
   57.8570   34.4840   45.3610 S   0  0  0  0  0  0  0  0  0  0  0  0
   59.2030   34.2270   46.5140 C   0  0  0  0  0  0  0  0  0  0  0  0
   60.4790   34.1080   46.0550 N   0  0  0  0  0  0  0  0  0  0  0  0
   61.5160   33.9180   46.9150 C   0  0  0  0  0  0  0  0  0  0  0  0
   62.9110   33.8020   46.3870 C   0  0  0  0  0  0  0  0  0  0  0  0
   61.2720   33.8560   48.2910 C   0  0  0  0  0  0  0  0  0  0  0  0
   59.9520   33.9640   48.7430 C   0  0  0  0  0  0  0  0  0  0  0  0
   59.6450   33.9130   50.2060 C   0  0  0  0  0  0  0  0  0  0  0  0
   58.9490   34.1520   47.8460 N   0  0  0  0  0  0  0  0  0  0  0  0
   57.9610   30.7280   44.1460 C   0  0  0  0  0  0  0  0  0  0  0  0
   58.2010   29.7280   45.0720 C   0  0  0  0  0  0  0  0  0  0  0  0
   57.9260   28.2960   44.8630 C   0  0  0  0  0  0  0  0  0  0  0  0
   58.2070   27.6880   43.6300 C   0  0  0  0  0  0  0  0  0  0  0  0
   57.9520   26.3260   43.4430 C   0  0  0  0  0  0  0  0  0  0  0  0
   57.4100   25.5570   44.4840 C   0  0  0  0  0  0  0  0  0  0  0  0
   57.1730   24.0890   44.2930 C   0  0  0  0  0  0  0  0  0  0  0  0
   57.1620   26.1600   45.7280 C   0  0  0  0  0  0  0  0  0  0  0  0
   57.4170   27.5210   45.9140 C   0  0  0  0  0  0  0  0  0  0  0  0
   58.5811   29.1872   54.3838 H   0  0  0  0  0  0  0  0  0  0  0  0
   58.8646   30.8338   53.7242 H   0  0  0  0  0  0  0  0  0  0  0  0
   57.2080   30.1392   53.7242 H   0  0  0  0  0  0  0  0  0  0  0  0
   58.6750   28.3090   52.2120 H   0  0  0  0  0  0  0  0  0  0  0  0
   58.9870   28.5100   49.8200 H   0  0  0  0  0  0  0  0  0  0  0  0
   60.4147   29.5467   47.2909 H   0  0  0  0  0  0  0  0  0  0  0  0
   58.9086   28.5493   47.3476 H   0  0  0  0  0  0  0  0  0  0  0  0
   59.3910   32.2350   46.6290 H   0  0  0  0  0  0  0  0  0  0  0  0
   59.4777   33.4969   43.8590 H   0  0  0  0  0  0  0  0  0  0  0  0
   57.7862   33.2638   43.2775 H   0  0  0  0  0  0  0  0  0  0  0  0
   63.6176   33.7432   47.2280 H   0  0  0  0  0  0  0  0  0  0  0  0
   62.9961   32.8937   45.7724 H   0  0  0  0  0  0  0  0  0  0  0  0
   63.1449   34.6838   45.7724 H   0  0  0  0  0  0  0  0  0  0  0  0
   62.1003   33.7251   49.0028 H   0  0  0  0  0  0  0  0  0  0  0  0
   60.5704   34.0667   50.7804 H   0  0  0  0  0  0  0  0  0  0  0  0
   58.9222   34.7034   50.4568 H   0  0  0  0  0  0  0  0  0  0  0  0
   59.2166   32.9314   50.4568 H   0  0  0  0  0  0  0  0  0  0  0  0
   57.5045   30.6293   43.1501 H   0  0  0  0  0  0  0  0  0  0  0  0
   58.6292   28.2847   42.8080 H   0  0  0  0  0  0  0  0  0  0  0  0
   58.1774   25.8550   42.4749 H   0  0  0  0  0  0  0  0  0  0  0  0
   57.0940   23.5995   45.2749 H   0  0  0  0  0  0  0  0  0  0  0  0
   56.2389   23.9383   43.7320 H   0  0  0  0  0  0  0  0  0  0  0  0
   58.0122   23.6520   43.7320 H   0  0  0  0  0  0  0  0  0  0  0  0
   56.7654   25.5583   46.5591 H   0  0  0  0  0  0  0  0  0  0  0  0
   57.2173   27.9867   46.8903 H   0  0  0  0  0  0  0  0  0  0  0  0
  1  2  1  0
  2  3  1  0
  3  4  2  0
  3  5  1  0
  5  6  1  0
  6  7  2  0
  6  8  1  0
  8  9  1  0
  9 10  1  0
 10 11  2  0
 11 12  1  0
 12 13  1  0
 13 14  1  0
 14 15  2  0
 15 16  1  0
 16 17  1  0
 16 18  2  0
 18 19  1  0
 19 20  1  0
 19 21  2  0
 11 22  1  0
 22 23  2  0
 23 24  1  0
 24 25  2  0
 25 26  1  0
 26 27  2  0
 27 28  1  0
 27 29  1  0
 29 30  2  0
 23  9  1  0
 30 24  1  0
 21 14  1  0
  1 31  1  0
  1 32  1  0
  1 33  1  0
  2 34  1  0
  5 35  1  0
  8 36  1  0
  8 37  1  0
 10 38  1  0
 12 39  1  0
 12 40  1  0
 17 41  1  0
 17 42  1  0
 17 43  1  0
 18 44  1  0
 20 45  1  0
 20 46  1  0
 20 47  1  0
 22 48  1  0
 25 49  1  0
 26 50  1  0
 28 51  1  0
 28 52  1  0
 28 53  1  0
 29 54  1  0
 30 55  1  0
M  CHG  1  10   1
M  END
>  <UniqueID>  (18) 
15

>  <SMILES>  (18) 
CNC(=O)NC(=O)Cn1[nH+]c(CSc2nc(C)cc(C)n2)cc1-c1ccc(C)cc1

>  <Energy>  (18) 
78.2861939656817

>  <Genealogy>  (18) 
CNC(=O)NC(=O)Cn1[nH+]c(CSc2nc(C)cc(C)n2)cc1-c1ccc(C)cc1 (protonated)
CNC(=O)NC(=O)Cn1[nH+]c(CSc2nc(C)cc(C)n2)cc1-c1ccc(C)cc1 (3D coordinates assigned)
CNC(=O)NC(=O)Cn1[nH+]c(CSc2nc(C)cc(C)n2)cc1-c1ccc(C)cc1 (optimized conformer: 78.2861939656817 kcal/mol)

>  <smiles>  (18) 
CNC(=O)NC(=O)Cn1nc(CSc2nc(C)cc(C)n2)cc1-c1ccc(C)cc1

>  <score_type>  (18) 
oracle

>  <origin>  (18) 
adg

>  <m_score__min__energy>  (18) 
-7.7999999999999998

>  <m_primary>  (18) 
energy

$$$$
18:0
     RDKit          3D

 54 56  0  0  0  0  0  0  0  0999 V2000
   58.4040   28.1810   49.0180 H   0  0  0  0  0  0  0  0  0  0  0  0
   58.4580   29.1870   48.9030 O   0  0  0  0  0  0  0  0  0  0  0  0
   59.6810   29.8440   48.7970 C   0  0  0  0  0  0  0  0  0  0  0  0
   60.1910   30.1540   47.5320 C   0  0  0  0  0  0  0  0  0  0  0  0
   59.6278   29.8720   46.6302 H   0  0  0  0  0  0  0  0  0  0  0  0
   61.4140   30.8210   47.4090 C   0  0  0  0  0  0  0  0  0  0  0  0
   61.8173   31.0456   46.4106 H   0  0  0  0  0  0  0  0  0  0  0  0
   62.1290   31.2050   48.5540 C   0  0  0  0  0  0  0  0  0  0  0  0
   63.4120   31.9240   48.3950 C   0  0  0  0  0  0  0  0  0  0  0  0
   64.1343   31.8593   49.2221 H   0  0  0  0  0  0  0  0  0  0  0  0
   63.7650   32.6490   47.3220 C   0  0  0  0  0  0  0  0  0  0  0  0
   64.6799   32.3481   46.7905 H   0  0  0  0  0  0  0  0  0  0  0  0
   63.0290   33.8180   46.7930 C   0  0  0  0  0  0  0  0  0  0  0  0
   63.6250   34.5780   45.9850 O   0  0  0  0  0  0  0  0  0  0  0  0
   61.6130   34.1030   47.1350 C   0  0  0  0  0  0  0  0  0  0  0  0
   61.2400   34.2930   48.4750 C   0  0  0  0  0  0  0  0  0  0  0  0
   62.0057   34.2740   49.2645 H   0  0  0  0  0  0  0  0  0  0  0  0
   59.9010   34.5060   48.8100 C   0  0  0  0  0  0  0  0  0  0  0  0
   59.6146   34.6389   49.8637 H   0  0  0  0  0  0  0  0  0  0  0  0
   58.9240   34.5510   47.8130 C   0  0  0  0  0  0  0  0  0  0  0  0
   57.8684   34.6972   48.0856 H   0  0  0  0  0  0  0  0  0  0  0  0
   59.2860   34.4100   46.4620 C   0  0  0  0  0  0  0  0  0  0  0  0
   58.3170   34.4280   45.4030 N   0  0  0  0  0  0  0  0  0  0  0  0
   57.8610   33.3110   44.6310 C   0  0  0  0  0  0  0  0  0  0  0  0
   58.4010   33.0180   43.5300 O   0  0  0  0  0  0  0  0  0  0  0  0
   56.7520   32.4550   45.1580 C   0  0  0  0  0  0  0  0  0  0  0  0
   55.8017   33.0024   45.0727 H   0  0  0  0  0  0  0  0  0  0  0  0
   56.9611   32.2145   46.2108 H   0  0  0  0  0  0  0  0  0  0  0  0
   56.6590   31.2370   44.4190 O   0  0  0  0  0  0  0  0  0  0  0  0
   57.3530   30.0530   44.7140 C   0  0  0  0  0  0  0  0  0  0  0  0
   58.7390   29.9120   44.5100 C   0  0  0  0  0  0  0  0  0  0  0  0
   59.3214   30.7547   44.1092 H   0  0  0  0  0  0  0  0  0  0  0  0
   59.3790   28.7070   44.8140 C   0  0  0  0  0  0  0  0  0  0  0  0
   60.4629   28.6079   44.6550 H   0  0  0  0  0  0  0  0  0  0  0  0
   58.6460   27.6230   45.3210 C   0  0  0  0  0  0  0  0  0  0  0  0
   59.3400   26.3360   45.6750 C   0  0  0  0  0  0  0  0  0  0  0  0
   60.0086   26.0473   44.8506 H   0  0  0  0  0  0  0  0  0  0  0  0
   58.5806   25.5575   45.8398 H   0  0  0  0  0  0  0  0  0  0  0  0
   60.1650   26.5020   46.9590 C   0  0  0  0  0  0  0  0  0  0  0  0
   60.8977   27.3093   46.8125 H   0  0  0  0  0  0  0  0  0  0  0  0
   60.6731   25.5497   47.1712 H   0  0  0  0  0  0  0  0  0  0  0  0
   59.3120   26.8340   48.0980 N   0  0  0  0  0  0  0  0  0  0  0  0
   58.4650   27.3400   47.7490 H   0  0  0  0  0  0  0  0  0  0  0  0
   59.8320   27.4860   48.7310 H   0  0  0  0  0  0  0  0  0  0  0  0
   57.2690   27.7700   45.5440 C   0  0  0  0  0  0  0  0  0  0  0  0
   56.6898   26.9333   45.9616 H   0  0  0  0  0  0  0  0  0  0  0  0
   56.6290   28.9750   45.2380 C   0  0  0  0  0  0  0  0  0  0  0  0
   55.5474   29.0770   45.4104 H   0  0  0  0  0  0  0  0  0  0  0  0
   60.6280   34.1780   46.1340 C   0  0  0  0  0  0  0  0  0  0  0  0
   60.9152   34.0528   45.0795 H   0  0  0  0  0  0  0  0  0  0  0  0
   61.6300   30.8610   49.8230 C   0  0  0  0  0  0  0  0  0  0  0  0
   62.2048   31.1172   50.7252 H   0  0  0  0  0  0  0  0  0  0  0  0
   60.4070   30.1950   49.9430 C   0  0  0  0  0  0  0  0  0  0  0  0
   60.0135   29.9458   50.9395 H   0  0  0  0  0  0  0  0  0  0  0  0
  1  2  1  0
  2  3  1  0
  3  4  2  0
  4  5  1  0
  4  6  1  0
  6  7  1  0
  6  8  2  0
  8  9  1  0
  9 10  1  0
  9 11  2  0
 11 12  1  0
 11 13  1  0
 13 14  2  0
 13 15  1  0
 15 16  2  0
 16 17  1  0
 16 18  1  0
 18 19  1  0
 18 20  2  0
 20 21  1  0
 20 22  1  0
 22 23  1  0
 23 24  1  0
 24 25  2  0
 24 26  1  0
 26 27  1  0
 26 28  1  0
 26 29  1  0
 29 30  1  0
 30 31  2  0
 31 32  1  0
 31 33  1  0
 33 34  1  0
 33 35  2  0
 35 36  1  0
 36 37  1  0
 36 38  1  0
 36 39  1  0
 39 40  1  0
 39 41  1  0
 39 42  1  0
 42 43  1  0
 42 44  1  0
 35 45  1  0
 45 46  1  0
 45 47  2  0
 47 48  1  0
 22 49  2  0
 49 50  1  0
  8 51  1  0
 51 52  1  0
 51 53  2  0
 53 54  1  0
 53  3  1  0
 49 15  1  0
 47 30  1  0
M  CHG  1  23  -1
M  END
>  <UniqueID>  (19) 
16

>  <SMILES>  (19) 
NCCc1ccc(OCC(=O)[N-]c2cccc(C(=O)/C=C\c3ccc(O)cc3)c2)cc1

>  <Energy>  (19) 
64.54491766218332

>  <Genealogy>  (19) 
NCCc1ccc(OCC(=O)[N-]c2cccc(C(=O)C=Cc3ccc(O)cc3)c2)cc1 (protonated)
NCCc1ccc(OCC(=O)[N-]c2cccc(C(=O)/C=C\c3ccc(O)cc3)c2)cc1 (cis-trans isomerization)
NCCc1ccc(OCC(=O)[N-]c2cccc(C(=O)/C=C\c3ccc(O)cc3)c2)cc1 (3D coordinates assigned)
NCCc1ccc(OCC(=O)[N-]c2cccc(C(=O)/C=C\c3ccc(O)cc3)c2)cc1 (optimized conformer: 64.54491766218332 kcal/mol)

>  <smiles>  (19) 
NCCc1ccc(OCC(=O)Nc2cccc(C(=O)C=Cc3ccc(O)cc3)c2)cc1

>  <score_type>  (19) 
oracle

>  <origin>  (19) 
adg

>  <m_score__min__energy>  (19) 
-10.529999999999999

>  <m_primary>  (19) 
energy

$$$$
19:0
     RDKit          3D

 63 67  0  0  0  0  0  0  0  0999 V2000
   60.2400   33.9800   46.1230 O   0  0  0  0  0  0  0  0  0  0  0  0
   59.2020   33.5710   46.7130 C   0  0  0  0  0  0  0  0  0  0  0  0
   58.8780   34.0350   48.0310 N   0  0  0  0  0  0  0  0  0  0  0  0
   59.2750   33.4430   49.2780 C   0  0  0  0  0  0  0  0  0  0  0  0
   60.4310   33.8520   49.9680 C   0  0  0  0  0  0  0  0  0  0  0  0
   60.7950   33.2250   51.1640 C   0  0  0  0  0  0  0  0  0  0  0  0
   60.0200   32.1790   51.6740 C   0  0  0  0  0  0  0  0  0  0  0  0
   58.8810   31.7530   50.9830 C   0  0  0  0  0  0  0  0  0  0  0  0
   57.9130   30.4350   51.6160 Cl  0  0  0  0  0  0  0  0  0  0  0  0
   58.5140   32.3800   49.7850 C   0  0  0  0  0  0  0  0  0  0  0  0
   58.2720   32.6200   46.0070 C   0  0  1  0  0  0  0  0  0  0  0  0
   57.5190   33.3520   44.8580 C   0  0  0  0  0  0  0  0  0  0  0  0
   58.1290   33.0580   43.4790 C   0  0  0  0  0  0  0  0  0  0  0  0
   58.1240   31.5480   43.1510 C   0  0  0  0  0  0  0  0  0  0  0  0
   58.1900   30.6590   44.4160 C   0  0  1  0  0  0  0  0  0  0  0  0
   58.7840   29.3510   44.1170 N   0  0  0  0  0  0  0  0  0  0  0  0
   58.6830   28.4200   45.2620 C   0  0  0  0  0  0  0  0  0  0  0  0
   58.6420   29.1130   46.6450 C   0  0  0  0  0  0  0  0  0  0  0  0
   59.3160   30.4170   46.6080 N   0  0  0  0  0  0  0  0  0  0  0  0
   60.3120   30.7540   47.5930 C   0  0  0  0  0  0  0  0  0  0  0  0
   60.2740   30.2010   48.7270 O   0  0  0  0  0  0  0  0  0  0  0  0
   61.3410   31.7120   47.2950 N   0  0  0  0  0  0  0  0  0  0  0  0
   62.4680   31.9640   48.1520 C   0  0  0  0  0  0  0  0  0  0  0  0
   63.4000   32.9460   47.7920 C   0  0  0  0  0  0  0  0  0  0  0  0
   64.5180   33.1920   48.5940 C   0  0  0  0  0  0  0  0  0  0  0  0
   64.7280   32.4470   49.7670 C   0  0  0  0  0  0  0  0  0  0  0  0
   65.8940   32.6880   50.5830 N   0  0  0  0  0  0  0  0  0  0  0  0
   66.1330   33.9590   51.0330 C   0  0  0  0  0  0  0  0  0  0  0  0
   67.2500   34.2390   51.8210 C   0  0  0  0  0  0  0  0  0  0  0  0
   68.1270   33.2100   52.1550 C   0  0  0  0  0  0  0  0  0  0  0  0
   67.8800   31.9160   51.6980 C   0  0  0  0  0  0  0  0  0  0  0  0
   66.7530   31.6650   50.9090 C   0  0  0  0  0  0  0  0  0  0  0  0
   66.5310   30.4870   50.5170 O   0  0  0  0  0  0  0  0  0  0  0  0
   63.8090   31.4430   50.1140 C   0  0  0  0  0  0  0  0  0  0  0  0
   62.6900   31.2000   49.3120 C   0  0  0  0  0  0  0  0  0  0  0  0
   59.0270   31.3530   45.5070 C   0  0  2  0  0  0  0  0  0  0  0  0
   61.0502   34.6672   49.5656 H   0  0  0  0  0  0  0  0  0  0  0  0
   61.6938   33.5558   51.7051 H   0  0  0  0  0  0  0  0  0  0  0  0
   60.3058   31.6916   52.6178 H   0  0  0  0  0  0  0  0  0  0  0  0
   57.6233   32.0362   49.2387 H   0  0  0  0  0  0  0  0  0  0  0  0
   57.5179   32.2687   46.7267 H   0  0  0  0  0  0  0  0  0  0  0  0
   56.4693   33.0231   44.8576 H   0  0  0  0  0  0  0  0  0  0  0  0
   57.6017   34.4340   45.0381 H   0  0  0  0  0  0  0  0  0  0  0  0
   57.5457   33.5894   42.7126 H   0  0  0  0  0  0  0  0  0  0  0  0
   59.1750   33.3983   43.4918 H   0  0  0  0  0  0  0  0  0  0  0  0
   57.2005   31.3106   42.6025 H   0  0  0  0  0  0  0  0  0  0  0  0
   59.0212   31.3367   42.5507 H   0  0  0  0  0  0  0  0  0  0  0  0
   57.1603   30.5071   44.7718 H   0  0  0  0  0  0  0  0  0  0  0  0
   58.2710   28.9240   43.3110 H   0  0  0  0  0  0  0  0  0  0  0  0
   57.7625   27.8292   45.1454 H   0  0  0  0  0  0  0  0  0  0  0  0
   59.5928   27.8019   45.2464 H   0  0  0  0  0  0  0  0  0  0  0  0
   57.5929   29.2601   46.9412 H   0  0  0  0  0  0  0  0  0  0  0  0
   59.1648   28.4722   47.3703 H   0  0  0  0  0  0  0  0  0  0  0  0
   61.2590   32.2840   46.4250 H   0  0  0  0  0  0  0  0  0  0  0  0
   63.2508   33.5282   46.8707 H   0  0  0  0  0  0  0  0  0  0  0  0
   65.2372   33.9728   48.3056 H   0  0  0  0  0  0  0  0  0  0  0  0
   65.4363   34.7687   50.7702 H   0  0  0  0  0  0  0  0  0  0  0  0
   67.4362   35.2636   52.1753 H   0  0  0  0  0  0  0  0  0  0  0  0
   69.0106   33.4171   52.7766 H   0  0  0  0  0  0  0  0  0  0  0  0
   68.5677   31.0973   51.9566 H   0  0  0  0  0  0  0  0  0  0  0  0
   63.9708   30.8442   51.0224 H   0  0  0  0  0  0  0  0  0  0  0  0
   61.9796   30.4074   49.5895 H   0  0  0  0  0  0  0  0  0  0  0  0
   59.9940   31.6693   45.0888 H   0  0  0  0  0  0  0  0  0  0  0  0
  1  2  2  0
  2  3  1  0
  3  4  1  0
  4  5  2  0
  5  6  1  0
  6  7  2  0
  7  8  1  0
  8  9  1  0
  8 10  2  0
  2 11  1  0
 11 12  1  0
 12 13  1  0
 13 14  1  0
 14 15  1  0
 15 16  1  0
 16 17  1  0
 17 18  1  0
 18 19  1  0
 19 20  1  0
 20 21  2  0
 20 22  1  0
 22 23  1  0
 23 24  2  0
 24 25  1  0
 25 26  2  0
 26 27  1  0
 27 28  1  0
 28 29  2  0
 29 30  1  0
 30 31  2  0
 31 32  1  0
 32 33  2  0
 26 34  1  0
 34 35  2  0
 19 36  1  0
 10  4  1  0
 36 11  1  0
 36 15  1  0
 35 23  1  0
 32 27  1  0
  5 37  1  0
  6 38  1  0
  7 39  1  0
 10 40  1  0
 11 41  1  1
 12 42  1  0
 12 43  1  0
 13 44  1  0
 13 45  1  0
 14 46  1  0
 14 47  1  0
 15 48  1  1
 16 49  1  0
 17 50  1  0
 17 51  1  0
 18 52  1  0
 18 53  1  0
 22 54  1  0
 24 55  1  0
 25 56  1  0
 28 57  1  0
 29 58  1  0
 30 59  1  0
 31 60  1  0
 34 61  1  0
 35 62  1  0
 36 63  1  6
M  CHG  1   3  -1
M  END
>  <UniqueID>  (20) 
17

>  <SMILES>  (20) 
O=C([N-]c1cccc(Cl)c1)[C@H]1CCC[C@H]2NCCN(C(=O)Nc3ccc(-n4ccccc4=O)cc3)C12

>  <Energy>  (20) 
93.8498753243052

>  <Genealogy>  (20) 
O=C([N-]c1cccc(Cl)c1)C1CCCC2NCCN(C(=O)Nc3ccc(-n4ccccc4=O)cc3)C21 (protonated)
O=C([N-]c1cccc(Cl)c1)[C@H]1CCC[C@H]2NCCN(C(=O)Nc3ccc(-n4ccccc4=O)cc3)C12 (chirality)
O=C([N-]c1cccc(Cl)c1)[C@H]1CCC[C@H]2NCCN(C(=O)Nc3ccc(-n4ccccc4=O)cc3)C12 (3D coordinates assigned)
O=C([N-]c1cccc(Cl)c1)[C@H]1CCC[C@H]2NCCN(C(=O)Nc3ccc(-n4ccccc4=O)cc3)C12 (nonaromatic ring conformer: 93.8498753243052 kcal/mol)

>  <smiles>  (20) 
O=C(Nc1cccc(Cl)c1)C1CCCC2NCCN(C(=O)Nc3ccc(-n4ccccc4=O)cc3)C21

>  <score_type>  (20) 
oracle

>  <origin>  (20) 
adg

>  <m_score__min__energy>  (20) 
-11

>  <m_primary>  (20) 
energy

$$$$
20:0
     RDKit          3D

 44 46  0  0  1  0  0  0  0  0999 V2000
   58.3430   21.3390   45.1730 N   0  0  0  0  0  0  0  0  0  0  0  0
   57.8730   22.4170   44.6770 C   0  0  0  0  0  0  0  0  0  0  0  0
   58.2510   23.6480   45.0630 N   0  0  0  0  0  0  0  0  0  0  0  0
   57.7500   24.7790   44.5340 C   0  0  0  0  0  0  0  0  0  0  0  0
   58.1940   25.9000   44.9900 N   0  0  0  0  0  0  0  0  0  0  0  0
   58.0770   27.0970   44.1770 C   0  0  0  0  0  0  0  0  0  0  0  0
   57.9730   26.8820   42.9480 O   0  0  0  0  0  0  0  0  0  0  0  0
   58.0920   28.3700   44.8680 C   0  0  2  0  0  0  0  0  0  0  0  0
   57.5460   29.4790   44.0320 C   0  0  0  0  0  0  0  0  0  0  0  0
   56.0940   29.4700   43.9330 C   0  0  0  0  0  0  0  0  0  0  0  0
   55.3940   29.4660   42.9080 O   0  0  0  0  0  0  0  0  0  0  0  0
   55.3750   29.4650   45.1550 O   0  0  0  0  0  0  0  0  0  0  0  0
   59.4570   28.8050   45.3530 C   0  0  0  0  0  0  0  0  0  0  0  0
   59.0290   29.7840   46.4190 C   0  0  0  0  0  0  0  0  0  0  0  0
   59.7940   30.9480   46.9400 C   0  0  0  0  0  0  0  0  0  0  0  0
   59.3560   32.2370   46.3300 C   0  0  0  0  0  0  0  0  0  0  0  0
   60.0840   33.3830   46.6040 C   0  0  0  0  0  0  0  0  0  0  0  0
   59.7130   34.6130   46.0570 C   0  0  0  0  0  0  0  0  0  0  0  0
   58.6090   34.6760   45.2360 C   0  0  0  0  0  0  0  0  0  0  0  0
   57.9130   33.5290   44.9870 C   0  0  0  0  0  0  0  0  0  0  0  0
   58.2320   32.2910   45.4970 C   0  0  0  0  0  0  0  0  0  0  0  0
   57.8430   29.4510   46.8360 N   0  0  0  0  0  0  0  0  0  0  0  0
   57.4250   28.3190   46.1370 O   0  0  0  0  0  0  0  0  0  0  0  0
   56.8210   24.6990   43.5670 N   0  0  0  0  0  0  0  0  0  0  0  0
   56.4060   23.4880   43.1430 C   0  0  0  0  0  0  0  0  0  0  0  0
   56.9190   22.3210   43.6850 C   0  0  0  0  0  0  0  0  0  0  0  0
   56.4840   21.0860   43.2390 O   0  0  0  0  0  0  0  0  0  0  0  0
   58.1920   20.3910   44.7690 H   0  0  0  0  0  0  0  0  0  0  0  0
   58.9860   23.6850   45.8290 H   0  0  0  0  0  0  0  0  0  0  0  0
   57.8589   30.4359   44.4753 H   0  0  0  0  0  0  0  0  0  0  0  0
   57.9408   29.3420   43.0145 H   0  0  0  0  0  0  0  0  0  0  0  0
   55.8690   29.7290   46.0160 H   0  0  0  0  0  0  0  0  0  0  0  0
   60.0327   27.9660   45.7709 H   0  0  0  0  0  0  0  0  0  0  0  0
   60.1262   29.2106   44.5799 H   0  0  0  0  0  0  0  0  0  0  0  0
   59.6503   31.0060   48.0290 H   0  0  0  0  0  0  0  0  0  0  0  0
   60.8521   30.7969   46.6798 H   0  0  0  0  0  0  0  0  0  0  0  0
   60.9648   33.3235   47.2602 H   0  0  0  0  0  0  0  0  0  0  0  0
   60.2949   35.5198   46.2789 H   0  0  0  0  0  0  0  0  0  0  0  0
   58.2948   35.6313   44.7902 H   0  0  0  0  0  0  0  0  0  0  0  0
   57.0329   33.5989   44.3309 H   0  0  0  0  0  0  0  0  0  0  0  0
   57.6378   31.3952   45.2635 H   0  0  0  0  0  0  0  0  0  0  0  0
   56.4310   25.5650   43.1570 H   0  0  0  0  0  0  0  0  0  0  0  0
   55.6451   23.4257   42.3511 H   0  0  0  0  0  0  0  0  0  0  0  0
   56.9970   20.2400   43.4590 H   0  0  0  0  0  0  0  0  0  0  0  0
  1  2  2  3
  2  3  1  0
  3  4  1  0
  4  5  2  0
  5  6  1  0
  6  7  2  0
  6  8  1  0
  8  9  1  6
  9 10  1  0
 10 11  2  0
 10 12  1  0
  8 13  1  0
 13 14  1  0
 14 15  1  0
 15 16  1  0
 16 17  2  0
 17 18  1  0
 18 19  2  0
 19 20  1  0
 20 21  2  0
 14 22  2  0
 22 23  1  0
  4 24  1  0
 24 25  1  0
 25 26  2  0
 26 27  1  0
 26  2  1  0
 23  8  1  0
 21 16  1  0
  1 28  1  0
  3 29  1  0
  9 30  1  0
  9 31  1  0
 12 32  1  0
 13 33  1  0
 13 34  1  0
 15 35  1  0
 15 36  1  0
 17 37  1  0
 18 38  1  0
 19 39  1  0
 20 40  1  0
 21 41  1  0
 24 42  1  0
 25 43  1  0
 27 44  1  0
M  END
>  <smiles>  (21) 
N=c1[nH]c(=NC(=O)C2(CC(=O)O)CC(Cc3ccccc3)=NO2)[nH]cc1O

>  <score_type>  (21) 
oracle

>  <origin>  (21) 
adg

>  <m_score__min__energy>  (21) 
-9.6899999999999995

>  <m_primary>  (21) 
energy

$$$$
21:0
     RDKit          3D

 58 60  0  0  0  0  0  0  0  0999 V2000
   61.5360   27.6190   51.6450 C   0  0  0  0  0  0  0  0  0  0  0  0
   60.9380   27.0580   50.4780 O   0  0  0  0  0  0  0  0  0  0  0  0
   60.4830   27.8060   49.3820 C   0  0  0  0  0  0  0  0  0  0  0  0
   60.5030   27.3080   48.0620 C   0  0  0  0  0  0  0  0  0  0  0  0
   60.0060   28.0810   47.0100 C   0  0  0  0  0  0  0  0  0  0  0  0
   59.4730   29.3560   47.2550 C   0  0  0  0  0  0  0  0  0  0  0  0
   58.9280   30.1010   46.2060 O   0  0  0  0  0  0  0  0  0  0  0  0
   59.4870   29.8810   48.5630 C   0  0  0  0  0  0  0  0  0  0  0  0
   58.8840   31.2310   48.8620 C   0  0  0  0  0  0  0  0  0  0  0  0
   59.4030   32.2420   47.9280 N   0  0  0  0  0  0  0  0  0  0  0  0
   58.5470   32.8510   46.9260 C   0  0  0  0  0  0  0  0  0  0  0  0
   57.3690   33.1900   47.2230 O   0  0  0  0  0  0  0  0  0  0  0  0
   59.0300   33.1270   45.5260 C   0  0  0  0  0  0  0  0  0  0  0  0
   58.0670   32.5600   44.5310 C   0  0  0  0  0  0  0  0  0  0  0  0
   57.9890   33.0650   43.3750 O   0  0  0  0  0  0  0  0  0  0  0  0
   57.2720   31.4640   44.8850 O   0  0  0  0  0  0  0  0  0  0  0  0
   56.8430   30.4920   43.9380 C   0  0  0  0  0  0  0  0  0  0  0  0
   56.0940   29.4080   44.6410 C   0  0  0  0  0  0  0  0  0  0  0  0
   54.8540   29.2810   44.4470 O   0  0  0  0  0  0  0  0  0  0  0  0
   56.7710   28.5890   45.6040 N   0  0  0  0  0  0  0  0  0  0  0  0
   56.9090   27.1580   45.5600 C   0  0  0  0  0  0  0  0  0  0  0  0
   56.1720   26.3390   46.4350 C   0  0  0  0  0  0  0  0  0  0  0  0
   56.2630   24.9470   46.3560 C   0  0  0  0  0  0  0  0  0  0  0  0
   57.0740   24.3510   45.3930 C   0  0  0  0  0  0  0  0  0  0  0  0
   57.1820   22.5990   45.2990 Cl  0  0  0  0  0  0  0  0  0  0  0  0
   57.7940   25.1470   44.4990 C   0  0  0  0  0  0  0  0  0  0  0  0
   57.7280   26.5540   44.5700 C   0  0  0  0  0  0  0  0  0  0  0  0
   58.4990   27.3410   43.6390 N   0  0  0  0  0  0  0  0  0  0  0  0
   58.4880   27.0950   42.4140 O   0  0  0  0  0  0  0  0  0  0  0  0
   59.1960   28.4440   44.0830 O   0  0  0  0  0  0  0  0  0  0  0  0
   60.8050   32.5500   47.9880 C   0  0  0  0  0  0  0  0  0  0  0  0
   61.2720   33.5260   48.8800 C   0  0  0  0  0  0  0  0  0  0  0  0
   62.6350   33.8410   48.9230 C   0  0  0  0  0  0  0  0  0  0  0  0
   63.5310   33.1930   48.0650 C   0  0  0  0  0  0  0  0  0  0  0  0
   63.0690   32.2200   47.1730 C   0  0  0  0  0  0  0  0  0  0  0  0
   61.7080   31.8980   47.1350 C   0  0  0  0  0  0  0  0  0  0  0  0
   59.9850   29.0930   49.6180 C   0  0  0  0  0  0  0  0  0  0  0  0
   61.0709   27.1826   52.5412 H   0  0  0  0  0  0  0  0  0  0  0  0
   62.6137   27.3985   51.6469 H   0  0  0  0  0  0  0  0  0  0  0  0
   61.3847   28.7085   51.6469 H   0  0  0  0  0  0  0  0  0  0  0  0
   60.9117   26.3068   47.8605 H   0  0  0  0  0  0  0  0  0  0  0  0
   60.0325   27.6879   45.9830 H   0  0  0  0  0  0  0  0  0  0  0  0
   58.2670   29.6910   45.5550 H   0  0  0  0  0  0  0  0  0  0  0  0
   57.7904   31.1703   48.7597 H   0  0  0  0  0  0  0  0  0  0  0  0
   59.1517   31.5222   49.8884 H   0  0  0  0  0  0  0  0  0  0  0  0
   59.1108   34.2138   45.3762 H   0  0  0  0  0  0  0  0  0  0  0  0
   60.0142   32.6565   45.3844 H   0  0  0  0  0  0  0  0  0  0  0  0
   56.1866   30.9687   43.1951 H   0  0  0  0  0  0  0  0  0  0  0  0
   57.7196   30.0624   43.4311 H   0  0  0  0  0  0  0  0  0  0  0  0
   55.5171   26.7995   47.1894 H   0  0  0  0  0  0  0  0  0  0  0  0
   55.6923   24.3197   47.0566 H   0  0  0  0  0  0  0  0  0  0  0  0
   58.4201   24.6706   43.7302 H   0  0  0  0  0  0  0  0  0  0  0  0
   60.5667   34.0443   49.5463 H   0  0  0  0  0  0  0  0  0  0  0  0
   63.0022   34.5982   49.6314 H   0  0  0  0  0  0  0  0  0  0  0  0
   64.6003   33.4494   48.0923 H   0  0  0  0  0  0  0  0  0  0  0  0
   63.7748   31.7085   46.5021 H   0  0  0  0  0  0  0  0  0  0  0  0
   61.3450   31.1316   46.4344 H   0  0  0  0  0  0  0  0  0  0  0  0
   59.9828   29.4942   50.6422 H   0  0  0  0  0  0  0  0  0  0  0  0
  1  2  1  0
  2  3  1  0
  3  4  2  0
  4  5  1  0
  5  6  2  0
  6  7  1  0
  6  8  1  0
  8  9  1  0
  9 10  1  0
 10 11  1  0
 11 12  2  0
 11 13  1  0
 13 14  1  0
 14 15  2  0
 14 16  1  0
 16 17  1  0
 17 18  1  0
 18 19  2  0
 18 20  1  0
 20 21  1  0
 21 22  2  0
 22 23  1  0
 23 24  2  0
 24 25  1  0
 24 26  1  0
 26 27  2  0
 27 28  1  0
 28 29  2  0
 28 30  1  0
 10 31  1  0
 31 32  2  0
 32 33  1  0
 33 34  2  0
 34 35  1  0
 35 36  2  0
  8 37  2  0
 37  3  1  0
 27 21  1  0
 36 31  1  0
  1 38  1  0
  1 39  1  0
  1 40  1  0
  4 41  1  0
  5 42  1  0
  7 43  1  0
  9 44  1  0
  9 45  1  0
 13 46  1  0
 13 47  1  0
 17 48  1  0
 17 49  1  0
 22 50  1  0
 23 51  1  0
 26 52  1  0
 32 53  1  0
 33 54  1  0
 34 55  1  0
 35 56  1  0
 36 57  1  0
 37 58  1  0
M  CHG  3  20  -1  28   1  30  -1
M  END
>  <UniqueID>  (22) 
18

>  <SMILES>  (22) 
COc1ccc(O)c(CN(C(=O)CC(=O)OCC(=O)[N-]c2ccc(Cl)cc2[N+](=O)[O-])c2ccccc2)c1

>  <Energy>  (22) 
60.583027066513424

>  <Genealogy>  (22) 
COc1ccc(O)c(CN(C(=O)CC(=O)OCC(=O)[N-]c2ccc(Cl)cc2[N+](=O)[O-])c2ccccc2)c1 (protonated)
COc1ccc(O)c(CN(C(=O)CC(=O)OCC(=O)[N-]c2ccc(Cl)cc2[N+](=O)[O-])c2ccccc2)c1 (3D coordinates assigned)
COc1ccc(O)c(CN(C(=O)CC(=O)OCC(=O)[N-]c2ccc(Cl)cc2[N+](=O)[O-])c2ccccc2)c1 (optimized conformer: 60.583027066513424 kcal/mol)

>  <smiles>  (22) 
COc1ccc(O)c(CN(C(=O)CC(=O)OCC(=O)Nc2ccc(Cl)cc2[N+](=O)[O-])c2ccccc2)c1

>  <score_type>  (22) 
oracle

>  <origin>  (22) 
adg

>  <m_score__min__energy>  (22) 
-11.359999999999999

>  <m_primary>  (22) 
energy

$$$$
22:0
     RDKit          3D

 54 57  0  0  0  0  0  0  0  0999 V2000
   56.1970   29.3710   44.6410 C   0  0  0  0  0  0  0  0  0  0  0  0
   57.3050   28.9570   45.5880 C   0  0  0  0  0  0  0  0  0  0  0  0
   57.3960   27.6070   45.9870 C   0  0  0  0  0  0  0  0  0  0  0  0
   56.4850   26.6700   45.4750 O   0  0  0  0  0  0  0  0  0  0  0  0
   56.3400   25.3600   45.9530 C   0  0  0  0  0  0  0  0  0  0  0  0
   55.8940   25.1560   47.1150 O   0  0  0  0  0  0  0  0  0  0  0  0
   56.6660   24.2180   45.0720 C   0  0  0  0  0  0  0  0  0  0  0  0
   55.8990   23.9700   43.9180 C   0  0  0  0  0  0  0  0  0  0  0  0
   56.2060   22.8910   43.0830 C   0  0  0  0  0  0  0  0  0  0  0  0
   57.2790   22.0520   43.3880 C   0  0  0  0  0  0  0  0  0  0  0  0
   58.0480   22.2880   44.5290 C   0  0  0  0  0  0  0  0  0  0  0  0
   57.7460   23.3650   45.3690 C   0  0  0  0  0  0  0  0  0  0  0  0
   58.4240   27.2190   46.8590 C   0  0  0  0  0  0  0  0  0  0  0  0
   58.5670   26.0110   47.1880 O   0  0  0  0  0  0  0  0  0  0  0  0
   59.3170   28.1670   47.3430 C   0  0  0  0  0  0  0  0  0  0  0  0
   59.2210   29.4970   46.9240 C   0  0  0  0  0  0  0  0  0  0  0  0
   60.2260   30.4610   47.4330 C   0  0  0  0  0  0  0  0  0  0  0  0
   61.4280   30.6690   46.7390 C   0  0  0  0  0  0  0  0  0  0  0  0
   62.3590   31.5990   47.2080 C   0  0  0  0  0  0  0  0  0  0  0  0
   62.1070   32.3190   48.3830 C   0  0  0  0  0  0  0  0  0  0  0  0
   63.2680   33.5120   48.9540 S   0  0  0  0  0  0  0  0  0  0  0  0
   64.6260   32.6810   49.7440 C   0  0  0  0  0  0  0  0  0  0  0  0
   62.6050   34.4390   49.9340 O   0  0  0  0  0  0  0  0  0  0  0  0
   63.7790   34.3220   47.7950 O   0  0  0  0  0  0  0  0  0  0  0  0
   60.9130   32.1060   49.0830 C   0  0  0  0  0  0  0  0  0  0  0  0
   59.9790   31.1770   48.6140 C   0  0  0  0  0  0  0  0  0  0  0  0
   58.2270   29.8770   46.0480 N   0  0  0  0  0  0  0  0  0  0  0  0
   58.1280   31.2580   45.6430 C   0  0  0  0  0  0  0  0  0  0  0  0
   57.7760   32.2450   46.5780 C   0  0  0  0  0  0  0  0  0  0  0  0
   57.7070   33.5860   46.1920 C   0  0  0  0  0  0  0  0  0  0  0  0
   57.9870   33.9510   44.8710 C   0  0  0  0  0  0  0  0  0  0  0  0
   57.9210   35.2520   44.4990 F   0  0  0  0  0  0  0  0  0  0  0  0
   58.3370   32.9720   43.9350 C   0  0  0  0  0  0  0  0  0  0  0  0
   58.4080   31.6300   44.3180 C   0  0  0  0  0  0  0  0  0  0  0  0
   55.3217   29.6981   45.2214 H   0  0  0  0  0  0  0  0  0  0  0  0
   56.5468   30.1991   44.0070 H   0  0  0  0  0  0  0  0  0  0  0  0
   55.9181   28.5164   44.0070 H   0  0  0  0  0  0  0  0  0  0  0  0
   55.0532   24.6287   43.6716 H   0  0  0  0  0  0  0  0  0  0  0  0
   55.6006   22.7031   42.1840 H   0  0  0  0  0  0  0  0  0  0  0  0
   57.5188   21.2045   42.7290 H   0  0  0  0  0  0  0  0  0  0  0  0
   58.8931   21.6257   44.7680 H   0  0  0  0  0  0  0  0  0  0  0  0
   58.3556   23.5465   46.2665 H   0  0  0  0  0  0  0  0  0  0  0  0
   60.1001   27.8707   48.0564 H   0  0  0  0  0  0  0  0  0  0  0  0
   61.6377   30.0978   45.8226 H   0  0  0  0  0  0  0  0  0  0  0  0
   63.2935   31.7666   46.6525 H   0  0  0  0  0  0  0  0  0  0  0  0
   64.5130   32.7502   50.8360 H   0  0  0  0  0  0  0  0  0  0  0  0
   64.6340   31.6232   49.4425 H   0  0  0  0  0  0  0  0  0  0  0  0
   65.5716   33.1553   49.4425 H   0  0  0  0  0  0  0  0  0  0  0  0
   60.7092   32.6711   50.0045 H   0  0  0  0  0  0  0  0  0  0  0  0
   59.0471   31.0069   49.1731 H   0  0  0  0  0  0  0  0  0  0  0  0
   57.5540   31.9614   47.6174 H   0  0  0  0  0  0  0  0  0  0  0  0
   57.4321   34.3559   46.9280 H   0  0  0  0  0  0  0  0  0  0  0  0
   58.5566   33.2590   42.8961 H   0  0  0  0  0  0  0  0  0  0  0  0
   58.6840   30.8628   43.5796 H   0  0  0  0  0  0  0  0  0  0  0  0
  1  2  1  0
  2  3  2  0
  3  4  1  0
  4  5  1  0
  5  6  2  0
  5  7  1  0
  7  8  2  0
  8  9  1  0
  9 10  2  0
 10 11  1  0
 11 12  2  0
  3 13  1  0
 13 14  2  0
 13 15  1  0
 15 16  2  0
 16 17  1  0
 17 18  2  0
 18 19  1  0
 19 20  2  0
 20 21  1  0
 21 22  1  0
 21 23  2  0
 21 24  2  0
 20 25  1  0
 25 26  2  0
 16 27  1  0
 27 28  1  0
 28 29  2  0
 29 30  1  0
 30 31  2  0
 31 32  1  0
 31 33  1  0
 33 34  2  0
 27  2  1  0
 34 28  1  0
 12  7  1  0
 26 17  1  0
  1 35  1  0
  1 36  1  0
  1 37  1  0
  8 38  1  0
  9 39  1  0
 10 40  1  0
 11 41  1  0
 12 42  1  0
 15 43  1  0
 18 44  1  0
 19 45  1  0
 22 46  1  0
 22 47  1  0
 22 48  1  0
 25 49  1  0
 26 50  1  0
 29 51  1  0
 30 52  1  0
 33 53  1  0
 34 54  1  0
M  END
>  <UniqueID>  (23) 
19

>  <SMILES>  (23) 
Cc1c(OC(=O)c2ccccc2)c(=O)cc(-c2ccc(S(C)(=O)=O)cc2)n1-c1ccc(F)cc1

>  <Energy>  (23) 
80.62780426731524

>  <Genealogy>  (23) 
Cc1c(OC(=O)c2ccccc2)c(=O)cc(-c2ccc(S(C)(=O)=O)cc2)n1-c1ccc(F)cc1 (3D coordinates assigned)
Cc1c(OC(=O)c2ccccc2)c(=O)cc(-c2ccc(S(C)(=O)=O)cc2)n1-c1ccc(F)cc1 (optimized conformer: 80.62780426731524 kcal/mol)

>  <smiles>  (23) 
Cc1c(OC(=O)c2ccccc2)c(=O)cc(-c2ccc(S(C)(=O)=O)cc2)n1-c1ccc(F)cc1

>  <score_type>  (23) 
oracle

>  <origin>  (23) 
adg

>  <m_score__min__energy>  (23) 
-9.4499999999999993

>  <m_primary>  (23) 
energy

$$$$
23:0
     RDKit          3D

 36 38  0  0  0  0  0  0  0  0999 V2000
   59.6030   35.7080   46.7430 O   0  0  0  0  0  0  0  0  0  0  0  0
   60.0890   34.6210   46.3360 C   0  0  0  0  0  0  0  0  0  0  0  0
   59.4600   33.9600   45.2290 N   0  0  0  0  0  0  0  0  0  0  0  0
   58.7870   32.6940   45.2730 C   0  0  0  0  0  0  0  0  0  0  0  0
   57.6120   32.5240   44.5320 C   0  0  0  0  0  0  0  0  0  0  0  0
   56.9310   31.3040   44.5540 C   0  0  0  0  0  0  0  0  0  0  0  0
   57.4230   30.2340   45.3220 C   0  0  0  0  0  0  0  0  0  0  0  0
   56.7510   28.9660   45.3680 N   0  0  0  0  0  0  0  0  0  0  0  0
   57.2830   27.7120   44.9190 C   0  0  0  0  0  0  0  0  0  0  0  0
   57.8620   27.6670   43.8020 O   0  0  0  0  0  0  0  0  0  0  0  0
   57.2170   26.4860   45.7530 C   0  0  0  0  0  0  0  0  0  0  0  0
   55.9850   26.0220   46.2490 C   0  0  0  0  0  0  0  0  0  0  0  0
   54.8060   26.7070   45.9820 O   0  0  0  0  0  0  0  0  0  0  0  0
   55.9400   24.9010   47.0150 N   0  0  0  0  0  0  0  0  0  0  0  0
   57.0680   24.2080   47.3120 C   0  0  0  0  0  0  0  0  0  0  0  0
   57.0000   23.1740   48.0270 O   0  0  0  0  0  0  0  0  0  0  0  0
   58.2670   24.6250   46.8350 N   0  0  0  0  0  0  0  0  0  0  0  0
   58.3690   25.7370   46.0630 C   0  0  0  0  0  0  0  0  0  0  0  0
   59.4980   26.0730   45.6160 O   0  0  0  0  0  0  0  0  0  0  0  0
   58.6260   30.3860   46.0190 C   0  0  0  0  0  0  0  0  0  0  0  0
   59.3060   31.6080   45.9970 C   0  0  0  0  0  0  0  0  0  0  0  0
   61.2310   34.0130   47.0590 C   0  0  0  0  0  0  0  0  0  0  0  0
   62.4500   33.8240   46.3830 C   0  0  0  0  0  0  0  0  0  0  0  0
   63.5430   33.2500   47.0370 C   0  0  0  0  0  0  0  0  0  0  0  0
   63.4320   32.8520   48.3690 C   0  0  0  0  0  0  0  0  0  0  0  0
   62.2270   33.0290   49.0530 C   0  0  0  0  0  0  0  0  0  0  0  0
   61.1240   33.6050   48.4090 C   0  0  0  0  0  0  0  0  0  0  0  0
   59.6550   33.8540   49.3470 Cl  0  0  0  0  0  0  0  0  0  0  0  0
   57.2218   33.3565   43.9281 H   0  0  0  0  0  0  0  0  0  0  0  0
   56.0077   31.1805   43.9690 H   0  0  0  0  0  0  0  0  0  0  0  0
   59.0395   29.5400   46.5875 H   0  0  0  0  0  0  0  0  0  0  0  0
   60.2510   31.7190   46.5489 H   0  0  0  0  0  0  0  0  0  0  0  0
   62.5435   34.1307   45.3308 H   0  0  0  0  0  0  0  0  0  0  0  0
   64.4931   33.1117   46.5002 H   0  0  0  0  0  0  0  0  0  0  0  0
   64.2935   32.3986   48.8811 H   0  0  0  0  0  0  0  0  0  0  0  0
   62.1435   32.7142   50.1037 H   0  0  0  0  0  0  0  0  0  0  0  0
  1  2  2  0
  2  3  1  0
  3  4  1  0
  4  5  2  0
  5  6  1  0
  6  7  2  0
  7  8  1  0
  8  9  1  0
  9 10  2  0
  9 11  1  0
 11 12  2  0
 12 13  1  0
 12 14  1  0
 14 15  1  0
 15 16  2  0
 15 17  1  0
 17 18  1  0
 18 19  2  0
  7 20  1  0
 20 21  2  0
  2 22  1  0
 22 23  2  0
 23 24  1  0
 24 25  2  0
 25 26  1  0
 26 27  2  0
 27 28  1  0
 21  4  1  0
 27 22  1  0
 18 11  1  0
  5 29  1  0
  6 30  1  0
 20 31  1  0
 21 32  1  0
 23 33  1  0
 24 34  1  0
 25 35  1  0
 26 36  1  0
M  CHG  5   3  -1   8  -1  13  -1  14  -1  17  -1
M  END
>  <UniqueID>  (24) 
20

>  <SMILES>  (24) 
O=C([N-]c1ccc([N-]C(=O)c2c([O-])[n-]c(=O)[n-]c2=O)cc1)c1ccccc1Cl

>  <Energy>  (24) 
58.973765620274285

>  <Genealogy>  (24) 
O=C([N-]c1ccc([N-]C(=O)c2c([O-])[n-]c(=O)[n-]c2=O)cc1)c1ccccc1Cl (protonated)
O=C([N-]c1ccc([N-]C(=O)c2c([O-])[n-]c(=O)[n-]c2=O)cc1)c1ccccc1Cl (3D coordinates assigned)
O=C([N-]c1ccc([N-]C(=O)c2c([O-])[n-]c(=O)[n-]c2=O)cc1)c1ccccc1Cl (optimized conformer: 58.973765620274285 kcal/mol)

>  <smiles>  (24) 
O=C(Nc1ccc(NC(=O)c2c(O)[nH]c(=O)[nH]c2=O)cc1)c1ccccc1Cl

>  <score_type>  (24) 
oracle

>  <origin>  (24) 
adg

>  <m_score__min__energy>  (24) 
-18.32

>  <m_primary>  (24) 
energy

$$$$
24:0
     RDKit          3D

 40 41  0  0  0  0  0  0  0  0999 V2000
   57.2420   29.3790   51.8530 O   0  0  0  0  0  0  0  0  0  0  0  0
   56.3490   29.9970   52.4100 C   0  0  0  0  0  0  0  0  0  0  0  0
   56.5440   31.4570   52.7320 C   0  0  0  0  0  0  0  0  0  0  0  0
   58.0030   31.8920   52.5400 C   0  0  0  0  0  0  0  0  0  0  0  0
   58.1880   32.7430   51.2760 C   0  0  0  0  0  0  0  0  0  0  0  0
   59.3740   32.2420   50.4440 C   0  0  0  0  0  0  0  0  0  0  0  0
   58.9160   31.8220   49.0710 C   0  0  0  0  0  0  0  0  0  0  0  0
   58.5270   32.7990   48.1380 C   0  0  0  0  0  0  0  0  0  0  0  0
   58.1320   32.4300   46.8490 C   0  0  0  0  0  0  0  0  0  0  0  0
   58.1280   31.0840   46.4760 C   0  0  0  0  0  0  0  0  0  0  0  0
   57.7320   30.7190   45.1950 O   0  0  0  0  0  0  0  0  0  0  0  0
   58.5230   30.1030   47.3910 C   0  0  0  0  0  0  0  0  0  0  0  0
   58.9280   30.4650   48.6850 C   0  0  0  0  0  0  0  0  0  0  0  0
   59.3400   29.4830   49.5850 O   0  0  0  0  0  0  0  0  0  0  0  0
   55.0490   29.3060   52.7220 C   0  0  0  0  0  0  0  0  0  0  0  0
   53.8880   30.2190   52.4410 C   0  0  0  0  0  0  0  0  0  0  0  0
   53.7330   30.8040   51.1730 C   0  0  0  0  0  0  0  0  0  0  0  0
   52.6400   31.6340   50.9080 C   0  0  0  0  0  0  0  0  0  0  0  0
   51.6890   31.8830   51.9030 C   0  0  0  0  0  0  0  0  0  0  0  0
   50.6080   32.7130   51.6290 O   0  0  0  0  0  0  0  0  0  0  0  0
   51.8290   31.2950   53.1690 C   0  0  0  0  0  0  0  0  0  0  0  0
   50.5370   31.6150   54.5420 Br  0  0  0  0  0  0  0  0  0  0  0  0
   52.9240   30.4640   53.4340 C   0  0  0  0  0  0  0  0  0  0  0  0
   55.9033   32.0567   52.0688 H   0  0  0  0  0  0  0  0  0  0  0  0
   56.2762   31.6135   53.7873 H   0  0  0  0  0  0  0  0  0  0  0  0
   58.3156   32.4820   53.4142 H   0  0  0  0  0  0  0  0  0  0  0  0
   58.6163   30.9853   52.4318 H   0  0  0  0  0  0  0  0  0  0  0  0
   57.2731   32.6872   50.6679 H   0  0  0  0  0  0  0  0  0  0  0  0
   58.3870   33.7815   51.5792 H   0  0  0  0  0  0  0  0  0  0  0  0
   60.1149   33.0493   50.3472 H   0  0  0  0  0  0  0  0  0  0  0  0
   59.8223   31.3744   50.9502 H   0  0  0  0  0  0  0  0  0  0  0  0
   58.5335   33.8611   48.4243 H   0  0  0  0  0  0  0  0  0  0  0  0
   57.8238   33.2008   46.1273 H   0  0  0  0  0  0  0  0  0  0  0  0
   58.5162   29.0435   47.0953 H   0  0  0  0  0  0  0  0  0  0  0  0
   58.7990   29.2600   50.4130 H   0  0  0  0  0  0  0  0  0  0  0  0
   54.9596   28.4040   52.0988 H   0  0  0  0  0  0  0  0  0  0  0  0
   55.0376   29.0327   53.7875 H   0  0  0  0  0  0  0  0  0  0  0  0
   54.4752   30.6079   50.3852 H   0  0  0  0  0  0  0  0  0  0  0  0
   52.5275   32.0925   49.9145 H   0  0  0  0  0  0  0  0  0  0  0  0
   53.0306   29.9999   54.4256 H   0  0  0  0  0  0  0  0  0  0  0  0
  1  2  2  0
  2  3  1  0
  3  4  1  0
  4  5  1  0
  5  6  1  0
  6  7  1  0
  7  8  2  0
  8  9  1  0
  9 10  2  0
 10 11  1  0
 10 12  1  0
 12 13  2  0
 13 14  1  0
  2 15  1  0
 15 16  1  0
 16 17  2  0
 17 18  1  0
 18 19  2  0
 19 20  1  0
 19 21  1  0
 21 22  1  0
 21 23  2  0
 13  7  1  0
 23 16  1  0
  3 24  1  0
  3 25  1  0
  4 26  1  0
  4 27  1  0
  5 28  1  0
  5 29  1  0
  6 30  1  0
  6 31  1  0
  8 32  1  0
  9 33  1  0
 12 34  1  0
 14 35  1  0
 15 36  1  0
 15 37  1  0
 17 38  1  0
 18 39  1  0
 23 40  1  0
M  CHG  2  11  -1  20  -1
M  END
>  <UniqueID>  (25) 
21

>  <SMILES>  (25) 
O=C(CCCCc1ccc([O-])cc1O)Cc1ccc([O-])c(Br)c1

>  <Energy>  (25) 
30.603844896788225

>  <Genealogy>  (25) 
O=C(CCCCc1ccc([O-])cc1O)Cc1ccc([O-])c(Br)c1 (protonated)
O=C(CCCCc1ccc([O-])cc1O)Cc1ccc([O-])c(Br)c1 (3D coordinates assigned)
O=C(CCCCc1ccc([O-])cc1O)Cc1ccc([O-])c(Br)c1 (optimized conformer: 30.603844896788225 kcal/mol)

>  <smiles>  (25) 
O=C(CCCCc1ccc(O)cc1O)Cc1ccc(O)c(Br)c1

>  <score_type>  (25) 
oracle

>  <origin>  (25) 
adg

>  <m_score__min__energy>  (25) 
-11.890000000000001

>  <m_primary>  (25) 
energy

$$$$
25:0
     RDKit          3D

 64 68  0  0  0  0  0  0  0  0999 V2000
   57.3500   32.2210   44.7650 C   0  0  0  0  0  0  0  0  0  0  0  0
   57.0310   30.9710   45.3690 O   0  0  0  0  0  0  0  0  0  0  0  0
   57.5430   29.7270   44.9580 C   0  0  0  0  0  0  0  0  0  0  0  0
   57.1910   29.1590   43.7160 C   0  0  0  0  0  0  0  0  0  0  0  0
   57.7340   27.9370   43.3160 C   0  0  0  0  0  0  0  0  0  0  0  0
   58.6250   27.2620   44.1460 C   0  0  0  0  0  0  0  0  0  0  0  0
   58.9780   27.8070   45.3820 C   0  0  0  0  0  0  0  0  0  0  0  0
   58.4460   29.0400   45.8030 C   0  0  0  0  0  0  0  0  0  0  0  0
   58.8550   29.5960   47.0710 N   0  0  0  0  0  0  0  0  0  0  0  0
   58.6560   28.8230   48.3020 C   0  0  0  0  0  0  0  0  0  0  0  0
   59.5500   29.3580   49.4210 C   0  0  0  0  0  0  0  0  0  0  0  0
   59.3110   30.7990   49.6740 N   0  0  0  0  0  0  0  0  0  0  0  0
   60.3480   31.3500   50.5760 C   0  0  0  0  0  0  0  0  0  0  0  0
   59.7320   31.8390   51.8950 C   0  0  0  0  0  0  0  0  0  0  0  0
   58.4920   31.1090   52.2290 N   0  0  0  0  0  0  0  0  0  0  0  0
   57.2660   31.7060   52.0470 C   0  0  0  0  0  0  0  0  0  0  0  0
   57.1710   32.8840   51.5990 O   0  0  0  0  0  0  0  0  0  0  0  0
   56.1150   30.9970   52.3610 C   0  0  0  0  0  0  0  0  0  0  0  0
   54.8460   31.4560   52.2050 N   0  0  0  0  0  0  0  0  0  0  0  0
   53.9430   30.5140   52.5750 C   0  0  0  0  0  0  0  0  0  0  0  0
   52.4660   30.7380   52.5540 C   0  0  0  0  0  0  0  0  0  0  0  0
   51.9710   30.8070   51.1310 C   0  0  0  0  0  0  0  0  0  0  0  0
   52.1740   29.7150   50.2690 C   0  0  0  0  0  0  0  0  0  0  0  0
   51.6990   29.7550   48.9540 C   0  0  0  0  0  0  0  0  0  0  0  0
   51.0130   30.8800   48.4910 C   0  0  0  0  0  0  0  0  0  0  0  0
   50.7920   31.9650   49.3440 C   0  0  0  0  0  0  0  0  0  0  0  0
   51.2620   31.9310   50.6620 C   0  0  0  0  0  0  0  0  0  0  0  0
   51.0180   33.0150   51.4980 O   0  0  0  0  0  0  0  0  0  0  0  0
   54.6860   29.0940   53.1250 S   0  0  0  0  0  0  0  0  0  0  0  0
   56.2280   29.7210   52.8590 C   0  0  0  0  0  0  0  0  0  0  0  0
   57.4340   29.1250   53.0710 N   0  0  0  0  0  0  0  0  0  0  0  0
   57.5120   27.7450   53.5690 C   0  0  0  0  0  0  0  0  0  0  0  0
   58.5720   29.8220   52.7330 C   0  0  0  0  0  0  0  0  0  0  0  0
   59.7030   29.2780   52.8830 O   0  0  0  0  0  0  0  0  0  0  0  0
   59.1230   31.6190   48.4430 C   0  0  0  0  0  0  0  0  0  0  0  0
   59.5270   30.9000   47.1500 C   0  0  0  0  0  0  0  0  0  0  0  0
   57.5408   32.9688   45.5488 H   0  0  0  0  0  0  0  0  0  0  0  0
   58.2480   32.1076   44.1399 H   0  0  0  0  0  0  0  0  0  0  0  0
   56.5075   32.5518   44.1399 H   0  0  0  0  0  0  0  0  0  0  0  0
   56.4829   29.6832   43.0573 H   0  0  0  0  0  0  0  0  0  0  0  0
   57.4573   27.5061   42.3425 H   0  0  0  0  0  0  0  0  0  0  0  0
   59.0510   26.2990   43.8279 H   0  0  0  0  0  0  0  0  0  0  0  0
   59.6799   27.2665   46.0341 H   0  0  0  0  0  0  0  0  0  0  0  0
   57.6033   28.9001   48.6116 H   0  0  0  0  0  0  0  0  0  0  0  0
   58.9185   27.7724   48.1086 H   0  0  0  0  0  0  0  0  0  0  0  0
   59.3420   28.7952   50.3429 H   0  0  0  0  0  0  0  0  0  0  0  0
   60.5980   29.2342   49.1106 H   0  0  0  0  0  0  0  0  0  0  0  0
   61.0877   30.5656   50.7942 H   0  0  0  0  0  0  0  0  0  0  0  0
   60.8265   32.2052   50.0762 H   0  0  0  0  0  0  0  0  0  0  0  0
   60.4614   31.6898   52.7048 H   0  0  0  0  0  0  0  0  0  0  0  0
   59.4797   32.9034   51.7790 H   0  0  0  0  0  0  0  0  0  0  0  0
   51.9650   29.9078   53.0734 H   0  0  0  0  0  0  0  0  0  0  0  0
   52.2393   31.6881   53.0599 H   0  0  0  0  0  0  0  0  0  0  0  0
   52.7091   28.8246   50.6306 H   0  0  0  0  0  0  0  0  0  0  0  0
   51.8660   28.8991   48.2835 H   0  0  0  0  0  0  0  0  0  0  0  0
   50.6464   30.9122   47.4544 H   0  0  0  0  0  0  0  0  0  0  0  0
   50.2472   32.8480   48.9785 H   0  0  0  0  0  0  0  0  0  0  0  0
   57.5116   27.7516   54.6690 H   0  0  0  0  0  0  0  0  0  0  0  0
   56.6447   27.1744   53.2054 H   0  0  0  0  0  0  0  0  0  0  0  0
   58.4381   27.2758   53.2054 H   0  0  0  0  0  0  0  0  0  0  0  0
   58.0605   31.8941   48.3689 H   0  0  0  0  0  0  0  0  0  0  0  0
   59.7803   32.4957   48.5397 H   0  0  0  0  0  0  0  0  0  0  0  0
   59.2349   31.5137   46.2851 H   0  0  0  0  0  0  0  0  0  0  0  0
   60.6162   30.7464   47.1467 H   0  0  0  0  0  0  0  0  0  0  0  0
  1  2  1  0
  2  3  1  0
  3  4  2  0
  4  5  1  0
  5  6  2  0
  6  7  1  0
  7  8  2  0
  8  9  1  0
  9 10  1  0
 10 11  1  0
 11 12  1  0
 12 13  1  0
 13 14  1  0
 14 15  1  0
 15 16  1  0
 16 17  2  0
 16 18  1  0
 18 19  1  0
 19 20  2  0
 20 21  1  0
 21 22  1  0
 22 23  2  0
 23 24  1  0
 24 25  2  0
 25 26  1  0
 26 27  2  0
 27 28  1  0
 20 29  1  0
 29 30  1  0
 30 31  1  0
 31 32  1  0
 31 33  1  0
 33 34  2  0
 12 35  1  0
 35 36  1  0
  8  3  1  0
 36  9  1  0
 33 15  1  0
 30 18  2  0
 27 22  1  0
  1 37  1  0
  1 38  1  0
  1 39  1  0
  4 40  1  0
  5 41  1  0
  6 42  1  0
  7 43  1  0
 10 44  1  0
 10 45  1  0
 11 46  1  0
 11 47  1  0
 13 48  1  0
 13 49  1  0
 14 50  1  0
 14 51  1  0
 21 52  1  0
 21 53  1  0
 23 54  1  0
 24 55  1  0
 25 56  1  0
 26 57  1  0
 32 58  1  0
 32 59  1  0
 32 60  1  0
 35 61  1  0
 35 62  1  0
 36 63  1  0
 36 64  1  0
M  CHG  1  28  -1
M  END
>  <UniqueID>  (26) 
22

>  <SMILES>  (26) 
COc1ccccc1N1CCN(CCn2c(=O)c3nc(Cc4ccccc4[O-])sc3n(C)c2=O)CC1

>  <Energy>  (26) 
120.50985540855753

>  <Genealogy>  (26) 
COc1ccccc1N1CCN(CCn2c(=O)c3nc(Cc4ccccc4[O-])sc3n(C)c2=O)CC1 (protonated)
COc1ccccc1N1CCN(CCn2c(=O)c3nc(Cc4ccccc4[O-])sc3n(C)c2=O)CC1 (3D coordinates assigned)
COc1ccccc1N1CCN(CCn2c(=O)c3nc(Cc4ccccc4[O-])sc3n(C)c2=O)CC1 (nonaromatic ring conformer: 120.50985540855753 kcal/mol)

>  <smiles>  (26) 
COc1ccccc1N1CCN(CCn2c(=O)c3nc(Cc4ccccc4O)sc3n(C)c2=O)CC1

>  <score_type>  (26) 
oracle

>  <origin>  (26) 
adg

>  <m_score__min__energy>  (26) 
-13.48

>  <m_primary>  (26) 
energy

$$$$
26:0
     RDKit          3D

 42 45  0  0  0  0  0  0  0  0999 V2000
   53.0790   23.7410   45.8980 C   0  0  0  0  0  0  0  0  0  0  0  0
   54.5260   23.9680   45.5660 C   0  0  0  0  0  0  0  0  0  0  0  0
   55.3270   22.8940   45.1470 C   0  0  0  0  0  0  0  0  0  0  0  0
   56.6620   23.1040   44.8000 C   0  0  0  0  0  0  0  0  0  0  0  0
   57.2130   24.3850   44.8720 C   0  0  0  0  0  0  0  0  0  0  0  0
   56.4320   25.4730   45.2980 C   0  0  0  0  0  0  0  0  0  0  0  0
   57.0460   26.8170   45.3650 C   0  0  0  0  0  0  0  0  0  0  0  0
   58.2920   26.9100   45.5340 O   0  0  0  0  0  0  0  0  0  0  0  0
   56.2370   28.0000   45.2450 N   0  0  0  0  0  0  0  0  0  0  0  0
   56.7620   29.3380   45.2610 C   0  0  0  0  0  0  0  0  0  0  0  0
   56.1810   30.3640   44.4960 C   0  0  0  0  0  0  0  0  0  0  0  0
   56.7320   31.6480   44.5060 C   0  0  0  0  0  0  0  0  0  0  0  0
   57.8670   31.9180   45.2740 C   0  0  0  0  0  0  0  0  0  0  0  0
   58.4610   30.9080   46.0380 C   0  0  0  0  0  0  0  0  0  0  0  0
   59.6090   31.2130   46.7840 O   0  0  0  0  0  0  0  0  0  0  0  0
   59.6510   32.0840   47.8800 C   0  0  0  0  0  0  0  0  0  0  0  0
   60.2330   33.3590   47.7360 C   0  0  0  0  0  0  0  0  0  0  0  0
   60.2780   34.2580   48.8260 C   0  0  0  0  0  0  0  0  0  0  0  0
   59.7270   33.8970   50.0690 C   0  0  0  0  0  0  0  0  0  0  0  0
   59.1400   32.6400   50.1770 C   0  0  0  0  0  0  0  0  0  0  0  0
   58.5260   32.1160   51.2490 N   0  0  0  0  0  0  0  0  0  0  0  0
   58.1190   30.9100   50.7810 C   0  0  0  0  0  0  0  0  0  0  0  0
   57.4870   30.0870   51.4940 O   0  0  0  0  0  0  0  0  0  0  0  0
   58.4390   30.6540   49.4870 N   0  0  0  0  0  0  0  0  0  0  0  0
   59.0960   31.7690   49.1300 C   0  0  0  0  0  0  0  0  0  0  0  0
   57.9200   29.6100   46.0050 C   0  0  0  0  0  0  0  0  0  0  0  0
   55.0740   25.2640   45.6200 C   0  0  0  0  0  0  0  0  0  0  0  0
   54.2590   26.3400   45.9620 O   0  0  0  0  0  0  0  0  0  0  0  0
   52.9522   23.7211   46.9905 H   0  0  0  0  0  0  0  0  0  0  0  0
   52.4733   24.5551   45.4733 H   0  0  0  0  0  0  0  0  0  0  0  0
   52.7517   22.7805   45.4733 H   0  0  0  0  0  0  0  0  0  0  0  0
   54.9000   21.8818   45.0920 H   0  0  0  0  0  0  0  0  0  0  0  0
   57.2822   22.2580   44.4688 H   0  0  0  0  0  0  0  0  0  0  0  0
   58.2653   24.5436   44.5935 H   0  0  0  0  0  0  0  0  0  0  0  0
   55.2140   27.8900   45.0630 H   0  0  0  0  0  0  0  0  0  0  0  0
   55.2890   30.1553   43.8870 H   0  0  0  0  0  0  0  0  0  0  0  0
   56.2710   32.4478   43.9078 H   0  0  0  0  0  0  0  0  0  0  0  0
   58.2962   32.9308   45.2780 H   0  0  0  0  0  0  0  0  0  0  0  0
   60.6566   33.6578   46.7658 H   0  0  0  0  0  0  0  0  0  0  0  0
   60.7465   35.2454   48.7015 H   0  0  0  0  0  0  0  0  0  0  0  0
   59.7591   34.5851   50.9266 H   0  0  0  0  0  0  0  0  0  0  0  0
   58.4091   28.8011   46.5675 H   0  0  0  0  0  0  0  0  0  0  0  0
  1  2  1  0
  2  3  2  0
  3  4  1  0
  4  5  2  0
  5  6  1  0
  6  7  1  0
  7  8  2  0
  7  9  1  0
  9 10  1  0
 10 11  2  0
 11 12  1  0
 12 13  2  0
 13 14  1  0
 14 15  1  0
 15 16  1  0
 16 17  2  0
 17 18  1  0
 18 19  2  0
 19 20  1  0
 20 21  1  0
 21 22  1  0
 22 23  2  0
 22 24  1  0
 24 25  1  0
 14 26  2  0
  6 27  2  0
 27 28  1  0
 27  2  1  0
 26 10  1  0
 25 16  1  0
 25 20  2  0
  1 29  1  0
  1 30  1  0
  1 31  1  0
  3 32  1  0
  4 33  1  0
  5 34  1  0
  9 35  1  0
 11 36  1  0
 12 37  1  0
 13 38  1  0
 17 39  1  0
 18 40  1  0
 19 41  1  0
 26 42  1  0
M  CHG  3  21  -1  24  -1  28  -1
M  END
>  <UniqueID>  (27) 
23

>  <SMILES>  (27) 
Cc1cccc(C(=O)Nc2cccc(Oc3cccc4[n-]c(=O)[n-]c34)c2)c1[O-]

>  <Energy>  (27) 
97.63664621881114

>  <Genealogy>  (27) 
Cc1cccc(C(=O)Nc2cccc(Oc3cccc4[n-]c(=O)[n-]c34)c2)c1[O-] (protonated)
Cc1cccc(C(=O)Nc2cccc(Oc3cccc4[n-]c(=O)[n-]c34)c2)c1[O-] (3D coordinates assigned)
Cc1cccc(C(=O)Nc2cccc(Oc3cccc4[n-]c(=O)[n-]c34)c2)c1[O-] (optimized conformer: 97.63664621881114 kcal/mol)

>  <smiles>  (27) 
Cc1cccc(C(=O)Nc2cccc(Oc3cccc4[nH]c(=O)[nH]c34)c2)c1O

>  <score_type>  (27) 
oracle

>  <origin>  (27) 
adg

>  <m_score__min__energy>  (27) 
-14.210000000000001

>  <m_primary>  (27) 
energy

$$$$
27:0
     RDKit          3D

 69 72  0  0  0  0  0  0  0  0999 V2000
   62.2310   31.1310   47.5240 C   0  0  0  0  0  0  0  0  0  0  0  0
   63.4120   32.0970   47.4540 C   0  0  0  0  0  0  0  0  0  0  0  0
   63.4210   32.9960   48.6160 N   0  0  0  0  0  0  0  0  0  0  0  0
   64.3380   32.7070   49.7260 C   0  0  0  0  0  0  0  0  0  0  0  0
   62.3870   33.9980   48.7620 C   0  0  0  0  0  0  0  0  0  0  0  0
   62.5070   34.8930   49.6430 O   0  0  0  0  0  0  0  0  0  0  0  0
   61.2010   34.0260   47.8770 C   0  0  0  0  0  0  0  0  0  0  0  0
   59.9130   33.8440   48.4020 C   0  0  0  0  0  0  0  0  0  0  0  0
   58.8070   33.7740   47.5530 C   0  0  0  0  0  0  0  0  0  0  0  0
   58.9660   33.9070   46.1620 C   0  0  0  0  0  0  0  0  0  0  0  0
   57.8080   33.7180   45.2560 C   0  0  0  0  0  0  0  0  0  0  0  0
   56.6690   34.1470   45.5890 O   0  0  0  0  0  0  0  0  0  0  0  0
   57.9690   33.0450   44.0040 N   0  0  0  0  0  0  0  0  0  0  0  0
   57.7170   31.6460   43.8150 C   0  0  0  0  0  0  0  0  0  0  0  0
   56.8640   31.2150   42.7950 C   0  0  0  0  0  0  0  0  0  0  0  0
   56.5730   29.8650   42.6520 C   0  0  0  0  0  0  0  0  0  0  0  0
   57.1450   28.9280   43.5130 C   0  0  0  0  0  0  0  0  0  0  0  0
   58.0310   29.3160   44.5540 C   0  0  0  0  0  0  0  0  0  0  0  0
   58.6490   28.3010   45.4190 N   0  0  0  0  0  0  0  0  0  0  0  0
   58.8670   28.6330   46.8450 C   0  0  0  0  0  0  0  0  0  0  0  0
   59.5040   27.5200   47.6850 C   0  0  0  0  0  0  0  0  0  0  0  0
   59.0760   26.1720   47.2800 N   0  0  0  0  0  0  0  0  0  0  0  0
   57.6370   25.8950   47.5100 C   0  0  0  0  0  0  0  0  0  0  0  0
   57.3440   24.3900   47.4160 C   0  0  0  0  0  0  0  0  0  0  0  0
   56.9830   23.9770   46.0030 C   0  0  0  0  0  0  0  0  0  0  0  0
   57.7640   22.9790   45.3850 C   0  0  0  0  0  0  0  0  0  0  0  0
   57.4780   22.5530   44.0860 C   0  0  0  0  0  0  0  0  0  0  0  0
   56.4070   23.1060   43.3870 C   0  0  0  0  0  0  0  0  0  0  0  0
   55.6120   24.0820   43.9890 C   0  0  0  0  0  0  0  0  0  0  0  0
   55.8820   24.5260   45.2900 C   0  0  0  0  0  0  0  0  0  0  0  0
   55.0400   25.5050   45.8250 O   0  0  0  0  0  0  0  0  0  0  0  0
   59.4980   25.9340   45.8960 C   0  0  0  0  0  0  0  0  0  0  0  0
   58.9000   26.9390   44.8940 C   0  0  0  0  0  0  0  0  0  0  0  0
   58.2820   30.7130   44.7010 C   0  0  0  0  0  0  0  0  0  0  0  0
   59.0870   31.2060   45.6740 F   0  0  0  0  0  0  0  0  0  0  0  0
   60.2480   34.1680   45.6450 C   0  0  0  0  0  0  0  0  0  0  0  0
   61.3560   34.2290   46.4980 C   0  0  0  0  0  0  0  0  0  0  0  0
   61.9843   30.9292   48.5768 H   0  0  0  0  0  0  0  0  0  0  0  0
   61.3604   31.5793   47.0228 H   0  0  0  0  0  0  0  0  0  0  0  0
   62.4977   30.1888   47.0228 H   0  0  0  0  0  0  0  0  0  0  0  0
   64.3487   31.5206   47.4369 H   0  0  0  0  0  0  0  0  0  0  0  0
   63.3181   32.7027   46.5406 H   0  0  0  0  0  0  0  0  0  0  0  0
   63.8193   32.8705   50.6822 H   0  0  0  0  0  0  0  0  0  0  0  0
   64.6708   31.6604   49.6637 H   0  0  0  0  0  0  0  0  0  0  0  0
   65.2108   33.3736   49.6637 H   0  0  0  0  0  0  0  0  0  0  0  0
   59.7736   33.7559   49.4896 H   0  0  0  0  0  0  0  0  0  0  0  0
   57.8039   33.6137   47.9751 H   0  0  0  0  0  0  0  0  0  0  0  0
   56.4220   31.9475   42.1036 H   0  0  0  0  0  0  0  0  0  0  0  0
   55.8890   29.5330   41.8570 H   0  0  0  0  0  0  0  0  0  0  0  0
   56.9042   27.8626   43.3828 H   0  0  0  0  0  0  0  0  0  0  0  0
   59.5244   29.5137   46.8926 H   0  0  0  0  0  0  0  0  0  0  0  0
   57.8689   28.8055   47.2740 H   0  0  0  0  0  0  0  0  0  0  0  0
   60.5971   27.5857   47.5814 H   0  0  0  0  0  0  0  0  0  0  0  0
   59.1782   27.6680   48.7252 H   0  0  0  0  0  0  0  0  0  0  0  0
   57.3572   26.2541   48.5114 H   0  0  0  0  0  0  0  0  0  0  0  0
   57.0522   26.4148   46.7368 H   0  0  0  0  0  0  0  0  0  0  0  0
   58.2375   23.8323   47.7333 H   0  0  0  0  0  0  0  0  0  0  0  0
   56.4873   24.1657   48.0686 H   0  0  0  0  0  0  0  0  0  0  0  0
   58.6072   22.5313   45.9315 H   0  0  0  0  0  0  0  0  0  0  0  0
   58.1001   21.7786   43.6134 H   0  0  0  0  0  0  0  0  0  0  0  0
   56.1884   22.7735   42.3615 H   0  0  0  0  0  0  0  0  0  0  0  0
   54.7626   24.5082   43.4351 H   0  0  0  0  0  0  0  0  0  0  0  0
   54.2180   25.2990   46.3720 H   0  0  0  0  0  0  0  0  0  0  0  0
   60.5947   26.0047   45.8486 H   0  0  0  0  0  0  0  0  0  0  0  0
   59.1336   24.9357   45.6120 H   0  0  0  0  0  0  0  0  0  0  0  0
   59.5969   27.0268   44.0475 H   0  0  0  0  0  0  0  0  0  0  0  0
   57.9129   26.5374   44.6213 H   0  0  0  0  0  0  0  0  0  0  0  0
   60.3804   34.3250   44.5643 H   0  0  0  0  0  0  0  0  0  0  0  0
   62.3538   34.4373   46.0845 H   0  0  0  0  0  0  0  0  0  0  0  0
  1  2  1  0
  2  3  1  0
  3  4  1  0
  3  5  1  0
  5  6  2  0
  5  7  1  0
  7  8  2  0
  8  9  1  0
  9 10  2  0
 10 11  1  0
 11 12  2  0
 11 13  1  0
 13 14  1  0
 14 15  2  0
 15 16  1  0
 16 17  2  0
 17 18  1  0
 18 19  1  0
 19 20  1  0
 20 21  1  0
 21 22  1  0
 22 23  1  0
 23 24  1  0
 24 25  1  0
 25 26  2  0
 26 27  1  0
 27 28  2  0
 28 29  1  0
 29 30  2  0
 30 31  1  0
 22 32  1  0
 32 33  1  0
 18 34  2  0
 34 35  1  0
 10 36  1  0
 36 37  2  0
 37  7  1  0
 34 14  1  0
 33 19  1  0
 30 25  1  0
  1 38  1  0
  1 39  1  0
  1 40  1  0
  2 41  1  0
  2 42  1  0
  4 43  1  0
  4 44  1  0
  4 45  1  0
  8 46  1  0
  9 47  1  0
 15 48  1  0
 16 49  1  0
 17 50  1  0
 20 51  1  0
 20 52  1  0
 21 53  1  0
 21 54  1  0
 23 55  1  0
 23 56  1  0
 24 57  1  0
 24 58  1  0
 26 59  1  0
 27 60  1  0
 28 61  1  0
 29 62  1  0
 31 63  1  0
 32 64  1  0
 32 65  1  0
 33 66  1  0
 33 67  1  0
 36 68  1  0
 37 69  1  0
M  CHG  1  13  -1
M  END
>  <UniqueID>  (28) 
24

>  <SMILES>  (28) 
CCN(C)C(=O)c1ccc(C(=O)[N-]c2cccc(N3CCN(CCc4ccccc4O)CC3)c2F)cc1

>  <Energy>  (28) 
97.1391807684098

>  <Genealogy>  (28) 
CCN(C)C(=O)c1ccc(C(=O)[N-]c2cccc(N3CCN(CCc4ccccc4O)CC3)c2F)cc1 (protonated)
CCN(C)C(=O)c1ccc(C(=O)[N-]c2cccc(N3CCN(CCc4ccccc4O)CC3)c2F)cc1 (3D coordinates assigned)
CCN(C)C(=O)c1ccc(C(=O)[N-]c2cccc(N3CCN(CCc4ccccc4O)CC3)c2F)cc1 (nonaromatic ring conformer: 97.1391807684098 kcal/mol)

>  <smiles>  (28) 
CCN(C)C(=O)c1ccc(C(=O)Nc2cccc(N3CCN(CCc4ccccc4O)CC3)c2F)cc1

>  <score_type>  (28) 
oracle

>  <origin>  (28) 
adg

>  <m_score__min__energy>  (28) 
-11.140000000000001

>  <m_primary>  (28) 
energy

$$$$
28:0
     RDKit          3D

 60 63  0  0  0  0  0  0  0  0999 V2000
   55.1490   27.3050   46.0740 H   0  0  0  0  0  0  0  0  0  0  0  0
   54.7690   26.3310   46.0090 N   0  0  0  0  0  0  0  0  0  0  0  0
   55.5760   25.2110   46.3690 C   0  0  0  0  0  0  0  0  0  0  0  0
   55.0590   24.0640   46.4440 O   0  0  0  0  0  0  0  0  0  0  0  0
   57.0430   25.3940   46.6240 C   0  0  0  0  0  0  0  0  0  0  0  0
   57.1902   25.7007   47.6701 H   0  0  0  0  0  0  0  0  0  0  0  0
   57.5536   24.4402   46.4250 H   0  0  0  0  0  0  0  0  0  0  0  0
   57.6140   26.4270   45.7330 N   0  0  0  0  0  0  0  0  0  0  0  0
   58.0910   25.9120   44.4300 C   0  0  0  0  0  0  0  0  0  0  0  0
   57.6603   26.5348   43.6321 H   0  0  0  0  0  0  0  0  0  0  0  0
   59.1899   25.9556   44.4508 H   0  0  0  0  0  0  0  0  0  0  0  0
   57.7120   24.4720   44.1680 C   0  0  0  0  0  0  0  0  0  0  0  0
   58.4180   23.4190   44.7740 C   0  0  0  0  0  0  0  0  0  0  0  0
   59.2504   23.6402   45.4582 H   0  0  0  0  0  0  0  0  0  0  0  0
   58.0670   22.0910   44.5110 C   0  0  0  0  0  0  0  0  0  0  0  0
   58.6340   21.2715   44.9768 H   0  0  0  0  0  0  0  0  0  0  0  0
   56.9990   21.8020   43.6590 C   0  0  0  0  0  0  0  0  0  0  0  0
   56.7358   20.7565   43.4408 H   0  0  0  0  0  0  0  0  0  0  0  0
   56.2650   22.8430   43.0840 C   0  0  0  0  0  0  0  0  0  0  0  0
   55.4107   22.6163   42.4291 H   0  0  0  0  0  0  0  0  0  0  0  0
   56.6150   24.1720   43.3400 C   0  0  0  0  0  0  0  0  0  0  0  0
   56.0292   24.9879   42.8914 H   0  0  0  0  0  0  0  0  0  0  0  0
   58.4620   27.4760   46.3610 C   0  0  0  0  0  0  0  0  0  0  0  0
   57.8637   27.9812   47.1335 H   0  0  0  0  0  0  0  0  0  0  0  0
   59.3454   26.9577   46.7622 H   0  0  0  0  0  0  0  0  0  0  0  0
   58.9970   28.5520   45.3890 C   0  0  0  0  0  0  0  0  0  0  0  0
   59.3139   29.4344   45.9642 H   0  0  0  0  0  0  0  0  0  0  0  0
   59.8500   28.1369   44.8322 H   0  0  0  0  0  0  0  0  0  0  0  0
   57.9580   28.9440   44.4400 N   0  0  0  0  0  0  0  0  0  0  0  0
   56.7360   29.6330   44.7330 C   0  0  0  0  0  0  0  0  0  0  0  0
   55.7250   28.9460   45.0230 O   0  0  0  0  0  0  0  0  0  0  0  0
   56.6650   31.1170   44.7350 C   0  0  0  0  0  0  0  0  0  0  0  0
   55.7572   31.5739   45.1558 H   0  0  0  0  0  0  0  0  0  0  0  0
   57.6080   31.9500   44.2700 C   0  0  0  0  0  0  0  0  0  0  0  0
   57.8622   31.8890   43.2015 H   0  0  0  0  0  0  0  0  0  0  0  0
   58.3260   32.9390   45.0880 C   0  0  0  0  0  0  0  0  0  0  0  0
   58.7430   34.1580   44.5290 C   0  0  0  0  0  0  0  0  0  0  0  0
   58.5546   34.3686   43.4659 H   0  0  0  0  0  0  0  0  0  0  0  0
   59.3970   35.1030   45.3230 C   0  0  0  0  0  0  0  0  0  0  0  0
   59.7243   36.0565   44.8829 H   0  0  0  0  0  0  0  0  0  0  0  0
   59.6370   34.8410   46.6750 C   0  0  0  0  0  0  0  0  0  0  0  0
   60.1569   35.5883   47.2925 H   0  0  0  0  0  0  0  0  0  0  0  0
   59.2180   33.6280   47.2510 C   0  0  0  0  0  0  0  0  0  0  0  0
   59.4470   33.3560   48.6890 C   0  0  0  0  0  0  0  0  0  0  0  0
   59.5500   34.3210   49.4970 O   0  0  0  0  0  0  0  0  0  0  0  0
   59.5810   31.9990   49.1500 N   0  0  0  0  0  0  0  0  0  0  0  0
   58.8760   31.4300   50.0820 C   0  0  0  0  0  0  0  0  0  0  0  0
   57.6800   31.9050   50.5240 N   0  0  0  0  0  0  0  0  0  0  0  0
   57.2090   31.0960   51.5020 C   0  0  0  0  0  0  0  0  0  0  0  0
   57.9770   30.0320   51.8250 C   0  0  0  0  0  0  0  0  0  0  0  0
   59.3610   30.0100   50.8790 S   0  0  0  0  0  0  0  0  0  0  0  0
   57.4620   29.1210   52.8620 C   0  0  0  0  0  0  0  0  0  0  0  0
   57.4962   28.0790   52.5111 H   0  0  0  0  0  0  0  0  0  0  0  0
   58.0621   29.1666   53.7827 H   0  0  0  0  0  0  0  0  0  0  0  0
   56.0010   29.5630   53.1040 C   0  0  0  0  0  0  0  0  0  0  0  0
   55.3232   28.8298   52.6424 H   0  0  0  0  0  0  0  0  0  0  0  0
   55.8297   29.6202   54.1891 H   0  0  0  0  0  0  0  0  0  0  0  0
   55.6750   31.2350   52.3690 S   0  0  0  0  0  0  0  0  0  0  0  0
   58.5610   32.6810   46.4450 C   0  0  0  0  0  0  0  0  0  0  0  0
   58.2285   31.7288   46.8841 H   0  0  0  0  0  0  0  0  0  0  0  0
  1  2  1  0
  2  3  1  0
  3  4  2  0
  3  5  1  0
  5  6  1  0
  5  7  1  0
  5  8  1  0
  8  9  1  0
  9 10  1  0
  9 11  1  0
  9 12  1  0
 12 13  2  0
 13 14  1  0
 13 15  1  0
 15 16  1  0
 15 17  2  0
 17 18  1  0
 17 19  1  0
 19 20  1  0
 19 21  2  0
 21 22  1  0
  8 23  1  0
 23 24  1  0
 23 25  1  0
 23 26  1  0
 26 27  1  0
 26 28  1  0
 26 29  1  0
 29 30  1  0
 30 31  2  0
 30 32  1  0
 32 33  1  0
 32 34  2  0
 34 35  1  0
 34 36  1  0
 36 37  2  0
 37 38  1  0
 37 39  1  0
 39 40  1  0
 39 41  2  0
 41 42  1  0
 41 43  1  0
 43 44  1  0
 44 45  2  0
 44 46  1  0
 46 47  2  3
 47 48  1  0
 48 49  1  0
 49 50  2  0
 50 51  1  0
 50 52  1  0
 52 53  1  0
 52 54  1  0
 52 55  1  0
 55 56  1  0
 55 57  1  0
 55 58  1  0
 43 59  2  0
 59 60  1  0
 21 12  1  0
 59 36  1  0
 51 47  1  0
 58 49  1  0
M  CHG  3   2  -1  29  -1  48  -1
M  END
>  <UniqueID>  (29) 
25

>  <SMILES>  (29) 
[NH-]C(=O)CN(CC[N-]C(=O)/C=C\c1cccc(C(=O)N=c2[n-]c3c(s2)CCS3)c1)Cc1ccccc1

>  <Energy>  (29) 
125.9878446282967

>  <Genealogy>  (29) 
[NH-]C(=O)CN(CC[N-]C(=O)C=Cc1cccc(C(=O)N=c2[n-]c3c(s2)CCS3)c1)Cc1ccccc1 (protonated)
[NH-]C(=O)CN(CC[N-]C(=O)/C=C\c1cccc(C(=O)N=c2[n-]c3c(s2)CCS3)c1)Cc1ccccc1 (cis-trans isomerization)
[NH-]C(=O)CN(CC[N-]C(=O)/C=C\c1cccc(C(=O)N=c2[n-]c3c(s2)CCS3)c1)Cc1ccccc1 (3D coordinates assigned)
[NH-]C(=O)CN(CC[N-]C(=O)/C=C\c1cccc(C(=O)N=c2[n-]c3c(s2)CCS3)c1)Cc1ccccc1 (nonaromatic ring conformer: 125.9878446282967 kcal/mol)

>  <smiles>  (29) 
NC(=O)CN(CCNC(=O)C=Cc1cccc(C(=O)N=c2[nH]c3c(s2)CCS3)c1)Cc1ccccc1

>  <score_type>  (29) 
oracle

>  <origin>  (29) 
adg

>  <m_score__min__energy>  (29) 
-15.65

>  <m_primary>  (29) 
energy

$$$$
29:0
     RDKit          3D

 45 47  0  0  0  0  0  0  0  0999 V2000
   58.8920   26.7440   53.5720 N   0  0  0  0  0  0  0  0  0  0  0  0
   58.7530   28.1340   53.8580 C   0  0  0  0  0  0  0  0  0  0  0  0
   59.4440   28.6420   54.7830 O   0  0  0  0  0  0  0  0  0  0  0  0
   57.8100   28.9740   53.0820 C   0  0  0  0  0  0  0  0  0  0  0  0
   58.2900   29.9630   52.2090 C   0  0  0  0  0  0  0  0  0  0  0  0
   57.3900   30.7470   51.4860 C   0  0  0  0  0  0  0  0  0  0  0  0
   57.8750   31.7530   50.6390 O   0  0  0  0  0  0  0  0  0  0  0  0
   58.9460   31.5450   49.7180 C   0  0  0  0  0  0  0  0  0  0  0  0
   58.9030   32.5900   48.6030 C   0  0  0  0  0  0  0  0  0  0  0  0
   58.7630   31.9230   47.3110 N   0  0  0  0  0  0  0  0  0  0  0  0
   58.1870   33.0540   46.1240 S   0  0  0  0  0  0  0  0  0  0  0  0
   59.2730   34.0450   45.8110 O   0  0  0  0  0  0  0  0  0  0  0  0
   56.9970   33.7910   46.6730 O   0  0  0  0  0  0  0  0  0  0  0  0
   57.7520   32.1920   44.6490 C   0  0  0  0  0  0  0  0  0  0  0  0
   57.0400   30.9870   44.7350 C   0  0  0  0  0  0  0  0  0  0  0  0
   56.6660   30.3070   43.5730 C   0  0  0  0  0  0  0  0  0  0  0  0
   56.9970   30.8270   42.3180 C   0  0  0  0  0  0  0  0  0  0  0  0
   57.7020   32.0310   42.2260 C   0  0  0  0  0  0  0  0  0  0  0  0
   58.0800   32.7130   43.3870 C   0  0  0  0  0  0  0  0  0  0  0  0
   56.0520   30.5380   51.6220 N   0  0  0  0  0  0  0  0  0  0  0  0
   55.5380   29.6050   52.4640 C   0  0  0  0  0  0  0  0  0  0  0  0
   54.2430   29.4850   52.5370 N   0  0  0  0  0  0  0  0  0  0  0  0
   53.3310   30.3770   53.1920 C   0  0  0  0  0  0  0  0  0  0  0  0
   53.2400   30.3450   54.4470 O   0  0  0  0  0  0  0  0  0  0  0  0
   52.4340   31.2560   52.4180 C   0  0  0  0  0  0  0  0  0  0  0  0
   51.4000   32.0240   52.9260 C   0  0  0  0  0  0  0  0  0  0  0  0
   50.7610   32.6770   51.9360 N   0  0  0  0  0  0  0  0  0  0  0  0
   51.3950   32.3120   50.8060 C   0  0  0  0  0  0  0  0  0  0  0  0
   51.0320   32.7690   49.5470 O   0  0  0  0  0  0  0  0  0  0  0  0
   52.4290   31.4360   51.0500 C   0  0  0  0  0  0  0  0  0  0  0  0
   56.4210   28.7940   53.2070 C   0  0  0  0  0  0  0  0  0  0  0  0
   59.6800   26.1890   53.9740 H   0  0  0  0  0  0  0  0  0  0  0  0
   59.3728   30.1196   52.0951 H   0  0  0  0  0  0  0  0  0  0  0  0
   59.9040   31.6251   50.2526 H   0  0  0  0  0  0  0  0  0  0  0  0
   58.8432   30.5445   49.2725 H   0  0  0  0  0  0  0  0  0  0  0  0
   58.0463   33.2611   48.7632 H   0  0  0  0  0  0  0  0  0  0  0  0
   59.8353   33.1738   48.6135 H   0  0  0  0  0  0  0  0  0  0  0  0
   56.7751   30.5758   45.7203 H   0  0  0  0  0  0  0  0  0  0  0  0
   56.1100   29.3606   43.6457 H   0  0  0  0  0  0  0  0  0  0  0  0
   56.7032   30.2896   41.4043 H   0  0  0  0  0  0  0  0  0  0  0  0
   57.9597   32.4424   41.2389 H   0  0  0  0  0  0  0  0  0  0  0  0
   58.6354   33.6595   43.3114 H   0  0  0  0  0  0  0  0  0  0  0  0
   51.1364   32.0917   53.9918 H   0  0  0  0  0  0  0  0  0  0  0  0
   53.1053   30.9783   50.3131 H   0  0  0  0  0  0  0  0  0  0  0  0
   56.0239   28.0223   53.8828 H   0  0  0  0  0  0  0  0  0  0  0  0
  1  2  1  0
  2  3  2  0
  2  4  1  0
  4  5  1  0
  5  6  2  0
  6  7  1  0
  7  8  1  0
  8  9  1  0
  9 10  1  0
 10 11  1  0
 11 12  2  0
 11 13  2  0
 11 14  1  0
 14 15  2  0
 15 16  1  0
 16 17  2  0
 17 18  1  0
 18 19  2  0
  6 20  1  0
 20 21  1  0
 21 22  2  3
 22 23  1  0
 23 24  2  0
 23 25  1  0
 25 26  2  0
 26 27  1  0
 27 28  1  0
 28 29  1  0
 28 30  2  0
 21 31  1  0
 31  4  2  0
 19 14  1  0
 30 25  1  0
  1 32  1  0
  5 33  1  0
  8 34  1  0
  8 35  1  0
  9 36  1  0
  9 37  1  0
 15 38  1  0
 16 39  1  0
 17 40  1  0
 18 41  1  0
 19 42  1  0
 26 43  1  0
 30 44  1  0
 31 45  1  0
M  CHG  5   1  -1  10  -1  20  -1  27  -1  29  -1
M  END
>  <UniqueID>  (30) 
26

>  <SMILES>  (30) 
[NH-]C(=O)c1cc(OCC[N-]S(=O)(=O)c2ccccc2)[n-]c(=NC(=O)c2c[n-]c([O-])c2)c1

>  <Energy>  (30) 
74.0507885108061

>  <Genealogy>  (30) 
[NH-]C(=O)c1cc(OCC[N-]S(=O)(=O)c2ccccc2)[n-]c(=NC(=O)c2c[n-]c([O-])c2)c1 (protonated)
[NH-]C(=O)c1cc(OCC[N-]S(=O)(=O)c2ccccc2)[n-]c(=NC(=O)c2c[n-]c([O-])c2)c1 (3D coordinates assigned)
[NH-]C(=O)c1cc(OCC[N-]S(=O)(=O)c2ccccc2)[n-]c(=NC(=O)c2c[n-]c([O-])c2)c1 (optimized conformer: 74.0507885108061 kcal/mol)

>  <smiles>  (30) 
NC(=O)c1cc(OCCNS(=O)(=O)c2ccccc2)[nH]c(=NC(=O)c2c[nH]c(O)c2)c1

>  <score_type>  (30) 
oracle

>  <origin>  (30) 
adg

>  <m_score__min__energy>  (30) 
-18.629999999999999

>  <m_primary>  (30) 
energy

$$$$
30:0
     RDKit          3D

 32 34  0  0  0  0  0  0  0  0999 V2000
   54.7930   29.3420   44.2710 N   0  0  0  0  0  0  0  0  0  0  0  0
   56.0230   29.8310   43.7430 C   0  0  0  0  0  0  0  0  0  0  0  0
   56.1090   30.1090   42.5170 O   0  0  0  0  0  0  0  0  0  0  0  0
   57.1830   30.0140   44.6250 C   0  0  0  0  0  0  0  0  0  0  0  0
   57.7600   29.0240   45.4230 C   0  0  0  0  0  0  0  0  0  0  0  0
   58.8670   29.4900   46.1490 C   0  0  0  0  0  0  0  0  0  0  0  0
   59.6810   28.7500   47.0280 C   0  0  0  0  0  0  0  0  0  0  0  0
   59.4220   27.0220   47.2990 S   0  0  0  0  0  0  0  0  0  0  0  0
   60.1810   26.2040   46.2910 O   0  0  0  0  0  0  0  0  0  0  0  0
   59.9150   26.6780   48.6760 O   0  0  0  0  0  0  0  0  0  0  0  0
   57.7330   26.6420   47.1870 N   0  0  0  0  0  0  0  0  0  0  0  0
   57.1860   25.5460   46.4410 C   0  0  0  0  0  0  0  0  0  0  0  0
   57.9920   24.4210   46.2300 C   0  0  0  0  0  0  0  0  0  0  0  0
   57.4950   23.3090   45.5450 C   0  0  0  0  0  0  0  0  0  0  0  0
   56.1880   23.3200   45.0520 C   0  0  0  0  0  0  0  0  0  0  0  0
   55.3840   24.4480   45.2300 C   0  0  0  0  0  0  0  0  0  0  0  0
   55.8780   25.5670   45.9100 C   0  0  0  0  0  0  0  0  0  0  0  0
   55.0750   26.6940   46.0200 O   0  0  0  0  0  0  0  0  0  0  0  0
   60.7430   29.4140   47.6750 C   0  0  0  0  0  0  0  0  0  0  0  0
   60.9930   30.7790   47.4360 C   0  0  0  0  0  0  0  0  0  0  0  0
   62.4450   31.6490   48.3180 Br  0  0  0  0  0  0  0  0  0  0  0  0
   60.1840   31.5000   46.5480 C   0  0  0  0  0  0  0  0  0  0  0  0
   59.1350   30.8360   45.9230 C   0  0  0  0  0  0  0  0  0  0  0  0
   58.0310   31.4630   44.8260 S   0  0  0  0  0  0  0  0  0  0  0  0
   54.5730   29.4300   45.2880 H   0  0  0  0  0  0  0  0  0  0  0  0
   57.3872   27.9905   45.4768 H   0  0  0  0  0  0  0  0  0  0  0  0
   59.0255   24.4123   46.6067 H   0  0  0  0  0  0  0  0  0  0  0  0
   58.1326   22.4255   45.3941 H   0  0  0  0  0  0  0  0  0  0  0  0
   55.7921   22.4402   44.5236 H   0  0  0  0  0  0  0  0  0  0  0  0
   54.3578   24.4570   44.8339 H   0  0  0  0  0  0  0  0  0  0  0  0
   61.3844   28.8589   48.3753 H   0  0  0  0  0  0  0  0  0  0  0  0
   60.3743   32.5652   46.3503 H   0  0  0  0  0  0  0  0  0  0  0  0
  1  2  1  0
  2  3  2  0
  2  4  1  0
  4  5  2  0
  5  6  1  0
  6  7  2  0
  7  8  1  0
  8  9  2  0
  8 10  2  0
  8 11  1  0
 11 12  1  0
 12 13  2  0
 13 14  1  0
 14 15  2  0
 15 16  1  0
 16 17  2  0
 17 18  1  0
  7 19  1  0
 19 20  2  0
 20 21  1  0
 20 22  1  0
 22 23  2  0
 23 24  1  0
 24  4  1  0
 23  6  1  0
 17 12  1  0
  1 25  1  0
  5 26  1  0
 13 27  1  0
 14 28  1  0
 15 29  1  0
 16 30  1  0
 19 31  1  0
 22 32  1  0
M  CHG  3   1  -1  11  -1  18  -1
M  END
>  <UniqueID>  (31) 
27

>  <SMILES>  (31) 
[NH-]C(=O)c1cc2c(S(=O)(=O)[N-]c3ccccc3[O-])cc(Br)cc2s1

>  <Energy>  (31) 
70.55949777372736

>  <Genealogy>  (31) 
[NH-]C(=O)c1cc2c(S(=O)(=O)[N-]c3ccccc3[O-])cc(Br)cc2s1 (protonated)
[NH-]C(=O)c1cc2c(S(=O)(=O)[N-]c3ccccc3[O-])cc(Br)cc2s1 (3D coordinates assigned)
[NH-]C(=O)c1cc2c(S(=O)(=O)[N-]c3ccccc3[O-])cc(Br)cc2s1 (optimized conformer: 70.55949777372736 kcal/mol)

>  <smiles>  (31) 
NC(=O)c1cc2c(S(=O)(=O)Nc3ccccc3O)cc(Br)cc2s1

>  <score_type>  (31) 
oracle

>  <origin>  (31) 
adg

>  <m_score__min__energy>  (31) 
-15.800000000000001

>  <m_primary>  (31) 
energy

$$$$
31:0
     RDKit          3D

 56 58  0  0  0  0  0  0  0  0999 V2000
   57.4278   28.1230   43.3462 H   0  0  0  0  0  0  0  0  0  0  0  0
   56.9100   28.9850   43.7920 C   0  0  0  0  0  0  0  0  0  0  0  0
   55.9860   28.7310   44.9100 C   0  0  0  0  0  0  0  0  0  0  0  0
   55.1330   29.5970   45.2450 O   0  0  0  0  0  0  0  0  0  0  0  0
   56.0690   27.4920   45.6180 N   0  0  0  0  0  0  0  0  0  0  0  0
   57.3330   26.8180   45.8910 C   0  0  0  0  0  0  0  0  0  0  0  0
   57.1824   26.0645   46.6782 H   0  0  0  0  0  0  0  0  0  0  0  0
   57.6892   26.3287   44.9724 H   0  0  0  0  0  0  0  0  0  0  0  0
   58.3580   27.8210   46.3490 C   0  0  0  0  0  0  0  0  0  0  0  0
   59.4170   28.1940   45.5080 C   0  0  0  0  0  0  0  0  0  0  0  0
   59.5355   27.7062   44.5292 H   0  0  0  0  0  0  0  0  0  0  0  0
   60.3230   29.1820   45.9060 C   0  0  0  0  0  0  0  0  0  0  0  0
   61.1525   29.4626   45.2403 H   0  0  0  0  0  0  0  0  0  0  0  0
   60.1810   29.8190   47.1510 C   0  0  0  0  0  0  0  0  0  0  0  0
   61.1370   30.8640   47.5850 C   0  0  0  0  0  0  0  0  0  0  0  0
   61.3030   31.8910   46.8720 O   0  0  0  0  0  0  0  0  0  0  0  0
   61.8900   30.7120   48.8000 N   0  0  0  0  0  0  0  0  0  0  0  0
   62.0670   29.7460   49.1510 H   0  0  0  0  0  0  0  0  0  0  0  0
   62.6880   31.7730   49.3420 C   0  0  0  0  0  0  0  0  0  0  0  0
   62.4880   32.1580   50.6770 C   0  0  0  0  0  0  0  0  0  0  0  0
   61.7151   31.6580   51.2792 H   0  0  0  0  0  0  0  0  0  0  0  0
   63.2620   33.1700   51.2460 C   0  0  0  0  0  0  0  0  0  0  0  0
   63.1006   33.4617   52.2943 H   0  0  0  0  0  0  0  0  0  0  0  0
   64.2400   33.8120   50.4870 C   0  0  0  0  0  0  0  0  0  0  0  0
   64.8572   34.6014   50.9408 H   0  0  0  0  0  0  0  0  0  0  0  0
   64.4370   33.4540   49.1510 C   0  0  0  0  0  0  0  0  0  0  0  0
   65.2078   33.9661   48.5563 H   0  0  0  0  0  0  0  0  0  0  0  0
   63.6580   32.4450   48.5620 C   0  0  0  0  0  0  0  0  0  0  0  0
   63.8280   32.1540   47.1690 N   0  0  0  0  0  0  0  0  0  0  0  0
   64.7780   32.1800   46.7350 H   0  0  0  0  0  0  0  0  0  0  0  0
   63.0130   31.9830   46.5400 H   0  0  0  0  0  0  0  0  0  0  0  0
   59.1240   29.4350   47.9950 C   0  0  0  0  0  0  0  0  0  0  0  0
   59.0099   29.9132   48.9790 H   0  0  0  0  0  0  0  0  0  0  0  0
   58.2170   28.4500   47.5930 C   0  0  0  0  0  0  0  0  0  0  0  0
   57.3874   28.1670   48.2576 H   0  0  0  0  0  0  0  0  0  0  0  0
   57.1610   30.2010   43.2820 C   0  0  0  0  0  0  0  0  0  0  0  0
   56.9458   30.3629   42.2155 H   0  0  0  0  0  0  0  0  0  0  0  0
   57.7080   31.3410   44.0560 C   0  0  0  0  0  0  0  0  0  0  0  0
   57.7330   31.2970   45.4600 C   0  0  0  0  0  0  0  0  0  0  0  0
   57.3600   30.4041   45.9832 H   0  0  0  0  0  0  0  0  0  0  0  0
   58.2260   32.3740   46.1980 C   0  0  0  0  0  0  0  0  0  0  0  0
   58.2539   32.3145   47.2960 H   0  0  0  0  0  0  0  0  0  0  0  0
   58.6880   33.5360   45.5510 C   0  0  0  0  0  0  0  0  0  0  0  0
   59.2060   34.6550   46.3140 N   0  0  0  0  0  0  0  0  0  0  0  0
   59.2840   34.5840   47.7790 C   0  0  0  0  0  0  0  0  0  0  0  0
   58.5385   35.2626   48.2192 H   0  0  0  0  0  0  0  0  0  0  0  0
   59.0814   33.5539   48.1075 H   0  0  0  0  0  0  0  0  0  0  0  0
   60.2905   34.8823   48.1075 H   0  0  0  0  0  0  0  0  0  0  0  0
   59.6850   35.8630   45.6350 C   0  0  0  0  0  0  0  0  0  0  0  0
   59.9818   36.6116   46.3844 H   0  0  0  0  0  0  0  0  0  0  0  0
   60.5512   35.6108   45.0056 H   0  0  0  0  0  0  0  0  0  0  0  0
   58.8814   36.2729   45.0056 H   0  0  0  0  0  0  0  0  0  0  0  0
   58.6350   33.5860   44.1440 C   0  0  0  0  0  0  0  0  0  0  0  0
   58.9851   34.4882   43.6210 H   0  0  0  0  0  0  0  0  0  0  0  0
   58.1440   32.5060   43.4010 C   0  0  0  0  0  0  0  0  0  0  0  0
   58.1260   32.6320   41.6440 Cl  0  0  0  0  0  0  0  0  0  0  0  0
  1  2  1  0
  2  3  1  0
  3  4  2  0
  3  5  1  0
  5  6  1  0
  6  7  1  0
  6  8  1  0
  6  9  1  0
  9 10  2  0
 10 11  1  0
 10 12  1  0
 12 13  1  0
 12 14  2  0
 14 15  1  0
 15 16  2  0
 15 17  1  0
 17 18  1  0
 17 19  1  0
 19 20  2  0
 20 21  1  0
 20 22  1  0
 22 23  1  0
 22 24  2  0
 24 25  1  0
 24 26  1  0
 26 27  1  0
 26 28  2  0
 28 29  1  0
 29 30  1  0
 29 31  1  0
 14 32  1  0
 32 33  1  0
 32 34  2  0
 34 35  1  0
  2 36  2  0
 36 37  1  0
 36 38  1  0
 38 39  2  0
 39 40  1  0
 39 41  1  0
 41 42  1  0
 41 43  2  0
 43 44  1  0
 44 45  1  0
 45 46  1  0
 45 47  1  0
 45 48  1  0
 44 49  1  0
 49 50  1  0
 49 51  1  0
 49 52  1  0
 43 53  1  0
 53 54  1  0
 53 55  2  0
 55 56  1  0
 34  9  1  0
 55 38  1  0
 28 19  1  0
M  CHG  1   5  -1
M  END
>  <UniqueID>  (32) 
28

>  <SMILES>  (32) 
CN(C)c1ccc(/C=C\C(=O)[N-]Cc2ccc(C(=O)Nc3ccccc3N)cc2)c(Cl)c1

>  <Energy>  (32) 
70.28556135903928

>  <Genealogy>  (32) 
CN(C)c1ccc(C=CC(=O)[N-]Cc2ccc(C(=O)Nc3ccccc3N)cc2)c(Cl)c1 (protonated)
CN(C)c1ccc(/C=C\C(=O)[N-]Cc2ccc(C(=O)Nc3ccccc3N)cc2)c(Cl)c1 (cis-trans isomerization)
CN(C)c1ccc(/C=C\C(=O)[N-]Cc2ccc(C(=O)Nc3ccccc3N)cc2)c(Cl)c1 (3D coordinates assigned)
CN(C)c1ccc(/C=C\C(=O)[N-]Cc2ccc(C(=O)Nc3ccccc3N)cc2)c(Cl)c1 (optimized conformer: 70.28556135903928 kcal/mol)

>  <smiles>  (32) 
CN(C)c1ccc(C=CC(=O)NCc2ccc(C(=O)Nc3ccccc3N)cc2)c(Cl)c1

>  <score_type>  (32) 
oracle

>  <origin>  (32) 
adg

>  <m_score__min__energy>  (32) 
-10.539999999999999

>  <m_primary>  (32) 
energy

$$$$
32:0
     RDKit          3D

 45 47  0  0  1  0  0  0  0  0999 V2000
   56.0390   31.1430   44.7130 O   0  0  0  0  0  0  0  0  0  0  0  0
   56.8490   30.4480   44.0380 C   0  0  0  0  0  0  0  0  0  0  0  0
   56.6940   28.9930   43.9060 C   0  0  0  0  0  0  0  0  0  0  0  0
   57.6770   28.1380   43.9910 C   0  0  0  0  0  0  0  0  0  0  0  0
   58.0160   27.3800   45.1930 C   0  0  0  0  0  0  0  0  0  0  0  0
   58.5550   28.0080   46.3120 C   0  0  0  0  0  0  0  0  0  0  0  0
   58.8620   27.3080   47.4710 C   0  0  0  0  0  0  0  0  0  0  0  0
   58.6310   25.9520   47.5340 C   0  0  0  0  0  0  0  0  0  0  0  0
   58.1020   25.3410   46.4300 C   0  0  0  0  0  0  0  0  0  0  0  0
   57.7870   26.0270   45.2510 C   0  0  0  0  0  0  0  0  0  0  0  0
   57.2660   25.2050   44.1380 C   0  0  0  0  0  0  0  0  0  0  0  0
   56.0200   24.5020   44.5040 C   0  0  0  0  0  0  0  0  0  0  0  0
   55.0670   25.0500   45.3450 C   0  0  0  0  0  0  0  0  0  0  0  0
   55.0640   26.2710   46.0030 O   0  0  0  0  0  0  0  0  0  0  0  0
   54.0220   24.1820   45.4780 N   0  0  0  0  0  0  0  0  0  0  0  0
   54.3170   23.1370   44.7450 N   0  0  0  0  0  0  0  0  0  0  0  0
   55.5120   23.2800   44.1370 C   0  0  0  0  0  0  0  0  0  0  0  0
   55.9950   22.4120   43.3900 O   0  0  0  0  0  0  0  0  0  0  0  0
   57.9170   31.1630   43.4200 N   0  0  0  0  0  0  0  0  0  0  0  0
   58.1040   32.5880   43.5290 C   0  0  0  0  0  0  0  0  0  0  0  0
   58.4590   33.0850   44.8500 C   0  0  0  0  0  0  0  0  0  0  0  0
   58.9130   34.4040   44.9430 C   0  0  0  0  0  0  0  0  0  0  0  0
   59.2690   34.9710   46.1490 C   0  0  0  0  0  0  0  0  0  0  0  0
   59.1970   34.2590   47.3250 C   0  0  0  0  0  0  0  0  0  0  0  0
   58.7470   32.9470   47.2380 C   0  0  0  0  0  0  0  0  0  0  0  0
   58.3880   32.3790   46.0290 C   0  0  0  0  0  0  0  0  0  0  0  0
   55.6836   28.5982   43.7236 H   0  0  0  0  0  0  0  0  0  0  0  0
   58.2935   27.9770   43.0943 H   0  0  0  0  0  0  0  0  0  0  0  0
   58.7434   29.0912   46.2771 H   0  0  0  0  0  0  0  0  0  0  0  0
   59.2888   27.8354   48.3369 H   0  0  0  0  0  0  0  0  0  0  0  0
   58.8644   25.3782   48.4430 H   0  0  0  0  0  0  0  0  0  0  0  0
   57.9151   24.2578   46.4708 H   0  0  0  0  0  0  0  0  0  0  0  0
   57.0644   25.8597   43.2774 H   0  0  0  0  0  0  0  0  0  0  0  0
   58.0240   24.4465   43.8928 H   0  0  0  0  0  0  0  0  0  0  0  0
   55.1470   26.3480   47.0190 H   0  0  0  0  0  0  0  0  0  0  0  0
   53.1590   24.3140   46.0440 H   0  0  0  0  0  0  0  0  0  0  0  0
   53.6820   22.3060   44.6630 H   0  0  0  0  0  0  0  0  0  0  0  0
   58.6320   30.6490   42.8400 H   0  0  0  0  0  0  0  0  0  0  0  0
   58.9063   32.8764   42.8339 H   0  0  0  0  0  0  0  0  0  0  0  0
   57.1258   33.0344   43.2969 H   0  0  0  0  0  0  0  0  0  0  0  0
   58.9886   35.0079   44.0267 H   0  0  0  0  0  0  0  0  0  0  0  0
   59.6178   36.0140   46.1715 H   0  0  0  0  0  0  0  0  0  0  0  0
   59.4822   34.7074   48.2881 H   0  0  0  0  0  0  0  0  0  0  0  0
   58.6744   32.3441   48.1552 H   0  0  0  0  0  0  0  0  0  0  0  0
   58.0369   31.3367   46.0095 H   0  0  0  0  0  0  0  0  0  0  0  0
  1  2  2  0
  2  3  1  0
  3  4  2  0
  4  5  1  0
  5  6  2  0
  6  7  1  0
  7  8  2  0
  8  9  1  0
  9 10  2  0
 10 11  1  0
 11 12  1  0
 12 13  2  0
 13 14  1  0
 13 15  1  0
 15 16  1  0
 16 17  1  0
 17 18  2  0
  2 19  1  0
 19 20  1  0
 20 21  1  0
 21 22  2  0
 22 23  1  0
 23 24  2  0
 24 25  1  0
 25 26  2  0
 10  5  1  0
 17 12  1  0
 26 21  1  0
  3 27  1  0
  4 28  1  0
  6 29  1  0
  7 30  1  0
  8 31  1  0
  9 32  1  0
 11 33  1  0
 11 34  1  0
 14 35  1  0
 15 36  1  0
 16 37  1  0
 19 38  1  0
 20 39  1  0
 20 40  1  0
 22 41  1  0
 23 42  1  0
 24 43  1  0
 25 44  1  0
 26 45  1  0
M  END
>  <smiles>  (33) 
O=C(C=Cc1ccccc1Cc1c(O)[nH][nH]c1=O)NCc1ccccc1

>  <score_type>  (33) 
oracle

>  <origin>  (33) 
adg

>  <m_score__min__energy>  (33) 
-10.109999999999999

>  <m_primary>  (33) 
energy

$$$$
33:0
     RDKit          3D

 64 66  0  0  0  0  0  0  0  0999 V2000
   54.7690   26.3380   46.0300 N   0  0  0  0  0  0  0  0  0  0  0  0
   56.4160   25.8240   46.1440 S   0  0  0  0  0  0  0  0  0  0  0  0
   56.7260   24.9040   44.9970 O   0  0  0  0  0  0  0  0  0  0  0  0
   56.6250   25.0840   47.4360 O   0  0  0  0  0  0  0  0  0  0  0  0
   57.4730   27.2320   46.1020 C   0  0  0  0  0  0  0  0  0  0  0  0
   58.7540   27.1820   46.6670 C   0  0  0  0  0  0  0  0  0  0  0  0
   59.5740   28.3120   46.6400 C   0  0  0  0  0  0  0  0  0  0  0  0
   59.1260   29.4940   46.0430 C   0  0  0  0  0  0  0  0  0  0  0  0
   57.8490   29.5550   45.4510 C   0  0  0  0  0  0  0  0  0  0  0  0
   57.3550   30.8000   44.8080 C   0  0  0  0  0  0  0  0  0  0  0  0
   56.1310   30.8980   44.5170 O   0  0  0  0  0  0  0  0  0  0  0  0
   58.2440   31.8880   44.5000 N   0  0  0  0  0  0  0  0  0  0  0  0
   57.7730   33.1490   43.9320 C   0  0  0  0  0  0  0  0  0  0  0  0
   57.3240   34.0670   45.0220 C   0  0  0  0  0  0  0  0  0  0  0  0
   56.2760   34.7500   44.8770 O   0  0  0  0  0  0  0  0  0  0  0  0
   58.0910   34.1590   46.2270 N   0  0  0  0  0  0  0  0  0  0  0  0
   59.2330   35.0540   46.3900 C   0  0  0  0  0  0  0  0  0  0  0  0
   60.4270   34.3090   46.9980 C   0  0  0  0  0  0  0  0  0  0  0  0
   59.9930   33.4310   48.1420 C   0  0  0  0  0  0  0  0  0  0  0  0
   60.0510   33.9090   49.4600 C   0  0  0  0  0  0  0  0  0  0  0  0
   59.5980   33.1170   50.5180 C   0  0  0  0  0  0  0  0  0  0  0  0
   59.0730   31.8430   50.2720 C   0  0  0  0  0  0  0  0  0  0  0  0
   58.4630   30.8840   51.6170 S   0  0  0  0  0  0  0  0  0  0  0  0
   57.0560   30.4550   51.3050 O   0  0  0  0  0  0  0  0  0  0  0  0
   58.4480   31.6950   52.8830 O   0  0  0  0  0  0  0  0  0  0  0  0
   59.4570   29.4730   51.8310 N   0  0  0  0  0  0  0  0  0  0  0  0
   60.8780   29.8240   51.8360 C   0  0  0  0  0  0  0  0  0  0  0  0
   61.4140   29.8840   50.4320 C   0  0  0  0  0  0  0  0  0  0  0  0
   61.1010   28.9540   49.6360 O   0  0  0  0  0  0  0  0  0  0  0  0
   62.2490   30.9740   49.9700 N   0  0  0  0  0  0  0  0  0  0  0  0
   62.3800   31.2080   48.5250 C   0  0  0  0  0  0  0  0  0  0  0  0
   63.6930   31.9350   48.2180 C   0  0  0  0  0  0  0  0  0  0  0  0
   63.8190   33.0960   49.0120 O   0  0  0  0  0  0  0  0  0  0  0  0
   63.9390   32.7260   50.3710 C   0  0  0  0  0  0  0  0  0  0  0  0
   62.6540   32.0590   50.8760 C   0  0  0  0  0  0  0  0  0  0  0  0
   59.0050   31.3640   48.9570 C   0  0  0  0  0  0  0  0  0  0  0  0
   59.4620   32.1540   47.8980 C   0  0  0  0  0  0  0  0  0  0  0  0
   57.0270   28.4130   45.4940 C   0  0  0  0  0  0  0  0  0  0  0  0
   54.6360   27.0930   46.7390 H   0  0  0  0  0  0  0  0  0  0  0  0
   59.1140   26.2524   47.1320 H   0  0  0  0  0  0  0  0  0  0  0  0
   60.5768   28.2719   47.0904 H   0  0  0  0  0  0  0  0  0  0  0  0
   59.7748   30.3823   46.0354 H   0  0  0  0  0  0  0  0  0  0  0  0
   59.2760   31.7390   44.5300 H   0  0  0  0  0  0  0  0  0  0  0  0
   58.5915   33.6235   43.3708 H   0  0  0  0  0  0  0  0  0  0  0  0
   56.9261   32.9470   43.2597 H   0  0  0  0  0  0  0  0  0  0  0  0
   59.5206   35.4542   45.4066 H   0  0  0  0  0  0  0  0  0  0  0  0
   58.9459   35.8717   47.0675 H   0  0  0  0  0  0  0  0  0  0  0  0
   60.8932   33.6839   46.2222 H   0  0  0  0  0  0  0  0  0  0  0  0
   61.1441   35.0508   47.3795 H   0  0  0  0  0  0  0  0  0  0  0  0
   60.4551   34.9121   49.6612 H   0  0  0  0  0  0  0  0  0  0  0  0
   59.6542   33.4963   51.5490 H   0  0  0  0  0  0  0  0  0  0  0  0
   61.0059   30.8064   52.3140 H   0  0  0  0  0  0  0  0  0  0  0  0
   61.4312   29.0542   52.3939 H   0  0  0  0  0  0  0  0  0  0  0  0
   62.3692   30.2419   47.9991 H   0  0  0  0  0  0  0  0  0  0  0  0
   61.5395   31.8320   48.1872 H   0  0  0  0  0  0  0  0  0  0  0  0
   64.5365   31.2609   48.4279 H   0  0  0  0  0  0  0  0  0  0  0  0
   63.6942   32.2299   47.1583 H   0  0  0  0  0  0  0  0  0  0  0  0
   64.7763   32.0209   50.4790 H   0  0  0  0  0  0  0  0  0  0  0  0
   64.1192   33.6335   50.9660 H   0  0  0  0  0  0  0  0  0  0  0  0
   62.8307   31.6458   51.8800 H   0  0  0  0  0  0  0  0  0  0  0  0
   61.8522   32.8112   50.9123 H   0  0  0  0  0  0  0  0  0  0  0  0
   58.5913   30.3645   48.7575 H   0  0  0  0  0  0  0  0  0  0  0  0
   59.4053   31.7731   46.8676 H   0  0  0  0  0  0  0  0  0  0  0  0
   56.0233   28.4482   45.0453 H   0  0  0  0  0  0  0  0  0  0  0  0
  1  2  1  0
  2  3  2  0
  2  4  2  0
  2  5  1  0
  5  6  2  0
  6  7  1  0
  7  8  2  0
  8  9  1  0
  9 10  1  0
 10 11  2  0
 10 12  1  0
 12 13  1  0
 13 14  1  0
 14 15  2  0
 14 16  1  0
 16 17  1  0
 17 18  1  0
 18 19  1  0
 19 20  2  0
 20 21  1  0
 21 22  2  0
 22 23  1  0
 23 24  2  0
 23 25  2  0
 23 26  1  0
 26 27  1  0
 27 28  1  0
 28 29  2  0
 28 30  1  0
 30 31  1  0
 31 32  1  0
 32 33  1  0
 33 34  1  0
 34 35  1  0
 22 36  1  0
 36 37  2  0
  9 38  2  0
 38  5  1  0
 37 19  1  0
 35 30  1  0
  1 39  1  0
  6 40  1  0
  7 41  1  0
  8 42  1  0
 12 43  1  0
 13 44  1  0
 13 45  1  0
 17 46  1  0
 17 47  1  0
 18 48  1  0
 18 49  1  0
 20 50  1  0
 21 51  1  0
 27 52  1  0
 27 53  1  0
 31 54  1  0
 31 55  1  0
 32 56  1  0
 32 57  1  0
 34 58  1  0
 34 59  1  0
 35 60  1  0
 35 61  1  0
 36 62  1  0
 37 63  1  0
 38 64  1  0
M  CHG  3   1  -1  16  -1  26  -1
M  END
>  <UniqueID>  (34) 
29

>  <SMILES>  (34) 
[NH-]S(=O)(=O)c1cccc(C(=O)NCC(=O)[N-]CCc2ccc(S(=O)(=O)[N-]CC(=O)N3CCOCC3)cc2)c1

>  <Energy>  (34) 
60.42704208027171

>  <Genealogy>  (34) 
[NH-]S(=O)(=O)c1cccc(C(=O)NCC(=O)[N-]CCc2ccc(S(=O)(=O)[N-]CC(=O)N3CCOCC3)cc2)c1 (protonated)
[NH-]S(=O)(=O)c1cccc(C(=O)NCC(=O)[N-]CCc2ccc(S(=O)(=O)[N-]CC(=O)N3CCOCC3)cc2)c1 (3D coordinates assigned)
[NH-]S(=O)(=O)c1cccc(C(=O)NCC(=O)[N-]CCc2ccc(S(=O)(=O)[N-]CC(=O)N3CCOCC3)cc2)c1 (nonaromatic ring conformer: 60.42704208027171 kcal/mol)

>  <smiles>  (34) 
NS(=O)(=O)c1cccc(C(=O)NCC(=O)NCCc2ccc(S(=O)(=O)NCC(=O)N3CCOCC3)cc2)c1

>  <score_type>  (34) 
oracle

>  <origin>  (34) 
adg

>  <m_score__min__energy>  (34) 
-15.76

>  <m_primary>  (34) 
energy

$$$$
34:0
     RDKit          3D

 40 42  0  0  0  0  0  0  0  0999 V2000
   59.4440   28.1800   43.9750 O   0  0  0  0  0  0  0  0  0  0  0  0
   58.6490   28.5390   44.8870 C   0  0  0  0  0  0  0  0  0  0  0  0
   57.1770   28.3270   44.6620 C   0  0  0  0  0  0  0  0  0  0  0  0
   56.5630   29.3470   43.2730 S   0  0  0  0  0  0  0  0  0  0  0  0
   57.2730   30.8750   43.8870 C   0  0  0  0  0  0  0  0  0  0  0  0
   57.0830   31.2280   45.1840 N   0  0  0  0  0  0  0  0  0  0  0  0
   57.5900   32.3850   45.6800 C   0  0  0  0  0  0  0  0  0  0  0  0
   57.3850   32.6820   46.8870 O   0  0  0  0  0  0  0  0  0  0  0  0
   58.3330   33.2370   44.8450 C   0  0  0  0  0  0  0  0  0  0  0  0
   58.8730   34.5580   45.3320 C   0  0  0  0  0  0  0  0  0  0  0  0
   59.8900   34.3380   46.4190 C   0  0  0  0  0  0  0  0  0  0  0  0
   59.5590   34.5900   47.7600 C   0  0  0  0  0  0  0  0  0  0  0  0
   60.4930   34.3510   48.7740 C   0  0  0  0  0  0  0  0  0  0  0  0
   61.7580   33.8520   48.4570 C   0  0  0  0  0  0  0  0  0  0  0  0
   62.0930   33.5900   47.1260 C   0  0  0  0  0  0  0  0  0  0  0  0
   61.1630   33.8270   46.1090 C   0  0  0  0  0  0  0  0  0  0  0  0
   58.5100   32.8520   43.5100 C   0  0  0  0  0  0  0  0  0  0  0  0
   57.9860   31.6820   43.0580 N   0  0  0  0  0  0  0  0  0  0  0  0
   59.1940   29.1240   46.1440 C   0  0  0  0  0  0  0  0  0  0  0  0
   58.5390   28.8850   47.3690 C   0  0  0  0  0  0  0  0  0  0  0  0
   59.0320   29.4280   48.5590 C   0  0  0  0  0  0  0  0  0  0  0  0
   60.1830   30.2180   48.5450 C   0  0  0  0  0  0  0  0  0  0  0  0
   60.8540   30.9610   50.1720 Br  0  0  0  0  0  0  0  0  0  0  0  0
   60.8440   30.4630   47.3390 C   0  0  0  0  0  0  0  0  0  0  0  0
   60.3560   29.9220   46.1460 C   0  0  0  0  0  0  0  0  0  0  0  0
   56.9986   27.2659   44.4335 H   0  0  0  0  0  0  0  0  0  0  0  0
   56.6400   28.6242   45.5748 H   0  0  0  0  0  0  0  0  0  0  0  0
   59.3477   35.0875   44.4928 H   0  0  0  0  0  0  0  0  0  0  0  0
   58.0430   35.1571   45.7347 H   0  0  0  0  0  0  0  0  0  0  0  0
   58.5612   34.9769   48.0145 H   0  0  0  0  0  0  0  0  0  0  0  0
   60.2304   34.5565   49.8222 H   0  0  0  0  0  0  0  0  0  0  0  0
   62.4912   33.6651   49.2555 H   0  0  0  0  0  0  0  0  0  0  0  0
   63.0899   33.1967   46.8778 H   0  0  0  0  0  0  0  0  0  0  0  0
   61.4280   33.6130   45.0631 H   0  0  0  0  0  0  0  0  0  0  0  0
   59.0758   33.4996   42.8240 H   0  0  0  0  0  0  0  0  0  0  0  0
   58.1260   31.4100   42.0590 H   0  0  0  0  0  0  0  0  0  0  0  0
   57.6307   28.2649   47.3888 H   0  0  0  0  0  0  0  0  0  0  0  0
   58.5120   29.2324   49.5084 H   0  0  0  0  0  0  0  0  0  0  0  0
   61.7519   31.0840   47.3281 H   0  0  0  0  0  0  0  0  0  0  0  0
   60.8830   30.1206   45.2011 H   0  0  0  0  0  0  0  0  0  0  0  0
  1  2  2  0
  2  3  1  0
  3  4  1  0
  4  5  1  0
  5  6  2  0
  6  7  1  0
  7  8  2  0
  7  9  1  0
  9 10  1  0
 10 11  1  0
 11 12  2  0
 12 13  1  0
 13 14  2  0
 14 15  1  0
 15 16  2  0
  9 17  2  0
 17 18  1  0
  2 19  1  0
 19 20  2  0
 20 21  1  0
 21 22  2  0
 22 23  1  0
 22 24  1  0
 24 25  2  0
 18  5  1  0
 25 19  1  0
 16 11  1  0
  3 26  1  0
  3 27  1  0
 10 28  1  0
 10 29  1  0
 12 30  1  0
 13 31  1  0
 14 32  1  0
 15 33  1  0
 16 34  1  0
 17 35  1  0
 18 36  1  0
 20 37  1  0
 21 38  1  0
 24 39  1  0
 25 40  1  0
M  END
>  <UniqueID>  (35) 
30

>  <SMILES>  (35) 
O=C(CSc1nc(=O)c(Cc2ccccc2)c[nH]1)c1ccc(Br)cc1

>  <Energy>  (35) 
39.4976911297586

>  <Genealogy>  (35) 
O=C(CSc1nc(=O)c(Cc2ccccc2)c[nH]1)c1ccc(Br)cc1 (3D coordinates assigned)
O=C(CSc1nc(=O)c(Cc2ccccc2)c[nH]1)c1ccc(Br)cc1 (optimized conformer: 39.4976911297586 kcal/mol)

>  <smiles>  (35) 
O=C(CSc1nc(=O)c(Cc2ccccc2)c[nH]1)c1ccc(Br)cc1

>  <score_type>  (35) 
oracle

>  <origin>  (35) 
adg

>  <m_score__min__energy>  (35) 
-9.3000000000000007

>  <m_primary>  (35) 
energy

$$$$
35:0
     RDKit          3D

 44 46  0  0  0  0  0  0  0  0999 V2000
   56.8340   28.7070   45.3070 O   0  0  0  0  0  0  0  0  0  0  0  0
   58.0910   28.7810   45.2330 C   0  0  0  0  0  0  0  0  0  0  0  0
   58.7510   30.0530   45.3350 N   0  0  0  0  0  0  0  0  0  0  0  0
   58.0550   31.3090   45.3920 C   0  0  0  0  0  0  0  0  0  0  0  0
   56.8360   31.3730   45.0710 O   0  0  0  0  0  0  0  0  0  0  0  0
   58.7650   32.5520   45.7750 C   0  0  0  0  0  0  0  0  0  0  0  0
   60.0400   32.4640   46.3620 C   0  0  0  0  0  0  0  0  0  0  0  0
   60.7300   33.6190   46.7420 C   0  0  0  0  0  0  0  0  0  0  0  0
   62.4540   33.4790   47.5540 Br  0  0  0  0  0  0  0  0  0  0  0  0
   60.1570   34.8750   46.5330 C   0  0  0  0  0  0  0  0  0  0  0  0
   58.9010   34.9790   45.9320 C   0  0  0  0  0  0  0  0  0  0  0  0
   58.2030   33.8270   45.5410 C   0  0  0  0  0  0  0  0  0  0  0  0
   56.9710   33.9530   44.9000 O   0  0  0  0  0  0  0  0  0  0  0  0
   58.8760   27.5870   45.0990 N   0  0  0  0  0  0  0  0  0  0  0  0
   58.3110   26.2910   44.8480 C   0  0  0  0  0  0  0  0  0  0  0  0
   58.3440   25.3210   45.8620 C   0  0  0  0  0  0  0  0  0  0  0  0
   57.8000   24.0470   45.6540 C   0  0  0  0  0  0  0  0  0  0  0  0
   57.8590   23.0920   46.7240 N   0  0  0  0  0  0  0  0  0  0  0  0
   56.7580   22.6280   47.5180 C   0  0  0  0  0  0  0  0  0  0  0  0
   56.9510   22.2480   48.7050 O   0  0  0  0  0  0  0  0  0  0  0  0
   55.4020   22.5410   46.9270 C   0  0  0  0  0  0  0  0  0  0  0  0
   54.7200   21.3090   46.8790 C   0  0  0  0  0  0  0  0  0  0  0  0
   53.4410   21.2280   46.3210 C   0  0  0  0  0  0  0  0  0  0  0  0
   52.8270   22.3720   45.8050 C   0  0  0  0  0  0  0  0  0  0  0  0
   51.5560   22.2880   45.2500 O   0  0  0  0  0  0  0  0  0  0  0  0
   53.4920   23.6000   45.8480 C   0  0  0  0  0  0  0  0  0  0  0  0
   54.7720   23.6870   46.4050 C   0  0  0  0  0  0  0  0  0  0  0  0
   57.2690   23.7240   44.3930 C   0  0  0  0  0  0  0  0  0  0  0  0
   57.2600   24.6750   43.3710 C   0  0  0  0  0  0  0  0  0  0  0  0
   57.7800   25.9530   43.5900 C   0  0  0  0  0  0  0  0  0  0  0  0
   57.8140   26.8350   42.5600 F   0  0  0  0  0  0  0  0  0  0  0  0
   59.7950   30.0620   45.3230 H   0  0  0  0  0  0  0  0  0  0  0  0
   60.4986   31.4773   46.5236 H   0  0  0  0  0  0  0  0  0  0  0  0
   60.6954   35.7831   46.8420 H   0  0  0  0  0  0  0  0  0  0  0  0
   58.4560   35.9709   45.7641 H   0  0  0  0  0  0  0  0  0  0  0  0
   56.4010   33.1460   44.6790 H   0  0  0  0  0  0  0  0  0  0  0  0
   59.8950   27.6440   45.3290 H   0  0  0  0  0  0  0  0  0  0  0  0
   58.8026   25.5642   46.8318 H   0  0  0  0  0  0  0  0  0  0  0  0
   55.1975   20.4044   47.2836 H   0  0  0  0  0  0  0  0  0  0  0  0
   52.9168   20.2615   46.2881 H   0  0  0  0  0  0  0  0  0  0  0  0
   53.0077   24.5007   45.4428 H   0  0  0  0  0  0  0  0  0  0  0  0
   55.2899   24.6570   46.4355 H   0  0  0  0  0  0  0  0  0  0  0  0
   56.8596   22.7194   44.2111 H   0  0  0  0  0  0  0  0  0  0  0  0
   56.8409   24.4165   42.3874 H   0  0  0  0  0  0  0  0  0  0  0  0
  1  2  2  0
  2  3  1  0
  3  4  1  0
  4  5  2  0
  4  6  1  0
  6  7  2  0
  7  8  1  0
  8  9  1  0
  8 10  2  0
 10 11  1  0
 11 12  2  0
 12 13  1  0
  2 14  1  0
 14 15  1  0
 15 16  2  0
 16 17  1  0
 17 18  1  0
 18 19  1  0
 19 20  2  0
 19 21  1  0
 21 22  2  0
 22 23  1  0
 23 24  2  0
 24 25  1  0
 24 26  1  0
 26 27  2  0
 17 28  2  0
 28 29  1  0
 29 30  2  0
 30 31  1  0
 12  6  1  0
 30 15  1  0
 27 21  1  0
  3 32  1  0
  7 33  1  0
 10 34  1  0
 11 35  1  0
 13 36  1  0
 14 37  1  0
 16 38  1  0
 22 39  1  0
 23 40  1  0
 26 41  1  0
 27 42  1  0
 28 43  1  0
 29 44  1  0
M  CHG  2  18  -1  25  -1
M  END
>  <UniqueID>  (36) 
31

>  <SMILES>  (36) 
O=C(NC(=O)c1cc(Br)ccc1O)Nc1cc([N-]C(=O)c2ccc([O-])cc2)ccc1F

>  <Energy>  (36) 
59.997326742279576

>  <Genealogy>  (36) 
O=C(NC(=O)c1cc(Br)ccc1O)Nc1cc([N-]C(=O)c2ccc([O-])cc2)ccc1F (protonated)
O=C(NC(=O)c1cc(Br)ccc1O)Nc1cc([N-]C(=O)c2ccc([O-])cc2)ccc1F (3D coordinates assigned)
O=C(NC(=O)c1cc(Br)ccc1O)Nc1cc([N-]C(=O)c2ccc([O-])cc2)ccc1F (optimized conformer: 59.997326742279576 kcal/mol)

>  <smiles>  (36) 
O=C(NC(=O)c1cc(Br)ccc1O)Nc1cc(NC(=O)c2ccc(O)cc2)ccc1F

>  <score_type>  (36) 
oracle

>  <origin>  (36) 
adg

>  <m_score__min__energy>  (36) 
-13.720000000000001

>  <m_primary>  (36) 
energy

$$$$
36:0
     RDKit          3D

 73 77  0  0  0  0  0  0  0  0999 V2000
   58.0440   32.3390   41.2410 C   0  0  0  0  0  0  0  0  0  0  0  0
   57.7330   32.1430   42.6940 C   0  0  0  0  0  0  0  0  0  0  0  0
   58.1370   33.0880   43.6490 C   0  0  0  0  0  0  0  0  0  0  0  0
   57.7950   32.9010   44.9950 C   0  0  0  0  0  0  0  0  0  0  0  0
   58.1330   33.9410   46.0220 C   0  0  0  0  0  0  0  0  0  0  0  0
   59.3010   33.5010   46.7910 N   0  0  0  0  0  0  0  0  0  0  0  0
   60.6230   34.0430   46.4530 C   0  0  0  0  0  0  0  0  0  0  0  0
   61.7440   33.3030   47.1860 C   0  0  0  0  0  0  0  0  0  0  0  0
   61.4880   31.7940   47.1150 C   0  0  0  0  0  0  0  0  0  0  0  0
   60.2100   31.3560   47.9070 C   0  0  2  0  0  0  0  0  0  0  0  0
   60.5810   31.1880   49.3970 C   0  0  0  0  0  0  0  0  0  0  0  0
   59.6560   30.0020   47.4000 C   0  0  0  0  0  0  0  0  0  0  0  0
   59.1910   29.0030   48.2870 C   0  0  0  0  0  0  0  0  0  0  0  0
   58.6720   27.7960   47.8130 C   0  0  0  0  0  0  0  0  0  0  0  0
   58.5470   27.5600   46.4360 C   0  0  0  0  0  0  0  0  0  0  0  0
   57.9850   26.2770   45.9290 C   0  0  0  0  0  0  0  0  0  0  0  0
   57.8680   26.0430   44.5460 C   0  0  0  0  0  0  0  0  0  0  0  0
   57.3490   24.8370   44.0730 C   0  0  0  0  0  0  0  0  0  0  0  0
   56.9320   23.8500   44.9680 C   0  0  0  0  0  0  0  0  0  0  0  0
   57.0220   24.0670   46.3520 C   0  0  0  0  0  0  0  0  0  0  0  0
   56.5950   23.0140   47.3010 C   0  0  0  0  0  0  0  0  0  0  0  0
   57.3840   22.6400   48.2120 O   0  0  0  0  0  0  0  0  0  0  0  0
   55.2890   22.4190   47.2150 N   0  0  0  0  0  0  0  0  0  0  0  0
   54.8600   21.7980   45.9560 C   0  0  0  0  0  0  0  0  0  0  0  0
   53.5270   21.0570   46.1380 C   0  0  0  0  0  0  0  0  0  0  0  0
   52.5400   21.8680   46.8840 N   0  0  0  0  0  0  0  0  0  0  0  0
   51.9740   22.9410   46.0480 C   0  0  0  0  0  0  0  0  0  0  0  0
   53.0300   22.3860   48.1900 C   0  0  0  0  0  0  0  0  0  0  0  0
   54.5310   22.1570   48.4390 C   0  0  0  0  0  0  0  0  0  0  0  0
   57.5600   25.2760   46.8230 C   0  0  0  0  0  0  0  0  0  0  0  0
   58.9430   28.5670   45.5450 C   0  0  0  0  0  0  0  0  0  0  0  0
   59.4770   29.7680   46.0170 C   0  0  0  0  0  0  0  0  0  0  0  0
   59.1550   32.4580   47.7730 C   0  0  0  0  0  0  0  0  0  0  0  0
   58.1580   32.4850   48.5460 O   0  0  0  0  0  0  0  0  0  0  0  0
   57.0580   31.8150   45.3580 N   0  0  0  0  0  0  0  0  0  0  0  0
   56.6540   30.8860   44.4530 C   0  0  0  0  0  0  0  0  0  0  0  0
   55.9770   29.8950   44.8340 O   0  0  0  0  0  0  0  0  0  0  0  0
   56.9800   31.0350   43.1030 C   0  0  0  0  0  0  0  0  0  0  0  0
   58.9707   32.9230   41.1399 H   0  0  0  0  0  0  0  0  0  0  0  0
   58.1737   31.3591   40.7583 H   0  0  0  0  0  0  0  0  0  0  0  0
   57.2159   32.8788   40.7583 H   0  0  0  0  0  0  0  0  0  0  0  0
   58.7186   33.9702   43.3431 H   0  0  0  0  0  0  0  0  0  0  0  0
   58.3610   34.8928   45.5199 H   0  0  0  0  0  0  0  0  0  0  0  0
   57.2777   34.0817   46.6992 H   0  0  0  0  0  0  0  0  0  0  0  0
   60.7814   33.9456   45.3688 H   0  0  0  0  0  0  0  0  0  0  0  0
   60.6497   35.0981   46.7628 H   0  0  0  0  0  0  0  0  0  0  0  0
   62.7087   33.5345   46.7108 H   0  0  0  0  0  0  0  0  0  0  0  0
   61.7689   33.6226   48.2382 H   0  0  0  0  0  0  0  0  0  0  0  0
   61.3626   31.5083   46.0602 H   0  0  0  0  0  0  0  0  0  0  0  0
   62.3509   31.2903   47.5751 H   0  0  0  0  0  0  0  0  0  0  0  0
   59.7578   31.5608   50.0241 H   0  0  0  0  0  0  0  0  0  0  0  0
   60.7542   30.1236   49.6140 H   0  0  0  0  0  0  0  0  0  0  0  0
   61.4952   31.7600   49.6140 H   0  0  0  0  0  0  0  0  0  0  0  0
   59.2391   29.1802   49.3716 H   0  0  0  0  0  0  0  0  0  0  0  0
   58.3576   27.0214   48.5280 H   0  0  0  0  0  0  0  0  0  0  0  0
   58.1881   26.8166   43.8325 H   0  0  0  0  0  0  0  0  0  0  0  0
   57.2681   24.6632   42.9898 H   0  0  0  0  0  0  0  0  0  0  0  0
   56.5315   22.8989   44.5873 H   0  0  0  0  0  0  0  0  0  0  0  0
   54.7363   22.5800   45.1923 H   0  0  0  0  0  0  0  0  0  0  0  0
   55.6256   21.0731   45.6423 H   0  0  0  0  0  0  0  0  0  0  0  0
   53.1145   20.8192   45.1464 H   0  0  0  0  0  0  0  0  0  0  0  0
   53.7227   20.1425   46.7170 H   0  0  0  0  0  0  0  0  0  0  0  0
   51.5586   23.7285   46.6939 H   0  0  0  0  0  0  0  0  0  0  0  0
   52.7648   23.3668   45.4130 H   0  0  0  0  0  0  0  0  0  0  0  0
   51.1760   22.5288   45.4130 H   0  0  0  0  0  0  0  0  0  0  0  0
   52.8360   23.4681   48.2261 H   0  0  0  0  0  0  0  0  0  0  0  0
   52.4924   21.8290   48.9715 H   0  0  0  0  0  0  0  0  0  0  0  0
   54.8759   22.8357   49.2329 H   0  0  0  0  0  0  0  0  0  0  0  0
   54.6902   21.1124   48.7447 H   0  0  0  0  0  0  0  0  0  0  0  0
   57.6506   25.4431   47.9065 H   0  0  0  0  0  0  0  0  0  0  0  0
   58.8319   28.4095   44.4620 H   0  0  0  0  0  0  0  0  0  0  0  0
   59.7646   30.5487   45.2974 H   0  0  0  0  0  0  0  0  0  0  0  0
   56.6480   30.2881   42.3668 H   0  0  0  0  0  0  0  0  0  0  0  0
  1  2  1  0
  2  3  1  0
  3  4  2  0
  4  5  1  0
  5  6  1  0
  6  7  1  0
  7  8  1  0
  8  9  1  0
  9 10  1  0
 10 11  1  1
 10 12  1  0
 12 13  2  0
 13 14  1  0
 14 15  2  0
 15 16  1  0
 16 17  2  0
 17 18  1  0
 18 19  2  0
 19 20  1  0
 20 21  1  0
 21 22  2  0
 21 23  1  0
 23 24  1  0
 24 25  1  0
 25 26  1  0
 26 27  1  0
 26 28  1  0
 28 29  1  0
 20 30  2  0
 15 31  1  0
 31 32  2  0
 10 33  1  0
 33 34  2  0
  4 35  1  0
 35 36  1  0
 36 37  2  0
 36 38  1  0
 38  2  2  0
 33  6  1  0
 32 12  1  0
 30 16  1  0
 29 23  1  0
  1 39  1  0
  1 40  1  0
  1 41  1  0
  3 42  1  0
  5 43  1  0
  5 44  1  0
  7 45  1  0
  7 46  1  0
  8 47  1  0
  8 48  1  0
  9 49  1  0
  9 50  1  0
 11 51  1  0
 11 52  1  0
 11 53  1  0
 13 54  1  0
 14 55  1  0
 17 56  1  0
 18 57  1  0
 19 58  1  0
 24 59  1  0
 24 60  1  0
 25 61  1  0
 25 62  1  0
 27 63  1  0
 27 64  1  0
 27 65  1  0
 28 66  1  0
 28 67  1  0
 29 68  1  0
 29 69  1  0
 30 70  1  0
 31 71  1  0
 32 72  1  0
 38 73  1  0
M  CHG  1  35  -1
M  END
>  <UniqueID>  (37) 
32

>  <SMILES>  (37) 
Cc1cc(CN2CCC[C@](C)(c3ccc(-c4cccc(C(=O)N5CCN(C)CC5)c4)cc3)C2=O)[n-]c(=O)c1

>  <Energy>  (37) 
98.59157763777934

>  <Genealogy>  (37) 
Cc1cc(CN2CCCC(C)(c3ccc(-c4cccc(C(=O)N5CCN(C)CC5)c4)cc3)C2=O)[n-]c(=O)c1 (protonated)
Cc1cc(CN2CCC[C@](C)(c3ccc(-c4cccc(C(=O)N5CCN(C)CC5)c4)cc3)C2=O)[n-]c(=O)c1 (chirality)
Cc1cc(CN2CCC[C@](C)(c3ccc(-c4cccc(C(=O)N5CCN(C)CC5)c4)cc3)C2=O)[n-]c(=O)c1 (3D coordinates assigned)
Cc1cc(CN2CCC[C@](C)(c3ccc(-c4cccc(C(=O)N5CCN(C)CC5)c4)cc3)C2=O)[n-]c(=O)c1 (nonaromatic ring conformer: 98.59157763777934 kcal/mol)

>  <smiles>  (37) 
Cc1cc(CN2CCCC(C)(c3ccc(-c4cccc(C(=O)N5CCN(C)CC5)c4)cc3)C2=O)[nH]c(=O)c1

>  <score_type>  (37) 
oracle

>  <origin>  (37) 
adg

>  <m_score__min__energy>  (37) 
-12.199999999999999

>  <m_primary>  (37) 
energy

$$$$
37:0
     RDKit          3D

 67 71  0  0  0  0  0  0  0  0999 V2000
   56.4740   29.2560   52.3900 O   0  0  0  0  0  0  0  0  0  0  0  0
   55.5480   30.1000   52.5380 C   0  0  0  0  0  0  0  0  0  0  0  0
   55.6380   31.4160   51.8110 C   0  0  0  0  0  0  0  0  0  0  0  0
   57.0680   31.8830   51.7590 C   0  0  0  0  0  0  0  0  0  0  0  0
   57.6360   32.5500   52.8580 C   0  0  0  0  0  0  0  0  0  0  0  0
   58.9320   33.0730   52.7760 C   0  0  0  0  0  0  0  0  0  0  0  0
   59.6590   32.9540   51.5860 C   0  0  0  0  0  0  0  0  0  0  0  0
   59.1030   32.2890   50.4830 C   0  0  0  0  0  0  0  0  0  0  0  0
   59.8270   32.2230   49.2900 O   0  0  0  0  0  0  0  0  0  0  0  0
   59.5850   33.0420   48.1690 C   0  0  0  0  0  0  0  0  0  0  0  0
   58.3130   33.1270   47.5690 C   0  0  0  0  0  0  0  0  0  0  0  0
   58.1300   33.8880   46.4090 C   0  0  0  0  0  0  0  0  0  0  0  0
   59.2030   34.5850   45.8510 C   0  0  0  0  0  0  0  0  0  0  0  0
   60.4660   34.5160   46.4480 C   0  0  0  0  0  0  0  0  0  0  0  0
   60.6600   33.7480   47.6040 C   0  0  0  0  0  0  0  0  0  0  0  0
   62.4050   33.6590   48.3910 Br  0  0  0  0  0  0  0  0  0  0  0  0
   57.8130   31.7470   50.5730 C   0  0  0  0  0  0  0  0  0  0  0  0
   54.4380   29.7970   53.4080 N   0  0  0  0  0  0  0  0  0  0  0  0
   54.6810   29.5800   54.8410 C   0  0  0  0  0  0  0  0  0  0  0  0
   56.1590   29.5570   55.1260 C   0  0  0  0  0  0  0  0  0  0  0  0
   56.8460   30.7480   55.3970 C   0  0  0  0  0  0  0  0  0  0  0  0
   58.2220   30.7260   55.6520 C   0  0  0  0  0  0  0  0  0  0  0  0
   58.9300   29.5130   55.6460 C   0  0  0  0  0  0  0  0  0  0  0  0
   60.4270   29.4980   55.8800 C   0  0  0  0  0  0  0  0  0  0  0  0
   61.2530   29.7510   54.6800 N   0  0  0  0  0  0  0  0  0  0  0  0
   60.7060   29.2590   53.4150 C   0  0  0  0  0  0  0  0  0  0  0  0
   61.4510   30.0110   52.3160 C   0  0  0  0  0  0  0  0  0  0  0  0
   62.0650   31.2260   53.0010 C   0  0  0  0  0  0  0  0  0  0  0  0
   61.6010   31.1510   54.4490 C   0  0  0  0  0  0  0  0  0  0  0  0
   58.2440   28.3250   55.3410 C   0  0  0  0  0  0  0  0  0  0  0  0
   56.8680   28.3450   55.0870 C   0  0  0  0  0  0  0  0  0  0  0  0
   53.1000   29.6500   52.8900 C   0  0  0  0  0  0  0  0  0  0  0  0
   52.5550   28.5100   52.8950 O   0  0  0  0  0  0  0  0  0  0  0  0
   52.3790   30.7760   52.2560 C   0  0  0  0  0  0  0  0  0  0  0  0
   51.5210   31.6490   52.9020 C   0  0  0  0  0  0  0  0  0  0  0  0
   50.9170   32.4660   52.0160 N   0  0  0  0  0  0  0  0  0  0  0  0
   51.4040   32.1060   50.8120 C   0  0  0  0  0  0  0  0  0  0  0  0
   51.0190   32.7110   49.6220 O   0  0  0  0  0  0  0  0  0  0  0  0
   52.3060   31.0720   50.9060 C   0  0  0  0  0  0  0  0  0  0  0  0
   55.2586   31.2918   50.7860 H   0  0  0  0  0  0  0  0  0  0  0  0
   55.0347   32.1642   52.3460 H   0  0  0  0  0  0  0  0  0  0  0  0
   57.0590   32.6617   53.7878 H   0  0  0  0  0  0  0  0  0  0  0  0
   59.3784   33.5769   53.6459 H   0  0  0  0  0  0  0  0  0  0  0  0
   60.6694   33.3832   51.5154 H   0  0  0  0  0  0  0  0  0  0  0  0
   57.4605   32.5931   48.0141 H   0  0  0  0  0  0  0  0  0  0  0  0
   57.1382   33.9371   45.9357 H   0  0  0  0  0  0  0  0  0  0  0  0
   59.0554   35.1878   44.9428 H   0  0  0  0  0  0  0  0  0  0  0  0
   61.3105   35.0669   46.0083 H   0  0  0  0  0  0  0  0  0  0  0  0
   57.3817   31.2134   49.7132 H   0  0  0  0  0  0  0  0  0  0  0  0
   54.2140   30.3939   55.4150 H   0  0  0  0  0  0  0  0  0  0  0  0
   54.2465   28.6128   55.1337 H   0  0  0  0  0  0  0  0  0  0  0  0
   56.3017   31.7038   55.4093 H   0  0  0  0  0  0  0  0  0  0  0  0
   58.7534   31.6666   55.8589 H   0  0  0  0  0  0  0  0  0  0  0  0
   60.6630   30.2719   56.6252 H   0  0  0  0  0  0  0  0  0  0  0  0
   60.6744   28.4790   56.2124 H   0  0  0  0  0  0  0  0  0  0  0  0
   60.8756   28.1763   53.3202 H   0  0  0  0  0  0  0  0  0  0  0  0
   59.6203   29.4249   53.3530 H   0  0  0  0  0  0  0  0  0  0  0  0
   62.2371   29.3766   51.8806 H   0  0  0  0  0  0  0  0  0  0  0  0
   60.7815   30.3007   51.4927 H   0  0  0  0  0  0  0  0  0  0  0  0
   63.1629   31.1849   52.9460 H   0  0  0  0  0  0  0  0  0  0  0  0
   61.7561   32.1661   52.5206 H   0  0  0  0  0  0  0  0  0  0  0  0
   62.4090   31.4624   55.1274 H   0  0  0  0  0  0  0  0  0  0  0  0
   60.7469   31.8182   54.6370 H   0  0  0  0  0  0  0  0  0  0  0  0
   58.7927   27.3724   55.3016 H   0  0  0  0  0  0  0  0  0  0  0  0
   56.3397   27.4082   54.8560 H   0  0  0  0  0  0  0  0  0  0  0  0
   51.3548   31.6729   53.9891 H   0  0  0  0  0  0  0  0  0  0  0  0
   52.8521   30.5849   50.0847 H   0  0  0  0  0  0  0  0  0  0  0  0
  1  2  2  0
  2  3  1  0
  3  4  1  0
  4  5  2  0
  5  6  1  0
  6  7  2  0
  7  8  1  0
  8  9  1  0
  9 10  1  0
 10 11  2  0
 11 12  1  0
 12 13  2  0
 13 14  1  0
 14 15  2  0
 15 16  1  0
  8 17  2  0
  2 18  1  0
 18 19  1  0
 19 20  1  0
 20 21  2  0
 21 22  1  0
 22 23  2  0
 23 24  1  0
 24 25  1  0
 25 26  1  0
 26 27  1  0
 27 28  1  0
 28 29  1  0
 23 30  1  0
 30 31  2  0
 18 32  1  0
 32 33  2  0
 32 34  1  0
 34 35  2  0
 35 36  1  0
 36 37  1  0
 37 38  1  0
 37 39  2  0
 17  4  1  0
 31 20  1  0
 39 34  1  0
 15 10  1  0
 29 25  1  0
  3 40  1  0
  3 41  1  0
  5 42  1  0
  6 43  1  0
  7 44  1  0
 11 45  1  0
 12 46  1  0
 13 47  1  0
 14 48  1  0
 17 49  1  0
 19 50  1  0
 19 51  1  0
 21 52  1  0
 22 53  1  0
 24 54  1  0
 24 55  1  0
 26 56  1  0
 26 57  1  0
 27 58  1  0
 27 59  1  0
 28 60  1  0
 28 61  1  0
 29 62  1  0
 29 63  1  0
 30 64  1  0
 31 65  1  0
 35 66  1  0
 39 67  1  0
M  CHG  2  36  -1  38  -1
M  END
>  <UniqueID>  (38) 
33

>  <SMILES>  (38) 
O=C(Cc1cccc(Oc2ccccc2Br)c1)N(Cc1ccc(CN2CCCC2)cc1)C(=O)c1c[n-]c([O-])c1

>  <Energy>  (38) 
115.46307820194984

>  <Genealogy>  (38) 
O=C(Cc1cccc(Oc2ccccc2Br)c1)N(Cc1ccc(CN2CCCC2)cc1)C(=O)c1c[n-]c([O-])c1 (protonated)
O=C(Cc1cccc(Oc2ccccc2Br)c1)N(Cc1ccc(CN2CCCC2)cc1)C(=O)c1c[n-]c([O-])c1 (3D coordinates assigned)
O=C(Cc1cccc(Oc2ccccc2Br)c1)N(Cc1ccc(CN2CCCC2)cc1)C(=O)c1c[n-]c([O-])c1 (nonaromatic ring conformer: 115.46307820194984 kcal/mol)

>  <smiles>  (38) 
O=C(Cc1cccc(Oc2ccccc2Br)c1)N(Cc1ccc(CN2CCCC2)cc1)C(=O)c1c[nH]c(O)c1

>  <score_type>  (38) 
oracle

>  <origin>  (38) 
adg

>  <m_score__min__energy>  (38) 
-15.859999999999999

>  <m_primary>  (38) 
energy

$$$$
38:0
     RDKit          3D

 52 54  0  0  0  0  0  0  0  0999 V2000
   54.4940   27.0980   46.7110 H   0  0  0  0  0  0  0  0  0  0  0  0
   55.0940   26.5160   46.0850 N   0  0  0  0  0  0  0  0  0  0  0  0
   56.5110   26.6800   46.0640 C   0  0  0  0  0  0  0  0  0  0  0  0
   57.2460   25.7240   46.4350 O   0  0  0  0  0  0  0  0  0  0  0  0
   57.1160   27.9570   45.6170 C   0  0  0  0  0  0  0  0  0  0  0  0
   58.4640   28.2460   45.8990 C   0  0  0  0  0  0  0  0  0  0  0  0
   59.0734   27.5169   46.4532 H   0  0  0  0  0  0  0  0  0  0  0  0
   59.0360   29.4520   45.4810 C   0  0  0  0  0  0  0  0  0  0  0  0
   60.0958   29.6580   45.6918 H   0  0  0  0  0  0  0  0  0  0  0  0
   58.2620   30.4010   44.7930 C   0  0  0  0  0  0  0  0  0  0  0  0
   58.7970   31.6520   44.3360 N   0  0  0  0  0  0  0  0  0  0  0  0
   58.1060   32.7670   43.7550 C   0  0  0  0  0  0  0  0  0  0  0  0
   57.8500   32.7960   42.5210 O   0  0  0  0  0  0  0  0  0  0  0  0
   57.6760   33.9050   44.5950 C   0  0  0  0  0  0  0  0  0  0  0  0
   56.6995   34.3608   44.3742 H   0  0  0  0  0  0  0  0  0  0  0  0
   58.3890   34.4230   45.6070 C   0  0  0  0  0  0  0  0  0  0  0  0
   58.3578   35.5121   45.7584 H   0  0  0  0  0  0  0  0  0  0  0  0
   59.2110   33.6180   46.5270 C   0  0  0  0  0  0  0  0  0  0  0  0
   58.6090   32.8890   47.5590 C   0  0  0  0  0  0  0  0  0  0  0  0
   57.5134   32.8809   47.6574 H   0  0  0  0  0  0  0  0  0  0  0  0
   59.3940   32.1720   48.4640 C   0  0  0  0  0  0  0  0  0  0  0  0
   58.9121   31.5920   49.2648 H   0  0  0  0  0  0  0  0  0  0  0  0
   60.7990   32.1860   48.3590 C   0  0  0  0  0  0  0  0  0  0  0  0
   61.6090   31.4750   49.2590 O   0  0  0  0  0  0  0  0  0  0  0  0
   61.3630   30.1410   49.6930 C   0  0  0  0  0  0  0  0  0  0  0  0
   61.3570   30.1084   50.7925 H   0  0  0  0  0  0  0  0  0  0  0  0
   60.3878   29.8050   49.3109 H   0  0  0  0  0  0  0  0  0  0  0  0
   62.1543   29.4793   49.3109 H   0  0  0  0  0  0  0  0  0  0  0  0
   61.4030   32.9300   47.3250 C   0  0  0  0  0  0  0  0  0  0  0  0
   63.1600   33.0550   47.1720 S   0  0  0  0  0  0  0  0  0  0  0  0
   63.7590   31.7290   46.7900 O   0  0  0  0  0  0  0  0  0  0  0  0
   63.4780   34.0650   46.1050 O   0  0  0  0  0  0  0  0  0  0  0  0
   63.8370   33.5760   48.6960 N   0  0  0  0  0  0  0  0  0  0  0  0
   62.7920   34.1920   49.5290 C   0  0  0  0  0  0  0  0  0  0  0  0
   62.3753   35.0644   49.0043 H   0  0  0  0  0  0  0  0  0  0  0  0
   61.9979   33.4540   49.7157 H   0  0  0  0  0  0  0  0  0  0  0  0
   63.3900   34.6450   50.8790 C   0  0  0  0  0  0  0  0  0  0  0  0
   63.3814   35.7443   50.9185 H   0  0  0  0  0  0  0  0  0  0  0  0
   62.7769   34.2090   51.6815 H   0  0  0  0  0  0  0  0  0  0  0  0
   64.7220   34.1930   51.0570 O   0  0  0  0  0  0  0  0  0  0  0  0
   64.7840   32.7950   50.8560 C   0  0  0  0  0  0  0  0  0  0  0  0
   65.8013   32.4439   51.0837 H   0  0  0  0  0  0  0  0  0  0  0  0
   64.0515   32.3132   51.5204 H   0  0  0  0  0  0  0  0  0  0  0  0
   64.4390   32.4290   49.3980 C   0  0  0  0  0  0  0  0  0  0  0  0
   65.3589   32.1290   48.8747 H   0  0  0  0  0  0  0  0  0  0  0  0
   63.7139   31.6018   49.4056 H   0  0  0  0  0  0  0  0  0  0  0  0
   60.6040   33.6170   46.3990 C   0  0  0  0  0  0  0  0  0  0  0  0
   61.0762   34.1588   45.5663 H   0  0  0  0  0  0  0  0  0  0  0  0
   56.9280   30.1040   44.4890 C   0  0  0  0  0  0  0  0  0  0  0  0
   56.3238   30.8283   43.9230 H   0  0  0  0  0  0  0  0  0  0  0  0
   56.3570   28.8960   44.8980 C   0  0  0  0  0  0  0  0  0  0  0  0
   55.3063   28.6786   44.6555 H   0  0  0  0  0  0  0  0  0  0  0  0
  1  2  1  0
  2  3  1  0
  3  4  2  0
  3  5  1  0
  5  6  2  0
  6  7  1  0
  6  8  1  0
  8  9  1  0
  8 10  2  0
 10 11  1  0
 11 12  1  0
 12 13  2  0
 12 14  1  0
 14 15  1  0
 14 16  2  0
 16 17  1  0
 16 18  1  0
 18 19  2  0
 19 20  1  0
 19 21  1  0
 21 22  1  0
 21 23  2  0
 23 24  1  0
 24 25  1  0
 25 26  1  0
 25 27  1  0
 25 28  1  0
 23 29  1  0
 29 30  1  0
 30 31  2  0
 30 32  2  0
 30 33  1  0
 33 34  1  0
 34 35  1  0
 34 36  1  0
 34 37  1  0
 37 38  1  0
 37 39  1  0
 37 40  1  0
 40 41  1  0
 41 42  1  0
 41 43  1  0
 41 44  1  0
 44 45  1  0
 44 46  1  0
 29 47  2  0
 47 48  1  0
 10 49  1  0
 49 50  1  0
 49 51  2  0
 51 52  1  0
 51  5  1  0
 47 18  1  0
 44 33  1  0
M  CHG  2   2  -1  11  -1
M  END
>  <UniqueID>  (39) 
34

>  <SMILES>  (39) 
COc1ccc(/C=C\C(=O)[N-]c2ccc(C([NH-])=O)cc2)cc1S(=O)(=O)N1CCOCC1

>  <Energy>  (39) 
70.51283752751617

>  <Genealogy>  (39) 
COc1ccc(C=CC(=O)[N-]c2ccc(C([NH-])=O)cc2)cc1S(=O)(=O)N1CCOCC1 (protonated)
COc1ccc(/C=C\C(=O)[N-]c2ccc(C([NH-])=O)cc2)cc1S(=O)(=O)N1CCOCC1 (cis-trans isomerization)
COc1ccc(/C=C\C(=O)[N-]c2ccc(C([NH-])=O)cc2)cc1S(=O)(=O)N1CCOCC1 (3D coordinates assigned)
COc1ccc(/C=C\C(=O)[N-]c2ccc(C([NH-])=O)cc2)cc1S(=O)(=O)N1CCOCC1 (nonaromatic ring conformer: 70.51283752751617 kcal/mol)

>  <smiles>  (39) 
COc1ccc(C=CC(=O)Nc2ccc(C(N)=O)cc2)cc1S(=O)(=O)N1CCOCC1

>  <score_type>  (39) 
oracle

>  <origin>  (39) 
adg

>  <m_score__min__energy>  (39) 
-12.960000000000001

>  <m_primary>  (39) 
energy

$$$$
39:0
     RDKit          3D

 50 53  0  0  0  0  0  0  0  0999 V2000
   57.5070   29.8630   51.8170 O   0  0  0  0  0  0  0  0  0  0  0  0
   58.2880   30.7560   51.3910 C   0  0  0  0  0  0  0  0  0  0  0  0
   58.6370   31.8900   52.2790 C   0  0  0  0  0  0  0  0  0  0  0  0
   59.4130   31.6850   53.4340 C   0  0  0  0  0  0  0  0  0  0  0  0
   59.7240   32.7570   54.2760 C   0  0  0  0  0  0  0  0  0  0  0  0
   59.2550   34.0400   53.9790 C   0  0  0  0  0  0  0  0  0  0  0  0
   58.4700   34.2510   52.8430 C   0  0  0  0  0  0  0  0  0  0  0  0
   58.1550   33.1810   51.9990 C   0  0  0  0  0  0  0  0  0  0  0  0
   58.8240   30.6470   50.0590 N   0  0  0  0  0  0  0  0  0  0  0  0
   59.1750   29.3150   49.5400 C   0  0  0  0  0  0  0  0  0  0  0  0
   59.7110   29.3910   48.1050 C   0  0  0  0  0  0  0  0  0  0  0  0
   58.8210   30.2260   47.2830 N   0  0  0  0  0  0  0  0  0  0  0  0
   58.2600   29.7130   46.0590 C   0  0  0  0  0  0  0  0  0  0  0  0
   57.5770   30.4730   45.3240 O   0  0  0  0  0  0  0  0  0  0  0  0
   58.5580   28.3170   45.5840 C   0  0  0  0  0  0  0  0  0  0  0  0
   57.4160   27.4040   45.9160 C   0  0  0  0  0  0  0  0  0  0  0  0
   57.5590   26.2280   46.5590 N   0  0  0  0  0  0  0  0  0  0  0  0
   56.2950   25.7510   46.6210 C   0  0  0  0  0  0  0  0  0  0  0  0
   56.0090   24.6550   47.1740 O   0  0  0  0  0  0  0  0  0  0  0  0
   55.3600   26.5450   46.0530 N   0  0  0  0  0  0  0  0  0  0  0  0
   56.0830   27.5870   45.6090 C   0  0  0  0  0  0  0  0  0  0  0  0
   55.5260   28.6790   44.9480 O   0  0  0  0  0  0  0  0  0  0  0  0
   58.3450   31.5220   47.8040 C   0  0  2  0  0  0  0  0  0  0  0  0
   58.6680   32.6390   46.8330 C   0  0  0  0  0  0  0  0  0  0  0  0
   57.6560   33.1990   46.0340 C   0  0  0  0  0  0  0  0  0  0  0  0
   57.9500   34.2340   45.1420 C   0  0  0  0  0  0  0  0  0  0  0  0
   59.2550   34.7250   45.0440 C   0  0  0  0  0  0  0  0  0  0  0  0
   60.2670   34.1810   45.8390 C   0  0  0  0  0  0  0  0  0  0  0  0
   59.9780   33.1420   46.7290 C   0  0  0  0  0  0  0  0  0  0  0  0
   58.9410   31.8280   49.1920 C   0  0  0  0  0  0  0  0  0  0  0  0
   59.7772   30.6757   53.6762 H   0  0  0  0  0  0  0  0  0  0  0  0
   60.3384   32.5907   55.1731 H   0  0  0  0  0  0  0  0  0  0  0  0
   59.5041   34.8833   54.6398 H   0  0  0  0  0  0  0  0  0  0  0  0
   58.0989   35.2604   52.6118 H   0  0  0  0  0  0  0  0  0  0  0  0
   57.5271   33.3503   51.1118 H   0  0  0  0  0  0  0  0  0  0  0  0
   59.9471   28.8722   50.1864 H   0  0  0  0  0  0  0  0  0  0  0  0
   58.2649   28.6972   49.5349 H   0  0  0  0  0  0  0  0  0  0  0  0
   60.7189   29.8316   48.1147 H   0  0  0  0  0  0  0  0  0  0  0  0
   59.7531   28.3776   47.6793 H   0  0  0  0  0  0  0  0  0  0  0  0
   58.7098   28.3282   44.4946 H   0  0  0  0  0  0  0  0  0  0  0  0
   59.4669   27.9529   46.0853 H   0  0  0  0  0  0  0  0  0  0  0  0
   56.0940   29.3210   44.4090 H   0  0  0  0  0  0  0  0  0  0  0  0
   57.2527   31.4537   47.9147 H   0  0  0  0  0  0  0  0  0  0  0  0
   56.6262   32.8202   46.1113 H   0  0  0  0  0  0  0  0  0  0  0  0
   57.1534   34.6627   44.5163 H   0  0  0  0  0  0  0  0  0  0  0  0
   59.4852   35.5394   44.3413 H   0  0  0  0  0  0  0  0  0  0  0  0
   61.2929   34.5708   45.7646 H   0  0  0  0  0  0  0  0  0  0  0  0
   60.7788   32.7157   47.3510 H   0  0  0  0  0  0  0  0  0  0  0  0
   60.0022   32.0959   49.0821 H   0  0  0  0  0  0  0  0  0  0  0  0
   58.3906   32.6656   49.6454 H   0  0  0  0  0  0  0  0  0  0  0  0
  1  2  2  0
  2  3  1  0
  3  4  2  0
  4  5  1  0
  5  6  2  0
  6  7  1  0
  7  8  2  0
  2  9  1  0
  9 10  1  0
 10 11  1  0
 11 12  1  0
 12 13  1  0
 13 14  2  0
 13 15  1  0
 15 16  1  0
 16 17  1  0
 17 18  1  0
 18 19  2  0
 18 20  1  0
 20 21  1  0
 21 22  1  0
 12 23  1  0
 23 24  1  0
 24 25  2  0
 25 26  1  0
 26 27  2  0
 27 28  1  0
 28 29  2  0
 23 30  1  0
  8  3  1  0
 30  9  1  0
 21 16  2  0
 29 24  1  0
  4 31  1  0
  5 32  1  0
  6 33  1  0
  7 34  1  0
  8 35  1  0
 10 36  1  0
 10 37  1  0
 11 38  1  0
 11 39  1  0
 15 40  1  0
 15 41  1  0
 22 42  1  0
 23 43  1  1
 25 44  1  0
 26 45  1  0
 27 46  1  0
 28 47  1  0
 29 48  1  0
 30 49  1  0
 30 50  1  0
M  CHG  2  17  -1  20  -1
M  END
>  <UniqueID>  (40) 
35

>  <SMILES>  (40) 
O=C(c1ccccc1)N1CCN(C(=O)Cc2[n-]c(=O)[n-]c2O)[C@H](c2ccccc2)C1

>  <Energy>  (40) 
86.16649148631582

>  <Genealogy>  (40) 
O=C(c1ccccc1)N1CCN(C(=O)Cc2[n-]c(=O)[n-]c2O)C(c2ccccc2)C1 (protonated)
O=C(c1ccccc1)N1CCN(C(=O)Cc2[n-]c(=O)[n-]c2O)[C@H](c2ccccc2)C1 (chirality)
O=C(c1ccccc1)N1CCN(C(=O)Cc2[n-]c(=O)[n-]c2O)[C@H](c2ccccc2)C1 (3D coordinates assigned)
O=C(c1ccccc1)N1CCN(C(=O)Cc2[n-]c(=O)[n-]c2O)[C@H](c2ccccc2)C1 (nonaromatic ring conformer: 86.16649148631582 kcal/mol)

>  <smiles>  (40) 
O=C(c1ccccc1)N1CCN(C(=O)Cc2[nH]c(=O)[nH]c2O)C(c2ccccc2)C1

>  <score_type>  (40) 
oracle

>  <origin>  (40) 
adg

>  <m_score__min__energy>  (40) 
-13.41

>  <m_primary>  (40) 
energy

$$$$
40:0
     RDKit          3D

 41 43  0  0  0  0  0  0  0  0999 V2000
   57.7290   25.2420   47.8500 O   0  0  0  0  0  0  0  0  0  0  0  0
   58.5580   25.9350   47.2020 C   0  0  0  0  0  0  0  0  0  0  0  0
   58.5490   25.8810   45.6980 C   0  0  0  0  0  0  0  0  0  0  0  0
   57.9810   27.1410   45.1310 C   0  0  0  0  0  0  0  0  0  0  0  0
   56.7410   27.5960   45.4170 N   0  0  0  0  0  0  0  0  0  0  0  0
   56.4950   28.7880   44.8110 C   0  0  0  0  0  0  0  0  0  0  0  0
   55.2800   29.4490   44.9530 O   0  0  0  0  0  0  0  0  0  0  0  0
   57.5360   29.3010   44.0460 C   0  0  0  0  0  0  0  0  0  0  0  0
   58.8160   28.2140   44.1380 S   0  0  0  0  0  0  0  0  0  0  0  0
   59.5140   26.7220   47.9250 N   0  0  0  0  0  0  0  0  0  0  0  0
   59.6900   28.1410   47.8270 C   0  0  0  0  0  0  0  0  0  0  0  0
   60.4330   28.7210   46.7850 C   0  0  0  0  0  0  0  0  0  0  0  0
   60.5730   30.1090   46.7080 C   0  0  0  0  0  0  0  0  0  0  0  0
   59.9650   30.9350   47.6650 C   0  0  0  0  0  0  0  0  0  0  0  0
   60.1780   32.6840   47.5880 S   0  0  0  0  0  0  0  0  0  0  0  0
   61.2400   33.0080   46.5750 O   0  0  0  0  0  0  0  0  0  0  0  0
   60.6590   33.1710   48.9260 O   0  0  0  0  0  0  0  0  0  0  0  0
   58.6990   33.5230   47.1680 N   0  0  0  0  0  0  0  0  0  0  0  0
   58.9420   34.9000   46.7020 C   0  0  0  0  0  0  0  0  0  0  0  0
   59.3410   34.9740   45.2090 C   0  0  0  0  0  0  0  0  0  0  0  0
   59.1850   33.7450   44.5250 O   0  0  0  0  0  0  0  0  0  0  0  0
   57.9120   33.2080   44.8000 C   0  0  0  0  0  0  0  0  0  0  0  0
   57.8320   32.7380   46.2620 C   0  0  0  0  0  0  0  0  0  0  0  0
   59.1890   30.3580   48.6800 C   0  0  0  0  0  0  0  0  0  0  0  0
   59.0490   28.9700   48.7550 C   0  0  0  0  0  0  0  0  0  0  0  0
   59.5793   25.7530   45.3345 H   0  0  0  0  0  0  0  0  0  0  0  0
   57.9248   25.0341   45.3769 H   0  0  0  0  0  0  0  0  0  0  0  0
   55.1250   30.0840   45.7260 H   0  0  0  0  0  0  0  0  0  0  0  0
   57.5247   30.2459   43.4829 H   0  0  0  0  0  0  0  0  0  0  0  0
   60.9063   28.0798   46.0269 H   0  0  0  0  0  0  0  0  0  0  0  0
   61.1623   30.5558   45.8937 H   0  0  0  0  0  0  0  0  0  0  0  0
   58.0229   35.4864   46.8482 H   0  0  0  0  0  0  0  0  0  0  0  0
   59.7834   35.3004   47.2866 H   0  0  0  0  0  0  0  0  0  0  0  0
   58.7113   35.7297   44.7166 H   0  0  0  0  0  0  0  0  0  0  0  0
   60.4090   35.2344   45.1703 H   0  0  0  0  0  0  0  0  0  0  0  0
   57.1478   33.9796   44.6252 H   0  0  0  0  0  0  0  0  0  0  0  0
   57.7380   32.3465   44.1386 H   0  0  0  0  0  0  0  0  0  0  0  0
   56.7908   32.8317   46.6042 H   0  0  0  0  0  0  0  0  0  0  0  0
   58.1811   31.6953   46.2928 H   0  0  0  0  0  0  0  0  0  0  0  0
   58.6887   31.0002   49.4198 H   0  0  0  0  0  0  0  0  0  0  0  0
   58.4307   28.5255   49.5488 H   0  0  0  0  0  0  0  0  0  0  0  0
  1  2  2  0
  2  3  1  0
  3  4  1  0
  4  5  2  0
  5  6  1  0
  6  7  1  0
  6  8  2  0
  8  9  1  0
  2 10  1  0
 10 11  1  0
 11 12  2  0
 12 13  1  0
 13 14  2  0
 14 15  1  0
 15 16  2  0
 15 17  2  0
 15 18  1  0
 18 19  1  0
 19 20  1  0
 20 21  1  0
 21 22  1  0
 22 23  1  0
 14 24  1  0
 24 25  2  0
  9  4  1  0
 25 11  1  0
 23 18  1  0
  3 26  1  0
  3 27  1  0
  7 28  1  0
  8 29  1  0
 12 30  1  0
 13 31  1  0
 19 32  1  0
 19 33  1  0
 20 34  1  0
 20 35  1  0
 22 36  1  0
 22 37  1  0
 23 38  1  0
 23 39  1  0
 24 40  1  0
 25 41  1  0
M  CHG  1  10  -1
M  END
>  <UniqueID>  (41) 
36

>  <SMILES>  (41) 
O=C(Cc1nc(O)cs1)[N-]c1ccc(S(=O)(=O)N2CCOCC2)cc1

>  <Energy>  (41) 
84.62072463508252

>  <Genealogy>  (41) 
O=C(Cc1nc(O)cs1)[N-]c1ccc(S(=O)(=O)N2CCOCC2)cc1 (protonated)
O=C(Cc1nc(O)cs1)[N-]c1ccc(S(=O)(=O)N2CCOCC2)cc1 (3D coordinates assigned)
O=C(Cc1nc(O)cs1)[N-]c1ccc(S(=O)(=O)N2CCOCC2)cc1 (nonaromatic ring conformer: 84.62072463508252 kcal/mol)

>  <smiles>  (41) 
O=C(Cc1nc(O)cs1)Nc1ccc(S(=O)(=O)N2CCOCC2)cc1

>  <score_type>  (41) 
oracle

>  <origin>  (41) 
adg

>  <m_score__min__energy>  (41) 
-10.220000000000001

>  <m_primary>  (41) 
energy

$$$$
41:0
     RDKit          3D

 46 49  0  0  0  0  0  0  0  0999 V2000
   54.7650   27.1350   45.9880 H   0  0  0  0  0  0  0  0  0  0  0  0
   54.5180   26.1600   45.8590 O   0  0  0  0  0  0  0  0  0  0  0  0
   55.4930   25.1750   45.7090 C   0  0  0  0  0  0  0  0  0  0  0  0
   55.2120   24.0010   44.9980 C   0  0  0  0  0  0  0  0  0  0  0  0
   54.2158   23.8500   44.5567 H   0  0  0  0  0  0  0  0  0  0  0  0
   56.1970   23.0230   44.8500 C   0  0  0  0  0  0  0  0  0  0  0  0
   55.9823   22.0973   44.2959 H   0  0  0  0  0  0  0  0  0  0  0  0
   57.4560   23.2320   45.4120 C   0  0  0  0  0  0  0  0  0  0  0  0
   58.2414   22.4699   45.3005 H   0  0  0  0  0  0  0  0  0  0  0  0
   57.7130   24.3780   46.0980 N   0  0  0  0  0  0  0  0  0  0  0  0
   56.7690   25.3480   46.2690 C   0  0  0  0  0  0  0  0  0  0  0  0
   57.0410   26.4440   46.9180 N   0  0  0  0  0  0  0  0  0  0  0  0
   58.0760   27.3870   46.6000 C   0  0  0  0  0  0  0  0  0  0  0  0
   59.2730   26.9970   46.6130 O   0  0  0  0  0  0  0  0  0  0  0  0
   57.7720   28.7680   46.1680 C   0  0  0  0  0  0  0  0  0  0  0  0
   56.6170   29.1980   45.5310 C   0  0  0  0  0  0  0  0  0  0  0  0
   55.5330   28.3890   45.2170 O   0  0  0  0  0  0  0  0  0  0  0  0
   56.6650   30.5120   45.2210 N   0  0  0  0  0  0  0  0  0  0  0  0
   57.8730   30.9160   45.6660 C   0  0  0  0  0  0  0  0  0  0  0  0
   58.5740   29.8950   46.2400 C   0  0  0  0  0  0  0  0  0  0  0  0
   59.8360   30.1110   46.7930 C   0  0  0  0  0  0  0  0  0  0  0  0
   60.4410   29.1570   47.3560 O   0  0  0  0  0  0  0  0  0  0  0  0
   60.4020   31.3710   46.7290 N   0  0  0  0  0  0  0  0  0  0  0  0
   61.7600   31.5380   47.3060 C   0  0  0  0  0  0  0  0  0  0  0  0
   62.3627   32.1555   46.6238 H   0  0  0  0  0  0  0  0  0  0  0  0
   62.2020   30.5386   47.4317 H   0  0  0  0  0  0  0  0  0  0  0  0
   61.7180   32.2210   48.6930 C   0  0  0  0  0  0  0  0  0  0  0  0
   62.2915   31.5865   49.3847 H   0  0  0  0  0  0  0  0  0  0  0  0
   60.2920   32.3300   49.2450 C   0  0  0  0  0  0  0  0  0  0  0  0
   60.3233   32.3276   50.3446 H   0  0  0  0  0  0  0  0  0  0  0  0
   59.8332   33.2658   48.8933 H   0  0  0  0  0  0  0  0  0  0  0  0
   59.6963   31.4748   48.8933 H   0  0  0  0  0  0  0  0  0  0  0  0
   62.3590   33.6120   48.6190 C   0  0  0  0  0  0  0  0  0  0  0  0
   62.5332   33.9901   49.6372 H   0  0  0  0  0  0  0  0  0  0  0  0
   63.3175   33.5460   48.0834 H   0  0  0  0  0  0  0  0  0  0  0  0
   61.6861   34.2978   48.0834 H   0  0  0  0  0  0  0  0  0  0  0  0
   59.6970   32.4270   46.1470 C   0  0  0  0  0  0  0  0  0  0  0  0
   60.2060   33.7510   46.0870 C   0  0  0  0  0  0  0  0  0  0  0  0
   61.1966   33.9699   46.5122 H   0  0  0  0  0  0  0  0  0  0  0  0
   59.4680   34.7810   45.4960 C   0  0  0  0  0  0  0  0  0  0  0  0
   59.8851   35.7982   45.4585 H   0  0  0  0  0  0  0  0  0  0  0  0
   58.2110   34.5310   44.9550 C   0  0  0  0  0  0  0  0  0  0  0  0
   57.6411   35.3479   44.4882 H   0  0  0  0  0  0  0  0  0  0  0  0
   57.6740   33.2480   45.0040 C   0  0  0  0  0  0  0  0  0  0  0  0
   56.6785   33.0537   44.5784 H   0  0  0  0  0  0  0  0  0  0  0  0
   58.3990   32.2010   45.5950 C   0  0  0  0  0  0  0  0  0  0  0  0
  1  2  1  0
  2  3  1  0
  3  4  2  0
  4  5  1  0
  4  6  1  0
  6  7  1  0
  6  8  2  0
  8  9  1  0
  8 10  1  0
 10 11  1  0
 11 12  2  0
 12 13  1  0
 13 14  2  0
 13 15  1  0
 15 16  2  0
 16 17  1  0
 16 18  1  0
 18 19  1  0
 19 20  2  0
 20 21  1  0
 21 22  2  0
 21 23  1  0
 23 24  1  0
 24 25  1  0
 24 26  1  0
 24 27  1  0
 27 28  1  0
 27 29  1  0
 29 30  1  0
 29 31  1  0
 29 32  1  0
 27 33  1  0
 33 34  1  0
 33 35  1  0
 33 36  1  0
 23 37  1  0
 37 38  2  0
 38 39  1  0
 38 40  1  0
 40 41  1  0
 40 42  2  0
 42 43  1  0
 42 44  1  0
 44 45  1  0
 44 46  2  0
 11  3  1  0
 20 15  1  0
 46 37  1  0
 46 19  1  0
M  CHG  3  10  -1  17  -1  18  -1
M  END
>  <UniqueID>  (42) 
37

>  <SMILES>  (42) 
CC(C)Cn1c(=O)c2c(C(=O)/N=c3\[n-]cccc3O)c([O-])[n-]c2c2ccccc21

>  <Energy>  (42) 
99.90186202523888

>  <Genealogy>  (42) 
CC(C)Cn1c(=O)c2c(C(=O)N=c3[n-]cccc3O)c([O-])[n-]c2c2ccccc21 (protonated)
CC(C)Cn1c(=O)c2c(C(=O)/N=c3\[n-]cccc3O)c([O-])[n-]c2c2ccccc21 (cis-trans isomerization)
CC(C)Cn1c(=O)c2c(C(=O)/N=c3\[n-]cccc3O)c([O-])[n-]c2c2ccccc21 (3D coordinates assigned)
CC(C)Cn1c(=O)c2c(C(=O)/N=c3\[n-]cccc3O)c([O-])[n-]c2c2ccccc21 (optimized conformer: 99.90186202523888 kcal/mol)

>  <smiles>  (42) 
CC(C)Cn1c(=O)c2c(C(=O)N=c3[nH]cccc3O)c(O)[nH]c2c2ccccc21

>  <score_type>  (42) 
oracle

>  <origin>  (42) 
adg

>  <m_score__min__energy>  (42) 
-16.34

>  <m_primary>  (42) 
energy

$$$$
42:0
     RDKit          3D

 41 43  0  0  0  0  0  0  0  0999 V2000
   65.4160   31.7890   50.1040 C   0  0  0  0  0  0  0  0  0  0  0  0
   64.4680   32.9080   50.1820 N   0  0  0  0  0  0  0  0  0  0  0  0
   64.6770   33.9440   51.2000 C   0  0  0  0  0  0  0  0  0  0  0  0
   63.3400   32.9900   49.2730 C   0  0  0  0  0  0  0  0  0  0  0  0
   62.0480   33.2760   49.7530 C   0  0  0  0  0  0  0  0  0  0  0  0
   60.9750   33.3460   48.8650 C   0  0  0  0  0  0  0  0  0  0  0  0
   61.1750   33.1360   47.4950 C   0  0  0  0  0  0  0  0  0  0  0  0
   60.0410   33.2120   46.5380 C   0  0  0  0  0  0  0  0  0  0  0  0
   59.9090   34.3130   45.6730 C   0  0  0  0  0  0  0  0  0  0  0  0
   58.8370   34.3880   44.7830 C   0  0  0  0  0  0  0  0  0  0  0  0
   57.8880   33.3650   44.7350 C   0  0  0  0  0  0  0  0  0  0  0  0
   58.0170   32.2440   45.5730 C   0  0  0  0  0  0  0  0  0  0  0  0
   57.0560   31.1770   45.5710 N   0  0  0  0  0  0  0  0  0  0  0  0
   57.1110   29.9760   44.7880 C   0  0  0  0  0  0  0  0  0  0  0  0
   57.2470   30.0350   43.5350 O   0  0  0  0  0  0  0  0  0  0  0  0
   57.0630   28.6690   45.4670 C   0  0  0  0  0  0  0  0  0  0  0  0
   58.1650   28.1770   46.1840 C   0  0  0  0  0  0  0  0  0  0  0  0
   58.0550   26.9310   46.8040 C   0  0  0  0  0  0  0  0  0  0  0  0
   59.0250   26.4610   47.4540 O   0  0  0  0  0  0  0  0  0  0  0  0
   56.9010   26.2240   46.7050 N   0  0  0  0  0  0  0  0  0  0  0  0
   55.8420   26.7110   46.0070 C   0  0  0  0  0  0  0  0  0  0  0  0
   54.7820   26.0400   45.9260 O   0  0  0  0  0  0  0  0  0  0  0  0
   55.9280   27.9210   45.3970 N   0  0  0  0  0  0  0  0  0  0  0  0
   59.0800   32.1850   46.4830 C   0  0  0  0  0  0  0  0  0  0  0  0
   62.4760   32.8530   47.0500 C   0  0  0  0  0  0  0  0  0  0  0  0
   63.5120   32.7880   47.9300 N   0  0  0  0  0  0  0  0  0  0  0  0
   65.6883   31.4676   51.1202 H   0  0  0  0  0  0  0  0  0  0  0  0
   64.9496   30.9501   49.5667 H   0  0  0  0  0  0  0  0  0  0  0  0
   66.3202   32.1112   49.5667 H   0  0  0  0  0  0  0  0  0  0  0  0
   64.5869   33.4976   52.2013 H   0  0  0  0  0  0  0  0  0  0  0  0
   65.6808   34.3779   51.0809 H   0  0  0  0  0  0  0  0  0  0  0  0
   63.9200   34.7331   51.0809 H   0  0  0  0  0  0  0  0  0  0  0  0
   61.8849   33.4442   50.8278 H   0  0  0  0  0  0  0  0  0  0  0  0
   59.9659   33.5674   49.2428 H   0  0  0  0  0  0  0  0  0  0  0  0
   60.6557   35.1203   45.6982 H   0  0  0  0  0  0  0  0  0  0  0  0
   58.7391   35.2572   44.1160 H   0  0  0  0  0  0  0  0  0  0  0  0
   57.0381   33.4365   44.0403 H   0  0  0  0  0  0  0  0  0  0  0  0
   59.0948   28.7604   46.2558 H   0  0  0  0  0  0  0  0  0  0  0  0
   59.1650   31.3250   47.1635 H   0  0  0  0  0  0  0  0  0  0  0  0
   62.6599   32.6820   45.9790 H   0  0  0  0  0  0  0  0  0  0  0  0
   64.4570   32.5850   47.5380 H   0  0  0  0  0  0  0  0  0  0  0  0
  1  2  1  0
  2  3  1  0
  2  4  1  0
  4  5  2  0
  5  6  1  0
  6  7  2  0
  7  8  1  0
  8  9  2  0
  9 10  1  0
 10 11  2  0
 11 12  1  0
 12 13  1  0
 13 14  1  0
 14 15  2  0
 14 16  1  0
 16 17  2  0
 17 18  1  0
 18 19  2  0
 18 20  1  0
 20 21  1  0
 21 22  2  0
 21 23  1  0
 12 24  2  0
  7 25  1  0
 25 26  2  0
 26  4  1  0
 24  8  1  0
 23 16  1  0
  1 27  1  0
  1 28  1  0
  1 29  1  0
  3 30  1  0
  3 31  1  0
  3 32  1  0
  5 33  1  0
  6 34  1  0
  9 35  1  0
 10 36  1  0
 11 37  1  0
 17 38  1  0
 24 39  1  0
 25 40  1  0
 26 41  1  0
M  CHG  4  13  -1  20  -1  23  -1  26   1
M  END
>  <UniqueID>  (43) 
38

>  <SMILES>  (43) 
CN(C)c1ccc(-c2cccc([N-]C(=O)c3cc(=O)[n-]c(=O)[n-]3)c2)c[nH+]1

>  <Energy>  (43) 
54.589428578669974

>  <Genealogy>  (43) 
CN(C)c1ccc(-c2cccc([N-]C(=O)c3cc(=O)[n-]c(=O)[n-]3)c2)c[nH+]1 (protonated)
CN(C)c1ccc(-c2cccc([N-]C(=O)c3cc(=O)[n-]c(=O)[n-]3)c2)c[nH+]1 (3D coordinates assigned)
CN(C)c1ccc(-c2cccc([N-]C(=O)c3cc(=O)[n-]c(=O)[n-]3)c2)c[nH+]1 (optimized conformer: 54.589428578669974 kcal/mol)

>  <smiles>  (43) 
CN(C)c1ccc(-c2cccc(NC(=O)c3cc(=O)[nH]c(=O)[nH]3)c2)cn1

>  <score_type>  (43) 
oracle

>  <origin>  (43) 
adg

>  <m_score__min__energy>  (43) 
-12.869999999999999

>  <m_primary>  (43) 
energy

$$$$
43:0
     RDKit          3D

 52 54  0  0  0  0  0  0  0  0999 V2000
   57.1600   20.0170   45.3060 N   0  0  0  0  0  0  0  0  0  0  0  0
   56.6200   21.5690   45.8510 S   0  0  0  0  0  0  0  0  0  0  0  0
   57.3490   21.9200   47.1190 O   0  0  0  0  0  0  0  0  0  0  0  0
   55.1420   21.5150   46.1270 O   0  0  0  0  0  0  0  0  0  0  0  0
   56.9580   22.8250   44.6250 C   0  0  0  0  0  0  0  0  0  0  0  0
   56.0650   24.0500   44.8270 C   0  0  0  0  0  0  0  0  0  0  0  0
   55.9730   24.3710   46.2640 N   0  0  0  0  0  0  0  0  0  0  0  0
   57.1930   25.0080   46.7810 C   0  0  0  0  0  0  0  0  0  0  0  0
   57.4990   26.2780   46.0300 C   0  0  0  0  0  0  0  0  0  0  0  0
   58.8260   26.5830   45.6760 C   0  0  0  0  0  0  0  0  0  0  0  0
   59.1200   27.7640   44.9900 C   0  0  0  0  0  0  0  0  0  0  0  0
   58.0890   28.6420   44.6210 C   0  0  0  0  0  0  0  0  0  0  0  0
   58.3700   29.8720   43.9470 N   0  0  0  0  0  0  0  0  0  0  0  0
   58.0140   31.4410   44.6070 S   0  0  0  0  0  0  0  0  0  0  0  0
   58.0170   32.4540   43.4910 O   0  0  0  0  0  0  0  0  0  0  0  0
   56.6420   31.4150   45.2290 O   0  0  0  0  0  0  0  0  0  0  0  0
   59.1910   31.9190   45.8270 C   0  0  0  0  0  0  0  0  0  0  0  0
   59.4520   33.2760   46.0510 C   0  0  0  0  0  0  0  0  0  0  0  0
   60.4140   33.6630   46.9880 C   0  0  0  0  0  0  0  0  0  0  0  0
   61.1450   32.6980   47.7050 C   0  0  0  0  0  0  0  0  0  0  0  0
   62.2040   33.1110   48.6650 C   0  0  0  0  0  0  0  0  0  0  0  0
   63.5450   32.7340   48.4600 C   0  0  0  0  0  0  0  0  0  0  0  0
   64.5340   33.1010   49.3790 C   0  0  0  0  0  0  0  0  0  0  0  0
   64.1960   33.8510   50.5100 C   0  0  0  0  0  0  0  0  0  0  0  0
   62.8690   34.2350   50.7220 C   0  0  0  0  0  0  0  0  0  0  0  0
   61.8770   33.8680   49.8070 C   0  0  0  0  0  0  0  0  0  0  0  0
   60.8680   31.3350   47.4840 C   0  0  0  0  0  0  0  0  0  0  0  0
   59.8970   30.9510   46.5530 C   0  0  0  0  0  0  0  0  0  0  0  0
   56.7680   28.3490   44.9840 C   0  0  0  0  0  0  0  0  0  0  0  0
   56.4680   27.1700   45.6750 C   0  0  0  0  0  0  0  0  0  0  0  0
   55.1460   26.8950   46.0100 O   0  0  0  0  0  0  0  0  0  0  0  0
   57.0410   19.9870   44.2680 H   0  0  0  0  0  0  0  0  0  0  0  0
   58.1880   19.9650   45.4900 H   0  0  0  0  0  0  0  0  0  0  0  0
   58.0113   23.1315   44.7064 H   0  0  0  0  0  0  0  0  0  0  0  0
   56.7521   22.4044   43.6297 H   0  0  0  0  0  0  0  0  0  0  0  0
   56.4943   24.9075   44.2882 H   0  0  0  0  0  0  0  0  0  0  0  0
   55.0589   23.8336   44.4385 H   0  0  0  0  0  0  0  0  0  0  0  0
   55.8530   23.4720   46.7870 H   0  0  0  0  0  0  0  0  0  0  0  0
   57.0515   25.2450   47.8458 H   0  0  0  0  0  0  0  0  0  0  0  0
   58.0345   24.3118   46.6496 H   0  0  0  0  0  0  0  0  0  0  0  0
   59.6364   25.8879   45.9408 H   0  0  0  0  0  0  0  0  0  0  0  0
   60.1630   28.0066   44.7382 H   0  0  0  0  0  0  0  0  0  0  0  0
   58.8977   34.0408   45.4872 H   0  0  0  0  0  0  0  0  0  0  0  0
   60.6014   34.7321   47.1666 H   0  0  0  0  0  0  0  0  0  0  0  0
   63.8171   32.1466   47.5707 H   0  0  0  0  0  0  0  0  0  0  0  0
   65.5785   32.7993   49.2118 H   0  0  0  0  0  0  0  0  0  0  0  0
   64.9742   34.1385   51.2323 H   0  0  0  0  0  0  0  0  0  0  0  0
   62.6042   34.8271   51.6104 H   0  0  0  0  0  0  0  0  0  0  0  0
   60.8343   34.1726   49.9803 H   0  0  0  0  0  0  0  0  0  0  0  0
   61.4188   30.5672   48.0472 H   0  0  0  0  0  0  0  0  0  0  0  0
   59.6868   29.8836   46.3902 H   0  0  0  0  0  0  0  0  0  0  0  0
   55.9615   29.0504   44.7241 H   0  0  0  0  0  0  0  0  0  0  0  0
  1  2  1  0
  2  3  2  0
  2  4  2  0
  2  5  1  0
  5  6  1  0
  6  7  1  0
  7  8  1  0
  8  9  1  0
  9 10  2  0
 10 11  1  0
 11 12  2  0
 12 13  1  0
 13 14  1  0
 14 15  2  0
 14 16  2  0
 14 17  1  0
 17 18  2  0
 18 19  1  0
 19 20  2  0
 20 21  1  0
 21 22  2  0
 22 23  1  0
 23 24  2  0
 24 25  1  0
 25 26  2  0
 20 27  1  0
 27 28  2  0
 12 29  1  0
 29 30  2  0
 30 31  1  0
 30  9  1  0
 28 17  1  0
 26 21  1  0
  1 32  1  0
  1 33  1  0
  5 34  1  0
  5 35  1  0
  6 36  1  0
  6 37  1  0
  7 38  1  0
  8 39  1  0
  8 40  1  0
 10 41  1  0
 11 42  1  0
 18 43  1  0
 19 44  1  0
 22 45  1  0
 23 46  1  0
 24 47  1  0
 25 48  1  0
 26 49  1  0
 27 50  1  0
 28 51  1  0
 29 52  1  0
M  CHG  2  13  -1  31  -1
M  END
>  <UniqueID>  (44) 
39

>  <SMILES>  (44) 
NS(=O)(=O)CCNCc1ccc([N-]S(=O)(=O)c2ccc(-c3ccccc3)cc2)cc1[O-]

>  <Energy>  (44) 
57.976624737352594

>  <Genealogy>  (44) 
NS(=O)(=O)CCNCc1ccc([N-]S(=O)(=O)c2ccc(-c3ccccc3)cc2)cc1[O-] (protonated)
NS(=O)(=O)CCNCc1ccc([N-]S(=O)(=O)c2ccc(-c3ccccc3)cc2)cc1[O-] (3D coordinates assigned)
NS(=O)(=O)CCNCc1ccc([N-]S(=O)(=O)c2ccc(-c3ccccc3)cc2)cc1[O-] (optimized conformer: 57.976624737352594 kcal/mol)

>  <smiles>  (44) 
NS(=O)(=O)CCNCc1ccc(NS(=O)(=O)c2ccc(-c3ccccc3)cc2)cc1O

>  <score_type>  (44) 
oracle

>  <origin>  (44) 
adg

>  <m_score__min__energy>  (44) 
-14.51

>  <m_primary>  (44) 
energy

$$$$
44:0
     RDKit          3D

 54 57  0  0  0  0  0  0  0  0999 V2000
   54.7690   26.7200   47.1580 H   0  0  0  0  0  0  0  0  0  0  0  0
   55.0820   26.5790   46.2070 O   0  0  0  0  0  0  0  0  0  0  0  0
   55.0110   25.3430   45.5610 C   0  0  0  0  0  0  0  0  0  0  0  0
   53.8040   24.7270   45.4650 N   0  0  0  0  0  0  0  0  0  0  0  0
   53.6740   23.5170   44.8660 C   0  0  0  0  0  0  0  0  0  0  0  0
   52.5420   22.9720   44.7890 O   0  0  0  0  0  0  0  0  0  0  0  0
   54.7640   22.8920   44.3520 N   0  0  0  0  0  0  0  0  0  0  0  0
   55.9940   23.4610   44.4180 C   0  0  0  0  0  0  0  0  0  0  0  0
   56.9850   22.8490   43.9340 O   0  0  0  0  0  0  0  0  0  0  0  0
   56.1530   24.7220   45.0140 C   0  0  0  0  0  0  0  0  0  0  0  0
   57.4900   25.3340   45.1130 C   0  0  0  0  0  0  0  0  0  0  0  0
   58.3565   24.6589   45.0554 H   0  0  0  0  0  0  0  0  0  0  0  0
   57.7440   26.6490   45.2680 C   0  0  0  0  0  0  0  0  0  0  0  0
   57.6030   27.5590   44.2330 C   0  0  0  0  0  0  0  0  0  0  0  0
   57.2517   27.3411   43.2137 H   0  0  0  0  0  0  0  0  0  0  0  0
   57.9860   28.7880   44.7220 C   0  0  0  0  0  0  0  0  0  0  0  0
   58.0120   30.0560   43.9230 C   0  0  0  0  0  0  0  0  0  0  0  0
   58.0297   30.9189   44.6050 H   0  0  0  0  0  0  0  0  0  0  0  0
   58.9107   30.0714   43.2888 H   0  0  0  0  0  0  0  0  0  0  0  0
   57.1147   30.1082   43.2888 H   0  0  0  0  0  0  0  0  0  0  0  0
   58.3540   28.6840   46.0180 N   0  0  0  0  0  0  0  0  0  0  0  0
   58.7830   29.7760   46.8500 C   0  0  0  0  0  0  0  0  0  0  0  0
   59.8180   29.5920   47.7790 C   0  0  0  0  0  0  0  0  0  0  0  0
   60.3116   28.6125   47.8630 H   0  0  0  0  0  0  0  0  0  0  0  0
   60.2240   30.6490   48.5980 C   0  0  0  0  0  0  0  0  0  0  0  0
   61.0445   30.5004   49.3154 H   0  0  0  0  0  0  0  0  0  0  0  0
   59.5910   31.9000   48.5110 C   0  0  0  0  0  0  0  0  0  0  0  0
   60.0210   33.0280   49.3670 C   0  0  0  0  0  0  0  0  0  0  0  0
   59.1560   33.6390   50.0520 O   0  0  0  0  0  0  0  0  0  0  0  0
   61.4010   33.4400   49.4380 N   0  0  0  0  0  0  0  0  0  0  0  0
   62.1210   33.8210   48.2090 C   0  0  0  0  0  0  0  0  0  0  0  0
   62.0483   34.9099   48.0712 H   0  0  0  0  0  0  0  0  0  0  0  0
   61.6656   33.2962   47.3562 H   0  0  0  0  0  0  0  0  0  0  0  0
   63.5660   33.4320   48.2970 C   0  0  0  0  0  0  0  0  0  0  0  0
   64.1930   33.0880   47.2590 O   0  0  0  0  0  0  0  0  0  0  0  0
   64.2270   33.4870   49.5690 N   0  0  0  0  0  0  0  0  0  0  0  0
   65.6040   33.0110   49.7150 C   0  0  0  0  0  0  0  0  0  0  0  0
   65.8511   32.9256   50.7835 H   0  0  0  0  0  0  0  0  0  0  0  0
   65.7043   32.0261   49.2356 H   0  0  0  0  0  0  0  0  0  0  0  0
   66.2911   33.7238   49.2356 H   0  0  0  0  0  0  0  0  0  0  0  0
   63.4740   34.0170   50.7060 C   0  0  0  0  0  0  0  0  0  0  0  0
   63.3769   35.1078   50.6026 H   0  0  0  0  0  0  0  0  0  0  0  0
   64.0083   33.7779   51.6373 H   0  0  0  0  0  0  0  0  0  0  0  0
   62.0780   33.3840   50.7480 C   0  0  0  0  0  0  0  0  0  0  0  0
   61.4664   33.9235   51.4862 H   0  0  0  0  0  0  0  0  0  0  0  0
   62.1954   32.3253   51.0225 H   0  0  0  0  0  0  0  0  0  0  0  0
   58.5650   32.0840   47.5690 C   0  0  0  0  0  0  0  0  0  0  0  0
   58.0783   33.0660   47.4753 H   0  0  0  0  0  0  0  0  0  0  0  0
   58.1590   31.0260   46.7500 C   0  0  0  0  0  0  0  0  0  0  0  0
   57.3462   31.1759   46.0241 H   0  0  0  0  0  0  0  0  0  0  0  0
   58.1970   27.3840   46.3790 C   0  0  0  0  0  0  0  0  0  0  0  0
   58.4270   26.9350   47.6240 C   0  0  0  0  0  0  0  0  0  0  0  0
   58.7828   27.6272   48.4014 H   0  0  0  0  0  0  0  0  0  0  0  0
   58.2596   25.8751   47.8661 H   0  0  0  0  0  0  0  0  0  0  0  0
  1  2  1  0
  2  3  1  0
  3  4  1  0
  4  5  1  0
  5  6  2  0
  5  7  1  0
  7  8  1  0
  8  9  2  0
  8 10  1  0
 10 11  1  0
 11 12  1  0
 11 13  2  0
 13 14  1  0
 14 15  1  0
 14 16  2  0
 16 17  1  0
 17 18  1  0
 17 19  1  0
 17 20  1  0
 16 21  1  0
 21 22  1  0
 22 23  2  0
 23 24  1  0
 23 25  1  0
 25 26  1  0
 25 27  2  0
 27 28  1  0
 28 29  2  0
 28 30  1  0
 30 31  1  0
 31 32  1  0
 31 33  1  0
 31 34  1  0
 34 35  2  0
 34 36  1  0
 36 37  1  0
 37 38  1  0
 37 39  1  0
 37 40  1  0
 36 41  1  0
 41 42  1  0
 41 43  1  0
 41 44  1  0
 44 45  1  0
 44 46  1  0
 27 47  1  0
 47 48  1  0
 47 49  2  0
 49 50  1  0
 21 51  1  0
 51 52  2  0
 52 53  1  0
 52 54  1  0
 10  3  2  0
 51 13  1  0
 49 22  1  0
 44 30  1  0
M  CHG  2   4  -1   7  -1
M  END
>  <UniqueID>  (45) 
40

>  <SMILES>  (45) 
C=c1/c(=C\c2c(O)[n-]c(=O)[n-]c2=O)cc(C)n1-c1ccc(C(=O)N2CCN(C)C(=O)C2)cc1

>  <Energy>  (45) 
110.29191644517732

>  <Genealogy>  (45) 
C=c1c(=Cc2c(O)[n-]c(=O)[n-]c2=O)cc(C)n1-c1ccc(C(=O)N2CCN(C)C(=O)C2)cc1 (protonated)
C=c1/c(=C\c2c(O)[n-]c(=O)[n-]c2=O)cc(C)n1-c1ccc(C(=O)N2CCN(C)C(=O)C2)cc1 (cis-trans isomerization)
C=c1/c(=C\c2c(O)[n-]c(=O)[n-]c2=O)cc(C)n1-c1ccc(C(=O)N2CCN(C)C(=O)C2)cc1 (3D coordinates assigned)
C=c1/c(=C\c2c(O)[n-]c(=O)[n-]c2=O)cc(C)n1-c1ccc(C(=O)N2CCN(C)C(=O)C2)cc1 (nonaromatic ring conformer: 110.29191644517732 kcal/mol)

>  <smiles>  (45) 
C=c1c(=Cc2c(O)[nH]c(=O)[nH]c2=O)cc(C)n1-c1ccc(C(=O)N2CCN(C)C(=O)C2)cc1

>  <score_type>  (45) 
oracle

>  <origin>  (45) 
adg

>  <m_score__min__energy>  (45) 
-13.609999999999999

>  <m_primary>  (45) 
energy

$$$$
45:0
     RDKit          3D

 55 57  0  0  0  0  0  0  0  0999 V2000
   57.5880   29.8770   51.2170 O   0  0  0  0  0  0  0  0  0  0  0  0
   58.4150   30.1230   50.3010 C   0  0  0  0  0  0  0  0  0  0  0  0
   59.5770   29.1940   50.0630 C   0  0  0  0  0  0  0  0  0  0  0  0
   60.0460   29.2570   48.6690 N   0  0  0  0  0  0  0  0  0  0  0  0
   59.6770   28.1720   47.7420 C   0  0  0  0  0  0  0  0  0  0  0  0
   58.9340   28.7080   46.5530 C   0  0  0  0  0  0  0  0  0  0  0  0
   58.8170   27.9920   45.5220 O   0  0  0  0  0  0  0  0  0  0  0  0
   58.3620   30.0240   46.5890 N   0  0  0  0  0  0  0  0  0  0  0  0
   57.5110   30.5270   45.5060 C   0  0  0  0  0  0  0  0  0  0  0  0
   58.3270   30.9680   44.2980 C   0  0  0  0  0  0  0  0  0  0  0  0
   57.3760   30.8480   43.1180 C   0  0  0  0  0  0  0  0  0  0  0  0
   56.3500   29.7820   43.4990 C   0  0  0  0  0  0  0  0  0  0  0  0
   56.5820   29.4470   44.9710 C   0  0  0  0  0  0  0  0  0  0  0  0
   60.8650   30.3760   48.2490 C   0  0  0  0  0  0  0  0  0  0  0  0
   60.6520   30.9100   47.1240 O   0  0  0  0  0  0  0  0  0  0  0  0
   62.0090   30.8840   49.0920 C   0  0  0  0  0  0  0  0  0  0  0  0
   62.7240   32.0220   48.4310 C   0  0  0  0  0  0  0  0  0  0  0  0
   63.2150   32.0310   47.1330 C   0  0  0  0  0  0  0  0  0  0  0  0
   63.7750   33.2610   46.7640 C   0  0  0  0  0  0  0  0  0  0  0  0
   63.7150   34.2220   47.7650 C   0  0  0  0  0  0  0  0  0  0  0  0
   62.9610   33.5430   49.1080 S   0  0  0  0  0  0  0  0  0  0  0  0
   58.1960   31.2660   49.4660 N   0  0  0  0  0  0  0  0  0  0  0  0
   58.9030   32.5320   49.6140 C   0  0  0  0  0  0  0  0  0  0  0  0
   58.9250   33.2480   48.2950 C   0  0  0  0  0  0  0  0  0  0  0  0
   60.0000   34.0890   47.9600 C   0  0  0  0  0  0  0  0  0  0  0  0
   60.0070   34.7710   46.7390 C   0  0  0  0  0  0  0  0  0  0  0  0
   58.9380   34.6280   45.8510 C   0  0  0  0  0  0  0  0  0  0  0  0
   58.9470   35.2910   44.6680 F   0  0  0  0  0  0  0  0  0  0  0  0
   57.8570   33.8070   46.1850 C   0  0  0  0  0  0  0  0  0  0  0  0
   57.8460   33.1220   47.4050 C   0  0  0  0  0  0  0  0  0  0  0  0
   60.4036   29.4783   50.7307 H   0  0  0  0  0  0  0  0  0  0  0  0
   59.2424   28.1661   50.2668 H   0  0  0  0  0  0  0  0  0  0  0  0
   60.5915   27.6675   47.3969 H   0  0  0  0  0  0  0  0  0  0  0  0
   59.0232   27.4649   48.2735 H   0  0  0  0  0  0  0  0  0  0  0  0
   58.4960   30.6010   47.4510 H   0  0  0  0  0  0  0  0  0  0  0  0
   56.9557   31.3652   45.9521 H   0  0  0  0  0  0  0  0  0  0  0  0
   58.6652   32.0078   44.4182 H   0  0  0  0  0  0  0  0  0  0  0  0
   59.2318   30.3569   44.1642 H   0  0  0  0  0  0  0  0  0  0  0  0
   56.8750   31.8098   42.9336 H   0  0  0  0  0  0  0  0  0  0  0  0
   57.9136   30.5740   42.1983 H   0  0  0  0  0  0  0  0  0  0  0  0
   55.3307   30.1700   43.3557 H   0  0  0  0  0  0  0  0  0  0  0  0
   56.4611   28.8866   42.8698 H   0  0  0  0  0  0  0  0  0  0  0  0
   55.6288   29.4566   45.5199 H   0  0  0  0  0  0  0  0  0  0  0  0
   57.0181   28.4444   45.0920 H   0  0  0  0  0  0  0  0  0  0  0  0
   61.6137   31.2259   50.0599 H   0  0  0  0  0  0  0  0  0  0  0  0
   62.7265   30.0611   49.2265 H   0  0  0  0  0  0  0  0  0  0  0  0
   63.1691   31.1606   46.4619 H   0  0  0  0  0  0  0  0  0  0  0  0
   64.2199   33.4479   45.7755 H   0  0  0  0  0  0  0  0  0  0  0  0
   64.0955   35.2516   47.6925 H   0  0  0  0  0  0  0  0  0  0  0  0
   58.3886   33.1545   50.3609 H   0  0  0  0  0  0  0  0  0  0  0  0
   59.9343   32.3403   49.9452 H   0  0  0  0  0  0  0  0  0  0  0  0
   60.8390   34.2113   48.6608 H   0  0  0  0  0  0  0  0  0  0  0  0
   60.8552   35.4208   46.4775 H   0  0  0  0  0  0  0  0  0  0  0  0
   57.0134   33.6993   45.4873 H   0  0  0  0  0  0  0  0  0  0  0  0
   56.9900   32.4831   47.6677 H   0  0  0  0  0  0  0  0  0  0  0  0
  1  2  2  0
  2  3  1  0
  3  4  1  0
  4  5  1  0
  5  6  1  0
  6  7  2  0
  6  8  1  0
  8  9  1  0
  9 10  1  0
 10 11  1  0
 11 12  1  0
 12 13  1  0
  4 14  1  0
 14 15  2  0
 14 16  1  0
 16 17  1  0
 17 18  2  0
 18 19  1  0
 19 20  2  0
 20 21  1  0
  2 22  1  0
 22 23  1  0
 23 24  1  0
 24 25  2  0
 25 26  1  0
 26 27  2  0
 27 28  1  0
 27 29  1  0
 29 30  2  0
 13  9  1  0
 21 17  1  0
 30 24  1  0
  3 31  1  0
  3 32  1  0
  5 33  1  0
  5 34  1  0
  8 35  1  0
  9 36  1  0
 10 37  1  0
 10 38  1  0
 11 39  1  0
 11 40  1  0
 12 41  1  0
 12 42  1  0
 13 43  1  0
 13 44  1  0
 16 45  1  0
 16 46  1  0
 18 47  1  0
 19 48  1  0
 20 49  1  0
 23 50  1  0
 23 51  1  0
 25 52  1  0
 26 53  1  0
 29 54  1  0
 30 55  1  0
M  CHG  1  22  -1
M  END
>  <UniqueID>  (46) 
41

>  <SMILES>  (46) 
O=C(CN(CC(=O)NC1CCCC1)C(=O)Cc1cccs1)[N-]Cc1ccc(F)cc1

>  <Energy>  (46) 
74.6782082458363

>  <Genealogy>  (46) 
O=C(CN(CC(=O)NC1CCCC1)C(=O)Cc1cccs1)[N-]Cc1ccc(F)cc1 (protonated)
O=C(CN(CC(=O)NC1CCCC1)C(=O)Cc1cccs1)[N-]Cc1ccc(F)cc1 (3D coordinates assigned)
O=C(CN(CC(=O)NC1CCCC1)C(=O)Cc1cccs1)[N-]Cc1ccc(F)cc1 (nonaromatic ring conformer: 74.6782082458363 kcal/mol)

>  <smiles>  (46) 
O=C(CN(CC(=O)NC1CCCC1)C(=O)Cc1cccs1)NCc1ccc(F)cc1

>  <score_type>  (46) 
oracle

>  <origin>  (46) 
adg

>  <m_score__min__energy>  (46) 
-10.5

>  <m_primary>  (46) 
energy

$$$$
46:0
     RDKit          3D

 70 75  0  0  0  0  0  0  0  0999 V2000
   56.2997   24.0038   46.3326 H   0  0  0  0  0  0  0  0  0  0  0  0
   56.8220   24.9590   46.4900 C   0  0  0  0  0  0  0  0  0  0  0  0
   56.4250   26.0680   45.8140 N   0  0  0  0  0  0  0  0  0  0  0  0
   57.0200   27.2840   45.9600 C   0  0  0  0  0  0  0  0  0  0  0  0
   56.5410   28.2700   45.2460 N   0  0  0  0  0  0  0  0  0  0  0  0
   57.0890   28.9610   44.0730 C   0  0  0  0  0  0  0  0  0  0  0  0
   57.3047   28.2137   43.2952 H   0  0  0  0  0  0  0  0  0  0  0  0
   56.0720   29.9700   43.4960 C   0  0  0  0  0  0  0  0  0  0  0  0
   56.4423   30.3376   42.5276 H   0  0  0  0  0  0  0  0  0  0  0  0
   55.1061   29.4578   43.3749 H   0  0  0  0  0  0  0  0  0  0  0  0
   55.8720   31.1620   44.4390 C   0  0  0  0  0  0  0  0  0  0  0  0
   55.1883   31.8859   43.9716 H   0  0  0  0  0  0  0  0  0  0  0  0
   55.4446   30.8050   45.3876 H   0  0  0  0  0  0  0  0  0  0  0  0
   57.1670   31.8150   44.7060 N   0  0  0  0  0  0  0  0  0  0  0  0
   57.0220   33.1030   45.4210 C   0  0  0  0  0  0  0  0  0  0  0  0
   56.8379   33.8930   44.6781 H   0  0  0  0  0  0  0  0  0  0  0  0
   56.1865   32.9848   46.1266 H   0  0  0  0  0  0  0  0  0  0  0  0
   58.2370   33.4900   46.2380 C   0  0  0  0  0  0  0  0  0  0  0  0
   59.3690   34.0430   45.6130 C   0  0  0  0  0  0  0  0  0  0  0  0
   59.3754   34.1891   44.5228 H   0  0  0  0  0  0  0  0  0  0  0  0
   60.4860   34.4080   46.3700 C   0  0  0  0  0  0  0  0  0  0  0  0
   61.3657   34.8459   45.8756 H   0  0  0  0  0  0  0  0  0  0  0  0
   60.4860   34.2170   47.7550 C   0  0  0  0  0  0  0  0  0  0  0  0
   61.3653   34.5055   48.3497 H   0  0  0  0  0  0  0  0  0  0  0  0
   59.3700   33.6600   48.3840 C   0  0  0  0  0  0  0  0  0  0  0  0
   59.3721   33.5083   49.4735 H   0  0  0  0  0  0  0  0  0  0  0  0
   58.2500   33.2950   47.6300 C   0  0  0  0  0  0  0  0  0  0  0  0
   57.3749   32.8531   48.1288 H   0  0  0  0  0  0  0  0  0  0  0  0
   58.1010   30.8910   45.3760 C   0  0  0  0  0  0  0  0  0  0  0  0
   59.0431   31.4166   45.5910 H   0  0  0  0  0  0  0  0  0  0  0  0
   57.6504   30.5376   46.3152 H   0  0  0  0  0  0  0  0  0  0  0  0
   58.3850   29.6890   44.4680 C   0  0  0  0  0  0  0  0  0  0  0  0
   58.8890   30.0414   43.5560 H   0  0  0  0  0  0  0  0  0  0  0  0
   59.0224   28.9828   45.0203 H   0  0  0  0  0  0  0  0  0  0  0  0
   58.1080   27.3990   46.8720 C   0  0  0  0  0  0  0  0  0  0  0  0
   58.7630   28.5710   47.0850 N   0  0  0  0  0  0  0  0  0  0  0  0
   59.8230   28.6650   47.9350 C   0  0  0  0  0  0  0  0  0  0  0  0
   60.4700   29.7840   48.0750 N   0  0  0  0  0  0  0  0  0  0  0  0
   60.4360   30.5930   49.2600 C   0  0  0  0  0  0  0  0  0  0  0  0
   59.2800   30.6410   50.0510 C   0  0  0  0  0  0  0  0  0  0  0  0
   58.4141   30.0142   49.7914 H   0  0  0  0  0  0  0  0  0  0  0  0
   59.2200   31.4780   51.1650 C   0  0  0  0  0  0  0  0  0  0  0  0
   58.3003   31.5202   51.7670 H   0  0  0  0  0  0  0  0  0  0  0  0
   60.3240   32.2670   51.5240 C   0  0  0  0  0  0  0  0  0  0  0  0
   60.2420   33.1900   52.6830 C   0  0  0  0  0  0  0  0  0  0  0  0
   59.2880   34.1710   52.9120 C   0  0  0  0  0  0  0  0  0  0  0  0
   58.4299   34.3996   52.2629 H   0  0  0  0  0  0  0  0  0  0  0  0
   59.5930   34.7950   54.0650 N   0  0  0  0  0  0  0  0  0  0  0  0
   58.8940   35.9460   54.6250 C   0  0  0  0  0  0  0  0  0  0  0  0
   58.9250   35.8950   55.7234 H   0  0  0  0  0  0  0  0  0  0  0  0
   59.3826   36.8718   54.2870 H   0  0  0  0  0  0  0  0  0  0  0  0
   57.8472   35.9394   54.2870 H   0  0  0  0  0  0  0  0  0  0  0  0
   60.6990   34.2740   54.5670 N   0  0  0  0  0  0  0  0  0  0  0  0
   61.1680   34.5920   55.4440 H   0  0  0  0  0  0  0  0  0  0  0  0
   61.1210   33.2880   53.7550 C   0  0  0  0  0  0  0  0  0  0  0  0
   62.0127   32.6637   53.9131 H   0  0  0  0  0  0  0  0  0  0  0  0
   61.5030   32.1760   50.7580 C   0  0  0  0  0  0  0  0  0  0  0  0
   62.3856   32.7657   51.0467 H   0  0  0  0  0  0  0  0  0  0  0  0
   61.5650   31.3390   49.6270 C   0  0  0  0  0  0  0  0  0  0  0  0
   62.7180   31.2400   48.8310 O   0  0  0  0  0  0  0  0  0  0  0  0
   62.8730   31.8540   47.5560 C   0  0  0  0  0  0  0  0  0  0  0  0
   63.1403   32.9127   47.6889 H   0  0  0  0  0  0  0  0  0  0  0  0
   63.6701   31.3420   46.9969 H   0  0  0  0  0  0  0  0  0  0  0  0
   61.9284   31.7817   46.9969 H   0  0  0  0  0  0  0  0  0  0  0  0
   60.2440   27.5630   48.6050 N   0  0  0  0  0  0  0  0  0  0  0  0
   59.6210   26.3660   48.4500 C   0  0  0  0  0  0  0  0  0  0  0  0
   59.9688   25.4873   49.0129 H   0  0  0  0  0  0  0  0  0  0  0  0
   58.5370   26.2520   47.5740 C   0  0  0  0  0  0  0  0  0  0  0  0
   57.8890   25.0290   47.3820 C   0  0  0  0  0  0  0  0  0  0  0  0
   58.2176   24.1328   47.9286 H   0  0  0  0  0  0  0  0  0  0  0  0
  1  2  1  0
  2  3  1  0
  3  4  1  0
  4  5  2  0
  5  6  1  0
  6  7  1  0
  6  8  1  0
  8  9  1  0
  8 10  1  0
  8 11  1  0
 11 12  1  0
 11 13  1  0
 11 14  1  0
 14 15  1  0
 15 16  1  0
 15 17  1  0
 15 18  1  0
 18 19  2  0
 19 20  1  0
 19 21  1  0
 21 22  1  0
 21 23  2  0
 23 24  1  0
 23 25  1  0
 25 26  1  0
 25 27  2  0
 27 28  1  0
 14 29  1  0
 29 30  1  0
 29 31  1  0
 29 32  1  0
 32 33  1  0
 32 34  1  0
  4 35  1  0
 35 36  2  0
 36 37  1  0
 37 38  2  0
 38 39  1  0
 39 40  2  0
 40 41  1  0
 40 42  1  0
 42 43  1  0
 42 44  2  0
 44 45  1  0
 45 46  2  0
 46 47  1  0
 46 48  1  0
 48 49  1  0
 49 50  1  0
 49 51  1  0
 49 52  1  0
 48 53  1  0
 53 54  1  0
 53 55  2  0
 55 56  1  0
 44 57  1  0
 57 58  1  0
 57 59  2  0
 59 60  1  0
 60 61  1  0
 61 62  1  0
 61 63  1  0
 61 64  1  0
 37 65  1  0
 65 66  1  0
 66 67  1  0
 66 68  2  0
 68 69  1  0
 69 70  1  0
 69  2  2  0
 32  6  1  0
 68 35  1  0
 27 18  1  0
 59 39  1  0
 55 45  1  0
M  CHG  3   3  -1  53   1  65  -1
M  END
>  <UniqueID>  (47) 
42

>  <SMILES>  (47) 
COc1cc(-c2c[nH+]n(C)c2)ccc1/N=c1\nc2/c(=N\C3CCN(Cc4ccccc4)CC3)[n-]ccc2c[n-]1

>  <Energy>  (47) 
122.7768155275433

>  <Genealogy>  (47) 
COc1cc(-c2c[nH+]n(C)c2)ccc1N=c1nc2c(=NC3CCN(Cc4ccccc4)CC3)[n-]ccc2c[n-]1 (protonated)
COc1cc(-c2c[nH+]n(C)c2)ccc1/N=c1\nc2/c(=N\C3CCN(Cc4ccccc4)CC3)[n-]ccc2c[n-]1 (cis-trans isomerization)
COc1cc(-c2c[nH+]n(C)c2)ccc1/N=c1\nc2/c(=N\C3CCN(Cc4ccccc4)CC3)[n-]ccc2c[n-]1 (3D coordinates assigned)
COc1cc(-c2c[nH+]n(C)c2)ccc1/N=c1\nc2/c(=N\C3CCN(Cc4ccccc4)CC3)[n-]ccc2c[n-]1 (nonaromatic ring conformer: 122.7768155275433 kcal/mol)

>  <smiles>  (47) 
COc1cc(-c2cnn(C)c2)ccc1N=c1nc2c(=NC3CCN(Cc4ccccc4)CC3)[nH]ccc2c[nH]1

>  <score_type>  (47) 
oracle

>  <origin>  (47) 
adg

>  <m_score__min__energy>  (47) 
-11.460000000000001

>  <m_primary>  (47) 
energy

$$$$
47:0
     RDKit          3D

 38 40  0  0  0  0  0  0  0  0999 V2000
   54.7660   27.4770   46.3630 H   0  0  0  0  0  0  0  0  0  0  0  0
   55.0370   26.5970   45.9450 O   0  0  0  0  0  0  0  0  0  0  0  0
   56.0590   25.8140   46.4780 C   0  0  0  0  0  0  0  0  0  0  0  0
   55.8310   24.7270   47.2320 N   0  0  0  0  0  0  0  0  0  0  0  0
   57.0760   24.2960   47.5210 C   0  0  0  0  0  0  0  0  0  0  0  0
   57.2950   23.2780   48.2280 O   0  0  0  0  0  0  0  0  0  0  0  0
   58.0690   25.0460   47.0000 N   0  0  0  0  0  0  0  0  0  0  0  0
   57.4170   26.0100   46.3220 C   0  0  0  0  0  0  0  0  0  0  0  0
   58.0630   27.1410   45.6200 C   0  0  0  0  0  0  0  0  0  0  0  0
   58.4459   26.9577   44.6052 H   0  0  0  0  0  0  0  0  0  0  0  0
   58.2180   28.3810   46.1310 C   0  0  0  0  0  0  0  0  0  0  0  0
   58.3810   28.7200   47.4710 C   0  0  0  0  0  0  0  0  0  0  0  0
   58.3935   28.0284   48.3263 H   0  0  0  0  0  0  0  0  0  0  0  0
   58.5240   30.0920   47.5190 C   0  0  0  0  0  0  0  0  0  0  0  0
   58.7560   30.8830   48.7700 C   0  0  0  0  0  0  0  0  0  0  0  0
   58.5691   30.2456   49.6468 H   0  0  0  0  0  0  0  0  0  0  0  0
   59.7965   31.2393   48.7909 H   0  0  0  0  0  0  0  0  0  0  0  0
   58.0728   31.7449   48.7909 H   0  0  0  0  0  0  0  0  0  0  0  0
   58.4760   30.6150   46.2750 N   0  0  0  0  0  0  0  0  0  0  0  0
   58.6000   32.0090   45.9470 C   0  0  0  0  0  0  0  0  0  0  0  0
   57.5570   32.6640   45.2730 C   0  0  0  0  0  0  0  0  0  0  0  0
   56.4250   31.9930   44.9460 F   0  0  0  0  0  0  0  0  0  0  0  0
   57.6730   34.0180   44.9480 C   0  0  0  0  0  0  0  0  0  0  0  0
   56.8541   34.5283   44.4197 H   0  0  0  0  0  0  0  0  0  0  0  0
   58.8270   34.7240   45.2930 C   0  0  0  0  0  0  0  0  0  0  0  0
   58.9152   35.7901   45.0366 H   0  0  0  0  0  0  0  0  0  0  0  0
   59.8700   34.0800   45.9630 C   0  0  0  0  0  0  0  0  0  0  0  0
   60.7764   34.6418   46.2327 H   0  0  0  0  0  0  0  0  0  0  0  0
   59.7670   32.7150   46.2950 C   0  0  0  0  0  0  0  0  0  0  0  0
   60.7950   32.0280   46.9600 O   0  0  0  0  0  0  0  0  0  0  0  0
   62.0490   32.6000   47.3110 C   0  0  0  0  0  0  0  0  0  0  0  0
   62.1394   32.6412   48.4065 H   0  0  0  0  0  0  0  0  0  0  0  0
   62.8614   31.9834   46.8990 H   0  0  0  0  0  0  0  0  0  0  0  0
   62.1160   33.6177   46.8990 H   0  0  0  0  0  0  0  0  0  0  0  0
   58.2890   29.5830   45.4160 C   0  0  0  0  0  0  0  0  0  0  0  0
   58.2010   29.7300   44.0840 C   0  0  0  0  0  0  0  0  0  0  0  0
   58.2716   30.7319   43.6354 H   0  0  0  0  0  0  0  0  0  0  0  0
   58.0583   28.8485   43.4416 H   0  0  0  0  0  0  0  0  0  0  0  0
  1  2  1  0
  2  3  1  0
  3  4  1  0
  4  5  1  0
  5  6  2  0
  5  7  1  0
  7  8  1  0
  8  9  1  0
  9 10  1  0
  9 11  2  0
 11 12  1  0
 12 13  1  0
 12 14  2  0
 14 15  1  0
 15 16  1  0
 15 17  1  0
 15 18  1  0
 14 19  1  0
 19 20  1  0
 20 21  2  0
 21 22  1  0
 21 23  1  0
 23 24  1  0
 23 25  2  0
 25 26  1  0
 25 27  1  0
 27 28  1  0
 27 29  2  0
 29 30  1  0
 30 31  1  0
 31 32  1  0
 31 33  1  0
 31 34  1  0
 19 35  1  0
 35 36  2  0
 36 37  1  0
 36 38  1  0
  8  3  2  0
 35 11  1  0
 29 20  1  0
M  CHG  2   4  -1   7  -1
M  END
>  <UniqueID>  (48) 
43

>  <SMILES>  (48) 
C=c1/c(=C/c2[n-]c(=O)[n-]c2O)cc(C)n1-c1c(F)cccc1OC

>  <Energy>  (48) 
108.01634268940387

>  <Genealogy>  (48) 
C=c1c(=Cc2[n-]c(=O)[n-]c2O)cc(C)n1-c1c(F)cccc1OC (protonated)
C=c1/c(=C/c2[n-]c(=O)[n-]c2O)cc(C)n1-c1c(F)cccc1OC (cis-trans isomerization)
C=c1/c(=C/c2[n-]c(=O)[n-]c2O)cc(C)n1-c1c(F)cccc1OC (3D coordinates assigned)
C=c1/c(=C/c2[n-]c(=O)[n-]c2O)cc(C)n1-c1c(F)cccc1OC (optimized conformer: 108.01634268940387 kcal/mol)

>  <smiles>  (48) 
C=c1c(=Cc2[nH]c(=O)[nH]c2O)cc(C)n1-c1c(F)cccc1OC

>  <score_type>  (48) 
oracle

>  <origin>  (48) 
adg

>  <m_score__min__energy>  (48) 
-12.32

>  <m_primary>  (48) 
energy

$$$$
48:0
     RDKit          3D

 46 47  0  0  0  0  0  0  0  0999 V2000
   55.5980   30.0340   43.9360 C   0  0  0  0  0  0  0  0  0  0  0  0
   55.5280   28.9610   44.8700 O   0  0  0  0  0  0  0  0  0  0  0  0
   56.6430   28.3160   45.4270 C   0  0  0  0  0  0  0  0  0  0  0  0
   57.9180   28.9140   45.4450 C   0  0  0  0  0  0  0  0  0  0  0  0
   59.0150   28.2420   46.0040 C   0  0  0  0  0  0  0  0  0  0  0  0
   60.3630   28.9050   46.0580 C   0  0  0  0  0  0  0  0  0  0  0  0
   60.1950   30.3550   45.9490 N   0  0  0  0  0  0  0  0  0  0  0  0
   59.7340   31.0750   47.4720 S   0  0  0  0  0  0  0  0  0  0  0  0
   58.6410   30.2320   48.0650 O   0  0  0  0  0  0  0  0  0  0  0  0
   60.8990   31.0590   48.4240 O   0  0  0  0  0  0  0  0  0  0  0  0
   59.1250   32.7110   47.3140 N   0  0  0  0  0  0  0  0  0  0  0  0
   57.9080   32.7980   46.4730 C   0  0  0  0  0  0  0  0  0  0  0  0
   58.1920   33.3760   45.0790 C   0  0  0  0  0  0  0  0  0  0  0  0
   58.8220   34.7780   45.1680 C   0  0  0  0  0  0  0  0  0  0  0  0
   59.6300   34.9940   46.4610 C   0  0  0  0  0  0  0  0  0  0  0  0
   60.1990   33.6720   46.9860 C   0  0  0  0  0  0  0  0  0  0  0  0
   58.8280   26.9740   46.5700 C   0  0  0  0  0  0  0  0  0  0  0  0
   57.5680   26.3730   46.5550 C   0  0  0  0  0  0  0  0  0  0  0  0
   56.4680   27.0370   45.9830 C   0  0  0  0  0  0  0  0  0  0  0  0
   55.1600   26.4480   45.9520 N   0  0  0  0  0  0  0  0  0  0  0  0
   54.8030   24.7660   45.7250 S   0  0  0  0  0  0  0  0  0  0  0  0
   55.7690   24.1100   44.3810 C   0  0  0  0  0  0  0  0  0  0  0  0
   55.1600   24.0240   46.9810 O   0  0  0  0  0  0  0  0  0  0  0  0
   53.3360   24.5820   45.4560 O   0  0  0  0  0  0  0  0  0  0  0  0
   55.6603   30.9889   44.4785 H   0  0  0  0  0  0  0  0  0  0  0  0
   56.4901   29.9124   43.3041 H   0  0  0  0  0  0  0  0  0  0  0  0
   54.6976   30.0294   43.3041 H   0  0  0  0  0  0  0  0  0  0  0  0
   58.0549   29.9178   45.0165 H   0  0  0  0  0  0  0  0  0  0  0  0
   60.8534   28.6629   47.0124 H   0  0  0  0  0  0  0  0  0  0  0  0
   60.9847   28.5430   45.2258 H   0  0  0  0  0  0  0  0  0  0  0  0
   61.0940   30.7790   45.6310 H   0  0  0  0  0  0  0  0  0  0  0  0
   57.4877   31.7882   46.3565 H   0  0  0  0  0  0  0  0  0  0  0  0
   57.2033   33.4759   46.9769 H   0  0  0  0  0  0  0  0  0  0  0  0
   58.8843   32.7059   44.5483 H   0  0  0  0  0  0  0  0  0  0  0  0
   57.2375   33.4598   44.5387 H   0  0  0  0  0  0  0  0  0  0  0  0
   59.4937   34.9156   44.3079 H   0  0  0  0  0  0  0  0  0  0  0  0
   57.9997   35.5086   45.1681 H   0  0  0  0  0  0  0  0  0  0  0  0
   60.4604   35.6850   46.2540 H   0  0  0  0  0  0  0  0  0  0  0  0
   58.9587   35.4124   47.2255 H   0  0  0  0  0  0  0  0  0  0  0  0
   60.8491   33.2319   46.2155 H   0  0  0  0  0  0  0  0  0  0  0  0
   60.7663   33.8817   47.9048 H   0  0  0  0  0  0  0  0  0  0  0  0
   59.6788   26.4491   47.0288 H   0  0  0  0  0  0  0  0  0  0  0  0
   57.4346   25.3731   46.9936 H   0  0  0  0  0  0  0  0  0  0  0  0
   56.6156   23.5351   44.7844 H   0  0  0  0  0  0  0  0  0  0  0  0
   55.1395   23.4518   43.7641 H   0  0  0  0  0  0  0  0  0  0  0  0
   56.1487   24.9378   43.7641 H   0  0  0  0  0  0  0  0  0  0  0  0
  1  2  1  0
  2  3  1  0
  3  4  2  0
  4  5  1  0
  5  6  1  0
  6  7  1  0
  7  8  1  0
  8  9  2  0
  8 10  2  0
  8 11  1  0
 11 12  1  0
 12 13  1  0
 13 14  1  0
 14 15  1  0
 15 16  1  0
  5 17  2  0
 17 18  1  0
 18 19  2  0
 19 20  1  0
 20 21  1  0
 21 22  1  0
 21 23  2  0
 21 24  2  0
 19  3  1  0
 16 11  1  0
  1 25  1  0
  1 26  1  0
  1 27  1  0
  4 28  1  0
  6 29  1  0
  6 30  1  0
  7 31  1  0
 12 32  1  0
 12 33  1  0
 13 34  1  0
 13 35  1  0
 14 36  1  0
 14 37  1  0
 15 38  1  0
 15 39  1  0
 16 40  1  0
 16 41  1  0
 17 42  1  0
 18 43  1  0
 22 44  1  0
 22 45  1  0
 22 46  1  0
M  CHG  1  20  -1
M  END
>  <UniqueID>  (49) 
44

>  <SMILES>  (49) 
COc1cc(CNS(=O)(=O)N2CCCCC2)ccc1[N-]S(C)(=O)=O

>  <Energy>  (49) 
46.554083322303846

>  <Genealogy>  (49) 
COc1cc(CNS(=O)(=O)N2CCCCC2)ccc1[N-]S(C)(=O)=O (protonated)
COc1cc(CNS(=O)(=O)N2CCCCC2)ccc1[N-]S(C)(=O)=O (3D coordinates assigned)
COc1cc(CNS(=O)(=O)N2CCCCC2)ccc1[N-]S(C)(=O)=O (nonaromatic ring conformer: 46.554083322303846 kcal/mol)

>  <smiles>  (49) 
COc1cc(CNS(=O)(=O)N2CCCCC2)ccc1NS(C)(=O)=O

>  <score_type>  (49) 
oracle

>  <origin>  (49) 
adg

>  <m_score__min__energy>  (49) 
-10.81

>  <m_primary>  (49) 
energy

$$$$
49:0
     RDKit          3D

 39 39  0  0  0  0  0  0  0  0999 V2000
   60.0680   26.6930   47.6310 C   0  0  0  0  0  0  0  0  0  0  0  0
   58.7560   26.7010   46.8470 C   0  0  0  0  0  0  0  0  0  0  0  0
   58.8100   25.6920   45.6980 C   0  0  0  0  0  0  0  0  0  0  0  0
   58.4990   28.0450   46.3220 N   0  0  0  0  0  0  0  0  0  0  0  0
   59.3740   28.6870   45.3800 C   0  0  0  0  0  0  0  0  0  0  0  0
   60.4960   28.1750   45.1080 O   0  0  0  0  0  0  0  0  0  0  0  0
   58.9790   30.0040   44.7560 C   0  0  0  0  0  0  0  0  0  0  0  0
   57.6990   30.5520   45.2550 N   0  0  0  0  0  0  0  0  0  0  0  0
   57.6430   32.0260   45.2010 C   0  0  0  0  0  0  0  0  0  0  0  0
   58.6330   32.6250   46.1630 C   0  0  0  0  0  0  0  0  0  0  0  0
   58.8880   31.9940   47.3920 C   0  0  0  0  0  0  0  0  0  0  0  0
   59.8200   32.5380   48.2840 C   0  0  0  0  0  0  0  0  0  0  0  0
   60.5050   33.7150   47.9540 C   0  0  0  0  0  0  0  0  0  0  0  0
   61.6770   34.3920   49.0690 Cl  0  0  0  0  0  0  0  0  0  0  0  0
   60.2610   34.3450   46.7290 C   0  0  0  0  0  0  0  0  0  0  0  0
   59.3300   33.8040   45.8360 C   0  0  0  0  0  0  0  0  0  0  0  0
   56.3060   29.8310   44.4750 S   0  0  0  0  0  0  0  0  0  0  0  0
   56.6710   29.3740   42.7920 C   0  0  0  0  0  0  0  0  0  0  0  0
   55.1460   30.7870   44.4870 O   0  0  0  0  0  0  0  0  0  0  0  0
   55.9120   28.5840   45.2150 O   0  0  0  0  0  0  0  0  0  0  0  0
   59.8508   26.6943   48.7093 H   0  0  0  0  0  0  0  0  0  0  0  0
   60.6433   25.7913   47.3740 H   0  0  0  0  0  0  0  0  0  0  0  0
   60.6542   27.5876   47.3740 H   0  0  0  0  0  0  0  0  0  0  0  0
   57.9389   26.4139   47.5252 H   0  0  0  0  0  0  0  0  0  0  0  0
   58.8646   24.6725   46.1075 H   0  0  0  0  0  0  0  0  0  0  0  0
   57.9053   25.7910   45.0802 H   0  0  0  0  0  0  0  0  0  0  0  0
   59.6990   25.8870   45.0802 H   0  0  0  0  0  0  0  0  0  0  0  0
   57.5930   28.5090   46.5600 H   0  0  0  0  0  0  0  0  0  0  0  0
   59.7726   30.7365   44.9650 H   0  0  0  0  0  0  0  0  0  0  0  0
   58.8445   29.8163   43.6805 H   0  0  0  0  0  0  0  0  0  0  0  0
   57.8815   32.3605   44.1806 H   0  0  0  0  0  0  0  0  0  0  0  0
   56.6311   32.3547   45.4801 H   0  0  0  0  0  0  0  0  0  0  0  0
   58.3535   31.0691   47.6544 H   0  0  0  0  0  0  0  0  0  0  0  0
   60.0148   32.0406   49.2456 H   0  0  0  0  0  0  0  0  0  0  0  0
   60.8017   35.2666   46.4677 H   0  0  0  0  0  0  0  0  0  0  0  0
   59.1415   34.3021   44.8735 H   0  0  0  0  0  0  0  0  0  0  0  0
   57.3575   28.5145   42.7861 H   0  0  0  0  0  0  0  0  0  0  0  0
   55.7387   29.1022   42.2754 H   0  0  0  0  0  0  0  0  0  0  0  0
   57.1422   30.2232   42.2754 H   0  0  0  0  0  0  0  0  0  0  0  0
  1  2  1  0
  2  3  1  0
  2  4  1  0
  4  5  1  0
  5  6  2  0
  5  7  1  0
  7  8  1  0
  8  9  1  0
  9 10  1  0
 10 11  2  0
 11 12  1  0
 12 13  2  0
 13 14  1  0
 13 15  1  0
 15 16  2  0
  8 17  1  0
 17 18  1  0
 17 19  2  0
 17 20  2  0
 16 10  1  0
  1 21  1  0
  1 22  1  0
  1 23  1  0
  2 24  1  0
  3 25  1  0
  3 26  1  0
  3 27  1  0
  4 28  1  0
  7 29  1  0
  7 30  1  0
  9 31  1  0
  9 32  1  0
 11 33  1  0
 12 34  1  0
 15 35  1  0
 16 36  1  0
 18 37  1  0
 18 38  1  0
 18 39  1  0
M  END
>  <UniqueID>  (50) 
45

>  <SMILES>  (50) 
CC(C)NC(=O)CN(Cc1ccc(Cl)cc1)S(C)(=O)=O

>  <Energy>  (50) 
27.67841112089681

>  <Genealogy>  (50) 
CC(C)NC(=O)CN(Cc1ccc(Cl)cc1)S(C)(=O)=O (3D coordinates assigned)
CC(C)NC(=O)CN(Cc1ccc(Cl)cc1)S(C)(=O)=O (optimized conformer: 27.67841112089681 kcal/mol)

>  <smiles>  (50) 
CC(C)NC(=O)CN(Cc1ccc(Cl)cc1)S(C)(=O)=O

>  <score_type>  (50) 
oracle

>  <origin>  (50) 
adg

>  <m_score__min__energy>  (50) 
-6.9299999999999997

>  <m_primary>  (50) 
energy

$$$$
50:0
     RDKit          3D

 60 63  0  0  0  0  0  0  0  0999 V2000
   58.0799   28.7719   48.9924 H   0  0  0  0  0  0  0  0  0  0  0  0
   58.8430   29.3090   48.4100 C   0  0  0  0  0  0  0  0  0  0  0  0
   58.9220   29.0540   47.0940 C   0  0  0  0  0  0  0  0  0  0  0  0
   59.9240   28.1340   46.6190 C   0  0  0  0  0  0  0  0  0  0  0  0
   60.7290   27.3950   46.2380 N   0  0  0  0  0  0  0  0  0  0  0  0
   58.0030   29.6410   46.0990 C   0  0  0  0  0  0  0  0  0  0  0  0
   57.7760   30.9660   46.0100 N   0  0  0  0  0  0  0  0  0  0  0  0
   56.9750   31.1530   44.9730 N   0  0  0  0  0  0  0  0  0  0  0  0
   56.7400   29.9420   44.4310 C   0  0  0  0  0  0  0  0  0  0  0  0
   55.8960   29.7440   43.2120 C   0  0  0  0  0  0  0  0  0  0  0  0
   54.8663   29.5024   43.5142 H   0  0  0  0  0  0  0  0  0  0  0  0
   55.8954   30.6664   42.6127 H   0  0  0  0  0  0  0  0  0  0  0  0
   56.3057   28.9176   42.6127 H   0  0  0  0  0  0  0  0  0  0  0  0
   57.3600   28.9590   45.1230 N   0  0  0  0  0  0  0  0  0  0  0  0
   57.4750   27.5350   44.7790 C   0  0  0  0  0  0  0  0  0  0  0  0
   56.8891   27.3383   43.8690 H   0  0  0  0  0  0  0  0  0  0  0  0
   58.5380   27.3030   44.6170 H   0  0  0  0  0  0  0  0  0  0  0  0
   56.9520   26.6390   45.9140 C   0  0  0  0  0  0  0  0  0  0  0  0
   57.2711   25.6028   45.7281 H   0  0  0  0  0  0  0  0  0  0  0  0
   57.3630   27.0091   46.8649 H   0  0  0  0  0  0  0  0  0  0  0  0
   55.4940   26.6800   45.9960 N   0  0  0  0  0  0  0  0  0  0  0  0
   55.2170   26.8540   46.9900 H   0  0  0  0  0  0  0  0  0  0  0  0
   55.1480   27.4860   45.4260 H   0  0  0  0  0  0  0  0  0  0  0  0
   59.7130   30.2630   49.1270 C   0  0  0  0  0  0  0  0  0  0  0  0
   61.0980   30.3880   49.0380 C   0  0  0  0  0  0  0  0  0  0  0  0
   61.7410   29.7960   48.3701 H   0  0  0  0  0  0  0  0  0  0  0  0
   61.5390   31.3420   49.8910 N   0  0  0  0  0  0  0  0  0  0  0  0
   62.9360   31.7220   50.0960 C   0  0  0  0  0  0  0  0  0  0  0  0
   63.5881   30.8961   49.7757 H   0  0  0  0  0  0  0  0  0  0  0  0
   63.0974   31.9353   51.1630 H   0  0  0  0  0  0  0  0  0  0  0  0
   63.2600   32.9450   49.2990 C   0  0  0  0  0  0  0  0  0  0  0  0
   64.4160   33.0830   48.8130 O   0  0  0  0  0  0  0  0  0  0  0  0
   62.2690   33.9700   49.1450 N   0  0  0  0  0  0  0  0  0  0  0  0
   61.1980   33.9820   48.1870 C   0  0  0  0  0  0  0  0  0  0  0  0
   59.8620   34.1650   48.5870 C   0  0  0  0  0  0  0  0  0  0  0  0
   59.6236   34.2886   49.6537 H   0  0  0  0  0  0  0  0  0  0  0  0
   58.8360   34.1910   47.6400 C   0  0  0  0  0  0  0  0  0  0  0  0
   57.7931   34.3172   47.9661 H   0  0  0  0  0  0  0  0  0  0  0  0
   59.1290   34.0570   46.2760 C   0  0  0  0  0  0  0  0  0  0  0  0
   58.0180   34.0500   45.2680 C   0  0  0  0  0  0  0  0  0  0  0  0
   57.0496   34.0439   45.7897 H   0  0  0  0  0  0  0  0  0  0  0  0
   58.0892   34.9486   44.6376 H   0  0  0  0  0  0  0  0  0  0  0  0
   58.1005   33.1524   44.6376 H   0  0  0  0  0  0  0  0  0  0  0  0
   60.4600   33.8810   45.8690 C   0  0  0  0  0  0  0  0  0  0  0  0
   60.6923   33.7600   44.8006 H   0  0  0  0  0  0  0  0  0  0  0  0
   61.4990   33.8580   46.8150 C   0  0  0  0  0  0  0  0  0  0  0  0
   62.9250   33.6880   46.3590 C   0  0  0  0  0  0  0  0  0  0  0  0
   63.5837   33.6095   47.2365 H   0  0  0  0  0  0  0  0  0  0  0  0
   63.0099   32.7734   45.7538 H   0  0  0  0  0  0  0  0  0  0  0  0
   63.2225   34.5570   45.7538 H   0  0  0  0  0  0  0  0  0  0  0  0
   60.4500   31.8000   50.5460 C   0  0  0  0  0  0  0  0  0  0  0  0
   60.3880   32.7770   51.5440 C   0  0  0  0  0  0  0  0  0  0  0  0
   61.2978   33.2841   51.8977 H   0  0  0  0  0  0  0  0  0  0  0  0
   59.1280   33.0920   52.0820 C   0  0  0  0  0  0  0  0  0  0  0  0
   59.0455   33.8574   52.8677 H   0  0  0  0  0  0  0  0  0  0  0  0
   57.9680   32.4330   51.6210 C   0  0  0  0  0  0  0  0  0  0  0  0
   56.9876   32.6914   52.0476 H   0  0  0  0  0  0  0  0  0  0  0  0
   58.0560   31.4490   50.6210 C   0  0  0  0  0  0  0  0  0  0  0  0
   57.1587   30.9271   50.2571 H   0  0  0  0  0  0  0  0  0  0  0  0
   59.3190   31.1560   50.1050 C   0  0  0  0  0  0  0  0  0  0  0  0
  1  2  1  0
  2  3  2  0
  3  4  1  0
  4  5  3  0
  3  6  1  0
  6  7  2  0
  7  8  1  0
  8  9  2  0
  9 10  1  0
 10 11  1  0
 10 12  1  0
 10 13  1  0
  9 14  1  0
 14 15  1  0
 15 16  1  0
 15 17  1  0
 15 18  1  0
 18 19  1  0
 18 20  1  0
 18 21  1  0
 21 22  1  0
 21 23  1  0
  2 24  1  0
 24 25  2  0
 25 26  1  0
 25 27  1  0
 27 28  1  0
 28 29  1  0
 28 30  1  0
 28 31  1  0
 31 32  2  0
 31 33  1  0
 33 34  1  0
 34 35  2  0
 35 36  1  0
 35 37  1  0
 37 38  1  0
 37 39  2  0
 39 40  1  0
 40 41  1  0
 40 42  1  0
 40 43  1  0
 39 44  1  0
 44 45  1  0
 44 46  2  0
 46 47  1  0
 47 48  1  0
 47 49  1  0
 47 50  1  0
 27 51  1  0
 51 52  2  0
 52 53  1  0
 52 54  1  0
 54 55  1  0
 54 56  2  0
 56 57  1  0
 56 58  1  0
 58 59  1  0
 58 60  2  0
 14  6  1  0
 60 24  1  0
 46 34  1  0
 60 51  1  0
M  CHG  1  33  -1
M  END
>  <UniqueID>  (51) 
46

>  <SMILES>  (51) 
Cc1ccc([N-]C(=O)Cn2cc(/C=C(/C#N)c3nnc(C)n3CCN)c3ccccc32)c(C)c1

>  <Energy>  (51) 
135.73531626912992

>  <Genealogy>  (51) 
Cc1ccc([N-]C(=O)Cn2cc(C=C(C#N)c3nnc(C)n3CCN)c3ccccc32)c(C)c1 (protonated)
Cc1ccc([N-]C(=O)Cn2cc(/C=C(/C#N)c3nnc(C)n3CCN)c3ccccc32)c(C)c1 (cis-trans isomerization)
Cc1ccc([N-]C(=O)Cn2cc(/C=C(/C#N)c3nnc(C)n3CCN)c3ccccc32)c(C)c1 (3D coordinates assigned)
Cc1ccc([N-]C(=O)Cn2cc(/C=C(/C#N)c3nnc(C)n3CCN)c3ccccc32)c(C)c1 (optimized conformer: 135.73531626912992 kcal/mol)

>  <smiles>  (51) 
Cc1ccc(NC(=O)Cn2cc(C=C(C#N)c3nnc(C)n3CCN)c3ccccc32)c(C)c1

>  <score_type>  (51) 
oracle

>  <origin>  (51) 
adg

>  <m_score__min__energy>  (51) 
-12.07

>  <m_primary>  (51) 
energy

$$$$
51:0
     RDKit          3D

 46 49  0  0  0  0  0  0  0  0999 V2000
   53.0030   25.6890   45.1730 H   0  0  0  0  0  0  0  0  0  0  0  0
   53.5230   24.8390   45.4870 N   0  0  0  0  0  0  0  0  0  0  0  0
   54.7130   24.9220   45.9880 C   0  0  0  0  0  0  0  0  0  0  0  0
   55.2640   23.8430   46.6020 N   0  0  0  0  0  0  0  0  0  0  0  0
   56.5170   23.9010   47.1300 C   0  0  0  0  0  0  0  0  0  0  0  0
   57.0850   22.7870   47.7540 O   0  0  0  0  0  0  0  0  0  0  0  0
   56.9060   21.4590   47.2740 C   0  0  0  0  0  0  0  0  0  0  0  0
   57.6023   20.7837   47.7928 H   0  0  0  0  0  0  0  0  0  0  0  0
   55.8726   21.1341   47.4652 H   0  0  0  0  0  0  0  0  0  0  0  0
   57.1790   21.4240   45.8000 C   0  0  0  0  0  0  0  0  0  0  0  0
   56.2610   20.8210   44.9240 C   0  0  0  0  0  0  0  0  0  0  0  0
   55.3243   20.3988   45.3167 H   0  0  0  0  0  0  0  0  0  0  0  0
   56.5350   20.7560   43.5530 C   0  0  0  0  0  0  0  0  0  0  0  0
   55.8083   20.2932   42.8690 H   0  0  0  0  0  0  0  0  0  0  0  0
   57.7300   21.2780   43.0520 C   0  0  0  0  0  0  0  0  0  0  0  0
   57.9422   21.2286   41.9738 H   0  0  0  0  0  0  0  0  0  0  0  0
   58.6560   21.8630   43.9200 C   0  0  0  0  0  0  0  0  0  0  0  0
   59.5982   22.2704   43.5248 H   0  0  0  0  0  0  0  0  0  0  0  0
   58.3860   21.9310   45.2910 C   0  0  0  0  0  0  0  0  0  0  0  0
   59.1215   22.3831   45.9727 H   0  0  0  0  0  0  0  0  0  0  0  0
   57.2480   25.0870   47.0450 C   0  0  0  0  0  0  0  0  0  0  0  0
   58.2680   25.1465   47.4526 H   0  0  0  0  0  0  0  0  0  0  0  0
   56.6610   26.1970   46.4330 C   0  0  0  0  0  0  0  0  0  0  0  0
   57.4280   27.4020   46.2920 N   0  0  0  0  0  0  0  0  0  0  0  0
   57.1390   28.4570   45.5850 C   0  0  0  0  0  0  0  0  0  0  0  0
   58.1890   29.7610   45.4250 S   0  0  0  0  0  0  0  0  0  0  0  0
   57.1080   30.6370   44.4750 C   0  0  0  0  0  0  0  0  0  0  0  0
   57.3880   31.9640   43.8460 C   0  0  0  0  0  0  0  0  0  0  0  0
   58.1009   31.8317   43.0188 H   0  0  0  0  0  0  0  0  0  0  0  0
   56.4475   32.3879   43.4642 H   0  0  0  0  0  0  0  0  0  0  0  0
   57.9750   32.9030   44.8640 C   0  0  0  0  0  0  0  0  0  0  0  0
   58.8820   33.9000   44.4690 C   0  0  0  0  0  0  0  0  0  0  0  0
   59.1874   33.9769   43.4150 H   0  0  0  0  0  0  0  0  0  0  0  0
   59.3980   34.7950   45.4110 C   0  0  0  0  0  0  0  0  0  0  0  0
   60.1153   35.5682   45.0984 H   0  0  0  0  0  0  0  0  0  0  0  0
   59.0040   34.7090   46.7490 C   0  0  0  0  0  0  0  0  0  0  0  0
   59.4118   35.4135   47.4888 H   0  0  0  0  0  0  0  0  0  0  0  0
   58.0920   33.7280   47.1470 C   0  0  0  0  0  0  0  0  0  0  0  0
   57.7811   33.6622   48.2001 H   0  0  0  0  0  0  0  0  0  0  0  0
   57.5740   32.8300   46.2090 C   0  0  0  0  0  0  0  0  0  0  0  0
   56.8504   32.0640   46.5247 H   0  0  0  0  0  0  0  0  0  0  0  0
   55.9540   29.8800   44.3020 C   0  0  0  0  0  0  0  0  0  0  0  0
   55.0984   30.2276   43.7044 H   0  0  0  0  0  0  0  0  0  0  0  0
   55.9700   28.6750   44.9320 N   0  0  0  0  0  0  0  0  0  0  0  0
   55.1460   28.0390   44.9200 H   0  0  0  0  0  0  0  0  0  0  0  0
   55.4140   26.0830   45.9000 N   0  0  0  0  0  0  0  0  0  0  0  0
  1  2  1  0
  2  3  2  0
  3  4  1  0
  4  5  2  0
  5  6  1  0
  6  7  1  0
  7  8  1  0
  7  9  1  0
  7 10  1  0
 10 11  2  0
 11 12  1  0
 11 13  1  0
 13 14  1  0
 13 15  2  0
 15 16  1  0
 15 17  1  0
 17 18  1  0
 17 19  2  0
 19 20  1  0
  5 21  1  0
 21 22  1  0
 21 23  2  0
 23 24  1  0
 24 25  2  0
 25 26  1  0
 26 27  1  0
 27 28  1  0
 28 29  1  0
 28 30  1  0
 28 31  1  0
 31 32  2  0
 32 33  1  0
 32 34  1  0
 34 35  1  0
 34 36  2  0
 36 37  1  0
 36 38  1  0
 38 39  1  0
 38 40  2  0
 40 41  1  0
 27 42  2  0
 42 43  1  0
 42 44  1  0
 44 45  1  0
 23 46  1  0
 46  3  1  0
 19 10  1  0
 44 25  1  0
 40 31  1  0
M  CHG  1  46  -1
M  END
>  <UniqueID>  (52) 
47

>  <SMILES>  (52) 
[H]/N=c1/nc(OCc2ccccc2)cc(/N=c2\[nH]cc(Cc3ccccc3)s2)[n-]1

>  <Energy>  (52) 
82.18714641316915

>  <Genealogy>  (52) 
N=c1nc(OCc2ccccc2)cc(N=c2[nH]cc(Cc3ccccc3)s2)[n-]1 (protonated)
[H]/N=c1/nc(OCc2ccccc2)cc(/N=c2\[nH]cc(Cc3ccccc3)s2)[n-]1 (cis-trans isomerization)
[H]/N=c1/nc(OCc2ccccc2)cc(/N=c2\[nH]cc(Cc3ccccc3)s2)[n-]1 (3D coordinates assigned)
[H]/N=c1/nc(OCc2ccccc2)cc(/N=c2\[nH]cc(Cc3ccccc3)s2)[n-]1 (optimized conformer: 82.18714641316915 kcal/mol)

>  <smiles>  (52) 
N=c1nc(OCc2ccccc2)cc(N=c2[nH]cc(Cc3ccccc3)s2)[nH]1

>  <score_type>  (52) 
oracle

>  <origin>  (52) 
adg

>  <m_score__min__energy>  (52) 
-10.98

>  <m_primary>  (52) 
energy

$$$$
52:0
     RDKit          3D

 56 59  0  0  0  0  0  0  0  0999 V2000
   59.2250   22.2830   44.8440 C   0  0  0  0  0  0  0  0  0  0  0  0
   59.2910   23.2260   45.9080 O   0  0  0  0  0  0  0  0  0  0  0  0
   58.3210   24.2090   46.1620 C   0  0  0  0  0  0  0  0  0  0  0  0
   58.4410   25.5200   45.6630 C   0  0  0  0  0  0  0  0  0  0  0  0
   57.4510   26.4670   45.9350 C   0  0  0  0  0  0  0  0  0  0  0  0
   57.5450   27.7930   45.3850 C   0  0  0  0  0  0  0  0  0  0  0  0
   57.6230   28.8850   44.8790 C   0  0  0  0  0  0  0  0  0  0  0  0
   57.6400   30.2070   44.2880 C   0  0  0  0  0  0  0  0  0  0  0  0
   58.3180   31.2630   44.9380 C   0  0  0  0  0  0  0  0  0  0  0  0
   58.9500   31.0650   46.2620 C   0  0  0  0  0  0  0  0  0  0  0  0
   58.5040   31.7880   47.3790 C   0  0  0  0  0  0  0  0  0  0  0  0
   59.2000   31.7090   48.5890 C   0  0  0  0  0  0  0  0  0  0  0  0
   60.3410   30.9000   48.6940 C   0  0  0  0  0  0  0  0  0  0  0  0
   61.3290   30.9020   50.1500 S   0  0  0  0  0  0  0  0  0  0  0  0
   61.9950   29.5610   50.2890 O   0  0  0  0  0  0  0  0  0  0  0  0
   60.4770   31.1580   51.3620 O   0  0  0  0  0  0  0  0  0  0  0  0
   62.5350   32.1590   50.0000 N   0  0  0  0  0  0  0  0  0  0  0  0
   63.4550   31.8900   48.8680 C   0  0  0  0  0  0  0  0  0  0  0  0
   63.2500   32.8720   47.7050 C   0  0  0  0  0  0  0  0  0  0  0  0
   63.4240   34.2230   48.0970 O   0  0  0  0  0  0  0  0  0  0  0  0
   62.8700   34.5270   49.3740 C   0  0  0  0  0  0  0  0  0  0  0  0
   61.8830   33.4780   49.9170 C   0  0  0  0  0  0  0  0  0  0  0  0
   60.7550   30.1390   47.5950 C   0  0  0  0  0  0  0  0  0  0  0  0
   60.0630   30.2180   46.3860 C   0  0  0  0  0  0  0  0  0  0  0  0
   58.3890   32.5190   44.3200 C   0  0  0  0  0  0  0  0  0  0  0  0
   57.7680   32.7150   43.0870 C   0  0  0  0  0  0  0  0  0  0  0  0
   57.1010   31.6930   42.4890 N   0  0  0  0  0  0  0  0  0  0  0  0
   57.0170   30.4530   43.0480 C   0  0  0  0  0  0  0  0  0  0  0  0
   56.2690   29.3760   42.3150 C   0  0  0  0  0  0  0  0  0  0  0  0
   56.3450   26.0980   46.7030 C   0  0  0  0  0  0  0  0  0  0  0  0
   56.2400   24.8300   47.1790 N   0  0  0  0  0  0  0  0  0  0  0  0
   57.1850   23.8830   46.9340 C   0  0  0  0  0  0  0  0  0  0  0  0
   57.0180   22.6920   47.4190 N   0  0  0  0  0  0  0  0  0  0  0  0
   59.1539   21.2667   45.2587 H   0  0  0  0  0  0  0  0  0  0  0  0
   58.3391   22.4895   44.2255 H   0  0  0  0  0  0  0  0  0  0  0  0
   60.1310   22.3641   44.2255 H   0  0  0  0  0  0  0  0  0  0  0  0
   59.3161   25.7990   45.0577 H   0  0  0  0  0  0  0  0  0  0  0  0
   57.6054   32.4178   47.3025 H   0  0  0  0  0  0  0  0  0  0  0  0
   58.8520   32.2826   49.4607 H   0  0  0  0  0  0  0  0  0  0  0  0
   64.4915   31.9770   49.2260 H   0  0  0  0  0  0  0  0  0  0  0  0
   63.2428   30.8772   48.4949 H   0  0  0  0  0  0  0  0  0  0  0  0
   63.9773   32.6380   46.9136 H   0  0  0  0  0  0  0  0  0  0  0  0
   62.2150   32.7580   47.3504 H   0  0  0  0  0  0  0  0  0  0  0  0
   63.6978   34.6217   50.0922 H   0  0  0  0  0  0  0  0  0  0  0  0
   62.2952   35.4564   49.2483 H   0  0  0  0  0  0  0  0  0  0  0  0
   61.5467   33.7806   50.9197 H   0  0  0  0  0  0  0  0  0  0  0  0
   61.0218   33.4099   49.2361 H   0  0  0  0  0  0  0  0  0  0  0  0
   61.6286   29.4766   47.6845 H   0  0  0  0  0  0  0  0  0  0  0  0
   60.3906   29.6144   45.5267 H   0  0  0  0  0  0  0  0  0  0  0  0
   58.9310   33.3446   44.8044 H   0  0  0  0  0  0  0  0  0  0  0  0
   57.8181   33.6988   42.5974 H   0  0  0  0  0  0  0  0  0  0  0  0
   55.7978   28.6975   43.0413 H   0  0  0  0  0  0  0  0  0  0  0  0
   55.4931   29.8333   41.6835 H   0  0  0  0  0  0  0  0  0  0  0  0
   56.9684   28.8086   41.6835 H   0  0  0  0  0  0  0  0  0  0  0  0
   55.5581   26.8345   46.9228 H   0  0  0  0  0  0  0  0  0  0  0  0
   57.7040   21.9190   47.2840 H   0  0  0  0  0  0  0  0  0  0  0  0
  1  2  1  0
  2  3  1  0
  3  4  2  0
  4  5  1  0
  5  6  1  0
  6  7  3  0
  7  8  1  0
  8  9  1  0
  9 10  1  0
 10 11  2  0
 11 12  1  0
 12 13  2  0
 13 14  1  0
 14 15  2  0
 14 16  2  0
 14 17  1  0
 17 18  1  0
 18 19  1  0
 19 20  1  0
 20 21  1  0
 21 22  1  0
 13 23  1  0
 23 24  2  0
  9 25  2  0
 25 26  1  0
 26 27  2  0
 27 28  1  0
 28 29  1  0
  5 30  2  0
 30 31  1  0
 31 32  1  0
 32 33  2  3
 32  3  1  0
 28  8  2  0
 24 10  1  0
 22 17  1  0
  1 34  1  0
  1 35  1  0
  1 36  1  0
  4 37  1  0
 11 38  1  0
 12 39  1  0
 18 40  1  0
 18 41  1  0
 19 42  1  0
 19 43  1  0
 21 44  1  0
 21 45  1  0
 22 46  1  0
 22 47  1  0
 23 48  1  0
 24 49  1  0
 25 50  1  0
 26 51  1  0
 29 52  1  0
 29 53  1  0
 29 54  1  0
 30 55  1  0
 33 56  1  0
M  CHG  1  31  -1
M  END
>  <UniqueID>  (53) 
48

>  <SMILES>  (53) 
COc1cc(C#Cc2c(-c3ccc(S(=O)(=O)N4CCOCC4)cc3)ccnc2C)c[n-]c1=N

>  <Energy>  (53) 
75.67463451212474

>  <Genealogy>  (53) 
COc1cc(C#Cc2c(-c3ccc(S(=O)(=O)N4CCOCC4)cc3)ccnc2C)c[n-]c1=N (protonated)
COc1cc(C#Cc2c(-c3ccc(S(=O)(=O)N4CCOCC4)cc3)ccnc2C)c[n-]c1=N (3D coordinates assigned)
COc1cc(C#Cc2c(-c3ccc(S(=O)(=O)N4CCOCC4)cc3)ccnc2C)c[n-]c1=N (nonaromatic ring conformer: 75.67463451212474 kcal/mol)

>  <smiles>  (53) 
COc1cc(C#Cc2c(-c3ccc(S(=O)(=O)N4CCOCC4)cc3)ccnc2C)c[nH]c1=N

>  <score_type>  (53) 
oracle

>  <origin>  (53) 
adg

>  <m_score__min__energy>  (53) 
-9.8900000000000006

>  <m_primary>  (53) 
energy

$$$$
53:0
     RDKit          3D

 39 41  0  0  0  0  0  0  0  0999 V2000
   59.6060   27.5350   48.4280 O   0  0  0  0  0  0  0  0  0  0  0  0
   59.1980   28.6850   48.1110 C   0  0  0  0  0  0  0  0  0  0  0  0
   59.6120   29.8330   48.8630 N   0  0  0  0  0  0  0  0  0  0  0  0
   58.8370   30.5370   49.8450 C   0  0  0  0  0  0  0  0  0  0  0  0
   58.8140   31.9410   49.9080 C   0  0  0  0  0  0  0  0  0  0  0  0
   58.0670   32.5870   50.8990 C   0  0  0  0  0  0  0  0  0  0  0  0
   57.3480   31.8410   51.8350 C   0  0  0  0  0  0  0  0  0  0  0  0
   57.3750   30.4410   51.7890 C   0  0  0  0  0  0  0  0  0  0  0  0
   56.4860   29.5090   52.9900 S   0  0  0  0  0  0  0  0  0  0  0  0
   57.2480   28.2540   53.3070 O   0  0  0  0  0  0  0  0  0  0  0  0
   56.3240   30.3220   54.2430 O   0  0  0  0  0  0  0  0  0  0  0  0
   54.9290   29.1100   52.3450 N   0  0  0  0  0  0  0  0  0  0  0  0
   53.8370   30.0270   52.1930 C   0  0  0  0  0  0  0  0  0  0  0  0
   53.5650   30.5410   50.9190 C   0  0  0  0  0  0  0  0  0  0  0  0
   52.5090   31.4370   50.7260 C   0  0  0  0  0  0  0  0  0  0  0  0
   51.7170   31.8280   51.8090 C   0  0  0  0  0  0  0  0  0  0  0  0
   50.6680   32.7190   51.6180 O   0  0  0  0  0  0  0  0  0  0  0  0
   51.9810   31.3240   53.0850 C   0  0  0  0  0  0  0  0  0  0  0  0
   53.0360   30.4250   53.2790 C   0  0  0  0  0  0  0  0  0  0  0  0
   58.1340   29.7960   50.8030 C   0  0  0  0  0  0  0  0  0  0  0  0
   58.2840   28.8590   46.9620 C   0  0  0  0  0  0  0  0  0  0  0  0
   58.2840   30.0860   46.2780 C   0  0  0  0  0  0  0  0  0  0  0  0
   57.3860   30.3170   45.2380 C   0  0  0  0  0  0  0  0  0  0  0  0
   56.4870   29.3140   44.8780 C   0  0  0  0  0  0  0  0  0  0  0  0
   55.6590   29.5090   43.9510 O   0  0  0  0  0  0  0  0  0  0  0  0
   56.5070   28.1210   45.5260 N   0  0  0  0  0  0  0  0  0  0  0  0
   57.3780   27.8550   46.5370 C   0  0  0  0  0  0  0  0  0  0  0  0
   57.3590   26.5770   47.0950 O   0  0  0  0  0  0  0  0  0  0  0  0
   59.3843   32.5328   49.1769 H   0  0  0  0  0  0  0  0  0  0  0  0
   58.0461   33.6860   50.9409 H   0  0  0  0  0  0  0  0  0  0  0  0
   56.7592   32.3535   52.6100 H   0  0  0  0  0  0  0  0  0  0  0  0
   54.1867   30.2376   50.0638 H   0  0  0  0  0  0  0  0  0  0  0  0
   52.3016   31.8342   49.7214 H   0  0  0  0  0  0  0  0  0  0  0  0
   51.3592   31.6340   53.9378 H   0  0  0  0  0  0  0  0  0  0  0  0
   53.2397   30.0281   54.2845 H   0  0  0  0  0  0  0  0  0  0  0  0
   58.1779   28.6971   50.7814 H   0  0  0  0  0  0  0  0  0  0  0  0
   58.9989   30.8709   46.5658 H   0  0  0  0  0  0  0  0  0  0  0  0
   57.3863   31.2802   44.7068 H   0  0  0  0  0  0  0  0  0  0  0  0
   58.0390   26.2500   47.7680 H   0  0  0  0  0  0  0  0  0  0  0  0
  1  2  2  0
  2  3  1  0
  3  4  1  0
  4  5  2  0
  5  6  1  0
  6  7  2  0
  7  8  1  0
  8  9  1  0
  9 10  2  0
  9 11  2  0
  9 12  1  0
 12 13  1  0
 13 14  2  0
 14 15  1  0
 15 16  2  0
 16 17  1  0
 16 18  1  0
 18 19  2  0
  8 20  2  0
  2 21  1  0
 21 22  1  0
 22 23  2  0
 23 24  1  0
 24 25  2  0
 24 26  1  0
 26 27  1  0
 27 28  1  0
 20  4  1  0
 27 21  2  0
 19 13  1  0
  5 29  1  0
  6 30  1  0
  7 31  1  0
 14 32  1  0
 15 33  1  0
 18 34  1  0
 19 35  1  0
 20 36  1  0
 22 37  1  0
 23 38  1  0
 28 39  1  0
M  CHG  4   3  -1  12  -1  17  -1  26  -1
M  END
>  <UniqueID>  (54) 
49

>  <SMILES>  (54) 
O=C([N-]c1cccc(S(=O)(=O)[N-]c2ccc([O-])cc2)c1)c1ccc(=O)[n-]c1O

>  <Energy>  (54) 
56.32151237873656

>  <Genealogy>  (54) 
O=C([N-]c1cccc(S(=O)(=O)[N-]c2ccc([O-])cc2)c1)c1ccc(=O)[n-]c1O (protonated)
O=C([N-]c1cccc(S(=O)(=O)[N-]c2ccc([O-])cc2)c1)c1ccc(=O)[n-]c1O (3D coordinates assigned)
O=C([N-]c1cccc(S(=O)(=O)[N-]c2ccc([O-])cc2)c1)c1ccc(=O)[n-]c1O (optimized conformer: 56.32151237873656 kcal/mol)

>  <smiles>  (54) 
O=C(Nc1cccc(S(=O)(=O)Nc2ccc(O)cc2)c1)c1ccc(=O)[nH]c1O

>  <score_type>  (54) 
oracle

>  <origin>  (54) 
adg

>  <m_score__min__energy>  (54) 
-14.869999999999999

>  <m_primary>  (54) 
energy

$$$$
54:0
     RDKit          3D

 44 46  0  0  0  0  0  0  0  0999 V2000
   56.9590   33.4380   46.2100 C   0  0  0  0  0  0  0  0  0  0  0  0
   57.6780   33.2700   44.9430 N   0  0  0  0  0  0  0  0  0  0  0  0
   59.0100   33.9110   44.9170 C   0  0  0  0  0  0  0  0  0  0  0  0
   59.7530   33.8790   46.2360 C   0  0  0  0  0  0  0  0  0  0  0  0
   59.3200   34.6520   47.3240 C   0  0  0  0  0  0  0  0  0  0  0  0
   60.0050   34.6080   48.5420 C   0  0  0  0  0  0  0  0  0  0  0  0
   61.1630   33.8240   48.6750 C   0  0  0  0  0  0  0  0  0  0  0  0
   61.8600   33.7270   49.8880 O   0  0  0  0  0  0  0  0  0  0  0  0
   63.0500   33.0110   50.0880 C   0  0  0  0  0  0  0  0  0  0  0  0
   62.9910   31.7810   50.7560 C   0  0  0  0  0  0  0  0  0  0  0  0
   64.1540   31.0330   50.9630 C   0  0  0  0  0  0  0  0  0  0  0  0
   65.3830   31.5030   50.4890 C   0  0  0  0  0  0  0  0  0  0  0  0
   65.4470   32.7190   49.8030 C   0  0  0  0  0  0  0  0  0  0  0  0
   64.2860   33.4700   49.5970 C   0  0  0  0  0  0  0  0  0  0  0  0
   61.6150   33.0800   47.5810 C   0  0  0  0  0  0  0  0  0  0  0  0
   60.9250   33.1160   46.3660 C   0  0  0  0  0  0  0  0  0  0  0  0
   57.6620   31.6080   44.3870 S   0  0  0  0  0  0  0  0  0  0  0  0
   58.0550   31.5700   42.9360 O   0  0  0  0  0  0  0  0  0  0  0  0
   56.2600   31.0770   44.4980 O   0  0  0  0  0  0  0  0  0  0  0  0
   58.7260   30.5420   45.3170 C   0  0  0  0  0  0  0  0  0  0  0  0
   59.4220   29.4990   44.6850 C   0  0  0  0  0  0  0  0  0  0  0  0
   60.2710   28.6690   45.4210 C   0  0  0  0  0  0  0  0  0  0  0  0
   60.4110   28.8550   46.7990 C   0  0  0  0  0  0  0  0  0  0  0  0
   59.6870   29.8620   47.4450 C   0  0  0  0  0  0  0  0  0  0  0  0
   59.8560   30.0990   49.3320 Br  0  0  0  0  0  0  0  0  0  0  0  0
   58.8370   30.6930   46.7080 C   0  0  0  0  0  0  0  0  0  0  0  0
   57.6518   33.2761   47.0490 H   0  0  0  0  0  0  0  0  0  0  0  0
   56.5473   34.4565   46.2657 H   0  0  0  0  0  0  0  0  0  0  0  0
   56.1386   32.7074   46.2657 H   0  0  0  0  0  0  0  0  0  0  0  0
   59.6244   33.3943   44.1650 H   0  0  0  0  0  0  0  0  0  0  0  0
   58.8399   34.9720   44.6817 H   0  0  0  0  0  0  0  0  0  0  0  0
   58.4354   35.2971   47.2179 H   0  0  0  0  0  0  0  0  0  0  0  0
   59.6357   35.1896   49.3995 H   0  0  0  0  0  0  0  0  0  0  0  0
   62.0246   31.4017   51.1196 H   0  0  0  0  0  0  0  0  0  0  0  0
   64.1023   30.0739   51.4992 H   0  0  0  0  0  0  0  0  0  0  0  0
   66.2983   30.9162   50.6559 H   0  0  0  0  0  0  0  0  0  0  0  0
   66.4125   33.0858   49.4245 H   0  0  0  0  0  0  0  0  0  0  0  0
   64.3390   34.4226   49.0494 H   0  0  0  0  0  0  0  0  0  0  0  0
   62.5199   32.4620   47.6771 H   0  0  0  0  0  0  0  0  0  0  0  0
   61.3023   32.5431   45.5061 H   0  0  0  0  0  0  0  0  0  0  0  0
   59.2980   29.3346   43.6044 H   0  0  0  0  0  0  0  0  0  0  0  0
   60.8301   27.8680   44.9153 H   0  0  0  0  0  0  0  0  0  0  0  0
   61.0903   28.2096   47.3752 H   0  0  0  0  0  0  0  0  0  0  0  0
   58.2518   31.4699   47.2218 H   0  0  0  0  0  0  0  0  0  0  0  0
  1  2  1  0
  2  3  1  0
  3  4  1  0
  4  5  2  0
  5  6  1  0
  6  7  2  0
  7  8  1  0
  8  9  1  0
  9 10  2  0
 10 11  1  0
 11 12  2  0
 12 13  1  0
 13 14  2  0
  7 15  1  0
 15 16  2  0
  2 17  1  0
 17 18  2  0
 17 19  2  0
 17 20  1  0
 20 21  2  0
 21 22  1  0
 22 23  2  0
 23 24  1  0
 24 25  1  0
 24 26  2  0
 16  4  1  0
 26 20  1  0
 14  9  1  0
  1 27  1  0
  1 28  1  0
  1 29  1  0
  3 30  1  0
  3 31  1  0
  5 32  1  0
  6 33  1  0
 10 34  1  0
 11 35  1  0
 12 36  1  0
 13 37  1  0
 14 38  1  0
 15 39  1  0
 16 40  1  0
 21 41  1  0
 22 42  1  0
 23 43  1  0
 26 44  1  0
M  END
>  <UniqueID>  (55) 
50

>  <SMILES>  (55) 
CN(Cc1ccc(Oc2ccccc2)cc1)S(=O)(=O)c1cccc(Br)c1

>  <Energy>  (55) 
54.73562541134383

>  <Genealogy>  (55) 
CN(Cc1ccc(Oc2ccccc2)cc1)S(=O)(=O)c1cccc(Br)c1 (3D coordinates assigned)
CN(Cc1ccc(Oc2ccccc2)cc1)S(=O)(=O)c1cccc(Br)c1 (optimized conformer: 54.73562541134383 kcal/mol)

>  <smiles>  (55) 
CN(Cc1ccc(Oc2ccccc2)cc1)S(=O)(=O)c1cccc(Br)c1

>  <score_type>  (55) 
oracle

>  <origin>  (55) 
adg

>  <m_score__min__energy>  (55) 
-9.9399999999999995

>  <m_primary>  (55) 
energy

$$$$
55:0
     RDKit          3D

 39 40  0  0  1  0  0  0  0  0999 V2000
   60.0800   35.2550   46.3750 C   0  0  0  0  0  0  0  0  0  0  0  0
   60.1780   34.2610   47.3720 N   0  0  0  0  0  0  0  0  0  0  0  0
   58.9960   33.8340   48.0150 C   0  0  0  0  0  0  0  0  0  0  0  0
   58.8360   32.3310   48.1410 C   0  0  0  0  0  0  0  0  0  0  0  0
   59.6210   31.7030   47.0300 C   0  0  2  0  0  0  0  0  0  0  0  0
   59.2650   30.3390   46.6400 C   0  0  0  0  0  0  0  0  0  0  0  0
   58.0980   30.0710   45.8400 C   0  0  0  0  0  0  0  0  0  0  0  0
   57.4160   31.1190   45.2470 C   0  0  0  0  0  0  0  0  0  0  0  0
   56.3230   30.8490   44.4990 N   0  0  0  0  0  0  0  0  0  0  0  0
   55.9050   29.5790   44.3340 C   0  0  0  0  0  0  0  0  0  0  0  0
   54.8560   29.3950   43.6080 N   0  0  0  0  0  0  0  0  0  0  0  0
   56.5610   28.5500   44.9070 N   0  0  0  0  0  0  0  0  0  0  0  0
   57.6510   28.7730   45.6570 C   0  0  0  0  0  0  0  0  0  0  0  0
   61.1000   31.9680   47.2080 C   0  0  0  0  0  0  0  0  0  0  0  0
   61.3160   33.4360   47.4130 C   0  0  0  0  0  0  0  0  0  0  0  0
   62.3170   33.8990   46.3760 C   0  0  0  0  0  0  0  0  0  0  0  0
   61.9870   33.6740   48.7730 C   0  0  0  0  0  0  0  0  0  0  0  0
   59.9827   36.2424   46.8500 H   0  0  0  0  0  0  0  0  0  0  0  0
   60.9843   35.2368   45.7490 H   0  0  0  0  0  0  0  0  0  0  0  0
   59.1967   35.0606   45.7490 H   0  0  0  0  0  0  0  0  0  0  0  0
   58.9854   34.2634   49.0277 H   0  0  0  0  0  0  0  0  0  0  0  0
   58.1637   34.1776   47.3832 H   0  0  0  0  0  0  0  0  0  0  0  0
   59.2228   31.9918   49.1133 H   0  0  0  0  0  0  0  0  0  0  0  0
   57.7754   32.0462   48.0769 H   0  0  0  0  0  0  0  0  0  0  0  0
   59.2972   32.2242   46.1171 H   0  0  0  0  0  0  0  0  0  0  0  0
   60.1243   29.9407   46.0806 H   0  0  0  0  0  0  0  0  0  0  0  0
   59.0063   29.8748   47.6031 H   0  0  0  0  0  0  0  0  0  0  0  0
   57.7581   32.1557   45.3823 H   0  0  0  0  0  0  0  0  0  0  0  0
   54.9670   29.0040   42.6470 H   0  0  0  0  0  0  0  0  0  0  0  0
   56.2390   27.5820   44.7780 H   0  0  0  0  0  0  0  0  0  0  0  0
   58.1852   27.9317   46.1227 H   0  0  0  0  0  0  0  0  0  0  0  0
   61.4699   31.4157   48.0845 H   0  0  0  0  0  0  0  0  0  0  0  0
   61.6455   31.6356   46.3125 H   0  0  0  0  0  0  0  0  0  0  0  0
   63.2042   34.3094   46.8804 H   0  0  0  0  0  0  0  0  0  0  0  0
   62.6141   33.0469   45.7470 H   0  0  0  0  0  0  0  0  0  0  0  0
   61.8600   34.6772   45.7470 H   0  0  0  0  0  0  0  0  0  0  0  0
   61.2813   33.4237   49.5788 H   0  0  0  0  0  0  0  0  0  0  0  0
   62.8805   33.0379   48.8574 H   0  0  0  0  0  0  0  0  0  0  0  0
   62.2800   34.7309   48.8574 H   0  0  0  0  0  0  0  0  0  0  0  0
  1  2  1  0
  2  3  1  0
  3  4  1  0
  4  5  1  0
  5  6  1  0
  6  7  1  0
  7  8  1  0
  8  9  2  0
  9 10  1  0
 10 11  2  3
 10 12  1  0
 12 13  1  0
  5 14  1  0
 14 15  1  0
 15 16  1  0
 15 17  1  0
 15  2  1  0
 13  7  2  0
  1 18  1  0
  1 19  1  0
  1 20  1  0
  3 21  1  0
  3 22  1  0
  4 23  1  0
  4 24  1  0
  5 25  1  6
  6 26  1  0
  6 27  1  0
  8 28  1  0
 11 29  1  0
 12 30  1  0
 13 31  1  0
 14 32  1  0
 14 33  1  0
 16 34  1  0
 16 35  1  0
 16 36  1  0
 17 37  1  0
 17 38  1  0
 17 39  1  0
M  END
>  <smiles>  (56) 
CN1CCC(Cc2cnc(=N)[nH]c2)CC1(C)C

>  <score_type>  (56) 
oracle

>  <origin>  (56) 
adg

>  <m_score__min__energy>  (56) 
-7.2300000000000004

>  <m_primary>  (56) 
energy

$$$$
56:0
     RDKit          3D

 54 56  0  0  0  0  0  0  0  0999 V2000
   57.8000   31.5950   43.0660 N   0  0  0  0  0  0  0  0  0  0  0  0
   57.3470   31.7730   44.4070 C   0  0  0  0  0  0  0  0  0  0  0  0
   56.3480   31.1170   44.8090 O   0  0  0  0  0  0  0  0  0  0  0  0
   58.0380   32.7170   45.3170 C   0  0  0  0  0  0  0  0  0  0  0  0
   58.6020   33.9060   44.8220 C   0  0  0  0  0  0  0  0  0  0  0  0
   59.2540   34.7930   45.6820 C   0  0  0  0  0  0  0  0  0  0  0  0
   59.3510   34.5070   47.0450 C   0  0  0  0  0  0  0  0  0  0  0  0
   58.7860   33.3310   47.5610 C   0  0  0  0  0  0  0  0  0  0  0  0
   58.8930   33.0250   49.0330 C   0  0  0  0  0  0  0  0  0  0  0  0
   59.8140   33.9440   49.6970 N   0  0  0  0  0  0  0  0  0  0  0  0
   60.6550   33.6410   50.8190 C   0  0  0  0  0  0  0  0  0  0  0  0
   60.3670   34.1390   51.9390 O   0  0  0  0  0  0  0  0  0  0  0  0
   61.8420   32.7210   50.7160 C   0  0  0  0  0  0  0  0  0  0  0  0
   61.4400   31.3760   50.4580 O   0  0  0  0  0  0  0  0  0  0  0  0
   61.1660   30.8370   49.1920 C   0  0  0  0  0  0  0  0  0  0  0  0
   61.6450   31.4120   47.9990 C   0  0  0  0  0  0  0  0  0  0  0  0
   61.3300   30.8380   46.7640 C   0  0  0  0  0  0  0  0  0  0  0  0
   60.5390   29.6820   46.7050 C   0  0  0  0  0  0  0  0  0  0  0  0
   60.1250   28.9580   45.1550 S   0  0  0  0  0  0  0  0  0  0  0  0
   61.3320   28.3160   44.5280 O   0  0  0  0  0  0  0  0  0  0  0  0
   59.6150   30.0270   44.2310 O   0  0  0  0  0  0  0  0  0  0  0  0
   58.8940   27.7580   45.3780 N   0  0  0  0  0  0  0  0  0  0  0  0
   57.5270   27.9540   44.9770 C   0  0  0  0  0  0  0  0  0  0  0  0
   57.2410   28.6870   43.9450 N   0  0  0  0  0  0  0  0  0  0  0  0
   56.4630   27.2490   45.6390 N   0  0  0  0  0  0  0  0  0  0  0  0
   56.4350   25.9790   45.9290 C   0  0  0  0  0  0  0  0  0  0  0  0
   57.5810   25.2940   46.2080 N   0  0  0  0  0  0  0  0  0  0  0  0
   57.5720   23.9730   46.5300 C   0  0  0  0  0  0  0  0  0  0  0  0
   56.3640   23.2770   46.5910 C   0  0  0  0  0  0  0  0  0  0  0  0
   55.1730   23.9530   46.3210 C   0  0  0  0  0  0  0  0  0  0  0  0
   55.2020   25.3110   45.9930 C   0  0  0  0  0  0  0  0  0  0  0  0
   54.0130   25.9850   45.7320 O   0  0  0  0  0  0  0  0  0  0  0  0
   60.0680   29.1050   47.8890 C   0  0  0  0  0  0  0  0  0  0  0  0
   60.3810   29.6790   49.1240 C   0  0  0  0  0  0  0  0  0  0  0  0
   58.1410   32.4350   46.6930 C   0  0  0  0  0  0  0  0  0  0  0  0
   58.1780   30.6770   42.7440 H   0  0  0  0  0  0  0  0  0  0  0  0
   58.5293   34.1395   43.7495 H   0  0  0  0  0  0  0  0  0  0  0  0
   59.6925   35.7200   45.2839 H   0  0  0  0  0  0  0  0  0  0  0  0
   59.8719   35.2056   47.7163 H   0  0  0  0  0  0  0  0  0  0  0  0
   57.8981   33.1195   49.4926 H   0  0  0  0  0  0  0  0  0  0  0  0
   59.2778   32.0011   49.1493 H   0  0  0  0  0  0  0  0  0  0  0  0
   62.4901   33.0640   49.8960 H   0  0  0  0  0  0  0  0  0  0  0  0
   62.3799   32.7427   51.6752 H   0  0  0  0  0  0  0  0  0  0  0  0
   62.2696   32.3166   48.0392 H   0  0  0  0  0  0  0  0  0  0  0  0
   61.7038   31.2946   45.8357 H   0  0  0  0  0  0  0  0  0  0  0  0
   59.1620   26.8790   45.8720 H   0  0  0  0  0  0  0  0  0  0  0  0
   57.6190   29.6520   43.8310 H   0  0  0  0  0  0  0  0  0  0  0  0
   56.6300   28.3130   43.1860 H   0  0  0  0  0  0  0  0  0  0  0  0
   58.5175   23.4526   46.7425 H   0  0  0  0  0  0  0  0  0  0  0  0
   56.3505   22.2078   46.8489 H   0  0  0  0  0  0  0  0  0  0  0  0
   54.2132   23.4176   46.3664 H   0  0  0  0  0  0  0  0  0  0  0  0
   59.4492   28.1965   47.8478 H   0  0  0  0  0  0  0  0  0  0  0  0
   60.0079   29.2177   50.0503 H   0  0  0  0  0  0  0  0  0  0  0  0
   57.7121   31.5039   47.0917 H   0  0  0  0  0  0  0  0  0  0  0  0
  1  2  1  0
  2  3  2  0
  2  4  1  0
  4  5  2  0
  5  6  1  0
  6  7  2  0
  7  8  1  0
  8  9  1  0
  9 10  1  0
 10 11  1  0
 11 12  2  0
 11 13  1  0
 13 14  1  0
 14 15  1  0
 15 16  2  0
 16 17  1  0
 17 18  2  0
 18 19  1  0
 19 20  2  0
 19 21  2  0
 19 22  1  0
 22 23  1  0
 23 24  2  0
 23 25  1  0
 25 26  2  3
 26 27  1  0
 27 28  1  0
 28 29  2  0
 29 30  1  0
 30 31  2  0
 31 32  1  0
 18 33  1  0
 33 34  2  0
  8 35  2  0
 35  4  1  0
 34 15  1  0
 31 26  1  0
  1 36  1  0
  5 37  1  0
  6 38  1  0
  7 39  1  0
  9 40  1  0
  9 41  1  0
 13 42  1  0
 13 43  1  0
 16 44  1  0
 17 45  1  0
 22 46  1  0
 24 47  1  0
 24 48  1  0
 28 49  1  0
 29 50  1  0
 30 51  1  0
 33 52  1  0
 34 53  1  0
 35 54  1  0
M  CHG  5   1  -1  10  -1  24   1  27  -1  32  -1
M  END
>  <UniqueID>  (57) 
51

>  <SMILES>  (57) 
[NH-]C(=O)c1cccc(C[N-]C(=O)COc2ccc(S(=O)(=O)NC(=[NH2+])N=c3[n-]cccc3[O-])cc2)c1

>  <Energy>  (57) 
61.74711442750946

>  <Genealogy>  (57) 
[NH-]C(=O)c1cccc(C[N-]C(=O)COc2ccc(S(=O)(=O)NC(=[NH2+])N=c3[n-]cccc3[O-])cc2)c1 (protonated)
[NH-]C(=O)c1cccc(C[N-]C(=O)COc2ccc(S(=O)(=O)NC(=[NH2+])N=c3[n-]cccc3[O-])cc2)c1 (3D coordinates assigned)
[NH-]C(=O)c1cccc(C[N-]C(=O)COc2ccc(S(=O)(=O)NC(=[NH2+])N=c3[n-]cccc3[O-])cc2)c1 (optimized conformer: 61.74711442750946 kcal/mol)

>  <smiles>  (57) 
N=C(N=c1[nH]cccc1O)NS(=O)(=O)c1ccc(OCC(=O)NCc2cccc(C(N)=O)c2)cc1

>  <score_type>  (57) 
oracle

>  <origin>  (57) 
adg

>  <m_score__min__energy>  (57) 
-17.260000000000002

>  <m_primary>  (57) 
energy

$$$$
57:0
     RDKit          3D

 66 69  0  0  0  0  0  0  0  0999 V2000
   59.5080   28.3462   43.8579 H   0  0  0  0  0  0  0  0  0  0  0  0
   59.1540   28.9000   44.7400 C   0  0  0  0  0  0  0  0  0  0  0  0
   57.7050   29.0280   44.9650 C   0  0  0  0  0  0  0  0  0  0  0  0
   57.1600   28.4950   45.9720 O   0  0  0  0  0  0  0  0  0  0  0  0
   56.9440   29.7680   44.0530 O   0  0  0  0  0  0  0  0  0  0  0  0
   56.7040   31.1690   44.1850 C   0  0  0  0  0  0  0  0  0  0  0  0
   56.1720   31.5231   43.2897 H   0  0  0  0  0  0  0  0  0  0  0  0
   56.1052   31.3247   45.0945 H   0  0  0  0  0  0  0  0  0  0  0  0
   58.0120   31.9730   44.3360 C   0  0  0  0  0  0  0  0  0  0  0  0
   58.5769   31.5402   45.1748 H   0  0  0  0  0  0  0  0  0  0  0  0
   58.5177   31.8974   43.3621 H   0  0  0  0  0  0  0  0  0  0  0  0
   57.8620   33.4300   44.5940 N   0  0  0  0  0  0  0  0  0  0  0  0
   57.2700   33.7520   43.7900 H   0  0  0  0  0  0  0  0  0  0  0  0
   57.0490   33.7550   45.7920 C   0  0  0  0  0  0  0  0  0  0  0  0
   56.5646   34.7282   45.6238 H   0  0  0  0  0  0  0  0  0  0  0  0
   56.3316   32.9301   45.9140 H   0  0  0  0  0  0  0  0  0  0  0  0
   57.8490   33.8370   47.1120 C   0  0  0  0  0  0  0  0  0  0  0  0
   57.5709   34.7645   47.6339 H   0  0  0  0  0  0  0  0  0  0  0  0
   57.6010   32.9438   47.7041 H   0  0  0  0  0  0  0  0  0  0  0  0
   59.3080   33.8360   46.9000 N   0  0  0  0  0  0  0  0  0  0  0  0
   59.9940   34.2190   48.1530 C   0  0  0  0  0  0  0  0  0  0  0  0
   60.1308   35.3103   48.1695 H   0  0  0  0  0  0  0  0  0  0  0  0
   59.3767   33.8960   49.0042 H   0  0  0  0  0  0  0  0  0  0  0  0
   61.3420   33.5510   48.2550 C   0  0  0  0  0  0  0  0  0  0  0  0
   62.2050   33.8640   49.3180 C   0  0  0  0  0  0  0  0  0  0  0  0
   61.8875   34.5824   50.0882 H   0  0  0  0  0  0  0  0  0  0  0  0
   63.4660   33.2660   49.4010 C   0  0  0  0  0  0  0  0  0  0  0  0
   64.1414   33.5201   50.2312 H   0  0  0  0  0  0  0  0  0  0  0  0
   63.8690   32.3450   48.4290 C   0  0  0  0  0  0  0  0  0  0  0  0
   64.8650   31.8821   48.4902 H   0  0  0  0  0  0  0  0  0  0  0  0
   63.0080   32.0120   47.3800 C   0  0  0  0  0  0  0  0  0  0  0  0
   63.3200   31.2739   46.6264 H   0  0  0  0  0  0  0  0  0  0  0  0
   61.7500   32.6160   47.2870 C   0  0  0  0  0  0  0  0  0  0  0  0
   61.0781   32.3591   46.4548 H   0  0  0  0  0  0  0  0  0  0  0  0
   59.6470   34.7590   45.8070 C   0  0  0  0  0  0  0  0  0  0  0  0
   59.1873   35.7390   46.0026 H   0  0  0  0  0  0  0  0  0  0  0  0
   60.7405   34.8634   45.7499 H   0  0  0  0  0  0  0  0  0  0  0  0
   59.1240   34.2100   44.4720 C   0  0  0  0  0  0  0  0  0  0  0  0
   58.9429   35.0584   43.7957 H   0  0  0  0  0  0  0  0  0  0  0  0
   59.8901   33.5202   44.0881 H   0  0  0  0  0  0  0  0  0  0  0  0
   60.0560   29.4350   45.5730 C   0  0  0  0  0  0  0  0  0  0  0  0
   60.9769   29.8559   45.1430 H   0  0  0  0  0  0  0  0  0  0  0  0
   59.8790   29.4900   47.0440 C   0  0  0  0  0  0  0  0  0  0  0  0
   60.4600   28.5370   47.9030 C   0  0  0  0  0  0  0  0  0  0  0  0
   61.0470   27.7076   47.4817 H   0  0  0  0  0  0  0  0  0  0  0  0
   60.2960   28.6380   49.2840 C   0  0  0  0  0  0  0  0  0  0  0  0
   60.7363   27.8775   49.9457 H   0  0  0  0  0  0  0  0  0  0  0  0
   59.5750   29.7010   49.8290 C   0  0  0  0  0  0  0  0  0  0  0  0
   59.4449   29.7727   50.9189 H   0  0  0  0  0  0  0  0  0  0  0  0
   59.0140   30.6810   48.9910 C   0  0  0  0  0  0  0  0  0  0  0  0
   58.3010   31.7760   49.5000 O   0  0  0  0  0  0  0  0  0  0  0  0
   58.3980   32.2370   50.8200 C   0  0  0  0  0  0  0  0  0  0  0  0
   59.2530   33.3130   51.0840 C   0  0  0  0  0  0  0  0  0  0  0  0
   59.8535   33.7443   50.2695 H   0  0  0  0  0  0  0  0  0  0  0  0
   59.3510   33.8440   52.3710 C   0  0  0  0  0  0  0  0  0  0  0  0
   60.0194   34.6957   52.5656 H   0  0  0  0  0  0  0  0  0  0  0  0
   58.6010   33.2940   53.4100 C   0  0  0  0  0  0  0  0  0  0  0  0
   58.6702   33.7204   54.4216 H   0  0  0  0  0  0  0  0  0  0  0  0
   57.7620   32.2030   53.1700 C   0  0  0  0  0  0  0  0  0  0  0  0
   57.1743   31.7746   53.9952 H   0  0  0  0  0  0  0  0  0  0  0  0
   57.6630   31.6480   51.8810 C   0  0  0  0  0  0  0  0  0  0  0  0
   56.8580   30.4720   51.6800 N   0  0  0  0  0  0  0  0  0  0  0  0
   57.3740   29.3340   51.7240 O   0  0  0  0  0  0  0  0  0  0  0  0
   55.4870   30.5750   51.6170 O   0  0  0  0  0  0  0  0  0  0  0  0
   59.1620   30.5610   47.6040 C   0  0  0  0  0  0  0  0  0  0  0  0
   58.7106   31.3158   46.9432 H   0  0  0  0  0  0  0  0  0  0  0  0
  1  2  1  0
  2  3  1  0
  3  4  2  0
  3  5  1  0
  5  6  1  0
  6  7  1  0
  6  8  1  0
  6  9  1  0
  9 10  1  0
  9 11  1  0
  9 12  1  0
 12 13  1  0
 12 14  1  0
 14 15  1  0
 14 16  1  0
 14 17  1  0
 17 18  1  0
 17 19  1  0
 17 20  1  0
 20 21  1  0
 21 22  1  0
 21 23  1  0
 21 24  1  0
 24 25  2  0
 25 26  1  0
 25 27  1  0
 27 28  1  0
 27 29  2  0
 29 30  1  0
 29 31  1  0
 31 32  1  0
 31 33  2  0
 33 34  1  0
 20 35  1  0
 35 36  1  0
 35 37  1  0
 35 38  1  0
 38 39  1  0
 38 40  1  0
  2 41  2  0
 41 42  1  0
 41 43  1  0
 43 44  2  0
 44 45  1  0
 44 46  1  0
 46 47  1  0
 46 48  2  0
 48 49  1  0
 48 50  1  0
 50 51  1  0
 51 52  1  0
 52 53  2  0
 53 54  1  0
 53 55  1  0
 55 56  1  0
 55 57  2  0
 57 58  1  0
 57 59  1  0
 59 60  1  0
 59 61  2  0
 61 62  1  0
 62 63  2  0
 62 64  1  0
 50 65  2  0
 65 66  1  0
 38 12  1  0
 65 43  1  0
 33 24  1  0
 61 52  1  0
M  CHG  3  12   1  62   1  64  -1
M  END
>  <UniqueID>  (58) 
52

>  <SMILES>  (58) 
O=C(/C=C/c1cccc(Oc2ccccc2[N+](=O)[O-])c1)OCC[NH+]1CCN(Cc2ccccc2)CC1

>  <Energy>  (58) 
94.33512854227752

>  <Genealogy>  (58) 
O=C(C=Cc1cccc(Oc2ccccc2[N+](=O)[O-])c1)OCC[NH+]1CCN(Cc2ccccc2)CC1 (protonated)
O=C(/C=C/c1cccc(Oc2ccccc2[N+](=O)[O-])c1)OCC[NH+]1CCN(Cc2ccccc2)CC1 (cis-trans isomerization)
O=C(/C=C/c1cccc(Oc2ccccc2[N+](=O)[O-])c1)OCC[NH+]1CCN(Cc2ccccc2)CC1 (3D coordinates assigned)
O=C(/C=C/c1cccc(Oc2ccccc2[N+](=O)[O-])c1)OCC[NH+]1CCN(Cc2ccccc2)CC1 (nonaromatic ring conformer: 94.33512854227752 kcal/mol)

>  <smiles>  (58) 
O=C(C=Cc1cccc(Oc2ccccc2[N+](=O)[O-])c1)OCCN1CCN(Cc2ccccc2)CC1

>  <score_type>  (58) 
oracle

>  <origin>  (58) 
adg

>  <m_score__min__energy>  (58) 
-9.3399999999999999

>  <m_primary>  (58) 
energy

$$$$
58:0
     RDKit          3D

 41 43  0  0  0  0  0  0  0  0999 V2000
   57.4989   27.3918   42.7091 H   0  0  0  0  0  0  0  0  0  0  0  0
   57.3920   28.2570   43.3800 C   0  0  0  0  0  0  0  0  0  0  0  0
   56.7170   29.7450   42.9750 S   0  0  0  0  0  0  0  0  0  0  0  0
   56.9660   30.3850   44.5040 C   0  0  0  0  0  0  0  0  0  0  0  0
   56.6680   31.6070   44.8290 N   0  0  0  0  0  0  0  0  0  0  0  0
   57.4220   32.4400   45.7210 C   0  0  0  0  0  0  0  0  0  0  0  0
   56.9860   33.5930   45.9860 O   0  0  0  0  0  0  0  0  0  0  0  0
   58.5990   31.9460   46.3820 N   0  0  0  0  0  0  0  0  0  0  0  0
   58.7040   30.9130   46.4910 H   0  0  0  0  0  0  0  0  0  0  0  0
   59.4820   32.7960   47.1310 C   0  0  0  0  0  0  0  0  0  0  0  0
   58.9820   33.8680   47.8900 C   0  0  0  0  0  0  0  0  0  0  0  0
   57.9010   34.0710   47.9064 H   0  0  0  0  0  0  0  0  0  0  0  0
   59.8550   34.6780   48.6250 C   0  0  0  0  0  0  0  0  0  0  0  0
   59.4589   35.5161   49.2172 H   0  0  0  0  0  0  0  0  0  0  0  0
   61.2290   34.4240   48.6080 C   0  0  0  0  0  0  0  0  0  0  0  0
   61.9123   35.0540   49.1964 H   0  0  0  0  0  0  0  0  0  0  0  0
   61.7350   33.3690   47.8430 C   0  0  0  0  0  0  0  0  0  0  0  0
   63.6120   33.0270   47.8170 Br  0  0  0  0  0  0  0  0  0  0  0  0
   60.8650   32.5670   47.0940 C   0  0  0  0  0  0  0  0  0  0  0  0
   61.2685   31.7533   46.4735 H   0  0  0  0  0  0  0  0  0  0  0  0
   57.5690   29.5050   45.3310 N   0  0  0  0  0  0  0  0  0  0  0  0
   57.7920   28.3130   44.7150 C   0  0  0  0  0  0  0  0  0  0  0  0
   58.5130   27.1900   45.3960 C   0  0  0  0  0  0  0  0  0  0  0  0
   59.5699   27.4659   45.5261 H   0  0  0  0  0  0  0  0  0  0  0  0
   58.4277   26.2867   44.7740 H   0  0  0  0  0  0  0  0  0  0  0  0
   57.9100   26.9090   46.7370 C   0  0  0  0  0  0  0  0  0  0  0  0
   58.2640   27.5980   47.7300 O   0  0  0  0  0  0  0  0  0  0  0  0
   56.8950   25.8970   46.8490 N   0  0  0  0  0  0  0  0  0  0  0  0
   56.3300   25.1820   45.9140 C   0  0  0  0  0  0  0  0  0  0  0  0
   54.9800   25.0150   45.9650 N   0  0  0  0  0  0  0  0  0  0  0  0
   54.2940   24.2800   45.0480 C   0  0  0  0  0  0  0  0  0  0  0  0
   52.8120   24.1210   45.1750 C   0  0  0  0  0  0  0  0  0  0  0  0
   52.5363   24.0914   46.2395 H   0  0  0  0  0  0  0  0  0  0  0  0
   52.3092   24.9704   44.6895 H   0  0  0  0  0  0  0  0  0  0  0  0
   52.5008   23.1843   44.6895 H   0  0  0  0  0  0  0  0  0  0  0  0
   54.9860   23.6490   44.0110 C   0  0  0  0  0  0  0  0  0  0  0  0
   54.4500   23.0152   43.2892 H   0  0  0  0  0  0  0  0  0  0  0  0
   56.3630   23.8320   43.9020 C   0  0  0  0  0  0  0  0  0  0  0  0
   56.9146   23.3664   43.0720 H   0  0  0  0  0  0  0  0  0  0  0  0
   57.0440   24.6050   44.8440 C   0  0  0  0  0  0  0  0  0  0  0  0
   58.1288   24.7626   44.7522 H   0  0  0  0  0  0  0  0  0  0  0  0
  1  2  1  0
  2  3  1  0
  3  4  1  0
  4  5  2  3
  5  6  1  0
  6  7  2  0
  6  8  1  0
  8  9  1  0
  8 10  1  0
 10 11  2  0
 11 12  1  0
 11 13  1  0
 13 14  1  0
 13 15  2  0
 15 16  1  0
 15 17  1  0
 17 18  1  0
 17 19  2  0
 19 20  1  0
  4 21  1  0
 21 22  1  0
 22 23  1  0
 23 24  1  0
 23 25  1  0
 23 26  1  0
 26 27  2  0
 26 28  1  0
 28 29  2  0
 29 30  1  0
 30 31  1  0
 31 32  1  0
 32 33  1  0
 32 34  1  0
 32 35  1  0
 31 36  2  0
 36 37  1  0
 36 38  1  0
 38 39  1  0
 38 40  2  0
 40 41  1  0
 22  2  2  0
 40 29  1  0
 19 10  1  0
M  CHG  2  21  -1  30  -1
M  END
>  <UniqueID>  (59) 
53

>  <SMILES>  (59) 
Cc1ccc/c(=N\C(=O)Cc2csc(=NC(=O)Nc3cccc(Br)c3)[n-]2)[n-]1

>  <Energy>  (59) 
79.0099602671754

>  <Genealogy>  (59) 
Cc1cccc(=NC(=O)Cc2csc(=NC(=O)Nc3cccc(Br)c3)[n-]2)[n-]1 (protonated)
Cc1ccc/c(=N\C(=O)Cc2csc(=NC(=O)Nc3cccc(Br)c3)[n-]2)[n-]1 (cis-trans isomerization)
Cc1ccc/c(=N\C(=O)Cc2csc(=NC(=O)Nc3cccc(Br)c3)[n-]2)[n-]1 (3D coordinates assigned)
Cc1ccc/c(=N\C(=O)Cc2csc(=NC(=O)Nc3cccc(Br)c3)[n-]2)[n-]1 (optimized conformer: 79.0099602671754 kcal/mol)

>  <smiles>  (59) 
Cc1cccc(=NC(=O)Cc2csc(=NC(=O)Nc3cccc(Br)c3)[nH]2)[nH]1

>  <score_type>  (59) 
oracle

>  <origin>  (59) 
adg

>  <m_score__min__energy>  (59) 
-11.83

>  <m_primary>  (59) 
energy

$$$$
59:0
     RDKit          3D

 34 35  0  0  0  0  0  0  0  0999 V2000
   55.1670   26.4180   46.0140 N   0  0  0  0  0  0  0  0  0  0  0  0
   56.8280   25.9530   46.1360 S   0  0  0  0  0  0  0  0  0  0  0  0
   56.9210   24.4540   46.1990 O   0  0  0  0  0  0  0  0  0  0  0  0
   57.4220   26.5390   47.3860 O   0  0  0  0  0  0  0  0  0  0  0  0
   57.7240   26.5400   44.7100 C   0  0  0  0  0  0  0  0  0  0  0  0
   57.7520   28.0420   44.6890 C   0  0  0  0  0  0  0  0  0  0  0  0
   56.5590   28.7710   44.5600 C   0  0  0  0  0  0  0  0  0  0  0  0
   56.5820   30.1680   44.5660 C   0  0  0  0  0  0  0  0  0  0  0  0
   57.7980   30.8540   44.6930 C   0  0  0  0  0  0  0  0  0  0  0  0
   57.8160   32.3280   44.6640 C   0  0  0  0  0  0  0  0  0  0  0  0
   58.1330   32.9150   43.5970 O   0  0  0  0  0  0  0  0  0  0  0  0
   57.5240   33.1150   45.8280 N   0  0  0  0  0  0  0  0  0  0  0  0
   58.1340   34.4020   46.1590 C   0  0  0  0  0  0  0  0  0  0  0  0
   59.4850   34.2050   46.7940 C   0  0  0  0  0  0  0  0  0  0  0  0
   59.6480   34.2920   48.1850 C   0  0  0  0  0  0  0  0  0  0  0  0
   60.9030   34.0750   48.7560 C   0  0  0  0  0  0  0  0  0  0  0  0
   61.9880   33.7790   47.9290 C   0  0  0  0  0  0  0  0  0  0  0  0
   61.8180   33.7050   46.5820 N   0  0  0  0  0  0  0  0  0  0  0  0
   60.6060   33.9100   46.0030 C   0  0  0  0  0  0  0  0  0  0  0  0
   58.9880   30.1270   44.8550 C   0  0  0  0  0  0  0  0  0  0  0  0
   58.9640   28.7300   44.8530 C   0  0  0  0  0  0  0  0  0  0  0  0
   55.1440   27.4620   45.9930 H   0  0  0  0  0  0  0  0  0  0  0  0
   58.7552   26.1590   44.7482 H   0  0  0  0  0  0  0  0  0  0  0  0
   57.2208   26.1804   43.8003 H   0  0  0  0  0  0  0  0  0  0  0  0
   55.6017   28.2398   44.4537 H   0  0  0  0  0  0  0  0  0  0  0  0
   55.6423   30.7318   44.4707 H   0  0  0  0  0  0  0  0  0  0  0  0
   58.2507   34.9933   45.2388 H   0  0  0  0  0  0  0  0  0  0  0  0
   57.4824   34.9284   46.8719 H   0  0  0  0  0  0  0  0  0  0  0  0
   58.7864   34.5313   48.8256 H   0  0  0  0  0  0  0  0  0  0  0  0
   61.0357   34.1366   49.8462 H   0  0  0  0  0  0  0  0  0  0  0  0
   62.9817   33.6054   48.3676 H   0  0  0  0  0  0  0  0  0  0  0  0
   60.5031   33.8445   44.9098 H   0  0  0  0  0  0  0  0  0  0  0  0
   59.9422   30.6588   44.9839 H   0  0  0  0  0  0  0  0  0  0  0  0
   59.9001   28.1665   44.9807 H   0  0  0  0  0  0  0  0  0  0  0  0
  1  2  1  0
  2  3  2  0
  2  4  2  0
  2  5  1  0
  5  6  1  0
  6  7  2  0
  7  8  1  0
  8  9  2  0
  9 10  1  0
 10 11  2  0
 10 12  1  0
 12 13  1  0
 13 14  1  0
 14 15  2  0
 15 16  1  0
 16 17  2  0
 17 18  1  0
 18 19  2  0
  9 20  1  0
 20 21  2  0
 21  6  1  0
 19 14  1  0
  1 22  1  0
  5 23  1  0
  5 24  1  0
  7 25  1  0
  8 26  1  0
 13 27  1  0
 13 28  1  0
 15 29  1  0
 16 30  1  0
 17 31  1  0
 19 32  1  0
 20 33  1  0
 21 34  1  0
M  CHG  2   1  -1  12  -1
M  END
>  <UniqueID>  (60) 
54

>  <SMILES>  (60) 
[NH-]S(=O)(=O)Cc1ccc(C(=O)[N-]Cc2cccnc2)cc1

>  <Energy>  (60) 
31.52713102974775

>  <Genealogy>  (60) 
[NH-]S(=O)(=O)Cc1ccc(C(=O)[N-]Cc2cccnc2)cc1 (protonated)
[NH-]S(=O)(=O)Cc1ccc(C(=O)[N-]Cc2cccnc2)cc1 (3D coordinates assigned)
[NH-]S(=O)(=O)Cc1ccc(C(=O)[N-]Cc2cccnc2)cc1 (optimized conformer: 31.52713102974775 kcal/mol)

>  <smiles>  (60) 
NS(=O)(=O)Cc1ccc(C(=O)NCc2cccnc2)cc1

>  <score_type>  (60) 
oracle

>  <origin>  (60) 
adg

>  <m_score__min__energy>  (60) 
-11.289999999999999

>  <m_primary>  (60) 
energy

$$$$
60:0
     RDKit          3D

 43 46  0  0  0  0  0  0  0  0999 V2000
   60.7960   25.8340   47.0640 O   0  0  0  0  0  0  0  0  0  0  0  0
   60.2820   26.9310   47.4090 C   0  0  0  0  0  0  0  0  0  0  0  0
   60.8670   27.6880   48.4770 N   0  0  0  0  0  0  0  0  0  0  0  0
   60.3640   28.6840   49.1550 C   0  0  0  0  0  0  0  0  0  0  0  0
   59.9820   28.4390   50.4390 N   0  0  0  0  0  0  0  0  0  0  0  0
   59.4330   29.3920   51.2370 C   0  0  0  0  0  0  0  0  0  0  0  0
   59.2440   30.6840   50.7520 C   0  0  0  0  0  0  0  0  0  0  0  0
   59.6480   30.9880   49.4530 C   0  0  0  0  0  0  0  0  0  0  0  0
   60.2320   30.0030   48.6440 C   0  0  0  0  0  0  0  0  0  0  0  0
   60.7110   30.3610   47.3860 O   0  0  0  0  0  0  0  0  0  0  0  0
   59.1080   27.4880   46.7030 C   0  0  0  0  0  0  0  0  0  0  0  0
   59.2930   28.6570   46.0990 O   0  0  0  0  0  0  0  0  0  0  0  0
   58.3480   29.3010   45.4310 C   0  0  0  0  0  0  0  0  0  0  0  0
   58.6520   30.5310   44.8360 C   0  0  0  0  0  0  0  0  0  0  0  0
   57.6730   31.2320   44.1290 C   0  0  0  0  0  0  0  0  0  0  0  0
   57.9810   32.4520   43.5420 O   0  0  0  0  0  0  0  0  0  0  0  0
   56.3850   30.7070   44.0130 C   0  0  0  0  0  0  0  0  0  0  0  0
   56.0650   29.4780   44.6010 C   0  0  0  0  0  0  0  0  0  0  0  0
   54.7680   28.9910   44.4600 O   0  0  0  0  0  0  0  0  0  0  0  0
   57.0510   28.7580   45.3210 C   0  0  0  0  0  0  0  0  0  0  0  0
   56.8040   27.5120   45.9290 C   0  0  0  0  0  0  0  0  0  0  0  0
   55.6650   26.9770   45.8380 O   0  0  0  0  0  0  0  0  0  0  0  0
   57.8360   26.8530   46.6360 C   0  0  0  0  0  0  0  0  0  0  0  0
   57.5870   25.4630   47.2070 C   0  0  0  0  0  0  0  0  0  0  0  0
   57.1430   24.4930   46.1380 C   0  0  0  0  0  0  0  0  0  0  0  0
   58.0350   24.0860   45.1310 C   0  0  0  0  0  0  0  0  0  0  0  0
   57.6180   23.2010   44.1320 C   0  0  0  0  0  0  0  0  0  0  0  0
   56.3030   22.7270   44.1190 C   0  0  0  0  0  0  0  0  0  0  0  0
   55.8950   21.8460   43.1250 O   0  0  0  0  0  0  0  0  0  0  0  0
   55.4000   23.1440   45.1050 C   0  0  0  0  0  0  0  0  0  0  0  0
   54.0900   22.6820   45.0920 O   0  0  0  0  0  0  0  0  0  0  0  0
   55.8170   24.0290   46.1060 C   0  0  0  0  0  0  0  0  0  0  0  0
   59.1376   29.1430   52.2669 H   0  0  0  0  0  0  0  0  0  0  0  0
   58.7817   31.4548   51.3862 H   0  0  0  0  0  0  0  0  0  0  0  0
   59.5079   32.0060   49.0606 H   0  0  0  0  0  0  0  0  0  0  0  0
   60.7660   29.6940   46.6250 H   0  0  0  0  0  0  0  0  0  0  0  0
   59.6663   30.9471   44.9258 H   0  0  0  0  0  0  0  0  0  0  0  0
   55.6165   31.2628   43.4558 H   0  0  0  0  0  0  0  0  0  0  0  0
   58.5176   25.0919   47.6612 H   0  0  0  0  0  0  0  0  0  0  0  0
   56.7858   25.5381   47.9570 H   0  0  0  0  0  0  0  0  0  0  0  0
   59.0673   24.4659   45.1288 H   0  0  0  0  0  0  0  0  0  0  0  0
   58.3260   22.8772   43.3549 H   0  0  0  0  0  0  0  0  0  0  0  0
   55.1023   24.3634   46.8724 H   0  0  0  0  0  0  0  0  0  0  0  0
  1  2  2  0
  2  3  1  0
  3  4  2  3
  4  5  1  0
  5  6  1  0
  6  7  2  0
  7  8  1  0
  8  9  2  0
  9 10  1  0
  2 11  1  0
 11 12  1  0
 12 13  1  0
 13 14  2  0
 14 15  1  0
 15 16  1  0
 15 17  2  0
 17 18  1  0
 18 19  1  0
 18 20  2  0
 20 21  1  0
 21 22  2  0
 21 23  1  0
 23 24  1  0
 24 25  1  0
 25 26  2  0
 26 27  1  0
 27 28  2  0
 28 29  1  0
 28 30  1  0
 30 31  1  0
 30 32  2  0
  9  4  1  0
 23 11  2  0
 32 25  1  0
 20 13  1  0
  6 33  1  0
  7 34  1  0
  8 35  1  0
 10 36  1  0
 14 37  1  0
 17 38  1  0
 24 39  1  0
 24 40  1  0
 26 41  1  0
 27 42  1  0
 32 43  1  0
M  CHG  5   5  -1  16  -1  19  -1  29  -1  31  -1
M  END
>  <UniqueID>  (61) 
55

>  <SMILES>  (61) 
O=C(N=c1[n-]cccc1O)c1oc2cc([O-])cc([O-])c2c(=O)c1Cc1ccc([O-])c([O-])c1

>  <Energy>  (61) 
73.94255196601719

>  <Genealogy>  (61) 
O=C(N=c1[n-]cccc1O)c1oc2cc([O-])cc([O-])c2c(=O)c1Cc1ccc([O-])c([O-])c1 (protonated)
O=C(N=c1[n-]cccc1O)c1oc2cc([O-])cc([O-])c2c(=O)c1Cc1ccc([O-])c([O-])c1 (3D coordinates assigned)
O=C(N=c1[n-]cccc1O)c1oc2cc([O-])cc([O-])c2c(=O)c1Cc1ccc([O-])c([O-])c1 (optimized conformer: 73.94255196601719 kcal/mol)

>  <smiles>  (61) 
O=C(N=c1[nH]cccc1O)c1oc2cc(O)cc(O)c2c(=O)c1Cc1ccc(O)c(O)c1

>  <score_type>  (61) 
oracle

>  <origin>  (61) 
adg

>  <m_score__min__energy>  (61) 
-17.32

>  <m_primary>  (61) 
energy

$$$$
61:0
     RDKit          3D

 38 40  0  0  0  0  0  0  0  0999 V2000
   59.7640   28.5100   47.7547 H   0  0  0  0  0  0  0  0  0  0  0  0
   59.1410   27.9410   47.0490 C   0  0  0  0  0  0  0  0  0  0  0  0
   58.8459   26.9080   47.2852 H   0  0  0  0  0  0  0  0  0  0  0  0
   58.7410   28.5070   45.9000 C   0  0  0  0  0  0  0  0  0  0  0  0
   57.9490   27.9280   44.8950 C   0  0  0  0  0  0  0  0  0  0  0  0
   57.5460   26.6570   44.7070 C   0  0  0  0  0  0  0  0  0  0  0  0
   57.6004   26.2590   43.6830 H   0  0  0  0  0  0  0  0  0  0  0  0
   57.0390   25.7540   45.7530 C   0  0  0  0  0  0  0  0  0  0  0  0
   57.6890   24.6660   46.2090 N   0  0  0  0  0  0  0  0  0  0  0  0
   56.7890   24.0890   47.0340 C   0  0  0  0  0  0  0  0  0  0  0  0
   57.0370   23.0350   47.6770 O   0  0  0  0  0  0  0  0  0  0  0  0
   55.6000   24.7250   47.1110 N   0  0  0  0  0  0  0  0  0  0  0  0
   55.7720   25.7670   46.2820 C   0  0  0  0  0  0  0  0  0  0  0  0
   54.7860   26.7080   46.0090 O   0  0  0  0  0  0  0  0  0  0  0  0
   57.6240   28.9530   44.0190 C   0  0  0  0  0  0  0  0  0  0  0  0
   56.9792   28.8763   43.1311 H   0  0  0  0  0  0  0  0  0  0  0  0
   58.2640   30.0870   44.4740 C   0  0  0  0  0  0  0  0  0  0  0  0
   58.2110   31.4280   43.8090 C   0  0  0  0  0  0  0  0  0  0  0  0
   58.1798   32.2164   44.5755 H   0  0  0  0  0  0  0  0  0  0  0  0
   59.1046   31.5617   43.1816 H   0  0  0  0  0  0  0  0  0  0  0  0
   57.3097   31.4908   43.1816 H   0  0  0  0  0  0  0  0  0  0  0  0
   58.9530   29.8150   45.6030 N   0  0  0  0  0  0  0  0  0  0  0  0
   59.6850   30.7760   46.3810 C   0  0  0  0  0  0  0  0  0  0  0  0
   61.0360   30.5580   46.6730 C   0  0  0  0  0  0  0  0  0  0  0  0
   61.5378   29.6542   46.2969 H   0  0  0  0  0  0  0  0  0  0  0  0
   61.7510   31.4810   47.4390 C   0  0  0  0  0  0  0  0  0  0  0  0
   62.8130   31.2991   47.6606 H   0  0  0  0  0  0  0  0  0  0  0  0
   61.1250   32.6420   47.9300 C   0  0  0  0  0  0  0  0  0  0  0  0
   61.8990   33.6170   48.7460 C   0  0  0  0  0  0  0  0  0  0  0  0
   62.8840   34.2180   48.2360 O   0  0  0  0  0  0  0  0  0  0  0  0
   61.5460   33.9140   50.1730 C   0  0  0  0  0  0  0  0  0  0  0  0
   62.2148   33.3513   50.8409 H   0  0  0  0  0  0  0  0  0  0  0  0
   61.6604   34.9915   50.3624 H   0  0  0  0  0  0  0  0  0  0  0  0
   60.5039   33.6170   50.3624 H   0  0  0  0  0  0  0  0  0  0  0  0
   59.7640   32.8550   47.6310 C   0  0  0  0  0  0  0  0  0  0  0  0
   59.2588   33.7575   48.0054 H   0  0  0  0  0  0  0  0  0  0  0  0
   59.0500   31.9300   46.8630 C   0  0  0  0  0  0  0  0  0  0  0  0
   57.7100   32.1640   46.5750 O   0  0  0  0  0  0  0  0  0  0  0  0
  1  2  1  0
  2  3  1  0
  2  4  2  0
  4  5  1  0
  5  6  2  0
  6  7  1  0
  6  8  1  0
  8  9  1  0
  9 10  1  0
 10 11  2  0
 10 12  1  0
 12 13  1  0
 13 14  1  0
  5 15  1  0
 15 16  1  0
 15 17  2  0
 17 18  1  0
 18 19  1  0
 18 20  1  0
 18 21  1  0
 17 22  1  0
 22 23  1  0
 23 24  2  0
 24 25  1  0
 24 26  1  0
 26 27  1  0
 26 28  2  0
 28 29  1  0
 29 30  2  0
 29 31  1  0
 31 32  1  0
 31 33  1  0
 31 34  1  0
 28 35  1  0
 35 36  1  0
 35 37  2  0
 37 38  1  0
 22  4  1  0
 37 23  1  0
 13  8  2  0
M  CHG  4   9  -1  12  -1  14  -1  38  -1
M  END
>  <UniqueID>  (62) 
56

>  <SMILES>  (62) 
C=c1/c(=C\c2[n-]c(=O)[n-]c2[O-])cc(C)n1-c1ccc(C(C)=O)cc1[O-]

>  <Energy>  (62) 
116.23502199742927

>  <Genealogy>  (62) 
C=c1c(=Cc2[n-]c(=O)[n-]c2[O-])cc(C)n1-c1ccc(C(C)=O)cc1[O-] (protonated)
C=c1/c(=C\c2[n-]c(=O)[n-]c2[O-])cc(C)n1-c1ccc(C(C)=O)cc1[O-] (cis-trans isomerization)
C=c1/c(=C\c2[n-]c(=O)[n-]c2[O-])cc(C)n1-c1ccc(C(C)=O)cc1[O-] (3D coordinates assigned)
C=c1/c(=C\c2[n-]c(=O)[n-]c2[O-])cc(C)n1-c1ccc(C(C)=O)cc1[O-] (optimized conformer: 116.23502199742927 kcal/mol)

>  <smiles>  (62) 
C=c1c(=Cc2[nH]c(=O)[nH]c2O)cc(C)n1-c1ccc(C(C)=O)cc1O

>  <score_type>  (62) 
oracle

>  <origin>  (62) 
adg

>  <m_score__min__energy>  (62) 
-16.420000000000002

>  <m_primary>  (62) 
energy

$$$$
62:0
     RDKit          3D

 45 47  0  0  0  0  0  0  0  0999 V2000
   52.2960   22.9640   44.6270 H   0  0  0  0  0  0  0  0  0  0  0  0
   52.8930   22.6400   45.4200 N   0  0  0  0  0  0  0  0  0  0  0  0
   53.9660   23.2760   45.7650 C   0  0  0  0  0  0  0  0  0  0  0  0
   54.0300   24.6230   45.6110 N   0  0  0  0  0  0  0  0  0  0  0  0
   55.1440   25.3200   45.9590 C   0  0  0  0  0  0  0  0  0  0  0  0
   55.1540   26.7070   45.8250 O   0  0  0  0  0  0  0  0  0  0  0  0
   55.9860   27.1940   45.5150 H   0  0  0  0  0  0  0  0  0  0  0  0
   56.2650   24.6400   46.4690 C   0  0  0  0  0  0  0  0  0  0  0  0
   57.5030   25.3550   46.8610 C   0  0  0  0  0  0  0  0  0  0  0  0
   58.4064   24.7564   47.0499 H   0  0  0  0  0  0  0  0  0  0  0  0
   57.5880   26.6500   46.9960 N   0  0  0  0  0  0  0  0  0  0  0  0
   58.5860   27.5220   46.4370 C   0  0  0  0  0  0  0  0  0  0  0  0
   58.8840   27.4200   45.0730 C   0  0  0  0  0  0  0  0  0  0  0  0
   58.3641   26.6743   44.4536 H   0  0  0  0  0  0  0  0  0  0  0  0
   59.8390   28.2610   44.4940 C   0  0  0  0  0  0  0  0  0  0  0  0
   60.0805   28.1631   43.4253 H   0  0  0  0  0  0  0  0  0  0  0  0
   60.4870   29.2250   45.2690 C   0  0  0  0  0  0  0  0  0  0  0  0
   61.2523   29.8707   44.8136 H   0  0  0  0  0  0  0  0  0  0  0  0
   60.1650   29.3730   46.6280 C   0  0  0  0  0  0  0  0  0  0  0  0
   60.8510   30.4160   47.4690 C   0  0  0  0  0  0  0  0  0  0  0  0
   61.7502   30.7694   46.9430 H   0  0  0  0  0  0  0  0  0  0  0  0
   61.1248   29.9664   48.4349 H   0  0  0  0  0  0  0  0  0  0  0  0
   59.9830   31.5240   47.7090 O   0  0  0  0  0  0  0  0  0  0  0  0
   59.2210   32.1830   46.7290 C   0  0  0  0  0  0  0  0  0  0  0  0
   59.4840   33.5060   46.3250 C   0  0  0  0  0  0  0  0  0  0  0  0
   60.3210   34.0605   46.7743 H   0  0  0  0  0  0  0  0  0  0  0  0
   58.6840   34.1170   45.3540 C   0  0  0  0  0  0  0  0  0  0  0  0
   58.8873   35.1540   45.0486 H   0  0  0  0  0  0  0  0  0  0  0  0
   57.6270   33.4130   44.7710 C   0  0  0  0  0  0  0  0  0  0  0  0
   56.9932   33.9025   44.0169 H   0  0  0  0  0  0  0  0  0  0  0  0
   57.3710   32.0880   45.1420 C   0  0  0  0  0  0  0  0  0  0  0  0
   56.2640   31.4030   44.5390 N   0  0  0  0  0  0  0  0  0  0  0  0
   56.1660   29.9960   44.2820 C   0  0  0  0  0  0  0  0  0  0  0  0
   55.5330   29.2710   45.0940 O   0  0  0  0  0  0  0  0  0  0  0  0
   56.7550   29.3650   43.0560 C   0  0  0  0  0  0  0  0  0  0  0  0
   57.4777   28.5908   43.3532 H   0  0  0  0  0  0  0  0  0  0  0  0
   55.9532   28.9078   42.4577 H   0  0  0  0  0  0  0  0  0  0  0  0
   57.2663   30.1335   42.4577 H   0  0  0  0  0  0  0  0  0  0  0  0
   58.1550   31.4890   46.1430 C   0  0  0  0  0  0  0  0  0  0  0  0
   57.9287   30.4634   46.4699 H   0  0  0  0  0  0  0  0  0  0  0  0
   59.2090   28.5220   47.2060 C   0  0  0  0  0  0  0  0  0  0  0  0
   58.9454   28.6381   48.2676 H   0  0  0  0  0  0  0  0  0  0  0  0
   56.1610   23.2520   46.6510 C   0  0  0  0  0  0  0  0  0  0  0  0
   57.1190   22.5930   47.1380 O   0  0  0  0  0  0  0  0  0  0  0  0
   55.0230   22.6030   46.2910 N   0  0  0  0  0  0  0  0  0  0  0  0
  1  2  1  0
  2  3  2  3
  3  4  1  0
  4  5  1  0
  5  6  1  0
  6  7  1  0
  5  8  2  0
  8  9  1  0
  9 10  1  0
  9 11  2  0
 11 12  1  0
 12 13  2  0
 13 14  1  0
 13 15  1  0
 15 16  1  0
 15 17  2  0
 17 18  1  0
 17 19  1  0
 19 20  1  0
 20 21  1  0
 20 22  1  0
 20 23  1  0
 23 24  1  0
 24 25  2  0
 25 26  1  0
 25 27  1  0
 27 28  1  0
 27 29  2  0
 29 30  1  0
 29 31  1  0
 31 32  1  0
 32 33  1  0
 33 34  2  0
 33 35  1  0
 35 36  1  0
 35 37  1  0
 35 38  1  0
 31 39  2  0
 39 40  1  0
 19 41  2  0
 41 42  1  0
  8 43  1  0
 43 44  2  0
 43 45  1  0
 45  3  1  0
 41 12  1  0
 39 24  1  0
M  CHG  3   4  -1  32  -1  45  -1
M  END
>  <UniqueID>  (63) 
57

>  <SMILES>  (63) 
CC(=O)[N-]c1cccc(OCc2cccc(/N=C\c3c(O)[n-]c(=N)[n-]c3=O)c2)c1

>  <Energy>  (63) 
63.224546964283405

>  <Genealogy>  (63) 
CC(=O)[N-]c1cccc(OCc2cccc(N=Cc3c(O)[n-]c(=N)[n-]c3=O)c2)c1 (protonated)
CC(=O)[N-]c1cccc(OCc2cccc(/N=C\c3c(O)[n-]c(=N)[n-]c3=O)c2)c1 (cis-trans isomerization)
CC(=O)[N-]c1cccc(OCc2cccc(/N=C\c3c(O)[n-]c(=N)[n-]c3=O)c2)c1 (3D coordinates assigned)
CC(=O)[N-]c1cccc(OCc2cccc(/N=C\c3c(O)[n-]c(=N)[n-]c3=O)c2)c1 (optimized conformer: 63.224546964283405 kcal/mol)

>  <smiles>  (63) 
CC(=O)Nc1cccc(OCc2cccc(N=Cc3c(O)[nH]c(=N)[nH]c3=O)c2)c1

>  <score_type>  (63) 
oracle

>  <origin>  (63) 
adg

>  <m_score__min__energy>  (63) 
-14.52

>  <m_primary>  (63) 
energy

$$$$
63:0
     RDKit          3D

 34 35  0  0  0  0  0  0  0  0999 V2000
   55.3730   28.2590   44.7060 H   0  0  0  0  0  0  0  0  0  0  0  0
   55.1470   29.2780   44.6760 N   0  0  0  0  0  0  0  0  0  0  0  0
   56.0120   30.1640   44.3010 C   0  0  0  0  0  0  0  0  0  0  0  0
   56.7860   30.7770   45.2350 N   0  0  0  0  0  0  0  0  0  0  0  0
   57.7100   31.7170   44.8950 C   0  0  0  0  0  0  0  0  0  0  0  0
   58.5320   32.3490   45.9590 C   0  0  0  0  0  0  0  0  0  0  0  0
   59.6970   33.0660   45.6490 C   0  0  0  0  0  0  0  0  0  0  0  0
   60.0141   33.1598   44.5999 H   0  0  0  0  0  0  0  0  0  0  0  0
   60.4640   33.6660   46.6620 C   0  0  0  0  0  0  0  0  0  0  0  0
   61.6380   34.3840   46.3760 O   0  0  0  0  0  0  0  0  0  0  0  0
   62.9550   33.8440   46.4360 C   0  0  0  0  0  0  0  0  0  0  0  0
   63.2535   33.7216   47.4876 H   0  0  0  0  0  0  0  0  0  0  0  0
   62.9734   32.8657   45.9334 H   0  0  0  0  0  0  0  0  0  0  0  0
   63.6549   34.5277   45.9334 H   0  0  0  0  0  0  0  0  0  0  0  0
   60.0660   33.5580   48.0040 C   0  0  0  0  0  0  0  0  0  0  0  0
   60.8920   34.1840   48.9590 O   0  0  0  0  0  0  0  0  0  0  0  0
   61.7900   33.5410   49.8570 C   0  0  0  0  0  0  0  0  0  0  0  0
   61.4894   33.7563   50.8930 H   0  0  0  0  0  0  0  0  0  0  0  0
   61.7644   32.4547   49.6860 H   0  0  0  0  0  0  0  0  0  0  0  0
   62.8102   33.9152   49.6860 H   0  0  0  0  0  0  0  0  0  0  0  0
   58.8830   32.8480   48.3310 C   0  0  0  0  0  0  0  0  0  0  0  0
   58.4750   32.7430   49.6710 O   0  0  0  0  0  0  0  0  0  0  0  0
   58.6010   31.5740   50.4750 C   0  0  0  0  0  0  0  0  0  0  0  0
   58.5707   31.8551   51.5380 H   0  0  0  0  0  0  0  0  0  0  0  0
   57.7718   30.8858   50.2539 H   0  0  0  0  0  0  0  0  0  0  0  0
   59.5578   31.0783   50.2539 H   0  0  0  0  0  0  0  0  0  0  0  0
   58.1300   32.2560   47.2980 C   0  0  0  0  0  0  0  0  0  0  0  0
   57.2083   31.7100   47.5475 H   0  0  0  0  0  0  0  0  0  0  0  0
   57.8720   32.0490   43.5410 C   0  0  0  0  0  0  0  0  0  0  0  0
   58.6171   32.7973   43.2331 H   0  0  0  0  0  0  0  0  0  0  0  0
   57.0700   31.4120   42.5920 C   0  0  0  0  0  0  0  0  0  0  0  0
   57.1990   31.6950   41.3710 O   0  0  0  0  0  0  0  0  0  0  0  0
   56.1540   30.4860   42.9840 N   0  0  0  0  0  0  0  0  0  0  0  0
   55.5600   30.0190   42.2620 H   0  0  0  0  0  0  0  0  0  0  0  0
  1  2  1  0
  2  3  2  0
  3  4  1  0
  4  5  1  0
  5  6  1  0
  6  7  2  0
  7  8  1  0
  7  9  1  0
  9 10  1  0
 10 11  1  0
 11 12  1  0
 11 13  1  0
 11 14  1  0
  9 15  2  0
 15 16  1  0
 16 17  1  0
 17 18  1  0
 17 19  1  0
 17 20  1  0
 15 21  1  0
 21 22  1  0
 22 23  1  0
 23 24  1  0
 23 25  1  0
 23 26  1  0
 21 27  2  0
 27 28  1  0
  5 29  2  0
 29 30  1  0
 29 31  1  0
 31 32  2  0
 31 33  1  0
 33 34  1  0
 33  3  1  0
 27  6  1  0
M  CHG  1   4  -1
M  END
>  <UniqueID>  (64) 
58

>  <SMILES>  (64) 
[H]/N=c1/[n-]c(-c2cc(OC)c(OC)c(OC)c2)cc(=O)[nH]1

>  <Energy>  (64) 
40.824886537112285

>  <Genealogy>  (64) 
COc1cc(-c2cc(=O)[nH]c(=N)[n-]2)cc(OC)c1OC (protonated)
[H]/N=c1/[n-]c(-c2cc(OC)c(OC)c(OC)c2)cc(=O)[nH]1 (cis-trans isomerization)
[H]/N=c1/[n-]c(-c2cc(OC)c(OC)c(OC)c2)cc(=O)[nH]1 (3D coordinates assigned)
[H]/N=c1/[n-]c(-c2cc(OC)c(OC)c(OC)c2)cc(=O)[nH]1 (optimized conformer: 40.824886537112285 kcal/mol)

>  <smiles>  (64) 
COc1cc(-c2cc(=O)[nH]c(=N)[nH]2)cc(OC)c1OC

>  <score_type>  (64) 
oracle

>  <origin>  (64) 
adg

>  <m_score__min__energy>  (64) 
-7.6699999999999999

>  <m_primary>  (64) 
energy

$$$$
64:0
     RDKit          3D

 61 64  0  0  0  0  0  0  0  0999 V2000
   61.2710   33.8410   50.9550 N   0  0  0  0  0  0  0  0  0  0  0  0
   61.8170   34.2070   49.6910 C   0  0  0  0  0  0  0  0  0  0  0  0
   63.0090   34.6150   49.6300 O   0  0  0  0  0  0  0  0  0  0  0  0
   60.9970   34.1060   48.4590 C   0  0  0  0  0  0  0  0  0  0  0  0
   61.5980   33.8450   47.2160 C   0  0  0  0  0  0  0  0  0  0  0  0
   60.8140   33.7340   46.0670 C   0  0  0  0  0  0  0  0  0  0  0  0
   59.4300   33.8930   46.1570 C   0  0  0  0  0  0  0  0  0  0  0  0
   58.6440   33.7470   45.0020 O   0  0  0  0  0  0  0  0  0  0  0  0
   58.1940   32.5210   44.4940 C   0  0  0  0  0  0  0  0  0  0  0  0
   57.7590   32.4640   43.1640 C   0  0  0  0  0  0  0  0  0  0  0  0
   57.2880   31.2630   42.6280 C   0  0  0  0  0  0  0  0  0  0  0  0
   57.2270   30.1160   43.4210 C   0  0  0  0  0  0  0  0  0  0  0  0
   57.6420   30.1590   44.7600 C   0  0  0  0  0  0  0  0  0  0  0  0
   57.4830   28.9430   45.6380 C   0  0  0  0  0  0  0  0  0  0  0  0
   58.7940   28.3350   45.9110 N   0  0  0  0  0  0  0  0  0  0  0  0
   59.4940   29.0890   46.9210 C   0  0  0  0  0  0  0  0  0  0  0  0
   58.9890   29.1590   48.2290 C   0  0  0  0  0  0  0  0  0  0  0  0
   59.6630   29.8920   49.2090 C   0  0  0  0  0  0  0  0  0  0  0  0
   60.8640   30.5520   48.9090 C   0  0  0  0  0  0  0  0  0  0  0  0
   61.5040   31.3430   49.9270 N   0  0  0  0  0  0  0  0  0  0  0  0
   62.8060   31.0750   50.4730 C   0  0  0  0  0  0  0  0  0  0  0  0
   63.1660   29.8540   50.7520 N   0  0  0  0  0  0  0  0  0  0  0  0
   63.6360   32.1850   50.8460 N   0  0  0  0  0  0  0  0  0  0  0  0
   65.0700   32.1970   50.6910 C   0  0  0  0  0  0  0  0  0  0  0  0
   65.6550   31.2150   50.1540 O   0  0  0  0  0  0  0  0  0  0  0  0
   65.8760   33.3530   51.1480 C   0  0  0  0  0  0  0  0  0  0  0  0
   65.2830   34.3400   51.9570 C   0  0  0  0  0  0  0  0  0  0  0  0
   66.0210   35.4470   52.3850 C   0  0  0  0  0  0  0  0  0  0  0  0
   67.3640   35.5750   52.0220 C   0  0  0  0  0  0  0  0  0  0  0  0
   67.9740   34.5910   51.2380 C   0  0  0  0  0  0  0  0  0  0  0  0
   67.2360   33.4850   50.8020 C   0  0  0  0  0  0  0  0  0  0  0  0
   61.3710   30.4810   47.5980 C   0  0  0  0  0  0  0  0  0  0  0  0
   60.7030   29.7420   46.6180 C   0  0  0  0  0  0  0  0  0  0  0  0
   58.1210   31.3660   45.2950 C   0  0  0  0  0  0  0  0  0  0  0  0
   58.8600   34.1410   47.3650 N   0  0  0  0  0  0  0  0  0  0  0  0
   59.6000   34.2500   48.5020 C   0  0  0  0  0  0  0  0  0  0  0  0
   61.6070   32.9870   51.4620 H   0  0  0  0  0  0  0  0  0  0  0  0
   62.6897   33.7278   47.1485 H   0  0  0  0  0  0  0  0  0  0  0  0
   61.2841   33.5223   45.0953 H   0  0  0  0  0  0  0  0  0  0  0  0
   57.7883   33.3686   42.5389 H   0  0  0  0  0  0  0  0  0  0  0  0
   56.9641   31.2211   41.5776 H   0  0  0  0  0  0  0  0  0  0  0  0
   56.8518   29.1743   42.9939 H   0  0  0  0  0  0  0  0  0  0  0  0
   57.0160   29.2404   46.5885 H   0  0  0  0  0  0  0  0  0  0  0  0
   56.8490   28.2083   45.1200 H   0  0  0  0  0  0  0  0  0  0  0  0
   59.3690   28.3170   45.0360 H   0  0  0  0  0  0  0  0  0  0  0  0
   58.6620   27.3460   46.2300 H   0  0  0  0  0  0  0  0  0  0  0  0
   58.0569   28.6335   48.4839 H   0  0  0  0  0  0  0  0  0  0  0  0
   59.2478   29.9522   50.2259 H   0  0  0  0  0  0  0  0  0  0  0  0
   61.0230   32.2130   50.2460 H   0  0  0  0  0  0  0  0  0  0  0  0
   64.1710   29.5660   50.7270 H   0  0  0  0  0  0  0  0  0  0  0  0
   62.4610   29.1080   50.9370 H   0  0  0  0  0  0  0  0  0  0  0  0
   63.1450   33.0520   51.1710 H   0  0  0  0  0  0  0  0  0  0  0  0
   64.2290   34.2393   52.2552 H   0  0  0  0  0  0  0  0  0  0  0  0
   65.5441   36.2180   53.0081 H   0  0  0  0  0  0  0  0  0  0  0  0
   67.9419   36.4504   52.3532 H   0  0  0  0  0  0  0  0  0  0  0  0
   69.0350   34.6864   50.9637 H   0  0  0  0  0  0  0  0  0  0  0  0
   67.7203   32.7136   50.1853 H   0  0  0  0  0  0  0  0  0  0  0  0
   62.3003   31.0113   47.3428 H   0  0  0  0  0  0  0  0  0  0  0  0
   61.1245   29.6704   45.6045 H   0  0  0  0  0  0  0  0  0  0  0  0
   58.4411   31.4089   46.3465 H   0  0  0  0  0  0  0  0  0  0  0  0
   59.1010   34.4522   49.4612 H   0  0  0  0  0  0  0  0  0  0  0  0
  1  2  1  0
  2  3  2  0
  2  4  1  0
  4  5  2  0
  5  6  1  0
  6  7  2  0
  7  8  1  0
  8  9  1  0
  9 10  2  0
 10 11  1  0
 11 12  2  0
 12 13  1  0
 13 14  1  0
 14 15  1  0
 15 16  1  0
 16 17  2  0
 17 18  1  0
 18 19  2  0
 19 20  1  0
 20 21  1  0
 21 22  2  0
 21 23  1  0
 23 24  1  0
 24 25  2  0
 24 26  1  0
 26 27  2  0
 27 28  1  0
 28 29  2  0
 29 30  1  0
 30 31  2  0
 19 32  1  0
 32 33  2  0
 13 34  2  0
  7 35  1  0
 35 36  2  0
 36  4  1  0
 34  9  1  0
 33 16  1  0
 31 26  1  0
  1 37  1  0
  5 38  1  0
  6 39  1  0
 10 40  1  0
 11 41  1  0
 12 42  1  0
 14 43  1  0
 14 44  1  0
 15 45  1  0
 15 46  1  0
 17 47  1  0
 18 48  1  0
 20 49  1  0
 22 50  1  0
 22 51  1  0
 23 52  1  0
 27 53  1  0
 28 54  1  0
 29 55  1  0
 30 56  1  0
 31 57  1  0
 32 58  1  0
 33 59  1  0
 34 60  1  0
 36 61  1  0
M  CHG  3   1  -1  15   1  22   1
M  END
>  <UniqueID>  (65) 
59

>  <SMILES>  (65) 
[NH-]C(=O)c1ccc(Oc2cccc(C[NH2+]c3ccc(NC(=[NH2+])NC(=O)c4ccccc4)cc3)c2)nc1

>  <Energy>  (65) 
82.25614184673809

>  <Genealogy>  (65) 
[NH-]C(=O)c1ccc(Oc2cccc(C[NH2+]c3ccc(NC(=[NH2+])NC(=O)c4ccccc4)cc3)c2)nc1 (protonated)
[NH-]C(=O)c1ccc(Oc2cccc(C[NH2+]c3ccc(NC(=[NH2+])NC(=O)c4ccccc4)cc3)c2)nc1 (3D coordinates assigned)
[NH-]C(=O)c1ccc(Oc2cccc(C[NH2+]c3ccc(NC(=[NH2+])NC(=O)c4ccccc4)cc3)c2)nc1 (optimized conformer: 82.25614184673809 kcal/mol)

>  <smiles>  (65) 
N=C(NC(=O)c1ccccc1)Nc1ccc(NCc2cccc(Oc3ccc(C(N)=O)cn3)c2)cc1

>  <score_type>  (65) 
oracle

>  <origin>  (65) 
adg

>  <m_score__min__energy>  (65) 
-9.6199999999999992

>  <m_primary>  (65) 
energy

$$$$
65:0
     RDKit          3D

 32 34  0  0  0  0  0  0  0  0999 V2000
   57.7730   28.2260   43.6690 C   0  0  0  0  0  0  0  0  0  0  0  0
   57.8440   27.8660   44.9600 C   0  0  0  0  0  0  0  0  0  0  0  0
   57.6630   26.5750   45.4720 C   0  0  0  0  0  0  0  0  0  0  0  0
   57.3080   25.4670   44.7910 C   0  0  0  0  0  0  0  0  0  0  0  0
   56.0510   24.7250   45.0350 C   0  0  0  0  0  0  0  0  0  0  0  0
   54.9530   25.3760   45.6180 C   0  0  0  0  0  0  0  0  0  0  0  0
   55.0430   26.7090   46.0040 O   0  0  0  0  0  0  0  0  0  0  0  0
   53.7920   24.7020   45.8190 N   0  0  0  0  0  0  0  0  0  0  0  0
   53.6640   23.4010   45.4520 C   0  0  0  0  0  0  0  0  0  0  0  0
   52.5800   22.7950   45.6530 O   0  0  0  0  0  0  0  0  0  0  0  0
   54.7020   22.7560   44.8620 N   0  0  0  0  0  0  0  0  0  0  0  0
   55.8830   23.3850   44.6360 C   0  0  0  0  0  0  0  0  0  0  0  0
   56.8120   22.7640   44.0540 O   0  0  0  0  0  0  0  0  0  0  0  0
   57.8860   26.6580   46.8410 C   0  0  0  0  0  0  0  0  0  0  0  0
   58.1890   27.9750   47.0990 C   0  0  0  0  0  0  0  0  0  0  0  0
   58.4620   28.4900   48.3600 O   0  0  0  0  0  0  0  0  0  0  0  0
   58.1630   28.7140   45.9710 N   0  0  0  0  0  0  0  0  0  0  0  0
   58.4010   30.1320   45.9030 C   0  0  0  0  0  0  0  0  0  0  0  0
   57.5460   30.9630   45.1620 C   0  0  0  0  0  0  0  0  0  0  0  0
   57.7710   32.3420   45.1140 C   0  0  0  0  0  0  0  0  0  0  0  0
   58.8470   32.9020   45.8110 C   0  0  0  0  0  0  0  0  0  0  0  0
   59.1280   34.6320   45.7500 Cl  0  0  0  0  0  0  0  0  0  0  0  0
   59.6960   32.0800   46.5600 C   0  0  0  0  0  0  0  0  0  0  0  0
   59.4720   30.7010   46.6110 C   0  0  0  0  0  0  0  0  0  0  0  0
   57.9337   29.2754   43.3810 H   0  0  0  0  0  0  0  0  0  0  0  0
   57.5541   27.4717   42.8989 H   0  0  0  0  0  0  0  0  0  0  0  0
   57.9894   25.0944   44.0120 H   0  0  0  0  0  0  0  0  0  0  0  0
   57.8313   25.8368   47.5709 H   0  0  0  0  0  0  0  0  0  0  0  0
   56.6956   30.5274   44.6169 H   0  0  0  0  0  0  0  0  0  0  0  0
   57.1010   32.9877   44.5273 H   0  0  0  0  0  0  0  0  0  0  0  0
   60.5413   32.5196   47.1098 H   0  0  0  0  0  0  0  0  0  0  0  0
   60.1370   30.0594   47.2078 H   0  0  0  0  0  0  0  0  0  0  0  0
  1  2  2  0
  2  3  1  0
  3  4  2  3
  4  5  1  0
  5  6  2  0
  6  7  1  0
  6  8  1  0
  8  9  1  0
  9 10  2  0
  9 11  1  0
 11 12  1  0
 12 13  2  0
  3 14  1  0
 14 15  2  0
 15 16  1  0
 15 17  1  0
 17 18  1  0
 18 19  2  0
 19 20  1  0
 20 21  2  0
 21 22  1  0
 21 23  1  0
 23 24  2  0
 17  2  1  0
 24 18  1  0
 12  5  1  0
  1 25  1  0
  1 26  1  0
  4 27  1  0
 14 28  1  0
 19 29  1  0
 20 30  1  0
 23 31  1  0
 24 32  1  0
M  CHG  4   7  -1   8  -1  11  -1  16  -1
M  END
>  <UniqueID>  (66) 
60

>  <SMILES>  (66) 
C=c1c(=Cc2c([O-])[n-]c(=O)[n-]c2=O)cc([O-])n1-c1ccc(Cl)cc1

>  <Energy>  (66) 
81.87590116459403

>  <Genealogy>  (66) 
C=c1c(=Cc2c([O-])[n-]c(=O)[n-]c2=O)cc([O-])n1-c1ccc(Cl)cc1 (protonated)
C=c1c(=Cc2c([O-])[n-]c(=O)[n-]c2=O)cc([O-])n1-c1ccc(Cl)cc1 (3D coordinates assigned)
C=c1c(=Cc2c([O-])[n-]c(=O)[n-]c2=O)cc([O-])n1-c1ccc(Cl)cc1 (optimized conformer: 81.87590116459403 kcal/mol)

>  <smiles>  (66) 
C=c1c(=Cc2c(O)[nH]c(=O)[nH]c2=O)cc(O)n1-c1ccc(Cl)cc1

>  <score_type>  (66) 
oracle

>  <origin>  (66) 
adg

>  <m_score__min__energy>  (66) 
-16.23

>  <m_primary>  (66) 
energy

$$$$
66:0
     RDKit          3D

 48 51  0  0  0  0  0  0  0  0999 V2000
   59.7130   27.9230   46.5340 C   0  0  0  0  0  0  0  0  0  0  0  0
   58.8570   28.7410   45.8970 C   0  0  0  0  0  0  0  0  0  0  0  0
   57.8630   28.3800   44.9720 C   0  0  0  0  0  0  0  0  0  0  0  0
   57.3960   27.1730   44.5990 C   0  0  0  0  0  0  0  0  0  0  0  0
   57.0820   26.0600   45.5070 C   0  0  0  0  0  0  0  0  0  0  0  0
   58.1930   24.9410   46.1130 S   0  0  0  0  0  0  0  0  0  0  0  0
   57.0680   24.2750   47.1690 C   0  0  0  0  0  0  0  0  0  0  0  0
   57.3050   23.3110   47.9420 O   0  0  0  0  0  0  0  0  0  0  0  0
   55.8690   24.8940   47.1120 N   0  0  0  0  0  0  0  0  0  0  0  0
   55.8850   25.9010   46.2000 C   0  0  0  0  0  0  0  0  0  0  0  0
   54.7780   26.7150   45.9930 O   0  0  0  0  0  0  0  0  0  0  0  0
   57.3700   29.5660   44.4510 C   0  0  0  0  0  0  0  0  0  0  0  0
   58.0210   30.5930   45.1040 C   0  0  0  0  0  0  0  0  0  0  0  0
   57.8040   32.0530   44.8370 C   0  0  0  0  0  0  0  0  0  0  0  0
   58.9140   30.0950   45.9870 N   0  0  0  0  0  0  0  0  0  0  0  0
   59.8180   30.8780   46.7840 C   0  0  0  0  0  0  0  0  0  0  0  0
   61.2010   30.7100   46.6460 C   0  0  0  0  0  0  0  0  0  0  0  0
   62.0800   31.4710   47.4180 C   0  0  0  0  0  0  0  0  0  0  0  0
   61.5890   32.4090   48.3330 C   0  0  0  0  0  0  0  0  0  0  0  0
   62.7500   33.3780   49.2350 Cl  0  0  0  0  0  0  0  0  0  0  0  0
   60.1960   32.5850   48.4810 C   0  0  0  0  0  0  0  0  0  0  0  0
   59.6370   33.5540   49.4530 C   0  0  0  0  0  0  0  0  0  0  0  0
   59.7060   34.7850   49.1890 O   0  0  0  0  0  0  0  0  0  0  0  0
   59.0360   33.1240   50.6930 N   0  0  0  0  0  0  0  0  0  0  0  0
   58.5560   31.7470   50.8730 C   0  0  0  0  0  0  0  0  0  0  0  0
   57.3390   31.7380   51.8030 C   0  0  0  0  0  0  0  0  0  0  0  0
   57.6260   32.4250   53.0070 O   0  0  0  0  0  0  0  0  0  0  0  0
   57.8430   33.7960   52.7340 C   0  0  0  0  0  0  0  0  0  0  0  0
   59.1000   33.9870   51.8790 C   0  0  0  0  0  0  0  0  0  0  0  0
   59.3200   31.8020   47.7110 C   0  0  0  0  0  0  0  0  0  0  0  0
   60.4484   28.3377   47.2392 H   0  0  0  0  0  0  0  0  0  0  0  0
   59.6780   26.8391   46.3500 H   0  0  0  0  0  0  0  0  0  0  0  0
   57.2359   27.0057   43.5236 H   0  0  0  0  0  0  0  0  0  0  0  0
   56.6057   29.6691   43.6667 H   0  0  0  0  0  0  0  0  0  0  0  0
   57.7238   32.5925   45.7923 H   0  0  0  0  0  0  0  0  0  0  0  0
   58.6529   32.4506   44.2615 H   0  0  0  0  0  0  0  0  0  0  0  0
   56.8761   32.1866   44.2615 H   0  0  0  0  0  0  0  0  0  0  0  0
   61.5957   29.9766   45.9275 H   0  0  0  0  0  0  0  0  0  0  0  0
   63.1656   31.3326   47.3065 H   0  0  0  0  0  0  0  0  0  0  0  0
   58.2719   31.3289   49.8960 H   0  0  0  0  0  0  0  0  0  0  0  0
   59.3572   31.1388   51.3182 H   0  0  0  0  0  0  0  0  0  0  0  0
   56.4948   32.2306   51.2983 H   0  0  0  0  0  0  0  0  0  0  0  0
   57.0837   30.6951   52.0423 H   0  0  0  0  0  0  0  0  0  0  0  0
   56.9739   34.1981   52.1927 H   0  0  0  0  0  0  0  0  0  0  0  0
   57.9798   34.3284   53.6868 H   0  0  0  0  0  0  0  0  0  0  0  0
   59.1685   35.0380   51.5616 H   0  0  0  0  0  0  0  0  0  0  0  0
   59.9856   33.7186   52.4737 H   0  0  0  0  0  0  0  0  0  0  0  0
   58.2332   31.9157   47.8373 H   0  0  0  0  0  0  0  0  0  0  0  0
  1  2  2  0
  2  3  1  0
  3  4  2  3
  4  5  1  0
  5  6  1  0
  6  7  1  0
  7  8  2  0
  7  9  1  0
  9 10  1  0
 10 11  1  0
  3 12  1  0
 12 13  2  0
 13 14  1  0
 13 15  1  0
 15 16  1  0
 16 17  2  0
 17 18  1  0
 18 19  2  0
 19 20  1  0
 19 21  1  0
 21 22  1  0
 22 23  2  0
 22 24  1  0
 24 25  1  0
 25 26  1  0
 26 27  1  0
 27 28  1  0
 28 29  1  0
 21 30  2  0
 15  2  1  0
 30 16  1  0
 10  5  2  0
 29 24  1  0
  1 31  1  0
  1 32  1  0
  4 33  1  0
 12 34  1  0
 14 35  1  0
 14 36  1  0
 14 37  1  0
 17 38  1  0
 18 39  1  0
 25 40  1  0
 25 41  1  0
 26 42  1  0
 26 43  1  0
 28 44  1  0
 28 45  1  0
 29 46  1  0
 29 47  1  0
 30 48  1  0
M  CHG  2   9  -1  11  -1
M  END
>  <UniqueID>  (67) 
61

>  <SMILES>  (67) 
C=c1c(=Cc2sc(=O)[n-]c2[O-])cc(C)n1-c1ccc(Cl)c(C(=O)N2CCOCC2)c1

>  <Energy>  (67) 
136.64370235385215

>  <Genealogy>  (67) 
C=c1c(=Cc2sc(=O)[n-]c2[O-])cc(C)n1-c1ccc(Cl)c(C(=O)N2CCOCC2)c1 (protonated)
C=c1c(=Cc2sc(=O)[n-]c2[O-])cc(C)n1-c1ccc(Cl)c(C(=O)N2CCOCC2)c1 (3D coordinates assigned)
C=c1c(=Cc2sc(=O)[n-]c2[O-])cc(C)n1-c1ccc(Cl)c(C(=O)N2CCOCC2)c1 (nonaromatic ring conformer: 136.64370235385215 kcal/mol)

>  <smiles>  (67) 
C=c1c(=Cc2sc(=O)[nH]c2O)cc(C)n1-c1ccc(Cl)c(C(=O)N2CCOCC2)c1

>  <score_type>  (67) 
oracle

>  <origin>  (67) 
adg

>  <m_score__min__energy>  (67) 
-15.27

>  <m_primary>  (67) 
energy

$$$$
67:0
     RDKit          3D

 43 45  0  0  0  0  0  0  0  0999 V2000
   56.8510   29.2580   42.8360 N   0  0  0  0  0  0  0  0  0  0  0  0
   56.4960   29.8390   44.4250 S   0  0  0  0  0  0  0  0  0  0  0  0
   55.1410   29.3440   44.8490 O   0  0  0  0  0  0  0  0  0  0  0  0
   56.4760   31.3420   44.4150 O   0  0  0  0  0  0  0  0  0  0  0  0
   57.7190   29.2630   45.5520 C   0  0  0  0  0  0  0  0  0  0  0  0
   57.8840   27.8890   45.7740 C   0  0  0  0  0  0  0  0  0  0  0  0
   58.8390   27.4360   46.6860 C   0  0  0  0  0  0  0  0  0  0  0  0
   59.6380   28.3490   47.3790 C   0  0  0  0  0  0  0  0  0  0  0  0
   59.4920   29.7270   47.1550 C   0  0  0  0  0  0  0  0  0  0  0  0
   60.3110   30.7030   47.8990 C   0  0  0  0  0  0  0  0  0  0  0  0
   61.5520   30.7420   47.6950 O   0  0  0  0  0  0  0  0  0  0  0  0
   59.7440   31.5900   48.8720 N   0  0  0  0  0  0  0  0  0  0  0  0
   58.5450   32.3940   48.6730 C   0  0  0  0  0  0  0  0  0  0  0  0
   58.7340   33.2730   47.4620 C   0  0  0  0  0  0  0  0  0  0  0  0
   57.8060   33.1610   46.4090 C   0  0  0  0  0  0  0  0  0  0  0  0
   57.8980   33.9860   45.2880 C   0  0  0  0  0  0  0  0  0  0  0  0
   58.9070   34.9420   45.2050 C   0  0  0  0  0  0  0  0  0  0  0  0
   59.8280   35.0810   46.2450 C   0  0  0  0  0  0  0  0  0  0  0  0
   59.7590   34.2550   47.3820 C   0  0  0  0  0  0  0  0  0  0  0  0
   60.7740   34.4610   48.4870 C   0  0  0  0  0  0  0  0  0  0  0  0
   62.0390   33.8030   48.1680 N   0  0  0  0  0  0  0  0  0  0  0  0
   62.8430   33.1590   49.0370 C   0  0  0  0  0  0  0  0  0  0  0  0
   63.9520   32.7150   48.3510 C   0  0  0  0  0  0  0  0  0  0  0  0
   63.7580   33.1430   47.0510 C   0  0  0  0  0  0  0  0  0  0  0  0
   62.5900   33.8100   46.9650 N   0  0  0  0  0  0  0  0  0  0  0  0
   58.5150   30.1790   46.2550 C   0  0  0  0  0  0  0  0  0  0  0  0
   57.8830   29.3570   42.7000 H   0  0  0  0  0  0  0  0  0  0  0  0
   56.6440   28.2350   42.8330 H   0  0  0  0  0  0  0  0  0  0  0  0
   57.2597   27.1660   45.2285 H   0  0  0  0  0  0  0  0  0  0  0  0
   58.9628   26.3569   46.8596 H   0  0  0  0  0  0  0  0  0  0  0  0
   60.3836   27.9869   48.1022 H   0  0  0  0  0  0  0  0  0  0  0  0
   57.6801   31.7326   48.5164 H   0  0  0  0  0  0  0  0  0  0  0  0
   58.3675   33.0196   49.5602 H   0  0  0  0  0  0  0  0  0  0  0  0
   57.0000   32.4150   46.4710 H   0  0  0  0  0  0  0  0  0  0  0  0
   57.1722   33.8812   44.4681 H   0  0  0  0  0  0  0  0  0  0  0  0
   58.9786   35.5890   44.3183 H   0  0  0  0  0  0  0  0  0  0  0  0
   60.6164   35.8448   46.1747 H   0  0  0  0  0  0  0  0  0  0  0  0
   60.9519   35.5389   48.6151 H   0  0  0  0  0  0  0  0  0  0  0  0
   60.3757   34.0223   49.4138 H   0  0  0  0  0  0  0  0  0  0  0  0
   62.6473   33.0130   50.1096 H   0  0  0  0  0  0  0  0  0  0  0  0
   64.8043   32.1453   48.7499 H   0  0  0  0  0  0  0  0  0  0  0  0
   64.4507   32.9663   46.2149 H   0  0  0  0  0  0  0  0  0  0  0  0
   58.3725   31.2586   46.0999 H   0  0  0  0  0  0  0  0  0  0  0  0
  1  2  1  0
  2  3  2  0
  2  4  2  0
  2  5  1  0
  5  6  2  0
  6  7  1  0
  7  8  2  0
  8  9  1  0
  9 10  1  0
 10 11  2  0
 10 12  1  0
 12 13  1  0
 13 14  1  0
 14 15  2  0
 15 16  1  0
 16 17  2  0
 17 18  1  0
 18 19  2  0
 19 20  1  0
 20 21  1  0
 21 22  1  0
 22 23  2  0
 23 24  1  0
 24 25  2  0
  9 26  2  0
 26  5  1  0
 19 14  1  0
 25 21  1  0
  1 27  1  0
  1 28  1  0
  6 29  1  0
  7 30  1  0
  8 31  1  0
 13 32  1  0
 13 33  1  0
 15 34  1  0
 16 35  1  0
 17 36  1  0
 18 37  1  0
 20 38  1  0
 20 39  1  0
 22 40  1  0
 23 41  1  0
 24 42  1  0
 26 43  1  0
M  CHG  1  12  -1
M  END
>  <UniqueID>  (68) 
62

>  <SMILES>  (68) 
NS(=O)(=O)c1cccc(C(=O)[N-]Cc2ccccc2Cn2cccn2)c1

>  <Energy>  (68) 
75.90690234187251

>  <Genealogy>  (68) 
NS(=O)(=O)c1cccc(C(=O)[N-]Cc2ccccc2Cn2cccn2)c1 (protonated)
NS(=O)(=O)c1cccc(C(=O)[N-]Cc2ccccc2Cn2cccn2)c1 (3D coordinates assigned)
NS(=O)(=O)c1cccc(C(=O)[N-]Cc2ccccc2Cn2cccn2)c1 (optimized conformer: 75.90690234187251 kcal/mol)

>  <smiles>  (68) 
NS(=O)(=O)c1cccc(C(=O)NCc2ccccc2Cn2cccn2)c1

>  <score_type>  (68) 
oracle

>  <origin>  (68) 
adg

>  <m_score__min__energy>  (68) 
-10.460000000000001

>  <m_primary>  (68) 
energy

$$$$
68:0
     RDKit          3D

 42 44  0  0  0  0  0  0  0  0999 V2000
   57.1680   25.8490   47.0610 C   0  0  0  0  0  0  0  0  0  0  0  0
   57.3100   27.1070   46.3390 N   0  0  0  0  0  0  0  0  0  0  0  0
   56.3370   27.6690   45.6410 N   0  0  0  0  0  0  0  0  0  0  0  0
   56.8230   28.8180   45.1250 C   0  0  0  0  0  0  0  0  0  0  0  0
   56.0440   29.7230   44.2710 C   0  0  0  0  0  0  0  0  0  0  0  0
   54.8200   29.4920   44.0710 O   0  0  0  0  0  0  0  0  0  0  0  0
   56.6940   30.8580   43.6740 N   0  0  0  0  0  0  0  0  0  0  0  0
   57.2330   31.8680   44.2960 C   0  0  0  0  0  0  0  0  0  0  0  0
   58.1480   32.6810   43.6160 C   0  0  0  0  0  0  0  0  0  0  0  0
   58.7310   33.7630   44.2780 C   0  0  0  0  0  0  0  0  0  0  0  0
   58.4000   34.0250   45.6090 C   0  0  0  0  0  0  0  0  0  0  0  0
   57.4880   33.1920   46.2610 C   0  0  0  0  0  0  0  0  0  0  0  0
   56.9300   32.1440   45.5980 N   0  0  0  0  0  0  0  0  0  0  0  0
   58.1430   28.9990   45.5090 C   0  0  0  0  0  0  0  0  0  0  0  0
   58.4120   27.8830   46.2860 C   0  0  0  0  0  0  0  0  0  0  0  0
   59.5330   27.5680   46.8720 N   0  0  0  0  0  0  0  0  0  0  0  0
   60.1380   28.1880   48.0200 C   0  0  0  0  0  0  0  0  0  0  0  0
   60.7250   27.4910   48.8910 O   0  0  0  0  0  0  0  0  0  0  0  0
   60.0990   29.6630   48.1660 C   0  0  0  0  0  0  0  0  0  0  0  0
   58.9380   30.3010   48.6380 C   0  0  0  0  0  0  0  0  0  0  0  0
   58.8940   31.6930   48.7570 C   0  0  0  0  0  0  0  0  0  0  0  0
   60.0050   32.4630   48.4130 C   0  0  0  0  0  0  0  0  0  0  0  0
   61.1740   31.8450   47.9530 C   0  0  0  0  0  0  0  0  0  0  0  0
   62.5740   32.8120   47.4990 S   0  0  0  0  0  0  0  0  0  0  0  0
   63.8560   31.7710   46.9910 N   0  0  0  0  0  0  0  0  0  0  0  0
   63.0270   33.6300   48.6770 O   0  0  0  0  0  0  0  0  0  0  0  0
   62.2120   33.7430   46.3760 O   0  0  0  0  0  0  0  0  0  0  0  0
   61.2160   30.4490   47.8230 C   0  0  0  0  0  0  0  0  0  0  0  0
   57.1899   26.0430   48.1435 H   0  0  0  0  0  0  0  0  0  0  0  0
   56.2110   25.3780   46.7922 H   0  0  0  0  0  0  0  0  0  0  0  0
   57.9959   25.1765   46.7922 H   0  0  0  0  0  0  0  0  0  0  0  0
   58.4055   32.4687   42.5679 H   0  0  0  0  0  0  0  0  0  0  0  0
   59.4500   34.4082   43.7519 H   0  0  0  0  0  0  0  0  0  0  0  0
   58.8521   34.8772   46.1376 H   0  0  0  0  0  0  0  0  0  0  0  0
   57.2211   33.3837   47.3108 H   0  0  0  0  0  0  0  0  0  0  0  0
   58.8170   29.8310   45.2568 H   0  0  0  0  0  0  0  0  0  0  0  0
   58.0589   29.7007   48.9153 H   0  0  0  0  0  0  0  0  0  0  0  0
   57.9798   32.1830   49.1233 H   0  0  0  0  0  0  0  0  0  0  0  0
   59.9626   33.5585   48.5033 H   0  0  0  0  0  0  0  0  0  0  0  0
   64.4820   32.3340   46.3740 H   0  0  0  0  0  0  0  0  0  0  0  0
   64.4100   31.5330   47.8430 H   0  0  0  0  0  0  0  0  0  0  0  0
   62.1299   29.9637   47.4497 H   0  0  0  0  0  0  0  0  0  0  0  0
  1  2  1  0
  2  3  1  0
  3  4  1  0
  4  5  1  0
  5  6  2  0
  5  7  1  0
  7  8  2  3
  8  9  1  0
  9 10  2  0
 10 11  1  0
 11 12  2  0
 12 13  1  0
  4 14  2  0
 14 15  1  0
 15 16  2  3
 16 17  1  0
 17 18  2  0
 17 19  1  0
 19 20  2  0
 20 21  1  0
 21 22  2  0
 22 23  1  0
 23 24  1  0
 24 25  1  0
 24 26  2  0
 24 27  2  0
 23 28  2  0
 15  2  1  0
 28 19  1  0
 13  8  1  0
  1 29  1  0
  1 30  1  0
  1 31  1  0
  9 32  1  0
 10 33  1  0
 11 34  1  0
 12 35  1  0
 14 36  1  0
 20 37  1  0
 21 38  1  0
 22 39  1  0
 25 40  1  0
 25 41  1  0
 28 42  1  0
M  CHG  2   3  -1  13  -1
M  END
>  <UniqueID>  (69) 
63

>  <SMILES>  (69) 
Cn1[n-]c(C(=O)N=c2cccc[n-]2)cc1=NC(=O)c1cccc(S(N)(=O)=O)c1

>  <Energy>  (69) 
80.80215753139478

>  <Genealogy>  (69) 
Cn1[n-]c(C(=O)N=c2cccc[n-]2)cc1=NC(=O)c1cccc(S(N)(=O)=O)c1 (protonated)
Cn1[n-]c(C(=O)N=c2cccc[n-]2)cc1=NC(=O)c1cccc(S(N)(=O)=O)c1 (3D coordinates assigned)
Cn1[n-]c(C(=O)N=c2cccc[n-]2)cc1=NC(=O)c1cccc(S(N)(=O)=O)c1 (optimized conformer: 80.80215753139478 kcal/mol)

>  <smiles>  (69) 
Cn1[nH]c(C(=O)N=c2cccc[nH]2)cc1=NC(=O)c1cccc(S(N)(=O)=O)c1

>  <score_type>  (69) 
oracle

>  <origin>  (69) 
adg

>  <m_score__min__energy>  (69) 
-12.35

>  <m_primary>  (69) 
energy

$$$$
69:0
     RDKit          3D

 42 43  0  0  0  0  0  0  0  0999 V2000
   60.3786   26.6234   49.1688 H   0  0  0  0  0  0  0  0  0  0  0  0
   60.6830   27.5610   49.6570 C   0  0  0  0  0  0  0  0  0  0  0  0
   60.9393   27.5661   50.7267 H   0  0  0  0  0  0  0  0  0  0  0  0
   60.7420   28.7060   48.9430 C   0  0  0  0  0  0  0  0  0  0  0  0
   60.3800   28.7990   47.5600 C   0  0  0  0  0  0  0  0  0  0  0  0
   59.9800   27.7030   46.8460 C   0  0  0  0  0  0  0  0  0  0  0  0
   60.7689   27.0253   46.4878 H   0  0  0  0  0  0  0  0  0  0  0  0
   58.5840   27.3450   46.5110 C   0  0  0  0  0  0  0  0  0  0  0  0
   58.0600   26.1230   46.9520 C   0  0  0  0  0  0  0  0  0  0  0  0
   58.6990   25.4222   47.5093 H   0  0  0  0  0  0  0  0  0  0  0  0
   56.7300   25.7910   46.6870 C   0  0  0  0  0  0  0  0  0  0  0  0
   56.3293   24.8230   47.0222 H   0  0  0  0  0  0  0  0  0  0  0  0
   55.9060   26.6850   45.9970 C   0  0  0  0  0  0  0  0  0  0  0  0
   54.5860   26.3380   45.7360 O   0  0  0  0  0  0  0  0  0  0  0  0
   56.4020   27.9270   45.5750 C   0  0  0  0  0  0  0  0  0  0  0  0
   55.5330   28.7920   44.8880 O   0  0  0  0  0  0  0  0  0  0  0  0
   55.9090   30.0080   44.2400 C   0  0  0  0  0  0  0  0  0  0  0  0
   55.0606   30.7077   44.2656 H   0  0  0  0  0  0  0  0  0  0  0  0
   56.7741   30.4362   44.7676 H   0  0  0  0  0  0  0  0  0  0  0  0
   56.3000   29.7490   42.7890 C   0  0  0  0  0  0  0  0  0  0  0  0
   57.2167   29.1418   42.7591 H   0  0  0  0  0  0  0  0  0  0  0  0
   55.4867   29.2104   42.2806 H   0  0  0  0  0  0  0  0  0  0  0  0
   56.4787   30.7080   42.2806 H   0  0  0  0  0  0  0  0  0  0  0  0
   57.7450   28.2570   45.8480 C   0  0  0  0  0  0  0  0  0  0  0  0
   58.1396   29.2364   45.5396 H   0  0  0  0  0  0  0  0  0  0  0  0
   60.4950   30.0830   46.9510 C   0  0  0  0  0  0  0  0  0  0  0  0
   60.3260   30.2110   45.7060 O   0  0  0  0  0  0  0  0  0  0  0  0
   60.8400   31.1860   47.6890 N   0  0  0  0  0  0  0  0  0  0  0  0
   60.8620   32.5290   47.0670 C   0  0  0  0  0  0  0  0  0  0  0  0
   61.3755   33.2283   47.7432 H   0  0  0  0  0  0  0  0  0  0  0  0
   61.3910   32.4565   46.1053 H   0  0  0  0  0  0  0  0  0  0  0  0
   59.4400   33.0460   46.7990 C   0  0  0  0  0  0  0  0  0  0  0  0
   59.1247   32.7096   45.8003 H   0  0  0  0  0  0  0  0  0  0  0  0
   58.7846   32.6452   47.5863 H   0  0  0  0  0  0  0  0  0  0  0  0
   59.3520   34.5690   46.8530 C   0  0  0  0  0  0  0  0  0  0  0  0
   59.3330   34.8982   47.9024 H   0  0  0  0  0  0  0  0  0  0  0  0
   60.2265   35.0050   46.3478 H   0  0  0  0  0  0  0  0  0  0  0  0
   58.4332   34.9013   46.3478 H   0  0  0  0  0  0  0  0  0  0  0  0
   61.1520   31.0520   49.0130 C   0  0  0  0  0  0  0  0  0  0  0  0
   61.4730   32.0610   49.7010 O   0  0  0  0  0  0  0  0  0  0  0  0
   61.1260   29.8340   49.6050 N   0  0  0  0  0  0  0  0  0  0  0  0
   61.3850   29.7860   50.6180 H   0  0  0  0  0  0  0  0  0  0  0  0
  1  2  1  0
  2  3  1  0
  2  4  2  0
  4  5  1  0
  5  6  2  0
  6  7  1  0
  6  8  1  0
  8  9  2  0
  9 10  1  0
  9 11  1  0
 11 12  1  0
 11 13  2  0
 13 14  1  0
 13 15  1  0
 15 16  1  0
 16 17  1  0
 17 18  1  0
 17 19  1  0
 17 20  1  0
 20 21  1  0
 20 22  1  0
 20 23  1  0
 15 24  2  0
 24 25  1  0
  5 26  1  0
 26 27  2  0
 26 28  1  0
 28 29  1  0
 29 30  1  0
 29 31  1  0
 29 32  1  0
 32 33  1  0
 32 34  1  0
 32 35  1  0
 35 36  1  0
 35 37  1  0
 35 38  1  0
 28 39  1  0
 39 40  2  0
 39 41  1  0
 41 42  1  0
 41  4  1  0
 24  8  1  0
M  CHG  1  14  -1
M  END
>  <UniqueID>  (70) 
64

>  <SMILES>  (70) 
C=c1[nH]c(=O)n(CCC)c(=O)/c1=C\c1ccc([O-])c(OCC)c1

>  <Energy>  (70) 
61.17722131576686

>  <Genealogy>  (70) 
C=c1[nH]c(=O)n(CCC)c(=O)c1=Cc1ccc([O-])c(OCC)c1 (protonated)
C=c1[nH]c(=O)n(CCC)c(=O)/c1=C\c1ccc([O-])c(OCC)c1 (cis-trans isomerization)
C=c1[nH]c(=O)n(CCC)c(=O)/c1=C\c1ccc([O-])c(OCC)c1 (3D coordinates assigned)
C=c1[nH]c(=O)n(CCC)c(=O)/c1=C\c1ccc([O-])c(OCC)c1 (optimized conformer: 61.17722131576686 kcal/mol)

>  <smiles>  (70) 
C=c1[nH]c(=O)n(CCC)c(=O)c1=Cc1ccc(O)c(OCC)c1

>  <score_type>  (70) 
oracle

>  <origin>  (70) 
adg

>  <m_score__min__energy>  (70) 
-10.34

>  <m_primary>  (70) 
energy

$$$$
70:0
     RDKit          3D

 49 51  0  0  0  0  0  0  0  0999 V2000
   63.3750   33.7840   48.6470 C   0  0  0  0  0  0  0  0  0  0  0  0
   62.6580   33.8390   47.3320 C   0  0  0  0  0  0  0  0  0  0  0  0
   63.3120   34.1840   46.3100 O   0  0  0  0  0  0  0  0  0  0  0  0
   61.2140   33.5020   47.2080 C   0  0  0  0  0  0  0  0  0  0  0  0
   60.2190   34.4890   47.3410 C   0  0  0  0  0  0  0  0  0  0  0  0
   58.8680   34.1530   47.2440 C   0  0  0  0  0  0  0  0  0  0  0  0
   58.4890   32.8330   47.0020 C   0  0  0  0  0  0  0  0  0  0  0  0
   59.4590   31.8340   46.8390 C   0  0  0  0  0  0  0  0  0  0  0  0
   59.0420   30.4770   46.6070 N   0  0  0  0  0  0  0  0  0  0  0  0
   58.0450   30.1040   45.6410 C   0  0  0  0  0  0  0  0  0  0  0  0
   57.2120   30.9610   45.2390 O   0  0  0  0  0  0  0  0  0  0  0  0
   57.9470   28.7070   45.1490 C   0  0  0  0  0  0  0  0  0  0  0  0
   57.5380   27.6780   46.0140 C   0  0  0  0  0  0  0  0  0  0  0  0
   57.4450   26.3600   45.5580 C   0  0  0  0  0  0  0  0  0  0  0  0
   57.7640   26.0460   44.2290 C   0  0  0  0  0  0  0  0  0  0  0  0
   57.6350   24.6350   43.7340 C   0  0  0  0  0  0  0  0  0  0  0  0
   56.2840   24.4290   43.2200 N   0  0  0  0  0  0  0  0  0  0  0  0
   55.5440   23.0840   44.0320 S   0  0  0  0  0  0  0  0  0  0  0  0
   54.0510   23.2460   43.9930 O   0  0  0  0  0  0  0  0  0  0  0  0
   55.8920   21.8190   43.2990 O   0  0  0  0  0  0  0  0  0  0  0  0
   56.0820   23.0140   45.7290 C   0  0  0  0  0  0  0  0  0  0  0  0
   56.9650   22.0070   46.1770 C   0  0  0  0  0  0  0  0  0  0  0  0
   57.5230   20.9600   45.2560 C   0  0  0  0  0  0  0  0  0  0  0  0
   57.3500   21.9840   47.4800 N   0  0  0  0  0  0  0  0  0  0  0  0
   56.8920   22.8980   48.3710 C   0  0  0  0  0  0  0  0  0  0  0  0
   57.2660   22.8490   49.5710 O   0  0  0  0  0  0  0  0  0  0  0  0
   56.0280   23.8610   47.9690 N   0  0  0  0  0  0  0  0  0  0  0  0
   55.6100   23.9400   46.6810 C   0  0  0  0  0  0  0  0  0  0  0  0
   54.7980   24.8460   46.3590 O   0  0  0  0  0  0  0  0  0  0  0  0
   58.1430   27.0740   43.3540 C   0  0  0  0  0  0  0  0  0  0  0  0
   58.2380   28.3920   43.8080 C   0  0  0  0  0  0  0  0  0  0  0  0
   60.8190   32.1720   46.9610 C   0  0  0  0  0  0  0  0  0  0  0  0
   62.6431   33.8401   49.4663 H   0  0  0  0  0  0  0  0  0  0  0  0
   63.9353   32.8402   48.7199 H   0  0  0  0  0  0  0  0  0  0  0  0
   64.0727   34.6313   48.7199 H   0  0  0  0  0  0  0  0  0  0  0  0
   60.5090   35.5344   47.5230 H   0  0  0  0  0  0  0  0  0  0  0  0
   58.0997   34.9318   47.3588 H   0  0  0  0  0  0  0  0  0  0  0  0
   57.4218   32.5739   46.9386 H   0  0  0  0  0  0  0  0  0  0  0  0
   59.3860   29.7410   47.2650 H   0  0  0  0  0  0  0  0  0  0  0  0
   57.2887   27.9118   47.0596 H   0  0  0  0  0  0  0  0  0  0  0  0
   57.1199   25.5649   46.2452 H   0  0  0  0  0  0  0  0  0  0  0  0
   58.3653   24.4586   42.9306 H   0  0  0  0  0  0  0  0  0  0  0  0
   57.8274   23.9342   44.5598 H   0  0  0  0  0  0  0  0  0  0  0  0
   57.9583   20.1432   45.8504 H   0  0  0  0  0  0  0  0  0  0  0  0
   56.7171   20.5626   44.6215 H   0  0  0  0  0  0  0  0  0  0  0  0
   58.3023   21.4074   44.6215 H   0  0  0  0  0  0  0  0  0  0  0  0
   58.3672   26.8412   42.3026 H   0  0  0  0  0  0  0  0  0  0  0  0
   58.5421   29.1887   43.1132 H   0  0  0  0  0  0  0  0  0  0  0  0
   61.5842   31.3879   46.8623 H   0  0  0  0  0  0  0  0  0  0  0  0
  1  2  1  0
  2  3  2  0
  2  4  1  0
  4  5  2  0
  5  6  1  0
  6  7  2  0
  7  8  1  0
  8  9  1  0
  9 10  1  0
 10 11  2  0
 10 12  1  0
 12 13  2  0
 13 14  1  0
 14 15  2  0
 15 16  1  0
 16 17  1  0
 17 18  1  0
 18 19  2  0
 18 20  2  0
 18 21  1  0
 21 22  2  0
 22 23  1  0
 22 24  1  0
 24 25  1  0
 25 26  2  0
 25 27  1  0
 27 28  1  0
 28 29  2  0
 15 30  1  0
 30 31  2  0
  8 32  2  0
 32  4  1  0
 31 12  1  0
 28 21  1  0
  1 33  1  0
  1 34  1  0
  1 35  1  0
  5 36  1  0
  6 37  1  0
  7 38  1  0
  9 39  1  0
 13 40  1  0
 14 41  1  0
 16 42  1  0
 16 43  1  0
 23 44  1  0
 23 45  1  0
 23 46  1  0
 30 47  1  0
 31 48  1  0
 32 49  1  0
M  CHG  3  17  -1  24  -1  27  -1
M  END
>  <UniqueID>  (71) 
65

>  <SMILES>  (71) 
CC(=O)c1cccc(NC(=O)c2ccc(C[N-]S(=O)(=O)c3c(C)[n-]c(=O)[n-]c3=O)cc2)c1

>  <Energy>  (71) 
58.515494208531855

>  <Genealogy>  (71) 
CC(=O)c1cccc(NC(=O)c2ccc(C[N-]S(=O)(=O)c3c(C)[n-]c(=O)[n-]c3=O)cc2)c1 (protonated)
CC(=O)c1cccc(NC(=O)c2ccc(C[N-]S(=O)(=O)c3c(C)[n-]c(=O)[n-]c3=O)cc2)c1 (3D coordinates assigned)
CC(=O)c1cccc(NC(=O)c2ccc(C[N-]S(=O)(=O)c3c(C)[n-]c(=O)[n-]c3=O)cc2)c1 (optimized conformer: 58.515494208531855 kcal/mol)

>  <smiles>  (71) 
CC(=O)c1cccc(NC(=O)c2ccc(CNS(=O)(=O)c3c(C)[nH]c(=O)[nH]c3=O)cc2)c1

>  <score_type>  (71) 
oracle

>  <origin>  (71) 
adg

>  <m_score__min__energy>  (71) 
-14.43

>  <m_primary>  (71) 
energy

$$$$
71:0
     RDKit          3D

 32 33  0  0  0  0  0  0  0  0999 V2000
   61.0860   27.2900   47.4160 H   0  0  0  0  0  0  0  0  0  0  0  0
   60.6500   26.7990   46.6450 O   0  0  0  0  0  0  0  0  0  0  0  0
   59.2690   26.7940   46.4720 C   0  0  0  0  0  0  0  0  0  0  0  0
   58.5080   25.7620   47.0260 C   0  0  0  0  0  0  0  0  0  0  0  0
   59.0027   24.9574   47.5897 H   0  0  0  0  0  0  0  0  0  0  0  0
   57.1200   25.7490   46.8660 C   0  0  0  0  0  0  0  0  0  0  0  0
   56.5252   24.9367   47.3092 H   0  0  0  0  0  0  0  0  0  0  0  0
   56.4840   26.7640   46.1450 C   0  0  0  0  0  0  0  0  0  0  0  0
   55.1020   26.7210   45.9900 O   0  0  0  0  0  0  0  0  0  0  0  0
   57.2400   27.8060   45.5710 C   0  0  0  0  0  0  0  0  0  0  0  0
   56.5770   28.9040   44.8280 C   0  0  0  0  0  0  0  0  0  0  0  0
   55.4680   29.3380   45.2420 O   0  0  0  0  0  0  0  0  0  0  0  0
   57.1710   29.5400   43.6330 C   0  0  0  0  0  0  0  0  0  0  0  0
   57.5361   28.8949   42.8202 H   0  0  0  0  0  0  0  0  0  0  0  0
   57.2840   30.8690   43.4970 C   0  0  0  0  0  0  0  0  0  0  0  0
   57.0122   31.3150   42.5289 H   0  0  0  0  0  0  0  0  0  0  0  0
   57.7540   31.7740   44.5750 C   0  0  0  0  0  0  0  0  0  0  0  0
   58.6420   31.2650   45.5380 C   0  0  0  0  0  0  0  0  0  0  0  0
   58.9655   30.2153   45.4795 H   0  0  0  0  0  0  0  0  0  0  0  0
   59.1180   32.0790   46.5690 C   0  0  0  0  0  0  0  0  0  0  0  0
   59.8124   31.6666   47.3159 H   0  0  0  0  0  0  0  0  0  0  0  0
   58.7150   33.4180   46.6560 C   0  0  0  0  0  0  0  0  0  0  0  0
   59.2600   34.3010   47.7400 C   0  0  0  0  0  0  0  0  0  0  0  0
   58.9997   33.8792   48.7220 H   0  0  0  0  0  0  0  0  0  0  0  0
   60.3542   34.3638   47.6463 H   0  0  0  0  0  0  0  0  0  0  0  0
   58.8256   35.3072   47.6463 H   0  0  0  0  0  0  0  0  0  0  0  0
   57.8560   33.9430   45.6790 C   0  0  0  0  0  0  0  0  0  0  0  0
   57.5586   35.0011   45.7241 H   0  0  0  0  0  0  0  0  0  0  0  0
   57.3760   33.1300   44.6490 C   0  0  0  0  0  0  0  0  0  0  0  0
   56.6989   33.5507   43.8911 H   0  0  0  0  0  0  0  0  0  0  0  0
   58.6360   27.8160   45.7510 C   0  0  0  0  0  0  0  0  0  0  0  0
   59.2353   28.6327   45.3223 H   0  0  0  0  0  0  0  0  0  0  0  0
  1  2  1  0
  2  3  1  0
  3  4  2  0
  4  5  1  0
  4  6  1  0
  6  7  1  0
  6  8  2  0
  8  9  1  0
  8 10  1  0
 10 11  1  0
 11 12  2  0
 11 13  1  0
 13 14  1  0
 13 15  2  0
 15 16  1  0
 15 17  1  0
 17 18  2  0
 18 19  1  0
 18 20  1  0
 20 21  1  0
 20 22  2  0
 22 23  1  0
 23 24  1  0
 23 25  1  0
 23 26  1  0
 22 27  1  0
 27 28  1  0
 27 29  2  0
 29 30  1  0
 10 31  2  0
 31 32  1  0
 31  3  1  0
 29 17  1  0
M  CHG  1   9  -1
M  END
>  <UniqueID>  (72) 
66

>  <SMILES>  (72) 
Cc1ccc(/C=C/C(=O)c2cc(O)ccc2[O-])cc1

>  <Energy>  (72) 
39.652426870969045

>  <Genealogy>  (72) 
Cc1ccc(C=CC(=O)c2cc(O)ccc2[O-])cc1 (protonated)
Cc1ccc(/C=C/C(=O)c2cc(O)ccc2[O-])cc1 (cis-trans isomerization)
Cc1ccc(/C=C/C(=O)c2cc(O)ccc2[O-])cc1 (3D coordinates assigned)
Cc1ccc(/C=C/C(=O)c2cc(O)ccc2[O-])cc1 (optimized conformer: 39.652426870969045 kcal/mol)

>  <smiles>  (72) 
Cc1ccc(C=CC(=O)c2cc(O)ccc2O)cc1

>  <score_type>  (72) 
oracle

>  <origin>  (72) 
adg

>  <m_score__min__energy>  (72) 
-11.550000000000001

>  <m_primary>  (72) 
energy

$$$$
72:0
     RDKit          3D

 41 43  0  0  0  0  0  0  0  0999 V2000
   60.4630   28.5950   44.5570 C   0  0  0  0  0  0  0  0  0  0  0  0
   59.5750   28.8760   45.7300 C   0  0  0  0  0  0  0  0  0  0  0  0
   60.0680   29.4880   46.7180 O   0  0  0  0  0  0  0  0  0  0  0  0
   58.1940   28.4450   45.7670 N   0  0  0  0  0  0  0  0  0  0  0  0
   57.1810   29.0440   44.8810 C   0  0  0  0  0  0  0  0  0  0  0  0
   57.4990   30.4870   44.5860 C   0  0  0  0  0  0  0  0  0  0  0  0
   57.5260   30.9580   43.2630 C   0  0  0  0  0  0  0  0  0  0  0  0
   57.8020   32.3030   43.0000 C   0  0  0  0  0  0  0  0  0  0  0  0
   58.0590   33.1860   44.0510 C   0  0  0  0  0  0  0  0  0  0  0  0
   58.0520   32.7220   45.3710 C   0  0  0  0  0  0  0  0  0  0  0  0
   58.3800   33.8280   46.6930 Cl  0  0  0  0  0  0  0  0  0  0  0  0
   57.7820   31.3750   45.6360 C   0  0  0  0  0  0  0  0  0  0  0  0
   57.7720   27.4830   46.7990 C   0  0  0  0  0  0  0  0  0  0  0  0
   57.0720   26.3120   46.1750 C   0  0  0  0  0  0  0  0  0  0  0  0
   55.7160   26.2390   46.1960 N   0  0  0  0  0  0  0  0  0  0  0  0
   55.0560   25.2050   45.6160 C   0  0  0  0  0  0  0  0  0  0  0  0
   53.7970   25.1660   45.6680 O   0  0  0  0  0  0  0  0  0  0  0  0
   55.7790   24.1940   44.9660 C   0  0  0  0  0  0  0  0  0  0  0  0
   57.1800   24.2730   44.9790 C   0  0  0  0  0  0  0  0  0  0  0  0
   57.7930   25.3330   45.5650 N   0  0  0  0  0  0  0  0  0  0  0  0
   58.0040   23.2300   44.2820 C   0  0  0  0  0  0  0  0  0  0  0  0
   57.1630   21.9810   43.9910 C   0  0  0  0  0  0  0  0  0  0  0  0
   55.9310   22.3460   43.3970 O   0  0  0  0  0  0  0  0  0  0  0  0
   55.1040   22.9890   44.3520 C   0  0  0  0  0  0  0  0  0  0  0  0
   61.4547   28.2812   44.9148 H   0  0  0  0  0  0  0  0  0  0  0  0
   60.0222   27.7924   43.9474 H   0  0  0  0  0  0  0  0  0  0  0  0
   60.5642   29.5050   43.9474 H   0  0  0  0  0  0  0  0  0  0  0  0
   57.1540   28.4822   43.9357 H   0  0  0  0  0  0  0  0  0  0  0  0
   56.2055   28.9991   45.3873 H   0  0  0  0  0  0  0  0  0  0  0  0
   57.3293   30.2660   42.4308 H   0  0  0  0  0  0  0  0  0  0  0  0
   57.8168   32.6669   41.9620 H   0  0  0  0  0  0  0  0  0  0  0  0
   58.2668   34.2456   43.8412 H   0  0  0  0  0  0  0  0  0  0  0  0
   57.7915   31.0095   46.6734 H   0  0  0  0  0  0  0  0  0  0  0  0
   58.6581   27.1259   47.3442 H   0  0  0  0  0  0  0  0  0  0  0  0
   57.0774   27.9849   47.4887 H   0  0  0  0  0  0  0  0  0  0  0  0
   58.3802   23.6412   43.3336 H   0  0  0  0  0  0  0  0  0  0  0  0
   58.8432   22.9475   44.9347 H   0  0  0  0  0  0  0  0  0  0  0  0
   57.7160   21.3230   43.3046 H   0  0  0  0  0  0  0  0  0  0  0  0
   56.9628   21.4560   44.9367 H   0  0  0  0  0  0  0  0  0  0  0  0
   54.1772   23.3149   43.8571 H   0  0  0  0  0  0  0  0  0  0  0  0
   54.8934   22.2703   45.1577 H   0  0  0  0  0  0  0  0  0  0  0  0
  1  2  1  0
  2  3  2  0
  2  4  1  0
  4  5  1  0
  5  6  1  0
  6  7  2  0
  7  8  1  0
  8  9  2  0
  9 10  1  0
 10 11  1  0
 10 12  2  0
  4 13  1  0
 13 14  1  0
 14 15  2  0
 15 16  1  0
 16 17  2  0
 16 18  1  0
 18 19  2  0
 19 20  1  0
 19 21  1  0
 21 22  1  0
 22 23  1  0
 23 24  1  0
 12  6  1  0
 20 14  1  0
 24 18  1  0
  1 25  1  0
  1 26  1  0
  1 27  1  0
  5 28  1  0
  5 29  1  0
  7 30  1  0
  8 31  1  0
  9 32  1  0
 12 33  1  0
 13 34  1  0
 13 35  1  0
 21 36  1  0
 21 37  1  0
 22 38  1  0
 22 39  1  0
 24 40  1  0
 24 41  1  0
M  CHG  1  20  -1
M  END
>  <UniqueID>  (73) 
67

>  <SMILES>  (73) 
CC(=O)N(Cc1cccc(Cl)c1)Cc1nc(=O)c2c([n-]1)CCOC2

>  <Energy>  (73) 
44.175434186879336

>  <Genealogy>  (73) 
CC(=O)N(Cc1cccc(Cl)c1)Cc1nc(=O)c2c([n-]1)CCOC2 (protonated)
CC(=O)N(Cc1cccc(Cl)c1)Cc1nc(=O)c2c([n-]1)CCOC2 (3D coordinates assigned)
CC(=O)N(Cc1cccc(Cl)c1)Cc1nc(=O)c2c([n-]1)CCOC2 (nonaromatic ring conformer: 44.175434186879336 kcal/mol)

>  <smiles>  (73) 
CC(=O)N(Cc1cccc(Cl)c1)Cc1nc(=O)c2c([nH]1)CCOC2

>  <score_type>  (73) 
oracle

>  <origin>  (73) 
adg

>  <m_score__min__energy>  (73) 
-10.35

>  <m_primary>  (73) 
energy

$$$$
73:0
     RDKit          3D

 44 47  0  0  1  0  0  0  0  0999 V2000
   59.3840   34.9460   46.0010 C   0  0  0  0  0  0  0  0  0  0  0  0
   58.4430   33.9100   45.4950 C   0  0  0  0  0  0  0  0  0  0  0  0
   58.5710   33.2270   44.3030 C   0  0  0  0  0  0  0  0  0  0  0  0
   57.4810   32.3800   44.2540 C   0  0  0  0  0  0  0  0  0  0  0  0
   57.1420   31.5290   43.3430 N   0  0  0  0  0  0  0  0  0  0  0  0
   56.4130   30.3600   43.6950 C   0  0  0  0  0  0  0  0  0  0  0  0
   55.4560   30.4890   44.4790 O   0  0  0  0  0  0  0  0  0  0  0  0
   56.7250   29.0100   43.1850 C   0  0  0  0  0  0  0  0  0  0  0  0
   57.5710   28.2420   44.1010 N   0  0  0  0  0  0  0  0  0  0  0  0
   58.5070   28.8640   44.9580 C   0  0  0  0  0  0  0  0  0  0  0  0
   58.1330   29.6010   46.0620 C   0  0  0  0  0  0  0  0  0  0  0  0
   59.0240   30.2150   46.9090 C   0  0  0  0  0  0  0  0  0  0  0  0
   60.3650   30.0740   46.6190 C   0  0  0  0  0  0  0  0  0  0  0  0
   61.3640   30.7020   47.4810 C   0  0  0  0  0  0  0  0  0  0  0  0
   62.2180   31.6760   47.1120 N   0  0  0  0  0  0  0  0  0  0  0  0
   62.9980   32.0140   48.1750 C   0  0  0  0  0  0  0  0  0  0  0  0
   64.0080   32.9440   48.3000 C   0  0  0  0  0  0  0  0  0  0  0  0
   64.6550   33.0880   49.5280 C   0  0  0  0  0  0  0  0  0  0  0  0
   64.2570   32.2790   50.5970 C   0  0  0  0  0  0  0  0  0  0  0  0
   63.2380   31.3600   50.4200 C   0  0  0  0  0  0  0  0  0  0  0  0
   62.5850   31.2030   49.2130 C   0  0  0  0  0  0  0  0  0  0  0  0
   61.5760   30.3970   48.7740 N   0  0  0  0  0  0  0  0  0  0  0  0
   60.7620   29.3410   45.5180 C   0  0  0  0  0  0  0  0  0  0  0  0
   59.8570   28.7260   44.6710 C   0  0  0  0  0  0  0  0  0  0  0  0
   56.7510   32.5760   45.3910 N   0  0  0  0  0  0  0  0  0  0  0  0
   57.3340   33.5020   46.1390 N   0  0  0  0  0  0  0  0  0  0  0  0
   59.3788   34.9402   47.1010 H   0  0  0  0  0  0  0  0  0  0  0  0
   60.3992   34.7279   45.6380 H   0  0  0  0  0  0  0  0  0  0  0  0
   59.0695   35.9356   45.6380 H   0  0  0  0  0  0  0  0  0  0  0  0
   59.3689   33.3339   43.5534 H   0  0  0  0  0  0  0  0  0  0  0  0
   55.7821   28.4637   43.0351 H   0  0  0  0  0  0  0  0  0  0  0  0
   57.2793   29.1305   42.2425 H   0  0  0  0  0  0  0  0  0  0  0  0
   57.4590   27.2010   44.1030 H   0  0  0  0  0  0  0  0  0  0  0  0
   57.0591   29.7033   46.2771 H   0  0  0  0  0  0  0  0  0  0  0  0
   58.6827   30.7936   47.7801 H   0  0  0  0  0  0  0  0  0  0  0  0
   64.3007   33.5658   47.4411 H   0  0  0  0  0  0  0  0  0  0  0  0
   65.4629   33.8240   49.6528 H   0  0  0  0  0  0  0  0  0  0  0  0
   64.7522   32.3729   51.5748 H   0  0  0  0  0  0  0  0  0  0  0  0
   62.9370   30.7317   51.2712 H   0  0  0  0  0  0  0  0  0  0  0  0
   61.0770   29.6880   49.3450 H   0  0  0  0  0  0  0  0  0  0  0  0
   61.8370   29.2424   45.3066 H   0  0  0  0  0  0  0  0  0  0  0  0
   60.1967   28.1472   43.7995 H   0  0  0  0  0  0  0  0  0  0  0  0
   55.8530   32.0530   45.6180 H   0  0  0  0  0  0  0  0  0  0  0  0
   56.9460   33.8170   47.0620 H   0  0  0  0  0  0  0  0  0  0  0  0
  1  2  1  0
  2  3  2  0
  3  4  1  0
  4  5  2  0
  5  6  1  0
  6  7  2  0
  6  8  1  0
  8  9  1  0
  9 10  1  0
 10 11  2  0
 11 12  1  0
 12 13  2  0
 13 14  1  0
 14 15  2  0
 15 16  1  0
 16 17  2  0
 17 18  1  0
 18 19  2  0
 19 20  1  0
 20 21  2  0
 21 22  1  0
 13 23  1  0
 23 24  2  0
  4 25  1  0
 25 26  1  0
 26  2  1  0
 24 10  1  0
 22 14  1  0
 21 16  1  0
  1 27  1  0
  1 28  1  0
  1 29  1  0
  3 30  1  0
  8 31  1  0
  8 32  1  0
  9 33  1  0
 11 34  1  0
 12 35  1  0
 17 36  1  0
 18 37  1  0
 19 38  1  0
 20 39  1  0
 22 40  1  0
 23 41  1  0
 24 42  1  0
 25 43  1  0
 26 44  1  0
M  END
>  <smiles>  (74) 
Cc1cc(=NC(=O)CNc2ccc(-c3nc4ccccc4[nH]3)cc2)[nH][nH]1

>  <score_type>  (74) 
oracle

>  <origin>  (74) 
adg

>  <m_score__min__energy>  (74) 
-8.6799999999999997

>  <m_primary>  (74) 
energy

$$$$
74:0
     RDKit          3D

 56 59  0  0  0  0  0  0  0  0999 V2000
   56.1040   24.3270   44.6840 C   0  0  0  0  0  0  0  0  0  0  0  0
   55.1540   25.0980   45.5930 C   0  0  0  0  0  0  0  0  0  0  0  0
   55.8770   26.0080   46.4200 O   0  0  0  0  0  0  0  0  0  0  0  0
   57.1280   25.7160   46.9810 C   0  0  0  0  0  0  0  0  0  0  0  0
   57.3270   24.6000   47.5370 O   0  0  0  0  0  0  0  0  0  0  0  0
   58.1800   26.6970   46.9240 N   0  0  0  0  0  0  0  0  0  0  0  0
   57.9620   27.9220   46.1400 C   0  0  0  0  0  0  0  0  0  0  0  0
   59.2340   28.7690   46.0410 C   0  0  0  0  0  0  0  0  0  0  0  0
   59.8660   28.8780   47.3570 N   0  0  0  0  0  0  0  0  0  0  0  0
   60.5100   30.1050   47.7320 C   0  0  0  0  0  0  0  0  0  0  0  0
   61.6740   30.4500   47.1260 N   0  0  0  0  0  0  0  0  0  0  0  0
   62.3110   31.6060   47.4390 C   0  0  0  0  0  0  0  0  0  0  0  0
   63.5030   31.9670   46.7960 C   0  0  0  0  0  0  0  0  0  0  0  0
   64.1330   33.1670   47.1220 C   0  0  0  0  0  0  0  0  0  0  0  0
   63.5680   33.9940   48.0920 C   0  0  0  0  0  0  0  0  0  0  0  0
   62.4130   33.6290   48.7080 N   0  0  0  0  0  0  0  0  0  0  0  0
   61.7630   32.4650   48.4140 C   0  0  0  0  0  0  0  0  0  0  0  0
   60.5820   32.1350   49.0390 N   0  0  0  0  0  0  0  0  0  0  0  0
   59.9830   33.0790   50.0140 C   0  0  0  0  0  0  0  0  0  0  0  0
   59.6360   34.4240   49.3560 C   0  0  0  0  0  0  0  0  0  0  0  0
   59.2910   34.2590   47.8990 C   0  0  0  0  0  0  0  0  0  0  0  0
   58.1940   33.4680   47.5170 C   0  0  0  0  0  0  0  0  0  0  0  0
   57.8310   33.3730   46.1700 C   0  0  0  0  0  0  0  0  0  0  0  0
   58.5560   34.0680   45.1970 C   0  0  0  0  0  0  0  0  0  0  0  0
   59.6450   34.8590   45.5700 C   0  0  0  0  0  0  0  0  0  0  0  0
   60.0130   34.9570   46.9150 C   0  0  0  0  0  0  0  0  0  0  0  0
   59.9450   30.9540   48.7060 C   0  0  0  0  0  0  0  0  0  0  0  0
   58.5270   30.5000   49.4240 S   0  0  0  0  0  0  0  0  0  0  0  0
   60.0260   27.7010   48.2170 C   0  0  0  0  0  0  0  0  0  0  0  0
   59.4890   26.4350   47.5420 C   0  0  0  0  0  0  0  0  0  0  0  0
   56.8128   23.7518   45.2978 H   0  0  0  0  0  0  0  0  0  0  0  0
   55.5264   23.6390   44.0491 H   0  0  0  0  0  0  0  0  0  0  0  0
   56.6584   25.0338   44.0491 H   0  0  0  0  0  0  0  0  0  0  0  0
   54.4396   25.6612   44.9746 H   0  0  0  0  0  0  0  0  0  0  0  0
   54.6202   24.3826   46.2358 H   0  0  0  0  0  0  0  0  0  0  0  0
   57.6405   27.6429   45.1257 H   0  0  0  0  0  0  0  0  0  0  0  0
   57.1920   28.5205   46.6488 H   0  0  0  0  0  0  0  0  0  0  0  0
   59.9345   28.2937   45.3386 H   0  0  0  0  0  0  0  0  0  0  0  0
   58.9712   29.7750   45.6820 H   0  0  0  0  0  0  0  0  0  0  0  0
   62.0760   29.8120   46.4000 H   0  0  0  0  0  0  0  0  0  0  0  0
   63.9408   31.3042   46.0351 H   0  0  0  0  0  0  0  0  0  0  0  0
   65.0667   33.4586   46.6189 H   0  0  0  0  0  0  0  0  0  0  0  0
   64.0574   34.9423   48.3588 H   0  0  0  0  0  0  0  0  0  0  0  0
   59.0643   32.6342   50.4240 H   0  0  0  0  0  0  0  0  0  0  0  0
   60.7181   33.2643   50.8111 H   0  0  0  0  0  0  0  0  0  0  0  0
   58.7743   34.8647   49.8787 H   0  0  0  0  0  0  0  0  0  0  0  0
   60.5174   35.0783   49.4277 H   0  0  0  0  0  0  0  0  0  0  0  0
   57.6193   32.9221   48.2797 H   0  0  0  0  0  0  0  0  0  0  0  0
   56.9735   32.7503   45.8752 H   0  0  0  0  0  0  0  0  0  0  0  0
   58.2687   33.9918   44.1379 H   0  0  0  0  0  0  0  0  0  0  0  0
   60.2142   35.4059   44.8039 H   0  0  0  0  0  0  0  0  0  0  0  0
   60.8704   35.5824   47.2045 H   0  0  0  0  0  0  0  0  0  0  0  0
   61.0946   27.5624   48.4379 H   0  0  0  0  0  0  0  0  0  0  0  0
   59.4535   27.8686   49.1412 H   0  0  0  0  0  0  0  0  0  0  0  0
   60.1974   26.1103   46.7657 H   0  0  0  0  0  0  0  0  0  0  0  0
   59.3728   25.6483   48.3020 H   0  0  0  0  0  0  0  0  0  0  0  0
  1  2  1  0
  2  3  1  0
  3  4  1  0
  4  5  2  0
  4  6  1  0
  6  7  1  0
  7  8  1  0
  8  9  1  0
  9 10  1  0
 10 11  2  0
 11 12  1  0
 12 13  2  0
 13 14  1  0
 14 15  2  0
 15 16  1  0
 16 17  2  0
 17 18  1  0
 18 19  1  0
 19 20  1  0
 20 21  1  0
 21 22  2  0
 22 23  1  0
 23 24  2  0
 24 25  1  0
 25 26  2  0
 18 27  1  0
 27 28  2  0
  9 29  1  0
 29 30  1  0
 30  6  1  0
 27 10  1  0
 17 12  1  0
 26 21  1  0
  1 31  1  0
  1 32  1  0
  1 33  1  0
  2 34  1  0
  2 35  1  0
  7 36  1  0
  7 37  1  0
  8 38  1  0
  8 39  1  0
 11 40  1  0
 13 41  1  0
 14 42  1  0
 15 43  1  0
 19 44  1  0
 19 45  1  0
 20 46  1  0
 20 47  1  0
 22 48  1  0
 23 49  1  0
 24 50  1  0
 25 51  1  0
 26 52  1  0
 29 53  1  0
 29 54  1  0
 30 55  1  0
 30 56  1  0
M  CHG  1  11   1
M  END
>  <UniqueID>  (75) 
68

>  <SMILES>  (75) 
CCOC(=O)N1CCN(c2[nH+]c3cccnc3n(CCc3ccccc3)c2=S)CC1

>  <Energy>  (75) 
66.06585521902554

>  <Genealogy>  (75) 
CCOC(=O)N1CCN(c2[nH+]c3cccnc3n(CCc3ccccc3)c2=S)CC1 (protonated)
CCOC(=O)N1CCN(c2[nH+]c3cccnc3n(CCc3ccccc3)c2=S)CC1 (3D coordinates assigned)
CCOC(=O)N1CCN(c2[nH+]c3cccnc3n(CCc3ccccc3)c2=S)CC1 (nonaromatic ring conformer: 66.06585521902554 kcal/mol)

>  <smiles>  (75) 
CCOC(=O)N1CCN(c2nc3cccnc3n(CCc3ccccc3)c2=S)CC1

>  <score_type>  (75) 
oracle

>  <origin>  (75) 
adg

>  <m_score__min__energy>  (75) 
-6.9299999999999997

>  <m_primary>  (75) 
energy

$$$$
75:0
     RDKit          3D

 12 12  0  0  0  0  0  0  0  0999 V2000
   55.9090   28.7030   51.6360 H   0  0  0  0  0  0  0  0  0  0  0  0
   55.3210   29.1610   52.3670 N   0  0  0  0  0  0  0  0  0  0  0  0
   54.1890   29.7120   52.0680 C   0  0  0  0  0  0  0  0  0  0  0  0
   53.9790   31.3490   51.7370 S   0  0  0  0  0  0  0  0  0  0  0  0
   52.3210   31.1650   51.4750 C   0  0  0  0  0  0  0  0  0  0  0  0
   51.3970   32.2480   51.1170 C   0  0  0  0  0  0  0  0  0  0  0  0
   50.6410   32.7540   51.9890 O   0  0  0  0  0  0  0  0  0  0  0  0
   51.3500   32.7200   49.8120 O   0  0  0  0  0  0  0  0  0  0  0  0
   51.9850   29.8250   51.6550 C   0  0  0  0  0  0  0  0  0  0  0  0
   50.9584   29.4471   51.5397 H   0  0  0  0  0  0  0  0  0  0  0  0
   53.0320   29.0240   51.9850 N   0  0  0  0  0  0  0  0  0  0  0  0
   52.9460   27.9960   52.1530 H   0  0  0  0  0  0  0  0  0  0  0  0
  1  2  1  0
  2  3  2  0
  3  4  1  0
  4  5  1  0
  5  6  1  0
  6  7  2  0
  6  8  1  0
  5  9  2  0
  9 10  1  0
  9 11  1  0
 11 12  1  0
 11  3  1  0
M  CHG  1   8  -1
M  END
>  <UniqueID>  (76) 
69

>  <SMILES>  (76) 
[H]/N=c1/[nH]cc(C(=O)[O-])s1

>  <Energy>  (76) 
39.65984874637718

>  <Genealogy>  (76) 
N=c1[nH]cc(C(=O)[O-])s1 (protonated)
[H]/N=c1/[nH]cc(C(=O)[O-])s1 (cis-trans isomerization)
[H]/N=c1/[nH]cc(C(=O)[O-])s1 (3D coordinates assigned)
[H]/N=c1/[nH]cc(C(=O)[O-])s1 (optimized conformer: 39.65984874637718 kcal/mol)

>  <smiles>  (76) 
N=c1[nH]cc(C(=O)O)s1

>  <score_type>  (76) 
oracle

>  <origin>  (76) 
adg

>  <m_score__min__energy>  (76) 
-8.0899999999999999

>  <m_primary>  (76) 
energy

$$$$
76:0
     RDKit          3D

 45 47  0  0  0  0  0  0  0  0999 V2000
   64.5680   32.8910   49.1680 C   0  0  0  0  0  0  0  0  0  0  0  0
   63.2690   33.3340   48.5640 C   0  0  0  0  0  0  0  0  0  0  0  0
   63.1200   33.3870   47.1690 C   0  0  0  0  0  0  0  0  0  0  0  0
   61.9240   33.8360   46.6040 C   0  0  0  0  0  0  0  0  0  0  0  0
   60.8590   34.2380   47.4260 C   0  0  0  0  0  0  0  0  0  0  0  0
   59.5860   34.7560   46.8180 C   0  0  0  0  0  0  0  0  0  0  0  0
   58.5030   33.8000   47.0580 N   0  0  0  0  0  0  0  0  0  0  0  0
   58.0110   33.0770   45.5560 S   0  0  0  0  0  0  0  0  0  0  0  0
   58.9570   33.4900   44.4620 O   0  0  0  0  0  0  0  0  0  0  0  0
   56.6340   33.5640   45.2010 O   0  0  0  0  0  0  0  0  0  0  0  0
   57.9810   31.3210   45.7020 C   0  0  0  0  0  0  0  0  0  0  0  0
   58.6420   30.6830   46.7590 C   0  0  0  0  0  0  0  0  0  0  0  0
   58.5960   29.2910   46.8800 C   0  0  0  0  0  0  0  0  0  0  0  0
   57.8910   28.5180   45.9410 C   0  0  0  0  0  0  0  0  0  0  0  0
   57.8280   27.0410   46.0680 C   0  0  0  0  0  0  0  0  0  0  0  0
   58.2710   26.4950   47.1140 O   0  0  0  0  0  0  0  0  0  0  0  0
   57.3340   26.2010   45.0130 N   0  0  0  0  0  0  0  0  0  0  0  0
   56.5110   25.2020   45.1510 C   0  0  0  0  0  0  0  0  0  0  0  0
   56.8770   23.9360   44.7970 N   0  0  0  0  0  0  0  0  0  0  0  0
   56.0300   22.8790   44.9190 C   0  0  0  0  0  0  0  0  0  0  0  0
   54.7380   23.0730   45.4110 C   0  0  0  0  0  0  0  0  0  0  0  0
   54.3310   24.3590   45.7710 C   0  0  0  0  0  0  0  0  0  0  0  0
   55.2170   25.4320   45.6410 C   0  0  0  0  0  0  0  0  0  0  0  0
   54.8090   26.7130   45.9980 O   0  0  0  0  0  0  0  0  0  0  0  0
   57.2100   29.1660   44.8970 C   0  0  0  0  0  0  0  0  0  0  0  0
   57.2580   30.5570   44.7770 C   0  0  0  0  0  0  0  0  0  0  0  0
   61.0200   34.2170   48.8200 C   0  0  0  0  0  0  0  0  0  0  0  0
   62.2170   33.7680   49.3860 C   0  0  0  0  0  0  0  0  0  0  0  0
   64.4903   32.9175   50.2649 H   0  0  0  0  0  0  0  0  0  0  0  0
   64.7934   31.8652   48.8411 H   0  0  0  0  0  0  0  0  0  0  0  0
   65.3732   33.5653   48.8411 H   0  0  0  0  0  0  0  0  0  0  0  0
   63.9492   33.0734   46.5177 H   0  0  0  0  0  0  0  0  0  0  0  0
   61.8160   33.8748   45.5100 H   0  0  0  0  0  0  0  0  0  0  0  0
   59.3289   35.7229   47.2751 H   0  0  0  0  0  0  0  0  0  0  0  0
   59.7250   34.8865   45.7346 H   0  0  0  0  0  0  0  0  0  0  0  0
   58.8750   33.0280   47.6570 H   0  0  0  0  0  0  0  0  0  0  0  0
   59.1993   31.2792   47.4966 H   0  0  0  0  0  0  0  0  0  0  0  0
   59.1147   28.7975   47.7151 H   0  0  0  0  0  0  0  0  0  0  0  0
   56.3629   21.8712   44.6300 H   0  0  0  0  0  0  0  0  0  0  0  0
   54.0484   22.2222   45.5139 H   0  0  0  0  0  0  0  0  0  0  0  0
   53.3146   24.5275   46.1564 H   0  0  0  0  0  0  0  0  0  0  0  0
   56.6353   28.5743   44.1693 H   0  0  0  0  0  0  0  0  0  0  0  0
   56.7258   31.0544   43.9527 H   0  0  0  0  0  0  0  0  0  0  0  0
   60.2002   34.5555   49.4706 H   0  0  0  0  0  0  0  0  0  0  0  0
   62.3349   33.7548   50.4796 H   0  0  0  0  0  0  0  0  0  0  0  0
  1  2  1  0
  2  3  2  0
  3  4  1  0
  4  5  2  0
  5  6  1  0
  6  7  1  0
  7  8  1  0
  8  9  2  0
  8 10  2  0
  8 11  1  0
 11 12  2  0
 12 13  1  0
 13 14  2  0
 14 15  1  0
 15 16  2  0
 15 17  1  0
 17 18  2  3
 18 19  1  0
 19 20  1  0
 20 21  2  0
 21 22  1  0
 22 23  2  0
 23 24  1  0
 14 25  1  0
 25 26  2  0
  5 27  1  0
 27 28  2  0
 28  2  1  0
 26 11  1  0
 23 18  1  0
  1 29  1  0
  1 30  1  0
  1 31  1  0
  3 32  1  0
  4 33  1  0
  6 34  1  0
  6 35  1  0
  7 36  1  0
 12 37  1  0
 13 38  1  0
 20 39  1  0
 21 40  1  0
 22 41  1  0
 25 42  1  0
 26 43  1  0
 27 44  1  0
 28 45  1  0
M  CHG  2  19  -1  24  -1
M  END
>  <UniqueID>  (77) 
70

>  <SMILES>  (77) 
Cc1ccc(CNS(=O)(=O)c2ccc(C(=O)N=c3[n-]cccc3[O-])cc2)cc1

>  <Energy>  (77) 
52.781222675734995

>  <Genealogy>  (77) 
Cc1ccc(CNS(=O)(=O)c2ccc(C(=O)N=c3[n-]cccc3[O-])cc2)cc1 (protonated)
Cc1ccc(CNS(=O)(=O)c2ccc(C(=O)N=c3[n-]cccc3[O-])cc2)cc1 (3D coordinates assigned)
Cc1ccc(CNS(=O)(=O)c2ccc(C(=O)N=c3[n-]cccc3[O-])cc2)cc1 (optimized conformer: 52.781222675734995 kcal/mol)

>  <smiles>  (77) 
Cc1ccc(CNS(=O)(=O)c2ccc(C(=O)N=c3[nH]cccc3O)cc2)cc1

>  <score_type>  (77) 
oracle

>  <origin>  (77) 
adg

>  <m_score__min__energy>  (77) 
-14.890000000000001

>  <m_primary>  (77) 
energy

$$$$
77:0
     RDKit          3D

 38 40  0  0  0  0  0  0  0  0999 V2000
   59.2560   35.2050   45.1480 O   0  0  0  0  0  0  0  0  0  0  0  0
   58.9420   34.1870   45.8260 C   0  0  0  0  0  0  0  0  0  0  0  0
   59.8210   33.7540   46.9620 C   0  0  0  0  0  0  0  0  0  0  0  0
   60.5250   32.4370   46.6360 C   0  0  0  0  0  0  0  0  0  0  0  0
   59.5610   31.3390   46.6600 N   0  0  0  0  0  0  0  0  0  0  0  0
   60.3870   29.8220   46.8180 S   0  0  0  0  0  0  0  0  0  0  0  0
   61.1990   29.8160   48.0850 O   0  0  0  0  0  0  0  0  0  0  0  0
   61.3130   29.6350   45.6500 O   0  0  0  0  0  0  0  0  0  0  0  0
   59.2120   28.5110   46.8280 C   0  0  0  0  0  0  0  0  0  0  0  0
   59.5220   27.3070   47.5120 C   0  0  0  0  0  0  0  0  0  0  0  0
   58.6020   26.2410   47.5350 C   0  0  0  0  0  0  0  0  0  0  0  0
   57.3970   26.4130   46.8580 C   0  0  0  0  0  0  0  0  0  0  0  0
   56.3870   25.5380   46.7490 N   0  0  0  0  0  0  0  0  0  0  0  0
   55.4950   26.2300   45.9920 C   0  0  0  0  0  0  0  0  0  0  0  0
   54.3810   25.7490   45.6560 O   0  0  0  0  0  0  0  0  0  0  0  0
   55.8860   27.4780   45.6250 N   0  0  0  0  0  0  0  0  0  0  0  0
   57.0990   27.5650   46.1920 C   0  0  0  0  0  0  0  0  0  0  0  0
   57.9810   28.6430   46.1510 C   0  0  0  0  0  0  0  0  0  0  0  0
   57.7050   33.5020   45.5890 N   0  0  0  0  0  0  0  0  0  0  0  0
   57.4330   32.5990   44.5110 C   0  0  0  0  0  0  0  0  0  0  0  0
   57.9960   32.7770   43.2330 C   0  0  0  0  0  0  0  0  0  0  0  0
   57.7180   31.8640   42.2120 C   0  0  0  0  0  0  0  0  0  0  0  0
   56.8910   30.7650   42.4590 C   0  0  0  0  0  0  0  0  0  0  0  0
   56.3510   30.5670   43.7360 C   0  0  0  0  0  0  0  0  0  0  0  0
   55.5340   29.4710   43.9990 O   0  0  0  0  0  0  0  0  0  0  0  0
   56.6310   31.4790   44.7600 C   0  0  0  0  0  0  0  0  0  0  0  0
   60.5777   34.5304   47.1479 H   0  0  0  0  0  0  0  0  0  0  0  0
   59.1948   33.6061   47.8542 H   0  0  0  0  0  0  0  0  0  0  0  0
   60.9777   32.5032   45.6357 H   0  0  0  0  0  0  0  0  0  0  0  0
   61.3072   32.2489   47.3862 H   0  0  0  0  0  0  0  0  0  0  0  0
   60.4881   27.2056   48.0281 H   0  0  0  0  0  0  0  0  0  0  0  0
   58.8271   25.3058   48.0686 H   0  0  0  0  0  0  0  0  0  0  0  0
   57.7262   29.5658   45.6092 H   0  0  0  0  0  0  0  0  0  0  0  0
   58.6554   33.6356   43.0378 H   0  0  0  0  0  0  0  0  0  0  0  0
   58.1512   32.0109   41.2116 H   0  0  0  0  0  0  0  0  0  0  0  0
   56.6640   30.0550   41.6500 H   0  0  0  0  0  0  0  0  0  0  0  0
   55.9210   28.5470   44.1690 H   0  0  0  0  0  0  0  0  0  0  0  0
   56.2184   31.3148   45.7664 H   0  0  0  0  0  0  0  0  0  0  0  0
  1  2  2  0
  2  3  1  0
  3  4  1  0
  4  5  1  0
  5  6  1  0
  6  7  2  0
  6  8  2  0
  6  9  1  0
  9 10  2  0
 10 11  1  0
 11 12  2  0
 12 13  1  0
 13 14  1  0
 14 15  2  0
 14 16  1  0
 16 17  1  0
 17 18  2  0
  2 19  1  0
 19 20  1  0
 20 21  2  0
 21 22  1  0
 22 23  2  0
 23 24  1  0
 24 25  1  0
 24 26  2  0
 18  9  1  0
 26 20  1  0
 17 12  1  0
  3 27  1  0
  3 28  1  0
  4 29  1  0
  4 30  1  0
 10 31  1  0
 11 32  1  0
 18 33  1  0
 21 34  1  0
 22 35  1  0
 23 36  1  0
 25 37  1  0
 26 38  1  0
M  CHG  4   5  -1  13  -1  16  -1  19  -1
M  END
>  <UniqueID>  (78) 
71

>  <SMILES>  (78) 
O=C(CC[N-]S(=O)(=O)c1ccc2[n-]c(=O)[n-]c2c1)[N-]c1cccc(O)c1

>  <Energy>  (78) 
73.03474067788733

>  <Genealogy>  (78) 
O=C(CC[N-]S(=O)(=O)c1ccc2[n-]c(=O)[n-]c2c1)[N-]c1cccc(O)c1 (protonated)
O=C(CC[N-]S(=O)(=O)c1ccc2[n-]c(=O)[n-]c2c1)[N-]c1cccc(O)c1 (3D coordinates assigned)
O=C(CC[N-]S(=O)(=O)c1ccc2[n-]c(=O)[n-]c2c1)[N-]c1cccc(O)c1 (optimized conformer: 73.03474067788733 kcal/mol)

>  <smiles>  (78) 
O=C(CCNS(=O)(=O)c1ccc2[nH]c(=O)[nH]c2c1)Nc1cccc(O)c1

>  <score_type>  (78) 
oracle

>  <origin>  (78) 
adg

>  <m_score__min__energy>  (78) 
-14.1

>  <m_primary>  (78) 
energy

$$$$
78:0
     RDKit          3D

 58 61  0  0  0  0  0  0  0  0999 V2000
   60.0680   27.8270   46.6190 O   0  0  0  0  0  0  0  0  0  0  0  0
   59.1250   28.2240   47.3550 C   0  0  0  0  0  0  0  0  0  0  0  0
   59.3660   28.4510   48.8130 C   0  0  0  0  0  0  0  0  0  0  0  0
   58.4840   29.5710   49.2980 C   0  0  0  0  0  0  0  0  0  0  0  0
   58.4160   29.9740   50.5330 N   0  0  0  0  0  0  0  0  0  0  0  0
   58.4240   31.3330   50.9920 C   0  0  0  0  0  0  0  0  0  0  0  0
   59.4440   32.2080   50.5790 C   0  0  0  0  0  0  0  0  0  0  0  0
   59.4970   33.5110   51.0710 C   0  0  0  0  0  0  0  0  0  0  0  0
   58.5480   33.9480   51.9950 C   0  0  0  0  0  0  0  0  0  0  0  0
   57.5500   33.0800   52.4390 C   0  0  0  0  0  0  0  0  0  0  0  0
   57.4890   31.7580   51.9620 C   0  0  0  0  0  0  0  0  0  0  0  0
   56.4170   30.8520   52.4520 C   0  0  0  0  0  0  0  0  0  0  0  0
   56.4870   30.3830   53.6190 O   0  0  0  0  0  0  0  0  0  0  0  0
   55.3410   30.4250   51.6080 N   0  0  0  0  0  0  0  0  0  0  0  0
   53.9390   30.5500   51.8860 C   0  0  0  0  0  0  0  0  0  0  0  0
   53.3340   29.6230   52.7420 C   0  0  0  0  0  0  0  0  0  0  0  0
   51.9670   29.7060   53.0220 C   0  0  0  0  0  0  0  0  0  0  0  0
   51.1970   30.7290   52.4620 C   0  0  0  0  0  0  0  0  0  0  0  0
   51.7980   31.6810   51.6340 C   0  0  0  0  0  0  0  0  0  0  0  0
   51.0370   32.7080   51.0910 O   0  0  0  0  0  0  0  0  0  0  0  0
   53.1670   31.5990   51.3530 C   0  0  0  0  0  0  0  0  0  0  0  0
   57.8120   28.4250   46.8190 N   0  0  0  0  0  0  0  0  0  0  0  0
   57.4370   29.3750   45.8090 C   0  0  0  0  0  0  0  0  0  0  0  0
   58.1670   30.5590   45.6050 C   0  0  0  0  0  0  0  0  0  0  0  0
   57.7500   31.4950   44.6460 C   0  0  0  0  0  0  0  0  0  0  0  0
   58.4810   32.7040   44.3920 N   0  0  0  0  0  0  0  0  0  0  0  0
   59.0350   33.8360   45.5860 S   0  0  0  0  0  0  0  0  0  0  0  0
   57.9570   34.1530   46.5830 O   0  0  0  0  0  0  0  0  0  0  0  0
   59.4000   35.1080   44.8770 O   0  0  0  0  0  0  0  0  0  0  0  0
   60.4640   33.1960   46.4020 C   0  0  0  0  0  0  0  0  0  0  0  0
   60.3790   32.0250   47.1710 C   0  0  0  0  0  0  0  0  0  0  0  0
   61.5050   31.5420   47.8450 C   0  0  0  0  0  0  0  0  0  0  0  0
   62.7230   32.2210   47.7530 C   0  0  0  0  0  0  0  0  0  0  0  0
   62.8140   33.3830   46.9870 C   0  0  0  0  0  0  0  0  0  0  0  0
   61.6940   33.8640   46.3050 C   0  0  0  0  0  0  0  0  0  0  0  0
   56.5680   31.2640   43.9310 C   0  0  0  0  0  0  0  0  0  0  0  0
   55.8320   30.0960   44.1370 C   0  0  0  0  0  0  0  0  0  0  0  0
   56.2630   29.1540   45.0730 C   0  0  0  0  0  0  0  0  0  0  0  0
   55.5190   27.9970   45.2710 O   0  0  0  0  0  0  0  0  0  0  0  0
   59.1324   27.5322   49.3709 H   0  0  0  0  0  0  0  0  0  0  0  0
   60.4208   28.7186   48.9735 H   0  0  0  0  0  0  0  0  0  0  0  0
   57.8536   30.0839   48.5567 H   0  0  0  0  0  0  0  0  0  0  0  0
   60.2046   31.8623   49.8635 H   0  0  0  0  0  0  0  0  0  0  0  0
   60.2880   34.1953   50.7303 H   0  0  0  0  0  0  0  0  0  0  0  0
   58.5865   34.9797   52.3747 H   0  0  0  0  0  0  0  0  0  0  0  0
   56.8050   33.4321   53.1677 H   0  0  0  0  0  0  0  0  0  0  0  0
   53.9378   28.8242   53.1973 H   0  0  0  0  0  0  0  0  0  0  0  0
   51.4964   28.9646   53.6845 H   0  0  0  0  0  0  0  0  0  0  0  0
   50.1188   30.7848   52.6728 H   0  0  0  0  0  0  0  0  0  0  0  0
   53.6412   32.3576   50.7130 H   0  0  0  0  0  0  0  0  0  0  0  0
   59.0710   30.7531   46.2010 H   0  0  0  0  0  0  0  0  0  0  0  0
   59.4233   31.4853   47.2438 H   0  0  0  0  0  0  0  0  0  0  0  0
   61.4319   30.6255   48.4490 H   0  0  0  0  0  0  0  0  0  0  0  0
   63.6080   31.8398   48.2836 H   0  0  0  0  0  0  0  0  0  0  0  0
   63.7705   33.9221   46.9198 H   0  0  0  0  0  0  0  0  0  0  0  0
   61.7767   34.7713   45.6886 H   0  0  0  0  0  0  0  0  0  0  0  0
   56.2170   32.0088   43.2015 H   0  0  0  0  0  0  0  0  0  0  0  0
   54.9117   29.9176   43.5615 H   0  0  0  0  0  0  0  0  0  0  0  0
  1  2  2  0
  2  3  1  0
  3  4  1  0
  4  5  2  3
  5  6  1  0
  6  7  2  0
  7  8  1  0
  8  9  2  0
  9 10  1  0
 10 11  2  0
 11 12  1  0
 12 13  2  0
 12 14  1  0
 14 15  1  0
 15 16  2  0
 16 17  1  0
 17 18  2  0
 18 19  1  0
 19 20  1  0
 19 21  2  0
  2 22  1  0
 22 23  1  0
 23 24  2  0
 24 25  1  0
 25 26  1  0
 26 27  1  0
 27 28  2  0
 27 29  2  0
 27 30  1  0
 30 31  2  0
 31 32  1  0
 32 33  2  0
 33 34  1  0
 34 35  2  0
 25 36  2  0
 36 37  1  0
 37 38  2  0
 38 39  1  0
 11  6  1  0
 21 15  1  0
 38 23  1  0
 35 30  1  0
  3 40  1  0
  3 41  1  0
  4 42  1  0
  7 43  1  0
  8 44  1  0
  9 45  1  0
 10 46  1  0
 16 47  1  0
 17 48  1  0
 18 49  1  0
 21 50  1  0
 24 51  1  0
 31 52  1  0
 32 53  1  0
 33 54  1  0
 34 55  1  0
 35 56  1  0
 36 57  1  0
 37 58  1  0
M  CHG  5  14  -1  20  -1  22  -1  26  -1  39  -1
M  END
>  <UniqueID>  (79) 
72

>  <SMILES>  (79) 
O=C(CC=Nc1ccccc1C(=O)[N-]c1cccc([O-])c1)[N-]c1cc([N-]S(=O)(=O)c2ccccc2)ccc1[O-]

>  <Energy>  (79) 
87.53841599406024

>  <Genealogy>  (79) 
O=C(CC=Nc1ccccc1C(=O)[N-]c1cccc([O-])c1)[N-]c1cc([N-]S(=O)(=O)c2ccccc2)ccc1[O-] (protonated)
O=C(CC=Nc1ccccc1C(=O)[N-]c1cccc([O-])c1)[N-]c1cc([N-]S(=O)(=O)c2ccccc2)ccc1[O-] (3D coordinates assigned)
O=C(CC=Nc1ccccc1C(=O)[N-]c1cccc([O-])c1)[N-]c1cc([N-]S(=O)(=O)c2ccccc2)ccc1[O-] (optimized conformer: 87.53841599406024 kcal/mol)

>  <smiles>  (79) 
O=C(CC=Nc1ccccc1C(=O)Nc1cccc(O)c1)Nc1cc(NS(=O)(=O)c2ccccc2)ccc1O

>  <score_type>  (79) 
oracle

>  <origin>  (79) 
adg

>  <m_score__min__energy>  (79) 
-20.989999999999998

>  <m_primary>  (79) 
energy

$$$$
79:0
     RDKit          3D

 54 58  0  0  0  0  0  0  0  0999 V2000
   65.6460   28.2290   52.4300 C   0  0  0  0  0  0  0  0  0  0  0  0
   66.4650   29.4770   52.2770 C   0  0  0  0  0  0  0  0  0  0  0  0
   67.7660   29.5640   52.8170 C   0  0  0  0  0  0  0  0  0  0  0  0
   68.5320   30.7390   52.6650 C   0  0  0  0  0  0  0  0  0  0  0  0
   68.0120   31.8440   51.9700 C   0  0  0  0  0  0  0  0  0  0  0  0
   66.7260   31.7420   51.4450 C   0  0  0  0  0  0  0  0  0  0  0  0
   65.9700   30.5950   51.5900 C   0  0  0  0  0  0  0  0  0  0  0  0
   64.6870   30.8360   50.9240 C   0  0  0  0  0  0  0  0  0  0  0  0
   63.7150   30.0350   50.8970 O   0  0  0  0  0  0  0  0  0  0  0  0
   64.6640   32.1510   50.3580 N   0  0  0  0  0  0  0  0  0  0  0  0
   63.5980   32.7740   49.6220 C   0  0  0  0  0  0  0  0  0  0  0  0
   63.7550   33.0830   48.2610 C   0  0  0  0  0  0  0  0  0  0  0  0
   62.7220   33.6980   47.5490 C   0  0  0  0  0  0  0  0  0  0  0  0
   61.5160   34.0200   48.1890 C   0  0  0  0  0  0  0  0  0  0  0  0
   60.3930   34.6570   47.4150 C   0  0  0  0  0  0  0  0  0  0  0  0
   59.6120   33.6110   46.6650 C   0  0  0  0  0  0  0  0  0  0  0  0
   58.5820   33.9860   45.7890 C   0  0  0  0  0  0  0  0  0  0  0  0
   57.8770   33.0140   45.0740 C   0  0  0  0  0  0  0  0  0  0  0  0
   58.1880   31.6560   45.2210 C   0  0  0  0  0  0  0  0  0  0  0  0
   57.4750   30.6690   44.4560 N   0  0  0  0  0  0  0  0  0  0  0  0
   56.8240   30.9350   43.1810 C   0  0  0  0  0  0  0  0  0  0  0  0
   56.5350   29.5360   42.6070 C   0  0  0  0  0  0  0  0  0  0  0  0
   57.0070   28.6130   43.6270 N   0  0  0  0  0  0  0  0  0  0  0  0
   57.5140   29.2600   44.6150 C   0  0  0  0  0  0  0  0  0  0  0  0
   57.9640   28.6060   45.8030 N   0  0  0  0  0  0  0  0  0  0  0  0
   59.2390   31.2840   46.0750 C   0  0  0  0  0  0  0  0  0  0  0  0
   59.9440   32.2540   46.7940 C   0  0  0  0  0  0  0  0  0  0  0  0
   61.3500   33.6980   49.5440 C   0  0  0  0  0  0  0  0  0  0  0  0
   62.3860   33.0860   50.2560 C   0  0  0  0  0  0  0  0  0  0  0  0
   65.9410   32.7070   50.6850 C   0  0  0  0  0  0  0  0  0  0  0  0
   66.3400   33.8440   50.3170 O   0  0  0  0  0  0  0  0  0  0  0  0
   65.5039   28.0125   53.4991 H   0  0  0  0  0  0  0  0  0  0  0  0
   64.6660   28.3726   51.9515 H   0  0  0  0  0  0  0  0  0  0  0  0
   66.1678   27.3871   51.9515 H   0  0  0  0  0  0  0  0  0  0  0  0
   68.1873   28.7065   53.3622 H   0  0  0  0  0  0  0  0  0  0  0  0
   69.5437   30.7905   53.0937 H   0  0  0  0  0  0  0  0  0  0  0  0
   68.6034   32.7629   51.8442 H   0  0  0  0  0  0  0  0  0  0  0  0
   64.6988   32.8389   47.7515 H   0  0  0  0  0  0  0  0  0  0  0  0
   62.8550   33.9306   46.4821 H   0  0  0  0  0  0  0  0  0  0  0  0
   59.7220   35.1787   48.1133 H   0  0  0  0  0  0  0  0  0  0  0  0
   60.8173   35.3706   46.6934 H   0  0  0  0  0  0  0  0  0  0  0  0
   58.3285   35.0491   45.6646 H   0  0  0  0  0  0  0  0  0  0  0  0
   57.0710   33.3179   44.3899 H   0  0  0  0  0  0  0  0  0  0  0  0
   55.8899   31.4967   43.3293 H   0  0  0  0  0  0  0  0  0  0  0  0
   57.4449   31.5464   42.5097 H   0  0  0  0  0  0  0  0  0  0  0  0
   55.4570   29.4034   42.4329 H   0  0  0  0  0  0  0  0  0  0  0  0
   57.0298   29.3736   41.6381 H   0  0  0  0  0  0  0  0  0  0  0  0
   56.9220   27.5730   43.5760 H   0  0  0  0  0  0  0  0  0  0  0  0
   58.2060   29.1530   46.6580 H   0  0  0  0  0  0  0  0  0  0  0  0
   57.9800   27.5640   45.8560 H   0  0  0  0  0  0  0  0  0  0  0  0
   59.5093   30.2228   46.1789 H   0  0  0  0  0  0  0  0  0  0  0  0
   60.7626   31.9518   47.4638 H   0  0  0  0  0  0  0  0  0  0  0  0
   60.4002   33.9281   50.0489 H   0  0  0  0  0  0  0  0  0  0  0  0
   62.2498   32.8474   51.3211 H   0  0  0  0  0  0  0  0  0  0  0  0
  1  2  1  0
  2  3  2  0
  3  4  1  0
  4  5  2  0
  5  6  1  0
  6  7  2  0
  7  8  1  0
  8  9  2  0
  8 10  1  0
 10 11  1  0
 11 12  2  0
 12 13  1  0
 13 14  2  0
 14 15  1  0
 15 16  1  0
 16 17  2  0
 17 18  1  0
 18 19  2  0
 19 20  1  0
 20 21  1  0
 21 22  1  0
 22 23  1  0
 23 24  2  0
 24 25  1  0
 19 26  1  0
 26 27  2  0
 14 28  1  0
 28 29  2  0
 10 30  1  0
 30 31  2  0
  7  2  1  0
 29 11  1  0
 30  6  1  0
 27 16  1  0
 24 20  1  0
  1 32  1  0
  1 33  1  0
  1 34  1  0
  3 35  1  0
  4 36  1  0
  5 37  1  0
 12 38  1  0
 13 39  1  0
 15 40  1  0
 15 41  1  0
 17 42  1  0
 18 43  1  0
 21 44  1  0
 21 45  1  0
 22 46  1  0
 22 47  1  0
 23 48  1  0
 25 49  1  0
 25 50  1  0
 26 51  1  0
 27 52  1  0
 28 53  1  0
 29 54  1  0
M  CHG  1  23   1
M  END
>  <UniqueID>  (80) 
73

>  <SMILES>  (80) 
Cc1cccc2c1C(=O)N(c1ccc(Cc3ccc(N4CC[NH+]=C4N)cc3)cc1)C2=O

>  <Energy>  (80) 
109.61440631254393

>  <Genealogy>  (80) 
Cc1cccc2c1C(=O)N(c1ccc(Cc3ccc(N4CC[NH+]=C4N)cc3)cc1)C2=O (protonated)
Cc1cccc2c1C(=O)N(c1ccc(Cc3ccc(N4CC[NH+]=C4N)cc3)cc1)C2=O (3D coordinates assigned)
Cc1cccc2c1C(=O)N(c1ccc(Cc3ccc(N4CC[NH+]=C4N)cc3)cc1)C2=O (nonaromatic ring conformer: 109.61440631254393 kcal/mol)

>  <smiles>  (80) 
Cc1cccc2c1C(=O)N(c1ccc(Cc3ccc(N4CCN=C4N)cc3)cc1)C2=O

>  <score_type>  (80) 
oracle

>  <origin>  (80) 
adg

>  <m_score__min__energy>  (80) 
-7.71

>  <m_primary>  (80) 
energy

$$$$
80:0
     RDKit          3D

 61 64  0  0  0  0  0  0  0  0999 V2000
   58.3060   29.6960   47.4380 O   0  0  0  0  0  0  0  0  0  0  0  0
   59.0710   30.7040   47.4480 C   0  0  0  0  0  0  0  0  0  0  0  0
   60.1430   30.7490   48.4000 N   0  0  0  0  0  0  0  0  0  0  0  0
   59.9760   30.9620   49.8400 C   0  0  1  0  0  0  0  0  0  0  0  0
   60.8330   32.1420   50.3260 C   0  0  0  0  0  0  0  0  0  0  0  0
   61.8640   32.4840   49.3440 N   0  0  0  0  0  0  0  0  0  0  0  0
   61.9520   33.6160   48.6260 C   0  0  0  0  0  0  0  0  0  0  0  0
   63.0290   33.4910   47.7750 C   0  0  0  0  0  0  0  0  0  0  0  0
   63.6100   32.2850   47.9530 N   0  0  0  0  0  0  0  0  0  0  0  0
   62.8700   31.6950   48.9180 C   0  0  0  0  0  0  0  0  0  0  0  0
   58.5220   31.2280   50.1130 C   0  0  0  0  0  0  0  0  0  0  0  0
   57.9960   32.3040   49.7160 O   0  0  0  0  0  0  0  0  0  0  0  0
   57.7580   30.2840   50.8670 N   0  0  0  0  0  0  0  0  0  0  0  0
   57.2680   30.5370   52.2160 C   0  0  0  0  0  0  0  0  0  0  0  0
   55.8190   30.1320   52.3420 C   0  0  0  0  0  0  0  0  0  0  0  0
   54.8320   30.8620   51.6560 C   0  0  0  0  0  0  0  0  0  0  0  0
   53.4880   30.4860   51.7350 C   0  0  0  0  0  0  0  0  0  0  0  0
   53.1150   29.3780   52.5000 C   0  0  0  0  0  0  0  0  0  0  0  0
   54.0840   28.6400   53.1820 C   0  0  0  0  0  0  0  0  0  0  0  0
   55.4320   29.0090   53.1080 C   0  0  0  0  0  0  0  0  0  0  0  0
   56.6120   28.0280   53.9740 Cl  0  0  0  0  0  0  0  0  0  0  0  0
   58.7920   31.8310   46.5350 C   0  0  0  0  0  0  0  0  0  0  0  0
   59.5060   33.0280   46.6920 C   0  0  0  0  0  0  0  0  0  0  0  0
   59.1980   34.1450   45.9120 C   0  0  0  0  0  0  0  0  0  0  0  0
   58.1590   34.0860   44.9940 C   0  0  0  0  0  0  0  0  0  0  0  0
   57.4200   32.9110   44.8420 C   0  0  0  0  0  0  0  0  0  0  0  0
   57.7340   31.7670   45.6000 C   0  0  0  0  0  0  0  0  0  0  0  0
   57.0240   30.5280   45.4290 N   0  0  0  0  0  0  0  0  0  0  0  0
   56.4770   29.8160   43.9420 S   0  0  0  0  0  0  0  0  0  0  0  0
   56.4740   30.8460   42.8360 O   0  0  0  0  0  0  0  0  0  0  0  0
   55.0670   29.3420   44.1440 O   0  0  0  0  0  0  0  0  0  0  0  0
   57.4750   28.3950   43.4940 C   0  0  0  0  0  0  0  0  0  0  0  0
   58.4960   28.0800   44.5520 C   0  0  0  0  0  0  0  0  0  0  0  0
   59.7570   28.7150   44.5380 C   0  0  0  0  0  0  0  0  0  0  0  0
   60.7080   28.4090   45.5180 C   0  0  0  0  0  0  0  0  0  0  0  0
   60.4120   27.4660   46.5110 C   0  0  0  0  0  0  0  0  0  0  0  0
   59.1720   26.8230   46.5180 C   0  0  0  0  0  0  0  0  0  0  0  0
   58.2130   27.1300   45.5460 C   0  0  0  0  0  0  0  0  0  0  0  0
   60.3079   30.0654   50.3841 H   0  0  0  0  0  0  0  0  0  0  0  0
   60.1841   33.0159   50.4849 H   0  0  0  0  0  0  0  0  0  0  0  0
   61.3272   31.8517   51.2649 H   0  0  0  0  0  0  0  0  0  0  0  0
   61.2842   34.4867   48.7034 H   0  0  0  0  0  0  0  0  0  0  0  0
   63.3641   34.2568   47.0599 H   0  0  0  0  0  0  0  0  0  0  0  0
   63.0664   30.6864   49.3106 H   0  0  0  0  0  0  0  0  0  0  0  0
   57.8685   29.9578   52.9329 H   0  0  0  0  0  0  0  0  0  0  0  0
   57.3542   31.6130   52.4276 H   0  0  0  0  0  0  0  0  0  0  0  0
   55.1198   31.7356   51.0526 H   0  0  0  0  0  0  0  0  0  0  0  0
   52.7233   31.0630   51.1944 H   0  0  0  0  0  0  0  0  0  0  0  0
   52.0562   29.0868   52.5650 H   0  0  0  0  0  0  0  0  0  0  0  0
   53.7871   27.7655   53.7796 H   0  0  0  0  0  0  0  0  0  0  0  0
   60.3148   33.0876   47.4352 H   0  0  0  0  0  0  0  0  0  0  0  0
   59.7793   35.0719   46.0255 H   0  0  0  0  0  0  0  0  0  0  0  0
   57.9166   34.9684   44.3836 H   0  0  0  0  0  0  0  0  0  0  0  0
   56.5865   32.8790   44.1249 H   0  0  0  0  0  0  0  0  0  0  0  0
   56.8167   27.5236   43.3625 H   0  0  0  0  0  0  0  0  0  0  0  0
   58.0078   28.6293   42.5606 H   0  0  0  0  0  0  0  0  0  0  0  0
   59.9923   29.4514   43.7555 H   0  0  0  0  0  0  0  0  0  0  0  0
   61.6878   28.9088   45.5087 H   0  0  0  0  0  0  0  0  0  0  0  0
   61.1568   27.2318   47.2859 H   0  0  0  0  0  0  0  0  0  0  0  0
   58.9484   26.0725   47.2904 H   0  0  0  0  0  0  0  0  0  0  0  0
   57.2355   26.6258   45.5610 H   0  0  0  0  0  0  0  0  0  0  0  0
  1  2  2  0
  2  3  1  0
  3  4  1  0
  4  5  1  0
  5  6  1  0
  6  7  1  0
  7  8  2  0
  8  9  1  0
  9 10  2  0
  4 11  1  0
 11 12  2  0
 11 13  1  0
 13 14  1  0
 14 15  1  0
 15 16  2  0
 16 17  1  0
 17 18  2  0
 18 19  1  0
 19 20  2  0
 20 21  1  0
  2 22  1  0
 22 23  2  0
 23 24  1  0
 24 25  2  0
 25 26  1  0
 26 27  2  0
 27 28  1  0
 28 29  1  0
 29 30  2  0
 29 31  2  0
 29 32  1  0
 32 33  1  0
 33 34  2  0
 34 35  1  0
 35 36  2  0
 36 37  1  0
 37 38  2  0
 10  6  1  0
 20 15  1  0
 27 22  1  0
 38 33  1  0
  4 39  1  1
  5 40  1  0
  5 41  1  0
  7 42  1  0
  8 43  1  0
 10 44  1  0
 14 45  1  0
 14 46  1  0
 16 47  1  0
 17 48  1  0
 18 49  1  0
 19 50  1  0
 23 51  1  0
 24 52  1  0
 25 53  1  0
 26 54  1  0
 32 55  1  0
 32 56  1  0
 34 57  1  0
 35 58  1  0
 36 59  1  0
 37 60  1  0
 38 61  1  0
M  CHG  3   3  -1  13  -1  28  -1
M  END
>  <UniqueID>  (81) 
74

>  <SMILES>  (81) 
O=C([N-][C@@H](Cn1ccnc1)C(=O)[N-]Cc1ccccc1Cl)c1ccccc1[N-]S(=O)(=O)Cc1ccccc1

>  <Energy>  (81) 
97.06248679289503

>  <Genealogy>  (81) 
O=C([N-]C(Cn1ccnc1)C(=O)[N-]Cc1ccccc1Cl)c1ccccc1[N-]S(=O)(=O)Cc1ccccc1 (protonated)
O=C([N-][C@@H](Cn1ccnc1)C(=O)[N-]Cc1ccccc1Cl)c1ccccc1[N-]S(=O)(=O)Cc1ccccc1 (chirality)
O=C([N-][C@@H](Cn1ccnc1)C(=O)[N-]Cc1ccccc1Cl)c1ccccc1[N-]S(=O)(=O)Cc1ccccc1 (3D coordinates assigned)
O=C([N-][C@@H](Cn1ccnc1)C(=O)[N-]Cc1ccccc1Cl)c1ccccc1[N-]S(=O)(=O)Cc1ccccc1 (optimized conformer: 97.06248679289503 kcal/mol)

>  <smiles>  (81) 
O=C(NC(Cn1ccnc1)C(=O)NCc1ccccc1Cl)c1ccccc1NS(=O)(=O)Cc1ccccc1

>  <score_type>  (81) 
oracle

>  <origin>  (81) 
adg

>  <m_score__min__energy>  (81) 
-16.059999999999999

>  <m_primary>  (81) 
energy

$$$$
81:0
     RDKit          3D

 63 66  0  0  0  0  0  0  0  0999 V2000
   59.6650   33.7400   50.4310 C   0  0  0  0  0  0  0  0  0  0  0  0
   59.8400   34.2650   49.0120 C   0  0  0  0  0  0  0  0  0  0  0  0
   59.8600   33.1390   48.0220 C   0  0  0  0  0  0  0  0  0  0  0  0
   58.6120   32.7960   46.9440 S   0  0  0  0  0  0  0  0  0  0  0  0
   59.4570   31.5500   46.1830 C   0  0  0  0  0  0  0  0  0  0  0  0
   59.0240   30.7780   45.2270 N   0  0  0  0  0  0  0  0  0  0  0  0
   57.9670   31.0130   44.2820 C   0  0  0  0  0  0  0  0  0  0  0  0
   57.9520   32.1100   43.6650 O   0  0  0  0  0  0  0  0  0  0  0  0
   56.8200   30.0580   44.0710 C   0  0  0  0  0  0  0  0  0  0  0  0
   57.2020   28.6360   44.3620 C   0  0  0  0  0  0  0  0  0  0  0  0
   58.0330   27.8210   43.5940 C   0  0  0  0  0  0  0  0  0  0  0  0
   58.1220   26.5100   44.0750 C   0  0  0  0  0  0  0  0  0  0  0  0
   57.3390   26.2890   45.1990 C   0  0  0  0  0  0  0  0  0  0  0  0
   57.1840   24.7630   46.0570 S   0  0  0  0  0  0  0  0  0  0  0  0
   58.4910   24.4480   46.7300 O   0  0  0  0  0  0  0  0  0  0  0  0
   56.1310   24.9090   47.1210 O   0  0  0  0  0  0  0  0  0  0  0  0
   56.7480   23.4560   44.9850 N   0  0  0  0  0  0  0  0  0  0  0  0
   57.9240   22.6300   44.6770 C   0  0  0  0  0  0  0  0  0  0  0  0
   57.5310   21.4810   43.7230 C   0  0  0  0  0  0  0  0  0  0  0  0
   56.1900   21.5900   43.2780 O   0  0  0  0  0  0  0  0  0  0  0  0
   55.9800   22.8650   42.7000 C   0  0  0  0  0  0  0  0  0  0  0  0
   56.1540   23.9860   43.7460 C   0  0  0  0  0  0  0  0  0  0  0  0
   56.5410   27.7100   45.6040 S   0  0  0  0  0  0  0  0  0  0  0  0
   60.6770   31.3860   46.7380 N   0  0  0  0  0  0  0  0  0  0  0  0
   60.9170   32.2640   47.7500 C   0  0  0  0  0  0  0  0  0  0  0  0
   62.2040   32.2760   48.4760 C   0  0  0  0  0  0  0  0  0  0  0  0
   62.3730   31.4880   49.6410 C   0  0  0  0  0  0  0  0  0  0  0  0
   61.2670   30.6050   50.1620 C   0  0  0  0  0  0  0  0  0  0  0  0
   63.5900   31.5390   50.3390 C   0  0  0  0  0  0  0  0  0  0  0  0
   64.6540   32.3150   49.8660 C   0  0  0  0  0  0  0  0  0  0  0  0
   65.9400   32.3820   50.6370 C   0  0  0  0  0  0  0  0  0  0  0  0
   64.4930   33.0750   48.7010 C   0  0  0  0  0  0  0  0  0  0  0  0
   63.2790   33.0600   47.9970 C   0  0  0  0  0  0  0  0  0  0  0  0
   63.1590   33.8560   46.7230 C   0  0  0  0  0  0  0  0  0  0  0  0
   59.9284   34.5302   51.1494 H   0  0  0  0  0  0  0  0  0  0  0  0
   58.6180   33.4393   50.5842 H   0  0  0  0  0  0  0  0  0  0  0  0
   60.3222   32.8713   50.5842 H   0  0  0  0  0  0  0  0  0  0  0  0
   59.0051   34.9400   48.7725 H   0  0  0  0  0  0  0  0  0  0  0  0
   60.7983   34.8018   48.9522 H   0  0  0  0  0  0  0  0  0  0  0  0
   55.9931   30.3456   44.7370 H   0  0  0  0  0  0  0  0  0  0  0  0
   56.5231   30.1171   43.0135 H   0  0  0  0  0  0  0  0  0  0  0  0
   58.5658   28.1738   42.6987 H   0  0  0  0  0  0  0  0  0  0  0  0
   58.7482   25.7344   43.6099 H   0  0  0  0  0  0  0  0  0  0  0  0
   58.6917   23.2548   44.1971 H   0  0  0  0  0  0  0  0  0  0  0  0
   58.3185   22.2032   45.6109 H   0  0  0  0  0  0  0  0  0  0  0  0
   58.1975   21.5032   42.8482 H   0  0  0  0  0  0  0  0  0  0  0  0
   57.6276   20.5349   44.2758 H   0  0  0  0  0  0  0  0  0  0  0  0
   56.7070   23.0154   41.8883 H   0  0  0  0  0  0  0  0  0  0  0  0
   54.9517   22.9069   42.3116 H   0  0  0  0  0  0  0  0  0  0  0  0
   56.8129   24.7646   43.3342 H   0  0  0  0  0  0  0  0  0  0  0  0
   55.1651   24.4068   43.9804 H   0  0  0  0  0  0  0  0  0  0  0  0
   61.3640   30.6610   46.4250 H   0  0  0  0  0  0  0  0  0  0  0  0
   61.2781   30.6139   51.2619 H   0  0  0  0  0  0  0  0  0  0  0  0
   60.2977   30.9804   49.8021 H   0  0  0  0  0  0  0  0  0  0  0  0
   61.4185   29.5767   49.8021 H   0  0  0  0  0  0  0  0  0  0  0  0
   63.7085   30.9624   51.2683 H   0  0  0  0  0  0  0  0  0  0  0  0
   65.7221   32.3706   51.7152 H   0  0  0  0  0  0  0  0  0  0  0  0
   66.5669   31.5153   50.3805 H   0  0  0  0  0  0  0  0  0  0  0  0
   66.4734   33.3092   50.3805 H   0  0  0  0  0  0  0  0  0  0  0  0
   65.3273   33.6906   48.3335 H   0  0  0  0  0  0  0  0  0  0  0  0
   62.9991   34.9166   46.9670 H   0  0  0  0  0  0  0  0  0  0  0  0
   64.0833   33.7501   46.1360 H   0  0  0  0  0  0  0  0  0  0  0  0
   62.3070   33.4823   46.1360 H   0  0  0  0  0  0  0  0  0  0  0  0
  1  2  1  0
  2  3  1  0
  3  4  1  0
  4  5  1  0
  5  6  2  3
  6  7  1  0
  7  8  2  0
  7  9  1  0
  9 10  1  0
 10 11  2  0
 11 12  1  0
 12 13  2  0
 13 14  1  0
 14 15  2  0
 14 16  2  0
 14 17  1  0
 17 18  1  0
 18 19  1  0
 19 20  1  0
 20 21  1  0
 21 22  1  0
 13 23  1  0
  5 24  1  0
 24 25  1  0
 25 26  1  0
 26 27  2  0
 27 28  1  0
 27 29  1  0
 29 30  2  0
 30 31  1  0
 30 32  1  0
 32 33  2  0
 33 34  1  0
 25  3  2  0
 33 26  1  0
 23 10  1  0
 22 17  1  0
  1 35  1  0
  1 36  1  0
  1 37  1  0
  2 38  1  0
  2 39  1  0
  9 40  1  0
  9 41  1  0
 11 42  1  0
 12 43  1  0
 18 44  1  0
 18 45  1  0
 19 46  1  0
 19 47  1  0
 21 48  1  0
 21 49  1  0
 22 50  1  0
 22 51  1  0
 24 52  1  0
 28 53  1  0
 28 54  1  0
 28 55  1  0
 29 56  1  0
 31 57  1  0
 31 58  1  0
 31 59  1  0
 32 60  1  0
 34 61  1  0
 34 62  1  0
 34 63  1  0
M  END
>  <UniqueID>  (82) 
75

>  <SMILES>  (82) 
CCc1sc(=NC(=O)Cc2ccc(S(=O)(=O)N3CCOCC3)s2)[nH]c1-c1c(C)cc(C)cc1C

>  <Energy>  (82) 
135.75217986005933

>  <Genealogy>  (82) 
CCc1sc(=NC(=O)Cc2ccc(S(=O)(=O)N3CCOCC3)s2)[nH]c1-c1c(C)cc(C)cc1C (3D coordinates assigned)
CCc1sc(=NC(=O)Cc2ccc(S(=O)(=O)N3CCOCC3)s2)[nH]c1-c1c(C)cc(C)cc1C (nonaromatic ring conformer: 135.75217986005933 kcal/mol)

>  <smiles>  (82) 
CCc1sc(=NC(=O)Cc2ccc(S(=O)(=O)N3CCOCC3)s2)[nH]c1-c1c(C)cc(C)cc1C

>  <score_type>  (82) 
oracle

>  <origin>  (82) 
adg

>  <m_score__min__energy>  (82) 
-10.09

>  <m_primary>  (82) 
energy

$$$$
82:0
     RDKit          3D

 54 57  0  0  0  0  0  0  0  0999 V2000
   61.4806   25.6663   48.0675 H   0  0  0  0  0  0  0  0  0  0  0  0
   60.7230   26.3710   47.6940 C   0  0  0  0  0  0  0  0  0  0  0  0
   60.1940   27.3040   48.5280 N   0  0  0  0  0  0  0  0  0  0  0  0
   59.2490   28.1880   48.1080 C   0  0  0  0  0  0  0  0  0  0  0  0
   58.5780   29.3690   49.2780 S   0  0  0  0  0  0  0  0  0  0  0  0
   60.0910   30.3220   49.3000 C   0  0  0  0  0  0  0  0  0  0  0  0
   61.3380   30.1730   48.1840 S   0  0  0  0  0  0  0  0  0  0  0  0
   62.2840   31.3430   48.9570 C   0  0  0  0  0  0  0  0  0  0  0  0
   63.4640   31.7510   48.5910 N   0  0  0  0  0  0  0  0  0  0  0  0
   64.0500   33.0500   48.7840 C   0  0  0  0  0  0  0  0  0  0  0  0
   64.0990   33.8730   47.8280 O   0  0  0  0  0  0  0  0  0  0  0  0
   64.5890   33.4380   50.1170 C   0  0  0  0  0  0  0  0  0  0  0  0
   65.9020   33.0800   50.5040 C   0  0  0  0  0  0  0  0  0  0  0  0
   66.7120   32.3660   49.6850 F   0  0  0  0  0  0  0  0  0  0  0  0
   66.3920   33.4440   51.7640 C   0  0  0  0  0  0  0  0  0  0  0  0
   67.4158   33.1651   52.0538 H   0  0  0  0  0  0  0  0  0  0  0  0
   65.5900   34.1580   52.6540 C   0  0  0  0  0  0  0  0  0  0  0  0
   65.9800   34.4365   53.6441 H   0  0  0  0  0  0  0  0  0  0  0  0
   64.2960   34.5180   52.2890 C   0  0  0  0  0  0  0  0  0  0  0  0
   63.6660   35.0817   52.9929 H   0  0  0  0  0  0  0  0  0  0  0  0
   63.7920   34.1670   51.0320 C   0  0  0  0  0  0  0  0  0  0  0  0
   62.5280   34.5520   50.7160 F   0  0  0  0  0  0  0  0  0  0  0  0
   61.6640   31.8430   50.0490 N   0  0  0  0  0  0  0  0  0  0  0  0
   60.4430   31.2780   50.2430 C   0  0  0  0  0  0  0  0  0  0  0  0
   59.7862   31.5561   51.0804 H   0  0  0  0  0  0  0  0  0  0  0  0
   58.7930   28.1580   46.7810 C   0  0  0  0  0  0  0  0  0  0  0  0
   57.8430   29.1030   46.3630 O   0  0  0  0  0  0  0  0  0  0  0  0
   58.1310   30.3660   45.8320 C   0  0  0  0  0  0  0  0  0  0  0  0
   59.2770   30.8760   45.9630 O   0  0  0  0  0  0  0  0  0  0  0  0
   57.1200   31.0500   45.0880 N   0  0  0  0  0  0  0  0  0  0  0  0
   57.3490   32.2950   44.3640 C   0  0  0  0  0  0  0  0  0  0  0  0
   58.4113   32.3636   44.0870 H   0  0  0  0  0  0  0  0  0  0  0  0
   56.7226   32.3036   43.4598 H   0  0  0  0  0  0  0  0  0  0  0  0
   56.9760   33.4970   45.2410 C   0  0  0  0  0  0  0  0  0  0  0  0
   56.0333   33.9257   44.8702 H   0  0  0  0  0  0  0  0  0  0  0  0
   56.8765   33.1386   46.2762 H   0  0  0  0  0  0  0  0  0  0  0  0
   58.0540   34.5900   45.2260 C   0  0  0  0  0  0  0  0  0  0  0  0
   58.4546   34.6788   44.2054 H   0  0  0  0  0  0  0  0  0  0  0  0
   57.5872   35.5300   45.5553 H   0  0  0  0  0  0  0  0  0  0  0  0
   59.1900   34.2810   46.1690 C   0  0  0  0  0  0  0  0  0  0  0  0
   60.4210   33.8300   45.6680 C   0  0  0  0  0  0  0  0  0  0  0  0
   60.5690   33.7121   44.5844 H   0  0  0  0  0  0  0  0  0  0  0  0
   61.4570   33.5320   46.5570 C   0  0  0  0  0  0  0  0  0  0  0  0
   62.4256   33.1810   46.1714 H   0  0  0  0  0  0  0  0  0  0  0  0
   61.2730   33.6740   47.8970 N   0  0  0  0  0  0  0  0  0  0  0  0
   62.0570   33.4460   48.5470 H   0  0  0  0  0  0  0  0  0  0  0  0
   60.0870   34.1040   48.4070 C   0  0  0  0  0  0  0  0  0  0  0  0
   59.9648   34.2088   49.4952 H   0  0  0  0  0  0  0  0  0  0  0  0
   59.0240   34.4130   47.5550 C   0  0  0  0  0  0  0  0  0  0  0  0
   58.0644   34.7571   47.9681 H   0  0  0  0  0  0  0  0  0  0  0  0
   59.3440   27.2060   45.9040 C   0  0  0  0  0  0  0  0  0  0  0  0
   59.0162   27.1711   44.8546 H   0  0  0  0  0  0  0  0  0  0  0  0
   60.3060   26.3060   46.3640 C   0  0  0  0  0  0  0  0  0  0  0  0
   60.7315   25.5526   45.6848 H   0  0  0  0  0  0  0  0  0  0  0  0
  1  2  1  0
  2  3  2  0
  3  4  1  0
  4  5  1  0
  5  6  1  0
  6  7  1  0
  7  8  1  0
  8  9  2  0
  9 10  1  0
 10 11  2  0
 10 12  1  0
 12 13  2  0
 13 14  1  0
 13 15  1  0
 15 16  1  0
 15 17  2  0
 17 18  1  0
 17 19  1  0
 19 20  1  0
 19 21  2  0
 21 22  1  0
  8 23  1  0
 23 24  1  0
 24 25  1  0
  4 26  2  0
 26 27  1  0
 27 28  1  0
 28 29  2  0
 28 30  1  0
 30 31  1  0
 31 32  1  0
 31 33  1  0
 31 34  1  0
 34 35  1  0
 34 36  1  0
 34 37  1  0
 37 38  1  0
 37 39  1  0
 37 40  1  0
 40 41  2  0
 41 42  1  0
 41 43  1  0
 43 44  1  0
 43 45  2  0
 45 46  1  0
 45 47  1  0
 47 48  1  0
 47 49  2  0
 49 50  1  0
 26 51  1  0
 51 52  1  0
 51 53  2  0
 53 54  1  0
 53  2  1  0
 24  6  2  0
 49 40  1  0
 21 12  1  0
M  CHG  3  23  -1  30  -1  45   1
M  END
>  <UniqueID>  (83) 
76

>  <SMILES>  (83) 
O=C([N-]CCCc1cc[nH+]cc1)Oc1cccnc1Sc1c[n-]/c(=N/C(=O)c2c(F)cccc2F)s1

>  <Energy>  (83) 
91.3361440593831

>  <Genealogy>  (83) 
O=C([N-]CCCc1cc[nH+]cc1)Oc1cccnc1Sc1c[n-]c(=NC(=O)c2c(F)cccc2F)s1 (protonated)
O=C([N-]CCCc1cc[nH+]cc1)Oc1cccnc1Sc1c[n-]/c(=N/C(=O)c2c(F)cccc2F)s1 (cis-trans isomerization)
O=C([N-]CCCc1cc[nH+]cc1)Oc1cccnc1Sc1c[n-]/c(=N/C(=O)c2c(F)cccc2F)s1 (3D coordinates assigned)
O=C([N-]CCCc1cc[nH+]cc1)Oc1cccnc1Sc1c[n-]/c(=N/C(=O)c2c(F)cccc2F)s1 (optimized conformer: 91.3361440593831 kcal/mol)

>  <smiles>  (83) 
O=C(NCCCc1ccncc1)Oc1cccnc1Sc1c[nH]c(=NC(=O)c2c(F)cccc2F)s1

>  <score_type>  (83) 
oracle

>  <origin>  (83) 
adg

>  <m_score__min__energy>  (83) 
-11.27

>  <m_primary>  (83) 
energy

$$$$
83:0
     RDKit          3D

 56 58  0  0  1  0  0  0  0  0999 V2000
   56.6320   23.0440   43.3840 C   0  0  0  0  0  0  0  0  0  0  0  0
   56.7520   23.4210   44.8550 C   0  0  0  0  0  0  0  0  0  0  0  0
   55.8250   24.4760   45.1850 N   0  0  0  0  0  0  0  0  0  0  0  0
   54.3990   24.2610   45.0470 C   0  0  0  0  0  0  0  0  0  0  0  0
   53.8760   23.3440   46.1090 C   0  0  0  0  0  0  0  0  0  0  0  0
   56.2990   25.7420   45.6490 C   0  0  0  0  0  0  0  0  0  0  0  0
   55.5170   26.6820   45.9450 O   0  0  0  0  0  0  0  0  0  0  0  0
   57.7530   25.9840   45.7970 C   0  0  0  0  0  0  0  0  0  0  0  0
   58.0900   26.6860   47.0920 C   0  0  0  0  0  0  0  0  0  0  0  0
   58.6900   28.0050   46.7200 C   0  0  0  0  0  0  0  0  0  0  0  0
   57.7490   29.0580   46.4810 N   0  0  0  0  0  0  0  0  0  0  0  0
   57.5620   29.6470   45.3540 C   0  0  0  0  0  0  0  0  0  0  0  0
   56.9600   28.9590   44.3600 N   0  0  0  0  0  0  0  0  0  0  0  0
   56.7830   29.6140   43.1970 C   0  0  0  0  0  0  0  0  0  0  0  0
   56.2280   29.0160   42.2420 O   0  0  0  0  0  0  0  0  0  0  0  0
   57.1820   30.8950   43.0150 N   0  0  0  0  0  0  0  0  0  0  0  0
   56.9850   31.5420   41.8050 O   0  0  0  0  0  0  0  0  0  0  0  0
   57.7880   31.6050   43.9940 C   0  0  0  0  0  0  0  0  0  0  0  0
   58.2010   32.9070   43.8330 C   0  0  0  0  0  0  0  0  0  0  0  0
   58.8150   33.5450   44.9110 C   0  0  0  0  0  0  0  0  0  0  0  0
   59.0020   32.8850   46.1080 C   0  0  0  0  0  0  0  0  0  0  0  0
   59.6080   33.4770   47.2130 O   0  0  0  0  0  0  0  0  0  0  0  0
   60.9930   33.3570   47.3720 C   0  0  0  0  0  0  0  0  0  0  0  0
   61.5020   32.7610   48.5080 C   0  0  0  0  0  0  0  0  0  0  0  0
   62.8730   32.6740   48.6070 C   0  0  0  0  0  0  0  0  0  0  0  0
   63.7270   33.1500   47.6330 C   0  0  0  0  0  0  0  0  0  0  0  0
   63.2090   33.7410   46.5080 C   0  0  0  0  0  0  0  0  0  0  0  0
   61.8210   33.8440   46.3790 C   0  0  0  0  0  0  0  0  0  0  0  0
   58.5840   31.5790   46.2630 C   0  0  0  0  0  0  0  0  0  0  0  0
   57.9770   30.9520   45.1940 C   0  0  0  0  0  0  0  0  0  0  0  0
   56.2994   21.9989   43.2993 H   0  0  0  0  0  0  0  0  0  0  0  0
   55.8992   23.7028   42.8952 H   0  0  0  0  0  0  0  0  0  0  0  0
   57.6108   23.1580   42.8952 H   0  0  0  0  0  0  0  0  0  0  0  0
   56.5311   22.5387   45.4737 H   0  0  0  0  0  0  0  0  0  0  0  0
   57.7756   23.7743   45.0487 H   0  0  0  0  0  0  0  0  0  0  0  0
   53.8826   25.2291   45.1249 H   0  0  0  0  0  0  0  0  0  0  0  0
   54.2138   23.7954   44.0677 H   0  0  0  0  0  0  0  0  0  0  0  0
   54.1123   23.7584   47.1002 H   0  0  0  0  0  0  0  0  0  0  0  0
   52.7856   23.2450   46.0035 H   0  0  0  0  0  0  0  0  0  0  0  0
   54.3459   22.3550   46.0035 H   0  0  0  0  0  0  0  0  0  0  0  0
   58.2766   25.0169   45.7725 H   0  0  0  0  0  0  0  0  0  0  0  0
   58.0712   26.6350   44.9693 H   0  0  0  0  0  0  0  0  0  0  0  0
   57.1789   26.8385   47.6892 H   0  0  0  0  0  0  0  0  0  0  0  0
   58.7886   26.0890   47.6966 H   0  0  0  0  0  0  0  0  0  0  0  0
   59.3527   28.3205   47.5393 H   0  0  0  0  0  0  0  0  0  0  0  0
   59.2152   27.8432   45.7671 H   0  0  0  0  0  0  0  0  0  0  0  0
   56.6590   27.9700   44.5210 H   0  0  0  0  0  0  0  0  0  0  0  0
   56.6150   31.0400   40.9990 H   0  0  0  0  0  0  0  0  0  0  0  0
   58.0509   33.4321   42.8781 H   0  0  0  0  0  0  0  0  0  0  0  0
   59.1539   34.5861   44.8054 H   0  0  0  0  0  0  0  0  0  0  0  0
   60.8427   32.3731   49.2984 H   0  0  0  0  0  0  0  0  0  0  0  0
   63.3065   32.2042   49.5022 H   0  0  0  0  0  0  0  0  0  0  0  0
   64.8159   33.0563   47.7576 H   0  0  0  0  0  0  0  0  0  0  0  0
   63.8744   34.1269   45.7216 H   0  0  0  0  0  0  0  0  0  0  0  0
   61.3867   34.3141   45.4844 H   0  0  0  0  0  0  0  0  0  0  0  0
   58.7312   31.0502   47.2163 H   0  0  0  0  0  0  0  0  0  0  0  0
  1  2  1  0
  2  3  1  0
  3  4  1  0
  4  5  1  0
  3  6  1  0
  6  7  2  0
  6  8  1  0
  8  9  1  0
  9 10  1  0
 10 11  1  0
 11 12  2  0
 12 13  1  0
 13 14  1  0
 14 15  2  0
 14 16  1  0
 16 17  1  0
 16 18  1  0
 18 19  2  0
 19 20  1  0
 20 21  2  0
 21 22  1  0
 22 23  1  0
 23 24  2  0
 24 25  1  0
 25 26  2  0
 26 27  1  0
 27 28  2  0
 21 29  1  0
 29 30  2  0
 30 12  1  0
 30 18  1  0
 28 23  1  0
  1 31  1  0
  1 32  1  0
  1 33  1  0
  2 34  1  0
  2 35  1  0
  4 36  1  0
  4 37  1  0
  5 38  1  0
  5 39  1  0
  5 40  1  0
  8 41  1  0
  8 42  1  0
  9 43  1  0
  9 44  1  0
 10 45  1  0
 10 46  1  0
 13 47  1  0
 17 48  1  0
 19 49  1  0
 20 50  1  0
 24 51  1  0
 25 52  1  0
 26 53  1  0
 27 54  1  0
 28 55  1  0
 29 56  1  0
M  END
>  <smiles>  (84) 
CCN(CC)C(=O)CCCN=c1[nH]c(=O)n(O)c2ccc(Oc3ccccc3)cc12

>  <score_type>  (84) 
oracle

>  <origin>  (84) 
adg

>  <m_score__min__energy>  (84) 
-8.7899999999999991

>  <m_primary>  (84) 
energy

$$$$
84:0
     RDKit          3D

 35 37  0  0  0  0  0  0  0  0999 V2000
   58.1500   32.2530   51.0120 C   0  0  0  0  0  0  0  0  0  0  0  0
   58.2760   32.3790   52.5080 C   0  0  0  0  0  0  0  0  0  0  0  0
   58.6460   33.6200   53.0560 C   0  0  0  0  0  0  0  0  0  0  0  0
   58.7630   33.7790   54.4370 C   0  0  0  0  0  0  0  0  0  0  0  0
   58.5090   32.7060   55.2890 C   0  0  0  0  0  0  0  0  0  0  0  0
   58.1300   31.4700   54.7630 C   0  0  0  0  0  0  0  0  0  0  0  0
   58.0000   31.2910   53.3750 C   0  0  0  0  0  0  0  0  0  0  0  0
   57.5110   29.7040   52.7560 S   0  0  0  0  0  0  0  0  0  0  0  0
   57.2890   29.7940   51.2720 O   0  0  0  0  0  0  0  0  0  0  0  0
   58.5950   28.7110   53.0670 O   0  0  0  0  0  0  0  0  0  0  0  0
   56.0350   29.2030   53.5190 N   0  0  0  0  0  0  0  0  0  0  0  0
   54.7620   29.8710   53.5100 C   0  0  0  0  0  0  0  0  0  0  0  0
   54.3100   30.3660   52.2800 C   0  0  0  0  0  0  0  0  0  0  0  0
   53.0850   31.0390   52.1790 C   0  0  0  0  0  0  0  0  0  0  0  0
   52.6450   31.5370   50.9460 C   0  0  0  0  0  0  0  0  0  0  0  0
   51.4220   32.2060   50.8720 C   0  0  0  0  0  0  0  0  0  0  0  0
   50.9740   32.7050   49.6570 O   0  0  0  0  0  0  0  0  0  0  0  0
   50.6650   32.3680   51.9890 N   0  0  0  0  0  0  0  0  0  0  0  0
   51.0580   31.8990   53.2030 C   0  0  0  0  0  0  0  0  0  0  0  0
   50.3130   32.0810   54.2030 O   0  0  0  0  0  0  0  0  0  0  0  0
   52.2850   31.2170   53.3290 C   0  0  0  0  0  0  0  0  0  0  0  0
   52.7290   30.7100   54.5620 C   0  0  0  0  0  0  0  0  0  0  0  0
   53.9550   30.0330   54.6590 C   0  0  0  0  0  0  0  0  0  0  0  0
   54.3430   29.5180   55.8940 O   0  0  0  0  0  0  0  0  0  0  0  0
   57.3912   31.4941   50.7706 H   0  0  0  0  0  0  0  0  0  0  0  0
   57.8483   33.2215   50.5866 H   0  0  0  0  0  0  0  0  0  0  0  0
   59.1185   31.9514   50.5866 H   0  0  0  0  0  0  0  0  0  0  0  0
   58.8449   34.4727   52.3901 H   0  0  0  0  0  0  0  0  0  0  0  0
   59.0564   34.7536   54.8543 H   0  0  0  0  0  0  0  0  0  0  0  0
   58.6073   32.8332   56.3772 H   0  0  0  0  0  0  0  0  0  0  0  0
   57.9310   30.6274   55.4416 H   0  0  0  0  0  0  0  0  0  0  0  0
   54.9260   30.2243   51.3797 H   0  0  0  0  0  0  0  0  0  0  0  0
   53.2584   31.4020   50.0430 H   0  0  0  0  0  0  0  0  0  0  0  0
   52.1093   30.8450   55.4608 H   0  0  0  0  0  0  0  0  0  0  0  0
   55.1950   28.9830   56.0060 H   0  0  0  0  0  0  0  0  0  0  0  0
  1  2  1  0
  2  3  2  0
  3  4  1  0
  4  5  2  0
  5  6  1  0
  6  7  2  0
  7  8  1  0
  8  9  2  0
  8 10  2  0
  8 11  1  0
 11 12  1  0
 12 13  2  0
 13 14  1  0
 14 15  1  0
 15 16  2  0
 16 17  1  0
 16 18  1  0
 18 19  1  0
 19 20  2  0
 19 21  1  0
 21 22  1  0
 22 23  2  0
 23 24  1  0
  7  2  1  0
 23 12  1  0
 21 14  2  0
  1 25  1  0
  1 26  1  0
  1 27  1  0
  3 28  1  0
  4 29  1  0
  5 30  1  0
  6 31  1  0
 13 32  1  0
 15 33  1  0
 22 34  1  0
 24 35  1  0
M  CHG  3  11  -1  17  -1  18  -1
M  END
>  <UniqueID>  (85) 
77

>  <SMILES>  (85) 
Cc1ccccc1S(=O)(=O)[N-]c1cc2cc([O-])[n-]c(=O)c2cc1O

>  <Energy>  (85) 
51.84928402778185

>  <Genealogy>  (85) 
Cc1ccccc1S(=O)(=O)[N-]c1cc2cc([O-])[n-]c(=O)c2cc1O (protonated)
Cc1ccccc1S(=O)(=O)[N-]c1cc2cc([O-])[n-]c(=O)c2cc1O (3D coordinates assigned)
Cc1ccccc1S(=O)(=O)[N-]c1cc2cc([O-])[n-]c(=O)c2cc1O (optimized conformer: 51.84928402778185 kcal/mol)

>  <smiles>  (85) 
Cc1ccccc1S(=O)(=O)Nc1cc2cc(O)[nH]c(=O)c2cc1O

>  <score_type>  (85) 
oracle

>  <origin>  (85) 
adg

>  <m_score__min__energy>  (85) 
-14.32

>  <m_primary>  (85) 
energy

$$$$
85:0
     RDKit          3D

 58 62  0  0  0  0  0  0  0  0999 V2000
   59.0842   32.0231   50.4442 H   0  0  0  0  0  0  0  0  0  0  0  0
   59.1750   32.7320   49.6080 C   0  0  0  0  0  0  0  0  0  0  0  0
   58.2830   32.6900   48.5810 N   0  0  0  0  0  0  0  0  0  0  0  0
   58.3610   33.5380   47.5170 C   0  0  0  0  0  0  0  0  0  0  0  0
   57.3850   33.4130   46.4680 N   0  0  0  0  0  0  0  0  0  0  0  0
   57.5580   32.8750   45.2940 C   0  0  0  0  0  0  0  0  0  0  0  0
   56.8690   31.8050   44.8390 N   0  0  0  0  0  0  0  0  0  0  0  0
   57.2030   31.5130   43.5560 C   0  0  0  0  0  0  0  0  0  0  0  0
   56.4070   30.1850   42.6580 S   0  0  0  0  0  0  0  0  0  0  0  0
   57.0430   28.9530   43.7930 C   0  0  0  0  0  0  0  0  0  0  0  0
   57.7700   27.8640   43.3010 C   0  0  0  0  0  0  0  0  0  0  0  0
   57.9235   27.7517   42.2176 H   0  0  0  0  0  0  0  0  0  0  0  0
   58.3010   26.9200   44.1800 C   0  0  0  0  0  0  0  0  0  0  0  0
   58.8799   26.0704   43.7887 H   0  0  0  0  0  0  0  0  0  0  0  0
   58.0980   27.0520   45.5650 C   0  0  0  0  0  0  0  0  0  0  0  0
   58.5980   26.0770   46.4900 N   0  0  0  0  0  0  0  0  0  0  0  0
   57.8530   24.9720   47.0280 C   0  0  0  0  0  0  0  0  0  0  0  0
   57.7900   24.8350   48.2820 O   0  0  0  0  0  0  0  0  0  0  0  0
   57.1170   24.0210   46.1620 C   0  0  0  0  0  0  0  0  0  0  0  0
   57.7200   22.8010   45.8130 C   0  0  0  0  0  0  0  0  0  0  0  0
   58.7195   22.5563   46.2018 H   0  0  0  0  0  0  0  0  0  0  0  0
   57.0630   21.8970   44.9780 C   0  0  0  0  0  0  0  0  0  0  0  0
   57.5459   20.9452   44.7116 H   0  0  0  0  0  0  0  0  0  0  0  0
   55.7970   22.1970   44.4810 C   0  0  0  0  0  0  0  0  0  0  0  0
   55.2856   21.4830   43.8187 H   0  0  0  0  0  0  0  0  0  0  0  0
   55.1690   23.4090   44.8220 C   0  0  0  0  0  0  0  0  0  0  0  0
   53.8210   23.7600   44.2390 C   0  0  0  0  0  0  0  0  0  0  0  0
   53.6290   24.8326   44.3895 H   0  0  0  0  0  0  0  0  0  0  0  0
   53.8240   23.5242   43.1646 H   0  0  0  0  0  0  0  0  0  0  0  0
   52.7530   22.9750   44.9010 N   0  0  0  0  0  0  0  0  0  0  0  0
   53.1740   22.4760   46.2400 C   0  0  0  0  0  0  0  0  0  0  0  0
   53.4513   21.4154   46.1496 H   0  0  0  0  0  0  0  0  0  0  0  0
   54.0237   23.0903   46.5727 H   0  0  0  0  0  0  0  0  0  0  0  0
   52.0590   22.6070   47.2990 C   0  0  0  0  0  0  0  0  0  0  0  0
   52.3184   21.9905   48.1723 H   0  0  0  0  0  0  0  0  0  0  0  0
   51.9715   23.6653   47.5858 H   0  0  0  0  0  0  0  0  0  0  0  0
   50.8130   22.1760   46.7820 O   0  0  0  0  0  0  0  0  0  0  0  0
   50.3970   22.9510   45.6550 C   0  0  0  0  0  0  0  0  0  0  0  0
   49.9712   22.2642   44.9087 H   0  0  0  0  0  0  0  0  0  0  0  0
   49.6745   23.6854   46.0406 H   0  0  0  0  0  0  0  0  0  0  0  0
   51.5130   23.7690   44.9690 C   0  0  0  0  0  0  0  0  0  0  0  0
   51.1951   24.0355   43.9502 H   0  0  0  0  0  0  0  0  0  0  0  0
   51.7013   24.6821   45.5528 H   0  0  0  0  0  0  0  0  0  0  0  0
   55.8180   24.3050   45.6920 C   0  0  0  0  0  0  0  0  0  0  0  0
   55.1590   25.4670   46.0980 O   0  0  0  0  0  0  0  0  0  0  0  0
   57.3980   28.1620   46.0540 C   0  0  0  0  0  0  0  0  0  0  0  0
   57.2709   28.2939   47.1386 H   0  0  0  0  0  0  0  0  0  0  0  0
   56.8600   29.1030   45.1720 C   0  0  0  0  0  0  0  0  0  0  0  0
   56.2929   29.9612   45.5617 H   0  0  0  0  0  0  0  0  0  0  0  0
   58.1450   32.3560   42.9750 C   0  0  0  0  0  0  0  0  0  0  0  0
   58.5336   32.2833   41.9485 H   0  0  0  0  0  0  0  0  0  0  0  0
   58.5840   33.5060   44.1210 S   0  0  0  0  0  0  0  0  0  0  0  0
   59.3670   34.5270   47.4980 C   0  0  0  0  0  0  0  0  0  0  0  0
   59.4201   35.2493   46.6701 H   0  0  0  0  0  0  0  0  0  0  0  0
   60.2960   34.5800   48.5420 C   0  0  0  0  0  0  0  0  0  0  0  0
   61.0968   35.3340   48.5287 H   0  0  0  0  0  0  0  0  0  0  0  0
   60.2060   33.6750   49.6010 C   0  0  0  0  0  0  0  0  0  0  0  0
   60.9387   33.7039   50.4210 H   0  0  0  0  0  0  0  0  0  0  0  0
  1  2  1  0
  2  3  2  0
  3  4  1  0
  4  5  1  0
  5  6  2  0
  6  7  1  0
  7  8  1  0
  8  9  1  0
  9 10  1  0
 10 11  2  0
 11 12  1  0
 11 13  1  0
 13 14  1  0
 13 15  2  0
 15 16  1  0
 16 17  1  0
 17 18  2  0
 17 19  1  0
 19 20  2  0
 20 21  1  0
 20 22  1  0
 22 23  1  0
 22 24  2  0
 24 25  1  0
 24 26  1  0
 26 27  1  0
 27 28  1  0
 27 29  1  0
 27 30  1  0
 30 31  1  0
 31 32  1  0
 31 33  1  0
 31 34  1  0
 34 35  1  0
 34 36  1  0
 34 37  1  0
 37 38  1  0
 38 39  1  0
 38 40  1  0
 38 41  1  0
 41 42  1  0
 41 43  1  0
 26 44  2  0
 44 45  1  0
 15 46  1  0
 46 47  1  0
 46 48  2  0
 48 49  1  0
  8 50  2  0
 50 51  1  0
 50 52  1  0
  4 53  2  0
 53 54  1  0
 53 55  1  0
 55 56  1  0
 55 57  2  0
 57 58  1  0
 57  2  1  0
 52  6  1  0
 48 10  1  0
 44 19  1  0
 41 30  1  0
M  CHG  3   7  -1  16  -1  45  -1
M  END
>  <UniqueID>  (86) 
78

>  <SMILES>  (86) 
O=C([N-]c1ccc(Sc2cs/c(=N/c3ccccn3)[n-]2)cc1)c1cccc(CN2CCOCC2)c1[O-]

>  <Energy>  (86) 
114.50087728002724

>  <Genealogy>  (86) 
O=C([N-]c1ccc(Sc2csc(=Nc3ccccn3)[n-]2)cc1)c1cccc(CN2CCOCC2)c1[O-] (protonated)
O=C([N-]c1ccc(Sc2cs/c(=N/c3ccccn3)[n-]2)cc1)c1cccc(CN2CCOCC2)c1[O-] (cis-trans isomerization)
O=C([N-]c1ccc(Sc2cs/c(=N/c3ccccn3)[n-]2)cc1)c1cccc(CN2CCOCC2)c1[O-] (3D coordinates assigned)
O=C([N-]c1ccc(Sc2cs/c(=N/c3ccccn3)[n-]2)cc1)c1cccc(CN2CCOCC2)c1[O-] (nonaromatic ring conformer: 114.50087728002724 kcal/mol)

>  <smiles>  (86) 
O=C(Nc1ccc(Sc2csc(=Nc3ccccn3)[nH]2)cc1)c1cccc(CN2CCOCC2)c1O

>  <score_type>  (86) 
oracle

>  <origin>  (86) 
adg

>  <m_score__min__energy>  (86) 
-17.23

>  <m_primary>  (86) 
energy

$$$$
86:0
     RDKit          3D

 43 46  0  0  0  0  0  0  0  0999 V2000
   56.9140   29.2800   54.7310 O   0  0  0  0  0  0  0  0  0  0  0  0
   56.0710   29.8050   53.9570 C   0  0  0  0  0  0  0  0  0  0  0  0
   54.7060   29.1740   53.8290 C   0  0  0  0  0  0  0  0  0  0  0  0
   53.7300   30.0870   53.1310 C   0  0  0  0  0  0  0  0  0  0  0  0
   52.6310   30.6160   53.8290 C   0  0  0  0  0  0  0  0  0  0  0  0
   51.7410   31.4840   53.1900 C   0  0  0  0  0  0  0  0  0  0  0  0
   51.9350   31.8240   51.8480 C   0  0  0  0  0  0  0  0  0  0  0  0
   51.0520   32.6920   51.2160 O   0  0  0  0  0  0  0  0  0  0  0  0
   53.0180   31.2910   51.1420 C   0  0  0  0  0  0  0  0  0  0  0  0
   53.9080   30.4200   51.7770 C   0  0  0  0  0  0  0  0  0  0  0  0
   56.4270   31.0120   53.2680 N   0  0  0  0  0  0  0  0  0  0  0  0
   57.4580   31.1380   52.2830 C   0  0  0  0  0  0  0  0  0  0  0  0
   58.3820   32.1990   52.3880 C   0  0  0  0  0  0  0  0  0  0  0  0
   59.3900   32.3710   51.4250 C   0  0  0  0  0  0  0  0  0  0  0  0
   59.4740   31.4600   50.3730 C   0  0  0  0  0  0  0  0  0  0  0  0
   60.3950   31.5210   49.3770 N   0  0  0  0  0  0  0  0  0  0  0  0
   60.2340   30.4950   48.5070 C   0  0  0  0  0  0  0  0  0  0  0  0
   60.9850   30.3660   47.4540 N   0  0  0  0  0  0  0  0  0  0  0  0
   60.5970   29.7390   46.2220 C   0  0  0  0  0  0  0  0  0  0  0  0
   61.4980   29.2990   45.4600 O   0  0  0  0  0  0  0  0  0  0  0  0
   59.1730   29.5340   45.8610 C   0  0  0  0  0  0  0  0  0  0  0  0
   58.4410   30.5720   45.2560 C   0  0  0  0  0  0  0  0  0  0  0  0
   57.1000   30.3810   44.9080 C   0  0  0  0  0  0  0  0  0  0  0  0
   56.4790   29.1530   45.1490 C   0  0  0  0  0  0  0  0  0  0  0  0
   55.1470   28.9690   44.8020 O   0  0  0  0  0  0  0  0  0  0  0  0
   57.2020   28.1100   45.7370 C   0  0  0  0  0  0  0  0  0  0  0  0
   56.6070   26.9130   45.9670 F   0  0  0  0  0  0  0  0  0  0  0  0
   58.5430   28.2970   46.0870 C   0  0  0  0  0  0  0  0  0  0  0  0
   58.9310   29.4850   48.9290 S   0  0  0  0  0  0  0  0  0  0  0  0
   58.5820   30.4020   50.2910 C   0  0  0  0  0  0  0  0  0  0  0  0
   57.5760   30.2070   51.2310 C   0  0  0  0  0  0  0  0  0  0  0  0
   54.7973   28.2422   53.2516 H   0  0  0  0  0  0  0  0  0  0  0  0
   54.3247   28.9760   54.8416 H   0  0  0  0  0  0  0  0  0  0  0  0
   52.4704   30.3457   54.8831 H   0  0  0  0  0  0  0  0  0  0  0  0
   50.8867   31.9002   53.7440 H   0  0  0  0  0  0  0  0  0  0  0  0
   53.1698   31.5575   50.0856 H   0  0  0  0  0  0  0  0  0  0  0  0
   54.7515   29.9932   51.2146 H   0  0  0  0  0  0  0  0  0  0  0  0
   58.3123   32.8993   53.2334 H   0  0  0  0  0  0  0  0  0  0  0  0
   60.0994   33.2083   51.4995 H   0  0  0  0  0  0  0  0  0  0  0  0
   58.9259   31.5388   45.0556 H   0  0  0  0  0  0  0  0  0  0  0  0
   56.5323   31.2004   44.4430 H   0  0  0  0  0  0  0  0  0  0  0  0
   59.1090   27.4709   46.5422 H   0  0  0  0  0  0  0  0  0  0  0  0
   56.8909   29.3497   51.1558 H   0  0  0  0  0  0  0  0  0  0  0  0
  1  2  2  0
  2  3  1  0
  3  4  1  0
  4  5  2  0
  5  6  1  0
  6  7  2  0
  7  8  1  0
  7  9  1  0
  9 10  2  0
  2 11  1  0
 11 12  1  0
 12 13  2  0
 13 14  1  0
 14 15  2  0
 15 16  1  0
 16 17  1  0
 17 18  2  3
 18 19  1  0
 19 20  2  0
 19 21  1  0
 21 22  2  0
 22 23  1  0
 23 24  2  0
 24 25  1  0
 24 26  1  0
 26 27  1  0
 26 28  2  0
 17 29  1  0
 29 30  1  0
 30 31  2  0
 10  4  1  0
 31 12  1  0
 30 15  1  0
 28 21  1  0
  3 32  1  0
  3 33  1  0
  5 34  1  0
  6 35  1  0
  9 36  1  0
 10 37  1  0
 13 38  1  0
 14 39  1  0
 22 40  1  0
 23 41  1  0
 28 42  1  0
 31 43  1  0
M  CHG  4   8  -1  11  -1  16  -1  25  -1
M  END
>  <UniqueID>  (87) 
79

>  <SMILES>  (87) 
O=C(Cc1ccc([O-])cc1)[N-]c1ccc2[n-]c(=NC(=O)c3ccc([O-])c(F)c3)sc2c1

>  <Energy>  (87) 
94.16933825655508

>  <Genealogy>  (87) 
O=C(Cc1ccc([O-])cc1)[N-]c1ccc2[n-]c(=NC(=O)c3ccc([O-])c(F)c3)sc2c1 (protonated)
O=C(Cc1ccc([O-])cc1)[N-]c1ccc2[n-]c(=NC(=O)c3ccc([O-])c(F)c3)sc2c1 (3D coordinates assigned)
O=C(Cc1ccc([O-])cc1)[N-]c1ccc2[n-]c(=NC(=O)c3ccc([O-])c(F)c3)sc2c1 (optimized conformer: 94.16933825655508 kcal/mol)

>  <smiles>  (87) 
O=C(Cc1ccc(O)cc1)Nc1ccc2[nH]c(=NC(=O)c3ccc(O)c(F)c3)sc2c1

>  <score_type>  (87) 
oracle

>  <origin>  (87) 
adg

>  <m_score__min__energy>  (87) 
-17.829999999999998

>  <m_primary>  (87) 
energy

$$$$
87:0
     RDKit          3D

 52 55  0  0  0  0  0  0  0  0999 V2000
   59.1650   27.7320   46.8250 C   0  0  0  0  0  0  0  0  0  0  0  0
   58.5020   28.3120   45.8110 C   0  0  0  0  0  0  0  0  0  0  0  0
   57.8560   27.6740   44.7390 C   0  0  0  0  0  0  0  0  0  0  0  0
   57.5790   26.3730   44.5180 C   0  0  0  0  0  0  0  0  0  0  0  0
   57.1310   25.4040   45.5370 C   0  0  0  0  0  0  0  0  0  0  0  0
   55.9380   25.6190   46.2390 C   0  0  0  0  0  0  0  0  0  0  0  0
   55.1350   26.7170   45.9520 O   0  0  0  0  0  0  0  0  0  0  0  0
   55.5520   24.7460   47.2050 N   0  0  0  0  0  0  0  0  0  0  0  0
   56.3140   23.6660   47.5180 C   0  0  0  0  0  0  0  0  0  0  0  0
   55.9340   22.8670   48.4140 O   0  0  0  0  0  0  0  0  0  0  0  0
   57.4870   23.4510   46.8710 N   0  0  0  0  0  0  0  0  0  0  0  0
   57.9180   24.2950   45.8990 C   0  0  0  0  0  0  0  0  0  0  0  0
   59.0230   24.0780   45.3340 O   0  0  0  0  0  0  0  0  0  0  0  0
   57.4940   28.6760   43.8530 C   0  0  0  0  0  0  0  0  0  0  0  0
   57.8670   29.8730   44.4260 C   0  0  0  0  0  0  0  0  0  0  0  0
   57.6460   31.2190   43.8060 C   0  0  0  0  0  0  0  0  0  0  0  0
   58.4790   29.6560   45.6120 N   0  0  0  0  0  0  0  0  0  0  0  0
   59.0140   30.6740   46.4780 C   0  0  0  0  0  0  0  0  0  0  0  0
   60.3900   30.7250   46.7440 C   0  0  0  0  0  0  0  0  0  0  0  0
   60.9110   31.7270   47.5670 C   0  0  0  0  0  0  0  0  0  0  0  0
   60.0620   32.6940   48.1250 C   0  0  0  0  0  0  0  0  0  0  0  0
   60.6080   33.7740   48.9670 C   0  0  0  0  0  0  0  0  0  0  0  0
   60.3560   34.9700   48.6660 O   0  0  0  0  0  0  0  0  0  0  0  0
   61.4500   33.5050   50.0960 N   0  0  0  0  0  0  0  0  0  0  0  0
   61.3710   32.3250   50.9540 C   0  0  0  0  0  0  0  0  0  0  0  0
   59.9360   31.8990   51.1530 C   0  0  0  0  0  0  0  0  0  0  0  0
   59.5870   30.5400   51.0690 C   0  0  0  0  0  0  0  0  0  0  0  0
   58.2680   30.1330   51.2850 C   0  0  0  0  0  0  0  0  0  0  0  0
   57.2840   31.0790   51.5780 C   0  0  0  0  0  0  0  0  0  0  0  0
   57.6150   32.4340   51.6530 C   0  0  0  0  0  0  0  0  0  0  0  0
   58.9380   32.8510   51.4410 C   0  0  0  0  0  0  0  0  0  0  0  0
   59.2620   34.2050   51.5170 O   0  0  0  0  0  0  0  0  0  0  0  0
   58.6830   32.6280   47.8800 C   0  0  0  0  0  0  0  0  0  0  0  0
   58.1630   31.6270   47.0540 C   0  0  0  0  0  0  0  0  0  0  0  0
   59.6286   28.3530   47.6057 H   0  0  0  0  0  0  0  0  0  0  0  0
   59.2444   26.6360   46.8747 H   0  0  0  0  0  0  0  0  0  0  0  0
   57.6972   26.0018   43.4893 H   0  0  0  0  0  0  0  0  0  0  0  0
   57.0026   28.5418   42.8781 H   0  0  0  0  0  0  0  0  0  0  0  0
   57.5224   31.9719   44.5984 H   0  0  0  0  0  0  0  0  0  0  0  0
   58.5130   31.4822   43.1822 H   0  0  0  0  0  0  0  0  0  0  0  0
   56.7404   31.1911   43.1822 H   0  0  0  0  0  0  0  0  0  0  0  0
   61.0616   29.9736   46.3032 H   0  0  0  0  0  0  0  0  0  0  0  0
   61.9902   31.7574   47.7779 H   0  0  0  0  0  0  0  0  0  0  0  0
   61.9297   31.5012   50.4858 H   0  0  0  0  0  0  0  0  0  0  0  0
   61.8032   32.5737   51.9345 H   0  0  0  0  0  0  0  0  0  0  0  0
   60.3576   29.7918   50.8316 H   0  0  0  0  0  0  0  0  0  0  0  0
   58.0047   29.0667   51.2242 H   0  0  0  0  0  0  0  0  0  0  0  0
   56.2464   30.7568   51.7501 H   0  0  0  0  0  0  0  0  0  0  0  0
   56.8358   33.1768   51.8790 H   0  0  0  0  0  0  0  0  0  0  0  0
   59.7750   34.6710   50.7780 H   0  0  0  0  0  0  0  0  0  0  0  0
   58.0084   33.3658   48.3389 H   0  0  0  0  0  0  0  0  0  0  0  0
   57.0818   31.5873   46.8554 H   0  0  0  0  0  0  0  0  0  0  0  0
  1  2  2  0
  2  3  1  0
  3  4  2  3
  4  5  1  0
  5  6  2  0
  6  7  1  0
  6  8  1  0
  8  9  1  0
  9 10  2  0
  9 11  1  0
 11 12  1  0
 12 13  2  0
  3 14  1  0
 14 15  2  0
 15 16  1  0
 15 17  1  0
 17 18  1  0
 18 19  2  0
 19 20  1  0
 20 21  2  0
 21 22  1  0
 22 23  2  0
 22 24  1  0
 24 25  1  0
 25 26  1  0
 26 27  2  0
 27 28  1  0
 28 29  2  0
 29 30  1  0
 30 31  2  0
 31 32  1  0
 21 33  1  0
 33 34  2  0
 17  2  1  0
 34 18  1  0
 12  5  1  0
 31 26  1  0
  1 35  1  0
  1 36  1  0
  4 37  1  0
 14 38  1  0
 16 39  1  0
 16 40  1  0
 16 41  1  0
 19 42  1  0
 20 43  1  0
 25 44  1  0
 25 45  1  0
 27 46  1  0
 28 47  1  0
 29 48  1  0
 30 49  1  0
 32 50  1  0
 33 51  1  0
 34 52  1  0
M  CHG  4   7  -1   8  -1  11  -1  24  -1
M  END
>  <UniqueID>  (88) 
80

>  <SMILES>  (88) 
C=c1c(=Cc2c([O-])[n-]c(=O)[n-]c2=O)cc(C)n1-c1ccc(C(=O)[N-]Cc2ccccc2O)cc1

>  <Energy>  (88) 
107.12756535454743

>  <Genealogy>  (88) 
C=c1c(=Cc2c([O-])[n-]c(=O)[n-]c2=O)cc(C)n1-c1ccc(C(=O)[N-]Cc2ccccc2O)cc1 (protonated)
C=c1c(=Cc2c([O-])[n-]c(=O)[n-]c2=O)cc(C)n1-c1ccc(C(=O)[N-]Cc2ccccc2O)cc1 (3D coordinates assigned)
C=c1c(=Cc2c([O-])[n-]c(=O)[n-]c2=O)cc(C)n1-c1ccc(C(=O)[N-]Cc2ccccc2O)cc1 (optimized conformer: 107.12756535454743 kcal/mol)

>  <smiles>  (88) 
C=c1c(=Cc2c(O)[nH]c(=O)[nH]c2=O)cc(C)n1-c1ccc(C(=O)NCc2ccccc2O)cc1

>  <score_type>  (88) 
oracle

>  <origin>  (88) 
adg

>  <m_score__min__energy>  (88) 
-17.170000000000002

>  <m_primary>  (88) 
energy

$$$$
88:0
     RDKit          3D

 60 62  0  0  0  0  0  0  0  0999 V2000
   63.3630   33.9160   46.3440 C   0  0  0  0  0  0  0  0  0  0  0  0
   62.9190   32.9900   47.4370 C   0  0  0  0  0  0  0  0  0  0  0  0
   63.5100   33.0620   48.7080 C   0  0  0  0  0  0  0  0  0  0  0  0
   63.1170   32.1800   49.7180 C   0  0  0  0  0  0  0  0  0  0  0  0
   62.1400   31.2090   49.4660 C   0  0  0  0  0  0  0  0  0  0  0  0
   61.6290   30.1130   50.7490 S   0  0  0  0  0  0  0  0  0  0  0  0
   60.2990   29.5020   50.4030 O   0  0  0  0  0  0  0  0  0  0  0  0
   62.6370   29.0060   50.8790 O   0  0  0  0  0  0  0  0  0  0  0  0
   61.5070   30.9500   52.2690 N   0  0  0  0  0  0  0  0  0  0  0  0
   60.1680   31.5090   52.4600 C   0  0  0  0  0  0  0  0  0  0  0  0
   59.9330   32.6560   51.4690 C   0  0  0  0  0  0  0  0  0  0  0  0
   58.5540   32.5790   50.7990 C   0  0  0  0  0  0  0  0  0  0  0  0
   58.6810   32.3330   49.3240 C   0  0  0  0  0  0  0  0  0  0  0  0
   58.5120   31.1630   48.8830 O   0  0  0  0  0  0  0  0  0  0  0  0
   58.9030   33.4310   48.4240 N   0  0  0  0  0  0  0  0  0  0  0  0
   58.7630   33.3280   46.9980 C   0  0  0  0  0  0  0  0  0  0  0  0
   58.1710   32.1770   46.4540 C   0  0  0  0  0  0  0  0  0  0  0  0
   58.0140   32.0380   45.0680 C   0  0  0  0  0  0  0  0  0  0  0  0
   57.2470   30.5930   44.3970 S   0  0  0  0  0  0  0  0  0  0  0  0
   55.8020   30.5650   44.8100 O   0  0  0  0  0  0  0  0  0  0  0  0
   57.2980   30.6600   42.8970 O   0  0  0  0  0  0  0  0  0  0  0  0
   58.0330   29.1250   44.9360 N   0  0  0  0  0  0  0  0  0  0  0  0
   57.8170   28.9310   46.3860 C   0  0  0  0  0  0  0  0  0  0  0  0
   58.8050   27.9170   46.9710 C   0  0  0  0  0  0  0  0  0  0  0  0
   60.2610   28.3880   46.8020 C   0  0  0  0  0  0  0  0  0  0  0  0
   60.4330   29.3830   45.6430 C   0  0  0  0  0  0  0  0  0  0  0  0
   59.4520   29.0760   44.5040 C   0  0  0  0  0  0  0  0  0  0  0  0
   58.4410   33.0680   44.2210 C   0  0  0  0  0  0  0  0  0  0  0  0
   59.0070   34.2290   44.7540 C   0  0  0  0  0  0  0  0  0  0  0  0
   59.1510   34.3740   46.1370 C   0  0  0  0  0  0  0  0  0  0  0  0
   59.6440   35.5700   46.6430 O   0  0  0  0  0  0  0  0  0  0  0  0
   61.5550   31.1310   48.1960 C   0  0  0  0  0  0  0  0  0  0  0  0
   61.9500   32.0090   47.1830 C   0  0  0  0  0  0  0  0  0  0  0  0
   63.7983   34.8239   46.7869 H   0  0  0  0  0  0  0  0  0  0  0  0
   64.1180   33.4133   45.7217 H   0  0  0  0  0  0  0  0  0  0  0  0
   62.4983   34.1899   45.7217 H   0  0  0  0  0  0  0  0  0  0  0  0
   64.2855   33.8156   48.9098 H   0  0  0  0  0  0  0  0  0  0  0  0
   63.5769   32.2487   50.7149 H   0  0  0  0  0  0  0  0  0  0  0  0
   59.4174   30.7226   52.2919 H   0  0  0  0  0  0  0  0  0  0  0  0
   60.0803   31.8946   53.4865 H   0  0  0  0  0  0  0  0  0  0  0  0
   60.0100   33.6109   52.0096 H   0  0  0  0  0  0  0  0  0  0  0  0
   60.6941   32.5769   50.6787 H   0  0  0  0  0  0  0  0  0  0  0  0
   57.9803   31.7570   51.2519 H   0  0  0  0  0  0  0  0  0  0  0  0
   58.0393   33.5395   50.9492 H   0  0  0  0  0  0  0  0  0  0  0  0
   58.9310   34.3930   48.8350 H   0  0  0  0  0  0  0  0  0  0  0  0
   57.8264   31.3749   47.1232 H   0  0  0  0  0  0  0  0  0  0  0  0
   57.9488   29.8951   46.8990 H   0  0  0  0  0  0  0  0  0  0  0  0
   56.7979   28.5442   46.5340 H   0  0  0  0  0  0  0  0  0  0  0  0
   58.5928   27.7881   48.0426 H   0  0  0  0  0  0  0  0  0  0  0  0
   58.6844   26.9660   46.4316 H   0  0  0  0  0  0  0  0  0  0  0  0
   60.5837   28.8747   47.7342 H   0  0  0  0  0  0  0  0  0  0  0  0
   60.8717   27.5024   46.5724 H   0  0  0  0  0  0  0  0  0  0  0  0
   60.2468   30.4020   46.0132 H   0  0  0  0  0  0  0  0  0  0  0  0
   61.4586   29.2951   45.2552 H   0  0  0  0  0  0  0  0  0  0  0  0
   59.6010   29.8154   43.7034 H   0  0  0  0  0  0  0  0  0  0  0  0
   59.6570   28.0520   44.1583 H   0  0  0  0  0  0  0  0  0  0  0  0
   58.3304   32.9627   43.1316 H   0  0  0  0  0  0  0  0  0  0  0  0
   59.3410   35.0332   44.0819 H   0  0  0  0  0  0  0  0  0  0  0  0
   60.7813   30.3754   47.9949 H   0  0  0  0  0  0  0  0  0  0  0  0
   61.4991   31.9302   46.1828 H   0  0  0  0  0  0  0  0  0  0  0  0
  1  2  1  0
  2  3  2  0
  3  4  1  0
  4  5  2  0
  5  6  1  0
  6  7  2  0
  6  8  2  0
  6  9  1  0
  9 10  1  0
 10 11  1  0
 11 12  1  0
 12 13  1  0
 13 14  2  0
 13 15  1  0
 15 16  1  0
 16 17  2  0
 17 18  1  0
 18 19  1  0
 19 20  2  0
 19 21  2  0
 19 22  1  0
 22 23  1  0
 23 24  1  0
 24 25  1  0
 25 26  1  0
 26 27  1  0
 18 28  2  0
 28 29  1  0
 29 30  2  0
 30 31  1  0
  5 32  1  0
 32 33  2  0
 33  2  1  0
 30 16  1  0
 27 22  1  0
  1 34  1  0
  1 35  1  0
  1 36  1  0
  3 37  1  0
  4 38  1  0
 10 39  1  0
 10 40  1  0
 11 41  1  0
 11 42  1  0
 12 43  1  0
 12 44  1  0
 15 45  1  0
 17 46  1  0
 23 47  1  0
 23 48  1  0
 24 49  1  0
 24 50  1  0
 25 51  1  0
 25 52  1  0
 26 53  1  0
 26 54  1  0
 27 55  1  0
 27 56  1  0
 28 57  1  0
 29 58  1  0
 32 59  1  0
 33 60  1  0
M  CHG  2   9  -1  31  -1
M  END
>  <UniqueID>  (89) 
81

>  <SMILES>  (89) 
Cc1ccc(S(=O)(=O)[N-]CCCC(=O)Nc2cc(S(=O)(=O)N3CCCCC3)ccc2[O-])cc1

>  <Energy>  (89) 
56.16276305928042

>  <Genealogy>  (89) 
Cc1ccc(S(=O)(=O)[N-]CCCC(=O)Nc2cc(S(=O)(=O)N3CCCCC3)ccc2[O-])cc1 (protonated)
Cc1ccc(S(=O)(=O)[N-]CCCC(=O)Nc2cc(S(=O)(=O)N3CCCCC3)ccc2[O-])cc1 (3D coordinates assigned)
Cc1ccc(S(=O)(=O)[N-]CCCC(=O)Nc2cc(S(=O)(=O)N3CCCCC3)ccc2[O-])cc1 (nonaromatic ring conformer: 56.16276305928042 kcal/mol)

>  <smiles>  (89) 
Cc1ccc(S(=O)(=O)NCCCC(=O)Nc2cc(S(=O)(=O)N3CCCCC3)ccc2O)cc1

>  <score_type>  (89) 
oracle

>  <origin>  (89) 
adg

>  <m_score__min__energy>  (89) 
-14.06

>  <m_primary>  (89) 
energy

$$$$
89:0
     RDKit          3D

 41 43  0  0  0  0  0  0  0  0999 V2000
   59.6863   27.1859   46.3930 H   0  0  0  0  0  0  0  0  0  0  0  0
   58.6080   26.9980   46.2840 C   0  0  0  0  0  0  0  0  0  0  0  0
   57.7970   27.9640   45.7800 N   0  0  0  0  0  0  0  0  0  0  0  0
   56.4570   27.7900   45.6170 C   0  0  0  0  0  0  0  0  0  0  0  0
   55.7710   28.7860   45.1240 N   0  0  0  0  0  0  0  0  0  0  0  0
   56.2650   30.0010   44.5500 C   0  0  0  0  0  0  0  0  0  0  0  0
   55.5300   31.0260   44.4980 O   0  0  0  0  0  0  0  0  0  0  0  0
   57.6480   30.0430   43.9820 C   0  0  0  0  0  0  0  0  0  0  0  0
   57.6283   30.5480   43.0050 H   0  0  0  0  0  0  0  0  0  0  0  0
   58.0248   29.0173   43.8560 H   0  0  0  0  0  0  0  0  0  0  0  0
   58.5500   30.7980   44.9190 C   0  0  0  0  0  0  0  0  0  0  0  0
   58.2970   32.1480   45.2070 C   0  0  0  0  0  0  0  0  0  0  0  0
   57.4720   32.6703   44.7006 H   0  0  0  0  0  0  0  0  0  0  0  0
   59.0880   32.8320   46.1340 C   0  0  0  0  0  0  0  0  0  0  0  0
   58.8886   33.8929   46.3456 H   0  0  0  0  0  0  0  0  0  0  0  0
   60.1360   32.1730   46.7970 C   0  0  0  0  0  0  0  0  0  0  0  0
   60.9710   32.8920   47.7880 C   0  0  0  0  0  0  0  0  0  0  0  0
   62.3400   33.0800   47.5320 C   0  0  0  0  0  0  0  0  0  0  0  0
   62.7803   32.6853   46.6044 H   0  0  0  0  0  0  0  0  0  0  0  0
   63.1460   33.7630   48.4440 C   0  0  0  0  0  0  0  0  0  0  0  0
   64.2156   33.9073   48.2317 H   0  0  0  0  0  0  0  0  0  0  0  0
   62.5960   34.2630   49.6250 C   0  0  0  0  0  0  0  0  0  0  0  0
   63.3800   34.9280   50.5080 F   0  0  0  0  0  0  0  0  0  0  0  0
   61.2390   34.0760   49.9000 C   0  0  0  0  0  0  0  0  0  0  0  0
   60.8111   34.4720   50.8328 H   0  0  0  0  0  0  0  0  0  0  0  0
   60.4140   33.3830   48.9900 C   0  0  0  0  0  0  0  0  0  0  0  0
   59.0550   33.1490   49.2590 O   0  0  0  0  0  0  0  0  0  0  0  0
   58.5440   31.9820   49.8940 C   0  0  0  0  0  0  0  0  0  0  0  0
   58.5979   32.1052   50.9857 H   0  0  0  0  0  0  0  0  0  0  0  0
   57.4969   31.8297   49.5935 H   0  0  0  0  0  0  0  0  0  0  0  0
   59.1423   31.1092   49.5935 H   0  0  0  0  0  0  0  0  0  0  0  0
   60.3900   30.8220   46.5060 C   0  0  0  0  0  0  0  0  0  0  0  0
   61.2171   30.2999   47.0094 H   0  0  0  0  0  0  0  0  0  0  0  0
   59.5970   30.1380   45.5800 C   0  0  0  0  0  0  0  0  0  0  0  0
   59.7948   29.0768   45.3685 H   0  0  0  0  0  0  0  0  0  0  0  0
   55.8760   26.5600   46.0260 C   0  0  0  0  0  0  0  0  0  0  0  0
   54.5060   26.3290   45.9790 O   0  0  0  0  0  0  0  0  0  0  0  0
   56.7020   25.5540   46.5350 C   0  0  0  0  0  0  0  0  0  0  0  0
   56.2680   24.5890   46.8358 H   0  0  0  0  0  0  0  0  0  0  0  0
   58.0720   25.7680   46.6630 C   0  0  0  0  0  0  0  0  0  0  0  0
   58.7241   24.9754   47.0587 H   0  0  0  0  0  0  0  0  0  0  0  0
  1  2  1  0
  2  3  1  0
  3  4  1  0
  4  5  2  0
  5  6  1  0
  6  7  2  0
  6  8  1  0
  8  9  1  0
  8 10  1  0
  8 11  1  0
 11 12  2  0
 12 13  1  0
 12 14  1  0
 14 15  1  0
 14 16  2  0
 16 17  1  0
 17 18  2  0
 18 19  1  0
 18 20  1  0
 20 21  1  0
 20 22  2  0
 22 23  1  0
 22 24  1  0
 24 25  1  0
 24 26  2  0
 26 27  1  0
 27 28  1  0
 28 29  1  0
 28 30  1  0
 28 31  1  0
 16 32  1  0
 32 33  1  0
 32 34  2  0
 34 35  1  0
  4 36  1  0
 36 37  1  0
 36 38  2  0
 38 39  1  0
 38 40  1  0
 40 41  1  0
 40  2  2  0
 34 11  1  0
 26 17  1  0
M  CHG  2   3  -1  37  -1
M  END
>  <UniqueID>  (90) 
82

>  <SMILES>  (90) 
COc1cc(F)ccc1-c1ccc(CC(=O)/N=c2/[n-]cccc2[O-])cc1

>  <Energy>  (90) 
59.657419903604435

>  <Genealogy>  (90) 
COc1cc(F)ccc1-c1ccc(CC(=O)N=c2[n-]cccc2[O-])cc1 (protonated)
COc1cc(F)ccc1-c1ccc(CC(=O)/N=c2/[n-]cccc2[O-])cc1 (cis-trans isomerization)
COc1cc(F)ccc1-c1ccc(CC(=O)/N=c2/[n-]cccc2[O-])cc1 (3D coordinates assigned)
COc1cc(F)ccc1-c1ccc(CC(=O)/N=c2/[n-]cccc2[O-])cc1 (optimized conformer: 59.657419903604435 kcal/mol)

>  <smiles>  (90) 
COc1cc(F)ccc1-c1ccc(CC(=O)N=c2[nH]cccc2O)cc1

>  <score_type>  (90) 
oracle

>  <origin>  (90) 
adg

>  <m_score__min__energy>  (90) 
-13.48

>  <m_primary>  (90) 
energy

$$$$
90:0
     RDKit          3D

 59 61  0  0  0  0  0  0  0  0999 V2000
   58.4230   21.4630   43.7680 C   0  0  0  0  0  0  0  0  0  0  0  0
   56.9890   21.5350   44.0780 N   0  0  0  0  0  0  0  0  0  0  0  0
   56.2680   20.3220   44.4890 C   0  0  0  0  0  0  0  0  0  0  0  0
   56.2550   22.7730   43.9160 C   0  0  0  0  0  0  0  0  0  0  0  0
   55.0120   22.7940   44.1360 O   0  0  0  0  0  0  0  0  0  0  0  0
   56.9110   24.0420   43.4330 C   0  0  0  0  0  0  0  0  0  0  0  0
   57.0100   25.0090   44.5260 N   0  0  0  0  0  0  0  0  0  0  0  0
   57.7180   24.7170   45.7410 C   0  0  0  0  0  0  0  0  0  0  0  0
   58.3420   23.6270   45.8610 O   0  0  0  0  0  0  0  0  0  0  0  0
   57.6590   25.6730   46.9000 C   0  0  0  0  0  0  0  0  0  0  0  0
   57.8260   27.0940   46.4320 C   0  0  0  0  0  0  0  0  0  0  0  0
   56.8490   27.8510   45.8200 C   0  0  0  0  0  0  0  0  0  0  0  0
   55.5340   27.4620   45.6060 O   0  0  0  0  0  0  0  0  0  0  0  0
   57.3720   29.0240   45.4150 N   0  0  0  0  0  0  0  0  0  0  0  0
   56.7170   30.0620   44.6150 C   0  0  0  0  0  0  0  0  0  0  0  0
   57.7480   30.9740   43.9380 C   0  0  0  0  0  0  0  0  0  0  0  0
   58.0190   32.2110   44.7540 C   0  0  0  0  0  0  0  0  0  0  0  0
   58.4010   33.4100   44.1240 C   0  0  0  0  0  0  0  0  0  0  0  0
   58.6810   34.5480   44.8880 C   0  0  0  0  0  0  0  0  0  0  0  0
   58.5860   34.4970   46.2830 C   0  0  0  0  0  0  0  0  0  0  0  0
   58.2310   33.3010   46.9140 C   0  0  0  0  0  0  0  0  0  0  0  0
   58.1550   33.2500   48.2650 F   0  0  0  0  0  0  0  0  0  0  0  0
   57.9550   32.1580   46.1540 C   0  0  0  0  0  0  0  0  0  0  0  0
   58.6700   28.9590   45.7760 C   0  0  0  0  0  0  0  0  0  0  0  0
   59.5070   29.8710   45.5320 O   0  0  0  0  0  0  0  0  0  0  0  0
   58.9820   27.8030   46.4060 N   0  0  0  0  0  0  0  0  0  0  0  0
   60.3140   27.4020   46.8730 C   0  0  0  0  0  0  0  0  0  0  0  0
   60.5350   27.8450   48.2960 C   0  0  0  0  0  0  0  0  0  0  0  0
   60.7570   26.8940   49.3090 C   0  0  0  0  0  0  0  0  0  0  0  0
   60.9900   27.3140   50.6270 C   0  0  0  0  0  0  0  0  0  0  0  0
   60.9750   28.6760   50.9440 C   0  0  0  0  0  0  0  0  0  0  0  0
   60.7380   29.6260   49.9450 C   0  0  0  0  0  0  0  0  0  0  0  0
   60.5290   29.2170   48.6240 C   0  0  0  0  0  0  0  0  0  0  0  0
   58.9995   21.4341   44.7044 H   0  0  0  0  0  0  0  0  0  0  0  0
   58.6266   20.5535   43.1838 H   0  0  0  0  0  0  0  0  0  0  0  0
   58.7167   22.3475   43.1838 H   0  0  0  0  0  0  0  0  0  0  0  0
   56.2363   20.2687   45.5872 H   0  0  0  0  0  0  0  0  0  0  0  0
   55.2420   20.3536   44.0937 H   0  0  0  0  0  0  0  0  0  0  0  0
   56.7861   19.4358   44.0937 H   0  0  0  0  0  0  0  0  0  0  0  0
   57.9198   23.8102   43.0608 H   0  0  0  0  0  0  0  0  0  0  0  0
   56.3022   24.4751   42.6256 H   0  0  0  0  0  0  0  0  0  0  0  0
   56.5660   25.9480   44.4060 H   0  0  0  0  0  0  0  0  0  0  0  0
   56.6856   25.5710   47.4020 H   0  0  0  0  0  0  0  0  0  0  0  0
   58.4766   25.4333   47.5958 H   0  0  0  0  0  0  0  0  0  0  0  0
   56.0994   29.5824   43.8413 H   0  0  0  0  0  0  0  0  0  0  0  0
   56.0947   30.6756   45.2830 H   0  0  0  0  0  0  0  0  0  0  0  0
   58.6882   30.4171   43.8120 H   0  0  0  0  0  0  0  0  0  0  0  0
   57.3418   31.2874   42.9650 H   0  0  0  0  0  0  0  0  0  0  0  0
   58.4797   33.4525   43.0276 H   0  0  0  0  0  0  0  0  0  0  0  0
   58.9762   35.4841   44.3914 H   0  0  0  0  0  0  0  0  0  0  0  0
   58.7903   35.3965   46.8823 H   0  0  0  0  0  0  0  0  0  0  0  0
   57.6874   31.2165   46.6560 H   0  0  0  0  0  0  0  0  0  0  0  0
   60.4014   26.3069   46.8180 H   0  0  0  0  0  0  0  0  0  0  0  0
   61.0714   27.8779   46.2327 H   0  0  0  0  0  0  0  0  0  0  0  0
   60.7478   25.8209   49.0673 H   0  0  0  0  0  0  0  0  0  0  0  0
   61.1851   26.5700   51.4134 H   0  0  0  0  0  0  0  0  0  0  0  0
   61.1498   29.0007   51.9804 H   0  0  0  0  0  0  0  0  0  0  0  0
   60.7160   30.6961   50.1987 H   0  0  0  0  0  0  0  0  0  0  0  0
   60.3594   29.9677   47.8381 H   0  0  0  0  0  0  0  0  0  0  0  0
  1  2  1  0
  2  3  1  0
  2  4  1  0
  4  5  2  0
  4  6  1  0
  6  7  1  0
  7  8  1  0
  8  9  2  0
  8 10  1  0
 10 11  1  0
 11 12  2  0
 12 13  1  0
 12 14  1  0
 14 15  1  0
 15 16  1  0
 16 17  1  0
 17 18  2  0
 18 19  1  0
 19 20  2  0
 20 21  1  0
 21 22  1  0
 21 23  2  0
 14 24  1  0
 24 25  2  0
 24 26  1  0
 26 27  1  0
 27 28  1  0
 28 29  2  0
 29 30  1  0
 30 31  2  0
 31 32  1  0
 32 33  2  0
 26 11  1  0
 33 28  1  0
 23 17  1  0
  1 34  1  0
  1 35  1  0
  1 36  1  0
  3 37  1  0
  3 38  1  0
  3 39  1  0
  6 40  1  0
  6 41  1  0
  7 42  1  0
 10 43  1  0
 10 44  1  0
 15 45  1  0
 15 46  1  0
 16 47  1  0
 16 48  1  0
 18 49  1  0
 19 50  1  0
 20 51  1  0
 23 52  1  0
 27 53  1  0
 27 54  1  0
 29 55  1  0
 30 56  1  0
 31 57  1  0
 32 58  1  0
 33 59  1  0
M  CHG  1  13  -1
M  END
>  <UniqueID>  (91) 
83

>  <SMILES>  (91) 
CN(C)C(=O)CNC(=O)Cc1c([O-])n(CCc2cccc(F)c2)c(=O)n1Cc1ccccc1

>  <Energy>  (91) 
78.90340153355527

>  <Genealogy>  (91) 
CN(C)C(=O)CNC(=O)Cc1c([O-])n(CCc2cccc(F)c2)c(=O)n1Cc1ccccc1 (protonated)
CN(C)C(=O)CNC(=O)Cc1c([O-])n(CCc2cccc(F)c2)c(=O)n1Cc1ccccc1 (3D coordinates assigned)
CN(C)C(=O)CNC(=O)Cc1c([O-])n(CCc2cccc(F)c2)c(=O)n1Cc1ccccc1 (optimized conformer: 78.90340153355527 kcal/mol)

>  <smiles>  (91) 
CN(C)C(=O)CNC(=O)Cc1c(O)n(CCc2cccc(F)c2)c(=O)n1Cc1ccccc1

>  <score_type>  (91) 
oracle

>  <origin>  (91) 
adg

>  <m_score__min__energy>  (91) 
-12.08

>  <m_primary>  (91) 
energy

$$$$
