0:0
     RDKit          3D

 53 55  0  0  0  0  0  0  0  0999 V2000
   58.8090   34.5110   51.8210 N   0  0  0  0  0  0  0  0  0  0  0  0
   58.3430   33.1630   51.6830 C   0  0  0  0  0  0  0  0  0  0  0  0
   57.2410   32.7430   52.4440 C   0  0  0  0  0  0  0  0  0  0  0  0
   56.8170   31.4140   52.3990 C   0  0  0  0  0  0  0  0  0  0  0  0
   57.4960   30.4880   51.6070 C   0  0  0  0  0  0  0  0  0  0  0  0
   58.5850   30.8950   50.8360 C   0  0  0  0  0  0  0  0  0  0  0  0
   59.0000   32.2330   50.8420 C   0  0  0  0  0  0  0  0  0  0  0  0
   60.0870   32.6110   49.9860 N   0  0  0  0  0  0  0  0  0  0  0  0
   60.0320   33.6710   49.0230 C   0  0  0  0  0  0  0  0  0  0  0  0
   60.4400   34.8240   49.3350 O   0  0  0  0  0  0  0  0  0  0  0  0
   59.4720   33.4220   47.6750 C   0  0  0  0  0  0  0  0  0  0  0  0
   60.1590   33.8450   46.5240 C   0  0  0  0  0  0  0  0  0  0  0  0
   59.6320   33.6000   45.2520 C   0  0  0  0  0  0  0  0  0  0  0  0
   58.4000   32.9470   45.1090 C   0  0  0  0  0  0  0  0  0  0  0  0
   57.8620   32.6470   43.7380 C   0  0  0  0  0  0  0  0  0  0  0  0
   57.7170   31.2040   43.5660 N   0  0  0  0  0  0  0  0  0  0  0  0
   56.6430   30.4610   44.1580 C   0  0  0  0  0  0  0  0  0  0  0  0
   55.7090   31.0580   44.7580 O   0  0  0  0  0  0  0  0  0  0  0  0
   56.6240   28.9670   44.0650 C   0  0  0  0  0  0  0  0  0  0  0  0
   55.9770   28.3900   45.2370 N   0  0  0  0  0  0  0  0  0  0  0  0
   56.3050   27.1010   45.7680 C   0  0  0  0  0  0  0  0  0  0  0  0
   55.4020   26.3440   46.2140 O   0  0  0  0  0  0  0  0  0  0  0  0
   57.7340   26.6650   45.8200 C   0  0  0  0  0  0  0  0  0  0  0  0
   58.6170   27.8290   46.1790 C   0  0  0  0  0  0  0  0  0  0  0  0
   59.6000   28.2770   45.2810 C   0  0  0  0  0  0  0  0  0  0  0  0
   60.4390   29.3410   45.6290 C   0  0  0  0  0  0  0  0  0  0  0  0
   60.3090   29.9580   46.8760 C   0  0  0  0  0  0  0  0  0  0  0  0
   59.3380   29.5120   47.7770 C   0  0  0  0  0  0  0  0  0  0  0  0
   58.4970   28.4490   47.4340 C   0  0  0  0  0  0  0  0  0  0  0  0
   57.7150   32.5180   46.2530 C   0  0  0  0  0  0  0  0  0  0  0  0
   58.2430   32.7530   47.5260 C   0  0  0  0  0  0  0  0  0  0  0  0
   58.2300   35.2480   52.2830 H   0  0  0  0  0  0  0  0  0  0  0  0
   59.6960   34.8150   51.3600 H   0  0  0  0  0  0  0  0  0  0  0  0
   56.7083   33.4656   53.0797 H   0  0  0  0  0  0  0  0  0  0  0  0
   55.9452   31.0960   52.9896 H   0  0  0  0  0  0  0  0  0  0  0  0
   57.1727   29.4367   51.5904 H   0  0  0  0  0  0  0  0  0  0  0  0
   59.1219   30.1597   50.2186 H   0  0  0  0  0  0  0  0  0  0  0  0
   61.1188   34.3729   46.6246 H   0  0  0  0  0  0  0  0  0  0  0  0
   60.1875   33.9216   44.3587 H   0  0  0  0  0  0  0  0  0  0  0  0
   56.8806   33.1291   43.6177 H   0  0  0  0  0  0  0  0  0  0  0  0
   58.5612   33.0335   42.9819 H   0  0  0  0  0  0  0  0  0  0  0  0
   58.4710   30.6900   43.0620 H   0  0  0  0  0  0  0  0  0  0  0  0
   56.0712   28.6676   43.1623 H   0  0  0  0  0  0  0  0  0  0  0  0
   57.6600   28.6008   44.0145 H   0  0  0  0  0  0  0  0  0  0  0  0
   57.8462   25.8758   46.5780 H   0  0  0  0  0  0  0  0  0  0  0  0
   58.0292   26.2803   44.8326 H   0  0  0  0  0  0  0  0  0  0  0  0
   59.7104   27.7896   44.3011 H   0  0  0  0  0  0  0  0  0  0  0  0
   61.2026   29.6926   44.9196 H   0  0  0  0  0  0  0  0  0  0  0  0
   60.9702   30.7939   47.1483 H   0  0  0  0  0  0  0  0  0  0  0  0
   59.2352   29.9984   48.7582 H   0  0  0  0  0  0  0  0  0  0  0  0
   57.7389   28.0970   48.1491 H   0  0  0  0  0  0  0  0  0  0  0  0
   56.7544   31.9922   46.1490 H   0  0  0  0  0  0  0  0  0  0  0  0
   57.6943   32.4128   48.4167 H   0  0  0  0  0  0  0  0  0  0  0  0
  1  2  1  0
  2  3  2  0
  3  4  1  0
  4  5  2  0
  5  6  1  0
  6  7  2  0
  7  8  1  0
  8  9  1  0
  9 10  2  0
  9 11  1  0
 11 12  2  0
 12 13  1  0
 13 14  2  0
 14 15  1  0
 15 16  1  0
 16 17  1  0
 17 18  2  0
 17 19  1  0
 19 20  1  0
 20 21  1  0
 21 22  2  0
 21 23  1  0
 23 24  1  0
 24 25  2  0
 25 26  1  0
 26 27  2  0
 27 28  1  0
 28 29  2  0
 14 30  1  0
 30 31  2  0
  7  2  1  0
 31 11  1  0
 29 24  1  0
  1 32  1  0
  1 33  1  0
  3 34  1  0
  4 35  1  0
  5 36  1  0
  6 37  1  0
 12 38  1  0
 13 39  1  0
 15 40  1  0
 15 41  1  0
 16 42  1  0
 19 43  1  0
 19 44  1  0
 23 45  1  0
 23 46  1  0
 25 47  1  0
 26 48  1  0
 27 49  1  0
 28 50  1  0
 29 51  1  0
 30 52  1  0
 31 53  1  0
M  CHG  2   8  -1  20  -1
M  END
>  <UniqueID>  (1) 
1

>  <SMILES>  (1) 
Nc1ccccc1[N-]C(=O)c1ccc(CNC(=O)C[N-]C(=O)Cc2ccccc2)cc1

>  <Energy>  (1) 
55.43625996197634

>  <Genealogy>  (1) 
Nc1ccccc1[N-]C(=O)c1ccc(CNC(=O)C[N-]C(=O)Cc2ccccc2)cc1 (protonated)
Nc1ccccc1[N-]C(=O)c1ccc(CNC(=O)C[N-]C(=O)Cc2ccccc2)cc1 (3D coordinates assigned)
Nc1ccccc1[N-]C(=O)c1ccc(CNC(=O)C[N-]C(=O)Cc2ccccc2)cc1 (optimized conformer: 55.43625996197634 kcal/mol)

>  <smiles>  (1) 
Nc1ccccc1NC(=O)c1ccc(CNC(=O)CNC(=O)Cc2ccccc2)cc1

>  <score_type>  (1) 
oracle

>  <origin>  (1) 
adg

>  <m_score__min__energy>  (1) 
-12.119999999999999

>  <m_primary>  (1) 
energy

$$$$
1:0
     RDKit          3D

 45 47  0  0  1  0  0  0  0  0999 V2000
   60.6910   34.2030   48.0670 C   0  0  0  0  0  0  0  0  0  0  0  0
   59.5580   34.0620   47.1230 C   0  0  0  0  0  0  0  0  0  0  0  0
   59.6100   34.7400   45.9110 C   0  0  0  0  0  0  0  0  0  0  0  0
   58.5540   34.6100   45.0290 C   0  0  0  0  0  0  0  0  0  0  0  0
   57.4750   33.8180   45.3590 C   0  0  0  0  0  0  0  0  0  0  0  0
   57.4410   33.1510   46.5680 C   0  0  0  0  0  0  0  0  0  0  0  0
   58.4850   33.2660   47.4660 C   0  0  0  0  0  0  0  0  0  0  0  0
   58.3970   32.5570   48.6950 N   0  0  0  0  0  0  0  0  0  0  0  0
   58.8960   31.3890   48.8810 C   0  0  0  0  0  0  0  0  0  0  0  0
   59.2610   30.6680   47.8100 N   0  0  0  0  0  0  0  0  0  0  0  0
   59.7800   29.4470   48.0480 C   0  0  0  0  0  0  0  0  0  0  0  0
   60.1370   28.7390   47.0540 N   0  0  0  0  0  0  0  0  0  0  0  0
   59.2510   28.2530   46.0050 C   0  0  0  0  0  0  0  0  0  0  0  0
   58.8810   29.3260   45.0320 C   0  0  0  0  0  0  0  0  0  0  0  0
   57.4110   29.6550   45.0010 C   0  0  0  0  0  0  0  0  0  0  0  0
   56.5730   28.4980   44.8510 N   0  0  0  0  0  0  0  0  0  0  0  0
   57.0060   27.3790   45.6560 C   0  0  0  0  0  0  0  0  0  0  0  0
   57.9740   27.8280   46.7430 C   0  0  0  0  0  0  0  0  0  0  0  0
   59.9390   28.9470   49.2870 N   0  0  0  0  0  0  0  0  0  0  0  0
   59.5810   29.6520   50.3490 N   0  0  0  0  0  0  0  0  0  0  0  0
   59.0580   30.8760   50.1590 C   0  0  0  0  0  0  0  0  0  0  0  0
   58.6460   31.7000   51.2650 C   0  0  0  0  0  0  0  0  0  0  0  0
   57.3870   32.3250   51.2440 N   0  0  0  0  0  0  0  0  0  0  0  0
   59.4090   31.8630   52.2490 O   0  0  0  0  0  0  0  0  0  0  0  0
   60.3156   34.1563   49.0999 H   0  0  0  0  0  0  0  0  0  0  0  0
   61.4102   33.3874   47.9010 H   0  0  0  0  0  0  0  0  0  0  0  0
   61.1884   35.1700   47.9010 H   0  0  0  0  0  0  0  0  0  0  0  0
   60.4763   35.3690   45.6582 H   0  0  0  0  0  0  0  0  0  0  0  0
   58.5745   35.1381   44.0643 H   0  0  0  0  0  0  0  0  0  0  0  0
   56.6358   33.7166   44.6551 H   0  0  0  0  0  0  0  0  0  0  0  0
   56.5741   32.5219   46.8186 H   0  0  0  0  0  0  0  0  0  0  0  0
   59.1550   31.0200   46.8460 H   0  0  0  0  0  0  0  0  0  0  0  0
   59.7398   27.4496   45.4343 H   0  0  0  0  0  0  0  0  0  0  0  0
   59.4328   30.2391   45.2999 H   0  0  0  0  0  0  0  0  0  0  0  0
   59.1402   28.9476   44.0322 H   0  0  0  0  0  0  0  0  0  0  0  0
   57.1459   30.1584   45.9424 H   0  0  0  0  0  0  0  0  0  0  0  0
   57.2393   30.2975   44.1248 H   0  0  0  0  0  0  0  0  0  0  0  0
   56.3870   28.2310   43.8590 H   0  0  0  0  0  0  0  0  0  0  0  0
   56.1275   26.9139   46.1270 H   0  0  0  0  0  0  0  0  0  0  0  0
   57.5219   26.6585   45.0043 H   0  0  0  0  0  0  0  0  0  0  0  0
   57.5547   28.6755   47.3050 H   0  0  0  0  0  0  0  0  0  0  0  0
   58.1707   27.0268   47.4706 H   0  0  0  0  0  0  0  0  0  0  0  0
   60.3440   27.9970   49.4670 H   0  0  0  0  0  0  0  0  0  0  0  0
   56.7990   32.4280   52.1100 H   0  0  0  0  0  0  0  0  0  0  0  0
   56.9750   32.7180   50.3720 H   0  0  0  0  0  0  0  0  0  0  0  0
  1  2  1  0
  2  3  2  0
  3  4  1  0
  4  5  2  0
  5  6  1  0
  6  7  2  0
  7  8  1  0
  8  9  2  0
  9 10  1  0
 10 11  1  0
 11 12  2  0
 12 13  1  0
 13 14  1  0
 14 15  1  0
 15 16  1  0
 16 17  1  0
 17 18  1  0
 11 19  1  0
 19 20  1  0
 20 21  2  0
 21 22  1  0
 22 23  1  0
 22 24  2  0
  7  2  1  0
 21  9  1  0
 18 13  1  0
  1 25  1  0
  1 26  1  0
  1 27  1  0
  3 28  1  0
  4 29  1  0
  5 30  1  0
  6 31  1  0
 10 32  1  0
 13 33  1  0
 14 34  1  0
 14 35  1  0
 15 36  1  0
 15 37  1  0
 16 38  1  0
 17 39  1  0
 17 40  1  0
 18 41  1  0
 18 42  1  0
 19 43  1  0
 23 44  1  0
 23 45  1  0
M  END
>  <smiles>  (2) 
Cc1ccccc1N=c1[nH]c(=NC2CCNCC2)[nH]nc1C(N)=O

>  <score_type>  (2) 
oracle

>  <origin>  (2) 
adg

>  <m_score__min__energy>  (2) 
-8.2799999999999994

>  <m_primary>  (2) 
energy

$$$$
2:0
     RDKit          3D

 39 42  0  0  0  0  0  0  0  0999 V2000
   55.9030   29.7520   43.3950 C   0  0  0  0  0  0  0  0  0  0  0  0
   57.1720   30.5800   43.2400 C   0  0  0  0  0  0  0  0  0  0  0  0
   57.8230   30.7580   44.5360 N   0  0  0  0  0  0  0  0  0  0  0  0
   58.4100   29.7720   45.2040 N   0  0  0  0  0  0  0  0  0  0  0  0
   58.9440   30.2830   46.3390 C   0  0  0  0  0  0  0  0  0  0  0  0
   59.6880   29.4860   47.3360 C   0  0  0  0  0  0  0  0  0  0  0  0
   59.5990   28.1700   47.5290 C   0  0  0  0  0  0  0  0  0  0  0  0
   58.7380   27.2190   46.8020 C   0  0  0  0  0  0  0  0  0  0  0  0
   59.3110   26.1330   46.1230 C   0  0  0  0  0  0  0  0  0  0  0  0
   58.5000   25.2360   45.4230 C   0  0  0  0  0  0  0  0  0  0  0  0
   57.1150   25.4210   45.3880 C   0  0  0  0  0  0  0  0  0  0  0  0
   56.5360   26.5120   46.0460 C   0  0  0  0  0  0  0  0  0  0  0  0
   55.1560   26.6890   45.9970 O   0  0  0  0  0  0  0  0  0  0  0  0
   57.3490   27.4140   46.7460 C   0  0  0  0  0  0  0  0  0  0  0  0
   60.4160   27.8410   48.6960 C   0  0  0  0  0  0  0  0  0  0  0  0
   60.5440   26.6880   49.1850 O   0  0  0  0  0  0  0  0  0  0  0  0
   61.0660   28.9880   49.2280 N   0  0  0  0  0  0  0  0  0  0  0  0
   60.6040   30.0100   48.3530 C   0  0  0  0  0  0  0  0  0  0  0  0
   60.9960   31.2030   48.4280 O   0  0  0  0  0  0  0  0  0  0  0  0
   58.6820   31.6440   46.3740 C   0  0  0  0  0  0  0  0  0  0  0  0
   58.9430   32.6390   47.3170 C   0  0  0  0  0  0  0  0  0  0  0  0
   58.5000   33.9440   47.0310 C   0  0  0  0  0  0  0  0  0  0  0  0
   57.8040   34.2180   45.8320 C   0  0  0  0  0  0  0  0  0  0  0  0
   57.5330   33.1880   44.9120 C   0  0  0  0  0  0  0  0  0  0  0  0
   57.9850   31.9040   45.2250 C   0  0  0  0  0  0  0  0  0  0  0  0
   55.6859   29.6103   44.4640 H   0  0  0  0  0  0  0  0  0  0  0  0
   55.0625   30.2760   42.9165 H   0  0  0  0  0  0  0  0  0  0  0  0
   56.0441   28.7717   42.9165 H   0  0  0  0  0  0  0  0  0  0  0  0
   57.8611   30.0633   42.5557 H   0  0  0  0  0  0  0  0  0  0  0  0
   56.9075   31.5675   42.8339 H   0  0  0  0  0  0  0  0  0  0  0  0
   60.4012   25.9875   46.1418 H   0  0  0  0  0  0  0  0  0  0  0  0
   58.9527   24.3819   44.8980 H   0  0  0  0  0  0  0  0  0  0  0  0
   56.4793   24.7081   44.8425 H   0  0  0  0  0  0  0  0  0  0  0  0
   54.5530   26.3590   46.7420 H   0  0  0  0  0  0  0  0  0  0  0  0
   56.8966   28.2786   47.2538 H   0  0  0  0  0  0  0  0  0  0  0  0
   59.4765   32.4113   48.2516 H   0  0  0  0  0  0  0  0  0  0  0  0
   58.6970   34.7565   47.7459 H   0  0  0  0  0  0  0  0  0  0  0  0
   57.4715   35.2441   45.6161 H   0  0  0  0  0  0  0  0  0  0  0  0
   56.9846   33.3871   43.9794 H   0  0  0  0  0  0  0  0  0  0  0  0
  1  2  1  0
  2  3  1  0
  3  4  1  0
  4  5  2  0
  5  6  1  0
  6  7  2  0
  7  8  1  0
  8  9  2  0
  9 10  1  0
 10 11  2  0
 11 12  1  0
 12 13  1  0
 12 14  2  0
  7 15  1  0
 15 16  2  0
 15 17  1  0
 17 18  1  0
 18 19  2  0
  5 20  1  0
 20 21  2  0
 21 22  1  0
 22 23  2  0
 23 24  1  0
 24 25  2  0
 25  3  1  0
 18  6  1  0
 25 20  1  0
 14  8  1  0
  1 26  1  0
  1 27  1  0
  1 28  1  0
  2 29  1  0
  2 30  1  0
  9 31  1  0
 10 32  1  0
 11 33  1  0
 13 34  1  0
 14 35  1  0
 21 36  1  0
 22 37  1  0
 23 38  1  0
 24 39  1  0
M  CHG  1  17  -1
M  END
>  <UniqueID>  (3) 
2

>  <SMILES>  (3) 
CCn1nc(C2=C(c3cccc(O)c3)C(=O)[N-]C2=O)c2ccccc21

>  <Energy>  (3) 
113.85099021598953

>  <Genealogy>  (3) 
CCn1nc(C2=C(c3cccc(O)c3)C(=O)[N-]C2=O)c2ccccc21 (protonated)
CCn1nc(C2=C(c3cccc(O)c3)C(=O)[N-]C2=O)c2ccccc21 (3D coordinates assigned)
CCn1nc(C2=C(c3cccc(O)c3)C(=O)[N-]C2=O)c2ccccc21 (nonaromatic ring conformer: 113.85099021598953 kcal/mol)

>  <smiles>  (3) 
CCn1nc(C2=C(c3cccc(O)c3)C(=O)NC2=O)c2ccccc21

>  <score_type>  (3) 
oracle

>  <origin>  (3) 
adg

>  <m_score__min__energy>  (3) 
-10.32

>  <m_primary>  (3) 
energy

$$$$
3:0
     RDKit          3D

 52 54  0  0  0  0  0  0  0  0999 V2000
   57.7189   20.5604   43.7958 H   0  0  0  0  0  0  0  0  0  0  0  0
   57.3400   21.5890   43.7040 C   0  0  0  0  0  0  0  0  0  0  0  0
   56.2600   21.9590   42.9840 N   0  0  0  0  0  0  0  0  0  0  0  0
   56.1780   23.2950   43.1670 C   0  0  0  0  0  0  0  0  0  0  0  0
   55.3978   23.9276   42.7185 H   0  0  0  0  0  0  0  0  0  0  0  0
   57.1600   23.7650   43.9610 N   0  0  0  0  0  0  0  0  0  0  0  0
   57.3900   25.1550   44.3510 C   0  0  0  0  0  0  0  0  0  0  0  0
   56.8608   25.8151   43.6480 H   0  0  0  0  0  0  0  0  0  0  0  0
   58.4734   25.3437   44.3279 H   0  0  0  0  0  0  0  0  0  0  0  0
   56.8840   25.4350   45.7750 C   0  0  0  0  0  0  0  0  0  0  0  0
   57.7326   25.3471   46.4694 H   0  0  0  0  0  0  0  0  0  0  0  0
   56.0929   24.7007   45.9871 H   0  0  0  0  0  0  0  0  0  0  0  0
   56.2620   26.8290   45.9420 C   0  0  0  0  0  0  0  0  0  0  0  0
   56.1498   27.0487   47.0140 H   0  0  0  0  0  0  0  0  0  0  0  0
   55.2801   26.8409   45.4463 H   0  0  0  0  0  0  0  0  0  0  0  0
   57.1090   27.8450   45.3310 N   0  0  0  0  0  0  0  0  0  0  0  0
   56.6090   29.1100   44.8880 C   0  0  0  0  0  0  0  0  0  0  0  0
   55.3690   29.3410   44.9060 O   0  0  0  0  0  0  0  0  0  0  0  0
   57.5550   30.1270   44.3820 C   0  0  0  0  0  0  0  0  0  0  0  0
   58.8280   29.8430   44.4510 N   0  0  0  0  0  0  0  0  0  0  0  0
   59.5990   29.3440   45.5560 C   0  0  0  0  0  0  0  0  0  0  0  0
   60.6050   28.6090   45.3770 O   0  0  0  0  0  0  0  0  0  0  0  0
   59.1440   29.6370   46.9530 C   0  0  0  0  0  0  0  0  0  0  0  0
   58.0717   29.8819   46.9405 H   0  0  0  0  0  0  0  0  0  0  0  0
   59.3234   28.7503   47.5788 H   0  0  0  0  0  0  0  0  0  0  0  0
   59.9100   30.7980   47.5240 C   0  0  0  0  0  0  0  0  0  0  0  0
   59.4940   31.4060   48.7200 C   0  0  0  0  0  0  0  0  0  0  0  0
   58.5944   31.0400   49.2364 H   0  0  0  0  0  0  0  0  0  0  0  0
   60.2190   32.4750   49.2570 C   0  0  0  0  0  0  0  0  0  0  0  0
   59.8800   32.9559   50.1864 H   0  0  0  0  0  0  0  0  0  0  0  0
   61.3740   32.9340   48.6150 C   0  0  0  0  0  0  0  0  0  0  0  0
   62.2900   34.2640   49.2980 Cl  0  0  0  0  0  0  0  0  0  0  0  0
   61.8010   32.3230   47.4310 C   0  0  0  0  0  0  0  0  0  0  0  0
   62.7092   32.6825   46.9251 H   0  0  0  0  0  0  0  0  0  0  0  0
   61.0770   31.2570   46.8890 C   0  0  0  0  0  0  0  0  0  0  0  0
   61.4219   30.7756   45.9620 H   0  0  0  0  0  0  0  0  0  0  0  0
   57.0270   31.4790   43.9400 C   0  0  0  0  0  0  0  0  0  0  0  0
   57.2431   31.6203   42.8707 H   0  0  0  0  0  0  0  0  0  0  0  0
   55.9414   31.5119   44.1145 H   0  0  0  0  0  0  0  0  0  0  0  0
   57.6820   32.5840   44.7290 C   0  0  0  0  0  0  0  0  0  0  0  0
   58.6140   33.4440   44.1220 C   0  0  0  0  0  0  0  0  0  0  0  0
   58.8485   33.3314   43.0532 H   0  0  0  0  0  0  0  0  0  0  0  0
   59.2440   34.4420   44.8720 C   0  0  0  0  0  0  0  0  0  0  0  0
   59.9738   35.1107   44.3921 H   0  0  0  0  0  0  0  0  0  0  0  0
   58.9490   34.5920   46.2290 C   0  0  0  0  0  0  0  0  0  0  0  0
   59.4418   35.3819   46.8148 H   0  0  0  0  0  0  0  0  0  0  0  0
   58.0260   33.7370   46.8440 C   0  0  0  0  0  0  0  0  0  0  0  0
   57.7958   33.8534   47.9133 H   0  0  0  0  0  0  0  0  0  0  0  0
   57.3970   32.7350   46.0980 C   0  0  0  0  0  0  0  0  0  0  0  0
   56.6758   32.0617   46.5844 H   0  0  0  0  0  0  0  0  0  0  0  0
   57.8950   22.6960   44.3060 C   0  0  0  0  0  0  0  0  0  0  0  0
   58.7833   22.7031   44.9547 H   0  0  0  0  0  0  0  0  0  0  0  0
  1  2  1  0
  2  3  1  0
  3  4  2  0
  4  5  1  0
  4  6  1  0
  6  7  1  0
  7  8  1  0
  7  9  1  0
  7 10  1  0
 10 11  1  0
 10 12  1  0
 10 13  1  0
 13 14  1  0
 13 15  1  0
 13 16  1  0
 16 17  1  0
 17 18  2  0
 17 19  1  0
 19 20  2  0
 20 21  1  0
 21 22  2  0
 21 23  1  0
 23 24  1  0
 23 25  1  0
 23 26  1  0
 26 27  2  0
 27 28  1  0
 27 29  1  0
 29 30  1  0
 29 31  2  0
 31 32  1  0
 31 33  1  0
 33 34  1  0
 33 35  2  0
 35 36  1  0
 19 37  1  0
 37 38  1  0
 37 39  1  0
 37 40  1  0
 40 41  2  0
 41 42  1  0
 41 43  1  0
 43 44  1  0
 43 45  2  0
 45 46  1  0
 45 47  1  0
 47 48  1  0
 47 49  2  0
 49 50  1  0
  6 51  1  0
 51 52  1  0
 51  2  2  0
 35 26  1  0
 49 40  1  0
M  CHG  1  16  -1
M  END
>  <UniqueID>  (4) 
3

>  <SMILES>  (4) 
O=C(Cc1ccc(Cl)cc1)/N=C(\Cc1ccccc1)C(=O)[N-]CCCn1ccnc1

>  <Energy>  (4) 
76.22737058191112

>  <Genealogy>  (4) 
O=C(Cc1ccc(Cl)cc1)N=C(Cc1ccccc1)C(=O)[N-]CCCn1ccnc1 (protonated)
O=C(Cc1ccc(Cl)cc1)/N=C(\Cc1ccccc1)C(=O)[N-]CCCn1ccnc1 (cis-trans isomerization)
O=C(Cc1ccc(Cl)cc1)/N=C(\Cc1ccccc1)C(=O)[N-]CCCn1ccnc1 (3D coordinates assigned)
O=C(Cc1ccc(Cl)cc1)/N=C(\Cc1ccccc1)C(=O)[N-]CCCn1ccnc1 (optimized conformer: 76.22737058191112 kcal/mol)

>  <smiles>  (4) 
O=C(Cc1ccc(Cl)cc1)N=C(Cc1ccccc1)C(=O)NCCCn1ccnc1

>  <score_type>  (4) 
oracle

>  <origin>  (4) 
adg

>  <m_score__min__energy>  (4) 
-10.57

>  <m_primary>  (4) 
energy

$$$$
4:0
     RDKit          3D

 42 45  0  0  0  0  0  0  0  0999 V2000
   58.7110   31.5790   48.3780 C   0  0  0  0  0  0  0  0  0  0  0  0
   58.0540   31.9880   47.0490 C   0  0  1  0  0  0  0  0  0  0  0  0
   58.6680   33.2370   46.4560 C   0  0  0  0  0  0  0  0  0  0  0  0
   59.0810   34.2430   47.2740 N   0  0  0  0  0  0  0  0  0  0  0  0
   59.5690   35.4060   46.7710 C   0  0  0  0  0  0  0  0  0  0  0  0
   59.6360   35.5930   45.4290 N   0  0  0  0  0  0  0  0  0  0  0  0
   59.2170   34.6310   44.5680 C   0  0  0  0  0  0  0  0  0  0  0  0
   58.6980   33.4260   45.0560 C   0  0  0  0  0  0  0  0  0  0  0  0
   58.2780   32.3420   44.0860 C   0  0  0  0  0  0  0  0  0  0  0  0
   57.4530   31.2410   44.7620 C   0  0  0  0  0  0  0  0  0  0  0  0
   58.0650   30.9060   46.0470 N   0  0  0  0  0  0  0  0  0  0  0  0
   59.0520   29.8580   46.0610 C   0  0  0  0  0  0  0  0  0  0  0  0
   60.2760   30.1590   46.0040 O   0  0  0  0  0  0  0  0  0  0  0  0
   58.6400   28.4340   46.1140 C   0  0  0  0  0  0  0  0  0  0  0  0
   59.6020   27.4190   46.2600 C   0  0  0  0  0  0  0  0  0  0  0  0
   59.2170   26.0780   46.3170 C   0  0  0  0  0  0  0  0  0  0  0  0
   57.8650   25.7230   46.2120 C   0  0  0  0  0  0  0  0  0  0  0  0
   56.8920   26.7340   46.0790 C   0  0  0  0  0  0  0  0  0  0  0  0
   57.2810   28.0790   46.0330 C   0  0  0  0  0  0  0  0  0  0  0  0
   55.5050   26.3800   45.9830 N   0  0  0  0  0  0  0  0  0  0  0  0
   55.1190   25.0140   45.7980 C   0  0  0  0  0  0  0  0  0  0  0  0
   53.8990   24.7030   45.7650 O   0  0  0  0  0  0  0  0  0  0  0  0
   56.1700   23.9700   45.5640 C   0  0  0  0  0  0  0  0  0  0  0  0
   57.4400   24.2830   46.3660 C   0  0  0  0  0  0  0  0  0  0  0  0
   58.1068   31.9551   49.2167 H   0  0  0  0  0  0  0  0  0  0  0  0
   58.7734   30.4822   48.4339 H   0  0  0  0  0  0  0  0  0  0  0  0
   59.7227   32.0071   48.4339 H   0  0  0  0  0  0  0  0  0  0  0  0
   57.0069   32.2048   47.3072 H   0  0  0  0  0  0  0  0  0  0  0  0
   59.9108   36.1983   47.4532 H   0  0  0  0  0  0  0  0  0  0  0  0
   59.2855   34.7989   43.4830 H   0  0  0  0  0  0  0  0  0  0  0  0
   57.6731   32.7971   43.2878 H   0  0  0  0  0  0  0  0  0  0  0  0
   59.1913   31.8785   43.6848 H   0  0  0  0  0  0  0  0  0  0  0  0
   56.4255   31.5982   44.9252 H   0  0  0  0  0  0  0  0  0  0  0  0
   57.4282   30.3487   44.1192 H   0  0  0  0  0  0  0  0  0  0  0  0
   60.6674   27.6837   46.3299 H   0  0  0  0  0  0  0  0  0  0  0  0
   59.9793   25.2954   46.4451 H   0  0  0  0  0  0  0  0  0  0  0  0
   56.5173   28.8643   45.9327 H   0  0  0  0  0  0  0  0  0  0  0  0
   54.7690   27.1210   46.0200 H   0  0  0  0  0  0  0  0  0  0  0  0
   55.7797   22.9898   45.8754 H   0  0  0  0  0  0  0  0  0  0  0  0
   56.4235   23.9599   44.4937 H   0  0  0  0  0  0  0  0  0  0  0  0
   57.2469   24.0815   47.4300 H   0  0  0  0  0  0  0  0  0  0  0  0
   58.2504   23.6464   45.9814 H   0  0  0  0  0  0  0  0  0  0  0  0
  1  2  1  0
  2  3  1  0
  3  4  2  0
  4  5  1  0
  5  6  2  0
  6  7  1  0
  7  8  2  0
  8  9  1  0
  9 10  1  0
 10 11  1  0
 11 12  1  0
 12 13  2  0
 12 14  1  0
 14 15  2  0
 15 16  1  0
 16 17  2  0
 17 18  1  0
 18 19  2  0
 18 20  1  0
 20 21  1  0
 21 22  2  0
 21 23  1  0
 23 24  1  0
 11  2  1  0
 19 14  1  0
  8  3  1  0
 24 17  1  0
  1 25  1  0
  1 26  1  0
  1 27  1  0
  2 28  1  1
  5 29  1  0
  7 30  1  0
  9 31  1  0
  9 32  1  0
 10 33  1  0
 10 34  1  0
 15 35  1  0
 16 36  1  0
 19 37  1  0
 20 38  1  0
 23 39  1  0
 23 40  1  0
 24 41  1  0
 24 42  1  0
M  END
>  <UniqueID>  (5) 
4

>  <SMILES>  (5) 
C[C@H]1c2ncncc2CCN1C(=O)c1ccc2c(c1)NC(=O)CC2

>  <Energy>  (5) 
55.98035244867355

>  <Genealogy>  (5) 
C[C@H]1c2ncncc2CCN1C(=O)c1ccc2c(c1)NC(=O)CC2 (chirality)
C[C@H]1c2ncncc2CCN1C(=O)c1ccc2c(c1)NC(=O)CC2 (3D coordinates assigned)
C[C@H]1c2ncncc2CCN1C(=O)c1ccc2c(c1)NC(=O)CC2 (nonaromatic ring conformer: 55.98035244867355 kcal/mol)

>  <smiles>  (5) 
CC1c2ncncc2CCN1C(=O)c1ccc2c(c1)NC(=O)CC2

>  <score_type>  (5) 
oracle

>  <origin>  (5) 
adg

>  <m_score__min__energy>  (5) 
-8.0700000000000003

>  <m_primary>  (5) 
energy

$$$$
5:0
     RDKit          3D

 22 23  0  0  0  0  0  0  0  0999 V2000
   55.1470   26.7450   45.9900 O   0  0  0  0  0  0  0  0  0  0  0  0
   56.5020   27.0370   45.8710 C   0  0  0  0  0  0  0  0  0  0  0  0
   57.4440   26.1390   46.3840 C   0  0  0  0  0  0  0  0  0  0  0  0
   58.8090   26.4210   46.2880 C   0  0  0  0  0  0  0  0  0  0  0  0
   59.2390   27.6020   45.6780 C   0  0  0  0  0  0  0  0  0  0  0  0
   58.3040   28.5030   45.1610 C   0  0  0  0  0  0  0  0  0  0  0  0
   56.9280   28.2240   45.2410 C   0  0  0  0  0  0  0  0  0  0  0  0
   55.9320   29.2220   44.7120 C   0  0  0  0  0  0  0  0  0  0  0  0
   56.6250   30.4940   44.3410 C   0  0  0  0  0  0  0  0  0  0  0  0
   57.0380   30.8490   43.0730 C   0  0  0  0  0  0  0  0  0  0  0  0
   57.6780   32.0250   43.1610 N   0  0  0  0  0  0  0  0  0  0  0  0
   57.6450   32.3440   44.4690 C   0  0  0  0  0  0  0  0  0  0  0  0
   58.3190   33.7020   45.0800 S   0  0  0  0  0  0  0  0  0  0  0  0
   57.0140   31.4280   45.2320 N   0  0  0  0  0  0  0  0  0  0  0  0
   57.1090   25.2079   46.8645 H   0  0  0  0  0  0  0  0  0  0  0  0
   59.5461   25.7122   46.6933 H   0  0  0  0  0  0  0  0  0  0  0  0
   60.3141   27.8229   45.6046 H   0  0  0  0  0  0  0  0  0  0  0  0
   58.6464   29.4357   44.6888 H   0  0  0  0  0  0  0  0  0  0  0  0
   55.4367   28.8050   43.8227 H   0  0  0  0  0  0  0  0  0  0  0  0
   55.1858   29.4334   45.4921 H   0  0  0  0  0  0  0  0  0  0  0  0
   56.8718   30.2700   42.1526 H   0  0  0  0  0  0  0  0  0  0  0  0
   58.1140   32.5640   42.3810 H   0  0  0  0  0  0  0  0  0  0  0  0
  1  2  1  0
  2  3  2  0
  3  4  1  0
  4  5  2  0
  5  6  1  0
  6  7  2  0
  7  8  1  0
  8  9  1  0
  9 10  2  0
 10 11  1  0
 11 12  1  0
 12 13  2  0
 12 14  1  0
  7  2  1  0
 14  9  1  0
  3 15  1  0
  4 16  1  0
  5 17  1  0
  6 18  1  0
  8 19  1  0
  8 20  1  0
 10 21  1  0
 11 22  1  0
M  CHG  2   1  -1  14  -1
M  END
>  <UniqueID>  (6) 
5

>  <SMILES>  (6) 
[O-]c1ccccc1Cc1c[nH]c(=S)[n-]1

>  <Energy>  (6) 
50.203156362654546

>  <Genealogy>  (6) 
[O-]c1ccccc1Cc1c[nH]c(=S)[n-]1 (protonated)
[O-]c1ccccc1Cc1c[nH]c(=S)[n-]1 (3D coordinates assigned)
[O-]c1ccccc1Cc1c[nH]c(=S)[n-]1 (optimized conformer: 50.203156362654546 kcal/mol)

>  <smiles>  (6) 
Oc1ccccc1Cc1c[nH]c(=S)[nH]1

>  <score_type>  (6) 
oracle

>  <origin>  (6) 
adg

>  <m_score__min__energy>  (6) 
-10.77

>  <m_primary>  (6) 
energy

$$$$
6:0
     RDKit          3D

 32 33  0  0  0  0  0  0  0  0999 V2000
   56.0120   31.6920   50.8490 H   0  0  0  0  0  0  0  0  0  0  0  0
   56.9630   31.3470   50.9020 O   0  0  0  0  0  0  0  0  0  0  0  0
   57.7200   31.5080   52.0590 C   0  0  0  0  0  0  0  0  0  0  0  0
   58.5950   32.5450   52.1480 N   0  0  0  0  0  0  0  0  0  0  0  0
   59.3190   32.7570   53.2770 C   0  0  0  0  0  0  0  0  0  0  0  0
   60.1250   33.7220   53.3350 O   0  0  0  0  0  0  0  0  0  0  0  0
   59.1690   31.9340   54.3460 N   0  0  0  0  0  0  0  0  0  0  0  0
   58.3110   30.8820   54.3050 C   0  0  0  0  0  0  0  0  0  0  0  0
   58.1820   30.0640   55.4220 O   0  0  0  0  0  0  0  0  0  0  0  0
   57.5710   30.6250   53.1420 C   0  0  0  0  0  0  0  0  0  0  0  0
   56.6180   29.4930   53.1030 C   0  0  0  0  0  0  0  0  0  0  0  0
   57.0280   28.4733   53.0566 H   0  0  0  0  0  0  0  0  0  0  0  0
   55.2770   29.6370   53.1210 C   0  0  0  0  0  0  0  0  0  0  0  0
   54.6420   30.7540   52.4580 C   0  0  0  0  0  0  0  0  0  0  0  0
   54.1320   31.6480   51.9280 N   0  0  0  0  0  0  0  0  0  0  0  0
   54.4140   28.6260   53.7740 C   0  0  0  0  0  0  0  0  0  0  0  0
   54.6970   28.2180   54.9340 O   0  0  0  0  0  0  0  0  0  0  0  0
   53.2610   28.1050   53.0990 N   0  0  0  0  0  0  0  0  0  0  0  0
   51.9190   28.6550   53.2490 C   0  0  0  0  0  0  0  0  0  0  0  0
   51.1799   27.8536   53.1026 H   0  0  0  0  0  0  0  0  0  0  0  0
   51.8176   29.0812   54.2580 H   0  0  0  0  0  0  0  0  0  0  0  0
   51.6830   29.7390   52.2340 C   0  0  0  0  0  0  0  0  0  0  0  0
   52.0180   29.5260   50.8870 C   0  0  0  0  0  0  0  0  0  0  0  0
   52.4699   28.5714   50.5797 H   0  0  0  0  0  0  0  0  0  0  0  0
   51.7800   30.5210   49.9350 C   0  0  0  0  0  0  0  0  0  0  0  0
   52.0471   30.3481   48.8820 H   0  0  0  0  0  0  0  0  0  0  0  0
   51.2030   31.7360   50.3180 C   0  0  0  0  0  0  0  0  0  0  0  0
   50.9680   32.7210   49.3660 O   0  0  0  0  0  0  0  0  0  0  0  0
   50.8590   31.9540   51.6580 C   0  0  0  0  0  0  0  0  0  0  0  0
   50.2810   33.1580   52.0430 O   0  0  0  0  0  0  0  0  0  0  0  0
   51.0970   30.9590   52.6130 C   0  0  0  0  0  0  0  0  0  0  0  0
   50.8243   31.1325   53.6645 H   0  0  0  0  0  0  0  0  0  0  0  0
  1  2  1  0
  2  3  1  0
  3  4  1  0
  4  5  1  0
  5  6  2  0
  5  7  1  0
  7  8  2  0
  8  9  1  0
  8 10  1  0
 10 11  1  0
 11 12  1  0
 11 13  2  0
 13 14  1  0
 14 15  3  0
 13 16  1  0
 16 17  2  0
 16 18  1  0
 18 19  1  0
 19 20  1  0
 19 21  1  0
 19 22  1  0
 22 23  2  0
 23 24  1  0
 23 25  1  0
 25 26  1  0
 25 27  2  0
 27 28  1  0
 27 29  1  0
 29 30  1  0
 29 31  2  0
 31 32  1  0
 10  3  2  0
 31 22  1  0
M  CHG  5   4  -1   9  -1  18  -1  28  -1  30  -1
M  END
>  <UniqueID>  (7) 
6

>  <SMILES>  (7) 
N#C/C(=C\c1c([O-])nc(=O)[n-]c1O)C(=O)[N-]Cc1ccc([O-])c([O-])c1

>  <Energy>  (7) 
38.745893668353155

>  <Genealogy>  (7) 
N#CC(=Cc1c([O-])nc(=O)[n-]c1O)C(=O)[N-]Cc1ccc([O-])c([O-])c1 (protonated)
N#C/C(=C\c1c([O-])nc(=O)[n-]c1O)C(=O)[N-]Cc1ccc([O-])c([O-])c1 (cis-trans isomerization)
N#C/C(=C\c1c([O-])nc(=O)[n-]c1O)C(=O)[N-]Cc1ccc([O-])c([O-])c1 (3D coordinates assigned)
N#C/C(=C\c1c([O-])nc(=O)[n-]c1O)C(=O)[N-]Cc1ccc([O-])c([O-])c1 (optimized conformer: 38.745893668353155 kcal/mol)

>  <smiles>  (7) 
N#CC(=Cc1c(O)nc(=O)[nH]c1O)C(=O)NCc1ccc(O)c(O)c1

>  <score_type>  (7) 
oracle

>  <origin>  (7) 
adg

>  <m_score__min__energy>  (7) 
-16.57

>  <m_primary>  (7) 
energy

$$$$
7:0
     RDKit          3D

 40 42  0  0  0  0  0  0  0  0999 V2000
   57.9253   28.3116   43.2591 H   0  0  0  0  0  0  0  0  0  0  0  0
   57.7520   28.9200   44.1590 C   0  0  0  0  0  0  0  0  0  0  0  0
   56.5760   28.5830   44.9870 C   0  0  0  0  0  0  0  0  0  0  0  0
   55.4920   29.2200   44.8770 O   0  0  0  0  0  0  0  0  0  0  0  0
   56.6680   27.4860   45.8980 N   0  0  0  0  0  0  0  0  0  0  0  0
   57.8210   26.5980   45.9480 C   0  0  0  0  0  0  0  0  0  0  0  0
   58.6327   27.0158   45.3344 H   0  0  0  0  0  0  0  0  0  0  0  0
   58.1629   26.4985   46.9888 H   0  0  0  0  0  0  0  0  0  0  0  0
   57.4350   25.2480   45.4160 C   0  0  0  0  0  0  0  0  0  0  0  0
   57.0250   25.1050   44.0790 C   0  0  0  0  0  0  0  0  0  0  0  0
   56.9656   25.9891   43.4272 H   0  0  0  0  0  0  0  0  0  0  0  0
   56.6920   23.8430   43.5730 C   0  0  0  0  0  0  0  0  0  0  0  0
   56.3633   23.7370   42.5286 H   0  0  0  0  0  0  0  0  0  0  0  0
   56.7780   22.7190   44.3970 C   0  0  0  0  0  0  0  0  0  0  0  0
   57.2280   22.8480   45.7180 C   0  0  0  0  0  0  0  0  0  0  0  0
   57.5470   24.1090   46.2310 C   0  0  0  0  0  0  0  0  0  0  0  0
   57.8857   24.2093   47.2727 H   0  0  0  0  0  0  0  0  0  0  0  0
   57.3540   21.7010   46.5080 O   0  0  0  0  0  0  0  0  0  0  0  0
   57.3000   20.3940   45.9270 C   0  0  0  0  0  0  0  0  0  0  0  0
   58.2842   20.1435   45.5044 H   0  0  0  0  0  0  0  0  0  0  0  0
   57.0290   19.6663   46.7061 H   0  0  0  0  0  0  0  0  0  0  0  0
   56.2450   20.3510   44.8140 C   0  0  0  0  0  0  0  0  0  0  0  0
   56.3468   19.4099   44.2536 H   0  0  0  0  0  0  0  0  0  0  0  0
   55.2444   20.4135   45.2667 H   0  0  0  0  0  0  0  0  0  0  0  0
   56.4210   21.4530   43.9210 O   0  0  0  0  0  0  0  0  0  0  0  0
   58.6270   29.9060   44.4120 C   0  0  0  0  0  0  0  0  0  0  0  0
   59.6956   29.6876   44.2693 H   0  0  0  0  0  0  0  0  0  0  0  0
   58.2610   31.2630   44.8680 C   0  0  0  0  0  0  0  0  0  0  0  0
   58.3730   31.5450   46.2380 C   0  0  0  0  0  0  0  0  0  0  0  0
   58.6890   30.7535   46.9335 H   0  0  0  0  0  0  0  0  0  0  0  0
   58.0870   32.8210   46.7260 C   0  0  0  0  0  0  0  0  0  0  0  0
   58.1842   33.0332   47.8010 H   0  0  0  0  0  0  0  0  0  0  0  0
   57.6780   33.8270   45.8510 C   0  0  0  0  0  0  0  0  0  0  0  0
   57.4675   34.8360   46.2352 H   0  0  0  0  0  0  0  0  0  0  0  0
   57.5350   33.5570   44.4890 C   0  0  0  0  0  0  0  0  0  0  0  0
   57.2102   34.3564   43.8067 H   0  0  0  0  0  0  0  0  0  0  0  0
   57.8020   32.2730   43.9800 C   0  0  0  0  0  0  0  0  0  0  0  0
   57.5870   32.0160   42.5790 N   0  0  0  0  0  0  0  0  0  0  0  0
   58.3070   32.5550   41.7140 O   0  0  0  0  0  0  0  0  0  0  0  0
   56.6870   31.0540   42.1850 O   0  0  0  0  0  0  0  0  0  0  0  0
  1  2  1  0
  2  3  1  0
  3  4  2  0
  3  5  1  0
  5  6  1  0
  6  7  1  0
  6  8  1  0
  6  9  1  0
  9 10  2  0
 10 11  1  0
 10 12  1  0
 12 13  1  0
 12 14  2  0
 14 15  1  0
 15 16  2  0
 16 17  1  0
 15 18  1  0
 18 19  1  0
 19 20  1  0
 19 21  1  0
 19 22  1  0
 22 23  1  0
 22 24  1  0
 22 25  1  0
  2 26  2  0
 26 27  1  0
 26 28  1  0
 28 29  2  0
 29 30  1  0
 29 31  1  0
 31 32  1  0
 31 33  2  0
 33 34  1  0
 33 35  1  0
 35 36  1  0
 35 37  2  0
 37 38  1  0
 38 39  2  0
 38 40  1  0
 16  9  1  0
 37 28  1  0
 25 14  1  0
M  CHG  3   5  -1  38   1  40  -1
M  END
>  <UniqueID>  (8) 
7

>  <SMILES>  (8) 
O=C(/C=C\c1ccccc1[N+](=O)[O-])[N-]Cc1ccc2c(c1)OCCO2

>  <Energy>  (8) 
52.395621736423266

>  <Genealogy>  (8) 
O=C(C=Cc1ccccc1[N+](=O)[O-])[N-]Cc1ccc2c(c1)OCCO2 (protonated)
O=C(/C=C\c1ccccc1[N+](=O)[O-])[N-]Cc1ccc2c(c1)OCCO2 (cis-trans isomerization)
O=C(/C=C\c1ccccc1[N+](=O)[O-])[N-]Cc1ccc2c(c1)OCCO2 (3D coordinates assigned)
O=C(/C=C\c1ccccc1[N+](=O)[O-])[N-]Cc1ccc2c(c1)OCCO2 (nonaromatic ring conformer: 52.395621736423266 kcal/mol)

>  <smiles>  (8) 
O=C(C=Cc1ccccc1[N+](=O)[O-])NCc1ccc2c(c1)OCCO2

>  <score_type>  (8) 
oracle

>  <origin>  (8) 
adg

>  <m_score__min__energy>  (8) 
-10.369999999999999

>  <m_primary>  (8) 
energy

$$$$
8:0
     RDKit          3D

 52 54  0  0  0  0  0  0  0  0999 V2000
   52.7110   24.4700   44.8770 C   0  0  0  0  0  0  0  0  0  0  0  0
   53.7750   23.6420   45.4400 N   0  0  0  0  0  0  0  0  0  0  0  0
   55.1280   24.1080   45.3910 C   0  0  0  0  0  0  0  0  0  0  0  0
   56.1530   23.2250   45.0370 C   0  0  0  0  0  0  0  0  0  0  0  0
   57.4700   23.6740   44.9610 C   0  0  0  0  0  0  0  0  0  0  0  0
   57.7730   25.0100   45.2330 C   0  0  0  0  0  0  0  0  0  0  0  0
   56.7580   25.9170   45.5970 C   0  0  0  0  0  0  0  0  0  0  0  0
   57.1050   27.3380   45.8480 C   0  0  0  0  0  0  0  0  0  0  0  0
   56.3370   28.2510   45.4390 O   0  0  0  0  0  0  0  0  0  0  0  0
   58.3290   27.6840   46.5100 N   0  0  0  0  0  0  0  0  0  0  0  0
   58.7620   29.0150   46.8210 C   0  0  0  0  0  0  0  0  0  0  0  0
   59.5620   29.2280   47.9500 C   0  0  0  0  0  0  0  0  0  0  0  0
   59.9100   30.4910   48.3160 N   0  0  0  0  0  0  0  0  0  0  0  0
   59.4940   31.5790   47.6160 C   0  0  0  0  0  0  0  0  0  0  0  0
   58.6810   31.4200   46.4890 C   0  0  0  0  0  0  0  0  0  0  0  0
   58.0650   32.8280   45.6230 S   0  0  0  0  0  0  0  0  0  0  0  0
   58.8660   33.0040   44.3650 O   0  0  0  0  0  0  0  0  0  0  0  0
   56.6320   32.5900   45.2340 O   0  0  0  0  0  0  0  0  0  0  0  0
   58.1610   34.2960   46.5600 N   0  0  0  0  0  0  0  0  0  0  0  0
   59.4070   35.0310   46.3290 C   0  0  0  0  0  0  0  0  0  0  0  0
   60.5700   34.4470   47.0940 C   0  0  0  0  0  0  0  0  0  0  0  0
   61.6360   33.8410   46.4030 C   0  0  0  0  0  0  0  0  0  0  0  0
   62.7160   33.2980   47.1050 C   0  0  0  0  0  0  0  0  0  0  0  0
   62.7560   33.3810   48.4990 C   0  0  0  0  0  0  0  0  0  0  0  0
   61.7220   34.0160   49.1920 C   0  0  0  0  0  0  0  0  0  0  0  0
   60.6380   34.5550   48.4940 C   0  0  0  0  0  0  0  0  0  0  0  0
   58.3240   30.1280   46.0870 C   0  0  0  0  0  0  0  0  0  0  0  0
   55.4240   25.4530   45.6720 C   0  0  0  0  0  0  0  0  0  0  0  0
   54.3820   26.3210   45.9910 O   0  0  0  0  0  0  0  0  0  0  0  0
   53.4060   22.1410   46.2330 S   0  0  0  0  0  0  0  0  0  0  0  0
   53.4010   22.3650   48.0020 C   0  0  0  0  0  0  0  0  0  0  0  0
   54.4510   21.1150   45.8870 O   0  0  0  0  0  0  0  0  0  0  0  0
   52.0570   21.6530   45.7870 O   0  0  0  0  0  0  0  0  0  0  0  0
   52.1286   24.9232   45.6927 H   0  0  0  0  0  0  0  0  0  0  0  0
   53.1533   25.2639   44.2572 H   0  0  0  0  0  0  0  0  0  0  0  0
   52.0501   23.8463   44.2572 H   0  0  0  0  0  0  0  0  0  0  0  0
   55.9189   22.1728   44.8179 H   0  0  0  0  0  0  0  0  0  0  0  0
   58.2731   22.9744   44.6861 H   0  0  0  0  0  0  0  0  0  0  0  0
   58.8143   25.3576   45.1624 H   0  0  0  0  0  0  0  0  0  0  0  0
   59.9107   28.3702   48.5437 H   0  0  0  0  0  0  0  0  0  0  0  0
   59.7972   32.5867   47.9363 H   0  0  0  0  0  0  0  0  0  0  0  0
   59.6405   35.0015   45.2545 H   0  0  0  0  0  0  0  0  0  0  0  0
   59.2581   36.0625   46.6810 H   0  0  0  0  0  0  0  0  0  0  0  0
   61.6191   33.7944   45.3041 H   0  0  0  0  0  0  0  0  0  0  0  0
   63.5345   32.8053   46.5597 H   0  0  0  0  0  0  0  0  0  0  0  0
   63.6020   32.9462   49.0514 H   0  0  0  0  0  0  0  0  0  0  0  0
   61.7614   34.0917   50.2887 H   0  0  0  0  0  0  0  0  0  0  0  0
   59.8336   35.0665   49.0429 H   0  0  0  0  0  0  0  0  0  0  0  0
   57.6986   29.9845   45.1936 H   0  0  0  0  0  0  0  0  0  0  0  0
   53.4229   21.3824   48.4961 H   0  0  0  0  0  0  0  0  0  0  0  0
   54.2864   22.9454   48.3006 H   0  0  0  0  0  0  0  0  0  0  0  0
   52.4906   22.9053   48.3006 H   0  0  0  0  0  0  0  0  0  0  0  0
  1  2  1  0
  2  3  1  0
  3  4  2  0
  4  5  1  0
  5  6  2  0
  6  7  1  0
  7  8  1  0
  8  9  2  0
  8 10  1  0
 10 11  1  0
 11 12  2  0
 12 13  1  0
 13 14  2  0
 14 15  1  0
 15 16  1  0
 16 17  2  0
 16 18  2  0
 16 19  1  0
 19 20  1  0
 20 21  1  0
 21 22  2  0
 22 23  1  0
 23 24  2  0
 24 25  1  0
 25 26  2  0
 15 27  2  0
  7 28  2  0
 28 29  1  0
  2 30  1  0
 30 31  1  0
 30 32  2  0
 30 33  2  0
 28  3  1  0
 27 11  1  0
 26 21  1  0
  1 34  1  0
  1 35  1  0
  1 36  1  0
  4 37  1  0
  5 38  1  0
  6 39  1  0
 12 40  1  0
 14 41  1  0
 20 42  1  0
 20 43  1  0
 22 44  1  0
 23 45  1  0
 24 46  1  0
 25 47  1  0
 26 48  1  0
 27 49  1  0
 31 50  1  0
 31 51  1  0
 31 52  1  0
M  CHG  3  10  -1  19  -1  29  -1
M  END
>  <UniqueID>  (9) 
8

>  <SMILES>  (9) 
CN(c1cccc(C(=O)[N-]c2cncc(S(=O)(=O)[N-]Cc3ccccc3)c2)c1[O-])S(C)(=O)=O

>  <Energy>  (9) 
60.77682344041453

>  <Genealogy>  (9) 
CN(c1cccc(C(=O)[N-]c2cncc(S(=O)(=O)[N-]Cc3ccccc3)c2)c1[O-])S(C)(=O)=O (protonated)
CN(c1cccc(C(=O)[N-]c2cncc(S(=O)(=O)[N-]Cc3ccccc3)c2)c1[O-])S(C)(=O)=O (3D coordinates assigned)
CN(c1cccc(C(=O)[N-]c2cncc(S(=O)(=O)[N-]Cc3ccccc3)c2)c1[O-])S(C)(=O)=O (optimized conformer: 60.77682344041453 kcal/mol)

>  <smiles>  (9) 
CN(c1cccc(C(=O)Nc2cncc(S(=O)(=O)NCc3ccccc3)c2)c1O)S(C)(=O)=O

>  <score_type>  (9) 
oracle

>  <origin>  (9) 
adg

>  <m_score__min__energy>  (9) 
-15.66

>  <m_primary>  (9) 
energy

$$$$
9:0
     RDKit          3D

 45 47  0  0  0  0  0  0  0  0999 V2000
   56.4050   31.8620   44.7720 N   0  0  0  0  0  0  0  0  0  0  0  0
   57.3770   32.6430   45.0590 C   0  0  0  0  0  0  0  0  0  0  0  0
   58.4370   32.2130   45.8620 C   0  0  0  0  0  0  0  0  0  0  0  0
   59.4890   33.0610   46.1720 C   0  0  0  0  0  0  0  0  0  0  0  0
   60.6010   32.6320   47.0090 C   0  0  0  0  0  0  0  0  0  0  0  0
   61.8120   33.2860   46.9730 C   0  0  0  0  0  0  0  0  0  0  0  0
   62.8940   32.8900   47.7670 C   0  0  0  0  0  0  0  0  0  0  0  0
   64.1350   33.5850   47.7090 N   0  0  0  0  0  0  0  0  0  0  0  0
   62.7740   31.8160   48.6200 C   0  0  0  0  0  0  0  0  0  0  0  0
   63.8630   31.4490   49.3940 O   0  0  0  0  0  0  0  0  0  0  0  0
   61.5560   31.1370   48.6730 C   0  0  0  0  0  0  0  0  0  0  0  0
   61.4280   30.0380   49.5580 N   0  0  0  0  0  0  0  0  0  0  0  0
   60.1130   28.9570   49.6090 S   0  0  0  0  0  0  0  0  0  0  0  0
   60.2990   27.8600   50.6040 O   0  0  0  0  0  0  0  0  0  0  0  0
   58.8710   29.7100   50.0360 O   0  0  0  0  0  0  0  0  0  0  0  0
   59.8550   28.2060   48.0570 C   0  0  0  0  0  0  0  0  0  0  0  0
   60.4430   26.9840   47.8270 C   0  0  0  0  0  0  0  0  0  0  0  0
   60.2570   26.3480   46.6020 C   0  0  0  0  0  0  0  0  0  0  0  0
   59.4890   26.9220   45.6110 C   0  0  0  0  0  0  0  0  0  0  0  0
   58.8990   28.1330   45.8250 C   0  0  0  0  0  0  0  0  0  0  0  0
   57.9200   28.9010   44.6100 S   0  0  0  0  0  0  0  0  0  0  0  0
   56.3950   29.3590   45.3230 N   0  0  0  0  0  0  0  0  0  0  0  0
   58.5400   30.1380   44.0590 O   0  0  0  0  0  0  0  0  0  0  0  0
   57.6800   27.9370   43.4650 O   0  0  0  0  0  0  0  0  0  0  0  0
   59.0950   28.7540   47.0520 C   0  0  0  0  0  0  0  0  0  0  0  0
   60.4950   31.5600   47.8660 C   0  0  0  0  0  0  0  0  0  0  0  0
   59.4190   34.2990   45.6550 N   0  0  0  0  0  0  0  0  0  0  0  0
   58.3770   34.7010   44.8720 C   0  0  0  0  0  0  0  0  0  0  0  0
   57.3550   33.8830   44.5690 N   0  0  0  0  0  0  0  0  0  0  0  0
   56.5660   31.0130   44.1820 H   0  0  0  0  0  0  0  0  0  0  0  0
   58.4366   31.1853   46.2543 H   0  0  0  0  0  0  0  0  0  0  0  0
   61.9328   34.1468   46.2989 H   0  0  0  0  0  0  0  0  0  0  0  0
   64.2280   34.5540   47.3440 H   0  0  0  0  0  0  0  0  0  0  0  0
   64.9910   33.0660   48.0620 H   0  0  0  0  0  0  0  0  0  0  0  0
   63.8800   31.6890   50.3980 H   0  0  0  0  0  0  0  0  0  0  0  0
   62.2170   29.8660   50.2530 H   0  0  0  0  0  0  0  0  0  0  0  0
   61.0575   26.5111   48.6072 H   0  0  0  0  0  0  0  0  0  0  0  0
   60.7306   25.3716   46.4221 H   0  0  0  0  0  0  0  0  0  0  0  0
   59.3525   26.4044   44.6500 H   0  0  0  0  0  0  0  0  0  0  0  0
   56.6250   30.0880   46.0290 H   0  0  0  0  0  0  0  0  0  0  0  0
   55.8460   29.7510   44.5180 H   0  0  0  0  0  0  0  0  0  0  0  0
   58.6195   29.7303   47.2273 H   0  0  0  0  0  0  0  0  0  0  0  0
   59.5404   31.0159   47.9180 H   0  0  0  0  0  0  0  0  0  0  0  0
   60.1470   35.0260   45.8160 H   0  0  0  0  0  0  0  0  0  0  0  0
   58.3732   35.7273   44.4761 H   0  0  0  0  0  0  0  0  0  0  0  0
  1  2  2  3
  2  3  1  0
  3  4  2  0
  4  5  1  0
  5  6  2  0
  6  7  1  0
  7  8  1  0
  7  9  2  0
  9 10  1  0
  9 11  1  0
 11 12  1  0
 12 13  1  0
 13 14  2  0
 13 15  2  0
 13 16  1  0
 16 17  2  0
 17 18  1  0
 18 19  2  0
 19 20  1  0
 20 21  1  0
 21 22  1  0
 21 23  2  0
 21 24  2  0
 20 25  2  0
 11 26  2  0
  4 27  1  0
 27 28  1  0
 28 29  2  0
 29  2  1  0
 26  5  1  0
 25 16  1  0
  1 30  1  0
  3 31  1  0
  6 32  1  0
  8 33  1  0
  8 34  1  0
 10 35  1  0
 12 36  1  0
 17 37  1  0
 18 38  1  0
 19 39  1  0
 22 40  1  0
 22 41  1  0
 25 42  1  0
 26 43  1  0
 27 44  1  0
 28 45  1  0
M  END
>  <smiles>  (10) 
N=c1cc(-c2cc(N)c(O)c(NS(=O)(=O)c3cccc(S(N)(=O)=O)c3)c2)[nH]cn1

>  <score_type>  (10) 
oracle

>  <origin>  (10) 
adg

>  <m_score__min__energy>  (10) 
-9.0199999999999996

>  <m_primary>  (10) 
energy

$$$$
10:0
     RDKit          3D

 24 25  0  0  0  0  0  0  0  0999 V2000
   54.9780   26.7360   45.1670 H   0  0  0  0  0  0  0  0  0  0  0  0
   55.2470   26.2410   46.0460 N   0  0  0  0  0  0  0  0  0  0  0  0
   56.5620   26.3640   46.5860 C   0  0  0  0  0  0  0  0  0  0  0  0
   57.0680   25.3910   47.2040 O   0  0  0  0  0  0  0  0  0  0  0  0
   57.3260   27.5720   46.4430 N   0  0  0  0  0  0  0  0  0  0  0  0
   57.0090   28.6310   45.7560 C   0  0  0  0  0  0  0  0  0  0  0  0
   57.7320   29.7690   45.9280 N   0  0  0  0  0  0  0  0  0  0  0  0
   57.4480   30.9120   45.2440 C   0  0  0  0  0  0  0  0  0  0  0  0
   58.2780   32.1220   45.4730 C   0  0  0  0  0  0  0  0  0  0  0  0
   59.3760   32.0620   46.3530 C   0  0  0  0  0  0  0  0  0  0  0  0
   59.6160   31.1166   46.8616 H   0  0  0  0  0  0  0  0  0  0  0  0
   60.1640   33.1940   46.5860 C   0  0  0  0  0  0  0  0  0  0  0  0
   61.0223   33.1345   47.2714 H   0  0  0  0  0  0  0  0  0  0  0  0
   59.8620   34.4000   45.9490 C   0  0  0  0  0  0  0  0  0  0  0  0
   60.4849   35.2884   46.1299 H   0  0  0  0  0  0  0  0  0  0  0  0
   58.7700   34.4780   45.0830 C   0  0  0  0  0  0  0  0  0  0  0  0
   58.5303   35.4299   44.5866 H   0  0  0  0  0  0  0  0  0  0  0  0
   57.9800   33.3490   44.8450 C   0  0  0  0  0  0  0  0  0  0  0  0
   57.1198   33.4185   44.1629 H   0  0  0  0  0  0  0  0  0  0  0  0
   56.3870   30.9050   44.3240 C   0  0  0  0  0  0  0  0  0  0  0  0
   56.1390   31.8079   43.7467 H   0  0  0  0  0  0  0  0  0  0  0  0
   55.6540   29.7300   44.1570 C   0  0  0  0  0  0  0  0  0  0  0  0
   54.6960   29.6930   43.3400 O   0  0  0  0  0  0  0  0  0  0  0  0
   55.9740   28.6230   44.8720 N   0  0  0  0  0  0  0  0  0  0  0  0
  1  2  1  0
  2  3  1  0
  3  4  2  0
  3  5  1  0
  5  6  2  0
  6  7  1  0
  7  8  1  0
  8  9  1  0
  9 10  2  0
 10 11  1  0
 10 12  1  0
 12 13  1  0
 12 14  2  0
 14 15  1  0
 14 16  1  0
 16 17  1  0
 16 18  2  0
 18 19  1  0
  8 20  2  0
 20 21  1  0
 20 22  1  0
 22 23  2  0
 22 24  1  0
 24  6  1  0
 18  9  1  0
M  CHG  3   2  -1   7  -1  24  -1
M  END
>  <UniqueID>  (11) 
9

>  <SMILES>  (11) 
[NH-]C(=O)/N=c1/[n-]c(-c2ccccc2)cc(=O)[n-]1

>  <Energy>  (11) 
31.670066809717838

>  <Genealogy>  (11) 
[NH-]C(=O)N=c1[n-]c(-c2ccccc2)cc(=O)[n-]1 (protonated)
[NH-]C(=O)/N=c1/[n-]c(-c2ccccc2)cc(=O)[n-]1 (cis-trans isomerization)
[NH-]C(=O)/N=c1/[n-]c(-c2ccccc2)cc(=O)[n-]1 (3D coordinates assigned)
[NH-]C(=O)/N=c1/[n-]c(-c2ccccc2)cc(=O)[n-]1 (optimized conformer: 31.670066809717838 kcal/mol)

>  <smiles>  (11) 
NC(=O)N=c1[nH]c(-c2ccccc2)cc(=O)[nH]1

>  <score_type>  (11) 
oracle

>  <origin>  (11) 
adg

>  <m_score__min__energy>  (11) 
-10.550000000000001

>  <m_primary>  (11) 
energy

$$$$
11:0
     RDKit          3D

 24 24  0  0  1  0  0  0  0  0999 V2000
   58.0890   27.3400   43.2060 C   0  0  0  0  0  0  0  0  0  0  0  0
   58.9660   28.6930   44.9730 C   0  0  0  0  0  0  0  0  0  0  0  0
   56.6270   28.0260   45.1830 C   0  0  0  0  0  0  0  0  0  0  0  0
   59.2010   28.8550   46.3930 C   0  0  0  0  0  0  0  0  0  0  0  0
   58.8510   29.9870   47.0790 C   0  0  0  0  0  0  0  0  0  0  0  0
   59.0180   30.1560   48.4380 C   0  0  0  0  0  0  0  0  0  0  0  0
   58.6270   31.3260   48.9850 F   0  0  0  0  0  0  0  0  0  0  0  0
   59.5740   29.1280   49.1710 C   0  0  0  0  0  0  0  0  0  0  0  0
   59.9480   27.9480   48.5190 C   0  0  0  0  0  0  0  0  0  0  0  0
   59.7590   27.8260   47.1530 C   0  0  0  0  0  0  0  0  0  0  0  0
   60.2020   26.2800   46.4320 Cl  0  0  0  0  0  0  0  0  0  0  0  0
   57.9020   28.0810   44.4900 C   0  0  0  0  0  0  0  0  0  0  0  0
   55.6000   28.9430   45.0050 O   0  0  0  0  0  0  0  0  0  0  0  0
   56.3980   27.0770   46.0240 N   0  0  0  0  0  0  0  0  0  0  0  0
   55.1910   26.5140   46.2870 O   0  0  0  0  0  0  0  0  0  0  0  0
   58.3530   26.2941   43.4214 H   0  0  0  0  0  0  0  0  0  0  0  0
   57.1550   27.3704   42.6257 H   0  0  0  0  0  0  0  0  0  0  0  0
   58.8967   27.8100   42.6257 H   0  0  0  0  0  0  0  0  0  0  0  0
   59.7064   29.0976   44.2672 H   0  0  0  0  0  0  0  0  0  0  0  0
   58.4073   30.8166   46.5089 H   0  0  0  0  0  0  0  0  0  0  0  0
   59.7216   29.2349   50.2558 H   0  0  0  0  0  0  0  0  0  0  0  0
   60.3912   27.1191   49.0904 H   0  0  0  0  0  0  0  0  0  0  0  0
   54.7580   28.9500   45.5530 H   0  0  0  0  0  0  0  0  0  0  0  0
   54.3730   27.1370   46.3750 H   0  0  0  0  0  0  0  0  0  0  0  0
  1  2  1  0
  2  3  2  0
  3  4  1  0
  4  5  2  0
  5  6  1  0
  6  7  1  0
  6  8  2  0
  8  9  1  0
  9 10  2  0
 10 11  1  0
  2 12  1  0
 12 13  1  0
 12 14  2  0
 14 15  1  0
 10  4  1  0
  1 16  1  0
  1 17  1  0
  1 18  1  0
  3 19  1  0
  5 20  1  0
  8 21  1  0
  9 22  1  0
 13 23  1  0
 15 24  1  0
M  END
>  <smiles>  (12) 
CC(=Cc1cc(F)ccc1Cl)C(O)=NO

>  <score_type>  (12) 
oracle

>  <origin>  (12) 
adg

>  <m_score__min__energy>  (12) 
-7.96

>  <m_primary>  (12) 
energy

$$$$
12:0
     RDKit          3D

 43 45  0  0  0  0  0  0  0  0999 V2000
   56.8900   24.0990   43.7460 C   0  0  0  0  0  0  0  0  0  0  0  0
   55.7720   24.0460   44.7800 C   0  0  0  0  0  0  0  0  0  0  0  0
   55.8710   25.4350   45.8970 S   0  0  0  0  0  0  0  0  0  0  0  0
   56.2620   24.9390   47.2610 O   0  0  0  0  0  0  0  0  0  0  0  0
   54.5300   26.1070   45.9660 O   0  0  0  0  0  0  0  0  0  0  0  0
   57.0600   26.5530   45.3120 N   0  0  0  0  0  0  0  0  0  0  0  0
   57.8900   27.3920   46.1310 C   0  0  0  0  0  0  0  0  0  0  0  0
   58.8910   26.8480   46.9560 C   0  0  0  0  0  0  0  0  0  0  0  0
   59.7200   27.6860   47.7080 C   0  0  0  0  0  0  0  0  0  0  0  0
   59.5600   29.0700   47.6450 C   0  0  0  0  0  0  0  0  0  0  0  0
   58.5670   29.6230   46.8370 C   0  0  0  0  0  0  0  0  0  0  0  0
   57.7220   28.7950   46.0790 C   0  0  0  0  0  0  0  0  0  0  0  0
   56.6740   29.4090   45.2300 C   0  0  0  0  0  0  0  0  0  0  0  0
   55.5200   28.9030   45.2100 O   0  0  0  0  0  0  0  0  0  0  0  0
   56.9100   30.6120   44.4840 N   0  0  0  0  0  0  0  0  0  0  0  0
   57.3150   31.7490   44.9720 C   0  0  0  0  0  0  0  0  0  0  0  0
   56.4590   32.7530   45.2560 N   0  0  0  0  0  0  0  0  0  0  0  0
   57.0690   33.8520   45.6940 N   0  0  0  0  0  0  0  0  0  0  0  0
   58.4150   33.7320   45.7570 C   0  0  0  0  0  0  0  0  0  0  0  0
   59.3270   34.8320   46.1970 C   0  0  0  0  0  0  0  0  0  0  0  0
   60.4660   34.2740   47.0050 C   0  0  0  0  0  0  0  0  0  0  0  0
   60.3880   34.2330   48.4070 C   0  0  0  0  0  0  0  0  0  0  0  0
   61.4610   33.7440   49.1580 C   0  0  0  0  0  0  0  0  0  0  0  0
   62.6230   33.3040   48.5180 C   0  0  0  0  0  0  0  0  0  0  0  0
   62.7140   33.3540   47.1230 C   0  0  0  0  0  0  0  0  0  0  0  0
   61.6420   33.8400   46.3670 C   0  0  0  0  0  0  0  0  0  0  0  0
   58.9190   32.2070   45.2460 S   0  0  0  0  0  0  0  0  0  0  0  0
   57.8620   24.1451   44.2590 H   0  0  0  0  0  0  0  0  0  0  0  0
   56.8501   23.1980   43.1163 H   0  0  0  0  0  0  0  0  0  0  0  0
   56.7650   24.9922   43.1163 H   0  0  0  0  0  0  0  0  0  0  0  0
   54.8015   24.0684   44.2626 H   0  0  0  0  0  0  0  0  0  0  0  0
   55.8756   23.1186   45.3624 H   0  0  0  0  0  0  0  0  0  0  0  0
   59.0223   25.7572   47.0099 H   0  0  0  0  0  0  0  0  0  0  0  0
   60.5003   27.2526   48.3509 H   0  0  0  0  0  0  0  0  0  0  0  0
   60.2180   29.7263   48.2335 H   0  0  0  0  0  0  0  0  0  0  0  0
   58.4444   30.7152   46.7928 H   0  0  0  0  0  0  0  0  0  0  0  0
   59.7282   35.3467   45.3115 H   0  0  0  0  0  0  0  0  0  0  0  0
   58.7597   35.5396   46.8195 H   0  0  0  0  0  0  0  0  0  0  0  0
   59.4793   34.5870   48.9158 H   0  0  0  0  0  0  0  0  0  0  0  0
   61.3906   33.7054   50.2551 H   0  0  0  0  0  0  0  0  0  0  0  0
   63.4655   32.9186   49.1110 H   0  0  0  0  0  0  0  0  0  0  0  0
   63.6299   33.0106   46.6197 H   0  0  0  0  0  0  0  0  0  0  0  0
   61.7190   33.8829   45.2705 H   0  0  0  0  0  0  0  0  0  0  0  0
  1  2  1  0
  2  3  1  0
  3  4  2  0
  3  5  2  0
  3  6  1  0
  6  7  1  0
  7  8  2  0
  8  9  1  0
  9 10  2  0
 10 11  1  0
 11 12  2  0
 12 13  1  0
 13 14  2  0
 13 15  1  0
 15 16  2  3
 16 17  1  0
 17 18  1  0
 18 19  2  0
 19 20  1  0
 20 21  1  0
 21 22  2  0
 22 23  1  0
 23 24  2  0
 24 25  1  0
 25 26  2  0
 19 27  1  0
 12  7  1  0
 27 16  1  0
 26 21  1  0
  1 28  1  0
  1 29  1  0
  1 30  1  0
  2 31  1  0
  2 32  1  0
  8 33  1  0
  9 34  1  0
 10 35  1  0
 11 36  1  0
 20 37  1  0
 20 38  1  0
 22 39  1  0
 23 40  1  0
 24 41  1  0
 25 42  1  0
 26 43  1  0
M  CHG  2   6  -1  17  -1
M  END
>  <UniqueID>  (13) 
10

>  <SMILES>  (13) 
CCS(=O)(=O)[N-]c1ccccc1C(=O)N=c1[n-]nc(Cc2ccccc2)s1

>  <Energy>  (13) 
83.74604666981634

>  <Genealogy>  (13) 
CCS(=O)(=O)[N-]c1ccccc1C(=O)N=c1[n-]nc(Cc2ccccc2)s1 (protonated)
CCS(=O)(=O)[N-]c1ccccc1C(=O)N=c1[n-]nc(Cc2ccccc2)s1 (3D coordinates assigned)
CCS(=O)(=O)[N-]c1ccccc1C(=O)N=c1[n-]nc(Cc2ccccc2)s1 (optimized conformer: 83.74604666981634 kcal/mol)

>  <smiles>  (13) 
CCS(=O)(=O)Nc1ccccc1C(=O)N=c1[nH]nc(Cc2ccccc2)s1

>  <score_type>  (13) 
oracle

>  <origin>  (13) 
adg

>  <m_score__min__energy>  (13) 
-13.65

>  <m_primary>  (13) 
energy

$$$$
13:0
     RDKit          3D

 45 46  0  0  0  0  0  0  0  0999 V2000
   57.3190   32.3810   52.1360 C   0  0  0  0  0  0  0  0  0  0  0  0
   57.6910   31.1500   51.3770 C   0  0  0  0  0  0  0  0  0  0  0  0
   57.1160   30.0590   51.6390 O   0  0  0  0  0  0  0  0  0  0  0  0
   58.6680   31.2230   50.3310 N   0  0  0  0  0  0  0  0  0  0  0  0
   59.0690   30.0570   49.5460 C   0  0  0  0  0  0  0  0  0  0  0  0
   58.9310   30.3270   48.0420 C   0  0  0  0  0  0  0  0  0  0  0  0
   59.8640   31.4290   47.5810 C   0  0  0  0  0  0  0  0  0  0  0  0
   61.2290   31.3170   47.9100 C   0  0  0  0  0  0  0  0  0  0  0  0
   62.1390   32.3060   47.5360 C   0  0  0  0  0  0  0  0  0  0  0  0
   61.7040   33.4210   46.8270 C   0  0  0  0  0  0  0  0  0  0  0  0
   60.3580   33.5520   46.4840 C   0  0  0  0  0  0  0  0  0  0  0  0
   59.4220   32.5680   46.8530 C   0  0  0  0  0  0  0  0  0  0  0  0
   57.9870   32.7420   46.4120 C   0  0  0  0  0  0  0  0  0  0  0  0
   57.7850   32.1500   45.0950 N   0  0  0  0  0  0  0  0  0  0  0  0
   57.0280   30.9570   44.8630 C   0  0  0  0  0  0  0  0  0  0  0  0
   55.8200   31.0410   44.5080 O   0  0  0  0  0  0  0  0  0  0  0  0
   57.6590   29.6290   45.0420 C   0  0  0  0  0  0  0  0  0  0  0  0
   59.0440   29.4650   44.8560 C   0  0  0  0  0  0  0  0  0  0  0  0
   59.6350   28.2080   45.0160 C   0  0  0  0  0  0  0  0  0  0  0  0
   58.8550   27.1040   45.3630 C   0  0  0  0  0  0  0  0  0  0  0  0
   57.4760   27.2500   45.5590 C   0  0  0  0  0  0  0  0  0  0  0  0
   56.4870   25.8590   45.9880 S   0  0  0  0  0  0  0  0  0  0  0  0
   54.8160   26.3050   45.9890 N   0  0  0  0  0  0  0  0  0  0  0  0
   56.7100   24.7600   44.9880 O   0  0  0  0  0  0  0  0  0  0  0  0
   56.8550   25.3680   47.3600 O   0  0  0  0  0  0  0  0  0  0  0  0
   56.8810   28.5090   45.3910 C   0  0  0  0  0  0  0  0  0  0  0  0
   57.3801   32.1787   53.2155 H   0  0  0  0  0  0  0  0  0  0  0  0
   58.0112   33.1954   51.8758 H   0  0  0  0  0  0  0  0  0  0  0  0
   56.2917   32.6758   51.8758 H   0  0  0  0  0  0  0  0  0  0  0  0
   59.1580   32.1310   50.1580 H   0  0  0  0  0  0  0  0  0  0  0  0
   60.1180   29.8154   49.7725 H   0  0  0  0  0  0  0  0  0  0  0  0
   58.4115   29.2158   49.8108 H   0  0  0  0  0  0  0  0  0  0  0  0
   59.1691   29.4051   47.4912 H   0  0  0  0  0  0  0  0  0  0  0  0
   57.8977   30.6488   47.8454 H   0  0  0  0  0  0  0  0  0  0  0  0
   61.5821   30.4380   48.4692 H   0  0  0  0  0  0  0  0  0  0  0  0
   63.2015   32.2041   47.8020 H   0  0  0  0  0  0  0  0  0  0  0  0
   62.4229   34.2012   46.5361 H   0  0  0  0  0  0  0  0  0  0  0  0
   60.0245   34.4347   45.9186 H   0  0  0  0  0  0  0  0  0  0  0  0
   57.3227   32.2489   47.1369 H   0  0  0  0  0  0  0  0  0  0  0  0
   57.7575   33.8165   46.3594 H   0  0  0  0  0  0  0  0  0  0  0  0
   59.6654   30.3307   44.5831 H   0  0  0  0  0  0  0  0  0  0  0  0
   60.7184   28.0889   44.8679 H   0  0  0  0  0  0  0  0  0  0  0  0
   59.3246   26.1165   45.4829 H   0  0  0  0  0  0  0  0  0  0  0  0
   54.7060   27.0720   46.6900 H   0  0  0  0  0  0  0  0  0  0  0  0
   55.7961   28.6222   45.5333 H   0  0  0  0  0  0  0  0  0  0  0  0
  1  2  1  0
  2  3  2  0
  2  4  1  0
  4  5  1  0
  5  6  1  0
  6  7  1  0
  7  8  2  0
  8  9  1  0
  9 10  2  0
 10 11  1  0
 11 12  2  0
 12 13  1  0
 13 14  1  0
 14 15  1  0
 15 16  2  0
 15 17  1  0
 17 18  2  0
 18 19  1  0
 19 20  2  0
 20 21  1  0
 21 22  1  0
 22 23  1  0
 22 24  2  0
 22 25  2  0
 21 26  2  0
 12  7  1  0
 26 17  1  0
  1 27  1  0
  1 28  1  0
  1 29  1  0
  4 30  1  0
  5 31  1  0
  5 32  1  0
  6 33  1  0
  6 34  1  0
  8 35  1  0
  9 36  1  0
 10 37  1  0
 11 38  1  0
 13 39  1  0
 13 40  1  0
 18 41  1  0
 19 42  1  0
 20 43  1  0
 23 44  1  0
 26 45  1  0
M  CHG  2  14  -1  23  -1
M  END
>  <UniqueID>  (14) 
11

>  <SMILES>  (14) 
CC(=O)NCCc1ccccc1C[N-]C(=O)c1cccc(S([NH-])(=O)=O)c1

>  <Energy>  (14) 
38.660634122001866

>  <Genealogy>  (14) 
CC(=O)NCCc1ccccc1C[N-]C(=O)c1cccc(S([NH-])(=O)=O)c1 (protonated)
CC(=O)NCCc1ccccc1C[N-]C(=O)c1cccc(S([NH-])(=O)=O)c1 (3D coordinates assigned)
CC(=O)NCCc1ccccc1C[N-]C(=O)c1cccc(S([NH-])(=O)=O)c1 (optimized conformer: 38.660634122001866 kcal/mol)

>  <smiles>  (14) 
CC(=O)NCCc1ccccc1CNC(=O)c1cccc(S(N)(=O)=O)c1

>  <score_type>  (14) 
oracle

>  <origin>  (14) 
adg

>  <m_score__min__energy>  (14) 
-12.43

>  <m_primary>  (14) 
energy

$$$$
14:0
     RDKit          3D

 47 50  0  0  0  0  0  0  0  0999 V2000
   59.6470   35.3320   46.1690 C   0  0  0  0  0  0  0  0  0  0  0  0
   58.9240   34.0770   45.7800 C   0  0  0  0  0  0  0  0  0  0  0  0
   58.5630   33.1370   46.7570 C   0  0  0  0  0  0  0  0  0  0  0  0
   57.8540   31.9860   46.4010 C   0  0  0  0  0  0  0  0  0  0  0  0
   57.5040   31.7520   45.0660 C   0  0  0  0  0  0  0  0  0  0  0  0
   56.7470   30.5720   44.7490 N   0  0  0  0  0  0  0  0  0  0  0  0
   56.9840   29.3580   45.1530 C   0  0  0  0  0  0  0  0  0  0  0  0
   58.2630   28.9910   45.4300 N   0  0  0  0  0  0  0  0  0  0  0  0
   58.5670   27.7280   45.8340 C   0  0  0  0  0  0  0  0  0  0  0  0
   59.9960   27.3580   46.0960 C   0  0  0  0  0  0  0  0  0  0  0  0
   60.2320   26.8510   47.8350 S   0  0  0  0  0  0  0  0  0  0  0  0
   60.0530   28.5050   48.4960 C   0  0  0  0  0  0  0  0  0  0  0  0
   58.9950   28.8050   49.2910 N   0  0  0  0  0  0  0  0  0  0  0  0
   58.8160   30.0590   49.7750 C   0  0  0  0  0  0  0  0  0  0  0  0
   57.8140   30.3040   50.5000 O   0  0  0  0  0  0  0  0  0  0  0  0
   59.7370   31.0710   49.4600 C   0  0  0  0  0  0  0  0  0  0  0  0
   59.5140   32.4240   49.9220 C   0  0  0  0  0  0  0  0  0  0  0  0
   59.3340   33.5060   50.2910 N   0  0  0  0  0  0  0  0  0  0  0  0
   60.8410   30.7370   48.6450 C   0  0  0  0  0  0  0  0  0  0  0  0
   61.8700   31.7280   48.2550 C   0  0  0  0  0  0  0  0  0  0  0  0
   61.7180   32.4830   47.0780 C   0  0  0  0  0  0  0  0  0  0  0  0
   62.6760   33.4370   46.7220 C   0  0  0  0  0  0  0  0  0  0  0  0
   63.7870   33.6530   47.5410 C   0  0  0  0  0  0  0  0  0  0  0  0
   63.9400   32.9190   48.7200 C   0  0  0  0  0  0  0  0  0  0  0  0
   62.9870   31.9600   49.0820 C   0  0  0  0  0  0  0  0  0  0  0  0
   63.1640   31.2360   50.2560 O   0  0  0  0  0  0  0  0  0  0  0  0
   60.9610   29.4630   48.1830 N   0  0  0  0  0  0  0  0  0  0  0  0
   57.5450   26.7780   45.9530 C   0  0  0  0  0  0  0  0  0  0  0  0
   56.2400   27.1630   45.6500 C   0  0  0  0  0  0  0  0  0  0  0  0
   55.2970   26.3340   45.7370 O   0  0  0  0  0  0  0  0  0  0  0  0
   55.9850   28.4370   45.2560 N   0  0  0  0  0  0  0  0  0  0  0  0
   57.8220   32.7190   44.0930 C   0  0  0  0  0  0  0  0  0  0  0  0
   58.5300   33.8700   44.4500 C   0  0  0  0  0  0  0  0  0  0  0  0
   59.6895   35.4057   47.2657 H   0  0  0  0  0  0  0  0  0  0  0  0
   60.6692   35.3071   45.7633 H   0  0  0  0  0  0  0  0  0  0  0  0
   59.1127   36.2037   45.7633 H   0  0  0  0  0  0  0  0  0  0  0  0
   58.8392   33.3065   47.8082 H   0  0  0  0  0  0  0  0  0  0  0  0
   57.5690   31.2588   47.1756 H   0  0  0  0  0  0  0  0  0  0  0  0
   60.2785   26.5241   45.4366 H   0  0  0  0  0  0  0  0  0  0  0  0
   60.6277   28.2365   45.8980 H   0  0  0  0  0  0  0  0  0  0  0  0
   60.8407   32.3220   46.4342 H   0  0  0  0  0  0  0  0  0  0  0  0
   62.5548   34.0182   45.7960 H   0  0  0  0  0  0  0  0  0  0  0  0
   64.5417   34.4013   47.2575 H   0  0  0  0  0  0  0  0  0  0  0  0
   64.8126   33.0955   49.3661 H   0  0  0  0  0  0  0  0  0  0  0  0
   57.7671   25.7509   46.2783 H   0  0  0  0  0  0  0  0  0  0  0  0
   57.5121   32.5680   43.0484 H   0  0  0  0  0  0  0  0  0  0  0  0
   58.7797   34.6181   43.6832 H   0  0  0  0  0  0  0  0  0  0  0  0
  1  2  1  0
  2  3  2  0
  3  4  1  0
  4  5  2  0
  5  6  1  0
  6  7  2  3
  7  8  1  0
  8  9  1  0
  9 10  1  0
 10 11  1  0
 11 12  1  0
 12 13  2  0
 13 14  1  0
 14 15  2  0
 14 16  1  0
 16 17  1  0
 17 18  3  0
 16 19  2  0
 19 20  1  0
 20 21  2  0
 21 22  1  0
 22 23  2  0
 23 24  1  0
 24 25  2  0
 25 26  1  0
 19 27  1  0
  9 28  2  0
 28 29  1  0
 29 30  2  0
 29 31  1  0
  5 32  1  0
 32 33  2  0
 33  2  1  0
 31  7  1  0
 27 12  1  0
 25 20  1  0
  1 34  1  0
  1 35  1  0
  1 36  1  0
  3 37  1  0
  4 38  1  0
 10 39  1  0
 10 40  1  0
 21 41  1  0
 22 42  1  0
 23 43  1  0
 24 44  1  0
 28 45  1  0
 32 46  1  0
 33 47  1  0
M  CHG  4   8  -1  26  -1  27  -1  31  -1
M  END
>  <UniqueID>  (15) 
12

>  <SMILES>  (15) 
Cc1ccc(N=c2[n-]c(CSc3nc(=O)c(C#N)c(-c4ccccc4[O-])[n-]3)cc(=O)[n-]2)cc1

>  <Energy>  (15) 
61.984350701289834

>  <Genealogy>  (15) 
Cc1ccc(N=c2[n-]c(CSc3nc(=O)c(C#N)c(-c4ccccc4[O-])[n-]3)cc(=O)[n-]2)cc1 (protonated)
Cc1ccc(N=c2[n-]c(CSc3nc(=O)c(C#N)c(-c4ccccc4[O-])[n-]3)cc(=O)[n-]2)cc1 (3D coordinates assigned)
Cc1ccc(N=c2[n-]c(CSc3nc(=O)c(C#N)c(-c4ccccc4[O-])[n-]3)cc(=O)[n-]2)cc1 (optimized conformer: 61.984350701289834 kcal/mol)

>  <smiles>  (15) 
Cc1ccc(N=c2[nH]c(CSc3nc(=O)c(C#N)c(-c4ccccc4O)[nH]3)cc(=O)[nH]2)cc1

>  <score_type>  (15) 
oracle

>  <origin>  (15) 
adg

>  <m_score__min__energy>  (15) 
-14.42

>  <m_primary>  (15) 
energy

$$$$
15:0
     RDKit          3D

 47 50  0  0  0  0  0  0  0  0999 V2000
   57.3330   31.8660   51.8890 C   0  0  0  0  0  0  0  0  0  0  0  0
   58.2530   31.3390   50.8850 N   0  0  0  0  0  0  0  0  0  0  0  0
   58.5300   31.8970   49.6850 C   0  0  0  0  0  0  0  0  0  0  0  0
   59.4820   31.1380   49.0090 C   0  0  0  0  0  0  0  0  0  0  0  0
   60.0390   31.4480   47.6790 C   0  0  0  0  0  0  0  0  0  0  0  0
   61.2560   31.2040   47.4610 O   0  0  0  0  0  0  0  0  0  0  0  0
   59.2200   32.0800   46.6220 C   0  0  0  0  0  0  0  0  0  0  0  0
   58.1970   31.3650   45.9790 C   0  0  0  0  0  0  0  0  0  0  0  0
   57.4340   31.9760   44.9760 C   0  0  0  0  0  0  0  0  0  0  0  0
   56.4930   31.2750   44.4040 N   0  0  0  0  0  0  0  0  0  0  0  0
   56.2510   29.8610   44.4870 C   0  0  0  0  0  0  0  0  0  0  0  0
   55.2000   29.4110   45.0200 O   0  0  0  0  0  0  0  0  0  0  0  0
   57.3020   28.9060   44.0160 C   0  0  0  0  0  0  0  0  0  0  0  0
   57.8830   28.1440   45.1830 C   0  0  0  0  0  0  0  0  0  0  0  0
   59.2470   28.3040   45.4870 C   0  0  0  0  0  0  0  0  0  0  0  0
   59.8170   27.6320   46.5710 C   0  0  0  0  0  0  0  0  0  0  0  0
   59.0320   26.7980   47.3690 C   0  0  0  0  0  0  0  0  0  0  0  0
   57.6750   26.6400   47.0880 C   0  0  0  0  0  0  0  0  0  0  0  0
   57.0870   27.3090   46.0080 C   0  0  0  0  0  0  0  0  0  0  0  0
   55.7200   27.1240   45.7870 O   0  0  0  0  0  0  0  0  0  0  0  0
   57.7430   33.3000   44.6040 C   0  0  0  0  0  0  0  0  0  0  0  0
   58.7760   33.9750   45.2570 C   0  0  0  0  0  0  0  0  0  0  0  0
   59.4830   33.3590   46.2380 N   0  0  0  0  0  0  0  0  0  0  0  0
   59.8090   30.0960   49.8640 C   0  0  0  0  0  0  0  0  0  0  0  0
   60.7650   29.0810   49.7660 C   0  0  0  0  0  0  0  0  0  0  0  0
   60.8890   28.1840   50.8410 C   0  0  0  0  0  0  0  0  0  0  0  0
   60.0820   28.3280   51.9900 C   0  0  0  0  0  0  0  0  0  0  0  0
   59.1480   29.3760   52.0780 C   0  0  0  0  0  0  0  0  0  0  0  0
   59.0390   30.2500   50.9920 C   0  0  0  0  0  0  0  0  0  0  0  0
   57.7207   31.6439   52.8941 H   0  0  0  0  0  0  0  0  0  0  0  0
   57.2390   32.9549   51.7646 H   0  0  0  0  0  0  0  0  0  0  0  0
   56.3462   31.3962   51.7646 H   0  0  0  0  0  0  0  0  0  0  0  0
   58.0696   32.8181   49.2983 H   0  0  0  0  0  0  0  0  0  0  0  0
   57.9942   30.3220   46.2638 H   0  0  0  0  0  0  0  0  0  0  0  0
   56.8538   28.1952   43.3062 H   0  0  0  0  0  0  0  0  0  0  0  0
   58.1060   29.4743   43.5255 H   0  0  0  0  0  0  0  0  0  0  0  0
   59.8703   28.9640   44.8658 H   0  0  0  0  0  0  0  0  0  0  0  0
   60.8861   27.7603   46.7961 H   0  0  0  0  0  0  0  0  0  0  0  0
   59.4835   26.2656   48.2191 H   0  0  0  0  0  0  0  0  0  0  0  0
   57.0607   25.9831   47.7214 H   0  0  0  0  0  0  0  0  0  0  0  0
   55.1440   27.7770   45.2740 H   0  0  0  0  0  0  0  0  0  0  0  0
   57.1743   33.7979   43.8048 H   0  0  0  0  0  0  0  0  0  0  0  0
   59.0178   35.0104   44.9752 H   0  0  0  0  0  0  0  0  0  0  0  0
   61.4016   28.9870   48.8738 H   0  0  0  0  0  0  0  0  0  0  0  0
   61.6201   27.3640   50.7864 H   0  0  0  0  0  0  0  0  0  0  0  0
   60.1842   27.6159   52.8222 H   0  0  0  0  0  0  0  0  0  0  0  0
   58.5225   29.5041   52.9737 H   0  0  0  0  0  0  0  0  0  0  0  0
  1  2  1  0
  2  3  1  0
  3  4  2  0
  4  5  1  0
  5  6  2  0
  5  7  1  0
  7  8  2  0
  8  9  1  0
  9 10  2  3
 10 11  1  0
 11 12  2  0
 11 13  1  0
 13 14  1  0
 14 15  2  0
 15 16  1  0
 16 17  2  0
 17 18  1  0
 18 19  2  0
 19 20  1  0
  9 21  1  0
 21 22  2  0
 22 23  1  0
  4 24  1  0
 24 25  2  0
 25 26  1  0
 26 27  2  0
 27 28  1  0
 28 29  2  0
 29  2  1  0
 23  7  1  0
 29 24  1  0
 19 14  1  0
  1 30  1  0
  1 31  1  0
  1 32  1  0
  3 33  1  0
  8 34  1  0
 13 35  1  0
 13 36  1  0
 15 37  1  0
 16 38  1  0
 17 39  1  0
 18 40  1  0
 20 41  1  0
 21 42  1  0
 22 43  1  0
 25 44  1  0
 26 45  1  0
 27 46  1  0
 28 47  1  0
M  CHG  1  23  -1
M  END
>  <UniqueID>  (16) 
13

>  <SMILES>  (16) 
Cn1cc(C(=O)c2cc(=NC(=O)Cc3ccccc3O)cc[n-]2)c2ccccc21

>  <Energy>  (16) 
97.337683076217

>  <Genealogy>  (16) 
Cn1cc(C(=O)c2cc(=NC(=O)Cc3ccccc3O)cc[n-]2)c2ccccc21 (protonated)
Cn1cc(C(=O)c2cc(=NC(=O)Cc3ccccc3O)cc[n-]2)c2ccccc21 (3D coordinates assigned)
Cn1cc(C(=O)c2cc(=NC(=O)Cc3ccccc3O)cc[n-]2)c2ccccc21 (optimized conformer: 97.337683076217 kcal/mol)

>  <smiles>  (16) 
Cn1cc(C(=O)c2cc(=NC(=O)Cc3ccccc3O)cc[nH]2)c2ccccc21

>  <score_type>  (16) 
oracle

>  <origin>  (16) 
adg

>  <m_score__min__energy>  (16) 
-11.029999999999999

>  <m_primary>  (16) 
energy

$$$$
16:0
     RDKit          3D

 50 53  0  0  0  0  0  0  0  0999 V2000
   58.2030   30.2790   44.4420 C   0  0  0  0  0  0  0  0  0  0  0  0
   58.2980   29.8270   45.7020 C   0  0  0  0  0  0  0  0  0  0  0  0
   57.8960   28.5690   46.1810 C   0  0  0  0  0  0  0  0  0  0  0  0
   57.1350   27.6110   45.6180 C   0  0  0  0  0  0  0  0  0  0  0  0
   56.8190   26.3040   46.2190 C   0  0  0  0  0  0  0  0  0  0  0  0
   57.7350   25.4020   46.6170 N   0  0  0  0  0  0  0  0  0  0  0  0
   56.9870   24.3320   46.9610 C   0  0  0  0  0  0  0  0  0  0  0  0
   57.4900   23.2680   47.4070 O   0  0  0  0  0  0  0  0  0  0  0  0
   55.6580   24.4860   46.7800 N   0  0  0  0  0  0  0  0  0  0  0  0
   55.5720   25.7360   46.2970 C   0  0  0  0  0  0  0  0  0  0  0  0
   54.3770   26.3410   45.9280 O   0  0  0  0  0  0  0  0  0  0  0  0
   58.4320   28.4500   47.4520 C   0  0  0  0  0  0  0  0  0  0  0  0
   59.0630   29.6420   47.7360 C   0  0  0  0  0  0  0  0  0  0  0  0
   59.7590   29.9510   49.0260 C   0  0  0  0  0  0  0  0  0  0  0  0
   58.9850   30.4790   46.6750 N   0  0  0  0  0  0  0  0  0  0  0  0
   59.5580   31.7970   46.6000 C   0  0  0  0  0  0  0  0  0  0  0  0
   58.7680   32.8930   46.2270 C   0  0  0  0  0  0  0  0  0  0  0  0
   59.3320   34.1690   46.1430 C   0  0  0  0  0  0  0  0  0  0  0  0
   60.6860   34.3580   46.4330 C   0  0  0  0  0  0  0  0  0  0  0  0
   61.4820   33.2710   46.8130 C   0  0  0  0  0  0  0  0  0  0  0  0
   63.1940   33.5170   47.1540 S   0  0  0  0  0  0  0  0  0  0  0  0
   63.7270   34.6210   46.2830 O   0  0  0  0  0  0  0  0  0  0  0  0
   63.9320   32.2500   46.8220 O   0  0  0  0  0  0  0  0  0  0  0  0
   63.3980   33.9090   48.8500 N   0  0  0  0  0  0  0  0  0  0  0  0
   62.2320   33.4810   49.6470 C   0  0  0  0  0  0  0  0  0  0  0  0
   62.1840   31.9450   49.8400 C   0  0  0  0  0  0  0  0  0  0  0  0
   63.4220   31.3030   49.5850 O   0  0  0  0  0  0  0  0  0  0  0  0
   64.4800   32.0420   50.1480 C   0  0  0  0  0  0  0  0  0  0  0  0
   64.6710   33.3700   49.3910 C   0  0  0  0  0  0  0  0  0  0  0  0
   60.9170   31.9900   46.8910 C   0  0  0  0  0  0  0  0  0  0  0  0
   58.5561   31.2905   44.1924 H   0  0  0  0  0  0  0  0  0  0  0  0
   57.7721   29.6380   43.6588 H   0  0  0  0  0  0  0  0  0  0  0  0
   56.7134   27.8228   44.6243 H   0  0  0  0  0  0  0  0  0  0  0  0
   58.3667   27.5710   48.1102 H   0  0  0  0  0  0  0  0  0  0  0  0
   59.1131   29.6642   49.8690 H   0  0  0  0  0  0  0  0  0  0  0  0
   60.7019   29.3870   49.0782 H   0  0  0  0  0  0  0  0  0  0  0  0
   59.9730   31.0287   49.0782 H   0  0  0  0  0  0  0  0  0  0  0  0
   57.7015   32.7485   45.9998 H   0  0  0  0  0  0  0  0  0  0  0  0
   58.7089   35.0262   45.8481 H   0  0  0  0  0  0  0  0  0  0  0  0
   61.1272   35.3632   46.3625 H   0  0  0  0  0  0  0  0  0  0  0  0
   63.4430   34.9540   48.9010 H   0  0  0  0  0  0  0  0  0  0  0  0
   62.2841   33.9603   50.6357 H   0  0  0  0  0  0  0  0  0  0  0  0
   61.3241   33.7804   49.1028 H   0  0  0  0  0  0  0  0  0  0  0  0
   61.8900   31.7338   50.8787 H   0  0  0  0  0  0  0  0  0  0  0  0
   61.4596   31.5505   49.1123 H   0  0  0  0  0  0  0  0  0  0  0  0
   64.2517   32.2557   51.2026 H   0  0  0  0  0  0  0  0  0  0  0  0
   65.4058   31.4527   50.0732 H   0  0  0  0  0  0  0  0  0  0  0  0
   65.1013   34.1101   50.0817 H   0  0  0  0  0  0  0  0  0  0  0  0
   65.3378   33.1736   48.5384 H   0  0  0  0  0  0  0  0  0  0  0  0
   61.5419   31.1327   47.1816 H   0  0  0  0  0  0  0  0  0  0  0  0
  1  2  2  0
  2  3  1  0
  3  4  2  3
  4  5  1  0
  5  6  1  0
  6  7  1  0
  7  8  2  0
  7  9  1  0
  9 10  1  0
 10 11  1  0
  3 12  1  0
 12 13  2  0
 13 14  1  0
 13 15  1  0
 15 16  1  0
 16 17  2  0
 17 18  1  0
 18 19  2  0
 19 20  1  0
 20 21  1  0
 21 22  2  0
 21 23  2  0
 21 24  1  0
 24 25  1  0
 25 26  1  0
 26 27  1  0
 27 28  1  0
 28 29  1  0
 20 30  2  0
 15  2  1  0
 30 16  1  0
 10  5  2  0
 29 24  1  0
  1 31  1  0
  1 32  1  0
  4 33  1  0
 12 34  1  0
 14 35  1  0
 14 36  1  0
 14 37  1  0
 17 38  1  0
 18 39  1  0
 19 40  1  0
 24 41  1  0
 25 42  1  0
 25 43  1  0
 26 44  1  0
 26 45  1  0
 28 46  1  0
 28 47  1  0
 29 48  1  0
 29 49  1  0
 30 50  1  0
M  CHG  4   6  -1   9  -1  11  -1  24   1
M  END
>  <UniqueID>  (17) 
14

>  <SMILES>  (17) 
C=c1c(=Cc2[n-]c(=O)[n-]c2[O-])cc(C)n1-c1cccc(S(=O)(=O)[NH+]2CCOCC2)c1

>  <Energy>  (17) 
137.8628016356485

>  <Genealogy>  (17) 
C=c1c(=Cc2[n-]c(=O)[n-]c2[O-])cc(C)n1-c1cccc(S(=O)(=O)[NH+]2CCOCC2)c1 (protonated)
C=c1c(=Cc2[n-]c(=O)[n-]c2[O-])cc(C)n1-c1cccc(S(=O)(=O)[NH+]2CCOCC2)c1 (3D coordinates assigned)
C=c1c(=Cc2[n-]c(=O)[n-]c2[O-])cc(C)n1-c1cccc(S(=O)(=O)[NH+]2CCOCC2)c1 (nonaromatic ring conformer: 137.8628016356485 kcal/mol)

>  <smiles>  (17) 
C=c1c(=Cc2[nH]c(=O)[nH]c2O)cc(C)n1-c1cccc(S(=O)(=O)N2CCOCC2)c1

>  <score_type>  (17) 
oracle

>  <origin>  (17) 
adg

>  <m_score__min__energy>  (17) 
-15.74

>  <m_primary>  (17) 
energy

$$$$
17:0
     RDKit          3D

 43 45  0  0  1  0  0  0  0  0999 V2000
   57.0260   31.4150   42.5100 C   0  0  0  0  0  0  0  0  0  0  0  0
   57.3750   31.2350   44.2380 S   0  0  0  0  0  0  0  0  0  0  0  0
   58.8280   30.8990   44.4510 O   0  0  0  0  0  0  0  0  0  0  0  0
   56.4830   30.1570   44.7850 O   0  0  0  0  0  0  0  0  0  0  0  0
   57.0110   32.7040   45.0650 N   0  0  0  0  0  0  0  0  0  0  0  0
   58.0060   33.5550   45.6130 C   0  0  0  0  0  0  0  0  0  0  0  0
   58.5920   34.5580   44.8680 C   0  0  0  0  0  0  0  0  0  0  0  0
   59.5690   35.4000   45.3910 C   0  0  0  0  0  0  0  0  0  0  0  0
   59.9950   35.2600   46.6940 C   0  0  0  0  0  0  0  0  0  0  0  0
   59.0420   26.0460   46.2490 C   0  0  0  0  0  0  0  0  0  0  0  0
   58.5360   27.3380   46.1860 C   0  0  0  0  0  0  0  0  0  0  0  0
   59.4540   28.4290   46.1960 N   0  0  0  0  0  0  0  0  0  0  0  0
   59.3650   29.2900   47.1670 C   0  0  0  0  0  0  0  0  0  0  0  0
   59.1340   31.1390   49.1580 N   0  0  0  0  0  0  0  0  0  0  0  0
   59.8480   30.0140   49.3860 C   0  0  0  0  0  0  0  0  0  0  0  0
   59.9870   29.0490   48.3930 C   0  0  0  0  0  0  0  0  0  0  0  0
   60.6990   27.9150   48.6020 F   0  0  0  0  0  0  0  0  0  0  0  0
   58.5370   31.3540   47.9620 C   0  0  0  0  0  0  0  0  0  0  0  0
   57.8510   32.4020   47.6970 N   0  0  0  0  0  0  0  0  0  0  0  0
   58.4540   33.4350   46.9260 C   0  0  0  0  0  0  0  0  0  0  0  0
   59.4210   34.2620   47.4570 C   0  0  0  0  0  0  0  0  0  0  0  0
   58.1700   24.9630   46.2420 C   0  0  0  0  0  0  0  0  0  0  0  0
   56.8050   25.1310   46.1740 C   0  0  0  0  0  0  0  0  0  0  0  0
   56.3010   26.4130   46.1110 C   0  0  0  0  0  0  0  0  0  0  0  0
   54.9510   26.6180   46.0430 O   0  0  0  0  0  0  0  0  0  0  0  0
   57.1680   27.5100   46.1180 C   0  0  0  0  0  0  0  0  0  0  0  0
   58.6600   30.4280   46.9800 N   0  0  0  0  0  0  0  0  0  0  0  0
   56.0550   31.9158   42.3823 H   0  0  0  0  0  0  0  0  0  0  0  0
   57.8149   32.0187   42.0375 H   0  0  0  0  0  0  0  0  0  0  0  0
   56.9915   30.4222   42.0375 H   0  0  0  0  0  0  0  0  0  0  0  0
   56.0100   33.0230   45.1930 H   0  0  0  0  0  0  0  0  0  0  0  0
   58.2757   34.6969   43.8237 H   0  0  0  0  0  0  0  0  0  0  0  0
   60.0059   36.1858   44.7573 H   0  0  0  0  0  0  0  0  0  0  0  0
   60.7673   35.9218   47.1130 H   0  0  0  0  0  0  0  0  0  0  0  0
   60.1280   25.8803   46.3042 H   0  0  0  0  0  0  0  0  0  0  0  0
   59.0370   31.8590   49.9150 H   0  0  0  0  0  0  0  0  0  0  0  0
   60.3237   29.8599   50.3658 H   0  0  0  0  0  0  0  0  0  0  0  0
   59.7392   34.1253   48.5011 H   0  0  0  0  0  0  0  0  0  0  0  0
   58.5818   23.9442   46.2922 H   0  0  0  0  0  0  0  0  0  0  0  0
   56.1313   24.2615   46.1700 H   0  0  0  0  0  0  0  0  0  0  0  0
   54.2730   25.9520   46.3720 H   0  0  0  0  0  0  0  0  0  0  0  0
   56.7529   28.5275   46.0685 H   0  0  0  0  0  0  0  0  0  0  0  0
   58.1970   30.5980   46.0560 H   0  0  0  0  0  0  0  0  0  0  0  0
  1  2  1  0
  2  3  2  0
  2  4  2  0
  2  5  1  0
  5  6  1  0
  6  7  2  0
  7  8  1  0
  8  9  2  0
  9 10  1  0
 10 11  2  0
 11 12  1  0
 12 13  2  0
 13 14  1  0
 14 15  1  0
 15 16  2  0
 16 17  1  0
 16 18  1  0
 18 19  2  0
 19 20  1  0
 20 21  2  0
 21 22  1  0
 22 23  2  0
 23 24  1  0
 24 25  1  0
 24 26  2  0
 18 27  1  0
 11  6  1  0
 27 13  1  0
 26 20  1  0
  1 28  1  0
  1 29  1  0
  1 30  1  0
  5 31  1  0
  7 32  1  0
  8 33  1  0
  9 34  1  0
 10 35  1  0
 14 36  1  0
 15 37  1  0
 21 38  1  0
 22 39  1  0
 23 40  1  0
 25 41  1  0
 26 42  1  0
 27 43  1  0
M  END
>  <smiles>  (18) 
CS(=O)(=O)Nc1ccccc1N=c1[nH]cc(F)c(=Nc2cccc(O)c2)[nH]1

>  <score_type>  (18) 
oracle

>  <origin>  (18) 
adg

>  <m_score__min__energy>  (18) 
-9.1400000000000006

>  <m_primary>  (18) 
energy

$$$$
18:0
     RDKit          3D

 42 44  0  0  0  0  0  0  0  0999 V2000
   60.0030   20.8000   45.2190 H   0  0  0  0  0  0  0  0  0  0  0  0
   60.3060   21.7420   45.4400 O   0  0  0  0  0  0  0  0  0  0  0  0
   59.4510   22.8330   45.2940 C   0  0  0  0  0  0  0  0  0  0  0  0
   58.3010   22.7400   44.5000 C   0  0  0  0  0  0  0  0  0  0  0  0
   58.0661   21.7980   43.9829 H   0  0  0  0  0  0  0  0  0  0  0  0
   57.4510   23.8410   44.3630 C   0  0  0  0  0  0  0  0  0  0  0  0
   56.5560   23.7656   43.7279 H   0  0  0  0  0  0  0  0  0  0  0  0
   57.7340   25.0450   45.0330 C   0  0  0  0  0  0  0  0  0  0  0  0
   56.8900   26.2010   44.8900 N   0  0  0  0  0  0  0  0  0  0  0  0
   55.8670   26.0480   44.7360 H   0  0  0  0  0  0  0  0  0  0  0  0
   57.3670   27.5520   44.8350 C   0  0  0  0  0  0  0  0  0  0  0  0
   58.6200   27.8300   44.6590 N   0  0  0  0  0  0  0  0  0  0  0  0
   58.8510   29.2210   44.5610 C   0  0  0  0  0  0  0  0  0  0  0  0
   60.0160   29.6960   44.5180 O   0  0  0  0  0  0  0  0  0  0  0  0
   57.6260   30.0140   44.6060 C   0  0  0  0  0  0  0  0  0  0  0  0
   57.4940   31.3440   44.5070 C   0  0  0  0  0  0  0  0  0  0  0  0
   56.6312   31.7267   43.9420 H   0  0  0  0  0  0  0  0  0  0  0  0
   58.4130   32.3340   45.0950 C   0  0  0  0  0  0  0  0  0  0  0  0
   59.2180   32.1150   46.1960 C   0  0  0  0  0  0  0  0  0  0  0  0
   59.3589   31.1646   46.7315 H   0  0  0  0  0  0  0  0  0  0  0  0
   59.8120   33.3300   46.4910 C   0  0  0  0  0  0  0  0  0  0  0  0
   60.7530   33.5400   47.6110 C   0  0  0  0  0  0  0  0  0  0  0  0
   60.3160   34.0180   48.6920 O   0  0  0  0  0  0  0  0  0  0  0  0
   62.1300   33.1480   47.4990 N   0  0  0  0  0  0  0  0  0  0  0  0
   62.3990   32.4770   46.7460 H   0  0  0  0  0  0  0  0  0  0  0  0
   63.1560   33.5820   48.4050 C   0  0  0  0  0  0  0  0  0  0  0  0
   62.9040   34.4290   49.3040 O   0  0  0  0  0  0  0  0  0  0  0  0
   64.4790   33.0630   48.2830 N   0  0  0  0  0  0  0  0  0  0  0  0
   64.7100   32.3650   47.5410 H   0  0  0  0  0  0  0  0  0  0  0  0
   65.2320   33.3780   48.9340 H   0  0  0  0  0  0  0  0  0  0  0  0
   59.3520   34.2840   45.6450 N   0  0  0  0  0  0  0  0  0  0  0  0
   59.6440   35.7160   45.6540 C   0  0  0  0  0  0  0  0  0  0  0  0
   59.7160   36.0690   46.6933 H   0  0  0  0  0  0  0  0  0  0  0  0
   60.5979   35.8989   45.1377 H   0  0  0  0  0  0  0  0  0  0  0  0
   58.8379   36.2578   45.1377 H   0  0  0  0  0  0  0  0  0  0  0  0
   58.4990   33.6800   44.7940 C   0  0  0  0  0  0  0  0  0  0  0  0
   57.9533   34.1829   43.9820 H   0  0  0  0  0  0  0  0  0  0  0  0
   56.2230   28.9460   44.9030 S   0  0  0  0  0  0  0  0  0  0  0  0
   58.9010   25.1370   45.8070 C   0  0  0  0  0  0  0  0  0  0  0  0
   59.1499   26.0834   46.3094 H   0  0  0  0  0  0  0  0  0  0  0  0
   59.7490   24.0350   45.9440 C   0  0  0  0  0  0  0  0  0  0  0  0
   60.6536   24.1130   46.5649 H   0  0  0  0  0  0  0  0  0  0  0  0
  1  2  1  0
  2  3  1  0
  3  4  2  0
  4  5  1  0
  4  6  1  0
  6  7  1  0
  6  8  2  0
  8  9  1  0
  9 10  1  0
  9 11  1  0
 11 12  2  0
 12 13  1  0
 13 14  2  0
 13 15  1  0
 15 16  2  0
 16 17  1  0
 16 18  1  0
 18 19  1  0
 19 20  1  0
 19 21  2  0
 21 22  1  0
 22 23  2  0
 22 24  1  0
 24 25  1  0
 24 26  1  0
 26 27  2  0
 26 28  1  0
 28 29  1  0
 28 30  1  0
 21 31  1  0
 31 32  1  0
 32 33  1  0
 32 34  1  0
 32 35  1  0
 31 36  1  0
 36 37  1  0
 15 38  1  0
  8 39  1  0
 39 40  1  0
 39 41  2  0
 41 42  1  0
 41  3  1  0
 38 11  1  0
 36 18  2  0
M  END
>  <UniqueID>  (19) 
15

>  <SMILES>  (19) 
Cn1cc(/C=C2/SC(Nc3ccc(O)cc3)=NC2=O)cc1C(=O)NC(N)=O

>  <Energy>  (19) 
99.98718108099348

>  <Genealogy>  (19) 
Cn1cc(/C=C2/SC(Nc3ccc(O)cc3)=NC2=O)cc1C(=O)NC(N)=O (cis-trans isomerization)
Cn1cc(/C=C2/SC(Nc3ccc(O)cc3)=NC2=O)cc1C(=O)NC(N)=O (3D coordinates assigned)
Cn1cc(/C=C2/SC(Nc3ccc(O)cc3)=NC2=O)cc1C(=O)NC(N)=O (nonaromatic ring conformer: 99.98718108099348 kcal/mol)

>  <smiles>  (19) 
Cn1cc(C=C2SC(Nc3ccc(O)cc3)=NC2=O)cc1C(=O)NC(N)=O

>  <score_type>  (19) 
oracle

>  <origin>  (19) 
adg

>  <m_score__min__energy>  (19) 
-8.1300000000000008

>  <m_primary>  (19) 
energy

$$$$
19:0
     RDKit          3D

 16 16  0  0  0  0  0  0  0  0999 V2000
   55.1460   29.1390   44.8720 O   0  0  0  0  0  0  0  0  0  0  0  0
   56.3560   29.4490   45.0350 C   0  0  0  0  0  0  0  0  0  0  0  0
   56.7330   30.7850   44.9830 O   0  0  0  0  0  0  0  0  0  0  0  0
   57.3620   28.4070   45.2920 C   0  0  0  0  0  0  0  0  0  0  0  0
   58.4940   28.4900   44.7470 O   0  0  0  0  0  0  0  0  0  0  0  0
   57.1130   27.3550   46.2320 N   0  0  0  0  0  0  0  0  0  0  0  0
   56.8680   26.0960   45.9860 C   0  0  0  0  0  0  0  0  0  0  0  0
   57.9340   25.2710   45.7900 N   0  0  0  0  0  0  0  0  0  0  0  0
   57.7960   23.9430   45.5340 C   0  0  0  0  0  0  0  0  0  0  0  0
   56.5260   23.3760   45.4590 C   0  0  0  0  0  0  0  0  0  0  0  0
   55.4070   24.1880   45.6320 C   0  0  0  0  0  0  0  0  0  0  0  0
   55.5600   25.5550   45.8830 C   0  0  0  0  0  0  0  0  0  0  0  0
   54.4180   26.3410   45.9860 O   0  0  0  0  0  0  0  0  0  0  0  0
   58.6876   23.3160   45.3860 H   0  0  0  0  0  0  0  0  0  0  0  0
   56.4078   22.2996   45.2654 H   0  0  0  0  0  0  0  0  0  0  0  0
   54.3990   23.7518   45.5709 H   0  0  0  0  0  0  0  0  0  0  0  0
  1  2  2  0
  2  3  1  0
  2  4  1  0
  4  5  2  0
  4  6  1  0
  6  7  2  3
  7  8  1  0
  8  9  1  0
  9 10  2  0
 10 11  1  0
 11 12  2  0
 12 13  1  0
 12  7  1  0
  9 14  1  0
 10 15  1  0
 11 16  1  0
M  CHG  3   3  -1   8  -1  13  -1
M  END
>  <UniqueID>  (20) 
16

>  <SMILES>  (20) 
O=C([O-])C(=O)N=c1[n-]cccc1[O-]

>  <Energy>  (20) 
27.585159343715212

>  <Genealogy>  (20) 
O=C([O-])C(=O)N=c1[n-]cccc1[O-] (protonated)
O=C([O-])C(=O)N=c1[n-]cccc1[O-] (3D coordinates assigned)
O=C([O-])C(=O)N=c1[n-]cccc1[O-] (optimized conformer: 27.585159343715212 kcal/mol)

>  <smiles>  (20) 
O=C(O)C(=O)N=c1[nH]cccc1O

>  <score_type>  (20) 
oracle

>  <origin>  (20) 
adg

>  <m_score__min__energy>  (20) 
-13.369999999999999

>  <m_primary>  (20) 
energy

$$$$
20:0
     RDKit          3D

 50 53  0  0  0  0  0  0  0  0999 V2000
   56.2980   22.2140   42.4130 C   0  0  0  0  0  0  0  0  0  0  0  0
   56.5440   22.1390   43.8910 C   0  0  0  0  0  0  0  0  0  0  0  0
   57.1620   21.0140   44.4520 C   0  0  0  0  0  0  0  0  0  0  0  0
   57.4150   20.9620   45.8230 C   0  0  0  0  0  0  0  0  0  0  0  0
   57.0680   22.0330   46.6540 C   0  0  0  0  0  0  0  0  0  0  0  0
   57.3840   21.9450   48.0110 O   0  0  0  0  0  0  0  0  0  0  0  0
   56.4450   23.1750   46.0980 C   0  0  0  0  0  0  0  0  0  0  0  0
   56.0370   24.3280   46.9340 C   0  0  0  0  0  0  0  0  0  0  0  0
   55.7350   24.1410   48.1420 O   0  0  0  0  0  0  0  0  0  0  0  0
   55.8780   25.6410   46.3740 N   0  0  0  0  0  0  0  0  0  0  0  0
   56.9210   26.4350   45.7880 C   0  0  0  0  0  0  0  0  0  0  0  0
   57.4240   26.1600   44.5040 C   0  0  0  0  0  0  0  0  0  0  0  0
   58.4340   26.9560   43.9620 C   0  0  0  0  0  0  0  0  0  0  0  0
   58.9510   28.0280   44.6920 C   0  0  0  0  0  0  0  0  0  0  0  0
   58.4720   28.3040   45.9830 C   0  0  0  0  0  0  0  0  0  0  0  0
   59.0350   29.4620   46.7670 C   0  0  0  0  0  0  0  0  0  0  0  0
   58.4590   30.7730   46.2910 C   0  0  0  0  0  0  0  0  0  0  0  0
   57.3520   30.7290   45.5010 N   0  0  0  0  0  0  0  0  0  0  0  0
   56.7710   31.8300   45.0320 N   0  0  0  0  0  0  0  0  0  0  0  0
   57.2590   33.0650   45.3090 C   0  0  0  0  0  0  0  0  0  0  0  0
   56.6650   34.0800   44.8550 O   0  0  0  0  0  0  0  0  0  0  0  0
   58.4110   33.1990   46.1040 C   0  0  0  0  0  0  0  0  0  0  0  0
   59.0020   32.0330   46.6480 C   0  0  0  0  0  0  0  0  0  0  0  0
   60.2470   32.1260   47.5150 C   0  0  0  0  0  0  0  0  0  0  0  0
   60.5060   33.5310   48.0680 C   0  0  0  0  0  0  0  0  0  0  0  0
   60.3650   34.5700   46.9610 C   0  0  0  0  0  0  0  0  0  0  0  0
   58.9250   34.5850   46.4430 C   0  0  0  0  0  0  0  0  0  0  0  0
   57.4750   27.4830   46.5330 C   0  0  0  0  0  0  0  0  0  0  0  0
   56.2010   23.2200   44.7150 C   0  0  0  0  0  0  0  0  0  0  0  0
   55.2606   22.5303   42.2295 H   0  0  0  0  0  0  0  0  0  0  0  0
   56.9885   22.9425   41.9629 H   0  0  0  0  0  0  0  0  0  0  0  0
   56.4646   21.2242   41.9629 H   0  0  0  0  0  0  0  0  0  0  0  0
   57.4488   20.1686   43.8093 H   0  0  0  0  0  0  0  0  0  0  0  0
   57.8921   20.0700   46.2551 H   0  0  0  0  0  0  0  0  0  0  0  0
   56.8340   22.3860   48.7390 H   0  0  0  0  0  0  0  0  0  0  0  0
   57.0206   25.3158   43.9256 H   0  0  0  0  0  0  0  0  0  0  0  0
   58.8239   26.7382   42.9567 H   0  0  0  0  0  0  0  0  0  0  0  0
   59.7376   28.6597   44.2536 H   0  0  0  0  0  0  0  0  0  0  0  0
   58.7907   29.3278   47.8311 H   0  0  0  0  0  0  0  0  0  0  0  0
   60.1249   29.4859   46.6199 H   0  0  0  0  0  0  0  0  0  0  0  0
   60.1329   31.4343   48.3626 H   0  0  0  0  0  0  0  0  0  0  0  0
   61.1046   31.8676   46.8765 H   0  0  0  0  0  0  0  0  0  0  0  0
   59.7781   33.7476   48.8637 H   0  0  0  0  0  0  0  0  0  0  0  0
   61.5287   33.5740   48.4707 H   0  0  0  0  0  0  0  0  0  0  0  0
   60.6204   35.5635   47.3582 H   0  0  0  0  0  0  0  0  0  0  0  0
   61.0450   34.3145   46.1350 H   0  0  0  0  0  0  0  0  0  0  0  0
   58.2769   35.0211   47.2174 H   0  0  0  0  0  0  0  0  0  0  0  0
   58.9105   35.1804   45.5182 H   0  0  0  0  0  0  0  0  0  0  0  0
   57.1254   27.6649   47.5600 H   0  0  0  0  0  0  0  0  0  0  0  0
   55.7355   24.1137   44.2738 H   0  0  0  0  0  0  0  0  0  0  0  0
  1  2  1  0
  2  3  2  0
  3  4  1  0
  4  5  2  0
  5  6  1  0
  5  7  1  0
  7  8  1  0
  8  9  2  0
  8 10  1  0
 10 11  1  0
 11 12  2  0
 12 13  1  0
 13 14  2  0
 14 15  1  0
 15 16  1  0
 16 17  1  0
 17 18  2  0
 18 19  1  0
 19 20  1  0
 20 21  2  0
 20 22  1  0
 22 23  2  0
 23 24  1  0
 24 25  1  0
 25 26  1  0
 26 27  1  0
 15 28  2  0
  7 29  2  0
 29  2  1  0
 28 11  1  0
 23 17  1  0
 27 22  1  0
  1 30  1  0
  1 31  1  0
  1 32  1  0
  3 33  1  0
  4 34  1  0
  6 35  1  0
 12 36  1  0
 13 37  1  0
 14 38  1  0
 16 39  1  0
 16 40  1  0
 24 41  1  0
 24 42  1  0
 25 43  1  0
 25 44  1  0
 26 45  1  0
 26 46  1  0
 27 47  1  0
 27 48  1  0
 28 49  1  0
 29 50  1  0
M  CHG  2  10  -1  19  -1
M  END
>  <UniqueID>  (21) 
17

>  <SMILES>  (21) 
Cc1ccc(O)c(C(=O)[N-]c2cccc(Cc3n[n-]c(=O)c4c3CCCC4)c2)c1

>  <Energy>  (21) 
63.88186258494206

>  <Genealogy>  (21) 
Cc1ccc(O)c(C(=O)[N-]c2cccc(Cc3n[n-]c(=O)c4c3CCCC4)c2)c1 (protonated)
Cc1ccc(O)c(C(=O)[N-]c2cccc(Cc3n[n-]c(=O)c4c3CCCC4)c2)c1 (3D coordinates assigned)
Cc1ccc(O)c(C(=O)[N-]c2cccc(Cc3n[n-]c(=O)c4c3CCCC4)c2)c1 (nonaromatic ring conformer: 63.88186258494206 kcal/mol)

>  <smiles>  (21) 
Cc1ccc(O)c(C(=O)Nc2cccc(Cc3n[nH]c(=O)c4c3CCCC4)c2)c1

>  <score_type>  (21) 
oracle

>  <origin>  (21) 
adg

>  <m_score__min__energy>  (21) 
-12.859999999999999

>  <m_primary>  (21) 
energy

$$$$
21:0
     RDKit          3D

 45 48  0  0  0  0  0  0  0  0999 V2000
   56.9930   29.2180   43.0040 C   0  0  0  0  0  0  0  0  0  0  0  0
   56.6380   30.1710   44.4670 S   0  0  0  0  0  0  0  0  0  0  0  0
   55.2880   30.8150   44.3430 O   0  0  0  0  0  0  0  0  0  0  0  0
   56.6060   29.2140   45.6270 O   0  0  0  0  0  0  0  0  0  0  0  0
   57.8710   31.3830   44.7330 N   0  0  0  0  0  0  0  0  0  0  0  0
   58.1050   32.3460   43.6420 C   0  0  0  0  0  0  0  0  0  0  0  0
   58.8370   33.6130   44.1120 C   0  0  0  0  0  0  0  0  0  0  0  0
   58.2630   34.1010   45.4450 C   0  0  0  0  0  0  0  0  0  0  0  0
   58.4280   33.0210   46.4760 C   0  0  0  0  0  0  0  0  0  0  0  0
   58.6880   33.3420   47.8150 C   0  0  0  0  0  0  0  0  0  0  0  0
   58.9090   32.3280   48.7460 C   0  0  0  0  0  0  0  0  0  0  0  0
   58.9240   30.9940   48.3370 C   0  0  0  0  0  0  0  0  0  0  0  0
   58.6820   30.6570   46.9980 C   0  0  0  0  0  0  0  0  0  0  0  0
   58.8930   29.3020   46.5830 N   0  0  0  0  0  0  0  0  0  0  0  0
   59.8900   28.4670   47.1870 C   0  0  0  0  0  0  0  0  0  0  0  0
   60.6140   28.9130   48.1200 O   0  0  0  0  0  0  0  0  0  0  0  0
   60.0200   27.1090   46.7550 N   0  0  0  0  0  0  0  0  0  0  0  0
   58.9430   26.2280   46.4070 C   0  0  0  0  0  0  0  0  0  0  0  0
   59.1780   24.8950   45.9660 C   0  0  0  0  0  0  0  0  0  0  0  0
   58.1020   24.0630   45.6080 C   0  0  0  0  0  0  0  0  0  0  0  0
   56.8170   24.5920   45.6870 C   0  0  0  0  0  0  0  0  0  0  0  0
   56.5890   25.8670   46.0870 C   0  0  0  0  0  0  0  0  0  0  0  0
   57.6240   26.7240   46.4490 C   0  0  0  0  0  0  0  0  0  0  0  0
   55.2310   26.1220   46.0600 O   0  0  0  0  0  0  0  0  0  0  0  0
   54.5650   24.9290   45.6190 C   0  0  0  0  0  0  0  0  0  0  0  0
   55.6150   23.9790   45.3890 O   0  0  0  0  0  0  0  0  0  0  0  0
   58.3280   31.6740   46.0770 C   0  0  0  0  0  0  0  0  0  0  0  0
   57.3633   28.2239   43.2949 H   0  0  0  0  0  0  0  0  0  0  0  0
   56.0758   29.1074   42.4070 H   0  0  0  0  0  0  0  0  0  0  0  0
   57.7591   29.7344   42.4070 H   0  0  0  0  0  0  0  0  0  0  0  0
   58.7121   31.8570   42.8659 H   0  0  0  0  0  0  0  0  0  0  0  0
   57.1221   32.6553   43.2571 H   0  0  0  0  0  0  0  0  0  0  0  0
   59.9060   33.3872   44.2392 H   0  0  0  0  0  0  0  0  0  0  0  0
   58.7031   34.4018   43.3571 H   0  0  0  0  0  0  0  0  0  0  0  0
   58.8004   35.0045   45.7688 H   0  0  0  0  0  0  0  0  0  0  0  0
   57.1957   34.3382   45.3243 H   0  0  0  0  0  0  0  0  0  0  0  0
   58.7178   34.3950   48.1319 H   0  0  0  0  0  0  0  0  0  0  0  0
   59.0718   32.5799   49.8043 H   0  0  0  0  0  0  0  0  0  0  0  0
   59.1273   30.2005   49.0712 H   0  0  0  0  0  0  0  0  0  0  0  0
   58.1690   28.8440   45.9860 H   0  0  0  0  0  0  0  0  0  0  0  0
   60.2078   24.5132   45.9048 H   0  0  0  0  0  0  0  0  0  0  0  0
   58.2705   23.0278   45.2763 H   0  0  0  0  0  0  0  0  0  0  0  0
   57.4187   27.7592   46.7592 H   0  0  0  0  0  0  0  0  0  0  0  0
   53.8755   24.5626   46.3938 H   0  0  0  0  0  0  0  0  0  0  0  0
   53.9614   25.1033   44.7160 H   0  0  0  0  0  0  0  0  0  0  0  0
  1  2  1  0
  2  3  2  0
  2  4  2  0
  2  5  1  0
  5  6  1  0
  6  7  1  0
  7  8  1  0
  8  9  1  0
  9 10  2  0
 10 11  1  0
 11 12  2  0
 12 13  1  0
 13 14  1  0
 14 15  1  0
 15 16  2  0
 15 17  1  0
 17 18  1  0
 18 19  2  0
 19 20  1  0
 20 21  2  0
 21 22  1  0
 22 23  2  0
 22 24  1  0
 24 25  1  0
 25 26  1  0
 13 27  2  0
 27  5  1  0
 27  9  1  0
 23 18  1  0
 26 21  1  0
  1 28  1  0
  1 29  1  0
  1 30  1  0
  6 31  1  0
  6 32  1  0
  7 33  1  0
  7 34  1  0
  8 35  1  0
  8 36  1  0
 10 37  1  0
 11 38  1  0
 12 39  1  0
 14 40  1  0
 19 41  1  0
 20 42  1  0
 23 43  1  0
 25 44  1  0
 25 45  1  0
M  CHG  1  17  -1
M  END
>  <UniqueID>  (22) 
18

>  <SMILES>  (22) 
CS(=O)(=O)N1CCCc2cccc(NC(=O)[N-]c3ccc4c(c3)OCO4)c21

>  <Energy>  (22) 
88.82975599623751

>  <Genealogy>  (22) 
CS(=O)(=O)N1CCCc2cccc(NC(=O)[N-]c3ccc4c(c3)OCO4)c21 (protonated)
CS(=O)(=O)N1CCCc2cccc(NC(=O)[N-]c3ccc4c(c3)OCO4)c21 (3D coordinates assigned)
CS(=O)(=O)N1CCCc2cccc(NC(=O)[N-]c3ccc4c(c3)OCO4)c21 (nonaromatic ring conformer: 88.82975599623751 kcal/mol)

>  <smiles>  (22) 
CS(=O)(=O)N1CCCc2cccc(NC(=O)Nc3ccc4c(c3)OCO4)c21

>  <score_type>  (22) 
oracle

>  <origin>  (22) 
adg

>  <m_score__min__energy>  (22) 
-10.140000000000001

>  <m_primary>  (22) 
energy

$$$$
22:0
     RDKit          3D

 69 72  0  0  0  0  0  0  0  0999 V2000
   53.7190   19.9920   46.2220 C   0  0  0  0  0  0  0  0  0  0  0  0
   54.6050   20.9760   46.9390 C   0  0  0  0  0  0  0  0  0  0  0  0
   54.0840   21.6790   48.0410 C   0  0  0  0  0  0  0  0  0  0  0  0
   54.8660   22.6090   48.7280 C   0  0  0  0  0  0  0  0  0  0  0  0
   56.1740   22.8590   48.3190 C   0  0  0  0  0  0  0  0  0  0  0  0
   56.7060   22.1780   47.2240 C   0  0  0  0  0  0  0  0  0  0  0  0
   55.9400   21.2270   46.5260 C   0  0  0  0  0  0  0  0  0  0  0  0
   56.5790   20.5310   45.3430 C   0  0  0  0  0  0  0  0  0  0  0  0
   55.9010   20.9100   44.1080 N   0  0  0  0  0  0  0  0  0  0  0  0
   55.9930   22.2120   43.5150 C   0  0  0  0  0  0  0  0  0  0  0  0
   56.1520   22.3160   42.2710 O   0  0  0  0  0  0  0  0  0  0  0  0
   55.8980   23.4370   44.3570 C   0  0  0  0  0  0  0  0  0  0  0  0
   57.0430   24.2190   44.5880 C   0  0  0  0  0  0  0  0  0  0  0  0
   56.9910   25.3280   45.3860 N   0  0  0  0  0  0  0  0  0  0  0  0
   58.2340   26.0640   45.6750 C   0  0  0  0  0  0  0  0  0  0  0  0
   58.0960   27.4980   45.2390 C   0  0  0  0  0  0  0  0  0  0  0  0
   58.6110   28.5370   46.0280 C   0  0  0  0  0  0  0  0  0  0  0  0
   58.5430   29.8610   45.5840 C   0  0  0  0  0  0  0  0  0  0  0  0
   57.9690   30.1680   44.3380 C   0  0  0  0  0  0  0  0  0  0  0  0
   57.9490   31.5960   43.8460 C   0  0  0  0  0  0  0  0  0  0  0  0
   57.2100   32.4510   44.7730 N   0  0  0  0  0  0  0  0  0  0  0  0
   57.4180   33.8620   44.8700 C   0  0  0  0  0  0  0  0  0  0  0  0
   56.5000   34.6110   45.3030 O   0  0  0  0  0  0  0  0  0  0  0  0
   58.6950   34.4070   44.5310 N   0  0  0  0  0  0  0  0  0  0  0  0
   59.3970   35.3540   45.3900 C   0  0  0  0  0  0  0  0  0  0  0  0
   59.9650   34.6310   46.5810 C   0  0  0  0  0  0  0  0  0  0  0  0
   59.2880   34.6670   47.8100 C   0  0  0  0  0  0  0  0  0  0  0  0
   59.8570   34.0840   48.9450 C   0  0  0  0  0  0  0  0  0  0  0  0
   61.1080   33.4670   48.8650 C   0  0  0  0  0  0  0  0  0  0  0  0
   61.7950   33.4240   47.6450 C   0  0  0  0  0  0  0  0  0  0  0  0
   63.3880   32.6820   47.5630 S   0  0  0  0  0  0  0  0  0  0  0  0
   64.2880   33.0550   49.0500 C   0  0  0  0  0  0  0  0  0  0  0  0
   63.2380   31.1930   47.4190 O   0  0  0  0  0  0  0  0  0  0  0  0
   64.1450   33.2110   46.3760 O   0  0  0  0  0  0  0  0  0  0  0  0
   61.2230   34.0090   46.5060 C   0  0  0  0  0  0  0  0  0  0  0  0
   57.4720   29.1200   43.5430 C   0  0  0  0  0  0  0  0  0  0  0  0
   57.5210   27.8000   43.9960 C   0  0  0  0  0  0  0  0  0  0  0  0
   55.8050   25.6930   45.9640 C   0  0  0  0  0  0  0  0  0  0  0  0
   55.7360   26.7070   46.7110 O   0  0  0  0  0  0  0  0  0  0  0  0
   54.6860   24.9620   45.7420 N   0  0  0  0  0  0  0  0  0  0  0  0
   54.6980   23.8540   44.9620 C   0  0  0  0  0  0  0  0  0  0  0  0
   53.6260   23.2160   44.7930 O   0  0  0  0  0  0  0  0  0  0  0  0
   53.1728   19.3854   46.9594 H   0  0  0  0  0  0  0  0  0  0  0  0
   53.0010   20.5369   45.5914 H   0  0  0  0  0  0  0  0  0  0  0  0
   54.3359   19.3349   45.5914 H   0  0  0  0  0  0  0  0  0  0  0  0
   53.0491   21.4936   48.3646 H   0  0  0  0  0  0  0  0  0  0  0  0
   54.4490   23.1451   49.5933 H   0  0  0  0  0  0  0  0  0  0  0  0
   56.7879   23.5941   48.8600 H   0  0  0  0  0  0  0  0  0  0  0  0
   57.7370   22.3872   46.9025 H   0  0  0  0  0  0  0  0  0  0  0  0
   57.6382   20.8211   45.2796 H   0  0  0  0  0  0  0  0  0  0  0  0
   56.4948   19.4427   45.4789 H   0  0  0  0  0  0  0  0  0  0  0  0
   57.9964   23.9341   44.1191 H   0  0  0  0  0  0  0  0  0  0  0  0
   58.4349   26.0296   46.7560 H   0  0  0  0  0  0  0  0  0  0  0  0
   59.0656   25.5980   45.1261 H   0  0  0  0  0  0  0  0  0  0  0  0
   59.0707   28.3090   47.0010 H   0  0  0  0  0  0  0  0  0  0  0  0
   58.9419   30.6691   46.2148 H   0  0  0  0  0  0  0  0  0  0  0  0
   58.9824   31.9634   43.7614 H   0  0  0  0  0  0  0  0  0  0  0  0
   57.4523   31.6254   42.8650 H   0  0  0  0  0  0  0  0  0  0  0  0
   60.2141   35.8253   44.8241 H   0  0  0  0  0  0  0  0  0  0  0  0
   58.6932   36.1264   45.7334 H   0  0  0  0  0  0  0  0  0  0  0  0
   58.3053   35.1563   47.8798 H   0  0  0  0  0  0  0  0  0  0  0  0
   59.3188   34.1108   49.9040 H   0  0  0  0  0  0  0  0  0  0  0  0
   61.5546   33.0138   49.7623 H   0  0  0  0  0  0  0  0  0  0  0  0
   63.6722   32.7998   49.9250 H   0  0  0  0  0  0  0  0  0  0  0  0
   65.2182   32.4683   49.0725 H   0  0  0  0  0  0  0  0  0  0  0  0
   64.5305   34.1277   49.0725 H   0  0  0  0  0  0  0  0  0  0  0  0
   61.7624   33.9808   45.5478 H   0  0  0  0  0  0  0  0  0  0  0  0
   57.0409   29.3419   42.5556 H   0  0  0  0  0  0  0  0  0  0  0  0
   57.1063   26.9927   43.3745 H   0  0  0  0  0  0  0  0  0  0  0  0
  1  2  1  0
  2  3  2  0
  3  4  1  0
  4  5  2  0
  5  6  1  0
  6  7  2  0
  7  8  1  0
  8  9  1  0
  9 10  1  0
 10 11  2  0
 10 12  1  0
 12 13  2  0
 13 14  1  0
 14 15  1  0
 15 16  1  0
 16 17  2  0
 17 18  1  0
 18 19  2  0
 19 20  1  0
 20 21  1  0
 21 22  1  0
 22 23  2  0
 22 24  1  0
 24 25  1  0
 25 26  1  0
 26 27  2  0
 27 28  1  0
 28 29  2  0
 29 30  1  0
 30 31  1  0
 31 32  1  0
 31 33  2  0
 31 34  2  0
 30 35  2  0
 19 36  1  0
 36 37  2  0
 14 38  1  0
 38 39  2  0
 38 40  1  0
 40 41  1  0
 41 42  2  0
  7  2  1  0
 41 12  1  0
 37 16  1  0
 35 26  1  0
  1 43  1  0
  1 44  1  0
  1 45  1  0
  3 46  1  0
  4 47  1  0
  5 48  1  0
  6 49  1  0
  8 50  1  0
  8 51  1  0
 13 52  1  0
 15 53  1  0
 15 54  1  0
 17 55  1  0
 18 56  1  0
 20 57  1  0
 20 58  1  0
 25 59  1  0
 25 60  1  0
 27 61  1  0
 28 62  1  0
 29 63  1  0
 32 64  1  0
 32 65  1  0
 32 66  1  0
 35 67  1  0
 36 68  1  0
 37 69  1  0
M  CHG  4   9  -1  21  -1  24  -1  40  -1
M  END
>  <UniqueID>  (23) 
19

>  <SMILES>  (23) 
Cc1ccccc1C[N-]C(=O)c1cn(Cc2ccc(C[N-]C(=O)[N-]Cc3cccc(S(C)(=O)=O)c3)cc2)c(=O)[n-]c1=O

>  <Energy>  (23) 
64.23450451914806

>  <Genealogy>  (23) 
Cc1ccccc1C[N-]C(=O)c1cn(Cc2ccc(C[N-]C(=O)[N-]Cc3cccc(S(C)(=O)=O)c3)cc2)c(=O)[n-]c1=O (protonated)
Cc1ccccc1C[N-]C(=O)c1cn(Cc2ccc(C[N-]C(=O)[N-]Cc3cccc(S(C)(=O)=O)c3)cc2)c(=O)[n-]c1=O (3D coordinates assigned)
Cc1ccccc1C[N-]C(=O)c1cn(Cc2ccc(C[N-]C(=O)[N-]Cc3cccc(S(C)(=O)=O)c3)cc2)c(=O)[n-]c1=O (optimized conformer: 64.23450451914806 kcal/mol)

>  <smiles>  (23) 
Cc1ccccc1CNC(=O)c1cn(Cc2ccc(CNC(=O)NCc3cccc(S(C)(=O)=O)c3)cc2)c(=O)[nH]c1=O

>  <score_type>  (23) 
oracle

>  <origin>  (23) 
adg

>  <m_score__min__energy>  (23) 
-15.17

>  <m_primary>  (23) 
energy

$$$$
24:0
     RDKit          3D

 47 49  0  0  0  0  0  0  0  0999 V2000
   55.1680   28.9650   44.8600 O   0  0  0  0  0  0  0  0  0  0  0  0
   56.1390   29.7240   44.6050 C   0  0  0  0  0  0  0  0  0  0  0  0
   55.9300   31.0910   44.4860 O   0  0  0  0  0  0  0  0  0  0  0  0
   57.5240   29.1670   44.4930 C   0  0  0  0  0  0  0  0  0  0  0  0
   58.0890   28.8650   45.8270 N   0  0  0  0  0  0  0  0  0  0  0  0
   58.2160   27.5690   46.2820 C   0  0  0  0  0  0  0  0  0  0  0  0
   57.5320   26.3800   45.6220 C   0  0  0  0  0  0  0  0  0  0  0  0
   58.4260   25.1250   45.6150 C   0  0  0  0  0  0  0  0  0  0  0  0
   57.8390   24.0090   44.7870 C   0  0  0  0  0  0  0  0  0  0  0  0
   58.3480   22.7040   44.8930 C   0  0  0  0  0  0  0  0  0  0  0  0
   57.8220   21.6760   44.1050 C   0  0  0  0  0  0  0  0  0  0  0  0
   56.7900   21.9430   43.2010 C   0  0  0  0  0  0  0  0  0  0  0  0
   56.2800   23.2380   43.0860 C   0  0  0  0  0  0  0  0  0  0  0  0
   56.7980   24.2680   43.8770 C   0  0  0  0  0  0  0  0  0  0  0  0
   58.9370   27.3240   47.4530 C   0  0  0  0  0  0  0  0  0  0  0  0
   59.3670   28.3900   48.2270 C   0  0  0  0  0  0  0  0  0  0  0  0
   59.9750   28.1490   49.3070 O   0  0  0  0  0  0  0  0  0  0  0  0
   59.1070   29.6740   47.8370 N   0  0  0  0  0  0  0  0  0  0  0  0
   59.3900   30.8030   48.7470 C   0  0  0  0  0  0  0  0  0  0  0  0
   60.6190   31.5390   48.2800 C   0  0  0  0  0  0  0  0  0  0  0  0
   60.4970   32.7900   47.6520 C   0  0  0  0  0  0  0  0  0  0  0  0
   61.6260   33.4420   47.1510 C   0  0  0  0  0  0  0  0  0  0  0  0
   62.8910   32.8490   47.2670 C   0  0  0  0  0  0  0  0  0  0  0  0
   64.0240   33.4860   46.7650 O   0  0  0  0  0  0  0  0  0  0  0  0
   63.0180   31.6040   47.8900 C   0  0  0  0  0  0  0  0  0  0  0  0
   61.8890   30.9490   48.3920 C   0  0  0  0  0  0  0  0  0  0  0  0
   58.4970   29.9090   46.6280 C   0  0  0  0  0  0  0  0  0  0  0  0
   58.2990   31.1000   46.2540 O   0  0  0  0  0  0  0  0  0  0  0  0
   57.4916   28.2416   43.8992 H   0  0  0  0  0  0  0  0  0  0  0  0
   58.1632   29.9182   44.0060 H   0  0  0  0  0  0  0  0  0  0  0  0
   56.6070   26.1530   46.1723 H   0  0  0  0  0  0  0  0  0  0  0  0
   57.3199   26.6496   44.5769 H   0  0  0  0  0  0  0  0  0  0  0  0
   59.4092   25.3933   45.2010 H   0  0  0  0  0  0  0  0  0  0  0  0
   58.5110   24.7664   46.6514 H   0  0  0  0  0  0  0  0  0  0  0  0
   59.1639   22.4901   45.5990 H   0  0  0  0  0  0  0  0  0  0  0  0
   58.2211   20.6550   44.1966 H   0  0  0  0  0  0  0  0  0  0  0  0
   56.3795   21.1331   42.5801 H   0  0  0  0  0  0  0  0  0  0  0  0
   55.4698   23.4479   42.3722 H   0  0  0  0  0  0  0  0  0  0  0  0
   56.3897   25.2855   43.7873 H   0  0  0  0  0  0  0  0  0  0  0  0
   59.1620   26.2916   47.7588 H   0  0  0  0  0  0  0  0  0  0  0  0
   58.5321   31.4915   48.7526 H   0  0  0  0  0  0  0  0  0  0  0  0
   59.5618   30.4168   49.7625 H   0  0  0  0  0  0  0  0  0  0  0  0
   59.5066   33.2586   47.5544 H   0  0  0  0  0  0  0  0  0  0  0  0
   61.5224   34.4230   46.6643 H   0  0  0  0  0  0  0  0  0  0  0  0
   64.9190   33.0130   46.7200 H   0  0  0  0  0  0  0  0  0  0  0  0
   64.0097   31.1378   47.9857 H   0  0  0  0  0  0  0  0  0  0  0  0
   61.9959   29.9674   48.8768 H   0  0  0  0  0  0  0  0  0  0  0  0
  1  2  2  0
  2  3  1  0
  2  4  1  0
  4  5  1  0
  5  6  1  0
  6  7  1  0
  7  8  1  0
  8  9  1  0
  9 10  2  0
 10 11  1  0
 11 12  2  0
 12 13  1  0
 13 14  2  0
  6 15  2  0
 15 16  1  0
 16 17  2  0
 16 18  1  0
 18 19  1  0
 19 20  1  0
 20 21  2  0
 21 22  1  0
 22 23  2  0
 23 24  1  0
 23 25  1  0
 25 26  2  0
 18 27  1  0
 27 28  2  0
 27  5  1  0
 14  9  1  0
 26 20  1  0
  4 29  1  0
  4 30  1  0
  7 31  1  0
  7 32  1  0
  8 33  1  0
  8 34  1  0
 10 35  1  0
 11 36  1  0
 12 37  1  0
 13 38  1  0
 14 39  1  0
 15 40  1  0
 19 41  1  0
 19 42  1  0
 21 43  1  0
 22 44  1  0
 24 45  1  0
 25 46  1  0
 26 47  1  0
M  CHG  1   3  -1
M  END
>  <UniqueID>  (24) 
20

>  <SMILES>  (24) 
O=C([O-])Cn1c(CCc2ccccc2)cc(=O)n(Cc2ccc(O)cc2)c1=O

>  <Energy>  (24) 
54.01830098585558

>  <Genealogy>  (24) 
O=C([O-])Cn1c(CCc2ccccc2)cc(=O)n(Cc2ccc(O)cc2)c1=O (protonated)
O=C([O-])Cn1c(CCc2ccccc2)cc(=O)n(Cc2ccc(O)cc2)c1=O (3D coordinates assigned)
O=C([O-])Cn1c(CCc2ccccc2)cc(=O)n(Cc2ccc(O)cc2)c1=O (optimized conformer: 54.01830098585558 kcal/mol)

>  <smiles>  (24) 
O=C(O)Cn1c(CCc2ccccc2)cc(=O)n(Cc2ccc(O)cc2)c1=O

>  <score_type>  (24) 
oracle

>  <origin>  (24) 
adg

>  <m_score__min__energy>  (24) 
-10.949999999999999

>  <m_primary>  (24) 
energy

$$$$
25:0
     RDKit          3D

 41 43  0  0  0  0  0  0  0  0999 V2000
   54.3920   28.9540   44.4980 H   0  0  0  0  0  0  0  0  0  0  0  0
   55.3010   29.2170   44.8590 O   0  0  0  0  0  0  0  0  0  0  0  0
   56.2710   28.2840   45.2250 C   0  0  0  0  0  0  0  0  0  0  0  0
   55.8670   27.1150   45.7860 N   0  0  0  0  0  0  0  0  0  0  0  0
   56.7610   26.1570   46.1420 C   0  0  0  0  0  0  0  0  0  0  0  0
   56.2360   24.7650   46.8150 S   0  0  0  0  0  0  0  0  0  0  0  0
   58.0870   26.3500   45.9320 N   0  0  0  0  0  0  0  0  0  0  0  0
   58.5470   27.5010   45.3770 C   0  0  0  0  0  0  0  0  0  0  0  0
   59.7860   27.6450   45.1940 O   0  0  0  0  0  0  0  0  0  0  0  0
   57.6480   28.5190   45.0250 C   0  0  0  0  0  0  0  0  0  0  0  0
   58.1440   29.7620   44.4040 C   0  0  0  0  0  0  0  0  0  0  0  0
   58.5870   29.6783   43.4006 H   0  0  0  0  0  0  0  0  0  0  0  0
   58.1030   30.9910   44.9560 C   0  0  0  0  0  0  0  0  0  0  0  0
   57.6060   32.0900   44.2810 C   0  0  0  0  0  0  0  0  0  0  0  0
   57.2543   32.1130   43.2390 H   0  0  0  0  0  0  0  0  0  0  0  0
   57.6340   33.1500   45.1580 C   0  0  0  0  0  0  0  0  0  0  0  0
   57.1050   34.5170   44.8430 C   0  0  0  0  0  0  0  0  0  0  0  0
   56.8970   35.0545   45.7799 H   0  0  0  0  0  0  0  0  0  0  0  0
   57.8526   35.0739   44.2590 H   0  0  0  0  0  0  0  0  0  0  0  0
   56.1773   34.4256   44.2590 H   0  0  0  0  0  0  0  0  0  0  0  0
   58.1480   32.7680   46.3520 N   0  0  0  0  0  0  0  0  0  0  0  0
   58.2640   33.6360   47.5370 C   0  0  0  0  0  0  0  0  0  0  0  0
   57.9632   34.6590   47.2669 H   0  0  0  0  0  0  0  0  0  0  0  0
   57.6095   33.2444   48.3296 H   0  0  0  0  0  0  0  0  0  0  0  0
   59.6840   33.6540   48.0430 C   0  0  0  0  0  0  0  0  0  0  0  0
   60.7590   33.7370   47.1450 C   0  0  0  0  0  0  0  0  0  0  0  0
   60.5646   33.7764   46.0630 H   0  0  0  0  0  0  0  0  0  0  0  0
   62.0750   33.7700   47.6150 C   0  0  0  0  0  0  0  0  0  0  0  0
   62.9087   33.8371   46.9006 H   0  0  0  0  0  0  0  0  0  0  0  0
   62.3400   33.7180   48.9940 C   0  0  0  0  0  0  0  0  0  0  0  0
   63.7340   33.7560   49.4880 C   0  0  0  0  0  0  0  0  0  0  0  0
   63.9970   34.2150   50.6310 O   0  0  0  0  0  0  0  0  0  0  0  0
   64.7750   33.2810   48.6980 O   0  0  0  0  0  0  0  0  0  0  0  0
   61.2630   33.6310   49.8920 C   0  0  0  0  0  0  0  0  0  0  0  0
   61.4563   33.5885   50.9741 H   0  0  0  0  0  0  0  0  0  0  0  0
   59.9470   33.5980   49.4200 C   0  0  0  0  0  0  0  0  0  0  0  0
   59.1125   33.5277   50.1331 H   0  0  0  0  0  0  0  0  0  0  0  0
   58.4620   31.4460   46.2400 C   0  0  0  0  0  0  0  0  0  0  0  0
   59.0840   30.7400   47.1990 C   0  0  0  0  0  0  0  0  0  0  0  0
   59.3120   31.2095   48.1673 H   0  0  0  0  0  0  0  0  0  0  0  0
   59.3653   29.6925   47.0159 H   0  0  0  0  0  0  0  0  0  0  0  0
  1  2  1  0
  2  3  1  0
  3  4  1  0
  4  5  1  0
  5  6  2  0
  5  7  1  0
  7  8  1  0
  8  9  2  0
  8 10  1  0
 10 11  1  0
 11 12  1  0
 11 13  2  0
 13 14  1  0
 14 15  1  0
 14 16  2  0
 16 17  1  0
 17 18  1  0
 17 19  1  0
 17 20  1  0
 16 21  1  0
 21 22  1  0
 22 23  1  0
 22 24  1  0
 22 25  1  0
 25 26  2  0
 26 27  1  0
 26 28  1  0
 28 29  1  0
 28 30  2  0
 30 31  1  0
 31 32  2  0
 31 33  1  0
 30 34  1  0
 34 35  1  0
 34 36  2  0
 36 37  1  0
 21 38  1  0
 38 39  2  0
 39 40  1  0
 39 41  1  0
 10  3  2  0
 38 13  1  0
 36 25  1  0
M  CHG  3   4  -1   7  -1  33  -1
M  END
>  <UniqueID>  (25) 
21

>  <SMILES>  (25) 
C=c1/c(=C\c2c(O)[n-]c(=S)[n-]c2=O)cc(C)n1Cc1ccc(C(=O)[O-])cc1

>  <Energy>  (25) 
86.84177800270822

>  <Genealogy>  (25) 
C=c1c(=Cc2c(O)[n-]c(=S)[n-]c2=O)cc(C)n1Cc1ccc(C(=O)[O-])cc1 (protonated)
C=c1/c(=C\c2c(O)[n-]c(=S)[n-]c2=O)cc(C)n1Cc1ccc(C(=O)[O-])cc1 (cis-trans isomerization)
C=c1/c(=C\c2c(O)[n-]c(=S)[n-]c2=O)cc(C)n1Cc1ccc(C(=O)[O-])cc1 (3D coordinates assigned)
C=c1/c(=C\c2c(O)[n-]c(=S)[n-]c2=O)cc(C)n1Cc1ccc(C(=O)[O-])cc1 (optimized conformer: 86.84177800270822 kcal/mol)

>  <smiles>  (25) 
C=c1c(=Cc2c(O)[nH]c(=S)[nH]c2=O)cc(C)n1Cc1ccc(C(=O)O)cc1

>  <score_type>  (25) 
oracle

>  <origin>  (25) 
adg

>  <m_score__min__energy>  (25) 
-13.199999999999999

>  <m_primary>  (25) 
energy

$$$$
26:0
     RDKit          3D

 53 56  0  0  0  0  0  0  0  0999 V2000
   57.5090   30.9040   43.3720 O   0  0  0  0  0  0  0  0  0  0  0  0
   56.9950   30.6110   44.4850 C   0  0  0  0  0  0  0  0  0  0  0  0
   56.1540   29.3820   44.6120 C   0  0  0  0  0  0  0  0  0  0  0  0
   56.9600   28.2670   45.2030 C   0  0  0  0  0  0  0  0  0  0  0  0
   58.3320   28.2520   45.3850 C   0  0  0  0  0  0  0  0  0  0  0  0
   58.6140   27.0520   46.0130 C   0  0  0  0  0  0  0  0  0  0  0  0
   59.8880   26.6150   46.3710 O   0  0  0  0  0  0  0  0  0  0  0  0
   57.4850   26.3460   46.2420 N   0  0  0  0  0  0  0  0  0  0  0  0
   57.3860   25.0140   46.8370 C   0  0  0  0  0  0  0  0  0  0  0  0
   57.4100   23.9640   45.7580 C   0  0  0  0  0  0  0  0  0  0  0  0
   58.5220   23.1150   45.6170 C   0  0  0  0  0  0  0  0  0  0  0  0
   58.5250   22.1170   44.6380 C   0  0  0  0  0  0  0  0  0  0  0  0
   57.4190   21.9520   43.8000 C   0  0  0  0  0  0  0  0  0  0  0  0
   56.3040   22.7830   43.9430 C   0  0  0  0  0  0  0  0  0  0  0  0
   56.2950   23.7830   44.9210 C   0  0  0  0  0  0  0  0  0  0  0  0
   56.4770   27.0900   45.7440 C   0  0  0  0  0  0  0  0  0  0  0  0
   55.1390   26.7190   45.7870 O   0  0  0  0  0  0  0  0  0  0  0  0
   57.1760   31.4670   45.6180 N   0  0  0  0  0  0  0  0  0  0  0  0
   57.9860   32.6510   45.6570 C   0  0  0  0  0  0  0  0  0  0  0  0
   57.6480   33.7900   44.9010 C   0  0  0  0  0  0  0  0  0  0  0  0
   58.4780   34.9140   44.9110 C   0  0  0  0  0  0  0  0  0  0  0  0
   59.6540   34.9100   45.6620 C   0  0  0  0  0  0  0  0  0  0  0  0
   60.0090   33.7790   46.4010 C   0  0  0  0  0  0  0  0  0  0  0  0
   59.1820   32.6450   46.4030 C   0  0  0  0  0  0  0  0  0  0  0  0
   59.5460   31.4950   47.1840 N   0  0  0  0  0  0  0  0  0  0  0  0
   60.6800   30.6620   46.7600 C   0  0  0  0  0  0  0  0  0  0  0  0
   60.7750   29.4150   47.6390 C   0  0  0  0  0  0  0  0  0  0  0  0
   59.4740   28.9360   47.9090 O   0  0  0  0  0  0  0  0  0  0  0  0
   58.8320   29.7810   48.8520 C   0  0  0  0  0  0  0  0  0  0  0  0
   58.9260   31.2860   48.5000 C   0  0  0  0  0  0  0  0  0  0  0  0
   55.2942   29.5951   45.2642 H   0  0  0  0  0  0  0  0  0  0  0  0
   55.8010   29.0821   43.6143 H   0  0  0  0  0  0  0  0  0  0  0  0
   59.0494   29.0324   45.0912 H   0  0  0  0  0  0  0  0  0  0  0  0
   60.4330   27.1170   47.0640 H   0  0  0  0  0  0  0  0  0  0  0  0
   58.2350   24.8555   47.5183 H   0  0  0  0  0  0  0  0  0  0  0  0
   56.4407   24.9372   47.3942 H   0  0  0  0  0  0  0  0  0  0  0  0
   59.3921   23.2365   46.2790 H   0  0  0  0  0  0  0  0  0  0  0  0
   59.4002   21.4600   44.5271 H   0  0  0  0  0  0  0  0  0  0  0  0
   57.4257   21.1684   43.0280 H   0  0  0  0  0  0  0  0  0  0  0  0
   55.4323   22.6503   43.2853 H   0  0  0  0  0  0  0  0  0  0  0  0
   55.4127   24.4299   45.0356 H   0  0  0  0  0  0  0  0  0  0  0  0
   56.7267   33.7949   44.3001 H   0  0  0  0  0  0  0  0  0  0  0  0
   58.2037   35.8040   44.3256 H   0  0  0  0  0  0  0  0  0  0  0  0
   60.3023   35.7986   45.6721 H   0  0  0  0  0  0  0  0  0  0  0  0
   60.9415   33.7771   46.9844 H   0  0  0  0  0  0  0  0  0  0  0  0
   60.5365   30.3584   45.7125 H   0  0  0  0  0  0  0  0  0  0  0  0
   61.6091   31.2426   46.8581 H   0  0  0  0  0  0  0  0  0  0  0  0
   61.3513   28.6385   47.1147 H   0  0  0  0  0  0  0  0  0  0  0  0
   61.2792   29.6667   48.5837 H   0  0  0  0  0  0  0  0  0  0  0  0
   57.7694   29.5014   48.9028 H   0  0  0  0  0  0  0  0  0  0  0  0
   59.3475   29.6416   49.8137 H   0  0  0  0  0  0  0  0  0  0  0  0
   57.9129   31.7143   48.4896 H   0  0  0  0  0  0  0  0  0  0  0  0
   59.5525   31.7787   49.2582 H   0  0  0  0  0  0  0  0  0  0  0  0
  1  2  2  0
  2  3  1  0
  3  4  1  0
  4  5  1  0
  5  6  2  0
  6  7  1  0
  6  8  1  0
  8  9  1  0
  9 10  1  0
 10 11  2  0
 11 12  1  0
 12 13  2  0
 13 14  1  0
 14 15  2  0
  8 16  1  0
 16 17  1  0
  2 18  1  0
 18 19  1  0
 19 20  2  0
 20 21  1  0
 21 22  2  0
 22 23  1  0
 23 24  2  0
 24 25  1  0
 25 26  1  0
 26 27  1  0
 27 28  1  0
 28 29  1  0
 29 30  1  0
 16  4  2  0
 24 19  1  0
 30 25  1  0
 15 10  1  0
  3 31  1  0
  3 32  1  0
  5 33  1  0
  7 34  1  0
  9 35  1  0
  9 36  1  0
 11 37  1  0
 12 38  1  0
 13 39  1  0
 14 40  1  0
 15 41  1  0
 20 42  1  0
 21 43  1  0
 22 44  1  0
 23 45  1  0
 26 46  1  0
 26 47  1  0
 27 48  1  0
 27 49  1  0
 29 50  1  0
 29 51  1  0
 30 52  1  0
 30 53  1  0
M  CHG  2  17  -1  18  -1
M  END
>  <UniqueID>  (26) 
22

>  <SMILES>  (26) 
O=C(Cc1cc(O)n(Cc2ccccc2)c1[O-])[N-]c1ccccc1N1CCOCC1

>  <Energy>  (26) 
94.55176290639255

>  <Genealogy>  (26) 
O=C(Cc1cc(O)n(Cc2ccccc2)c1[O-])[N-]c1ccccc1N1CCOCC1 (protonated)
O=C(Cc1cc(O)n(Cc2ccccc2)c1[O-])[N-]c1ccccc1N1CCOCC1 (3D coordinates assigned)
O=C(Cc1cc(O)n(Cc2ccccc2)c1[O-])[N-]c1ccccc1N1CCOCC1 (nonaromatic ring conformer: 94.55176290639255 kcal/mol)

>  <smiles>  (26) 
O=C(Cc1cc(O)n(Cc2ccccc2)c1O)Nc1ccccc1N1CCOCC1

>  <score_type>  (26) 
oracle

>  <origin>  (26) 
adg

>  <m_score__min__energy>  (26) 
-12.609999999999999

>  <m_primary>  (26) 
energy

$$$$
27:0
     RDKit          3D

 51 53  0  0  0  0  0  0  0  0999 V2000
   59.3080   30.9930   46.8780 C   0  0  0  0  0  0  0  0  0  0  0  0
   59.0440   32.2270   46.0410 C   0  0  0  0  0  0  0  0  0  0  0  0
   58.0850   32.2010   44.9940 C   0  0  0  0  0  0  0  0  0  0  0  0
   57.3780   30.9650   44.5840 C   0  0  0  0  0  0  0  0  0  0  0  0
   56.1530   30.8460   44.8690 O   0  0  0  0  0  0  0  0  0  0  0  0
   58.0290   29.9850   43.7410 N   0  0  0  0  0  0  0  0  0  0  0  0
   57.0130   29.1540   43.0780 C   0  0  0  0  0  0  0  0  0  0  0  0
   58.9530   29.1450   44.5220 C   0  0  0  0  0  0  0  0  0  0  0  0
   57.7790   33.3850   44.3050 C   0  0  0  0  0  0  0  0  0  0  0  0
   58.4400   34.5730   44.6050 C   0  0  0  0  0  0  0  0  0  0  0  0
   59.4210   34.5970   45.5910 C   0  0  0  0  0  0  0  0  0  0  0  0
   59.7420   33.4350   46.3080 C   0  0  0  0  0  0  0  0  0  0  0  0
   60.8170   33.5160   47.3210 C   0  0  0  0  0  0  0  0  0  0  0  0
   62.1500   33.2630   46.9570 C   0  0  0  0  0  0  0  0  0  0  0  0
   63.1670   33.3360   47.9130 C   0  0  0  0  0  0  0  0  0  0  0  0
   62.8700   33.6520   49.2530 C   0  0  0  0  0  0  0  0  0  0  0  0
   63.9540   33.7050   50.3220 C   0  0  0  0  0  0  0  0  0  0  0  0
   63.4600   33.0980   51.6530 C   0  0  0  0  0  0  0  0  0  0  0  0
   63.5040   31.5540   51.6820 C   0  0  0  0  0  0  0  0  0  0  0  0
   64.5500   30.9690   50.8220 N   0  0  0  0  0  0  0  0  0  0  0  0
   65.7050   31.8550   50.6620 C   0  0  0  0  0  0  0  0  0  0  0  0
   65.3040   33.0950   49.8540 C   0  0  0  0  0  0  0  0  0  0  0  0
   61.5280   33.8750   49.6140 C   0  0  0  0  0  0  0  0  0  0  0  0
   60.5140   33.8130   48.6560 C   0  0  0  0  0  0  0  0  0  0  0  0
   59.2520   31.2548   47.9449 H   0  0  0  0  0  0  0  0  0  0  0  0
   58.5536   30.2260   46.6485 H   0  0  0  0  0  0  0  0  0  0  0  0
   60.3102   30.6018   46.6485 H   0  0  0  0  0  0  0  0  0  0  0  0
   58.5810   30.4680   42.9970 H   0  0  0  0  0  0  0  0  0  0  0  0
   56.3977   28.6508   43.8384 H   0  0  0  0  0  0  0  0  0  0  0  0
   56.3720   29.7900   42.4498 H   0  0  0  0  0  0  0  0  0  0  0  0
   57.5093   28.3996   42.4498 H   0  0  0  0  0  0  0  0  0  0  0  0
   58.7761   29.3058   45.5957 H   0  0  0  0  0  0  0  0  0  0  0  0
   58.7823   28.0863   44.2768 H   0  0  0  0  0  0  0  0  0  0  0  0
   59.9906   29.4155   44.2768 H   0  0  0  0  0  0  0  0  0  0  0  0
   57.0088   33.3741   43.5197 H   0  0  0  0  0  0  0  0  0  0  0  0
   58.1860   35.4948   44.0611 H   0  0  0  0  0  0  0  0  0  0  0  0
   59.9500   35.5362   45.8105 H   0  0  0  0  0  0  0  0  0  0  0  0
   62.3943   33.0065   45.9156 H   0  0  0  0  0  0  0  0  0  0  0  0
   64.2088   33.1449   47.6161 H   0  0  0  0  0  0  0  0  0  0  0  0
   64.1648   34.7690   50.5048 H   0  0  0  0  0  0  0  0  0  0  0  0
   64.0950   33.4794   52.4662 H   0  0  0  0  0  0  0  0  0  0  0  0
   62.4070   33.3932   51.7713 H   0  0  0  0  0  0  0  0  0  0  0  0
   63.6874   31.2323   52.7178 H   0  0  0  0  0  0  0  0  0  0  0  0
   62.5374   31.2000   51.2943 H   0  0  0  0  0  0  0  0  0  0  0  0
   64.8790   30.0780   51.2590 H   0  0  0  0  0  0  0  0  0  0  0  0
   66.0656   32.1667   51.6534 H   0  0  0  0  0  0  0  0  0  0  0  0
   66.5025   31.3174   50.1282 H   0  0  0  0  0  0  0  0  0  0  0  0
   66.0907   33.8559   49.9635 H   0  0  0  0  0  0  0  0  0  0  0  0
   65.1823   32.7836   48.8061 H   0  0  0  0  0  0  0  0  0  0  0  0
   61.2756   34.1002   50.6607 H   0  0  0  0  0  0  0  0  0  0  0  0
   59.4708   33.9985   48.9515 H   0  0  0  0  0  0  0  0  0  0  0  0
  1  2  1  0
  2  3  2  0
  3  4  1  0
  4  5  2  0
  4  6  1  0
  6  7  1  0
  6  8  1  0
  3  9  1  0
  9 10  2  0
 10 11  1  0
 11 12  2  0
 12 13  1  0
 13 14  2  0
 14 15  1  0
 15 16  2  0
 16 17  1  0
 17 18  1  0
 18 19  1  0
 19 20  1  0
 20 21  1  0
 21 22  1  0
 16 23  1  0
 23 24  2  0
 12  2  1  0
 24 13  1  0
 22 17  1  0
  1 25  1  0
  1 26  1  0
  1 27  1  0
  6 28  1  0
  7 29  1  0
  7 30  1  0
  7 31  1  0
  8 32  1  0
  8 33  1  0
  8 34  1  0
  9 35  1  0
 10 36  1  0
 11 37  1  0
 14 38  1  0
 15 39  1  0
 17 40  1  0
 18 41  1  0
 18 42  1  0
 19 43  1  0
 19 44  1  0
 20 45  1  0
 21 46  1  0
 21 47  1  0
 22 48  1  0
 22 49  1  0
 23 50  1  0
 24 51  1  0
M  CHG  1   6   1
M  END
>  <UniqueID>  (27) 
23

>  <SMILES>  (27) 
Cc1c(C(=O)[NH+](C)C)cccc1-c1ccc(C2CCNCC2)cc1

>  <Energy>  (27) 
75.43232625070362

>  <Genealogy>  (27) 
Cc1c(C(=O)[NH+](C)C)cccc1-c1ccc(C2CCNCC2)cc1 (protonated)
Cc1c(C(=O)[NH+](C)C)cccc1-c1ccc(C2CCNCC2)cc1 (3D coordinates assigned)
Cc1c(C(=O)[NH+](C)C)cccc1-c1ccc(C2CCNCC2)cc1 (nonaromatic ring conformer: 75.43232625070362 kcal/mol)

>  <smiles>  (27) 
Cc1c(C(=O)N(C)C)cccc1-c1ccc(C2CCNCC2)cc1

>  <score_type>  (27) 
oracle

>  <origin>  (27) 
adg

>  <m_score__min__energy>  (27) 
-7.54

>  <m_primary>  (27) 
energy

$$$$
28:0
     RDKit          3D

 70 74  0  0  0  0  0  0  0  0999 V2000
   57.5770   25.7460   44.4030 O   0  0  0  0  0  0  0  0  0  0  0  0
   57.2140   26.5840   45.2740 C   0  0  0  0  0  0  0  0  0  0  0  0
   56.0040   26.3710   46.0180 N   0  0  0  0  0  0  0  0  0  0  0  0
   55.2270   25.1370   45.9140 C   0  0  0  0  0  0  0  0  0  0  0  0
   56.0510   23.9370   46.3900 C   0  0  0  0  0  0  0  0  0  0  0  0
   56.4770   23.0940   45.2160 C   0  0  0  0  0  0  0  0  0  0  0  0
   55.8250   23.2280   43.9780 C   0  0  0  0  0  0  0  0  0  0  0  0
   56.2540   22.4850   42.8740 C   0  0  0  0  0  0  0  0  0  0  0  0
   57.3370   21.6090   42.9950 C   0  0  0  0  0  0  0  0  0  0  0  0
   57.9940   21.4750   44.2220 C   0  0  0  0  0  0  0  0  0  0  0  0
   57.5700   22.2180   45.3290 C   0  0  0  0  0  0  0  0  0  0  0  0
   58.0830   27.7820   45.5630 C   0  0  1  0  0  0  0  0  0  0  0  0
   59.4630   27.6250   44.8840 C   0  0  0  0  0  0  0  0  0  0  0  0
   60.2260   28.9550   44.7140 C   0  0  0  0  0  0  0  0  0  0  0  0
   59.6910   30.0600   45.6250 C   0  0  0  0  0  0  0  0  0  0  0  0
   58.2530   30.2540   45.3830 N   0  0  0  0  0  0  0  0  0  0  0  0
   57.6940   31.5800   45.2880 C   0  0  0  0  0  0  0  0  0  0  0  0
   56.6270   31.7590   44.6370 O   0  0  0  0  0  0  0  0  0  0  0  0
   58.3400   32.7390   45.9370 C   0  0  0  0  0  0  0  0  0  0  0  0
   58.6830   33.8690   45.1790 C   0  0  0  0  0  0  0  0  0  0  0  0
   59.3270   34.9530   45.7810 C   0  0  0  0  0  0  0  0  0  0  0  0
   59.6230   34.9230   47.1470 C   0  0  0  0  0  0  0  0  0  0  0  0
   59.2600   33.8140   47.9280 C   0  0  0  0  0  0  0  0  0  0  0  0
   59.5360   33.7960   49.4090 C   0  0  0  0  0  0  0  0  0  0  0  0
   59.0210   32.5210   50.0330 C   0  0  0  0  0  0  0  0  0  0  0  0
   57.8590   32.5980   50.7390 N   0  0  0  0  0  0  0  0  0  0  0  0
   57.3410   31.5490   51.3760 N   0  0  0  0  0  0  0  0  0  0  0  0
   57.9490   30.3380   51.3630 C   0  0  0  0  0  0  0  0  0  0  0  0
   57.4320   29.3790   51.9990 O   0  0  0  0  0  0  0  0  0  0  0  0
   59.1440   30.1740   50.6500 C   0  0  0  0  0  0  0  0  0  0  0  0
   59.6970   31.2740   49.9710 C   0  0  0  0  0  0  0  0  0  0  0  0
   61.0250   31.0510   49.2730 C   0  0  0  0  0  0  0  0  0  0  0  0
   61.0200   29.7350   48.4710 C   0  0  0  0  0  0  0  0  0  0  0  0
   60.3600   28.5390   49.2010 C   0  0  0  0  0  0  0  0  0  0  0  0
   59.8890   28.8590   50.6270 C   0  0  0  0  0  0  0  0  0  0  0  0
   58.6090   32.7280   47.3170 C   0  0  0  0  0  0  0  0  0  0  0  0
   57.3830   29.0910   45.1500 C   0  0  0  0  0  0  0  0  0  0  0  0
   55.7150   27.0760   46.7350 H   0  0  0  0  0  0  0  0  0  0  0  0
   54.3244   25.2250   46.5365 H   0  0  0  0  0  0  0  0  0  0  0  0
   54.9504   24.9808   44.8609 H   0  0  0  0  0  0  0  0  0  0  0  0
   56.9446   24.2982   46.9202 H   0  0  0  0  0  0  0  0  0  0  0  0
   55.4337   23.3247   47.0638 H   0  0  0  0  0  0  0  0  0  0  0  0
   54.9751   23.9191   43.8775 H   0  0  0  0  0  0  0  0  0  0  0  0
   55.7383   22.5899   41.9081 H   0  0  0  0  0  0  0  0  0  0  0  0
   57.6722   21.0253   42.1250 H   0  0  0  0  0  0  0  0  0  0  0  0
   58.8451   20.7847   44.3170 H   0  0  0  0  0  0  0  0  0  0  0  0
   58.0938   22.1162   46.2909 H   0  0  0  0  0  0  0  0  0  0  0  0
   58.2497   27.8381   46.6489 H   0  0  0  0  0  0  0  0  0  0  0  0
   60.0767   26.9486   45.4971 H   0  0  0  0  0  0  0  0  0  0  0  0
   59.2810   27.2278   43.8745 H   0  0  0  0  0  0  0  0  0  0  0  0
   61.2867   28.7855   44.9512 H   0  0  0  0  0  0  0  0  0  0  0  0
   60.0909   29.2861   43.6738 H   0  0  0  0  0  0  0  0  0  0  0  0
   59.8492   29.7753   46.6757 H   0  0  0  0  0  0  0  0  0  0  0  0
   60.2248   30.9975   45.4101 H   0  0  0  0  0  0  0  0  0  0  0  0
   58.4437   33.9015   44.1058 H   0  0  0  0  0  0  0  0  0  0  0  0
   59.6016   35.8317   45.1790 H   0  0  0  0  0  0  0  0  0  0  0  0
   60.1432   35.7730   47.6126 H   0  0  0  0  0  0  0  0  0  0  0  0
   60.6211   33.8664   49.5749 H   0  0  0  0  0  0  0  0  0  0  0  0
   59.0223   34.6500   49.8746 H   0  0  0  0  0  0  0  0  0  0  0  0
   61.2142   31.8890   48.5860 H   0  0  0  0  0  0  0  0  0  0  0  0
   61.8138   30.9897   50.0372 H   0  0  0  0  0  0  0  0  0  0  0  0
   60.4742   29.9075   47.5317 H   0  0  0  0  0  0  0  0  0  0  0  0
   62.0737   29.4615   48.3131 H   0  0  0  0  0  0  0  0  0  0  0  0
   59.4884   28.2139   48.6139 H   0  0  0  0  0  0  0  0  0  0  0  0
   61.1284   27.7567   49.2882 H   0  0  0  0  0  0  0  0  0  0  0  0
   59.2218   28.0576   50.9773 H   0  0  0  0  0  0  0  0  0  0  0  0
   60.7667   28.9331   51.2859 H   0  0  0  0  0  0  0  0  0  0  0  0
   58.3073   31.8618   47.9241 H   0  0  0  0  0  0  0  0  0  0  0  0
   56.4621   29.2075   45.7402 H   0  0  0  0  0  0  0  0  0  0  0  0
   57.1504   29.0387   44.0761 H   0  0  0  0  0  0  0  0  0  0  0  0
  1  2  2  0
  2  3  1  0
  3  4  1  0
  4  5  1  0
  5  6  1  0
  6  7  2  0
  7  8  1  0
  8  9  2  0
  9 10  1  0
 10 11  2  0
  2 12  1  0
 12 13  1  0
 13 14  1  0
 14 15  1  0
 15 16  1  0
 16 17  1  0
 17 18  2  0
 17 19  1  0
 19 20  2  0
 20 21  1  0
 21 22  2  0
 22 23  1  0
 23 24  1  0
 24 25  1  0
 25 26  2  0
 26 27  1  0
 27 28  1  0
 28 29  2  0
 28 30  1  0
 30 31  2  0
 31 32  1  0
 32 33  1  0
 33 34  1  0
 34 35  1  0
 23 36  2  0
 16 37  1  0
 11  6  1  0
 37 12  1  0
 36 19  1  0
 31 25  1  0
 35 30  1  0
  3 38  1  0
  4 39  1  0
  4 40  1  0
  5 41  1  0
  5 42  1  0
  7 43  1  0
  8 44  1  0
  9 45  1  0
 10 46  1  0
 11 47  1  0
 12 48  1  1
 13 49  1  0
 13 50  1  0
 14 51  1  0
 14 52  1  0
 15 53  1  0
 15 54  1  0
 20 55  1  0
 21 56  1  0
 22 57  1  0
 24 58  1  0
 24 59  1  0
 32 60  1  0
 32 61  1  0
 33 62  1  0
 33 63  1  0
 34 64  1  0
 34 65  1  0
 35 66  1  0
 35 67  1  0
 36 68  1  0
 37 69  1  0
 37 70  1  0
M  CHG  1  27  -1
M  END
>  <UniqueID>  (28) 
24

>  <SMILES>  (28) 
O=C(NCCc1ccccc1)[C@H]1CCCN(C(=O)c2cccc(Cc3n[n-]c(=O)c4c3CCCC4)c2)C1

>  <Energy>  (28) 
84.34967273263536

>  <Genealogy>  (28) 
O=C(NCCc1ccccc1)C1CCCN(C(=O)c2cccc(Cc3n[n-]c(=O)c4c3CCCC4)c2)C1 (protonated)
O=C(NCCc1ccccc1)[C@H]1CCCN(C(=O)c2cccc(Cc3n[n-]c(=O)c4c3CCCC4)c2)C1 (chirality)
O=C(NCCc1ccccc1)[C@H]1CCCN(C(=O)c2cccc(Cc3n[n-]c(=O)c4c3CCCC4)c2)C1 (3D coordinates assigned)
O=C(NCCc1ccccc1)[C@H]1CCCN(C(=O)c2cccc(Cc3n[n-]c(=O)c4c3CCCC4)c2)C1 (nonaromatic ring conformer: 84.34967273263536 kcal/mol)

>  <smiles>  (28) 
O=C(NCCc1ccccc1)C1CCCN(C(=O)c2cccc(Cc3n[nH]c(=O)c4c3CCCC4)c2)C1

>  <score_type>  (28) 
oracle

>  <origin>  (28) 
adg

>  <m_score__min__energy>  (28) 
-14.77

>  <m_primary>  (28) 
energy

$$$$
29:0
     RDKit          3D

 37 39  0  0  0  0  0  0  0  0999 V2000
   55.1480   27.5260   45.4050 H   0  0  0  0  0  0  0  0  0  0  0  0
   54.9770   26.7140   45.9850 O   0  0  0  0  0  0  0  0  0  0  0  0
   56.0110   25.8600   46.3610 C   0  0  0  0  0  0  0  0  0  0  0  0
   55.8090   24.6570   46.9210 N   0  0  0  0  0  0  0  0  0  0  0  0
   57.0650   24.1910   47.0880 C   0  0  0  0  0  0  0  0  0  0  0  0
   57.3090   23.0630   47.5910 O   0  0  0  0  0  0  0  0  0  0  0  0
   58.0390   25.0240   46.6640 N   0  0  0  0  0  0  0  0  0  0  0  0
   57.3600   26.1000   46.2240 C   0  0  0  0  0  0  0  0  0  0  0  0
   57.9730   27.2470   45.5350 C   0  0  0  0  0  0  0  0  0  0  0  0
   58.1666   27.1420   44.4573 H   0  0  0  0  0  0  0  0  0  0  0  0
   58.3170   28.4140   46.1120 C   0  0  0  0  0  0  0  0  0  0  0  0
   58.5640   28.5320   47.4710 C   0  0  0  0  0  0  0  0  0  0  0  0
   58.5692   27.7167   48.2094 H   0  0  0  0  0  0  0  0  0  0  0  0
   58.8020   29.8680   47.7200 C   0  0  0  0  0  0  0  0  0  0  0  0
   59.1210   30.4520   49.0620 C   0  0  0  0  0  0  0  0  0  0  0  0
   58.7537   29.7795   49.8512 H   0  0  0  0  0  0  0  0  0  0  0  0
   60.2100   30.5721   49.1601 H   0  0  0  0  0  0  0  0  0  0  0  0
   58.6336   31.4332   49.1601 H   0  0  0  0  0  0  0  0  0  0  0  0
   58.7540   30.5730   46.5700 N   0  0  0  0  0  0  0  0  0  0  0  0
   59.0220   31.9800   46.4460 C   0  0  0  0  0  0  0  0  0  0  0  0
   57.9860   32.8430   46.0670 C   0  0  0  0  0  0  0  0  0  0  0  0
   56.9809   32.4396   45.8747 H   0  0  0  0  0  0  0  0  0  0  0  0
   58.2220   34.2120   45.9320 C   0  0  0  0  0  0  0  0  0  0  0  0
   57.4029   34.8840   45.6362 H   0  0  0  0  0  0  0  0  0  0  0  0
   59.4970   34.7300   46.1720 C   0  0  0  0  0  0  0  0  0  0  0  0
   59.7300   36.0920   46.0310 O   0  0  0  0  0  0  0  0  0  0  0  0
   60.5380   33.8770   46.5540 C   0  0  0  0  0  0  0  0  0  0  0  0
   61.5417   34.2880   46.7373 H   0  0  0  0  0  0  0  0  0  0  0  0
   60.3100   32.4990   46.7050 C   0  0  0  0  0  0  0  0  0  0  0  0
   61.4440   31.5910   47.0950 C   0  0  0  0  0  0  0  0  0  0  0  0
   61.5105   31.5377   48.1917 H   0  0  0  0  0  0  0  0  0  0  0  0
   61.2640   30.5845   46.6893 H   0  0  0  0  0  0  0  0  0  0  0  0
   62.3868   31.9867   46.6893 H   0  0  0  0  0  0  0  0  0  0  0  0
   58.4850   29.6980   45.5690 C   0  0  0  0  0  0  0  0  0  0  0  0
   58.5220   30.0390   44.2710 C   0  0  0  0  0  0  0  0  0  0  0  0
   58.6607   31.0914   43.9826 H   0  0  0  0  0  0  0  0  0  0  0  0
   58.4136   29.2660   43.4960 H   0  0  0  0  0  0  0  0  0  0  0  0
  1  2  1  0
  2  3  1  0
  3  4  1  0
  4  5  1  0
  5  6  2  0
  5  7  1  0
  7  8  1  0
  8  9  1  0
  9 10  1  0
  9 11  2  0
 11 12  1  0
 12 13  1  0
 12 14  2  0
 14 15  1  0
 15 16  1  0
 15 17  1  0
 15 18  1  0
 14 19  1  0
 19 20  1  0
 20 21  2  0
 21 22  1  0
 21 23  1  0
 23 24  1  0
 23 25  2  0
 25 26  1  0
 25 27  1  0
 27 28  1  0
 27 29  2  0
 29 30  1  0
 30 31  1  0
 30 32  1  0
 30 33  1  0
 19 34  1  0
 34 35  2  0
 35 36  1  0
 35 37  1  0
  8  3  2  0
 34 11  1  0
 29 20  1  0
M  CHG  3   4  -1   7  -1  26  -1
M  END
>  <UniqueID>  (29) 
25

>  <SMILES>  (29) 
C=c1/c(=C\c2[n-]c(=O)[n-]c2O)cc(C)n1-c1ccc([O-])cc1C

>  <Energy>  (29) 
113.18807770658482

>  <Genealogy>  (29) 
C=c1c(=Cc2[n-]c(=O)[n-]c2O)cc(C)n1-c1ccc([O-])cc1C (protonated)
C=c1/c(=C\c2[n-]c(=O)[n-]c2O)cc(C)n1-c1ccc([O-])cc1C (cis-trans isomerization)
C=c1/c(=C\c2[n-]c(=O)[n-]c2O)cc(C)n1-c1ccc([O-])cc1C (3D coordinates assigned)
C=c1/c(=C\c2[n-]c(=O)[n-]c2O)cc(C)n1-c1ccc([O-])cc1C (optimized conformer: 113.18807770658482 kcal/mol)

>  <smiles>  (29) 
C=c1c(=Cc2[nH]c(=O)[nH]c2O)cc(C)n1-c1ccc(O)cc1C

>  <score_type>  (29) 
oracle

>  <origin>  (29) 
adg

>  <m_score__min__energy>  (29) 
-12.9

>  <m_primary>  (29) 
energy

$$$$
30:0
     RDKit          3D

 28 30  0  0  0  0  0  0  0  0999 V2000
   55.4700   29.4250   45.0210 O   0  0  0  0  0  0  0  0  0  0  0  0
   56.6740   29.0790   45.1560 C   0  0  0  0  0  0  0  0  0  0  0  0
   57.0980   27.6880   44.7540 C   0  0  0  0  0  0  0  0  0  0  0  0
   56.8890   26.7040   45.8670 C   0  0  0  0  0  0  0  0  0  0  0  0
   57.8730   26.2150   46.6400 N   0  0  0  0  0  0  0  0  0  0  0  0
   57.2300   25.3430   47.4480 C   0  0  0  0  0  0  0  0  0  0  0  0
   57.8240   24.6760   48.3340 O   0  0  0  0  0  0  0  0  0  0  0  0
   55.9010   25.2420   47.2300 N   0  0  0  0  0  0  0  0  0  0  0  0
   55.7030   26.1070   46.2220 C   0  0  0  0  0  0  0  0  0  0  0  0
   54.4650   26.3400   45.6360 O   0  0  0  0  0  0  0  0  0  0  0  0
   57.5710   29.9710   45.8290 N   0  0  0  0  0  0  0  0  0  0  0  0
   57.8560   31.3100   45.4120 C   0  0  0  0  0  0  0  0  0  0  0  0
   57.8010   31.6490   44.0470 C   0  0  0  0  0  0  0  0  0  0  0  0
   58.1120   32.9550   43.6220 C   0  0  0  0  0  0  0  0  0  0  0  0
   58.5010   33.9310   44.5540 C   0  0  0  0  0  0  0  0  0  0  0  0
   58.5680   33.5620   45.8970 C   0  0  0  0  0  0  0  0  0  0  0  0
   58.2600   32.2930   46.3270 C   0  0  0  0  0  0  0  0  0  0  0  0
   58.5010   32.1640   47.8070 C   0  0  0  0  0  0  0  0  0  0  0  0
   58.9650   33.4940   48.2130 N   0  0  0  0  0  0  0  0  0  0  0  0
   58.9950   34.3110   47.0490 C   0  0  0  0  0  0  0  0  0  0  0  0
   59.3580   35.5160   47.0500 O   0  0  0  0  0  0  0  0  0  0  0  0
   56.5060   27.3722   43.8824 H   0  0  0  0  0  0  0  0  0  0  0  0
   58.1709   27.7115   44.5123 H   0  0  0  0  0  0  0  0  0  0  0  0
   57.5129   30.8881   43.3067 H   0  0  0  0  0  0  0  0  0  0  0  0
   58.0499   33.2122   42.5543 H   0  0  0  0  0  0  0  0  0  0  0  0
   58.7453   34.9548   44.2344 H   0  0  0  0  0  0  0  0  0  0  0  0
   57.5716   31.8980   48.3319 H   0  0  0  0  0  0  0  0  0  0  0  0
   59.2261   31.3729   48.0484 H   0  0  0  0  0  0  0  0  0  0  0  0
  1  2  2  0
  2  3  1  0
  3  4  1  0
  4  5  1  0
  5  6  1  0
  6  7  2  0
  6  8  1  0
  8  9  1  0
  9 10  1  0
  2 11  1  0
 11 12  1  0
 12 13  2  0
 13 14  1  0
 14 15  2  0
 15 16  1  0
 16 17  2  0
 17 18  1  0
 18 19  1  0
 19 20  1  0
 20 21  2  0
  9  4  2  0
 17 12  1  0
 20 16  1  0
  3 22  1  0
  3 23  1  0
 13 24  1  0
 14 25  1  0
 15 26  1  0
 18 27  1  0
 18 28  1  0
M  CHG  5   5  -1   8  -1  10  -1  11  -1  19  -1
M  END
>  <UniqueID>  (30) 
26

>  <SMILES>  (30) 
O=C(Cc1[n-]c(=O)[n-]c1[O-])[N-]c1cccc2c1C[N-]C2=O

>  <Energy>  (30) 
87.8262972480308

>  <Genealogy>  (30) 
O=C(Cc1[n-]c(=O)[n-]c1[O-])[N-]c1cccc2c1C[N-]C2=O (protonated)
O=C(Cc1[n-]c(=O)[n-]c1[O-])[N-]c1cccc2c1C[N-]C2=O (3D coordinates assigned)
O=C(Cc1[n-]c(=O)[n-]c1[O-])[N-]c1cccc2c1C[N-]C2=O (nonaromatic ring conformer: 87.8262972480308 kcal/mol)

>  <smiles>  (30) 
O=C(Cc1[nH]c(=O)[nH]c1O)Nc1cccc2c1CNC2=O

>  <score_type>  (30) 
oracle

>  <origin>  (30) 
adg

>  <m_score__min__energy>  (30) 
-17.030000000000001

>  <m_primary>  (30) 
energy

$$$$
31:0
     RDKit          3D

 37 40  0  0  0  0  0  0  0  0999 V2000
   60.2770   23.8260   45.5250 H   0  0  0  0  0  0  0  0  0  0  0  0
   60.1630   24.7140   45.9900 O   0  0  0  0  0  0  0  0  0  0  0  0
   59.0640   25.5700   45.8420 C   0  0  0  0  0  0  0  0  0  0  0  0
   57.7680   25.0010   45.8470 C   0  0  0  0  0  0  0  0  0  0  0  0
   56.6370   25.8310   45.7170 C   0  0  0  0  0  0  0  0  0  0  0  0
   56.7940   27.2150   45.5980 C   0  0  0  0  0  0  0  0  0  0  0  0
   55.9042   27.8515   45.4835 H   0  0  0  0  0  0  0  0  0  0  0  0
   58.0660   27.8070   45.6220 C   0  0  0  0  0  0  0  0  0  0  0  0
   58.2150   29.2160   45.5460 C   0  0  0  0  0  0  0  0  0  0  0  0
   57.0900   30.1120   45.5700 N   0  0  0  0  0  0  0  0  0  0  0  0
   57.0390   31.2470   44.9800 N   0  0  0  0  0  0  0  0  0  0  0  0
   57.7430   32.4320   45.3890 C   0  0  0  0  0  0  0  0  0  0  0  0
   58.1340   32.5610   46.7290 C   0  0  0  0  0  0  0  0  0  0  0  0
   57.8976   31.7625   47.4477 H   0  0  0  0  0  0  0  0  0  0  0  0
   58.8230   33.7000   47.1560 C   0  0  0  0  0  0  0  0  0  0  0  0
   59.1427   33.7877   48.2049 H   0  0  0  0  0  0  0  0  0  0  0  0
   59.1060   34.7270   46.2520 C   0  0  0  0  0  0  0  0  0  0  0  0
   59.6573   35.6179   46.5872 H   0  0  0  0  0  0  0  0  0  0  0  0
   58.6890   34.6230   44.9220 C   0  0  0  0  0  0  0  0  0  0  0  0
   58.9026   35.4368   44.2134 H   0  0  0  0  0  0  0  0  0  0  0  0
   58.0000   33.4840   44.4920 C   0  0  0  0  0  0  0  0  0  0  0  0
   57.6582   33.4111   43.4490 H   0  0  0  0  0  0  0  0  0  0  0  0
   59.4900   29.7740   45.4310 C   0  0  0  0  0  0  0  0  0  0  0  0
   59.6015   30.8623   45.3159 H   0  0  0  0  0  0  0  0  0  0  0  0
   60.6190   28.9640   45.4610 C   0  0  0  0  0  0  0  0  0  0  0  0
   61.6183   29.4149   45.3706 H   0  0  0  0  0  0  0  0  0  0  0  0
   60.4920   27.5830   45.6050 C   0  0  0  0  0  0  0  0  0  0  0  0
   61.3954   26.9568   45.6467 H   0  0  0  0  0  0  0  0  0  0  0  0
   59.2200   26.9770   45.6980 C   0  0  0  0  0  0  0  0  0  0  0  0
   55.2790   25.2290   45.7210 C   0  0  0  0  0  0  0  0  0  0  0  0
   54.2530   25.9520   45.6100 O   0  0  0  0  0  0  0  0  0  0  0  0
   55.1210   23.7750   45.8580 C   0  0  0  0  0  0  0  0  0  0  0  0
   54.1120   23.3368   45.8574 H   0  0  0  0  0  0  0  0  0  0  0  0
   56.1830   22.9790   45.9830 C   0  0  0  0  0  0  0  0  0  0  0  0
   56.0367   21.8936   46.0855 H   0  0  0  0  0  0  0  0  0  0  0  0
   57.5500   23.5300   45.9860 C   0  0  0  0  0  0  0  0  0  0  0  0
   58.5190   22.7320   46.1060 O   0  0  0  0  0  0  0  0  0  0  0  0
  1  2  1  0
  2  3  1  0
  3  4  2  0
  4  5  1  0
  5  6  2  0
  6  7  1  0
  6  8  1  0
  8  9  2  0
  9 10  1  0
 10 11  2  0
 11 12  1  0
 12 13  2  0
 13 14  1  0
 13 15  1  0
 15 16  1  0
 15 17  2  0
 17 18  1  0
 17 19  1  0
 19 20  1  0
 19 21  2  0
 21 22  1  0
  9 23  1  0
 23 24  1  0
 23 25  2  0
 25 26  1  0
 25 27  1  0
 27 28  1  0
 27 29  2  0
  5 30  1  0
 30 31  2  0
 30 32  1  0
 32 33  1  0
 32 34  2  0
 34 35  1  0
 34 36  1  0
 36 37  2  0
 29  3  1  0
 36  4  1  0
 29  8  1  0
 21 12  1  0
M  END
>  <UniqueID>  (31) 
27

>  <SMILES>  (31) 
O=C1C=CC(=O)c2c1cc1c(/N=N\c3ccccc3)cccc1c2O

>  <Energy>  (31) 
66.51895789580924

>  <Genealogy>  (31) 
O=C1C=CC(=O)c2c1cc1c(/N=N\c3ccccc3)cccc1c2O (cis-trans isomerization)
O=C1C=CC(=O)c2c1cc1c(/N=N\c3ccccc3)cccc1c2O (3D coordinates assigned)
O=C1C=CC(=O)c2c1cc1c(/N=N\c3ccccc3)cccc1c2O (nonaromatic ring conformer: 66.51895789580924 kcal/mol)

>  <smiles>  (31) 
O=C1C=CC(=O)c2c1cc1c(N=Nc3ccccc3)cccc1c2O

>  <score_type>  (31) 
oracle

>  <origin>  (31) 
adg

>  <m_score__min__energy>  (31) 
-8.9600000000000009

>  <m_primary>  (31) 
energy

$$$$
32:0
     RDKit          3D

 53 56  0  0  0  0  0  0  0  0999 V2000
   55.1420   27.8460   45.0850 H   0  0  0  0  0  0  0  0  0  0  0  0
   55.7010   27.2230   45.6550 O   0  0  0  0  0  0  0  0  0  0  0  0
   57.0940   27.3090   45.7150 C   0  0  0  0  0  0  0  0  0  0  0  0
   57.7910   26.4200   46.5430 C   0  0  0  0  0  0  0  0  0  0  0  0
   57.1120   25.4990   47.2720 F   0  0  0  0  0  0  0  0  0  0  0  0
   59.1870   26.4740   46.6200 C   0  0  0  0  0  0  0  0  0  0  0  0
   59.8580   25.6080   47.4200 F   0  0  0  0  0  0  0  0  0  0  0  0
   59.8920   27.4070   45.8600 C   0  0  0  0  0  0  0  0  0  0  0  0
   60.9903   27.4396   45.9121 H   0  0  0  0  0  0  0  0  0  0  0  0
   59.2070   28.3000   45.0330 C   0  0  0  0  0  0  0  0  0  0  0  0
   59.7694   29.0271   44.4288 H   0  0  0  0  0  0  0  0  0  0  0  0
   57.7990   28.2750   44.9680 C   0  0  0  0  0  0  0  0  0  0  0  0
   57.0800   29.1650   44.1030 N   0  0  0  0  0  0  0  0  0  0  0  0
   55.9750   29.9900   44.4850 C   0  0  0  0  0  0  0  0  0  0  0  0
   54.9160   29.4410   44.8860 O   0  0  0  0  0  0  0  0  0  0  0  0
   56.1070   31.4170   44.5110 N   0  0  0  0  0  0  0  0  0  0  0  0
   57.2540   32.1520   44.9570 C   0  0  0  0  0  0  0  0  0  0  0  0
   57.8190   33.1060   44.1030 C   0  0  0  0  0  0  0  0  0  0  0  0
   57.3864   33.2699   43.1050 H   0  0  0  0  0  0  0  0  0  0  0  0
   58.9290   33.8520   44.5090 C   0  0  0  0  0  0  0  0  0  0  0  0
   59.3698   34.5939   43.8268 H   0  0  0  0  0  0  0  0  0  0  0  0
   59.4840   33.6580   45.7850 C   0  0  0  0  0  0  0  0  0  0  0  0
   60.5850   34.3990   46.2390 O   0  0  0  0  0  0  0  0  0  0  0  0
   61.5260   33.9660   47.1840 C   0  0  0  0  0  0  0  0  0  0  0  0
   62.7860   33.5570   46.7360 C   0  0  0  0  0  0  0  0  0  0  0  0
   63.0240   33.5710   45.6621 H   0  0  0  0  0  0  0  0  0  0  0  0
   63.7390   33.1310   47.6620 C   0  0  0  0  0  0  0  0  0  0  0  0
   64.7245   32.7856   47.3162 H   0  0  0  0  0  0  0  0  0  0  0  0
   63.4520   33.1420   48.9900 N   0  0  0  0  0  0  0  0  0  0  0  0
   62.2480   33.5630   49.4660 C   0  0  0  0  0  0  0  0  0  0  0  0
   61.9860   33.5650   50.7410 N   0  0  0  0  0  0  0  0  0  0  0  0
   61.7290   32.4340   51.5930 C   0  0  0  0  0  0  0  0  0  0  0  0
   61.3280   32.6500   52.7680 O   0  0  0  0  0  0  0  0  0  0  0  0
   62.0230   31.0130   51.1810 C   0  0  0  0  0  0  0  0  0  0  0  0
   63.0440   30.9603   50.7752 H   0  0  0  0  0  0  0  0  0  0  0  0
   61.9249   30.3651   52.0645 H   0  0  0  0  0  0  0  0  0  0  0  0
   61.0510   30.5420   50.1310 C   0  0  0  0  0  0  0  0  0  0  0  0
   61.4490   30.4690   48.7840 C   0  0  0  0  0  0  0  0  0  0  0  0
   62.4744   30.7485   48.5004 H   0  0  0  0  0  0  0  0  0  0  0  0
   60.5480   30.0430   47.8040 C   0  0  0  0  0  0  0  0  0  0  0  0
   60.8659   29.9870   46.7524 H   0  0  0  0  0  0  0  0  0  0  0  0
   59.2430   29.6880   48.1590 C   0  0  0  0  0  0  0  0  0  0  0  0
   58.5334   29.3575   47.3862 H   0  0  0  0  0  0  0  0  0  0  0  0
   58.8400   29.7530   49.4960 C   0  0  0  0  0  0  0  0  0  0  0  0
   57.8124   29.4757   49.7738 H   0  0  0  0  0  0  0  0  0  0  0  0
   59.7410   30.1700   50.4810 C   0  0  0  0  0  0  0  0  0  0  0  0
   59.4236   30.2071   51.5336 H   0  0  0  0  0  0  0  0  0  0  0  0
   61.2570   33.9730   48.5650 C   0  0  0  0  0  0  0  0  0  0  0  0
   60.2737   34.2987   48.9351 H   0  0  0  0  0  0  0  0  0  0  0  0
   58.8910   32.7370   46.6570 C   0  0  0  0  0  0  0  0  0  0  0  0
   59.2982   32.6020   47.6699 H   0  0  0  0  0  0  0  0  0  0  0  0
   57.7840   31.9880   46.2470 C   0  0  0  0  0  0  0  0  0  0  0  0
   57.3256   31.2661   46.9389 H   0  0  0  0  0  0  0  0  0  0  0  0
  1  2  1  0
  2  3  1  0
  3  4  2  0
  4  5  1  0
  4  6  1  0
  6  7  1  0
  6  8  2  0
  8  9  1  0
  8 10  1  0
 10 11  1  0
 10 12  2  0
 12 13  1  0
 13 14  1  0
 14 15  2  0
 14 16  1  0
 16 17  1  0
 17 18  2  0
 18 19  1  0
 18 20  1  0
 20 21  1  0
 20 22  2  0
 22 23  1  0
 23 24  1  0
 24 25  1  0
 25 26  1  0
 25 27  2  0
 27 28  1  0
 27 29  1  0
 29 30  1  0
 30 31  2  0
 31 32  1  0
 32 33  2  0
 32 34  1  0
 34 35  1  0
 34 36  1  0
 34 37  1  0
 37 38  2  0
 38 39  1  0
 38 40  1  0
 40 41  1  0
 40 42  2  0
 42 43  1  0
 42 44  1  0
 44 45  1  0
 44 46  2  0
 46 47  1  0
 30 48  1  0
 48 49  1  0
 22 50  1  0
 50 51  1  0
 50 52  2  0
 52 53  1  0
 12  3  1  0
 52 17  1  0
 48 24  2  0
 46 37  1  0
M  CHG  3  13  -1  16  -1  29  -1
M  END
>  <UniqueID>  (32) 
28

>  <SMILES>  (32) 
O=C(Cc1ccccc1)/N=c1/cc(Oc2ccc([N-]C(=O)[N-]c3ccc(F)c(F)c3O)cc2)cc[n-]1

>  <Energy>  (32) 
76.69084938326655

>  <Genealogy>  (32) 
O=C(Cc1ccccc1)N=c1cc(Oc2ccc([N-]C(=O)[N-]c3ccc(F)c(F)c3O)cc2)cc[n-]1 (protonated)
O=C(Cc1ccccc1)/N=c1/cc(Oc2ccc([N-]C(=O)[N-]c3ccc(F)c(F)c3O)cc2)cc[n-]1 (cis-trans isomerization)
O=C(Cc1ccccc1)/N=c1/cc(Oc2ccc([N-]C(=O)[N-]c3ccc(F)c(F)c3O)cc2)cc[n-]1 (3D coordinates assigned)
O=C(Cc1ccccc1)/N=c1/cc(Oc2ccc([N-]C(=O)[N-]c3ccc(F)c(F)c3O)cc2)cc[n-]1 (optimized conformer: 76.69084938326655 kcal/mol)

>  <smiles>  (32) 
O=C(Cc1ccccc1)N=c1cc(Oc2ccc(NC(=O)Nc3ccc(F)c(F)c3O)cc2)cc[nH]1

>  <score_type>  (32) 
oracle

>  <origin>  (32) 
adg

>  <m_score__min__energy>  (32) 
-13.789999999999999

>  <m_primary>  (32) 
energy

$$$$
33:0
     RDKit          3D

 45 47  0  0  0  0  0  0  0  0999 V2000
   56.0384   31.0045   43.1638 H   0  0  0  0  0  0  0  0  0  0  0  0
   57.0970   30.9850   43.4620 C   0  0  0  0  0  0  0  0  0  0  0  0
   57.7790   32.1410   43.5010 C   0  0  0  0  0  0  0  0  0  0  0  0
   58.0629   32.6054   42.5451 H   0  0  0  0  0  0  0  0  0  0  0  0
   58.1740   32.8320   44.7570 C   0  0  0  0  0  0  0  0  0  0  0  0
   58.9570   33.9960   44.6630 C   0  0  0  0  0  0  0  0  0  0  0  0
   59.2700   34.3642   43.6749 H   0  0  0  0  0  0  0  0  0  0  0  0
   59.3420   34.6910   45.8170 C   0  0  0  0  0  0  0  0  0  0  0  0
   59.9626   35.5952   45.7315 H   0  0  0  0  0  0  0  0  0  0  0  0
   58.9400   34.2390   47.0750 C   0  0  0  0  0  0  0  0  0  0  0  0
   59.3040   34.9200   48.1900 F   0  0  0  0  0  0  0  0  0  0  0  0
   58.1470   33.0940   47.1810 C   0  0  0  0  0  0  0  0  0  0  0  0
   57.8285   32.7389   48.1722 H   0  0  0  0  0  0  0  0  0  0  0  0
   57.7560   32.3970   46.0340 C   0  0  0  0  0  0  0  0  0  0  0  0
   57.1193   31.5048   46.1266 H   0  0  0  0  0  0  0  0  0  0  0  0
   57.7160   29.6870   43.8050 C   0  0  0  0  0  0  0  0  0  0  0  0
   58.6000   29.5830   44.8390 N   0  0  0  0  0  0  0  0  0  0  0  0
   59.1740   28.3920   45.1600 C   0  0  0  0  0  0  0  0  0  0  0  0
   60.3400   28.3040   46.5220 S   0  0  0  0  0  0  0  0  0  0  0  0
   59.1310   27.5950   47.6970 C   0  0  0  0  0  0  0  0  0  0  0  0
   58.5688   28.4123   48.1724 H   0  0  0  0  0  0  0  0  0  0  0  0
   59.6766   27.0128   48.4542 H   0  0  0  0  0  0  0  0  0  0  0  0
   58.1680   26.6810   46.9900 C   0  0  0  0  0  0  0  0  0  0  0  0
   56.9850   27.0720   46.8040 O   0  0  0  0  0  0  0  0  0  0  0  0
   58.5440   25.3800   46.5150 N   0  0  0  0  0  0  0  0  0  0  0  0
   57.8700   24.1150   46.8070 C   0  0  0  0  0  0  0  0  0  0  0  0
   58.5527   23.4661   47.3752 H   0  0  0  0  0  0  0  0  0  0  0  0
   56.9639   24.3270   47.3935 H   0  0  0  0  0  0  0  0  0  0  0  0
   57.4660   23.4120   45.5320 C   0  0  0  0  0  0  0  0  0  0  0  0
   58.3430   22.4890   44.9390 C   0  0  0  0  0  0  0  0  0  0  0  0
   59.3221   22.2925   45.4002 H   0  0  0  0  0  0  0  0  0  0  0  0
   57.9810   21.8180   43.7670 C   0  0  0  0  0  0  0  0  0  0  0  0
   58.6689   21.0847   43.3207 H   0  0  0  0  0  0  0  0  0  0  0  0
   56.7500   22.0750   43.1610 C   0  0  0  0  0  0  0  0  0  0  0  0
   56.4714   21.5486   42.2362 H   0  0  0  0  0  0  0  0  0  0  0  0
   55.8730   23.0000   43.7290 C   0  0  0  0  0  0  0  0  0  0  0  0
   54.9048   23.2036   43.2483 H   0  0  0  0  0  0  0  0  0  0  0  0
   56.2210   23.6710   44.9100 C   0  0  0  0  0  0  0  0  0  0  0  0
   55.0760   24.8290   45.5780 Cl  0  0  0  0  0  0  0  0  0  0  0  0
   58.8610   27.2740   44.4540 N   0  0  0  0  0  0  0  0  0  0  0  0
   59.3080   26.3610   44.7000 H   0  0  0  0  0  0  0  0  0  0  0  0
   57.9790   27.3300   43.4190 C   0  0  0  0  0  0  0  0  0  0  0  0
   57.7373   26.4179   42.8536 H   0  0  0  0  0  0  0  0  0  0  0  0
   57.3810   28.5420   43.0740 C   0  0  0  0  0  0  0  0  0  0  0  0
   56.6608   28.5965   42.2443 H   0  0  0  0  0  0  0  0  0  0  0  0
  1  2  1  0
  2  3  2  0
  3  4  1  0
  3  5  1  0
  5  6  2  0
  6  7  1  0
  6  8  1  0
  8  9  1  0
  8 10  2  0
 10 11  1  0
 10 12  1  0
 12 13  1  0
 12 14  2  0
 14 15  1  0
  2 16  1  0
 16 17  2  0
 17 18  1  0
 18 19  1  0
 19 20  1  0
 20 21  1  0
 20 22  1  0
 20 23  1  0
 23 24  2  0
 23 25  1  0
 25 26  1  0
 26 27  1  0
 26 28  1  0
 26 29  1  0
 29 30  2  0
 30 31  1  0
 30 32  1  0
 32 33  1  0
 32 34  2  0
 34 35  1  0
 34 36  1  0
 36 37  1  0
 36 38  2  0
 38 39  1  0
 18 40  2  0
 40 41  1  0
 40 42  1  0
 42 43  1  0
 42 44  2  0
 44 45  1  0
 14  5  1  0
 44 16  1  0
 38 29  1  0
M  CHG  2  25  -1  40   1
M  END
>  <UniqueID>  (33) 
29

>  <SMILES>  (33) 
O=C(CSc1nc(/C=C/c2ccc(F)cc2)cc[nH+]1)[N-]Cc1ccccc1Cl

>  <Energy>  (33) 
44.70334470140475

>  <Genealogy>  (33) 
O=C(CSc1nc(C=Cc2ccc(F)cc2)cc[nH+]1)[N-]Cc1ccccc1Cl (protonated)
O=C(CSc1nc(/C=C/c2ccc(F)cc2)cc[nH+]1)[N-]Cc1ccccc1Cl (cis-trans isomerization)
O=C(CSc1nc(/C=C/c2ccc(F)cc2)cc[nH+]1)[N-]Cc1ccccc1Cl (3D coordinates assigned)
O=C(CSc1nc(/C=C/c2ccc(F)cc2)cc[nH+]1)[N-]Cc1ccccc1Cl (optimized conformer: 44.70334470140475 kcal/mol)

>  <smiles>  (33) 
O=C(CSc1nccc(C=Cc2ccc(F)cc2)n1)NCc1ccccc1Cl

>  <score_type>  (33) 
oracle

>  <origin>  (33) 
adg

>  <m_score__min__energy>  (33) 
-9.8800000000000008

>  <m_primary>  (33) 
energy

$$$$
34:0
     RDKit          3D

 49 51  0  0  0  0  0  0  0  0999 V2000
   54.3600   27.1500   46.3700 H   0  0  0  0  0  0  0  0  0  0  0  0
   55.1220   26.6970   45.8780 O   0  0  0  0  0  0  0  0  0  0  0  0
   55.1230   25.3280   45.6150 C   0  0  0  0  0  0  0  0  0  0  0  0
   54.0690   24.5320   45.8570 N   0  0  0  0  0  0  0  0  0  0  0  0
   54.5080   23.3200   45.4610 C   0  0  0  0  0  0  0  0  0  0  0  0
   53.7980   22.2820   45.5320 O   0  0  0  0  0  0  0  0  0  0  0  0
   55.7710   23.3050   44.9890 N   0  0  0  0  0  0  0  0  0  0  0  0
   56.1600   24.5920   45.0750 C   0  0  0  0  0  0  0  0  0  0  0  0
   57.5090   25.1000   44.7380 C   0  0  0  0  0  0  0  0  0  0  0  0
   57.9327   24.8126   43.7644 H   0  0  0  0  0  0  0  0  0  0  0  0
   58.2580   25.8900   45.5370 C   0  0  0  0  0  0  0  0  0  0  0  0
   59.3020   25.4900   46.3670 C   0  0  0  0  0  0  0  0  0  0  0  0
   59.6674   24.4628   46.5133 H   0  0  0  0  0  0  0  0  0  0  0  0
   59.7900   26.6320   46.9710 C   0  0  0  0  0  0  0  0  0  0  0  0
   60.9430   26.6600   47.9300 C   0  0  0  0  0  0  0  0  0  0  0  0
   60.5620   26.6507   48.9619 H   0  0  0  0  0  0  0  0  0  0  0  0
   61.5781   25.7770   47.7657 H   0  0  0  0  0  0  0  0  0  0  0  0
   61.5345   27.5728   47.7657 H   0  0  0  0  0  0  0  0  0  0  0  0
   59.1120   27.7200   46.5420 N   0  0  0  0  0  0  0  0  0  0  0  0
   59.3550   29.0770   46.9550 C   0  0  0  0  0  0  0  0  0  0  0  0
   59.2640   29.4300   48.3080 C   0  0  0  0  0  0  0  0  0  0  0  0
   58.9986   28.6682   49.0558 H   0  0  0  0  0  0  0  0  0  0  0  0
   59.5090   30.7460   48.7120 C   0  0  0  0  0  0  0  0  0  0  0  0
   59.4377   31.0150   49.7762 H   0  0  0  0  0  0  0  0  0  0  0  0
   59.8460   31.7260   47.7630 C   0  0  0  0  0  0  0  0  0  0  0  0
   60.1110   33.0560   48.1230 O   0  0  0  0  0  0  0  0  0  0  0  0
   61.2880   33.5100   48.7340 C   0  0  0  0  0  0  0  0  0  0  0  0
   61.2320   34.2140   49.7800 O   0  0  0  0  0  0  0  0  0  0  0  0
   62.6200   33.2210   48.0690 C   0  0  0  0  0  0  0  0  0  0  0  0
   62.6650   33.7900   46.6350 C   0  0  0  0  0  0  0  0  0  0  0  0
   62.7517   34.8857   46.6779 H   0  0  0  0  0  0  0  0  0  0  0  0
   63.5331   33.3741   46.1026 H   0  0  0  0  0  0  0  0  0  0  0  0
   61.7424   33.5157   46.1026 H   0  0  0  0  0  0  0  0  0  0  0  0
   62.8300   31.6970   48.0150 C   0  0  0  0  0  0  0  0  0  0  0  0
   62.8850   31.2980   49.0386 H   0  0  0  0  0  0  0  0  0  0  0  0
   61.9878   31.2294   47.4839 H   0  0  0  0  0  0  0  0  0  0  0  0
   63.7673   31.4746   47.4839 H   0  0  0  0  0  0  0  0  0  0  0  0
   63.7460   33.8650   48.8980 C   0  0  0  0  0  0  0  0  0  0  0  0
   63.5294   33.7411   49.9693 H   0  0  0  0  0  0  0  0  0  0  0  0
   64.7025   33.3774   48.6585 H   0  0  0  0  0  0  0  0  0  0  0  0
   63.8107   34.9367   48.6585 H   0  0  0  0  0  0  0  0  0  0  0  0
   59.9630   31.3630   46.4170 C   0  0  0  0  0  0  0  0  0  0  0  0
   60.2531   32.1180   45.6714 H   0  0  0  0  0  0  0  0  0  0  0  0
   59.7140   30.0480   46.0120 C   0  0  0  0  0  0  0  0  0  0  0  0
   59.8004   29.7755   44.9498 H   0  0  0  0  0  0  0  0  0  0  0  0
   58.1720   27.2830   45.6650 C   0  0  0  0  0  0  0  0  0  0  0  0
   57.3230   28.0940   45.0130 C   0  0  0  0  0  0  0  0  0  0  0  0
   57.3480   29.1783   45.1963 H   0  0  0  0  0  0  0  0  0  0  0  0
   56.6026   27.6739   44.2957 H   0  0  0  0  0  0  0  0  0  0  0  0
  1  2  1  0
  2  3  1  0
  3  4  1  0
  4  5  1  0
  5  6  2  0
  5  7  1  0
  7  8  1  0
  8  9  1  0
  9 10  1  0
  9 11  2  0
 11 12  1  0
 12 13  1  0
 12 14  2  0
 14 15  1  0
 15 16  1  0
 15 17  1  0
 15 18  1  0
 14 19  1  0
 19 20  1  0
 20 21  2  0
 21 22  1  0
 21 23  1  0
 23 24  1  0
 23 25  2  0
 25 26  1  0
 26 27  1  0
 27 28  2  0
 27 29  1  0
 29 30  1  0
 30 31  1  0
 30 32  1  0
 30 33  1  0
 29 34  1  0
 34 35  1  0
 34 36  1  0
 34 37  1  0
 29 38  1  0
 38 39  1  0
 38 40  1  0
 38 41  1  0
 25 42  1  0
 42 43  1  0
 42 44  2  0
 44 45  1  0
 19 46  1  0
 46 47  2  0
 47 48  1  0
 47 49  1  0
  8  3  2  0
 46 11  1  0
 44 20  1  0
M  CHG  2   4  -1   7  -1
M  END
>  <UniqueID>  (34) 
30

>  <SMILES>  (34) 
C=c1/c(=C/c2[n-]c(=O)[n-]c2O)cc(C)n1-c1ccc(OC(=O)C(C)(C)C)cc1

>  <Energy>  (34) 
118.98195446397945

>  <Genealogy>  (34) 
C=c1c(=Cc2[n-]c(=O)[n-]c2O)cc(C)n1-c1ccc(OC(=O)C(C)(C)C)cc1 (protonated)
C=c1/c(=C/c2[n-]c(=O)[n-]c2O)cc(C)n1-c1ccc(OC(=O)C(C)(C)C)cc1 (cis-trans isomerization)
C=c1/c(=C/c2[n-]c(=O)[n-]c2O)cc(C)n1-c1ccc(OC(=O)C(C)(C)C)cc1 (3D coordinates assigned)
C=c1/c(=C/c2[n-]c(=O)[n-]c2O)cc(C)n1-c1ccc(OC(=O)C(C)(C)C)cc1 (optimized conformer: 118.98195446397945 kcal/mol)

>  <smiles>  (34) 
C=c1c(=Cc2[nH]c(=O)[nH]c2O)cc(C)n1-c1ccc(OC(=O)C(C)(C)C)cc1

>  <score_type>  (34) 
oracle

>  <origin>  (34) 
adg

>  <m_score__min__energy>  (34) 
-12.73

>  <m_primary>  (34) 
energy

$$$$
35:0
     RDKit          3D

 32 34  0  0  1  0  0  0  0  0999 V2000
   62.0640   33.5290   50.6890 C   0  0  0  0  0  0  0  0  0  0  0  0
   62.5550   33.5310   49.4860 C   0  0  0  0  0  0  0  0  0  0  0  0
   63.8400   33.1750   49.2120 N   0  0  0  0  0  0  0  0  0  0  0  0
   64.0630   33.2710   47.9040 N   0  0  0  0  0  0  0  0  0  0  0  0
   62.9690   33.6810   47.2810 C   0  0  0  0  0  0  0  0  0  0  0  0
   62.8150   33.8840   46.0370 O   0  0  0  0  0  0  0  0  0  0  0  0
   58.1270   32.2600   45.7360 C   0  0  0  0  0  0  0  0  0  0  0  0
   60.7860   34.2450   48.0820 C   0  0  0  0  0  0  0  0  0  0  0  0
   59.8620   33.7570   47.0870 C   0  0  0  0  0  0  0  0  0  0  0  0
   59.3340   34.0720   46.1130 N   0  0  0  0  0  0  0  0  0  0  0  0
   58.4840   33.4670   45.3600 N   0  0  0  0  0  0  0  0  0  0  0  0
   62.0130   33.8470   48.2710 C   0  0  0  0  0  0  0  0  0  0  0  0
   57.3560   31.3590   45.3090 N   0  0  0  0  0  0  0  0  0  0  0  0
   57.7520   30.0130   45.0410 C   0  0  0  0  0  0  0  0  0  0  0  0
   59.1180   29.8300   44.8000 C   0  0  0  0  0  0  0  0  0  0  0  0
   59.6250   28.5660   44.5270 C   0  0  0  0  0  0  0  0  0  0  0  0
   58.7390   27.4980   44.5020 C   0  0  0  0  0  0  0  0  0  0  0  0
   57.3950   27.6990   44.7420 C   0  0  0  0  0  0  0  0  0  0  0  0
   56.8810   28.9570   45.0160 C   0  0  0  0  0  0  0  0  0  0  0  0
   55.5300   29.1790   45.2600 O   0  0  0  0  0  0  0  0  0  0  0  0
   59.1220   31.9950   47.3280 S   0  0  0  0  0  0  0  0  0  0  0  0
   61.0181   33.8257   50.8567 H   0  0  0  0  0  0  0  0  0  0  0  0
   62.6942   33.2306   51.5398 H   0  0  0  0  0  0  0  0  0  0  0  0
   64.5900   32.8650   49.8630 H   0  0  0  0  0  0  0  0  0  0  0  0
   64.9640   33.0590   47.4080 H   0  0  0  0  0  0  0  0  0  0  0  0
   60.4164   35.0358   48.7513 H   0  0  0  0  0  0  0  0  0  0  0  0
   58.0870   33.9180   44.4730 H   0  0  0  0  0  0  0  0  0  0  0  0
   59.7968   30.6952   44.8270 H   0  0  0  0  0  0  0  0  0  0  0  0
   60.6978   28.4158   44.3361 H   0  0  0  0  0  0  0  0  0  0  0  0
   59.1105   26.4847   44.2895 H   0  0  0  0  0  0  0  0  0  0  0  0
   56.7124   26.8368   44.7151 H   0  0  0  0  0  0  0  0  0  0  0  0
   55.3190   30.1210   45.6210 H   0  0  0  0  0  0  0  0  0  0  0  0
  1  2  2  0
  2  3  1  0
  3  4  1  0
  4  5  1  0
  5  6  2  0
  5  7  1  0
  7  8  2  0
  8  9  1  0
  9 10  2  0
 10 11  1  0
 11 12  1  0
 12 13  2  0
 13 14  1  0
 14 15  2  0
 15 16  1  0
 16 17  2  0
 17 18  1  0
 18 19  2  0
 19 20  1  0
 12 21  1  0
  7  2  1  0
 21  9  1  0
 19 14  1  0
  1 22  1  0
  1 23  1  0
  3 24  1  0
  4 25  1  0
  8 26  1  0
 11 27  1  0
 15 28  1  0
 16 29  1  0
 17 30  1  0
 18 31  1  0
 20 32  1  0
M  END
>  <smiles>  (35) 
C=c1[nH][nH]c(=O)c1=Cc1n[nH]c(=Nc2ccccc2O)s1

>  <score_type>  (35) 
oracle

>  <origin>  (35) 
adg

>  <m_score__min__energy>  (35) 
-8.6600000000000001

>  <m_primary>  (35) 
energy

$$$$
36:0
     RDKit          3D

 50 53  0  0  0  0  0  0  0  0999 V2000
   59.7590   31.0620   45.9720 C   0  0  0  0  0  0  0  0  0  0  0  0
   59.7630   30.0940   46.9010 C   0  0  0  0  0  0  0  0  0  0  0  0
   59.0670   28.8750   46.8560 C   0  0  0  0  0  0  0  0  0  0  0  0
   58.4400   28.2550   45.8380 C   0  0  0  0  0  0  0  0  0  0  0  0
   57.3560   27.2690   45.9790 C   0  0  0  0  0  0  0  0  0  0  0  0
   57.4700   26.0900   46.6170 N   0  0  0  0  0  0  0  0  0  0  0  0
   56.2080   25.6070   46.6080 C   0  0  0  0  0  0  0  0  0  0  0  0
   55.9060   24.4930   47.1080 O   0  0  0  0  0  0  0  0  0  0  0  0
   55.2960   26.4170   46.0290 N   0  0  0  0  0  0  0  0  0  0  0  0
   56.0370   27.4700   45.6510 C   0  0  0  0  0  0  0  0  0  0  0  0
   55.5190   28.5950   45.0220 O   0  0  0  0  0  0  0  0  0  0  0  0
   59.1500   28.3350   48.1300 C   0  0  0  0  0  0  0  0  0  0  0  0
   59.9490   29.1810   48.8720 C   0  0  0  0  0  0  0  0  0  0  0  0
   60.3110   28.9710   50.3100 C   0  0  0  0  0  0  0  0  0  0  0  0
   60.3250   30.2430   48.1260 N   0  0  0  0  0  0  0  0  0  0  0  0
   61.1280   31.3470   48.5840 C   0  0  0  0  0  0  0  0  0  0  0  0
   62.5060   31.1590   48.7780 C   0  0  0  0  0  0  0  0  0  0  0  0
   63.2990   32.1980   49.2690 C   0  0  0  0  0  0  0  0  0  0  0  0
   62.7240   33.4330   49.5720 C   0  0  0  0  0  0  0  0  0  0  0  0
   61.3570   33.6360   49.3790 C   0  0  0  0  0  0  0  0  0  0  0  0
   60.5440   32.6010   48.8820 C   0  0  0  0  0  0  0  0  0  0  0  0
   59.1030   32.8600   48.6480 C   0  0  0  0  0  0  0  0  0  0  0  0
   58.2620   32.4960   49.5130 O   0  0  0  0  0  0  0  0  0  0  0  0
   58.6490   33.4890   47.4340 N   0  0  0  0  0  0  0  0  0  0  0  0
   59.3200   34.7020   46.9460 C   0  0  0  0  0  0  0  0  0  0  0  0
   59.3020   34.7390   45.4160 C   0  0  0  0  0  0  0  0  0  0  0  0
   57.8780   34.5520   44.8840 C   0  0  0  0  0  0  0  0  0  0  0  0
   57.2720   33.2470   45.4070 C   0  0  0  0  0  0  0  0  0  0  0  0
   57.2970   33.2060   46.9380 C   0  0  0  0  0  0  0  0  0  0  0  0
   60.3511   31.9759   46.1275 H   0  0  0  0  0  0  0  0  0  0  0  0
   59.1637   30.9417   45.0549 H   0  0  0  0  0  0  0  0  0  0  0  0
   58.7645   28.5060   44.8174 H   0  0  0  0  0  0  0  0  0  0  0  0
   58.6709   27.4095   48.4821 H   0  0  0  0  0  0  0  0  0  0  0  0
   59.5383   29.4193   50.9519 H   0  0  0  0  0  0  0  0  0  0  0  0
   60.3796   27.8929   50.5172 H   0  0  0  0  0  0  0  0  0  0  0  0
   61.2810   29.4466   50.5172 H   0  0  0  0  0  0  0  0  0  0  0  0
   62.9636   30.1870   48.5416 H   0  0  0  0  0  0  0  0  0  0  0  0
   64.3779   32.0430   49.4171 H   0  0  0  0  0  0  0  0  0  0  0  0
   63.3499   34.2483   49.9639 H   0  0  0  0  0  0  0  0  0  0  0  0
   60.9115   34.6131   49.6174 H   0  0  0  0  0  0  0  0  0  0  0  0
   58.7979   35.5878   47.3367 H   0  0  0  0  0  0  0  0  0  0  0  0
   60.3642   34.6975   47.2919 H   0  0  0  0  0  0  0  0  0  0  0  0
   59.6901   35.7099   45.0742 H   0  0  0  0  0  0  0  0  0  0  0  0
   59.9306   33.9201   45.0362 H   0  0  0  0  0  0  0  0  0  0  0  0
   57.2555   35.3968   45.2137 H   0  0  0  0  0  0  0  0  0  0  0  0
   57.9136   34.5101   43.7854 H   0  0  0  0  0  0  0  0  0  0  0  0
   56.2304   33.1702   45.0619 H   0  0  0  0  0  0  0  0  0  0  0  0
   57.8675   32.4053   45.0237 H   0  0  0  0  0  0  0  0  0  0  0  0
   56.6006   33.9606   47.3325 H   0  0  0  0  0  0  0  0  0  0  0  0
   56.9959   32.2027   47.2736 H   0  0  0  0  0  0  0  0  0  0  0  0
  1  2  2  0
  2  3  1  0
  3  4  2  3
  4  5  1  0
  5  6  1  0
  6  7  1  0
  7  8  2  0
  7  9  1  0
  9 10  1  0
 10 11  1  0
  3 12  1  0
 12 13  2  0
 13 14  1  0
 13 15  1  0
 15 16  1  0
 16 17  2  0
 17 18  1  0
 18 19  2  0
 19 20  1  0
 20 21  2  0
 21 22  1  0
 22 23  2  0
 22 24  1  0
 24 25  1  0
 25 26  1  0
 26 27  1  0
 27 28  1  0
 28 29  1  0
 15  2  1  0
 21 16  1  0
 29 24  1  0
 10  5  2  0
  1 30  1  0
  1 31  1  0
  4 32  1  0
 12 33  1  0
 14 34  1  0
 14 35  1  0
 14 36  1  0
 17 37  1  0
 18 38  1  0
 19 39  1  0
 20 40  1  0
 25 41  1  0
 25 42  1  0
 26 43  1  0
 26 44  1  0
 27 45  1  0
 27 46  1  0
 28 47  1  0
 28 48  1  0
 29 49  1  0
 29 50  1  0
M  CHG  3   6  -1   9  -1  11  -1
M  END
>  <UniqueID>  (36) 
31

>  <SMILES>  (36) 
C=c1c(=Cc2[n-]c(=O)[n-]c2[O-])cc(C)n1-c1ccccc1C(=O)N1CCCCC1

>  <Energy>  (36) 
127.16395989980943

>  <Genealogy>  (36) 
C=c1c(=Cc2[n-]c(=O)[n-]c2[O-])cc(C)n1-c1ccccc1C(=O)N1CCCCC1 (protonated)
C=c1c(=Cc2[n-]c(=O)[n-]c2[O-])cc(C)n1-c1ccccc1C(=O)N1CCCCC1 (3D coordinates assigned)
C=c1c(=Cc2[n-]c(=O)[n-]c2[O-])cc(C)n1-c1ccccc1C(=O)N1CCCCC1 (nonaromatic ring conformer: 127.16395989980943 kcal/mol)

>  <smiles>  (36) 
C=c1c(=Cc2[nH]c(=O)[nH]c2O)cc(C)n1-c1ccccc1C(=O)N1CCCCC1

>  <score_type>  (36) 
oracle

>  <origin>  (36) 
adg

>  <m_score__min__energy>  (36) 
-16.27

>  <m_primary>  (36) 
energy

$$$$
37:0
     RDKit          3D

 47 49  0  0  0  0  0  0  0  0999 V2000
   61.7000   33.5130   51.3360 C   0  0  0  0  0  0  0  0  0  0  0  0
   62.2570   33.3500   49.9460 C   0  0  0  0  0  0  0  0  0  0  0  0
   63.5400   32.7900   49.8090 C   0  0  0  0  0  0  0  0  0  0  0  0
   64.1630   32.7350   48.5620 C   0  0  0  0  0  0  0  0  0  0  0  0
   63.5270   33.2640   47.4400 C   0  0  0  0  0  0  0  0  0  0  0  0
   62.2600   33.8350   47.5600 C   0  0  0  0  0  0  0  0  0  0  0  0
   61.6010   33.8610   48.8000 C   0  0  0  0  0  0  0  0  0  0  0  0
   59.9520   34.5940   48.8970 S   0  0  0  0  0  0  0  0  0  0  0  0
   59.2920   33.7190   47.4540 C   0  0  0  0  0  0  0  0  0  0  0  0
   58.7090   32.4430   47.5620 C   0  0  0  0  0  0  0  0  0  0  0  0
   58.5870   31.7240   48.8700 C   0  0  0  0  0  0  0  0  0  0  0  0
   58.2610   31.8210   46.4400 N   0  0  0  0  0  0  0  0  0  0  0  0
   58.3190   32.3850   45.2320 N   0  0  0  0  0  0  0  0  0  0  0  0
   57.8360   31.6120   44.0800 C   0  0  0  0  0  0  0  0  0  0  0  0
   57.0080   30.4320   44.5240 C   0  0  0  0  0  0  0  0  0  0  0  0
   55.7490   30.5200   44.4940 O   0  0  0  0  0  0  0  0  0  0  0  0
   57.6380   29.1560   44.9600 C   0  0  0  0  0  0  0  0  0  0  0  0
   59.0390   29.0550   45.0360 C   0  0  0  0  0  0  0  0  0  0  0  0
   59.6460   27.8650   45.4440 C   0  0  0  0  0  0  0  0  0  0  0  0
   58.8640   26.7580   45.7800 C   0  0  0  0  0  0  0  0  0  0  0  0
   57.4680   26.8370   45.7100 C   0  0  0  0  0  0  0  0  0  0  0  0
   56.4830   25.4480   46.1570 S   0  0  0  0  0  0  0  0  0  0  0  0
   54.8110   25.8490   45.9910 N   0  0  0  0  0  0  0  0  0  0  0  0
   56.7670   25.0570   47.5800 O   0  0  0  0  0  0  0  0  0  0  0  0
   56.8080   24.2840   45.2640 O   0  0  0  0  0  0  0  0  0  0  0  0
   56.8590   28.0350   45.3100 C   0  0  0  0  0  0  0  0  0  0  0  0
   58.8430   33.6380   45.0760 C   0  0  0  0  0  0  0  0  0  0  0  0
   58.8960   34.1720   43.9330 O   0  0  0  0  0  0  0  0  0  0  0  0
   59.3250   34.3320   46.1910 C   0  0  0  0  0  0  0  0  0  0  0  0
   59.9320   35.9790   45.9870 Cl  0  0  0  0  0  0  0  0  0  0  0  0
   62.4829   33.2839   52.0739 H   0  0  0  0  0  0  0  0  0  0  0  0
   61.3574   34.5491   51.4746 H   0  0  0  0  0  0  0  0  0  0  0  0
   60.8529   32.8251   51.4746 H   0  0  0  0  0  0  0  0  0  0  0  0
   64.0574   32.3914   50.6941 H   0  0  0  0  0  0  0  0  0  0  0  0
   65.1569   32.2739   48.4640 H   0  0  0  0  0  0  0  0  0  0  0  0
   64.0245   33.2311   46.4595 H   0  0  0  0  0  0  0  0  0  0  0  0
   61.7722   34.2692   46.6748 H   0  0  0  0  0  0  0  0  0  0  0  0
   58.7087   32.4410   49.6953 H   0  0  0  0  0  0  0  0  0  0  0  0
   57.5959   31.2517   48.9377 H   0  0  0  0  0  0  0  0  0  0  0  0
   59.3669   30.9512   48.9377 H   0  0  0  0  0  0  0  0  0  0  0  0
   57.2196   32.2638   43.4435 H   0  0  0  0  0  0  0  0  0  0  0  0
   58.7067   31.2367   43.5223 H   0  0  0  0  0  0  0  0  0  0  0  0
   59.6626   29.9217   44.7715 H   0  0  0  0  0  0  0  0  0  0  0  0
   60.7426   27.7997   45.5008 H   0  0  0  0  0  0  0  0  0  0  0  0
   59.3456   25.8223   46.1002 H   0  0  0  0  0  0  0  0  0  0  0  0
   54.7610   26.7120   45.4040 H   0  0  0  0  0  0  0  0  0  0  0  0
   55.7617   28.1005   45.2690 H   0  0  0  0  0  0  0  0  0  0  0  0
  1  2  1  0
  2  3  2  0
  3  4  1  0
  4  5  2  0
  5  6  1  0
  6  7  2  0
  7  8  1  0
  8  9  1  0
  9 10  1  0
 10 11  1  0
 10 12  2  0
 12 13  1  0
 13 14  1  0
 14 15  1  0
 15 16  2  0
 15 17  1  0
 17 18  2  0
 18 19  1  0
 19 20  2  0
 20 21  1  0
 21 22  1  0
 22 23  1  0
 22 24  2  0
 22 25  2  0
 21 26  2  0
 13 27  1  0
 27 28  2  0
 27 29  1  0
 29 30  1  0
  7  2  1  0
 29  9  2  0
 26 17  1  0
  1 31  1  0
  1 32  1  0
  1 33  1  0
  3 34  1  0
  4 35  1  0
  5 36  1  0
  6 37  1  0
 11 38  1  0
 11 39  1  0
 11 40  1  0
 14 41  1  0
 14 42  1  0
 18 43  1  0
 19 44  1  0
 20 45  1  0
 23 46  1  0
 26 47  1  0
M  CHG  1  23  -1
M  END
>  <UniqueID>  (37) 
32

>  <SMILES>  (37) 
Cc1ccccc1Sc1c(C)nn(CC(=O)c2cccc(S([NH-])(=O)=O)c2)c(=O)c1Cl

>  <Energy>  (37) 
53.36124614191637

>  <Genealogy>  (37) 
Cc1ccccc1Sc1c(C)nn(CC(=O)c2cccc(S([NH-])(=O)=O)c2)c(=O)c1Cl (protonated)
Cc1ccccc1Sc1c(C)nn(CC(=O)c2cccc(S([NH-])(=O)=O)c2)c(=O)c1Cl (3D coordinates assigned)
Cc1ccccc1Sc1c(C)nn(CC(=O)c2cccc(S([NH-])(=O)=O)c2)c(=O)c1Cl (optimized conformer: 53.36124614191637 kcal/mol)

>  <smiles>  (37) 
Cc1ccccc1Sc1c(C)nn(CC(=O)c2cccc(S(N)(=O)=O)c2)c(=O)c1Cl

>  <score_type>  (37) 
oracle

>  <origin>  (37) 
adg

>  <m_score__min__energy>  (37) 
-13.359999999999999

>  <m_primary>  (37) 
energy

$$$$
38:0
     RDKit          3D

 40 42  0  0  0  0  0  0  0  0999 V2000
   58.9070   31.0870   50.2260 C   0  0  0  0  0  0  0  0  0  0  0  0
   58.7220   32.4220   49.5110 C   0  0  0  0  0  0  0  0  0  0  0  0
   58.1530   32.2280   48.2170 O   0  0  0  0  0  0  0  0  0  0  0  0
   58.3880   33.0290   47.0840 C   0  0  0  0  0  0  0  0  0  0  0  0
   57.3680   33.7970   46.4860 C   0  0  0  0  0  0  0  0  0  0  0  0
   57.6420   34.5910   45.3700 C   0  0  0  0  0  0  0  0  0  0  0  0
   58.9290   34.6270   44.8350 C   0  0  0  0  0  0  0  0  0  0  0  0
   59.9490   33.8720   45.4160 C   0  0  0  0  0  0  0  0  0  0  0  0
   59.6930   33.0800   46.5480 C   0  0  0  0  0  0  0  0  0  0  0  0
   60.7780   32.2680   47.1400 C   0  0  0  0  0  0  0  0  0  0  0  0
   61.8320   32.8100   47.7800 N   0  0  0  0  0  0  0  0  0  0  0  0
   62.5060   31.7410   48.2440 C   0  0  0  0  0  0  0  0  0  0  0  0
   63.5700   31.8450   48.9080 O   0  0  0  0  0  0  0  0  0  0  0  0
   61.9510   30.5510   47.9430 N   0  0  0  0  0  0  0  0  0  0  0  0
   60.8540   30.8830   47.2350 C   0  0  0  0  0  0  0  0  0  0  0  0
   59.9560   29.8770   46.6310 C   0  0  0  0  0  0  0  0  0  0  0  0
   60.1540   28.5050   46.8520 C   0  0  0  0  0  0  0  0  0  0  0  0
   59.2900   27.5690   46.2840 C   0  0  0  0  0  0  0  0  0  0  0  0
   58.2070   27.9790   45.5010 C   0  0  0  0  0  0  0  0  0  0  0  0
   57.3810   26.9940   44.9570 O   0  0  0  0  0  0  0  0  0  0  0  0
   57.9820   29.3580   45.2880 C   0  0  0  0  0  0  0  0  0  0  0  0
   56.6250   29.9340   44.3120 S   0  0  0  0  0  0  0  0  0  0  0  0
   55.2100   29.0190   44.6960 N   0  0  0  0  0  0  0  0  0  0  0  0
   56.9240   29.7680   42.8470 O   0  0  0  0  0  0  0  0  0  0  0  0
   56.3840   31.3910   44.5950 O   0  0  0  0  0  0  0  0  0  0  0  0
   58.8580   30.2940   45.8630 C   0  0  0  0  0  0  0  0  0  0  0  0
   58.8847   31.2476   51.3140 H   0  0  0  0  0  0  0  0  0  0  0  0
   58.0952   30.4022   49.9398 H   0  0  0  0  0  0  0  0  0  0  0  0
   59.8745   30.6487   49.9398 H   0  0  0  0  0  0  0  0  0  0  0  0
   58.0537   33.0609   50.1069 H   0  0  0  0  0  0  0  0  0  0  0  0
   59.7059   32.9002   49.3959 H   0  0  0  0  0  0  0  0  0  0  0  0
   56.3497   33.7707   46.9011 H   0  0  0  0  0  0  0  0  0  0  0  0
   56.8405   35.1893   44.9121 H   0  0  0  0  0  0  0  0  0  0  0  0
   59.1407   35.2510   43.9542 H   0  0  0  0  0  0  0  0  0  0  0  0
   60.9606   33.8972   44.9846 H   0  0  0  0  0  0  0  0  0  0  0  0
   60.9943   28.1666   47.4759 H   0  0  0  0  0  0  0  0  0  0  0  0
   59.4627   26.4960   46.4541 H   0  0  0  0  0  0  0  0  0  0  0  0
   56.4870   27.1910   44.5260 H   0  0  0  0  0  0  0  0  0  0  0  0
   55.5230   28.0450   44.9080 H   0  0  0  0  0  0  0  0  0  0  0  0
   58.6807   31.3686   45.7090 H   0  0  0  0  0  0  0  0  0  0  0  0
  1  2  1  0
  2  3  1  0
  3  4  1  0
  4  5  2  0
  5  6  1  0
  6  7  2  0
  7  8  1  0
  8  9  2  0
  9 10  1  0
 10 11  1  0
 11 12  1  0
 12 13  2  0
 12 14  1  0
 14 15  1  0
 15 16  1  0
 16 17  2  0
 17 18  1  0
 18 19  2  0
 19 20  1  0
 19 21  1  0
 21 22  1  0
 22 23  1  0
 22 24  2  0
 22 25  2  0
 21 26  2  0
  9  4  1  0
 15 10  2  0
 26 16  1  0
  1 27  1  0
  1 28  1  0
  1 29  1  0
  2 30  1  0
  2 31  1  0
  5 32  1  0
  6 33  1  0
  7 34  1  0
  8 35  1  0
 17 36  1  0
 18 37  1  0
 20 38  1  0
 23 39  1  0
 26 40  1  0
M  CHG  3  11  -1  14  -1  23  -1
M  END
>  <UniqueID>  (38) 
33

>  <SMILES>  (38) 
CCOc1ccccc1-c1[n-]c(=O)[n-]c1-c1ccc(O)c(S([NH-])(=O)=O)c1

>  <Energy>  (38) 
79.02806012464342

>  <Genealogy>  (38) 
CCOc1ccccc1-c1[n-]c(=O)[n-]c1-c1ccc(O)c(S([NH-])(=O)=O)c1 (protonated)
CCOc1ccccc1-c1[n-]c(=O)[n-]c1-c1ccc(O)c(S([NH-])(=O)=O)c1 (3D coordinates assigned)
CCOc1ccccc1-c1[n-]c(=O)[n-]c1-c1ccc(O)c(S([NH-])(=O)=O)c1 (optimized conformer: 79.02806012464342 kcal/mol)

>  <smiles>  (38) 
CCOc1ccccc1-c1[nH]c(=O)[nH]c1-c1ccc(O)c(S(N)(=O)=O)c1

>  <score_type>  (38) 
oracle

>  <origin>  (38) 
adg

>  <m_score__min__energy>  (38) 
-12.43

>  <m_primary>  (38) 
energy

$$$$
39:0
     RDKit          3D

 62 64  0  0  0  0  0  0  0  0999 V2000
   57.3440   28.3460   43.6860 C   0  0  0  0  0  0  0  0  0  0  0  0
   57.7420   27.8490   44.8670 C   0  0  0  0  0  0  0  0  0  0  0  0
   57.7310   26.5030   45.2460 C   0  0  0  0  0  0  0  0  0  0  0  0
   57.3200   25.4470   44.5170 C   0  0  0  0  0  0  0  0  0  0  0  0
   56.0960   24.6710   44.8220 C   0  0  0  0  0  0  0  0  0  0  0  0
   55.0900   25.2090   45.6510 C   0  0  0  0  0  0  0  0  0  0  0  0
   55.2120   26.4720   46.2380 O   0  0  0  0  0  0  0  0  0  0  0  0
   53.9660   24.4870   45.9010 N   0  0  0  0  0  0  0  0  0  0  0  0
   53.7830   23.2560   45.3570 C   0  0  0  0  0  0  0  0  0  0  0  0
   52.7320   22.6100   45.6080 O   0  0  0  0  0  0  0  0  0  0  0  0
   54.7290   22.7260   44.5390 N   0  0  0  0  0  0  0  0  0  0  0  0
   55.8720   23.4030   44.2540 C   0  0  0  0  0  0  0  0  0  0  0  0
   56.7130   22.8880   43.4680 O   0  0  0  0  0  0  0  0  0  0  0  0
   58.1740   26.4640   46.5630 C   0  0  0  0  0  0  0  0  0  0  0  0
   58.4500   27.7680   46.9240 C   0  0  0  0  0  0  0  0  0  0  0  0
   58.9420   28.1950   48.2730 C   0  0  0  0  0  0  0  0  0  0  0  0
   58.1820   28.6090   45.9000 N   0  0  0  0  0  0  0  0  0  0  0  0
   58.2760   30.0430   45.9460 C   0  0  0  0  0  0  0  0  0  0  0  0
   58.4120   30.7850   44.7640 C   0  0  0  0  0  0  0  0  0  0  0  0
   58.5270   32.1780   44.8160 C   0  0  0  0  0  0  0  0  0  0  0  0
   58.5050   32.8430   46.0540 C   0  0  0  0  0  0  0  0  0  0  0  0
   58.6840   34.3360   46.1300 C   0  0  0  0  0  0  0  0  0  0  0  0
   58.9040   34.7720   47.5220 N   0  0  0  0  0  0  0  0  0  0  0  0
   60.3170   34.6540   47.9350 C   0  0  0  0  0  0  0  0  0  0  0  0
   61.1630   34.0640   46.7950 C   0  0  0  0  0  0  0  0  0  0  0  0
   61.7270   32.7480   47.1840 N   0  0  0  0  0  0  0  0  0  0  0  0
   63.2050   32.7360   47.0660 C   0  0  0  0  0  0  0  0  0  0  0  0
   63.8550   33.8050   47.9480 C   0  0  0  0  0  0  0  0  0  0  0  0
   61.2210   32.2700   48.5000 C   0  0  0  0  0  0  0  0  0  0  0  0
   61.2390   30.7400   48.6910 C   0  0  0  0  0  0  0  0  0  0  0  0
   61.3020   30.1220   47.4360 O   0  0  0  0  0  0  0  0  0  0  0  0
   58.3620   32.0990   47.2330 C   0  0  0  0  0  0  0  0  0  0  0  0
   58.2510   30.7070   47.1810 C   0  0  0  0  0  0  0  0  0  0  0  0
   57.3981   29.4285   43.4985 H   0  0  0  0  0  0  0  0  0  0  0  0
   56.9636   27.6709   42.9053 H   0  0  0  0  0  0  0  0  0  0  0  0
   57.9255   25.1454   43.6496 H   0  0  0  0  0  0  0  0  0  0  0  0
   54.7830   26.7160   47.1200 H   0  0  0  0  0  0  0  0  0  0  0  0
   58.2833   25.5696   47.1940 H   0  0  0  0  0  0  0  0  0  0  0  0
   58.3571   27.6874   49.0542 H   0  0  0  0  0  0  0  0  0  0  0  0
   60.0038   27.9273   48.3777 H   0  0  0  0  0  0  0  0  0  0  0  0
   58.8264   29.2839   48.3777 H   0  0  0  0  0  0  0  0  0  0  0  0
   58.4283   30.2697   43.7923 H   0  0  0  0  0  0  0  0  0  0  0  0
   58.6350   32.7546   43.8855 H   0  0  0  0  0  0  0  0  0  0  0  0
   59.5529   34.6256   45.5208 H   0  0  0  0  0  0  0  0  0  0  0  0
   57.7704   34.8181   45.7520 H   0  0  0  0  0  0  0  0  0  0  0  0
   58.6500   35.7870   47.5640 H   0  0  0  0  0  0  0  0  0  0  0  0
   60.7031   35.6510   48.1939 H   0  0  0  0  0  0  0  0  0  0  0  0
   60.3786   33.9858   48.8066 H   0  0  0  0  0  0  0  0  0  0  0  0
   60.5295   33.9360   45.9049 H   0  0  0  0  0  0  0  0  0  0  0  0
   61.9927   34.7531   46.5787 H   0  0  0  0  0  0  0  0  0  0  0  0
   63.5784   31.7474   47.3713 H   0  0  0  0  0  0  0  0  0  0  0  0
   63.4659   32.9516   46.0194 H   0  0  0  0  0  0  0  0  0  0  0  0
   63.7002   33.5505   49.0069 H   0  0  0  0  0  0  0  0  0  0  0  0
   64.9333   33.8497   47.7355 H   0  0  0  0  0  0  0  0  0  0  0  0
   63.3985   34.7830   47.7355 H   0  0  0  0  0  0  0  0  0  0  0  0
   61.8434   32.7192   49.2880 H   0  0  0  0  0  0  0  0  0  0  0  0
   60.1647   32.5727   48.5504 H   0  0  0  0  0  0  0  0  0  0  0  0
   62.1180   30.4536   49.2871 H   0  0  0  0  0  0  0  0  0  0  0  0
   60.3261   30.4214   49.2154 H   0  0  0  0  0  0  0  0  0  0  0  0
   61.2970   30.8520   46.7580 H   0  0  0  0  0  0  0  0  0  0  0  0
   58.3370   32.6137   48.2048 H   0  0  0  0  0  0  0  0  0  0  0  0
   58.1437   30.1303   48.1116 H   0  0  0  0  0  0  0  0  0  0  0  0
  1  2  2  0
  2  3  1  0
  3  4  2  3
  4  5  1  0
  5  6  2  0
  6  7  1  0
  6  8  1  0
  8  9  1  0
  9 10  2  0
  9 11  1  0
 11 12  1  0
 12 13  2  0
  3 14  1  0
 14 15  2  0
 15 16  1  0
 15 17  1  0
 17 18  1  0
 18 19  2  0
 19 20  1  0
 20 21  2  0
 21 22  1  0
 22 23  1  0
 23 24  1  0
 24 25  1  0
 25 26  1  0
 26 27  1  0
 27 28  1  0
 26 29  1  0
 29 30  1  0
 30 31  1  0
 21 32  1  0
 32 33  2  0
 17  2  1  0
 33 18  1  0
 12  5  1  0
  1 34  1  0
  1 35  1  0
  4 36  1  0
  7 37  1  0
 14 38  1  0
 16 39  1  0
 16 40  1  0
 16 41  1  0
 19 42  1  0
 20 43  1  0
 22 44  1  0
 22 45  1  0
 23 46  1  0
 24 47  1  0
 24 48  1  0
 25 49  1  0
 25 50  1  0
 27 51  1  0
 27 52  1  0
 28 53  1  0
 28 54  1  0
 28 55  1  0
 29 56  1  0
 29 57  1  0
 30 58  1  0
 30 59  1  0
 31 60  1  0
 32 61  1  0
 33 62  1  0
M  CHG  2   8  -1  11  -1
M  END
>  <UniqueID>  (39) 
34

>  <SMILES>  (39) 
C=c1c(=Cc2c(O)[n-]c(=O)[n-]c2=O)cc(C)n1-c1ccc(CNCCN(CC)CCO)cc1

>  <Energy>  (39) 
108.96875827505473

>  <Genealogy>  (39) 
C=c1c(=Cc2c(O)[n-]c(=O)[n-]c2=O)cc(C)n1-c1ccc(CNCCN(CC)CCO)cc1 (protonated)
C=c1c(=Cc2c(O)[n-]c(=O)[n-]c2=O)cc(C)n1-c1ccc(CNCCN(CC)CCO)cc1 (3D coordinates assigned)
C=c1c(=Cc2c(O)[n-]c(=O)[n-]c2=O)cc(C)n1-c1ccc(CNCCN(CC)CCO)cc1 (optimized conformer: 108.96875827505473 kcal/mol)

>  <smiles>  (39) 
C=c1c(=Cc2c(O)[nH]c(=O)[nH]c2=O)cc(C)n1-c1ccc(CNCCN(CC)CCO)cc1

>  <score_type>  (39) 
oracle

>  <origin>  (39) 
adg

>  <m_score__min__energy>  (39) 
-12.35

>  <m_primary>  (39) 
energy

$$$$
40:0
     RDKit          3D

 74 78  0  0  0  0  0  0  0  0999 V2000
   56.1410   29.7050   44.8680 O   0  0  0  0  0  0  0  0  0  0  0  0
   57.3540   29.8760   45.1850 C   0  0  0  0  0  0  0  0  0  0  0  0
   58.1250   28.7600   45.6550 N   0  0  0  0  0  0  0  0  0  0  0  0
   57.7980   27.4080   45.3030 C   0  0  0  0  0  0  0  0  0  0  0  0
   57.2450   26.5350   46.2540 C   0  0  0  0  0  0  0  0  0  0  0  0
   56.9630   25.2130   45.9130 C   0  0  0  0  0  0  0  0  0  0  0  0
   57.2460   24.7380   44.6270 C   0  0  0  0  0  0  0  0  0  0  0  0
   56.9940   23.0350   44.2500 S   0  0  0  0  0  0  0  0  0  0  0  0
   56.1950   22.9360   42.9810 O   0  0  0  0  0  0  0  0  0  0  0  0
   58.3200   22.3500   44.0570 O   0  0  0  0  0  0  0  0  0  0  0  0
   56.1280   22.2770   45.5640 N   0  0  0  0  0  0  0  0  0  0  0  0
   57.0180   22.0720   46.7230 C   0  0  0  0  0  0  0  0  0  0  0  0
   56.4100   21.0970   47.7540 C   0  0  0  0  0  0  0  0  0  0  0  0
   54.9440   20.9530   47.5970 N   0  0  0  0  0  0  0  0  0  0  0  0
   54.1920   22.1790   47.9610 C   0  0  0  0  0  0  0  0  0  0  0  0
   53.2760   22.6240   46.8470 C   0  0  0  0  0  0  0  0  0  0  0  0
   52.0120   22.0320   46.6970 C   0  0  0  0  0  0  0  0  0  0  0  0
   51.1550   22.4470   45.6740 C   0  0  0  0  0  0  0  0  0  0  0  0
   51.5560   23.4560   44.7920 C   0  0  0  0  0  0  0  0  0  0  0  0
   52.8120   24.0530   44.9360 C   0  0  0  0  0  0  0  0  0  0  0  0
   53.6720   23.6400   45.9600 C   0  0  0  0  0  0  0  0  0  0  0  0
   54.5950   20.4690   46.2360 C   0  0  0  0  0  0  0  0  0  0  0  0
   55.5380   21.0030   45.1350 C   0  0  0  0  0  0  0  0  0  0  0  0
   57.7540   25.6180   43.6620 C   0  0  0  0  0  0  0  0  0  0  0  0
   58.0140   26.9520   43.9960 C   0  0  0  0  0  0  0  0  0  0  0  0
   57.9570   31.2220   45.0540 C   0  0  0  0  0  0  0  0  0  0  0  0
   57.9750   31.8860   43.8160 C   0  0  0  0  0  0  0  0  0  0  0  0
   58.4630   33.1930   43.7240 C   0  0  0  0  0  0  0  0  0  0  0  0
   58.9250   33.8510   44.8670 C   0  0  0  0  0  0  0  0  0  0  0  0
   58.9160   33.2010   46.1070 C   0  0  0  0  0  0  0  0  0  0  0  0
   59.4380   34.0510   47.5650 S   0  0  0  0  0  0  0  0  0  0  0  0
   58.8370   33.3840   48.7720 O   0  0  0  0  0  0  0  0  0  0  0  0
   58.9350   35.4680   47.5160 O   0  0  0  0  0  0  0  0  0  0  0  0
   61.1820   34.0440   47.7190 N   0  0  0  0  0  0  0  0  0  0  0  0
   61.6360   33.0620   48.7350 C   0  0  0  0  0  0  0  0  0  0  0  0
   62.1930   31.7720   48.1140 C   0  0  0  0  0  0  0  0  0  0  0  0
   63.3820   32.0700   47.1810 C   0  0  0  0  0  0  0  0  0  0  0  0
   63.2810   33.4540   46.5130 C   0  0  0  0  0  0  0  0  0  0  0  0
   61.8200   33.8990   46.3900 C   0  0  0  0  0  0  0  0  0  0  0  0
   58.4470   31.8850   46.1930 C   0  0  0  0  0  0  0  0  0  0  0  0
   58.8970   28.9280   46.3390 H   0  0  0  0  0  0  0  0  0  0  0  0
   57.0336   26.8956   47.2715 H   0  0  0  0  0  0  0  0  0  0  0  0
   56.5156   24.5394   46.6587 H   0  0  0  0  0  0  0  0  0  0  0  0
   57.9749   21.6619   46.3678 H   0  0  0  0  0  0  0  0  0  0  0  0
   57.1607   23.0440   47.2178 H   0  0  0  0  0  0  0  0  0  0  0  0
   56.8779   20.1098   47.6257 H   0  0  0  0  0  0  0  0  0  0  0  0
   56.6019   21.5060   48.7570 H   0  0  0  0  0  0  0  0  0  0  0  0
   53.5890   21.9741   48.8579 H   0  0  0  0  0  0  0  0  0  0  0  0
   54.9184   22.9833   48.1493 H   0  0  0  0  0  0  0  0  0  0  0  0
   51.6944   21.2374   47.3882 H   0  0  0  0  0  0  0  0  0  0  0  0
   50.1652   21.9802   45.5624 H   0  0  0  0  0  0  0  0  0  0  0  0
   50.8827   23.7799   43.9847 H   0  0  0  0  0  0  0  0  0  0  0  0
   53.1247   24.8484   44.2435 H   0  0  0  0  0  0  0  0  0  0  0  0
   54.6597   24.1114   46.0709 H   0  0  0  0  0  0  0  0  0  0  0  0
   54.6431   19.3701   46.2336 H   0  0  0  0  0  0  0  0  0  0  0  0
   53.5853   20.8411   46.0077 H   0  0  0  0  0  0  0  0  0  0  0  0
   56.3394   20.2716   44.9536 H   0  0  0  0  0  0  0  0  0  0  0  0
   54.9650   21.1603   44.2093 H   0  0  0  0  0  0  0  0  0  0  0  0
   57.9487   25.2597   42.6404 H   0  0  0  0  0  0  0  0  0  0  0  0
   58.3895   27.6454   43.2291 H   0  0  0  0  0  0  0  0  0  0  0  0
   57.6036   31.3754   42.9153 H   0  0  0  0  0  0  0  0  0  0  0  0
   58.4833   33.7042   42.7502 H   0  0  0  0  0  0  0  0  0  0  0  0
   59.2971   34.8834   44.7922 H   0  0  0  0  0  0  0  0  0  0  0  0
   62.4249   33.5270   49.3444 H   0  0  0  0  0  0  0  0  0  0  0  0
   60.7602   32.7851   49.3402 H   0  0  0  0  0  0  0  0  0  0  0  0
   62.5283   31.1020   48.9194 H   0  0  0  0  0  0  0  0  0  0  0  0
   61.3960   31.2987   47.5216 H   0  0  0  0  0  0  0  0  0  0  0  0
   64.3101   32.0305   47.7701 H   0  0  0  0  0  0  0  0  0  0  0  0
   63.3749   31.3141   46.3819 H   0  0  0  0  0  0  0  0  0  0  0  0
   63.8306   34.1878   47.1209 H   0  0  0  0  0  0  0  0  0  0  0  0
   63.7135   33.3884   45.5037 H   0  0  0  0  0  0  0  0  0  0  0  0
   61.7841   34.8671   45.8689 H   0  0  0  0  0  0  0  0  0  0  0  0
   61.2716   33.1298   45.8264 H   0  0  0  0  0  0  0  0  0  0  0  0
   58.4619   31.3641   47.1617 H   0  0  0  0  0  0  0  0  0  0  0  0
  1  2  2  0
  2  3  1  0
  3  4  1  0
  4  5  2  0
  5  6  1  0
  6  7  2  0
  7  8  1  0
  8  9  2  0
  8 10  2  0
  8 11  1  0
 11 12  1  0
 12 13  1  0
 13 14  1  0
 14 15  1  0
 15 16  1  0
 16 17  2  0
 17 18  1  0
 18 19  2  0
 19 20  1  0
 20 21  2  0
 14 22  1  0
 22 23  1  0
  7 24  1  0
 24 25  2  0
  2 26  1  0
 26 27  2  0
 27 28  1  0
 28 29  2  0
 29 30  1  0
 30 31  1  0
 31 32  2  0
 31 33  2  0
 31 34  1  0
 34 35  1  0
 35 36  1  0
 36 37  1  0
 37 38  1  0
 38 39  1  0
 30 40  2  0
 25  4  1  0
 40 26  1  0
 23 11  1  0
 39 34  1  0
 21 16  1  0
  3 41  1  0
  5 42  1  0
  6 43  1  0
 12 44  1  0
 12 45  1  0
 13 46  1  0
 13 47  1  0
 15 48  1  0
 15 49  1  0
 17 50  1  0
 18 51  1  0
 19 52  1  0
 20 53  1  0
 21 54  1  0
 22 55  1  0
 22 56  1  0
 23 57  1  0
 23 58  1  0
 24 59  1  0
 25 60  1  0
 27 61  1  0
 28 62  1  0
 29 63  1  0
 35 64  1  0
 35 65  1  0
 36 66  1  0
 36 67  1  0
 37 68  1  0
 37 69  1  0
 38 70  1  0
 38 71  1  0
 39 72  1  0
 39 73  1  0
 40 74  1  0
M  END
>  <UniqueID>  (40) 
35

>  <SMILES>  (40) 
O=C(Nc1ccc(S(=O)(=O)N2CCN(Cc3ccccc3)CC2)cc1)c1cccc(S(=O)(=O)N2CCCCC2)c1

>  <Energy>  (40) 
98.29009523291639

>  <Genealogy>  (40) 
O=C(Nc1ccc(S(=O)(=O)N2CCN(Cc3ccccc3)CC2)cc1)c1cccc(S(=O)(=O)N2CCCCC2)c1 (3D coordinates assigned)
O=C(Nc1ccc(S(=O)(=O)N2CCN(Cc3ccccc3)CC2)cc1)c1cccc(S(=O)(=O)N2CCCCC2)c1 (nonaromatic ring conformer: 98.29009523291639 kcal/mol)

>  <smiles>  (40) 
O=C(Nc1ccc(S(=O)(=O)N2CCN(Cc3ccccc3)CC2)cc1)c1cccc(S(=O)(=O)N2CCCCC2)c1

>  <score_type>  (40) 
oracle

>  <origin>  (40) 
adg

>  <m_score__min__energy>  (40) 
-11.23

>  <m_primary>  (40) 
energy

$$$$
41:0
     RDKit          3D

 55 58  0  0  1  0  0  0  0  0999 V2000
   63.3870   33.8420   46.4140 C   0  0  0  0  0  0  0  0  0  0  0  0
   63.1650   33.0820   47.6960 C   0  0  0  0  0  0  0  0  0  0  0  0
   62.6600   31.7380   47.4920 N   0  0  0  0  0  0  0  0  0  0  0  0
   61.4390   31.5070   47.1420 C   0  0  0  0  0  0  0  0  0  0  0  0
   61.1260   30.2540   46.8080 N   0  0  0  0  0  0  0  0  0  0  0  0
   59.8540   29.9930   46.4380 C   0  0  0  0  0  0  0  0  0  0  0  0
   59.5540   28.6500   46.0850 N   0  0  0  0  0  0  0  0  0  0  0  0
   60.0210   27.5870   46.9850 C   0  0  0  0  0  0  0  0  0  0  0  0
   58.7330   26.9860   47.5340 C   0  0  0  0  0  0  0  0  0  0  0  0
   58.0500   26.4220   46.3800 N   0  0  0  0  0  0  0  0  0  0  0  0
   57.5690   25.0880   46.4960 C   0  0  0  0  0  0  0  0  0  0  0  0
   57.7750   24.5010   47.5970 O   0  0  0  0  0  0  0  0  0  0  0  0
   56.8710   24.3950   45.4350 C   0  0  0  0  0  0  0  0  0  0  0  0
   57.6130   23.5750   44.6120 C   0  0  0  0  0  0  0  0  0  0  0  0
   57.0040   22.8880   43.5830 C   0  0  0  0  0  0  0  0  0  0  0  0
   55.6500   23.0460   43.4080 C   0  0  0  0  0  0  0  0  0  0  0  0
   54.9360   23.8520   44.2240 N   0  0  0  0  0  0  0  0  0  0  0  0
   55.5050   24.5370   45.2400 C   0  0  0  0  0  0  0  0  0  0  0  0
   54.8480   25.2810   45.9940 O   0  0  0  0  0  0  0  0  0  0  0  0
   57.8470   27.1370   45.1610 C   0  0  0  0  0  0  0  0  0  0  0  0
   58.8290   28.2470   44.9240 C   0  0  0  0  0  0  0  0  0  0  0  0
   58.9140   30.9540   46.4020 N   0  0  0  0  0  0  0  0  0  0  0  0
   59.2670   32.1960   46.7440 C   0  0  0  0  0  0  0  0  0  0  0  0
   58.4160   33.1620   46.7280 N   0  0  0  0  0  0  0  0  0  0  0  0
   57.8880   33.7140   45.5230 C   0  0  0  0  0  0  0  0  0  0  0  0
   57.5300   32.5950   44.6130 C   0  0  0  0  0  0  0  0  0  0  0  0
   57.9690   32.4150   43.3160 C   0  0  0  0  0  0  0  0  0  0  0  0
   57.3840   31.2440   42.8520 C   0  0  0  0  0  0  0  0  0  0  0  0
   56.6250   30.7810   43.8860 C   0  0  0  0  0  0  0  0  0  0  0  0
   56.7280   31.5880   44.9040 O   0  0  0  0  0  0  0  0  0  0  0  0
   60.5360   32.5080   47.1230 N   0  0  0  0  0  0  0  0  0  0  0  0
   63.6884   34.8739   46.6470 H   0  0  0  0  0  0  0  0  0  0  0  0
   64.1794   33.3516   45.8296 H   0  0  0  0  0  0  0  0  0  0  0  0
   62.4552   33.8553   45.8296 H   0  0  0  0  0  0  0  0  0  0  0  0
   64.1233   33.0162   48.2321 H   0  0  0  0  0  0  0  0  0  0  0  0
   62.4029   33.6303   48.2692 H   0  0  0  0  0  0  0  0  0  0  0  0
   60.6016   26.8330   46.4333 H   0  0  0  0  0  0  0  0  0  0  0  0
   60.6877   27.9608   47.7760 H   0  0  0  0  0  0  0  0  0  0  0  0
   58.9577   26.2005   48.2706 H   0  0  0  0  0  0  0  0  0  0  0  0
   58.1164   27.7378   48.0484 H   0  0  0  0  0  0  0  0  0  0  0  0
   58.6953   23.4682   44.7768 H   0  0  0  0  0  0  0  0  0  0  0  0
   57.5863   22.2312   42.9200 H   0  0  0  0  0  0  0  0  0  0  0  0
   55.1413   22.5096   42.5935 H   0  0  0  0  0  0  0  0  0  0  0  0
   53.9050   23.9590   44.0770 H   0  0  0  0  0  0  0  0  0  0  0  0
   57.9250   26.4243   44.3267 H   0  0  0  0  0  0  0  0  0  0  0  0
   56.8542   27.6053   45.2326 H   0  0  0  0  0  0  0  0  0  0  0  0
   59.5521   27.9108   44.1663 H   0  0  0  0  0  0  0  0  0  0  0  0
   58.2438   29.1203   44.6003 H   0  0  0  0  0  0  0  0  0  0  0  0
   57.9420   30.7650   46.1230 H   0  0  0  0  0  0  0  0  0  0  0  0
   56.9919   34.3106   45.7489 H   0  0  0  0  0  0  0  0  0  0  0  0
   58.6352   34.3653   45.0460 H   0  0  0  0  0  0  0  0  0  0  0  0
   58.6512   33.0729   42.7576 H   0  0  0  0  0  0  0  0  0  0  0  0
   57.5070   30.7863   41.8593 H   0  0  0  0  0  0  0  0  0  0  0  0
   56.0173   29.8644   43.8641 H   0  0  0  0  0  0  0  0  0  0  0  0
   60.8190   33.4760   47.3920 H   0  0  0  0  0  0  0  0  0  0  0  0
  1  2  1  0
  2  3  1  0
  3  4  2  0
  4  5  1  0
  5  6  2  0
  6  7  1  0
  7  8  1  0
  8  9  1  0
  9 10  1  0
 10 11  1  0
 11 12  2  0
 11 13  1  0
 13 14  2  0
 14 15  1  0
 15 16  2  0
 16 17  1  0
 17 18  1  0
 18 19  2  0
 10 20  1  0
 20 21  1  0
  6 22  1  0
 22 23  1  0
 23 24  2  0
 24 25  1  0
 25 26  1  0
 26 27  2  0
 27 28  1  0
 28 29  2  0
 29 30  1  0
 23 31  1  0
 31  4  1  0
 21  7  1  0
 30 26  1  0
 18 13  1  0
  1 32  1  0
  1 33  1  0
  1 34  1  0
  2 35  1  0
  2 36  1  0
  8 37  1  0
  8 38  1  0
  9 39  1  0
  9 40  1  0
 14 41  1  0
 15 42  1  0
 16 43  1  0
 17 44  1  0
 20 45  1  0
 20 46  1  0
 21 47  1  0
 21 48  1  0
 22 49  1  0
 25 50  1  0
 25 51  1  0
 27 52  1  0
 28 53  1  0
 29 54  1  0
 31 55  1  0
M  END
>  <smiles>  (41) 
CCN=c1nc(N2CCN(C(=O)c3ccc[nH]c3=O)CC2)[nH]c(=NCc2ccco2)[nH]1

>  <score_type>  (41) 
oracle

>  <origin>  (41) 
adg

>  <m_score__min__energy>  (41) 
-8.2599999999999998

>  <m_primary>  (41) 
energy

$$$$
42:0
     RDKit          3D

 56 59  0  0  0  0  0  0  0  0999 V2000
   54.4597   29.5856   44.0130 H   0  0  0  0  0  0  0  0  0  0  0  0
   55.4810   29.6970   44.4060 C   0  0  0  0  0  0  0  0  0  0  0  0
   56.0450   28.6930   45.1130 N   0  0  0  0  0  0  0  0  0  0  0  0
   57.2990   28.7850   45.6200 C   0  0  0  0  0  0  0  0  0  0  0  0
   57.8000   27.6970   46.3440 C   0  0  0  0  0  0  0  0  0  0  0  0
   57.1806   26.7978   46.4774 H   0  0  0  0  0  0  0  0  0  0  0  0
   59.0760   27.7450   46.8960 C   0  0  0  0  0  0  0  0  0  0  0  0
   59.6920   26.3780   47.8080 Cl  0  0  0  0  0  0  0  0  0  0  0  0
   59.8590   28.8810   46.7260 C   0  0  0  0  0  0  0  0  0  0  0  0
   60.8666   28.9190   47.1656 H   0  0  0  0  0  0  0  0  0  0  0  0
   59.3780   29.9750   46.0020 C   0  0  0  0  0  0  0  0  0  0  0  0
   60.0169   30.8616   45.8769 H   0  0  0  0  0  0  0  0  0  0  0  0
   58.0820   29.9650   45.4250 C   0  0  0  0  0  0  0  0  0  0  0  0
   57.4910   31.0390   44.6660 C   0  0  0  0  0  0  0  0  0  0  0  0
   58.0410   32.1890   44.3610 N   0  0  0  0  0  0  0  0  0  0  0  0
   57.5810   33.5750   44.3420 C   0  0  0  0  0  0  0  0  0  0  0  0
   56.4978   33.5980   44.5320 H   0  0  0  0  0  0  0  0  0  0  0  0
   57.8064   34.0075   43.3560 H   0  0  0  0  0  0  0  0  0  0  0  0
   58.2990   34.4040   45.4190 C   0  0  0  0  0  0  0  0  0  0  0  0
   57.5914   35.1366   45.8343 H   0  0  0  0  0  0  0  0  0  0  0  0
   59.1574   34.9049   44.9476 H   0  0  0  0  0  0  0  0  0  0  0  0
   58.8270   33.5280   46.5550 C   0  0  0  0  0  0  0  0  0  0  0  0
   58.3555   32.5359   46.4968 H   0  0  0  0  0  0  0  0  0  0  0  0
   58.5851   34.0058   47.5158 H   0  0  0  0  0  0  0  0  0  0  0  0
   60.2740   33.3790   46.4520 N   0  0  0  0  0  0  0  0  0  0  0  0
   61.0650   32.6220   47.3720 C   0  0  0  0  0  0  0  0  0  0  0  0
   60.4880   31.7990   48.1320 O   0  0  0  0  0  0  0  0  0  0  0  0
   62.4940   32.7680   47.4130 N   0  0  0  0  0  0  0  0  0  0  0  0
   62.9780   33.1450   46.5680 H   0  0  0  0  0  0  0  0  0  0  0  0
   63.3160   32.3340   48.5120 C   0  0  0  0  0  0  0  0  0  0  0  0
   62.9130   31.2900   49.3630 C   0  0  0  0  0  0  0  0  0  0  0  0
   61.9616   30.7698   49.1778 H   0  0  0  0  0  0  0  0  0  0  0  0
   63.7150   30.9090   50.4440 C   0  0  0  0  0  0  0  0  0  0  0  0
   63.3995   30.0792   51.0936 H   0  0  0  0  0  0  0  0  0  0  0  0
   64.9240   31.5820   50.7050 C   0  0  0  0  0  0  0  0  0  0  0  0
   65.7600   31.2480   51.7830 O   0  0  0  0  0  0  0  0  0  0  0  0
   67.0620   30.6720   51.6710 C   0  0  0  0  0  0  0  0  0  0  0  0
   67.6047   31.1653   50.8511 H   0  0  0  0  0  0  0  0  0  0  0  0
   67.5926   30.8150   52.6239 H   0  0  0  0  0  0  0  0  0  0  0  0
   66.9740   29.1950   51.3860 C   0  0  0  0  0  0  0  0  0  0  0  0
   67.8850   28.5900   50.5040 C   0  0  0  0  0  0  0  0  0  0  0  0
   68.6689   29.1955   50.0256 H   0  0  0  0  0  0  0  0  0  0  0  0
   67.7990   27.2210   50.2320 C   0  0  0  0  0  0  0  0  0  0  0  0
   68.5208   26.7504   49.5482 H   0  0  0  0  0  0  0  0  0  0  0  0
   66.7970   26.4500   50.8280 C   0  0  0  0  0  0  0  0  0  0  0  0
   66.7318   25.3729   50.6145 H   0  0  0  0  0  0  0  0  0  0  0  0
   65.8780   27.0470   51.6950 C   0  0  0  0  0  0  0  0  0  0  0  0
   65.0884   26.4397   52.1616 H   0  0  0  0  0  0  0  0  0  0  0  0
   65.9610   28.4150   51.9700 C   0  0  0  0  0  0  0  0  0  0  0  0
   65.2305   28.8830   52.6463 H   0  0  0  0  0  0  0  0  0  0  0  0
   65.3160   32.6280   49.8630 C   0  0  0  0  0  0  0  0  0  0  0  0
   66.2619   33.1560   50.0538 H   0  0  0  0  0  0  0  0  0  0  0  0
   64.5170   33.0080   48.7820 C   0  0  0  0  0  0  0  0  0  0  0  0
   64.8316   33.8420   48.1374 H   0  0  0  0  0  0  0  0  0  0  0  0
   56.1880   30.8680   44.1750 C   0  0  0  0  0  0  0  0  0  0  0  0
   55.7184   31.6771   43.5964 H   0  0  0  0  0  0  0  0  0  0  0  0
  1  2  1  0
  2  3  1  0
  3  4  1  0
  4  5  2  0
  5  6  1  0
  5  7  1  0
  7  8  1  0
  7  9  2  0
  9 10  1  0
  9 11  1  0
 11 12  1  0
 11 13  2  0
 13 14  1  0
 14 15  2  0
 15 16  1  0
 16 17  1  0
 16 18  1  0
 16 19  1  0
 19 20  1  0
 19 21  1  0
 19 22  1  0
 22 23  1  0
 22 24  1  0
 22 25  1  0
 25 26  1  0
 26 27  2  0
 26 28  1  0
 28 29  1  0
 28 30  1  0
 30 31  2  0
 31 32  1  0
 31 33  1  0
 33 34  1  0
 33 35  2  0
 35 36  1  0
 36 37  1  0
 37 38  1  0
 37 39  1  0
 37 40  1  0
 40 41  2  0
 41 42  1  0
 41 43  1  0
 43 44  1  0
 43 45  2  0
 45 46  1  0
 45 47  1  0
 47 48  1  0
 47 49  2  0
 49 50  1  0
 35 51  1  0
 51 52  1  0
 51 53  2  0
 53 54  1  0
 14 55  1  0
 55 56  1  0
 55  2  2  0
 13  4  1  0
 53 30  1  0
 49 40  1  0
M  CHG  2   3  -1  25  -1
M  END
>  <UniqueID>  (42) 
36

>  <SMILES>  (42) 
O=C([N-]CCC/N=c1/cc[n-]c2cc(Cl)ccc12)Nc1ccc(OCc2ccccc2)cc1

>  <Energy>  (42) 
78.76665726050405

>  <Genealogy>  (42) 
O=C([N-]CCCN=c1cc[n-]c2cc(Cl)ccc12)Nc1ccc(OCc2ccccc2)cc1 (protonated)
O=C([N-]CCC/N=c1/cc[n-]c2cc(Cl)ccc12)Nc1ccc(OCc2ccccc2)cc1 (cis-trans isomerization)
O=C([N-]CCC/N=c1/cc[n-]c2cc(Cl)ccc12)Nc1ccc(OCc2ccccc2)cc1 (3D coordinates assigned)
O=C([N-]CCC/N=c1/cc[n-]c2cc(Cl)ccc12)Nc1ccc(OCc2ccccc2)cc1 (optimized conformer: 78.76665726050405 kcal/mol)

>  <smiles>  (42) 
O=C(NCCCN=c1cc[nH]c2cc(Cl)ccc12)Nc1ccc(OCc2ccccc2)cc1

>  <score_type>  (42) 
oracle

>  <origin>  (42) 
adg

>  <m_score__min__energy>  (42) 
-11.59

>  <m_primary>  (42) 
energy

$$$$
43:0
     RDKit          3D

 65 68  0  0  0  0  0  0  0  0999 V2000
   59.7820   33.5160   52.7350 C   0  0  0  0  0  0  0  0  0  0  0  0
   61.1770   33.2330   52.7870 O   0  0  0  0  0  0  0  0  0  0  0  0
   61.9240   32.7070   51.7190 C   0  0  0  0  0  0  0  0  0  0  0  0
   62.4940   33.5370   50.7320 C   0  0  0  0  0  0  0  0  0  0  0  0
   63.2250   32.9840   49.6770 C   0  0  0  0  0  0  0  0  0  0  0  0
   63.3920   31.6020   49.5900 C   0  0  0  0  0  0  0  0  0  0  0  0
   62.8290   30.7680   50.5590 C   0  0  0  0  0  0  0  0  0  0  0  0
   62.0990   31.3110   51.6290 C   0  0  0  0  0  0  0  0  0  0  0  0
   61.3680   30.2340   52.8270 S   0  0  0  0  0  0  0  0  0  0  0  0
   61.0130   31.0070   54.0630 O   0  0  0  0  0  0  0  0  0  0  0  0
   62.3570   29.1680   53.2100 O   0  0  0  0  0  0  0  0  0  0  0  0
   59.9580   29.4660   52.1670 N   0  0  0  0  0  0  0  0  0  0  0  0
   59.8420   29.2010   50.7640 C   0  0  0  0  0  0  0  0  0  0  0  0
   60.5940   28.1480   50.1900 C   0  0  0  0  0  0  0  0  0  0  0  0
   61.5080   27.2850   51.0180 C   0  0  0  0  0  0  0  0  0  0  0  0
   60.4620   27.8640   48.8250 C   0  0  0  0  0  0  0  0  0  0  0  0
   59.6330   28.6390   48.0190 C   0  0  0  0  0  0  0  0  0  0  0  0
   58.9120   29.6990   48.5660 C   0  0  0  0  0  0  0  0  0  0  0  0
   59.0000   30.0020   49.9400 C   0  0  0  0  0  0  0  0  0  0  0  0
   58.1830   31.1310   50.4750 C   0  0  0  0  0  0  0  0  0  0  0  0
   57.1930   30.9050   51.2200 O   0  0  0  0  0  0  0  0  0  0  0  0
   58.4970   32.4800   50.0930 N   0  0  0  0  0  0  0  0  0  0  0  0
   58.9240   32.9600   48.8080 C   0  0  0  0  0  0  0  0  0  0  0  0
   60.1180   33.6890   48.7360 C   0  0  0  0  0  0  0  0  0  0  0  0
   60.5760   34.1830   47.5130 C   0  0  0  0  0  0  0  0  0  0  0  0
   59.8410   33.9540   46.3470 C   0  0  0  0  0  0  0  0  0  0  0  0
   58.6300   33.2490   46.4040 C   0  0  0  0  0  0  0  0  0  0  0  0
   57.6970   32.9650   44.9320 S   0  0  0  0  0  0  0  0  0  0  0  0
   56.6000   33.9860   44.8360 O   0  0  0  0  0  0  0  0  0  0  0  0
   58.5980   33.1400   43.7420 O   0  0  0  0  0  0  0  0  0  0  0  0
   57.0070   31.3580   44.9020 N   0  0  0  0  0  0  0  0  0  0  0  0
   57.8390   30.3870   45.6570 C   0  0  0  0  0  0  0  0  0  0  0  0
   58.6660   29.4640   44.7480 C   0  0  0  0  0  0  0  0  0  0  0  0
   57.7650   28.6820   43.7720 C   0  0  0  0  0  0  0  0  0  0  0  0
   56.4810   29.4480   43.4010 C   0  0  0  0  0  0  0  0  0  0  0  0
   56.6960   30.9600   43.5130 C   0  0  0  0  0  0  0  0  0  0  0  0
   58.1690   32.7630   47.6360 C   0  0  0  0  0  0  0  0  0  0  0  0
   59.3858   33.5964   53.7580 H   0  0  0  0  0  0  0  0  0  0  0  0
   59.6200   34.4653   52.2034 H   0  0  0  0  0  0  0  0  0  0  0  0
   59.2629   32.7049   52.2034 H   0  0  0  0  0  0  0  0  0  0  0  0
   62.3624   34.6274   50.7928 H   0  0  0  0  0  0  0  0  0  0  0  0
   63.6694   33.6398   48.9139 H   0  0  0  0  0  0  0  0  0  0  0  0
   63.9670   31.1688   48.7584 H   0  0  0  0  0  0  0  0  0  0  0  0
   62.9583   29.6782   50.4835 H   0  0  0  0  0  0  0  0  0  0  0  0
   59.2800   29.0180   52.8240 H   0  0  0  0  0  0  0  0  0  0  0  0
   61.3158   27.4664   52.0858 H   0  0  0  0  0  0  0  0  0  0  0  0
   61.3214   26.2259   50.7867 H   0  0  0  0  0  0  0  0  0  0  0  0
   62.5546   27.5320   50.7867 H   0  0  0  0  0  0  0  0  0  0  0  0
   61.0177   27.0220   48.3865 H   0  0  0  0  0  0  0  0  0  0  0  0
   59.5465   28.4139   46.9458 H   0  0  0  0  0  0  0  0  0  0  0  0
   58.2654   30.3075   47.9167 H   0  0  0  0  0  0  0  0  0  0  0  0
   60.6999   33.8739   49.6510 H   0  0  0  0  0  0  0  0  0  0  0  0
   61.5159   34.7527   47.4674 H   0  0  0  0  0  0  0  0  0  0  0  0
   60.2132   34.3277   45.3817 H   0  0  0  0  0  0  0  0  0  0  0  0
   58.5279   30.9473   46.3062 H   0  0  0  0  0  0  0  0  0  0  0  0
   57.1541   29.7491   46.2349 H   0  0  0  0  0  0  0  0  0  0  0  0
   59.3758   30.0736   44.1696 H   0  0  0  0  0  0  0  0  0  0  0  0
   59.1994   28.7406   45.3822 H   0  0  0  0  0  0  0  0  0  0  0  0
   58.3336   28.4826   42.8517 H   0  0  0  0  0  0  0  0  0  0  0  0
   57.4621   27.7514   44.2742 H   0  0  0  0  0  0  0  0  0  0  0  0
   56.1994   29.1997   42.3670 H   0  0  0  0  0  0  0  0  0  0  0  0
   55.6821   29.1537   44.0976 H   0  0  0  0  0  0  0  0  0  0  0  0
   57.5324   31.2520   42.8610 H   0  0  0  0  0  0  0  0  0  0  0  0
   55.7683   31.4657   43.2070 H   0  0  0  0  0  0  0  0  0  0  0  0
   57.2113   32.2243   47.6871 H   0  0  0  0  0  0  0  0  0  0  0  0
  1  2  1  0
  2  3  1  0
  3  4  2  0
  4  5  1  0
  5  6  2  0
  6  7  1  0
  7  8  2  0
  8  9  1  0
  9 10  2  0
  9 11  2  0
  9 12  1  0
 12 13  1  0
 13 14  2  0
 14 15  1  0
 14 16  1  0
 16 17  2  0
 17 18  1  0
 18 19  2  0
 19 20  1  0
 20 21  2  0
 20 22  1  0
 22 23  1  0
 23 24  2  0
 24 25  1  0
 25 26  2  0
 26 27  1  0
 27 28  1  0
 28 29  2  0
 28 30  2  0
 28 31  1  0
 31 32  1  0
 32 33  1  0
 33 34  1  0
 34 35  1  0
 35 36  1  0
 27 37  2  0
  8  3  1  0
 19 13  1  0
 37 23  1  0
 36 31  1  0
  1 38  1  0
  1 39  1  0
  1 40  1  0
  4 41  1  0
  5 42  1  0
  6 43  1  0
  7 44  1  0
 12 45  1  0
 15 46  1  0
 15 47  1  0
 15 48  1  0
 16 49  1  0
 17 50  1  0
 18 51  1  0
 24 52  1  0
 25 53  1  0
 26 54  1  0
 32 55  1  0
 32 56  1  0
 33 57  1  0
 33 58  1  0
 34 59  1  0
 34 60  1  0
 35 61  1  0
 35 62  1  0
 36 63  1  0
 36 64  1  0
 37 65  1  0
M  CHG  1  22  -1
M  END
>  <UniqueID>  (43) 
37

>  <SMILES>  (43) 
COc1ccccc1S(=O)(=O)Nc1c(C)cccc1C(=O)[N-]c1cccc(S(=O)(=O)N2CCCCC2)c1

>  <Energy>  (43) 
84.6706434734666

>  <Genealogy>  (43) 
COc1ccccc1S(=O)(=O)Nc1c(C)cccc1C(=O)[N-]c1cccc(S(=O)(=O)N2CCCCC2)c1 (protonated)
COc1ccccc1S(=O)(=O)Nc1c(C)cccc1C(=O)[N-]c1cccc(S(=O)(=O)N2CCCCC2)c1 (3D coordinates assigned)
COc1ccccc1S(=O)(=O)Nc1c(C)cccc1C(=O)[N-]c1cccc(S(=O)(=O)N2CCCCC2)c1 (nonaromatic ring conformer: 84.6706434734666 kcal/mol)

>  <smiles>  (43) 
COc1ccccc1S(=O)(=O)Nc1c(C)cccc1C(=O)Nc1cccc(S(=O)(=O)N2CCCCC2)c1

>  <score_type>  (43) 
oracle

>  <origin>  (43) 
adg

>  <m_score__min__energy>  (43) 
-11.970000000000001

>  <m_primary>  (43) 
energy

$$$$
44:0
     RDKit          3D

 43 45  0  0  0  0  0  0  0  0999 V2000
   51.4010   32.9850   49.7780 O   0  0  0  0  0  0  0  0  0  0  0  0
   51.3770   32.2510   50.8010 C   0  0  0  0  0  0  0  0  0  0  0  0
   50.8720   32.7500   51.9940 O   0  0  0  0  0  0  0  0  0  0  0  0
   51.8430   30.8340   50.7190 C   0  0  0  0  0  0  0  0  0  0  0  0
   53.0610   30.6460   51.5670 C   0  0  0  0  0  0  0  0  0  0  0  0
   53.0360   30.6760   52.9610 C   0  0  0  0  0  0  0  0  0  0  0  0
   54.6130   30.4740   53.5130 S   0  0  0  0  0  0  0  0  0  0  0  0
   55.2490   30.3610   51.9650 C   0  0  0  0  0  0  0  0  0  0  0  0
   56.5170   30.2220   51.7180 N   0  0  0  0  0  0  0  0  0  0  0  0
   57.5070   31.2600   51.7850 C   0  0  0  0  0  0  0  0  0  0  0  0
   57.7010   31.8400   52.8860 O   0  0  0  0  0  0  0  0  0  0  0  0
   58.3140   31.5990   50.6450 N   0  0  0  0  0  0  0  0  0  0  0  0
   58.9000   32.8970   50.4590 C   0  0  0  0  0  0  0  0  0  0  0  0
   58.6480   33.8270   51.2720 O   0  0  0  0  0  0  0  0  0  0  0  0
   59.7980   33.1490   49.3070 C   0  0  0  0  0  0  0  0  0  0  0  0
   61.1590   33.3880   49.5610 C   0  0  0  0  0  0  0  0  0  0  0  0
   62.0490   33.6280   48.5130 C   0  0  0  0  0  0  0  0  0  0  0  0
   61.5940   33.6240   47.1960 C   0  0  0  0  0  0  0  0  0  0  0  0
   60.2480   33.3800   46.9220 C   0  0  0  0  0  0  0  0  0  0  0  0
   59.3340   33.1390   47.9640 C   0  0  0  0  0  0  0  0  0  0  0  0
   57.8910   32.8490   47.6090 C   0  0  0  0  0  0  0  0  0  0  0  0
   57.5720   33.3570   46.2750 N   0  0  0  0  0  0  0  0  0  0  0  0
   57.4820   32.6340   45.1970 C   0  0  0  0  0  0  0  0  0  0  0  0
   58.1090   33.0680   44.0220 C   0  0  0  0  0  0  0  0  0  0  0  0
   58.0110   32.2930   42.8660 C   0  0  0  0  0  0  0  0  0  0  0  0
   57.2900   31.0970   42.8890 C   0  0  0  0  0  0  0  0  0  0  0  0
   56.6710   30.6970   44.0760 C   0  0  0  0  0  0  0  0  0  0  0  0
   56.7800   31.4660   45.1920 N   0  0  0  0  0  0  0  0  0  0  0  0
   54.2950   30.4860   51.0170 N   0  0  0  0  0  0  0  0  0  0  0  0
   51.0444   30.1667   51.0754 H   0  0  0  0  0  0  0  0  0  0  0  0
   52.0902   30.5951   49.6741 H   0  0  0  0  0  0  0  0  0  0  0  0
   52.1428   30.8084   53.5892 H   0  0  0  0  0  0  0  0  0  0  0  0
   58.4640   30.8760   49.9080 H   0  0  0  0  0  0  0  0  0  0  0  0
   61.5273   33.3860   50.5975 H   0  0  0  0  0  0  0  0  0  0  0  0
   63.1107   33.8205   48.7269 H   0  0  0  0  0  0  0  0  0  0  0  0
   62.2969   33.8135   46.3714 H   0  0  0  0  0  0  0  0  0  0  0  0
   59.8974   33.3760   45.8794 H   0  0  0  0  0  0  0  0  0  0  0  0
   57.7261   31.7616   47.6298 H   0  0  0  0  0  0  0  0  0  0  0  0
   57.2404   33.3491   48.3415 H   0  0  0  0  0  0  0  0  0  0  0  0
   58.6739   34.0118   44.0108 H   0  0  0  0  0  0  0  0  0  0  0  0
   58.5007   32.6233   41.9381 H   0  0  0  0  0  0  0  0  0  0  0  0
   57.2105   30.4775   41.9835 H   0  0  0  0  0  0  0  0  0  0  0  0
   56.0956   29.7601   44.1076 H   0  0  0  0  0  0  0  0  0  0  0  0
  1  2  2  0
  2  3  1  0
  2  4  1  0
  4  5  1  0
  5  6  2  0
  6  7  1  0
  7  8  1  0
  8  9  2  3
  9 10  1  0
 10 11  2  0
 10 12  1  0
 12 13  1  0
 13 14  2  0
 13 15  1  0
 15 16  2  0
 16 17  1  0
 17 18  2  0
 18 19  1  0
 19 20  2  0
 20 21  1  0
 21 22  1  0
 22 23  2  3
 23 24  1  0
 24 25  2  0
 25 26  1  0
 26 27  2  0
 27 28  1  0
  8 29  1  0
 29  5  1  0
 20 15  1  0
 28 23  1  0
  4 30  1  0
  4 31  1  0
  6 32  1  0
 12 33  1  0
 16 34  1  0
 17 35  1  0
 18 36  1  0
 19 37  1  0
 21 38  1  0
 21 39  1  0
 24 40  1  0
 25 41  1  0
 26 42  1  0
 27 43  1  0
M  CHG  3   3  -1  28  -1  29  -1
M  END
>  <UniqueID>  (44) 
38

>  <SMILES>  (44) 
O=C([O-])Cc1csc(=NC(=O)NC(=O)c2ccccc2CN=c2cccc[n-]2)[n-]1

>  <Energy>  (44) 
83.27116596193785

>  <Genealogy>  (44) 
O=C([O-])Cc1csc(=NC(=O)NC(=O)c2ccccc2CN=c2cccc[n-]2)[n-]1 (protonated)
O=C([O-])Cc1csc(=NC(=O)NC(=O)c2ccccc2CN=c2cccc[n-]2)[n-]1 (3D coordinates assigned)
O=C([O-])Cc1csc(=NC(=O)NC(=O)c2ccccc2CN=c2cccc[n-]2)[n-]1 (optimized conformer: 83.27116596193785 kcal/mol)

>  <smiles>  (44) 
O=C(O)Cc1csc(=NC(=O)NC(=O)c2ccccc2CN=c2cccc[nH]2)[nH]1

>  <score_type>  (44) 
oracle

>  <origin>  (44) 
adg

>  <m_score__min__energy>  (44) 
-15.1

>  <m_primary>  (44) 
energy

$$$$
45:0
     RDKit          3D

 61 64  0  0  1  0  0  0  0  0999 V2000
   57.7780   28.7470   47.0550 O   0  0  0  0  0  0  0  0  0  0  0  0
   58.3530   29.6110   46.3210 C   0  0  0  0  0  0  0  0  0  0  0  0
   59.5620   30.1630   46.8000 N   0  0  0  0  0  0  0  0  0  0  0  0
   60.1760   29.8330   48.0300 C   0  0  0  0  0  0  0  0  0  0  0  0
   60.1700   28.4780   48.3740 C   0  0  0  0  0  0  0  0  0  0  0  0
   60.7520   28.0090   49.5160 C   0  0  0  0  0  0  0  0  0  0  0  0
   61.3630   28.9650   50.3350 C   0  0  0  0  0  0  0  0  0  0  0  0
   62.0190   28.5290   51.5950 C   0  0  0  0  0  0  0  0  0  0  0  0
   61.0740   28.3760   52.6370 O   0  0  0  0  0  0  0  0  0  0  0  0
   60.3260   29.4790   53.0120 C   0  0  0  0  0  0  0  0  0  0  0  0
   60.7350   30.2870   54.0430 C   0  0  0  0  0  0  0  0  0  0  0  0
   59.9580   31.3700   54.3760 C   0  0  0  0  0  0  0  0  0  0  0  0
   58.7820   31.6020   53.6510 C   0  0  0  0  0  0  0  0  0  0  0  0
   58.3680   30.8010   52.6240 C   0  0  0  0  0  0  0  0  0  0  0  0
   57.1670   30.9870   51.8390 C   0  0  0  0  0  0  0  0  0  0  0  0
   57.1510   31.9780   50.8320 O   0  0  0  0  0  0  0  0  0  0  0  0
   56.0770   30.3270   51.9600 N   0  0  0  0  0  0  0  0  0  0  0  0
   54.8950   30.6760   51.3930 O   0  0  0  0  0  0  0  0  0  0  0  0
   59.1690   29.7230   52.3110 C   0  0  0  0  0  0  0  0  0  0  0  0
   61.3720   30.3020   50.0000 C   0  0  0  0  0  0  0  0  0  0  0  0
   60.7730   30.7770   48.8260 C   0  0  0  0  0  0  0  0  0  0  0  0
   60.8390   32.2080   48.5660 C   0  0  0  0  0  0  0  0  0  0  0  0
   59.5190   32.9060   48.7680 C   0  0  0  0  0  0  0  0  0  0  0  0
   58.9750   33.3890   47.4570 C   0  0  0  0  0  0  0  0  0  0  0  0
   59.7390   34.1110   46.5640 C   0  0  0  0  0  0  0  0  0  0  0  0
   59.1600   34.5120   45.3910 C   0  0  0  0  0  0  0  0  0  0  0  0
   57.8490   34.2320   45.0440 C   0  0  0  0  0  0  0  0  0  0  0  0
   57.0750   33.5020   45.9430 C   0  0  0  0  0  0  0  0  0  0  0  0
   57.6710   33.1080   47.1190 C   0  0  0  0  0  0  0  0  0  0  0  0
   57.7470   29.9830   45.0460 C   0  0  0  0  0  0  0  0  0  0  0  0
   56.6290   29.3600   44.5300 C   0  0  0  0  0  0  0  0  0  0  0  0
   56.0970   29.7450   43.3280 C   0  0  0  0  0  0  0  0  0  0  0  0
   56.6490   30.7710   42.5710 C   0  0  0  0  0  0  0  0  0  0  0  0
   57.7650   31.4020   43.0740 C   0  0  0  0  0  0  0  0  0  0  0  0
   58.2980   31.0020   44.3000 C   0  0  0  0  0  0  0  0  0  0  0  0
   60.0760   30.8870   46.2140 H   0  0  0  0  0  0  0  0  0  0  0  0
   59.6776   27.7628   47.6987 H   0  0  0  0  0  0  0  0  0  0  0  0
   60.7414   26.9406   49.7776 H   0  0  0  0  0  0  0  0  0  0  0  0
   62.5225   27.5663   51.4230 H   0  0  0  0  0  0  0  0  0  0  0  0
   62.7458   29.2986   51.8939 H   0  0  0  0  0  0  0  0  0  0  0  0
   61.6645   30.0723   54.5907 H   0  0  0  0  0  0  0  0  0  0  0  0
   60.2534   32.0416   55.1956 H   0  0  0  0  0  0  0  0  0  0  0  0
   58.1625   32.4699   53.9211 H   0  0  0  0  0  0  0  0  0  0  0  0
   56.2800   32.2390   50.3860 H   0  0  0  0  0  0  0  0  0  0  0  0
   54.8020   31.5360   50.8440 H   0  0  0  0  0  0  0  0  0  0  0  0
   58.8786   29.0503   51.4905 H   0  0  0  0  0  0  0  0  0  0  0  0
   61.8644   31.0177   50.6748 H   0  0  0  0  0  0  0  0  0  0  0  0
   61.5789   32.6540   49.2470 H   0  0  0  0  0  0  0  0  0  0  0  0
   61.1208   32.3374   47.5106 H   0  0  0  0  0  0  0  0  0  0  0  0
   58.8034   32.2035   49.2202 H   0  0  0  0  0  0  0  0  0  0  0  0
   59.6713   33.7708   49.4305 H   0  0  0  0  0  0  0  0  0  0  0  0
   60.7870   34.3581   46.7891 H   0  0  0  0  0  0  0  0  0  0  0  0
   59.7713   35.0903   44.6826 H   0  0  0  0  0  0  0  0  0  0  0  0
   57.4311   34.5760   44.0864 H   0  0  0  0  0  0  0  0  0  0  0  0
   56.0274   33.2501   45.7213 H   0  0  0  0  0  0  0  0  0  0  0  0
   57.0664   32.5316   47.8347 H   0  0  0  0  0  0  0  0  0  0  0  0
   56.1575   28.5411   45.0930 H   0  0  0  0  0  0  0  0  0  0  0  0
   55.2042   29.2253   42.9499 H   0  0  0  0  0  0  0  0  0  0  0  0
   56.2113   31.0680   41.6065 H   0  0  0  0  0  0  0  0  0  0  0  0
   58.2358   32.2206   42.5098 H   0  0  0  0  0  0  0  0  0  0  0  0
   59.1898   31.5186   44.6846 H   0  0  0  0  0  0  0  0  0  0  0  0
  1  2  2  0
  2  3  1  0
  3  4  1  0
  4  5  2  0
  5  6  1  0
  6  7  2  0
  7  8  1  0
  8  9  1  0
  9 10  1  0
 10 11  2  0
 11 12  1  0
 12 13  2  0
 13 14  1  0
 14 15  1  0
 15 16  1  0
 15 17  2  0
 17 18  1  0
 14 19  2  0
  7 20  1  0
 20 21  2  0
 21 22  1  0
 22 23  1  0
 23 24  1  0
 24 25  2  0
 25 26  1  0
 26 27  2  0
 27 28  1  0
 28 29  2  0
  2 30  1  0
 30 31  2  0
 31 32  1  0
 32 33  2  0
 33 34  1  0
 34 35  2  0
 21  4  1  0
 29 24  1  0
 35 30  1  0
 19 10  1  0
  3 36  1  0
  5 37  1  0
  6 38  1  0
  8 39  1  0
  8 40  1  0
 11 41  1  0
 12 42  1  0
 13 43  1  0
 16 44  1  0
 18 45  1  0
 19 46  1  0
 20 47  1  0
 22 48  1  0
 22 49  1  0
 23 50  1  0
 23 51  1  0
 25 52  1  0
 26 53  1  0
 27 54  1  0
 28 55  1  0
 29 56  1  0
 31 57  1  0
 32 58  1  0
 33 59  1  0
 34 60  1  0
 35 61  1  0
M  END
>  <smiles>  (45) 
O=C(Nc1ccc(COc2cccc(C(O)=NO)c2)cc1CCc1ccccc1)c1ccccc1

>  <score_type>  (45) 
oracle

>  <origin>  (45) 
adg

>  <m_score__min__energy>  (45) 
-10.359999999999999

>  <m_primary>  (45) 
energy

$$$$
46:0
     RDKit          3D

 41 43  0  0  0  0  0  0  0  0999 V2000
   56.9710   34.2020   46.9660 H   0  0  0  0  0  0  0  0  0  0  0  0
   57.1720   34.1860   45.9930 O   0  0  0  0  0  0  0  0  0  0  0  0
   58.5260   33.8320   45.8350 C   0  0  0  0  0  0  0  0  0  0  0  0
   59.2070   33.7880   47.1850 C   0  0  0  0  0  0  0  0  0  0  0  0
   58.5800   33.6530   48.3310 O   0  0  0  0  0  0  0  0  0  0  0  0
   59.5030   33.6480   49.2680 C   0  0  0  0  0  0  0  0  0  0  0  0
   59.2630   33.5140   50.5390 N   0  0  0  0  0  0  0  0  0  0  0  0
   58.3450   32.5840   51.1370 C   0  0  0  0  0  0  0  0  0  0  0  0
   57.5430   32.9240   52.2430 C   0  0  0  0  0  0  0  0  0  0  0  0
   57.5959   33.9376   52.6670 H   0  0  0  0  0  0  0  0  0  0  0  0
   56.6790   31.9780   52.8050 C   0  0  0  0  0  0  0  0  0  0  0  0
   56.0465   32.2529   53.6620 H   0  0  0  0  0  0  0  0  0  0  0  0
   56.6180   30.6830   52.2790 C   0  0  0  0  0  0  0  0  0  0  0  0
   55.5010   29.4760   52.9940 S   0  0  0  0  0  0  0  0  0  0  0  0
   54.0480   30.4440   52.5870 C   0  0  0  0  0  0  0  0  0  0  0  0
   53.1040   30.7430   53.5770 C   0  0  0  0  0  0  0  0  0  0  0  0
   53.2560   30.3869   54.6066 H   0  0  0  0  0  0  0  0  0  0  0  0
   51.9680   31.4940   53.2580 C   0  0  0  0  0  0  0  0  0  0  0  0
   51.2267   31.7271   54.0365 H   0  0  0  0  0  0  0  0  0  0  0  0
   51.7740   31.9490   51.9490 C   0  0  0  0  0  0  0  0  0  0  0  0
   50.6440   32.6930   51.6320 O   0  0  0  0  0  0  0  0  0  0  0  0
   52.7190   31.6540   50.9600 C   0  0  0  0  0  0  0  0  0  0  0  0
   52.5674   32.0121   49.9310 H   0  0  0  0  0  0  0  0  0  0  0  0
   53.8550   30.9050   51.2780 C   0  0  0  0  0  0  0  0  0  0  0  0
   54.5984   30.6771   50.5000 H   0  0  0  0  0  0  0  0  0  0  0  0
   57.4370   30.3300   51.2020 C   0  0  0  0  0  0  0  0  0  0  0  0
   57.4012   29.3081   50.7966 H   0  0  0  0  0  0  0  0  0  0  0  0
   58.3010   31.2740   50.6400 C   0  0  0  0  0  0  0  0  0  0  0  0
   58.9517   30.9867   49.8009 H   0  0  0  0  0  0  0  0  0  0  0  0
   60.7460   33.7670   48.7670 N   0  0  0  0  0  0  0  0  0  0  0  0
   61.6500   33.7820   49.2890 H   0  0  0  0  0  0  0  0  0  0  0  0
   60.5660   33.8590   47.4380 C   0  0  0  0  0  0  0  0  0  0  0  0
   61.3592   33.9710   46.6842 H   0  0  0  0  0  0  0  0  0  0  0  0
   58.5790   32.4380   45.1960 C   0  0  0  0  0  0  0  0  0  0  0  0
   58.6081   31.6733   45.9862 H   0  0  0  0  0  0  0  0  0  0  0  0
   57.6860   32.2866   44.5719 H   0  0  0  0  0  0  0  0  0  0  0  0
   59.4810   32.3548   44.5719 H   0  0  0  0  0  0  0  0  0  0  0  0
   59.2220   34.8540   44.9140 C   0  0  0  0  0  0  0  0  0  0  0  0
   59.7362   35.6091   45.5267 H   0  0  0  0  0  0  0  0  0  0  0  0
   59.9555   34.3355   44.2791 H   0  0  0  0  0  0  0  0  0  0  0  0
   58.4708   35.3466   44.2791 H   0  0  0  0  0  0  0  0  0  0  0  0
  1  2  1  0
  2  3  1  0
  3  4  1  0
  4  5  1  0
  5  6  1  0
  6  7  2  0
  7  8  1  0
  8  9  2  0
  9 10  1  0
  9 11  1  0
 11 12  1  0
 11 13  2  0
 13 14  1  0
 14 15  1  0
 15 16  2  0
 16 17  1  0
 16 18  1  0
 18 19  1  0
 18 20  2  0
 20 21  1  0
 20 22  1  0
 22 23  1  0
 22 24  2  0
 24 25  1  0
 13 26  1  0
 26 27  1  0
 26 28  2  0
 28 29  1  0
  6 30  1  0
 30 31  1  0
 30 32  1  0
 32 33  1  0
  3 34  1  0
 34 35  1  0
 34 36  1  0
 34 37  1  0
  3 38  1  0
 38 39  1  0
 38 40  1  0
 38 41  1  0
 32  4  2  0
 28  8  1  0
 24 15  1  0
M  CHG  1  21  -1
M  END
>  <UniqueID>  (46) 
39

>  <SMILES>  (46) 
CC(C)(O)c1c[nH]/c(=N/c2ccc(Sc3ccc([O-])cc3)cc2)o1

>  <Energy>  (46) 
71.80843133747376

>  <Genealogy>  (46) 
CC(C)(O)c1c[nH]c(=Nc2ccc(Sc3ccc([O-])cc3)cc2)o1 (protonated)
CC(C)(O)c1c[nH]/c(=N/c2ccc(Sc3ccc([O-])cc3)cc2)o1 (cis-trans isomerization)
CC(C)(O)c1c[nH]/c(=N/c2ccc(Sc3ccc([O-])cc3)cc2)o1 (3D coordinates assigned)
CC(C)(O)c1c[nH]/c(=N/c2ccc(Sc3ccc([O-])cc3)cc2)o1 (optimized conformer: 71.80843133747376 kcal/mol)

>  <smiles>  (46) 
CC(C)(O)c1c[nH]c(=Nc2ccc(Sc3ccc(O)cc3)cc2)o1

>  <score_type>  (46) 
oracle

>  <origin>  (46) 
adg

>  <m_score__min__energy>  (46) 
-11.23

>  <m_primary>  (46) 
energy

$$$$
47:0
     RDKit          3D

 74 79  0  0  0  0  0  0  0  0999 V2000
   60.2990   28.5070   47.0450 C   0  0  0  0  0  0  0  0  0  0  0  0
   59.8650   29.4140   45.8930 C   0  0  0  0  0  0  0  0  0  0  0  0
   59.5710   30.8120   46.3630 C   0  0  0  0  0  0  0  0  0  0  0  0
   60.1340   31.3500   47.4730 N   0  0  0  0  0  0  0  0  0  0  0  0
   59.7480   32.6130   47.5650 N   0  0  0  0  0  0  0  0  0  0  0  0
   60.1850   33.5120   48.6260 C   0  0  0  0  0  0  0  0  0  0  0  0
   61.6860   33.4900   48.7390 C   0  0  0  0  0  0  0  0  0  0  0  0
   62.4940   33.4100   47.5890 C   0  0  0  0  0  0  0  0  0  0  0  0
   63.8900   33.3790   47.7060 C   0  0  0  0  0  0  0  0  0  0  0  0
   64.4830   33.4090   48.9740 C   0  0  0  0  0  0  0  0  0  0  0  0
   63.6830   33.4920   50.1220 C   0  0  0  0  0  0  0  0  0  0  0  0
   62.2910   33.5340   50.0060 C   0  0  0  0  0  0  0  0  0  0  0  0
   58.9760   32.9080   46.5020 C   0  0  0  0  0  0  0  0  0  0  0  0
   58.3770   34.1250   46.1810 C   0  0  0  0  0  0  0  0  0  0  0  0
   57.5940   34.1870   45.0210 C   0  0  0  0  0  0  0  0  0  0  0  0
   57.4230   33.0410   44.2170 C   0  0  0  0  0  0  0  0  0  0  0  0
   58.0340   31.8210   44.5560 C   0  0  0  0  0  0  0  0  0  0  0  0
   57.7850   30.6500   43.7720 N   0  0  0  0  0  0  0  0  0  0  0  0
   56.9990   29.5470   44.2670 C   0  0  0  0  0  0  0  0  0  0  0  0
   55.8720   29.7660   44.7920 O   0  0  0  0  0  0  0  0  0  0  0  0
   57.4690   28.1630   44.0940 C   0  0  0  0  0  0  0  0  0  0  0  0
   57.7860   27.5300   42.8990 C   0  0  0  0  0  0  0  0  0  0  0  0
   57.9880   26.2070   43.1200 N   0  0  0  0  0  0  0  0  0  0  0  0
   57.7860   26.0740   44.4520 C   0  0  0  0  0  0  0  0  0  0  0  0
   57.8640   24.8870   45.1790 C   0  0  0  0  0  0  0  0  0  0  0  0
   57.6500   24.9490   46.5690 C   0  0  0  0  0  0  0  0  0  0  0  0
   57.7750   23.7650   47.3090 O   0  0  0  0  0  0  0  0  0  0  0  0
   56.6890   23.0500   47.8950 C   0  0  0  0  0  0  0  0  0  0  0  0
   56.5660   21.6460   47.2830 C   0  0  0  0  0  0  0  0  0  0  0  0
   56.7100   21.6820   45.8090 N   0  0  0  0  0  0  0  0  0  0  0  0
   58.1110   21.4970   45.4070 C   0  0  0  0  0  0  0  0  0  0  0  0
   58.2640   21.8020   43.9040 C   0  0  0  0  0  0  0  0  0  0  0  0
   57.0610   21.4680   43.1070 N   0  0  0  0  0  0  0  0  0  0  0  0
   56.2280   22.6550   42.8320 C   0  0  0  0  0  0  0  0  0  0  0  0
   56.2790   20.3680   43.7040 C   0  0  0  0  0  0  0  0  0  0  0  0
   55.8380   20.6840   45.1510 C   0  0  0  0  0  0  0  0  0  0  0  0
   57.3210   26.1900   47.1770 C   0  0  0  0  0  0  0  0  0  0  0  0
   57.2340   27.3430   46.3910 C   0  0  0  0  0  0  0  0  0  0  0  0
   57.4760   27.2330   45.0570 N   0  0  0  0  0  0  0  0  0  0  0  0
   58.8320   31.7950   45.7120 C   0  0  0  0  0  0  0  0  0  0  0  0
   60.0658   28.9943   48.0032 H   0  0  0  0  0  0  0  0  0  0  0  0
   59.7615   27.5494   46.9803 H   0  0  0  0  0  0  0  0  0  0  0  0
   61.3819   28.3248   46.9803 H   0  0  0  0  0  0  0  0  0  0  0  0
   60.6718   29.4517   45.1462 H   0  0  0  0  0  0  0  0  0  0  0  0
   58.9436   28.9983   45.4591 H   0  0  0  0  0  0  0  0  0  0  0  0
   59.8527   34.5350   48.3956 H   0  0  0  0  0  0  0  0  0  0  0  0
   59.7478   33.1816   49.5798 H   0  0  0  0  0  0  0  0  0  0  0  0
   62.0272   33.3716   46.5937 H   0  0  0  0  0  0  0  0  0  0  0  0
   64.5182   33.3312   46.8043 H   0  0  0  0  0  0  0  0  0  0  0  0
   65.5781   33.3674   49.0694 H   0  0  0  0  0  0  0  0  0  0  0  0
   64.1520   33.5241   51.1165 H   0  0  0  0  0  0  0  0  0  0  0  0
   61.6672   33.6017   50.9095 H   0  0  0  0  0  0  0  0  0  0  0  0
   58.5150   35.0101   46.8194 H   0  0  0  0  0  0  0  0  0  0  0  0
   57.1107   35.1332   44.7362 H   0  0  0  0  0  0  0  0  0  0  0  0
   56.8022   33.1026   43.3110 H   0  0  0  0  0  0  0  0  0  0  0  0
   57.8618   28.0268   41.9205 H   0  0  0  0  0  0  0  0  0  0  0  0
   58.0860   23.9313   44.6817 H   0  0  0  0  0  0  0  0  0  0  0  0
   56.8605   22.9576   48.9776 H   0  0  0  0  0  0  0  0  0  0  0  0
   55.7577   23.6021   47.7003 H   0  0  0  0  0  0  0  0  0  0  0  0
   57.3529   21.0026   47.7035 H   0  0  0  0  0  0  0  0  0  0  0  0
   55.5677   21.2511   47.5228 H   0  0  0  0  0  0  0  0  0  0  0  0
   58.7508   22.1795   45.9857 H   0  0  0  0  0  0  0  0  0  0  0  0
   58.4114   20.4566   45.6003 H   0  0  0  0  0  0  0  0  0  0  0  0
   58.4724   22.8756   43.7862 H   0  0  0  0  0  0  0  0  0  0  0  0
   59.0850   21.1735   43.5287 H   0  0  0  0  0  0  0  0  0  0  0  0
   55.9101   23.1080   43.7826 H   0  0  0  0  0  0  0  0  0  0  0  0
   56.8117   23.3867   42.2542 H   0  0  0  0  0  0  0  0  0  0  0  0
   55.3414   22.3549   42.2542 H   0  0  0  0  0  0  0  0  0  0  0  0
   55.3826   20.1966   43.0899 H   0  0  0  0  0  0  0  0  0  0  0  0
   56.9205   19.4749   43.7338 H   0  0  0  0  0  0  0  0  0  0  0  0
   54.8103   21.0755   45.1281 H   0  0  0  0  0  0  0  0  0  0  0  0
   55.9053   19.7511   45.7299 H   0  0  0  0  0  0  0  0  0  0  0  0
   57.1358   26.2435   48.2600 H   0  0  0  0  0  0  0  0  0  0  0  0
   56.9766   28.3138   46.8397 H   0  0  0  0  0  0  0  0  0  0  0  0
  1  2  1  0
  2  3  1  0
  3  4  2  0
  4  5  1  0
  5  6  1  0
  6  7  1  0
  7  8  2  0
  8  9  1  0
  9 10  2  0
 10 11  1  0
 11 12  2  0
  5 13  1  0
 13 14  2  0
 14 15  1  0
 15 16  2  0
 16 17  1  0
 17 18  1  0
 18 19  1  0
 19 20  2  0
 19 21  1  0
 21 22  2  0
 22 23  1  0
 23 24  2  0
 24 25  1  0
 25 26  2  0
 26 27  1  0
 27 28  1  0
 28 29  1  0
 29 30  1  0
 30 31  1  0
 31 32  1  0
 32 33  1  0
 33 34  1  0
 33 35  1  0
 35 36  1  0
 26 37  1  0
 37 38  2  0
 38 39  1  0
 17 40  2  0
 40  3  1  0
 12  7  1  0
 40 13  1  0
 39 21  1  0
 39 24  1  0
 36 30  1  0
  1 41  1  0
  1 42  1  0
  1 43  1  0
  2 44  1  0
  2 45  1  0
  6 46  1  0
  6 47  1  0
  8 48  1  0
  9 49  1  0
 10 50  1  0
 11 51  1  0
 12 52  1  0
 14 53  1  0
 15 54  1  0
 16 55  1  0
 22 56  1  0
 25 57  1  0
 28 58  1  0
 28 59  1  0
 29 60  1  0
 29 61  1  0
 31 62  1  0
 31 63  1  0
 32 64  1  0
 32 65  1  0
 34 66  1  0
 34 67  1  0
 34 68  1  0
 35 69  1  0
 35 70  1  0
 36 71  1  0
 36 72  1  0
 37 73  1  0
 38 74  1  0
M  CHG  1  18  -1
M  END
>  <UniqueID>  (47) 
40

>  <SMILES>  (47) 
CCc1nn(Cc2ccccc2)c2cccc([N-]C(=O)c3cnc4cc(OCCN5CCN(C)CC5)ccn34)c12

>  <Energy>  (47) 
171.7882733664209

>  <Genealogy>  (47) 
CCc1nn(Cc2ccccc2)c2cccc([N-]C(=O)c3cnc4cc(OCCN5CCN(C)CC5)ccn34)c12 (protonated)
CCc1nn(Cc2ccccc2)c2cccc([N-]C(=O)c3cnc4cc(OCCN5CCN(C)CC5)ccn34)c12 (3D coordinates assigned)
CCc1nn(Cc2ccccc2)c2cccc([N-]C(=O)c3cnc4cc(OCCN5CCN(C)CC5)ccn34)c12 (nonaromatic ring conformer: 171.7882733664209 kcal/mol)

>  <smiles>  (47) 
CCc1nn(Cc2ccccc2)c2cccc(NC(=O)c3cnc4cc(OCCN5CCN(C)CC5)ccn34)c12

>  <score_type>  (47) 
oracle

>  <origin>  (47) 
adg

>  <m_score__min__energy>  (47) 
-10.99

>  <m_primary>  (47) 
energy

$$$$
48:0
     RDKit          3D

 52 55  0  0  0  0  0  0  0  0999 V2000
   61.2220   29.7590   50.1510 C   0  0  0  0  0  0  0  0  0  0  0  0
   62.2430   30.7900   49.7640 C   0  0  0  0  0  0  0  0  0  0  0  0
   62.2590   31.5510   48.6010 C   0  0  0  0  0  0  0  0  0  0  0  0
   61.3510   31.5120   47.4950 N   0  0  0  0  0  0  0  0  0  0  0  0
   59.9640   31.8740   47.6140 C   0  0  0  0  0  0  0  0  0  0  0  0
   59.5000   32.2180   48.7350 O   0  0  0  0  0  0  0  0  0  0  0  0
   59.0670   31.8590   46.4360 C   0  0  0  0  0  0  0  0  0  0  0  0
   59.0890   32.9290   45.5250 C   0  0  0  0  0  0  0  0  0  0  0  0
   58.2640   32.9160   44.3990 C   0  0  0  0  0  0  0  0  0  0  0  0
   57.4120   31.8350   44.1640 C   0  0  0  0  0  0  0  0  0  0  0  0
   57.3710   30.7550   45.0600 C   0  0  0  0  0  0  0  0  0  0  0  0
   56.4580   29.6120   44.8120 C   0  0  0  0  0  0  0  0  0  0  0  0
   55.2120   29.7960   44.8750 O   0  0  0  0  0  0  0  0  0  0  0  0
   56.9410   28.2820   44.5590 N   0  0  0  0  0  0  0  0  0  0  0  0
   57.4030   27.4500   45.4470 C   0  0  0  0  0  0  0  0  0  0  0  0
   58.7440   27.3360   45.6750 N   0  0  0  0  0  0  0  0  0  0  0  0
   59.2490   26.4730   46.5970 C   0  0  0  0  0  0  0  0  0  0  0  0
   58.3880   25.6620   47.3380 C   0  0  0  0  0  0  0  0  0  0  0  0
   57.0130   25.7450   47.1170 C   0  0  0  0  0  0  0  0  0  0  0  0
   56.5120   26.6380   46.1660 C   0  0  0  0  0  0  0  0  0  0  0  0
   55.1410   26.7190   45.9470 O   0  0  0  0  0  0  0  0  0  0  0  0
   58.1810   30.7900   46.2110 C   0  0  0  0  0  0  0  0  0  0  0  0
   63.3110   32.4210   48.7570 C   0  0  0  0  0  0  0  0  0  0  0  0
   63.6730   33.2950   47.9240 O   0  0  0  0  0  0  0  0  0  0  0  0
   63.9280   32.1770   49.9290 N   0  0  0  0  0  0  0  0  0  0  0  0
   65.0970   32.8560   50.4210 C   0  0  0  0  0  0  0  0  0  0  0  0
   64.9700   33.9810   51.2520 C   0  0  0  0  0  0  0  0  0  0  0  0
   66.1090   34.6310   51.7350 C   0  0  0  0  0  0  0  0  0  0  0  0
   67.3820   34.1590   51.3970 C   0  0  0  0  0  0  0  0  0  0  0  0
   67.5160   33.0340   50.5790 C   0  0  0  0  0  0  0  0  0  0  0  0
   66.3780   32.3810   50.0950 C   0  0  0  0  0  0  0  0  0  0  0  0
   63.2750   31.1950   50.5500 N   0  0  0  0  0  0  0  0  0  0  0  0
   63.6310   30.6390   51.8580 C   0  0  0  0  0  0  0  0  0  0  0  0
   61.1608   29.6972   51.2476 H   0  0  0  0  0  0  0  0  0  0  0  0
   60.2405   30.0443   49.7445 H   0  0  0  0  0  0  0  0  0  0  0  0
   61.5168   28.7803   49.7445 H   0  0  0  0  0  0  0  0  0  0  0  0
   61.7090   31.1030   46.6040 H   0  0  0  0  0  0  0  0  0  0  0  0
   59.7607   33.7823   45.7004 H   0  0  0  0  0  0  0  0  0  0  0  0
   58.2852   33.7604   43.6943 H   0  0  0  0  0  0  0  0  0  0  0  0
   56.7691   31.8296   43.2715 H   0  0  0  0  0  0  0  0  0  0  0  0
   60.3355   26.4142   46.7586 H   0  0  0  0  0  0  0  0  0  0  0  0
   58.7893   24.9648   48.0883 H   0  0  0  0  0  0  0  0  0  0  0  0
   56.3238   25.1081   47.6908 H   0  0  0  0  0  0  0  0  0  0  0  0
   58.1202   29.9714   46.9432 H   0  0  0  0  0  0  0  0  0  0  0  0
   63.9706   34.3518   51.5236 H   0  0  0  0  0  0  0  0  0  0  0  0
   66.0045   35.5147   52.3816 H   0  0  0  0  0  0  0  0  0  0  0  0
   68.2776   34.6736   51.7753 H   0  0  0  0  0  0  0  0  0  0  0  0
   68.5171   32.6619   50.3157 H   0  0  0  0  0  0  0  0  0  0  0  0
   66.4865   31.4919   49.4565 H   0  0  0  0  0  0  0  0  0  0  0  0
   63.2209   31.2796   52.6526 H   0  0  0  0  0  0  0  0  0  0  0  0
   63.2133   29.6257   51.9517 H   0  0  0  0  0  0  0  0  0  0  0  0
   64.7261   30.5943   51.9517 H   0  0  0  0  0  0  0  0  0  0  0  0
  1  2  1  0
  2  3  2  0
  3  4  1  0
  4  5  1  0
  5  6  2  0
  5  7  1  0
  7  8  2  0
  8  9  1  0
  9 10  2  0
 10 11  1  0
 11 12  1  0
 12 13  2  0
 12 14  1  0
 14 15  2  3
 15 16  1  0
 16 17  1  0
 17 18  2  0
 18 19  1  0
 19 20  2  0
 20 21  1  0
 11 22  2  0
  3 23  1  0
 23 24  2  0
 23 25  1  0
 25 26  1  0
 26 27  2  0
 27 28  1  0
 28 29  2  0
 29 30  1  0
 30 31  2  0
 25 32  1  0
 32 33  1  0
 32  2  1  0
 22  7  1  0
 31 26  1  0
 20 15  1  0
  1 34  1  0
  1 35  1  0
  1 36  1  0
  4 37  1  0
  8 38  1  0
  9 39  1  0
 10 40  1  0
 17 41  1  0
 18 42  1  0
 19 43  1  0
 22 44  1  0
 27 45  1  0
 28 46  1  0
 29 47  1  0
 30 48  1  0
 31 49  1  0
 33 50  1  0
 33 51  1  0
 33 52  1  0
M  CHG  2  16  -1  21  -1
M  END
>  <UniqueID>  (48) 
41

>  <SMILES>  (48) 
Cc1c(NC(=O)c2cccc(C(=O)N=c3[n-]cccc3[O-])c2)c(=O)n(-c2ccccc2)n1C

>  <Energy>  (48) 
113.96410960965584

>  <Genealogy>  (48) 
Cc1c(NC(=O)c2cccc(C(=O)N=c3[n-]cccc3[O-])c2)c(=O)n(-c2ccccc2)n1C (protonated)
Cc1c(NC(=O)c2cccc(C(=O)N=c3[n-]cccc3[O-])c2)c(=O)n(-c2ccccc2)n1C (3D coordinates assigned)
Cc1c(NC(=O)c2cccc(C(=O)N=c3[n-]cccc3[O-])c2)c(=O)n(-c2ccccc2)n1C (optimized conformer: 113.96410960965584 kcal/mol)

>  <smiles>  (48) 
Cc1c(NC(=O)c2cccc(C(=O)N=c3[nH]cccc3O)c2)c(=O)n(-c2ccccc2)n1C

>  <score_type>  (48) 
oracle

>  <origin>  (48) 
adg

>  <m_score__min__energy>  (48) 
-14.710000000000001

>  <m_primary>  (48) 
energy

$$$$
49:0
     RDKit          3D

 52 55  0  0  0  0  0  0  0  0999 V2000
   60.5360   30.9200   47.4530 O   0  0  0  0  0  0  0  0  0  0  0  0
   59.4720   30.9210   46.7770 C   0  0  0  0  0  0  0  0  0  0  0  0
   59.3820   30.0810   45.5320 C   0  0  0  0  0  0  0  0  0  0  0  0
   58.0420   29.5110   45.3820 N   0  0  0  0  0  0  0  0  0  0  0  0
   56.9750   30.0880   44.7700 C   0  0  0  0  0  0  0  0  0  0  0  0
   55.8660   29.3010   44.7660 N   0  0  0  0  0  0  0  0  0  0  0  0
   56.2910   28.1950   45.4020 C   0  0  0  0  0  0  0  0  0  0  0  0
   55.5680   27.0740   45.6380 N   0  0  0  0  0  0  0  0  0  0  0  0
   56.1790   26.0240   46.2750 C   0  0  0  0  0  0  0  0  0  0  0  0
   55.5330   24.9220   46.5140 N   0  0  0  0  0  0  0  0  0  0  0  0
   54.8360   24.1230   45.5050 C   0  0  0  0  0  0  0  0  0  0  0  0
   55.8000   23.2320   44.7620 C   0  0  0  0  0  0  0  0  0  0  0  0
   56.8080   22.5410   45.4530 C   0  0  0  0  0  0  0  0  0  0  0  0
   57.6960   21.7120   44.7590 C   0  0  0  0  0  0  0  0  0  0  0  0
   57.5820   21.5680   43.3730 C   0  0  0  0  0  0  0  0  0  0  0  0
   56.5860   22.2590   42.6770 C   0  0  0  0  0  0  0  0  0  0  0  0
   55.7000   23.0920   43.3660 C   0  0  0  0  0  0  0  0  0  0  0  0
   57.4920   26.1240   46.6580 N   0  0  0  0  0  0  0  0  0  0  0  0
   58.2220   27.2530   46.4210 C   0  0  0  0  0  0  0  0  0  0  0  0
   59.4270   27.3190   46.7760 O   0  0  0  0  0  0  0  0  0  0  0  0
   57.5890   28.3080   45.7710 C   0  0  0  0  0  0  0  0  0  0  0  0
   58.4030   31.7820   47.1850 N   0  0  0  0  0  0  0  0  0  0  0  0
   57.8740   32.8860   46.3910 C   0  0  0  0  0  0  0  0  0  0  0  0
   59.0240   33.7450   45.8490 C   0  0  0  0  0  0  0  0  0  0  0  0
   59.6500   34.6630   46.9130 C   0  0  0  0  0  0  0  0  0  0  0  0
   61.0170   34.2010   47.3470 C   0  0  0  0  0  0  0  0  0  0  0  0
   61.9750   33.8230   46.3910 C   0  0  0  0  0  0  0  0  0  0  0  0
   63.2320   33.3640   46.7950 C   0  0  0  0  0  0  0  0  0  0  0  0
   63.5400   33.2770   48.1560 C   0  0  0  0  0  0  0  0  0  0  0  0
   62.5910   33.6470   49.1140 C   0  0  0  0  0  0  0  0  0  0  0  0
   61.3350   34.1090   48.7120 C   0  0  0  0  0  0  0  0  0  0  0  0
   59.6063   30.7088   44.6570 H   0  0  0  0  0  0  0  0  0  0  0  0
   60.1073   29.2577   45.6104 H   0  0  0  0  0  0  0  0  0  0  0  0
   57.0052   31.0922   44.3221 H   0  0  0  0  0  0  0  0  0  0  0  0
   54.0780   23.4988   46.0008 H   0  0  0  0  0  0  0  0  0  0  0  0
   54.3614   24.8048   44.7840 H   0  0  0  0  0  0  0  0  0  0  0  0
   56.8999   22.6517   46.5435 H   0  0  0  0  0  0  0  0  0  0  0  0
   58.4847   21.1730   45.3044 H   0  0  0  0  0  0  0  0  0  0  0  0
   58.2766   20.9104   42.8298 H   0  0  0  0  0  0  0  0  0  0  0  0
   56.4994   22.1471   41.5861 H   0  0  0  0  0  0  0  0  0  0  0  0
   54.9218   23.6400   42.8146 H   0  0  0  0  0  0  0  0  0  0  0  0
   57.2931   32.4825   45.5485 H   0  0  0  0  0  0  0  0  0  0  0  0
   57.2281   33.5093   47.0269 H   0  0  0  0  0  0  0  0  0  0  0  0
   59.8063   33.0765   45.4604 H   0  0  0  0  0  0  0  0  0  0  0  0
   58.6058   34.3927   45.0644 H   0  0  0  0  0  0  0  0  0  0  0  0
   59.7371   35.6771   46.4958 H   0  0  0  0  0  0  0  0  0  0  0  0
   58.9957   34.6420   47.7970 H   0  0  0  0  0  0  0  0  0  0  0  0
   61.7346   33.8886   45.3196 H   0  0  0  0  0  0  0  0  0  0  0  0
   63.9788   33.0713   46.0422 H   0  0  0  0  0  0  0  0  0  0  0  0
   64.5298   32.9171   48.4735 H   0  0  0  0  0  0  0  0  0  0  0  0
   62.8333   33.5743   50.1845 H   0  0  0  0  0  0  0  0  0  0  0  0
   60.5918   34.4020   49.4682 H   0  0  0  0  0  0  0  0  0  0  0  0
  1  2  2  0
  2  3  1  0
  3  4  1  0
  4  5  1  0
  5  6  2  0
  6  7  1  0
  7  8  1  0
  8  9  1  0
  9 10  2  3
 10 11  1  0
 11 12  1  0
 12 13  2  0
 13 14  1  0
 14 15  2  0
 15 16  1  0
 16 17  2  0
  9 18  1  0
 18 19  1  0
 19 20  2  0
 19 21  1  0
  2 22  1  0
 22 23  1  0
 23 24  1  0
 24 25  1  0
 25 26  1  0
 26 27  2  0
 27 28  1  0
 28 29  2  0
 29 30  1  0
 30 31  2  0
 21  4  1  0
 31 26  1  0
 21  7  2  0
 17 12  1  0
  3 32  1  0
  3 33  1  0
  5 34  1  0
 11 35  1  0
 11 36  1  0
 13 37  1  0
 14 38  1  0
 15 39  1  0
 16 40  1  0
 17 41  1  0
 23 42  1  0
 23 43  1  0
 24 44  1  0
 24 45  1  0
 25 46  1  0
 25 47  1  0
 27 48  1  0
 28 49  1  0
 29 50  1  0
 30 51  1  0
 31 52  1  0
M  CHG  3   8  -1  18  -1  22  -1
M  END
>  <UniqueID>  (49) 
42

>  <SMILES>  (49) 
O=C(Cn1cnc2[n-]c(=NCc3ccccc3)[n-]c(=O)c21)[N-]CCCc1ccccc1

>  <Energy>  (49) 
89.53168520126307

>  <Genealogy>  (49) 
O=C(Cn1cnc2[n-]c(=NCc3ccccc3)[n-]c(=O)c21)[N-]CCCc1ccccc1 (protonated)
O=C(Cn1cnc2[n-]c(=NCc3ccccc3)[n-]c(=O)c21)[N-]CCCc1ccccc1 (3D coordinates assigned)
O=C(Cn1cnc2[n-]c(=NCc3ccccc3)[n-]c(=O)c21)[N-]CCCc1ccccc1 (optimized conformer: 89.53168520126307 kcal/mol)

>  <smiles>  (49) 
O=C(Cn1cnc2[nH]c(=NCc3ccccc3)[nH]c(=O)c21)NCCCc1ccccc1

>  <score_type>  (49) 
oracle

>  <origin>  (49) 
adg

>  <m_score__min__energy>  (49) 
-13.140000000000001

>  <m_primary>  (49) 
energy

$$$$
50:0
     RDKit          3D

 46 48  0  0  0  0  0  0  0  0999 V2000
   56.6340   29.3620   51.5790 H   0  0  0  0  0  0  0  0  0  0  0  0
   57.6180   29.1950   51.4170 O   0  0  0  0  0  0  0  0  0  0  0  0
   58.4420   30.2030   50.9220 C   0  0  0  0  0  0  0  0  0  0  0  0
   59.5360   29.8750   50.1910 N   0  0  0  0  0  0  0  0  0  0  0  0
   60.3620   30.8240   49.6830 C   0  0  0  0  0  0  0  0  0  0  0  0
   61.3630   30.4590   49.0090 O   0  0  0  0  0  0  0  0  0  0  0  0
   60.1100   32.1560   49.9020 N   0  0  0  0  0  0  0  0  0  0  0  0
   60.9980   33.1830   49.3120 C   0  0  0  0  0  0  0  0  0  0  0  0
   60.5658   34.1774   49.4972 H   0  0  0  0  0  0  0  0  0  0  0  0
   61.9887   33.0911   49.7811 H   0  0  0  0  0  0  0  0  0  0  0  0
   61.1640   32.9860   47.7970 C   0  0  0  0  0  0  0  0  0  0  0  0
   62.0192   33.5868   47.4540 H   0  0  0  0  0  0  0  0  0  0  0  0
   61.3261   31.9136   47.6135 H   0  0  0  0  0  0  0  0  0  0  0  0
   59.9370   33.4050   47.0260 C   0  0  0  0  0  0  0  0  0  0  0  0
   60.0390   34.3390   45.9800 C   0  0  0  0  0  0  0  0  0  0  0  0
   61.0213   34.7539   45.7100 H   0  0  0  0  0  0  0  0  0  0  0  0
   58.8960   34.7430   45.2810 C   0  0  0  0  0  0  0  0  0  0  0  0
   58.9806   35.4811   44.4698 H   0  0  0  0  0  0  0  0  0  0  0  0
   57.6470   34.2100   45.6120 C   0  0  0  0  0  0  0  0  0  0  0  0
   56.7483   34.5337   45.0666 H   0  0  0  0  0  0  0  0  0  0  0  0
   57.5410   33.2650   46.6370 C   0  0  0  0  0  0  0  0  0  0  0  0
   56.5595   32.8376   46.8901 H   0  0  0  0  0  0  0  0  0  0  0  0
   58.6800   32.8620   47.3410 C   0  0  0  0  0  0  0  0  0  0  0  0
   58.5915   32.1165   48.1450 H   0  0  0  0  0  0  0  0  0  0  0  0
   59.0200   32.5220   50.6550 C   0  0  0  0  0  0  0  0  0  0  0  0
   58.8020   33.7410   50.9110 O   0  0  0  0  0  0  0  0  0  0  0  0
   58.1460   31.5470   51.1640 C   0  0  0  0  0  0  0  0  0  0  0  0
   56.9660   31.9190   51.9740 C   0  0  0  0  0  0  0  0  0  0  0  0
   56.8240   33.1150   52.3400 O   0  0  0  0  0  0  0  0  0  0  0  0
   55.9720   30.9550   52.3440 N   0  0  0  0  0  0  0  0  0  0  0  0
   54.7270   30.7530   51.6120 C   0  0  0  0  0  0  0  0  0  0  0  0
   54.7986   29.8313   51.0159 H   0  0  0  0  0  0  0  0  0  0  0  0
   54.5525   31.6108   50.9458 H   0  0  0  0  0  0  0  0  0  0  0  0
   53.5920   30.6350   52.5740 C   0  0  0  0  0  0  0  0  0  0  0  0
   53.8220   30.7340   53.8100 O   0  0  0  0  0  0  0  0  0  0  0  0
   52.2640   30.3960   52.0790 N   0  0  0  0  0  0  0  0  0  0  0  0
   51.8710   30.4800   50.8400 C   0  0  0  0  0  0  0  0  0  0  0  0
   52.0590   29.4470   49.9690 N   0  0  0  0  0  0  0  0  0  0  0  0
   51.6420   29.5050   48.6760 C   0  0  0  0  0  0  0  0  0  0  0  0
   51.8111   28.6503   48.0045 H   0  0  0  0  0  0  0  0  0  0  0  0
   50.9990   30.6500   48.2010 C   0  0  0  0  0  0  0  0  0  0  0  0
   50.6595   30.7045   47.1561 H   0  0  0  0  0  0  0  0  0  0  0  0
   50.7920   31.7250   49.0680 C   0  0  0  0  0  0  0  0  0  0  0  0
   50.2886   32.6341   48.7072 H   0  0  0  0  0  0  0  0  0  0  0  0
   51.2250   31.6450   50.3950 C   0  0  0  0  0  0  0  0  0  0  0  0
   51.0190   32.7170   51.2580 O   0  0  0  0  0  0  0  0  0  0  0  0
  1  2  1  0
  2  3  1  0
  3  4  1  0
  4  5  1  0
  5  6  2  0
  5  7  1  0
  7  8  1  0
  8  9  1  0
  8 10  1  0
  8 11  1  0
 11 12  1  0
 11 13  1  0
 11 14  1  0
 14 15  2  0
 15 16  1  0
 15 17  1  0
 17 18  1  0
 17 19  2  0
 19 20  1  0
 19 21  1  0
 21 22  1  0
 21 23  2  0
 23 24  1  0
  7 25  1  0
 25 26  2  0
 25 27  1  0
 27 28  1  0
 28 29  2  0
 28 30  1  0
 30 31  1  0
 31 32  1  0
 31 33  1  0
 31 34  1  0
 34 35  2  0
 34 36  1  0
 36 37  2  0
 37 38  1  0
 38 39  1  0
 39 40  1  0
 39 41  2  0
 41 42  1  0
 41 43  1  0
 43 44  1  0
 43 45  2  0
 45 46  1  0
 27  3  2  0
 45 37  1  0
 23 14  1  0
M  CHG  4   4  -1  30  -1  38  -1  46  -1
M  END
>  <UniqueID>  (50) 
43

>  <SMILES>  (50) 
O=C(C[N-]C(=O)c1c(O)[n-]c(=O)n(CCc2ccccc2)c1=O)/N=c1\[n-]cccc1[O-]

>  <Energy>  (50) 
55.50960136382032

>  <Genealogy>  (50) 
O=C(C[N-]C(=O)c1c(O)[n-]c(=O)n(CCc2ccccc2)c1=O)N=c1[n-]cccc1[O-] (protonated)
O=C(C[N-]C(=O)c1c(O)[n-]c(=O)n(CCc2ccccc2)c1=O)/N=c1\[n-]cccc1[O-] (cis-trans isomerization)
O=C(C[N-]C(=O)c1c(O)[n-]c(=O)n(CCc2ccccc2)c1=O)/N=c1\[n-]cccc1[O-] (3D coordinates assigned)
O=C(C[N-]C(=O)c1c(O)[n-]c(=O)n(CCc2ccccc2)c1=O)/N=c1\[n-]cccc1[O-] (optimized conformer: 55.50960136382032 kcal/mol)

>  <smiles>  (50) 
O=C(CNC(=O)c1c(O)[nH]c(=O)n(CCc2ccccc2)c1=O)N=c1[nH]cccc1O

>  <score_type>  (50) 
oracle

>  <origin>  (50) 
adg

>  <m_score__min__energy>  (50) 
-16.120000000000001

>  <m_primary>  (50) 
energy

$$$$
51:0
     RDKit          3D

 58 61  0  0  0  0  0  0  0  0999 V2000
   60.7610   27.6050   50.1840 C   0  0  0  0  0  0  0  0  0  0  0  0
   60.6590   28.6190   49.1300 N   0  0  0  0  0  0  0  0  0  0  0  0
   61.0490   30.0100   49.4130 C   0  0  0  0  0  0  0  0  0  0  0  0
   60.0260   30.7000   50.2810 C   0  0  0  0  0  0  0  0  0  0  0  0
   58.8930   31.2960   49.6960 C   0  0  0  0  0  0  0  0  0  0  0  0
   57.9210   31.9040   50.5010 C   0  0  0  0  0  0  0  0  0  0  0  0
   58.0800   31.9320   51.8920 C   0  0  0  0  0  0  0  0  0  0  0  0
   59.2150   31.3590   52.4800 C   0  0  0  0  0  0  0  0  0  0  0  0
   60.1890   30.7490   51.6790 C   0  0  0  0  0  0  0  0  0  0  0  0
   60.2640   28.1910   47.8060 C   0  0  0  0  0  0  0  0  0  0  0  0
   60.7820   27.1530   47.3070 O   0  0  0  0  0  0  0  0  0  0  0  0
   59.3000   28.9600   46.9920 C   0  0  0  0  0  0  0  0  0  0  0  0
   58.2210   28.3080   46.3840 C   0  0  0  0  0  0  0  0  0  0  0  0
   57.3250   29.0190   45.5820 C   0  0  0  0  0  0  0  0  0  0  0  0
   57.4930   30.3910   45.3840 C   0  0  0  0  0  0  0  0  0  0  0  0
   56.5990   31.0750   44.5680 O   0  0  0  0  0  0  0  0  0  0  0  0
   58.5550   31.0730   46.0080 C   0  0  0  0  0  0  0  0  0  0  0  0
   58.7570   32.4770   45.7440 N   0  0  0  0  0  0  0  0  0  0  0  0
   58.1810   33.5240   46.5380 C   0  0  0  0  0  0  0  0  0  0  0  0
   56.9770   33.4550   46.9040 O   0  0  0  0  0  0  0  0  0  0  0  0
   59.0210   34.6940   46.9530 C   0  0  0  0  0  0  0  0  0  0  0  0
   60.2390   34.2160   47.6440 N   0  0  0  0  0  0  0  0  0  0  0  0
   60.3020   34.2240   49.0130 C   0  0  0  0  0  0  0  0  0  0  0  0
   59.3050   34.5910   49.6950 O   0  0  0  0  0  0  0  0  0  0  0  0
   61.4750   33.8310   49.6680 C   0  0  0  0  0  0  0  0  0  0  0  0
   61.5540   33.8130   51.0770 C   0  0  0  0  0  0  0  0  0  0  0  0
   62.7280   33.4160   51.7160 C   0  0  0  0  0  0  0  0  0  0  0  0
   63.8340   33.0340   50.9630 C   0  0  0  0  0  0  0  0  0  0  0  0
   63.7740   33.0440   49.5680 C   0  0  0  0  0  0  0  0  0  0  0  0
   62.5920   33.4470   48.8900 C   0  0  0  0  0  0  0  0  0  0  0  0
   62.5050   33.4660   47.5120 N   0  0  0  0  0  0  0  0  0  0  0  0
   63.6580   33.0550   46.6840 C   0  0  0  0  0  0  0  0  0  0  0  0
   61.3280   33.8350   46.9010 C   0  0  0  0  0  0  0  0  0  0  0  0
   61.2410   33.8270   45.6340 O   0  0  0  0  0  0  0  0  0  0  0  0
   59.4520   30.3430   46.8160 C   0  0  0  0  0  0  0  0  0  0  0  0
   60.7119   28.0932   51.1685 H   0  0  0  0  0  0  0  0  0  0  0  0
   59.9302   26.8906   50.0871 H   0  0  0  0  0  0  0  0  0  0  0  0
   61.7175   27.0704   50.0871 H   0  0  0  0  0  0  0  0  0  0  0  0
   62.0189   30.0118   49.9318 H   0  0  0  0  0  0  0  0  0  0  0  0
   61.1174   30.5526   48.4586 H   0  0  0  0  0  0  0  0  0  0  0  0
   58.7704   31.2843   48.6029 H   0  0  0  0  0  0  0  0  0  0  0  0
   57.0322   32.3597   50.0401 H   0  0  0  0  0  0  0  0  0  0  0  0
   57.3130   32.4043   52.5234 H   0  0  0  0  0  0  0  0  0  0  0  0
   59.3416   31.3881   53.5723 H   0  0  0  0  0  0  0  0  0  0  0  0
   61.0832   30.3073   52.1430 H   0  0  0  0  0  0  0  0  0  0  0  0
   58.0776   27.2284   46.5387 H   0  0  0  0  0  0  0  0  0  0  0  0
   56.4835   28.4958   45.1044 H   0  0  0  0  0  0  0  0  0  0  0  0
   59.4520   32.7550   45.0140 H   0  0  0  0  0  0  0  0  0  0  0  0
   59.3092   35.2711   46.0620 H   0  0  0  0  0  0  0  0  0  0  0  0
   58.4423   35.3325   47.6366 H   0  0  0  0  0  0  0  0  0  0  0  0
   60.6822   34.1147   51.6761 H   0  0  0  0  0  0  0  0  0  0  0  0
   62.7798   33.4048   52.8147 H   0  0  0  0  0  0  0  0  0  0  0  0
   64.7598   32.7227   51.4690 H   0  0  0  0  0  0  0  0  0  0  0  0
   64.6545   32.7354   48.9854 H   0  0  0  0  0  0  0  0  0  0  0  0
   64.4914   32.7579   47.3376 H   0  0  0  0  0  0  0  0  0  0  0  0
   63.3688   32.2046   46.0490 H   0  0  0  0  0  0  0  0  0  0  0  0
   63.9720   33.8966   46.0490 H   0  0  0  0  0  0  0  0  0  0  0  0
   60.2817   30.8656   47.3146 H   0  0  0  0  0  0  0  0  0  0  0  0
  1  2  1  0
  2  3  1  0
  3  4  1  0
  4  5  2  0
  5  6  1  0
  6  7  2  0
  7  8  1  0
  8  9  2  0
  2 10  1  0
 10 11  2  0
 10 12  1  0
 12 13  2  0
 13 14  1  0
 14 15  2  0
 15 16  1  0
 15 17  1  0
 17 18  1  0
 18 19  1  0
 19 20  2  0
 19 21  1  0
 21 22  1  0
 22 23  1  0
 23 24  2  0
 23 25  1  0
 25 26  2  0
 26 27  1  0
 27 28  2  0
 28 29  1  0
 29 30  2  0
 30 31  1  0
 31 32  1  0
 31 33  1  0
 33 34  2  0
 17 35  2  0
  9  4  1  0
 35 12  1  0
 33 22  1  0
 30 25  1  0
  1 36  1  0
  1 37  1  0
  1 38  1  0
  3 39  1  0
  3 40  1  0
  5 41  1  0
  6 42  1  0
  7 43  1  0
  8 44  1  0
  9 45  1  0
 13 46  1  0
 14 47  1  0
 18 48  1  0
 21 49  1  0
 21 50  1  0
 26 51  1  0
 27 52  1  0
 28 53  1  0
 29 54  1  0
 32 55  1  0
 32 56  1  0
 32 57  1  0
 35 58  1  0
M  CHG  1  16  -1
M  END
>  <UniqueID>  (51) 
44

>  <SMILES>  (51) 
CN(Cc1ccccc1)C(=O)c1ccc([O-])c(NC(=O)Cn2c(=O)c3ccccc3n(C)c2=O)c1

>  <Energy>  (51) 
78.77721682426078

>  <Genealogy>  (51) 
CN(Cc1ccccc1)C(=O)c1ccc([O-])c(NC(=O)Cn2c(=O)c3ccccc3n(C)c2=O)c1 (protonated)
CN(Cc1ccccc1)C(=O)c1ccc([O-])c(NC(=O)Cn2c(=O)c3ccccc3n(C)c2=O)c1 (3D coordinates assigned)
CN(Cc1ccccc1)C(=O)c1ccc([O-])c(NC(=O)Cn2c(=O)c3ccccc3n(C)c2=O)c1 (optimized conformer: 78.77721682426078 kcal/mol)

>  <smiles>  (51) 
CN(Cc1ccccc1)C(=O)c1ccc(O)c(NC(=O)Cn2c(=O)c3ccccc3n(C)c2=O)c1

>  <score_type>  (51) 
oracle

>  <origin>  (51) 
adg

>  <m_score__min__energy>  (51) 
-11.75

>  <m_primary>  (51) 
energy

$$$$
52:0
     RDKit          3D

 30 31  0  0  0  0  0  0  0  0999 V2000
   53.4470   24.6740   45.3260 O   0  0  0  0  0  0  0  0  0  0  0  0
   54.2110   23.6890   45.1510 C   0  0  0  0  0  0  0  0  0  0  0  0
   53.8300   22.4350   45.6100 O   0  0  0  0  0  0  0  0  0  0  0  0
   55.5410   23.8770   44.4970 C   0  0  0  0  0  0  0  0  0  0  0  0
   56.4250   24.7270   45.3560 C   0  0  0  0  0  0  0  0  0  0  0  0
   58.0770   24.4810   45.5650 S   0  0  0  0  0  0  0  0  0  0  0  0
   58.2590   25.8400   46.5450 C   0  0  0  0  0  0  0  0  0  0  0  0
   59.3720   26.2770   47.0530 N   0  0  0  0  0  0  0  0  0  0  0  0
   60.0340   27.5050   46.7200 C   0  0  0  0  0  0  0  0  0  0  0  0
   60.7710   28.0450   47.5880 O   0  0  0  0  0  0  0  0  0  0  0  0
   60.0300   28.0500   45.3150 C   0  0  0  0  0  0  0  0  0  0  0  0
   58.8840   29.0050   45.0880 C   0  0  0  0  0  0  0  0  0  0  0  0
   59.1360   30.3720   44.8710 C   0  0  0  0  0  0  0  0  0  0  0  0
   58.0760   31.2620   44.6690 C   0  0  0  0  0  0  0  0  0  0  0  0
   56.7600   30.7970   44.6760 C   0  0  0  0  0  0  0  0  0  0  0  0
   56.4980   29.4390   44.8800 C   0  0  0  0  0  0  0  0  0  0  0  0
   55.1890   28.9760   44.8790 O   0  0  0  0  0  0  0  0  0  0  0  0
   57.5560   28.5450   45.0830 C   0  0  0  0  0  0  0  0  0  0  0  0
   57.0930   26.5060   46.7000 N   0  0  0  0  0  0  0  0  0  0  0  0
   56.0730   25.8930   46.0420 C   0  0  0  0  0  0  0  0  0  0  0  0
   54.7840   26.4220   46.0660 O   0  0  0  0  0  0  0  0  0  0  0  0
   56.0145   22.8954   44.3480 H   0  0  0  0  0  0  0  0  0  0  0  0
   55.3964   24.3757   43.5273 H   0  0  0  0  0  0  0  0  0  0  0  0
   60.9767   28.5809   45.1363 H   0  0  0  0  0  0  0  0  0  0  0  0
   59.9136   27.2048   44.6206 H   0  0  0  0  0  0  0  0  0  0  0  0
   60.1716   30.7427   44.8601 H   0  0  0  0  0  0  0  0  0  0  0  0
   58.2799   32.3303   44.5043 H   0  0  0  0  0  0  0  0  0  0  0  0
   55.9281   31.4998   44.5208 H   0  0  0  0  0  0  0  0  0  0  0  0
   57.3467   27.4765   45.2395 H   0  0  0  0  0  0  0  0  0  0  0  0
   54.3060   26.7080   45.2210 H   0  0  0  0  0  0  0  0  0  0  0  0
  1  2  2  0
  2  3  1  0
  2  4  1  0
  4  5  1  0
  5  6  1  0
  6  7  1  0
  7  8  2  3
  8  9  1  0
  9 10  2  0
  9 11  1  0
 11 12  1  0
 12 13  2  0
 13 14  1  0
 14 15  2  0
 15 16  1  0
 16 17  1  0
 16 18  2  0
  7 19  1  0
 19 20  1  0
 20 21  1  0
 20  5  2  0
 18 12  1  0
  4 22  1  0
  4 23  1  0
 11 24  1  0
 11 25  1  0
 13 26  1  0
 14 27  1  0
 15 28  1  0
 18 29  1  0
 21 30  1  0
M  CHG  3   3  -1  17  -1  19  -1
M  END
>  <UniqueID>  (52) 
45

>  <SMILES>  (52) 
O=C([O-])Cc1sc(=NC(=O)Cc2cccc([O-])c2)[n-]c1O

>  <Energy>  (52) 
65.1933351033621

>  <Genealogy>  (52) 
O=C([O-])Cc1sc(=NC(=O)Cc2cccc([O-])c2)[n-]c1O (protonated)
O=C([O-])Cc1sc(=NC(=O)Cc2cccc([O-])c2)[n-]c1O (3D coordinates assigned)
O=C([O-])Cc1sc(=NC(=O)Cc2cccc([O-])c2)[n-]c1O (optimized conformer: 65.1933351033621 kcal/mol)

>  <smiles>  (52) 
O=C(O)Cc1sc(=NC(=O)Cc2cccc(O)c2)[nH]c1O

>  <score_type>  (52) 
oracle

>  <origin>  (52) 
adg

>  <m_score__min__energy>  (52) 
-14.73

>  <m_primary>  (52) 
energy

$$$$
53:0
     RDKit          3D

 49 51  0  0  0  0  0  0  0  0999 V2000
   58.5865   32.7216   42.3718 H   0  0  0  0  0  0  0  0  0  0  0  0
   57.7540   32.2740   41.8090 C   0  0  0  0  0  0  0  0  0  0  0  0
   57.4630   32.7070   40.6620 O   0  0  0  0  0  0  0  0  0  0  0  0
   56.9810   31.1720   42.3930 C   0  0  0  0  0  0  0  0  0  0  0  0
   56.5129   30.4284   41.7312 H   0  0  0  0  0  0  0  0  0  0  0  0
   56.8370   31.0580   43.7170 C   0  0  0  0  0  0  0  0  0  0  0  0
   56.3002   31.8519   44.2569 H   0  0  0  0  0  0  0  0  0  0  0  0
   57.3670   29.9120   44.4900 C   0  0  0  0  0  0  0  0  0  0  0  0
   58.7580   29.7740   44.6060 C   0  0  0  0  0  0  0  0  0  0  0  0
   59.4203   30.5100   44.1269 H   0  0  0  0  0  0  0  0  0  0  0  0
   59.3100   28.7110   45.3240 C   0  0  0  0  0  0  0  0  0  0  0  0
   60.4026   28.6200   45.4131 H   0  0  0  0  0  0  0  0  0  0  0  0
   58.4790   27.7590   45.9320 C   0  0  0  0  0  0  0  0  0  0  0  0
   59.0750   26.5940   46.6790 C   0  0  0  0  0  0  0  0  0  0  0  0
   59.2773   25.7795   45.9679 H   0  0  0  0  0  0  0  0  0  0  0  0
   58.3566   26.2738   47.4480 H   0  0  0  0  0  0  0  0  0  0  0  0
   60.3850   26.9830   47.3770 C   0  0  0  0  0  0  0  0  0  0  0  0
   60.7239   27.9534   46.9853 H   0  0  0  0  0  0  0  0  0  0  0  0
   61.1286   26.1976   47.1764 H   0  0  0  0  0  0  0  0  0  0  0  0
   60.2110   27.0900   48.8260 N   0  0  0  0  0  0  0  0  0  0  0  0
   60.0240   28.2060   49.4640 C   0  0  0  0  0  0  0  0  0  0  0  0
   60.7110   28.5650   50.5730 N   0  0  0  0  0  0  0  0  0  0  0  0
   60.3080   29.7820   51.0230 C   0  0  0  0  0  0  0  0  0  0  0  0
   60.8820   30.3740   52.1410 O   0  0  0  0  0  0  0  0  0  0  0  0
   59.2950   30.3850   50.2800 C   0  0  0  0  0  0  0  0  0  0  0  0
   58.7350   31.7550   50.4950 C   0  0  0  0  0  0  0  0  0  0  0  0
   59.0571   32.1306   51.4775 H   0  0  0  0  0  0  0  0  0  0  0  0
   57.6367   31.7073   50.4568 H   0  0  0  0  0  0  0  0  0  0  0  0
   59.2250   32.6790   49.4260 C   0  0  0  0  0  0  0  0  0  0  0  0
   59.7200   33.7940   49.7460 O   0  0  0  0  0  0  0  0  0  0  0  0
   59.1440   32.2630   48.0530 N   0  0  0  0  0  0  0  0  0  0  0  0
   58.7640   32.9800   47.0330 C   0  0  0  0  0  0  0  0  0  0  0  0
   57.4570   33.0110   46.6460 N   0  0  0  0  0  0  0  0  0  0  0  0
   57.0300   33.7520   45.5900 C   0  0  0  0  0  0  0  0  0  0  0  0
   55.9662   33.7492   45.3103 H   0  0  0  0  0  0  0  0  0  0  0  0
   57.9410   34.5160   44.8610 C   0  0  0  0  0  0  0  0  0  0  0  0
   57.6017   35.1181   44.0052 H   0  0  0  0  0  0  0  0  0  0  0  0
   59.2870   34.5090   45.2280 C   0  0  0  0  0  0  0  0  0  0  0  0
   60.0140   35.1064   44.6582 H   0  0  0  0  0  0  0  0  0  0  0  0
   59.7160   33.7420   46.3220 C   0  0  0  0  0  0  0  0  0  0  0  0
   61.1680   33.7380   46.7180 C   0  0  0  0  0  0  0  0  0  0  0  0
   61.2489   33.7378   47.8150 H   0  0  0  0  0  0  0  0  0  0  0  0
   61.6557   32.8385   46.3142 H   0  0  0  0  0  0  0  0  0  0  0  0
   61.6607   34.6348   46.3142 H   0  0  0  0  0  0  0  0  0  0  0  0
   58.9070   29.3690   48.9940 S   0  0  0  0  0  0  0  0  0  0  0  0
   57.0890   27.8700   45.7880 C   0  0  0  0  0  0  0  0  0  0  0  0
   56.4317   27.1173   46.2478 H   0  0  0  0  0  0  0  0  0  0  0  0
   56.5300   28.9290   45.0650 C   0  0  0  0  0  0  0  0  0  0  0  0
   55.1500   28.9730   44.8990 O   0  0  0  0  0  0  0  0  0  0  0  0
  1  2  1  0
  2  3  2  0
  2  4  1  0
  4  5  1  0
  4  6  2  0
  6  7  1  0
  6  8  1  0
  8  9  2  0
  9 10  1  0
  9 11  1  0
 11 12  1  0
 11 13  2  0
 13 14  1  0
 14 15  1  0
 14 16  1  0
 14 17  1  0
 17 18  1  0
 17 19  1  0
 17 20  1  0
 20 21  2  3
 21 22  1  0
 22 23  1  0
 23 24  1  0
 23 25  2  0
 25 26  1  0
 26 27  1  0
 26 28  1  0
 26 29  1  0
 29 30  2  0
 29 31  1  0
 31 32  2  3
 32 33  1  0
 33 34  1  0
 34 35  1  0
 34 36  2  0
 36 37  1  0
 36 38  1  0
 38 39  1  0
 38 40  2  0
 40 41  1  0
 41 42  1  0
 41 43  1  0
 41 44  1  0
 25 45  1  0
 13 46  1  0
 46 47  1  0
 46 48  2  0
 48 49  1  0
 48  8  1  0
 45 21  1  0
 40 32  1  0
M  CHG  4  22  -1  24  -1  33  -1  49  -1
M  END
>  <UniqueID>  (53) 
46

>  <SMILES>  (53) 
Cc1ccc[n-]c1=NC(=O)Cc1sc(=NCCc2ccc(/C=C/C=O)c([O-])c2)[n-]c1[O-]

>  <Energy>  (53) 
81.8237346673722

>  <Genealogy>  (53) 
Cc1ccc[n-]c1=NC(=O)Cc1sc(=NCCc2ccc(C=CC=O)c([O-])c2)[n-]c1[O-] (protonated)
Cc1ccc[n-]c1=NC(=O)Cc1sc(=NCCc2ccc(/C=C/C=O)c([O-])c2)[n-]c1[O-] (cis-trans isomerization)
Cc1ccc[n-]c1=NC(=O)Cc1sc(=NCCc2ccc(/C=C/C=O)c([O-])c2)[n-]c1[O-] (3D coordinates assigned)
Cc1ccc[n-]c1=NC(=O)Cc1sc(=NCCc2ccc(/C=C/C=O)c([O-])c2)[n-]c1[O-] (optimized conformer: 81.8237346673722 kcal/mol)

>  <smiles>  (53) 
Cc1ccc[nH]c1=NC(=O)Cc1sc(=NCCc2ccc(C=CC=O)c(O)c2)[nH]c1O

>  <score_type>  (53) 
oracle

>  <origin>  (53) 
adg

>  <m_score__min__energy>  (53) 
-18.27

>  <m_primary>  (53) 
energy

$$$$
54:0
     RDKit          3D

 52 55  0  0  0  0  0  0  0  0999 V2000
   53.7890   28.3710   53.5180 C   0  0  0  0  0  0  0  0  0  0  0  0
   55.2390   28.4240   53.7510 N   0  0  0  0  0  0  0  0  0  0  0  0
   55.8160   27.5670   54.7970 C   0  0  0  0  0  0  0  0  0  0  0  0
   56.0870   29.3050   52.9620 C   0  0  0  0  0  0  0  0  0  0  0  0
   55.5720   30.4850   52.3800 C   0  0  0  0  0  0  0  0  0  0  0  0
   56.3900   31.3320   51.6270 C   0  0  0  0  0  0  0  0  0  0  0  0
   57.7430   31.0210   51.4220 C   0  0  0  0  0  0  0  0  0  0  0  0
   58.6110   31.8910   50.6750 N   0  0  0  0  0  0  0  0  0  0  0  0
   59.0420   33.1820   51.1310 C   0  0  0  0  0  0  0  0  0  0  0  0
   58.3740   33.8040   51.9990 O   0  0  0  0  0  0  0  0  0  0  0  0
   60.1740   33.8280   50.5370 N   0  0  0  0  0  0  0  0  0  0  0  0
   60.6210   33.6660   49.1830 C   0  0  0  0  0  0  0  0  0  0  0  0
   61.6980   32.8210   48.8560 C   0  0  0  0  0  0  0  0  0  0  0  0
   62.1200   32.7030   47.5290 C   0  0  0  0  0  0  0  0  0  0  0  0
   61.4830   33.4330   46.5220 C   0  0  0  0  0  0  0  0  0  0  0  0
   60.4250   34.2920   46.8430 C   0  0  0  0  0  0  0  0  0  0  0  0
   59.6090   35.2290   45.5530 S   0  0  0  0  0  0  0  0  0  0  0  0
   58.3630   33.9670   45.3110 C   0  0  0  0  0  0  0  0  0  0  0  0
   57.0230   34.0750   45.6540 C   0  0  0  0  0  0  0  0  0  0  0  0
   56.2790   32.9700   45.3830 N   0  0  0  0  0  0  0  0  0  0  0  0
   57.0210   31.9950   44.8170 C   0  0  0  0  0  0  0  0  0  0  0  0
   56.5180   30.8380   44.5060 N   0  0  0  0  0  0  0  0  0  0  0  0
   56.8420   29.5930   45.1400 C   0  0  0  0  0  0  0  0  0  0  0  0
   55.9590   28.6990   45.2140 O   0  0  0  0  0  0  0  0  0  0  0  0
   58.2000   29.3060   45.6370 C   0  0  0  0  0  0  0  0  0  0  0  0
   59.1650   28.5250   45.0090 C   0  0  0  0  0  0  0  0  0  0  0  0
   60.3490   28.4080   45.7470 C   0  0  0  0  0  0  0  0  0  0  0  0
   60.3190   29.0830   46.9590 C   0  0  0  0  0  0  0  0  0  0  0  0
   58.8190   29.8250   47.1130 S   0  0  0  0  0  0  0  0  0  0  0  0
   58.6420   32.4490   44.6470 S   0  0  0  0  0  0  0  0  0  0  0  0
   60.0060   34.4170   48.1740 C   0  0  0  0  0  0  0  0  0  0  0  0
   58.2690   29.8650   52.0110 C   0  0  0  0  0  0  0  0  0  0  0  0
   57.4550   29.0150   52.7640 C   0  0  0  0  0  0  0  0  0  0  0  0
   53.2629   28.3518   54.4838 H   0  0  0  0  0  0  0  0  0  0  0  0
   53.4766   29.2583   52.9479 H   0  0  0  0  0  0  0  0  0  0  0  0
   53.5422   27.4632   52.9479 H   0  0  0  0  0  0  0  0  0  0  0  0
   55.5478   27.9653   55.7867 H   0  0  0  0  0  0  0  0  0  0  0  0
   55.4209   26.5456   54.6935 H   0  0  0  0  0  0  0  0  0  0  0  0
   56.9110   27.5488   54.6935 H   0  0  0  0  0  0  0  0  0  0  0  0
   54.5116   30.7409   52.5216 H   0  0  0  0  0  0  0  0  0  0  0  0
   55.9696   32.2504   51.1913 H   0  0  0  0  0  0  0  0  0  0  0  0
   58.8780   31.6040   49.7060 H   0  0  0  0  0  0  0  0  0  0  0  0
   62.2088   32.2521   49.6468 H   0  0  0  0  0  0  0  0  0  0  0  0
   62.9557   32.0338   47.2765 H   0  0  0  0  0  0  0  0  0  0  0  0
   61.8127   33.3328   45.4774 H   0  0  0  0  0  0  0  0  0  0  0  0
   56.5970   34.9816   46.1085 H   0  0  0  0  0  0  0  0  0  0  0  0
   59.0129   28.0470   44.0300 H   0  0  0  0  0  0  0  0  0  0  0  0
   61.2210   27.8349   45.3988 H   0  0  0  0  0  0  0  0  0  0  0  0
   61.1370   29.1252   47.6933 H   0  0  0  0  0  0  0  0  0  0  0  0
   59.1894   35.1089   48.4277 H   0  0  0  0  0  0  0  0  0  0  0  0
   59.3341   29.6234   51.8796 H   0  0  0  0  0  0  0  0  0  0  0  0
   57.8861   28.1062   53.2093 H   0  0  0  0  0  0  0  0  0  0  0  0
  1  2  1  0
  2  3  1  0
  2  4  1  0
  4  5  2  0
  5  6  1  0
  6  7  2  0
  7  8  1  0
  8  9  1  0
  9 10  2  0
  9 11  1  0
 11 12  1  0
 12 13  2  0
 13 14  1  0
 14 15  2  0
 15 16  1  0
 16 17  1  0
 17 18  1  0
 18 19  2  0
 19 20  1  0
 20 21  1  0
 21 22  2  3
 22 23  1  0
 23 24  2  0
 23 25  1  0
 25 26  2  0
 26 27  1  0
 27 28  2  0
 28 29  1  0
 21 30  1  0
 16 31  2  0
  7 32  1  0
 32 33  2  0
 33  4  1  0
 31 12  1  0
 30 18  1  0
 29 25  1  0
  1 34  1  0
  1 35  1  0
  1 36  1  0
  3 37  1  0
  3 38  1  0
  3 39  1  0
  5 40  1  0
  6 41  1  0
  8 42  1  0
 13 43  1  0
 14 44  1  0
 15 45  1  0
 19 46  1  0
 26 47  1  0
 27 48  1  0
 28 49  1  0
 31 50  1  0
 32 51  1  0
 33 52  1  0
M  CHG  2  11  -1  20  -1
M  END
>  <UniqueID>  (54) 
47

>  <SMILES>  (54) 
CN(C)c1ccc(NC(=O)[N-]c2cccc(Sc3c[n-]c(=NC(=O)c4cccs4)s3)c2)cc1

>  <Energy>  (54) 
123.57283897286129

>  <Genealogy>  (54) 
CN(C)c1ccc(NC(=O)[N-]c2cccc(Sc3c[n-]c(=NC(=O)c4cccs4)s3)c2)cc1 (protonated)
CN(C)c1ccc(NC(=O)[N-]c2cccc(Sc3c[n-]c(=NC(=O)c4cccs4)s3)c2)cc1 (3D coordinates assigned)
CN(C)c1ccc(NC(=O)[N-]c2cccc(Sc3c[n-]c(=NC(=O)c4cccs4)s3)c2)cc1 (optimized conformer: 123.57283897286129 kcal/mol)

>  <smiles>  (54) 
CN(C)c1ccc(NC(=O)Nc2cccc(Sc3c[nH]c(=NC(=O)c4cccs4)s3)c2)cc1

>  <score_type>  (54) 
oracle

>  <origin>  (54) 
adg

>  <m_score__min__energy>  (54) 
-12.720000000000001

>  <m_primary>  (54) 
energy

$$$$
55:0
     RDKit          3D

 37 38  0  0  0  0  0  0  0  0999 V2000
   53.9110   26.3730   46.3830 H   0  0  0  0  0  0  0  0  0  0  0  0
   54.8020   26.0300   45.9570 N   0  0  0  0  0  0  0  0  0  0  0  0
   55.8990   26.7170   45.9910 C   0  0  0  0  0  0  0  0  0  0  0  0
   55.9460   27.9260   45.3790 N   0  0  0  0  0  0  0  0  0  0  0  0
   57.0600   28.7060   45.3770 C   0  0  0  0  0  0  0  0  0  0  0  0
   56.9960   30.0220   44.6570 C   0  0  0  0  0  0  0  0  0  0  0  0
   56.9562   30.8401   45.3912 H   0  0  0  0  0  0  0  0  0  0  0  0
   57.8895   30.1386   44.0261 H   0  0  0  0  0  0  0  0  0  0  0  0
   56.0954   30.0514   44.0261 H   0  0  0  0  0  0  0  0  0  0  0  0
   58.2260   28.2710   46.0590 C   0  0  0  0  0  0  0  0  0  0  0  0
   59.4770   29.1230   46.0710 C   0  0  0  0  0  0  0  0  0  0  0  0
   60.3517   28.4940   45.8489 H   0  0  0  0  0  0  0  0  0  0  0  0
   59.3915   29.9123   45.3097 H   0  0  0  0  0  0  0  0  0  0  0  0
   59.6360   29.7300   47.3860 N   0  0  0  0  0  0  0  0  0  0  0  0
   60.5260   30.8210   47.6350 C   0  0  0  0  0  0  0  0  0  0  0  0
   61.4970   30.6810   48.4260 O   0  0  0  0  0  0  0  0  0  0  0  0
   60.3060   32.1080   46.9660 C   0  0  0  0  0  0  0  0  0  0  0  0
   61.2080   33.1480   46.8290 C   0  0  0  0  0  0  0  0  0  0  0  0
   62.2349   33.1576   47.2231 H   0  0  0  0  0  0  0  0  0  0  0  0
   60.6280   34.1470   46.1360 N   0  0  0  0  0  0  0  0  0  0  0  0
   59.3930   33.7700   45.8470 N   0  0  0  0  0  0  0  0  0  0  0  0
   58.4660   34.5670   45.0480 C   0  0  0  0  0  0  0  0  0  0  0  0
   58.5276   35.6193   45.3623 H   0  0  0  0  0  0  0  0  0  0  0  0
   58.7375   34.4754   43.9860 H   0  0  0  0  0  0  0  0  0  0  0  0
   57.0400   34.0670   45.2410 C   0  0  0  0  0  0  0  0  0  0  0  0
   56.8208   33.9901   46.3162 H   0  0  0  0  0  0  0  0  0  0  0  0
   56.3376   34.7725   44.7731 H   0  0  0  0  0  0  0  0  0  0  0  0
   56.9320   33.0774   44.7731 H   0  0  0  0  0  0  0  0  0  0  0  0
   59.1610   32.5330   46.3230 C   0  0  0  0  0  0  0  0  0  0  0  0
   58.2263   31.9626   46.2184 H   0  0  0  0  0  0  0  0  0  0  0  0
   58.2110   26.9890   46.6670 C   0  0  0  0  0  0  0  0  0  0  0  0
   59.4240   26.4290   47.3670 C   0  0  0  0  0  0  0  0  0  0  0  0
   59.2819   26.4946   48.4558 H   0  0  0  0  0  0  0  0  0  0  0  0
   59.5609   25.3766   47.0779 H   0  0  0  0  0  0  0  0  0  0  0  0
   60.3138   27.0074   47.0779 H   0  0  0  0  0  0  0  0  0  0  0  0
   57.0340   26.2270   46.6430 C   0  0  0  0  0  0  0  0  0  0  0  0
   57.0041   25.2446   47.1369 H   0  0  0  0  0  0  0  0  0  0  0  0
  1  2  1  0
  2  3  2  0
  3  4  1  0
  4  5  1  0
  5  6  1  0
  6  7  1  0
  6  8  1  0
  6  9  1  0
  5 10  2  0
 10 11  1  0
 11 12  1  0
 11 13  1  0
 11 14  1  0
 14 15  1  0
 15 16  2  0
 15 17  1  0
 17 18  1  0
 18 19  1  0
 18 20  2  0
 20 21  1  0
 21 22  1  0
 22 23  1  0
 22 24  1  0
 22 25  1  0
 25 26  1  0
 25 27  1  0
 25 28  1  0
 21 29  1  0
 29 30  1  0
 10 31  1  0
 31 32  1  0
 32 33  1  0
 32 34  1  0
 32 35  1  0
 31 36  2  0
 36 37  1  0
 36  3  1  0
 29 17  2  0
M  CHG  2   4  -1  14  -1
M  END
>  <UniqueID>  (55) 
48

>  <SMILES>  (55) 
[H]/N=c1\cc(C)c(C[N-]C(=O)c2cnn(CC)c2)c(C)[n-]1

>  <Energy>  (55) 
61.91768889302942

>  <Genealogy>  (55) 
CCn1cc(C(=O)[N-]Cc2c(C)cc(=N)[n-]c2C)cn1 (protonated)
[H]/N=c1\cc(C)c(C[N-]C(=O)c2cnn(CC)c2)c(C)[n-]1 (cis-trans isomerization)
[H]/N=c1\cc(C)c(C[N-]C(=O)c2cnn(CC)c2)c(C)[n-]1 (3D coordinates assigned)
[H]/N=c1\cc(C)c(C[N-]C(=O)c2cnn(CC)c2)c(C)[n-]1 (optimized conformer: 61.91768889302942 kcal/mol)

>  <smiles>  (55) 
CCn1cc(C(=O)NCc2c(C)cc(=N)[nH]c2C)cn1

>  <score_type>  (55) 
oracle

>  <origin>  (55) 
adg

>  <m_score__min__energy>  (55) 
-9.7200000000000006

>  <m_primary>  (55) 
energy

$$$$
56:0
     RDKit          3D

 56 59  0  0  0  0  0  0  0  0999 V2000
   56.2601   21.2614   41.6113 H   0  0  0  0  0  0  0  0  0  0  0  0
   56.5820   21.5560   42.6210 C   0  0  0  0  0  0  0  0  0  0  0  0
   55.7730   22.3290   43.3930 N   0  0  0  0  0  0  0  0  0  0  0  0
   56.1250   22.7200   44.6490 C   0  0  0  0  0  0  0  0  0  0  0  0
   55.2960   23.4630   45.3230 N   0  0  0  0  0  0  0  0  0  0  0  0
   55.5730   24.1510   46.5840 C   0  0  0  0  0  0  0  0  0  0  0  0
   56.4325   23.6738   47.0775 H   0  0  0  0  0  0  0  0  0  0  0  0
   54.6861   24.0865   47.2315 H   0  0  0  0  0  0  0  0  0  0  0  0
   55.8950   25.6270   46.3200 C   0  0  0  0  0  0  0  0  0  0  0  0
   56.2398   26.0825   47.2600 H   0  0  0  0  0  0  0  0  0  0  0  0
   54.9752   26.0983   45.9433 H   0  0  0  0  0  0  0  0  0  0  0  0
   56.9820   25.8320   45.2510 C   0  0  0  0  0  0  0  0  0  0  0  0
   56.5135   26.2491   44.3474 H   0  0  0  0  0  0  0  0  0  0  0  0
   57.4440   24.8535   45.0531 H   0  0  0  0  0  0  0  0  0  0  0  0
   58.0690   26.7660   45.7050 C   0  0  0  0  0  0  0  0  0  0  0  0
   58.9480   26.4520   46.6780 N   0  0  0  0  0  0  0  0  0  0  0  0
   59.7710   27.5190   46.7240 C   0  0  0  0  0  0  0  0  0  0  0  0
   60.7350   27.6000   47.5290 O   0  0  0  0  0  0  0  0  0  0  0  0
   59.4620   28.4830   45.8300 N   0  0  0  0  0  0  0  0  0  0  0  0
   60.1530   29.7640   45.6470 C   0  0  0  0  0  0  0  0  0  0  0  0
   61.2147   29.6431   45.9081 H   0  0  0  0  0  0  0  0  0  0  0  0
   60.0538   30.0748   44.5965 H   0  0  0  0  0  0  0  0  0  0  0  0
   59.5440   30.8220   46.5270 C   0  0  0  0  0  0  0  0  0  0  0  0
   59.2680   32.0950   46.0060 C   0  0  0  0  0  0  0  0  0  0  0  0
   59.4773   32.3112   44.9480 H   0  0  0  0  0  0  0  0  0  0  0  0
   58.7290   33.0880   46.8250 C   0  0  0  0  0  0  0  0  0  0  0  0
   58.5111   34.0827   46.4089 H   0  0  0  0  0  0  0  0  0  0  0  0
   58.4650   32.8240   48.1710 C   0  0  0  0  0  0  0  0  0  0  0  0
   58.0434   33.6134   48.8106 H   0  0  0  0  0  0  0  0  0  0  0  0
   58.7350   31.5550   48.7130 C   0  0  0  0  0  0  0  0  0  0  0  0
   58.4820   31.2790   50.1490 C   0  0  0  0  0  0  0  0  0  0  0  0
   58.0160   32.2960   51.0040 C   0  0  0  0  0  0  0  0  0  0  0  0
   57.8356   33.3050   50.6047 H   0  0  0  0  0  0  0  0  0  0  0  0
   57.7810   32.0330   52.3560 C   0  0  0  0  0  0  0  0  0  0  0  0
   57.4158   32.8338   53.0158 H   0  0  0  0  0  0  0  0  0  0  0  0
   58.0090   30.7550   52.8710 C   0  0  0  0  0  0  0  0  0  0  0  0
   57.8233   30.5499   53.9356 H   0  0  0  0  0  0  0  0  0  0  0  0
   58.4730   29.7370   52.0340 C   0  0  0  0  0  0  0  0  0  0  0  0
   58.6529   28.7311   52.4411 H   0  0  0  0  0  0  0  0  0  0  0  0
   58.7090   29.9940   50.6810 C   0  0  0  0  0  0  0  0  0  0  0  0
   59.0742   29.1883   50.0271 H   0  0  0  0  0  0  0  0  0  0  0  0
   59.2660   30.5550   47.8770 C   0  0  0  0  0  0  0  0  0  0  0  0
   59.4653   29.5534   48.2858 H   0  0  0  0  0  0  0  0  0  0  0  0
   58.3780   28.0110   45.1750 C   0  0  0  0  0  0  0  0  0  0  0  0
   57.6060   28.7460   44.1090 C   0  0  0  0  0  0  0  0  0  0  0  0
   57.2110   28.0178   43.3853 H   0  0  0  0  0  0  0  0  0  0  0  0
   58.2849   29.4555   43.6133 H   0  0  0  0  0  0  0  0  0  0  0  0
   56.4650   29.5150   44.7010 C   0  0  0  0  0  0  0  0  0  0  0  0
   55.3420   28.9700   44.8640 O   0  0  0  0  0  0  0  0  0  0  0  0
   56.6560   30.8280   45.1130 O   0  0  0  0  0  0  0  0  0  0  0  0
   57.3700   22.3120   45.1710 C   0  0  0  0  0  0  0  0  0  0  0  0
   57.6744   22.6170   46.1831 H   0  0  0  0  0  0  0  0  0  0  0  0
   58.2130   21.5170   44.3910 C   0  0  0  0  0  0  0  0  0  0  0  0
   59.1859   21.1917   44.7881 H   0  0  0  0  0  0  0  0  0  0  0  0
   57.8200   21.1360   43.1080 C   0  0  0  0  0  0  0  0  0  0  0  0
   58.4789   20.5113   42.4871 H   0  0  0  0  0  0  0  0  0  0  0  0
  1  2  1  0
  2  3  1  0
  3  4  1  0
  4  5  2  0
  5  6  1  0
  6  7  1  0
  6  8  1  0
  6  9  1  0
  9 10  1  0
  9 11  1  0
  9 12  1  0
 12 13  1  0
 12 14  1  0
 12 15  1  0
 15 16  1  0
 16 17  1  0
 17 18  2  0
 17 19  1  0
 19 20  1  0
 20 21  1  0
 20 22  1  0
 20 23  1  0
 23 24  2  0
 24 25  1  0
 24 26  1  0
 26 27  1  0
 26 28  2  0
 28 29  1  0
 28 30  1  0
 30 31  1  0
 31 32  2  0
 32 33  1  0
 32 34  1  0
 34 35  1  0
 34 36  2  0
 36 37  1  0
 36 38  1  0
 38 39  1  0
 38 40  2  0
 40 41  1  0
 30 42  2  0
 42 43  1  0
 19 44  1  0
 44 45  1  0
 45 46  1  0
 45 47  1  0
 45 48  1  0
 48 49  2  0
 48 50  1  0
  4 51  1  0
 51 52  1  0
 51 53  2  0
 53 54  1  0
 53 55  1  0
 55 56  1  0
 55  2  2  0
 44 15  2  0
 42 23  1  0
 40 31  1  0
M  CHG  3   3  -1  16  -1  50  -1
M  END
>  <UniqueID>  (56) 
49

>  <SMILES>  (56) 
O=C([O-])Cc1c(CCC/N=c2\cccc[n-]2)[n-]c(=O)n1Cc1cccc(-c2ccccc2)c1

>  <Energy>  (56) 
89.75976478147113

>  <Genealogy>  (56) 
O=C([O-])Cc1c(CCCN=c2cccc[n-]2)[n-]c(=O)n1Cc1cccc(-c2ccccc2)c1 (protonated)
O=C([O-])Cc1c(CCC/N=c2\cccc[n-]2)[n-]c(=O)n1Cc1cccc(-c2ccccc2)c1 (cis-trans isomerization)
O=C([O-])Cc1c(CCC/N=c2\cccc[n-]2)[n-]c(=O)n1Cc1cccc(-c2ccccc2)c1 (3D coordinates assigned)
O=C([O-])Cc1c(CCC/N=c2\cccc[n-]2)[n-]c(=O)n1Cc1cccc(-c2ccccc2)c1 (optimized conformer: 89.75976478147113 kcal/mol)

>  <smiles>  (56) 
O=C(O)Cc1c(CCCN=c2cccc[nH]2)[nH]c(=O)n1Cc1cccc(-c2ccccc2)c1

>  <score_type>  (56) 
oracle

>  <origin>  (56) 
adg

>  <m_score__min__energy>  (56) 
-14.4

>  <m_primary>  (56) 
energy

$$$$
57:0
     RDKit          3D

 56 58  0  0  0  0  0  0  0  0999 V2000
   56.3180   25.6130   45.6330 C   0  0  0  0  0  0  0  0  0  0  0  0
   56.0640   27.0130   45.6390 O   0  0  0  0  0  0  0  0  0  0  0  0
   57.0150   27.9910   45.9700 C   0  0  0  0  0  0  0  0  0  0  0  0
   57.1340   29.1940   45.2580 C   0  0  0  0  0  0  0  0  0  0  0  0
   58.1030   30.1310   45.6160 C   0  0  0  0  0  0  0  0  0  0  0  0
   58.9780   29.8880   46.6930 C   0  0  0  0  0  0  0  0  0  0  0  0
   59.9790   30.8130   47.0400 O   0  0  0  0  0  0  0  0  0  0  0  0
   61.3700   30.6920   46.7450 C   0  0  0  0  0  0  0  0  0  0  0  0
   62.2140   31.4110   47.7680 C   0  0  0  0  0  0  0  0  0  0  0  0
   63.3990   31.6110   47.5350 O   0  0  0  0  0  0  0  0  0  0  0  0
   61.6430   31.8120   49.0400 N   0  0  1  0  0  0  0  0  0  0  0  0
   62.4470   31.2340   50.1340 C   0  0  0  0  0  0  0  0  0  0  0  0
   61.5630   33.2980   49.1390 C   0  0  0  0  0  0  0  0  0  0  0  0
   61.0530   33.9570   47.8410 C   0  0  0  0  0  0  0  0  0  0  0  0
   59.6600   34.5790   47.9960 C   0  0  0  0  0  0  0  0  0  0  0  0
   58.7850   34.1350   46.9130 N   0  0  0  0  0  0  0  0  0  0  0  0
   58.9350   34.3800   45.6010 C   0  0  0  0  0  0  0  0  0  0  0  0
   57.9200   33.7300   44.9340 C   0  0  0  0  0  0  0  0  0  0  0  0
   57.1450   33.0680   45.8200 N   0  0  0  0  0  0  0  0  0  0  0  0
   57.7060   33.3340   47.0190 C   0  0  0  0  0  0  0  0  0  0  0  0
   58.8510   28.6830   47.4320 C   0  0  0  0  0  0  0  0  0  0  0  0
   59.7280   28.3740   48.5990 C   0  0  0  0  0  0  0  0  0  0  0  0
   60.2740   27.2390   48.6780 O   0  0  0  0  0  0  0  0  0  0  0  0
   60.0100   29.3800   49.5870 N   0  0  0  0  0  0  0  0  0  0  0  0
   59.1830   30.1770   50.2040 C   0  0  0  0  0  0  0  0  0  0  0  0
   58.4020   29.7710   51.3090 C   0  0  0  0  0  0  0  0  0  0  0  0
   57.5150   30.6800   51.8950 C   0  0  0  0  0  0  0  0  0  0  0  0
   57.4050   31.9740   51.3840 C   0  0  0  0  0  0  0  0  0  0  0  0
   58.1820   32.3440   50.2850 C   0  0  0  0  0  0  0  0  0  0  0  0
   59.0380   31.4460   49.7260 N   0  0  0  0  0  0  0  0  0  0  0  0
   57.8670   27.7500   47.0510 C   0  0  0  0  0  0  0  0  0  0  0  0
   56.3842   25.2479   46.6685 H   0  0  0  0  0  0  0  0  0  0  0  0
   55.4993   25.0940   45.1129 H   0  0  0  0  0  0  0  0  0  0  0  0
   57.2668   25.4147   45.1129 H   0  0  0  0  0  0  0  0  0  0  0  0
   56.4598   29.3992   44.4134 H   0  0  0  0  0  0  0  0  0  0  0  0
   58.1850   31.0710   45.0506 H   0  0  0  0  0  0  0  0  0  0  0  0
   61.6435   29.6266   46.7403 H   0  0  0  0  0  0  0  0  0  0  0  0
   61.5561   31.1470   45.7610 H   0  0  0  0  0  0  0  0  0  0  0  0
   60.6830   31.3930   49.1110 H   0  0  0  0  0  0  0  0  0  0  0  0
   62.0225   31.5392   51.1018 H   0  0  0  0  0  0  0  0  0  0  0  0
   62.4347   30.1367   50.0579 H   0  0  0  0  0  0  0  0  0  0  0  0
   63.4832   31.5952   50.0579 H   0  0  0  0  0  0  0  0  0  0  0  0
   60.8774   33.5592   49.9586 H   0  0  0  0  0  0  0  0  0  0  0  0
   62.5806   33.6729   49.3230 H   0  0  0  0  0  0  0  0  0  0  0  0
   61.7597   34.7471   47.5472 H   0  0  0  0  0  0  0  0  0  0  0  0
   60.9799   33.1690   47.0770 H   0  0  0  0  0  0  0  0  0  0  0  0
   59.2297   34.2706   48.9602 H   0  0  0  0  0  0  0  0  0  0  0  0
   59.7502   35.6746   47.9579 H   0  0  0  0  0  0  0  0  0  0  0  0
   59.7265   34.9903   45.1415 H   0  0  0  0  0  0  0  0  0  0  0  0
   57.7644   33.7475   43.8452 H   0  0  0  0  0  0  0  0  0  0  0  0
   57.3258   32.9417   47.9737 H   0  0  0  0  0  0  0  0  0  0  0  0
   58.4907   28.7487   51.7052 H   0  0  0  0  0  0  0  0  0  0  0  0
   56.9047   30.3752   52.7579 H   0  0  0  0  0  0  0  0  0  0  0  0
   56.7127   32.6953   51.8428 H   0  0  0  0  0  0  0  0  0  0  0  0
   58.1024   33.3602   49.8714 H   0  0  0  0  0  0  0  0  0  0  0  0
   57.7671   26.8117   47.6164 H   0  0  0  0  0  0  0  0  0  0  0  0
  1  2  1  0
  2  3  1  0
  3  4  2  0
  4  5  1  0
  5  6  2  0
  6  7  1  0
  7  8  1  0
  8  9  1  0
  9 10  2  0
  9 11  1  0
 11 12  1  0
 11 13  1  0
 13 14  1  0
 14 15  1  0
 15 16  1  0
 16 17  1  0
 17 18  2  0
 18 19  1  0
 19 20  2  0
  6 21  1  0
 21 22  1  0
 22 23  2  0
 22 24  1  0
 24 25  2  3
 25 26  1  0
 26 27  2  0
 27 28  1  0
 28 29  2  0
 29 30  1  0
 21 31  2  0
 31  3  1  0
 20 16  1  0
 30 25  1  0
  1 32  1  0
  1 33  1  0
  1 34  1  0
  4 35  1  0
  5 36  1  0
  8 37  1  0
  8 38  1  0
 11 39  1  6
 12 40  1  0
 12 41  1  0
 12 42  1  0
 13 43  1  0
 13 44  1  0
 14 45  1  0
 14 46  1  0
 15 47  1  0
 15 48  1  0
 17 49  1  0
 18 50  1  0
 20 51  1  0
 26 52  1  0
 27 53  1  0
 28 54  1  0
 29 55  1  0
 31 56  1  0
M  CHG  2  11   1  30  -1
M  END
>  <UniqueID>  (57) 
50

>  <SMILES>  (57) 
COc1ccc(OCC(=O)[N@@H+](C)CCCn2ccnc2)c(C(=O)N=c2cccc[n-]2)c1

>  <Energy>  (57) 
97.23945854099892

>  <Genealogy>  (57) 
COc1ccc(OCC(=O)[NH+](C)CCCn2ccnc2)c(C(=O)N=c2cccc[n-]2)c1 (protonated)
COc1ccc(OCC(=O)[N@@H+](C)CCCn2ccnc2)c(C(=O)N=c2cccc[n-]2)c1 (chirality)
COc1ccc(OCC(=O)[N@@H+](C)CCCn2ccnc2)c(C(=O)N=c2cccc[n-]2)c1 (3D coordinates assigned)
COc1ccc(OCC(=O)[N@@H+](C)CCCn2ccnc2)c(C(=O)N=c2cccc[n-]2)c1 (optimized conformer: 97.23945854099892 kcal/mol)

>  <smiles>  (57) 
COc1ccc(OCC(=O)N(C)CCCn2ccnc2)c(C(=O)N=c2cccc[nH]2)c1

>  <score_type>  (57) 
oracle

>  <origin>  (57) 
adg

>  <m_score__min__energy>  (57) 
-7.9699999999999998

>  <m_primary>  (57) 
energy

$$$$
58:0
     RDKit          3D

 50 53  0  0  0  0  0  0  0  0999 V2000
   54.2530   26.7250   46.7510 H   0  0  0  0  0  0  0  0  0  0  0  0
   55.0920   26.7040   46.1850 O   0  0  0  0  0  0  0  0  0  0  0  0
   55.9430   25.6040   46.2200 C   0  0  0  0  0  0  0  0  0  0  0  0
   55.8280   24.5940   47.0970 N   0  0  0  0  0  0  0  0  0  0  0  0
   56.8820   23.8090   46.7840 C   0  0  0  0  0  0  0  0  0  0  0  0
   57.1350   22.7400   47.3980 O   0  0  0  0  0  0  0  0  0  0  0  0
   57.6500   24.2660   45.7720 N   0  0  0  0  0  0  0  0  0  0  0  0
   57.0280   25.3970   45.3970 C   0  0  0  0  0  0  0  0  0  0  0  0
   57.5650   26.3240   44.3890 C   0  0  0  0  0  0  0  0  0  0  0  0
   57.7321   25.9247   43.3778 H   0  0  0  0  0  0  0  0  0  0  0  0
   57.8700   27.6200   44.5970 C   0  0  0  0  0  0  0  0  0  0  0  0
   57.6840   28.5970   43.6330 C   0  0  0  0  0  0  0  0  0  0  0  0
   57.2309   28.4594   42.6401 H   0  0  0  0  0  0  0  0  0  0  0  0
   58.1750   29.7750   44.1550 C   0  0  0  0  0  0  0  0  0  0  0  0
   58.1870   31.0870   43.4300 C   0  0  0  0  0  0  0  0  0  0  0  0
   58.1945   31.9095   44.1604 H   0  0  0  0  0  0  0  0  0  0  0  0
   59.0857   31.1489   42.7988 H   0  0  0  0  0  0  0  0  0  0  0  0
   57.2895   31.1654   42.7988 H   0  0  0  0  0  0  0  0  0  0  0  0
   58.6150   29.5810   45.4180 N   0  0  0  0  0  0  0  0  0  0  0  0
   59.1680   30.5920   46.2810 C   0  0  0  0  0  0  0  0  0  0  0  0
   60.3590   30.3480   46.9770 C   0  0  0  0  0  0  0  0  0  0  0  0
   60.8687   29.3795   46.8666 H   0  0  0  0  0  0  0  0  0  0  0  0
   60.9030   31.3290   47.8110 C   0  0  0  0  0  0  0  0  0  0  0  0
   61.8430   31.1311   48.3469 H   0  0  0  0  0  0  0  0  0  0  0  0
   60.2560   32.5670   47.9690 C   0  0  0  0  0  0  0  0  0  0  0  0
   60.8430   33.6060   48.8450 C   0  0  0  0  0  0  0  0  0  0  0  0
   60.2460   34.7100   48.9690 O   0  0  0  0  0  0  0  0  0  0  0  0
   62.0730   33.3860   49.5630 N   0  0  0  0  0  0  0  0  0  0  0  0
   62.2800   34.0500   50.8540 C   0  0  0  0  0  0  0  0  0  0  0  0
   62.3421   35.1367   50.6954 H   0  0  0  0  0  0  0  0  0  0  0  0
   61.4349   33.8089   51.5156 H   0  0  0  0  0  0  0  0  0  0  0  0
   63.5770   33.5620   51.5120 C   0  0  0  0  0  0  0  0  0  0  0  0
   63.7557   34.1494   52.4247 H   0  0  0  0  0  0  0  0  0  0  0  0
   63.4602   32.4933   51.7450 H   0  0  0  0  0  0  0  0  0  0  0  0
   64.7360   33.7100   50.6160 N   0  0  0  0  0  0  0  0  0  0  0  0
   65.0280   34.7160   50.6230 H   0  0  0  0  0  0  0  0  0  0  0  0
   64.5000   33.2950   49.2140 C   0  0  0  0  0  0  0  0  0  0  0  0
   64.5245   34.1927   48.5788 H   0  0  0  0  0  0  0  0  0  0  0  0
   65.2900   32.5734   48.9586 H   0  0  0  0  0  0  0  0  0  0  0  0
   63.1600   32.5830   48.9910 C   0  0  0  0  0  0  0  0  0  0  0  0
   62.9900   32.4529   47.9120 H   0  0  0  0  0  0  0  0  0  0  0  0
   63.1838   31.5990   49.4820 H   0  0  0  0  0  0  0  0  0  0  0  0
   59.0710   32.8140   47.2550 C   0  0  0  0  0  0  0  0  0  0  0  0
   58.5674   33.7871   47.3525 H   0  0  0  0  0  0  0  0  0  0  0  0
   58.5280   31.8320   46.4220 C   0  0  0  0  0  0  0  0  0  0  0  0
   57.5950   32.0324   45.8748 H   0  0  0  0  0  0  0  0  0  0  0  0
   58.4110   28.2720   45.7170 C   0  0  0  0  0  0  0  0  0  0  0  0
   58.5660   27.7670   46.9510 C   0  0  0  0  0  0  0  0  0  0  0  0
   59.0064   28.3854   47.7470 H   0  0  0  0  0  0  0  0  0  0  0  0
   58.2526   26.7348   47.1662 H   0  0  0  0  0  0  0  0  0  0  0  0
  1  2  1  0
  2  3  1  0
  3  4  1  0
  4  5  1  0
  5  6  2  0
  5  7  1  0
  7  8  1  0
  8  9  1  0
  9 10  1  0
  9 11  2  0
 11 12  1  0
 12 13  1  0
 12 14  2  0
 14 15  1  0
 15 16  1  0
 15 17  1  0
 15 18  1  0
 14 19  1  0
 19 20  1  0
 20 21  2  0
 21 22  1  0
 21 23  1  0
 23 24  1  0
 23 25  2  0
 25 26  1  0
 26 27  2  0
 26 28  1  0
 28 29  1  0
 29 30  1  0
 29 31  1  0
 29 32  1  0
 32 33  1  0
 32 34  1  0
 32 35  1  0
 35 36  1  0
 35 37  1  0
 37 38  1  0
 37 39  1  0
 37 40  1  0
 40 41  1  0
 40 42  1  0
 25 43  1  0
 43 44  1  0
 43 45  2  0
 45 46  1  0
 19 47  1  0
 47 48  2  0
 48 49  1  0
 48 50  1  0
  8  3  2  0
 47 11  1  0
 45 20  1  0
 40 28  1  0
M  CHG  2   4  -1   7  -1
M  END
>  <UniqueID>  (58) 
51

>  <SMILES>  (58) 
C=c1/c(=C\c2[n-]c(=O)[n-]c2O)cc(C)n1-c1ccc(C(=O)N2CCNCC2)cc1

>  <Energy>  (58) 
136.70190757682352

>  <Genealogy>  (58) 
C=c1c(=Cc2[n-]c(=O)[n-]c2O)cc(C)n1-c1ccc(C(=O)N2CCNCC2)cc1 (protonated)
C=c1/c(=C\c2[n-]c(=O)[n-]c2O)cc(C)n1-c1ccc(C(=O)N2CCNCC2)cc1 (cis-trans isomerization)
C=c1/c(=C\c2[n-]c(=O)[n-]c2O)cc(C)n1-c1ccc(C(=O)N2CCNCC2)cc1 (3D coordinates assigned)
C=c1/c(=C\c2[n-]c(=O)[n-]c2O)cc(C)n1-c1ccc(C(=O)N2CCNCC2)cc1 (nonaromatic ring conformer: 136.70190757682352 kcal/mol)

>  <smiles>  (58) 
C=c1c(=Cc2[nH]c(=O)[nH]c2O)cc(C)n1-c1ccc(C(=O)N2CCNCC2)cc1

>  <score_type>  (58) 
oracle

>  <origin>  (58) 
adg

>  <m_score__min__energy>  (58) 
-13.09

>  <m_primary>  (58) 
energy

$$$$
59:0
     RDKit          3D

 48 51  0  0  0  0  0  0  0  0999 V2000
   61.7488   30.2421   50.1591 H   0  0  0  0  0  0  0  0  0  0  0  0
   60.9820   30.0110   49.4050 C   0  0  0  0  0  0  0  0  0  0  0  0
   59.8200   28.8030   49.5220 S   0  0  0  0  0  0  0  0  0  0  0  0
   59.1480   29.1700   48.0170 C   0  0  0  0  0  0  0  0  0  0  0  0
   58.1430   28.5630   47.4600 N   0  0  0  0  0  0  0  0  0  0  0  0
   58.1550   27.9980   46.1400 C   0  0  0  0  0  0  0  0  0  0  0  0
   58.9190   28.6190   45.1460 C   0  0  0  0  0  0  0  0  0  0  0  0
   59.5057   29.5175   45.3876 H   0  0  0  0  0  0  0  0  0  0  0  0
   58.9400   28.1030   43.8480 C   0  0  0  0  0  0  0  0  0  0  0  0
   59.5551   28.5860   43.0744 H   0  0  0  0  0  0  0  0  0  0  0  0
   58.1810   26.9750   43.5320 C   0  0  0  0  0  0  0  0  0  0  0  0
   58.2060   26.5644   42.5118 H   0  0  0  0  0  0  0  0  0  0  0  0
   57.3900   26.3670   44.5090 C   0  0  0  0  0  0  0  0  0  0  0  0
   56.7916   25.4799   44.2540 H   0  0  0  0  0  0  0  0  0  0  0  0
   57.3540   26.8830   45.8190 C   0  0  0  0  0  0  0  0  0  0  0  0
   56.5250   26.3360   46.8110 O   0  0  0  0  0  0  0  0  0  0  0  0
   56.4440   24.9500   47.1270 C   0  0  0  0  0  0  0  0  0  0  0  0
   56.4366   24.8229   48.2196 H   0  0  0  0  0  0  0  0  0  0  0  0
   55.5198   24.5306   46.7028 H   0  0  0  0  0  0  0  0  0  0  0  0
   57.3130   24.4258   46.7028 H   0  0  0  0  0  0  0  0  0  0  0  0
   59.7940   30.1890   47.4140 N   0  0  0  0  0  0  0  0  0  0  0  0
   60.8080   30.6720   48.1860 C   0  0  0  0  0  0  0  0  0  0  0  0
   61.6460   31.8160   47.7490 C   0  0  0  0  0  0  0  0  0  0  0  0
   62.9860   31.8930   48.1740 C   0  0  0  0  0  0  0  0  0  0  0  0
   63.3775   31.1450   48.8792 H   0  0  0  0  0  0  0  0  0  0  0  0
   63.8250   32.9120   47.7080 C   0  0  0  0  0  0  0  0  0  0  0  0
   64.8672   32.9662   48.0555 H   0  0  0  0  0  0  0  0  0  0  0  0
   63.3430   33.8590   46.8040 C   0  0  0  0  0  0  0  0  0  0  0  0
   64.0098   34.6475   46.4249 H   0  0  0  0  0  0  0  0  0  0  0  0
   62.0140   33.8050   46.3810 C   0  0  0  0  0  0  0  0  0  0  0  0
   61.6406   34.5495   45.6624 H   0  0  0  0  0  0  0  0  0  0  0  0
   61.1480   32.8090   46.8640 C   0  0  0  0  0  0  0  0  0  0  0  0
   59.7740   32.8400   46.4490 N   0  0  0  0  0  0  0  0  0  0  0  0
   59.4090   32.0150   45.9220 H   0  0  0  0  0  0  0  0  0  0  0  0
   58.9960   34.0470   46.4220 C   0  0  0  0  0  0  0  0  0  0  0  0
   59.4550   35.1150   46.9060 O   0  0  0  0  0  0  0  0  0  0  0  0
   57.6300   34.0470   45.8090 C   0  0  0  0  0  0  0  0  0  0  0  0
   56.8752   33.9887   46.6070 H   0  0  0  0  0  0  0  0  0  0  0  0
   57.4999   34.9736   45.2306 H   0  0  0  0  0  0  0  0  0  0  0  0
   57.4710   32.9050   44.9130 N   0  0  0  0  0  0  0  0  0  0  0  0
   56.6510   31.8900   45.1270 N   0  0  0  0  0  0  0  0  0  0  0  0
   56.8070   31.0860   44.0560 C   0  0  0  0  0  0  0  0  0  0  0  0
   56.0530   29.8900   43.8500 N   0  0  0  0  0  0  0  0  0  0  0  0
   56.1710   29.2460   42.7870 O   0  0  0  0  0  0  0  0  0  0  0  0
   55.2580   29.3950   44.8590 O   0  0  0  0  0  0  0  0  0  0  0  0
   57.7080   31.5570   43.1630 N   0  0  0  0  0  0  0  0  0  0  0  0
   58.1090   32.7040   43.7470 C   0  0  0  0  0  0  0  0  0  0  0  0
   58.8607   33.3868   43.3242 H   0  0  0  0  0  0  0  0  0  0  0  0
  1  2  1  0
  2  3  1  0
  3  4  1  0
  4  5  2  0
  5  6  1  0
  6  7  2  0
  7  8  1  0
  7  9  1  0
  9 10  1  0
  9 11  2  0
 11 12  1  0
 11 13  1  0
 13 14  1  0
 13 15  2  0
 15 16  1  0
 16 17  1  0
 17 18  1  0
 17 19  1  0
 17 20  1  0
  4 21  1  0
 21 22  1  0
 22 23  1  0
 23 24  2  0
 24 25  1  0
 24 26  1  0
 26 27  1  0
 26 28  2  0
 28 29  1  0
 28 30  1  0
 30 31  1  0
 30 32  2  0
 32 33  1  0
 33 34  1  0
 33 35  1  0
 35 36  2  0
 35 37  1  0
 37 38  1  0
 37 39  1  0
 37 40  1  0
 40 41  1  0
 41 42  2  0
 42 43  1  0
 43 44  2  0
 43 45  1  0
 42 46  1  0
 46 47  2  0
 47 48  1  0
 22  2  2  0
 32 23  1  0
 47 40  1  0
 15  6  1  0
M  CHG  3  21  -1  43   1  45  -1
M  END
>  <UniqueID>  (59) 
52

>  <SMILES>  (59) 
COc1ccccc1/N=c1/[n-]c(-c2ccccc2NC(=O)Cn2cnc([N+](=O)[O-])n2)cs1

>  <Energy>  (59) 
124.99679495918039

>  <Genealogy>  (59) 
COc1ccccc1N=c1[n-]c(-c2ccccc2NC(=O)Cn2cnc([N+](=O)[O-])n2)cs1 (protonated)
COc1ccccc1/N=c1/[n-]c(-c2ccccc2NC(=O)Cn2cnc([N+](=O)[O-])n2)cs1 (cis-trans isomerization)
COc1ccccc1/N=c1/[n-]c(-c2ccccc2NC(=O)Cn2cnc([N+](=O)[O-])n2)cs1 (3D coordinates assigned)
COc1ccccc1/N=c1/[n-]c(-c2ccccc2NC(=O)Cn2cnc([N+](=O)[O-])n2)cs1 (optimized conformer: 124.99679495918039 kcal/mol)

>  <smiles>  (59) 
COc1ccccc1N=c1[nH]c(-c2ccccc2NC(=O)Cn2cnc([N+](=O)[O-])n2)cs1

>  <score_type>  (59) 
oracle

>  <origin>  (59) 
adg

>  <m_score__min__energy>  (59) 
-11.85

>  <m_primary>  (59) 
energy

$$$$
60:0
     RDKit          3D

 44 46  0  0  0  0  0  0  0  0999 V2000
   60.0010   35.8100   46.0080 O   0  0  0  0  0  0  0  0  0  0  0  0
   59.9690   34.5710   46.2390 C   0  0  0  0  0  0  0  0  0  0  0  0
   61.0650   33.9600   47.0270 C   0  0  0  0  0  0  0  0  0  0  0  0
   60.8700   33.5850   48.3680 C   0  0  0  0  0  0  0  0  0  0  0  0
   61.9170   33.0280   49.1060 C   0  0  0  0  0  0  0  0  0  0  0  0
   63.1760   32.8360   48.5180 C   0  0  0  0  0  0  0  0  0  0  0  0
   64.3130   32.2690   49.3230 C   0  0  0  0  0  0  0  0  0  0  0  0
   65.4070   33.1430   49.2890 O   0  0  0  0  0  0  0  0  0  0  0  0
   63.3820   33.2410   47.1900 C   0  0  0  0  0  0  0  0  0  0  0  0
   62.3360   33.7990   46.4520 C   0  0  0  0  0  0  0  0  0  0  0  0
   58.8460   33.7770   45.7010 C   0  0  0  0  0  0  0  0  0  0  0  0
   57.5300   34.1780   45.5530 C   0  0  0  0  0  0  0  0  0  0  0  0
   56.7900   33.1540   45.0910 N   0  0  0  0  0  0  0  0  0  0  0  0
   57.6160   32.0990   44.9450 C   0  0  0  0  0  0  0  0  0  0  0  0
   57.1610   30.7670   44.4860 C   0  0  0  0  0  0  0  0  0  0  0  0
   55.9250   30.5100   44.5260 O   0  0  0  0  0  0  0  0  0  0  0  0
   58.1040   29.7420   44.0760 N   0  0  0  0  0  0  0  0  0  0  0  0
   57.3960   28.6000   43.4350 C   0  0  0  0  0  0  0  0  0  0  0  0
   58.2710   27.3430   43.4120 C   0  0  0  0  0  0  0  0  0  0  0  0
   58.6080   26.8790   44.8400 C   0  0  0  0  0  0  0  0  0  0  0  0
   58.5660   28.0260   45.8650 C   0  0  0  0  0  0  0  0  0  0  0  0
   58.9800   29.3560   45.2190 C   0  0  0  0  0  0  0  0  0  0  0  0
   58.9020   32.4450   45.3270 C   0  0  0  0  0  0  0  0  0  0  0  0
   59.8867   33.7312   48.8389 H   0  0  0  0  0  0  0  0  0  0  0  0
   61.7533   32.7382   50.1544 H   0  0  0  0  0  0  0  0  0  0  0  0
   63.9886   32.1319   50.3651 H   0  0  0  0  0  0  0  0  0  0  0  0
   64.6111   31.3008   48.8944 H   0  0  0  0  0  0  0  0  0  0  0  0
   65.8010   33.0700   48.3810 H   0  0  0  0  0  0  0  0  0  0  0  0
   64.3727   33.1182   46.7281 H   0  0  0  0  0  0  0  0  0  0  0  0
   62.5089   34.1148   45.4126 H   0  0  0  0  0  0  0  0  0  0  0  0
   57.1463   35.1838   45.7793 H   0  0  0  0  0  0  0  0  0  0  0  0
   55.7650   33.1790   44.8980 H   0  0  0  0  0  0  0  0  0  0  0  0
   58.7220   30.1410   43.3340 H   0  0  0  0  0  0  0  0  0  0  0  0
   56.4767   28.3861   43.9999 H   0  0  0  0  0  0  0  0  0  0  0  0
   57.1601   28.8771   42.3969 H   0  0  0  0  0  0  0  0  0  0  0  0
   57.7315   26.5387   42.8904 H   0  0  0  0  0  0  0  0  0  0  0  0
   59.2098   27.5792   42.8897 H   0  0  0  0  0  0  0  0  0  0  0  0
   57.8798   26.1116   45.1413 H   0  0  0  0  0  0  0  0  0  0  0  0
   59.6347   26.4843   44.8264 H   0  0  0  0  0  0  0  0  0  0  0  0
   57.5429   28.1200   46.2581 H   0  0  0  0  0  0  0  0  0  0  0  0
   59.2711   27.7963   46.6774 H   0  0  0  0  0  0  0  0  0  0  0  0
   58.9311   30.1471   45.9817 H   0  0  0  0  0  0  0  0  0  0  0  0
   59.9996   29.2294   44.8261 H   0  0  0  0  0  0  0  0  0  0  0  0
   59.7882   31.7934   45.3321 H   0  0  0  0  0  0  0  0  0  0  0  0
  1  2  2  0
  2  3  1  0
  3  4  2  0
  4  5  1  0
  5  6  2  0
  6  7  1  0
  7  8  1  0
  6  9  1  0
  9 10  2  0
  2 11  1  0
 11 12  2  0
 12 13  1  0
 13 14  1  0
 14 15  1  0
 15 16  2  0
 15 17  1  0
 17 18  1  0
 18 19  1  0
 19 20  1  0
 20 21  1  0
 21 22  1  0
 14 23  2  0
 10  3  1  0
 23 11  1  0
 22 17  1  0
  4 24  1  0
  5 25  1  0
  7 26  1  0
  7 27  1  0
  8 28  1  0
  9 29  1  0
 10 30  1  0
 12 31  1  0
 13 32  1  0
 17 33  1  0
 18 34  1  0
 18 35  1  0
 19 36  1  0
 19 37  1  0
 20 38  1  0
 20 39  1  0
 21 40  1  0
 21 41  1  0
 22 42  1  0
 22 43  1  0
 23 44  1  0
M  CHG  1  17   1
M  END
>  <UniqueID>  (60) 
53

>  <SMILES>  (60) 
O=C(c1ccc(CO)cc1)c1c[nH]c(C(=O)[NH+]2CCCCC2)c1

>  <Energy>  (60) 
83.7363734654514

>  <Genealogy>  (60) 
O=C(c1ccc(CO)cc1)c1c[nH]c(C(=O)[NH+]2CCCCC2)c1 (protonated)
O=C(c1ccc(CO)cc1)c1c[nH]c(C(=O)[NH+]2CCCCC2)c1 (3D coordinates assigned)
O=C(c1ccc(CO)cc1)c1c[nH]c(C(=O)[NH+]2CCCCC2)c1 (nonaromatic ring conformer: 83.7363734654514 kcal/mol)

>  <smiles>  (60) 
O=C(c1ccc(CO)cc1)c1c[nH]c(C(=O)N2CCCCC2)c1

>  <score_type>  (60) 
oracle

>  <origin>  (60) 
adg

>  <m_score__min__energy>  (60) 
-7.46

>  <m_primary>  (60) 
energy

$$$$
61:0
     RDKit          3D

 62 65  0  0  1  0  0  0  0  0999 V2000
   56.2890   29.2090   42.7220 N   0  0  0  0  0  0  0  0  0  0  0  0
   56.3000   29.3760   44.1300 C   0  0  0  0  0  0  0  0  0  0  0  0
   55.1730   29.4680   44.6940 O   0  0  0  0  0  0  0  0  0  0  0  0
   58.0650   23.6450   45.3980 C   0  0  0  0  0  0  0  0  0  0  0  0
   58.4100   28.3570   45.0060 C   0  0  0  0  0  0  0  0  0  0  0  0
   58.0830   27.0630   44.4130 C   0  0  0  0  0  0  0  0  0  0  0  0
   58.0820   27.0310   43.1340 O   0  0  0  0  0  0  0  0  0  0  0  0
   57.7850   25.9150   45.1920 N   0  0  0  0  0  0  0  0  0  0  0  0
   57.5790   24.7500   44.7310 C   0  0  0  0  0  0  0  0  0  0  0  0
   57.5650   29.4330   44.8490 C   0  0  0  0  0  0  0  0  0  0  0  0
   57.7970   22.4130   44.8260 C   0  0  0  0  0  0  0  0  0  0  0  0
   57.0700   22.3360   43.6360 C   0  0  0  0  0  0  0  0  0  0  0  0
   56.6020   23.4720   43.0020 C   0  0  0  0  0  0  0  0  0  0  0  0
   56.8790   24.6510   43.5820 N   0  0  0  0  0  0  0  0  0  0  0  0
   59.5660   28.4990   45.7120 N   0  0  0  0  0  0  0  0  0  0  0  0
   59.9430   29.6470   46.2790 C   0  0  0  0  0  0  0  0  0  0  0  0
   61.0850   29.8540   46.9990 O   0  0  0  0  0  0  0  0  0  0  0  0
   61.3220   30.8140   47.9820 C   0  0  0  0  0  0  0  0  0  0  0  0
   60.1850   30.7370   48.9470 C   0  0  0  0  0  0  0  0  0  0  0  0
   59.3780   31.8590   49.1720 C   0  0  0  0  0  0  0  0  0  0  0  0
   58.3160   31.8470   50.0410 C   0  0  0  0  0  0  0  0  0  0  0  0
   58.0300   30.6850   50.7180 C   0  0  0  0  0  0  0  0  0  0  0  0
   58.8130   29.5720   50.5090 C   0  0  0  0  0  0  0  0  0  0  0  0
   59.8850   29.5850   49.6330 C   0  0  0  0  0  0  0  0  0  0  0  0
   60.6620   28.3690   49.4780 C   0  0  0  0  0  0  0  0  0  0  0  0
   61.5120   27.9490   50.3030 O   0  0  0  0  0  0  0  0  0  0  0  0
   60.4900   27.5650   48.3370 O   0  0  0  0  0  0  0  0  0  0  0  0
   59.1080   30.7080   46.1210 N   0  0  0  0  0  0  0  0  0  0  0  0
   57.9590   30.6260   45.4370 C   0  0  0  0  0  0  0  0  0  0  0  0
   57.1800   31.6270   45.2900 N   0  0  0  0  0  0  0  0  0  0  0  0
   57.4160   32.6350   44.2850 C   0  0  0  0  0  0  0  0  0  0  0  0
   57.4790   34.0270   44.8990 C   0  0  0  0  0  0  0  0  0  0  0  0
   58.6350   34.1330   45.8250 C   0  0  0  0  0  0  0  0  0  0  0  0
   58.5200   34.5380   47.1380 C   0  0  0  0  0  0  0  0  0  0  0  0
   59.6290   34.6130   47.9540 C   0  0  0  0  0  0  0  0  0  0  0  0
   60.8750   34.2830   47.4610 C   0  0  0  0  0  0  0  0  0  0  0  0
   61.0130   33.8780   46.1570 C   0  0  0  0  0  0  0  0  0  0  0  0
   59.8890   33.8090   45.3590 C   0  0  0  0  0  0  0  0  0  0  0  0
   56.0950   29.9880   42.0480 H   0  0  0  0  0  0  0  0  0  0  0  0
   56.4880   28.2450   42.3620 H   0  0  0  0  0  0  0  0  0  0  0  0
   58.6350   23.7376   46.3342 H   0  0  0  0  0  0  0  0  0  0  0  0
   58.1573   21.4931   45.3097 H   0  0  0  0  0  0  0  0  0  0  0  0
   56.8653   21.3500   43.1935 H   0  0  0  0  0  0  0  0  0  0  0  0
   56.0288   23.4127   42.0650 H   0  0  0  0  0  0  0  0  0  0  0  0
   56.5300   25.5280   43.1120 H   0  0  0  0  0  0  0  0  0  0  0  0
   62.2704   30.6016   48.4972 H   0  0  0  0  0  0  0  0  0  0  0  0
   61.3965   31.8189   47.5409 H   0  0  0  0  0  0  0  0  0  0  0  0
   59.6048   32.7887   48.6296 H   0  0  0  0  0  0  0  0  0  0  0  0
   57.7055   32.7493   50.1930 H   0  0  0  0  0  0  0  0  0  0  0  0
   57.1839   30.6450   51.4198 H   0  0  0  0  0  0  0  0  0  0  0  0
   58.5800   28.6453   51.0540 H   0  0  0  0  0  0  0  0  0  0  0  0
   60.7790   27.9270   47.4210 H   0  0  0  0  0  0  0  0  0  0  0  0
   59.3750   31.6320   46.5590 H   0  0  0  0  0  0  0  0  0  0  0  0
   58.3707   32.4222   43.7818 H   0  0  0  0  0  0  0  0  0  0  0  0
   56.5827   32.6104   43.5673 H   0  0  0  0  0  0  0  0  0  0  0  0
   57.5875   34.7722   44.0971 H   0  0  0  0  0  0  0  0  0  0  0  0
   56.5525   34.2103   45.4628 H   0  0  0  0  0  0  0  0  0  0  0  0
   57.5312   34.8046   47.5395 H   0  0  0  0  0  0  0  0  0  0  0  0
   59.5203   34.9364   48.9997 H   0  0  0  0  0  0  0  0  0  0  0  0
   61.7583   34.3446   48.1137 H   0  0  0  0  0  0  0  0  0  0  0  0
   62.0020   33.6130   45.7549 H   0  0  0  0  0  0  0  0  0  0  0  0
   59.9992   33.4837   44.3140 H   0  0  0  0  0  0  0  0  0  0  0  0
  1  2  1  0
  2  3  2  0
  2  4  1  0
  4  5  2  0
  5  6  1  0
  6  7  2  0
  6  8  1  0
  8  9  2  0
  9 10  1  0
 10 11  2  0
 11 12  1  0
 12 13  2  0
 13 14  1  0
  5 15  1  0
 15 16  2  0
 16 17  1  0
 17 18  1  0
 18 19  1  0
 19 20  2  0
 20 21  1  0
 21 22  2  0
 22 23  1  0
 23 24  2  0
 24 25  1  0
 25 26  2  0
 25 27  1  0
 16 28  1  0
 28 29  1  0
 29 30  2  0
 30 31  1  0
 31 32  1  0
 32 33  1  0
 33 34  2  0
 34 35  1  0
 35 36  2  0
 36 37  1  0
 37 38  2  0
 29  4  1  0
 38 33  1  0
 14  9  1  0
 24 19  1  0
  1 39  1  0
  1 40  1  0
 10 41  1  0
 11 42  1  0
 12 43  1  0
 13 44  1  0
 14 45  1  0
 18 46  1  0
 18 47  1  0
 20 48  1  0
 21 49  1  0
 22 50  1  0
 23 51  1  0
 27 52  1  0
 28 53  1  0
 31 54  1  0
 31 55  1  0
 32 56  1  0
 32 57  1  0
 34 58  1  0
 35 59  1  0
 36 60  1  0
 37 61  1  0
 38 62  1  0
M  END
>  <smiles>  (61) 
NC(=O)c1c(C(=O)N=c2cccc[nH]2)nc(OCc2ccccc2C(=O)O)[nH]c1=NCCc1ccccc1

>  <score_type>  (61) 
oracle

>  <origin>  (61) 
adg

>  <m_score__min__energy>  (61) 
-10.029999999999999

>  <m_primary>  (61) 
energy

$$$$
62:0
     RDKit          3D

 27 28  0  0  0  0  0  0  0  0999 V2000
   57.0870   25.2080   47.3150 O   0  0  0  0  0  0  0  0  0  0  0  0
   57.8870   25.8450   46.5810 C   0  0  0  0  0  0  0  0  0  0  0  0
   57.5390   27.1750   46.0180 C   0  0  0  0  0  0  0  0  0  0  0  0
   56.2040   27.4720   45.7170 C   0  0  0  0  0  0  0  0  0  0  0  0
   55.1980   26.5350   45.9410 O   0  0  0  0  0  0  0  0  0  0  0  0
   55.8820   28.6820   45.2010 N   0  0  0  0  0  0  0  0  0  0  0  0
   56.8200   29.6300   44.9620 C   0  0  0  0  0  0  0  0  0  0  0  0
   56.4540   30.7360   44.4790 O   0  0  0  0  0  0  0  0  0  0  0  0
   58.1410   29.3860   45.2440 N   0  0  0  0  0  0  0  0  0  0  0  0
   59.1660   30.4090   44.9530 C   0  0  0  0  0  0  0  0  0  0  0  0
   58.8060   31.7190   45.6080 C   0  0  0  0  0  0  0  0  0  0  0  0
   58.4780   32.8370   44.8230 C   0  0  0  0  0  0  0  0  0  0  0  0
   58.1740   34.0600   45.4300 C   0  0  0  0  0  0  0  0  0  0  0  0
   58.1970   34.1760   46.8220 C   0  0  0  0  0  0  0  0  0  0  0  0
   58.5250   33.0700   47.6100 C   0  0  0  0  0  0  0  0  0  0  0  0
   58.8300   31.8450   47.0070 C   0  0  0  0  0  0  0  0  0  0  0  0
   58.5100   28.1690   45.7660 C   0  0  0  0  0  0  0  0  0  0  0  0
   59.7230   27.9360   46.0250 O   0  0  0  0  0  0  0  0  0  0  0  0
   58.8688   25.4057   46.3506 H   0  0  0  0  0  0  0  0  0  0  0  0
   55.1460   26.0270   46.8160 H   0  0  0  0  0  0  0  0  0  0  0  0
   60.1381   30.0670   45.3378 H   0  0  0  0  0  0  0  0  0  0  0  0
   59.2202   30.5586   43.8646 H   0  0  0  0  0  0  0  0  0  0  0  0
   58.4602   32.7503   43.7266 H   0  0  0  0  0  0  0  0  0  0  0  0
   57.9165   34.9317   44.8104 H   0  0  0  0  0  0  0  0  0  0  0  0
   57.9568   35.1383   47.2977 H   0  0  0  0  0  0  0  0  0  0  0  0
   58.5435   33.1625   48.7060 H   0  0  0  0  0  0  0  0  0  0  0  0
   59.0897   30.9770   47.6308 H   0  0  0  0  0  0  0  0  0  0  0  0
  1  2  2  0
  2  3  1  0
  3  4  2  0
  4  5  1  0
  4  6  1  0
  6  7  1  0
  7  8  2  0
  7  9  1  0
  9 10  1  0
 10 11  1  0
 11 12  2  0
 12 13  1  0
 13 14  2  0
 14 15  1  0
 15 16  2  0
  9 17  1  0
 17 18  2  0
 17  3  1  0
 16 11  1  0
  2 19  1  0
  5 20  1  0
 10 21  1  0
 10 22  1  0
 12 23  1  0
 13 24  1  0
 14 25  1  0
 15 26  1  0
 16 27  1  0
M  CHG  1   6  -1
M  END
>  <UniqueID>  (62) 
54

>  <SMILES>  (62) 
O=Cc1c(O)[n-]c(=O)n(Cc2ccccc2)c1=O

>  <Energy>  (62) 
33.58933289937368

>  <Genealogy>  (62) 
O=Cc1c(O)[n-]c(=O)n(Cc2ccccc2)c1=O (protonated)
O=Cc1c(O)[n-]c(=O)n(Cc2ccccc2)c1=O (3D coordinates assigned)
O=Cc1c(O)[n-]c(=O)n(Cc2ccccc2)c1=O (optimized conformer: 33.58933289937368 kcal/mol)

>  <smiles>  (62) 
O=Cc1c(O)[nH]c(=O)n(Cc2ccccc2)c1=O

>  <score_type>  (62) 
oracle

>  <origin>  (62) 
adg

>  <m_score__min__energy>  (62) 
-8.4299999999999997

>  <m_primary>  (62) 
energy

$$$$
63:0
     RDKit          3D

 47 49  0  0  0  0  0  0  0  0999 V2000
   59.9600   25.0130   46.0170 O   0  0  0  0  0  0  0  0  0  0  0  0
   58.7860   24.6760   45.9920 C   0  0  0  0  0  0  0  0  0  0  0  0
   58.3920   23.4150   45.2750 C   0  0  0  0  0  0  0  0  0  0  0  0
   56.8960   23.3410   45.1390 C   0  0  0  0  0  0  0  0  0  0  0  0
   56.2810   23.6140   43.9060 C   0  0  0  0  0  0  0  0  0  0  0  0
   54.8940   23.5120   43.7750 C   0  0  0  0  0  0  0  0  0  0  0  0
   54.1100   23.1290   44.8670 C   0  0  0  0  0  0  0  0  0  0  0  0
   52.7310   23.0310   44.7270 O   0  0  0  0  0  0  0  0  0  0  0  0
   54.7140   22.8420   46.0970 C   0  0  0  0  0  0  0  0  0  0  0  0
   53.9280   22.4540   47.1800 O   0  0  0  0  0  0  0  0  0  0  0  0
   56.1060   22.9440   46.2300 C   0  0  0  0  0  0  0  0  0  0  0  0
   57.7520   25.5470   46.6500 C   0  0  0  0  0  0  0  0  0  0  0  0
   57.8860   26.9570   46.1680 C   0  0  0  0  0  0  0  0  0  0  0  0
   59.3440   27.7920   46.0170 S   0  0  0  0  0  0  0  0  0  0  0  0
   58.6070   29.1440   45.3430 C   0  0  0  0  0  0  0  0  0  0  0  0
   59.2280   30.1780   44.9790 O   0  0  0  0  0  0  0  0  0  0  0  0
   57.2660   28.9870   45.2200 N   0  0  0  0  0  0  0  0  0  0  0  0
   56.3650   29.9690   44.6070 C   0  0  0  0  0  0  0  0  0  0  0  0
   56.8430   30.3360   43.2370 C   0  0  0  0  0  0  0  0  0  0  0  0
   56.2710   29.8480   42.2240 O   0  0  0  0  0  0  0  0  0  0  0  0
   57.9220   31.2650   43.0810 N   0  0  0  0  0  0  0  0  0  0  0  0
   57.7530   32.7120   43.1290 C   0  0  0  0  0  0  0  0  0  0  0  0
   58.1440   33.2390   44.4830 C   0  0  0  0  0  0  0  0  0  0  0  0
   57.4150   32.8560   45.6210 C   0  0  0  0  0  0  0  0  0  0  0  0
   57.7640   33.3520   46.8810 C   0  0  0  0  0  0  0  0  0  0  0  0
   58.8380   34.2370   47.0120 C   0  0  0  0  0  0  0  0  0  0  0  0
   59.5620   34.6300   45.8820 C   0  0  0  0  0  0  0  0  0  0  0  0
   59.2160   34.1360   44.6200 C   0  0  0  0  0  0  0  0  0  0  0  0
   56.8650   27.7620   45.6660 C   0  0  0  0  0  0  0  0  0  0  0  0
   55.5370   27.3480   45.6120 O   0  0  0  0  0  0  0  0  0  0  0  0
   58.8487   23.4081   44.2743 H   0  0  0  0  0  0  0  0  0  0  0  0
   58.7432   22.5481   45.8539 H   0  0  0  0  0  0  0  0  0  0  0  0
   56.8933   23.9090   43.0411 H   0  0  0  0  0  0  0  0  0  0  0  0
   54.4170   23.7339   42.8089 H   0  0  0  0  0  0  0  0  0  0  0  0
   52.9210   22.3750   47.1030 H   0  0  0  0  0  0  0  0  0  0  0  0
   56.5819   22.7118   47.1942 H   0  0  0  0  0  0  0  0  0  0  0  0
   56.7484   25.1714   46.4017 H   0  0  0  0  0  0  0  0  0  0  0  0
   57.9014   25.5230   47.7395 H   0  0  0  0  0  0  0  0  0  0  0  0
   55.3554   29.5382   44.5347 H   0  0  0  0  0  0  0  0  0  0  0  0
   56.3475   30.8741   45.2318 H   0  0  0  0  0  0  0  0  0  0  0  0
   58.3886   33.1772   42.3612 H   0  0  0  0  0  0  0  0  0  0  0  0
   56.6967   32.9552   42.9419 H   0  0  0  0  0  0  0  0  0  0  0  0
   56.5664   32.1633   45.5206 H   0  0  0  0  0  0  0  0  0  0  0  0
   57.1929   33.0455   47.7698 H   0  0  0  0  0  0  0  0  0  0  0  0
   59.1137   34.6243   48.0040 H   0  0  0  0  0  0  0  0  0  0  0  0
   60.4051   35.3289   45.9858 H   0  0  0  0  0  0  0  0  0  0  0  0
   59.7848   34.4508   43.7327 H   0  0  0  0  0  0  0  0  0  0  0  0
  1  2  2  0
  2  3  1  0
  3  4  1  0
  4  5  2  0
  5  6  1  0
  6  7  2  0
  7  8  1  0
  7  9  1  0
  9 10  1  0
  9 11  2  0
  2 12  1  0
 12 13  1  0
 13 14  1  0
 14 15  1  0
 15 16  2  0
 15 17  1  0
 17 18  1  0
 18 19  1  0
 19 20  2  0
 19 21  1  0
 21 22  1  0
 22 23  1  0
 23 24  2  0
 24 25  1  0
 25 26  2  0
 26 27  1  0
 27 28  2  0
 17 29  1  0
 29 30  1  0
 11  4  1  0
 29 13  2  0
 28 23  1  0
  3 31  1  0
  3 32  1  0
  5 33  1  0
  6 34  1  0
 10 35  1  0
 11 36  1  0
 12 37  1  0
 12 38  1  0
 18 39  1  0
 18 40  1  0
 22 41  1  0
 22 42  1  0
 24 43  1  0
 25 44  1  0
 26 45  1  0
 27 46  1  0
 28 47  1  0
M  CHG  3   8  -1  21  -1  30  -1
M  END
>  <UniqueID>  (63) 
55

>  <SMILES>  (63) 
O=C(Cc1ccc([O-])c(O)c1)Cc1sc(=O)n(CC(=O)[N-]Cc2ccccc2)c1[O-]

>  <Energy>  (63) 
72.5346506677432

>  <Genealogy>  (63) 
O=C(Cc1ccc([O-])c(O)c1)Cc1sc(=O)n(CC(=O)[N-]Cc2ccccc2)c1[O-] (protonated)
O=C(Cc1ccc([O-])c(O)c1)Cc1sc(=O)n(CC(=O)[N-]Cc2ccccc2)c1[O-] (3D coordinates assigned)
O=C(Cc1ccc([O-])c(O)c1)Cc1sc(=O)n(CC(=O)[N-]Cc2ccccc2)c1[O-] (optimized conformer: 72.5346506677432 kcal/mol)

>  <smiles>  (63) 
O=C(Cc1ccc(O)c(O)c1)Cc1sc(=O)n(CC(=O)NCc2ccccc2)c1O

>  <score_type>  (63) 
oracle

>  <origin>  (63) 
adg

>  <m_score__min__energy>  (63) 
-14.19

>  <m_primary>  (63) 
energy

$$$$
64:0
     RDKit          3D

 38 39  0  0  0  0  0  0  0  0999 V2000
   59.9098   26.9411   47.0090 H   0  0  0  0  0  0  0  0  0  0  0  0
   58.8420   26.8240   46.7720 C   0  0  0  0  0  0  0  0  0  0  0  0
   58.2280   27.7140   45.9520 N   0  0  0  0  0  0  0  0  0  0  0  0
   56.9110   27.6210   45.6180 C   0  0  0  0  0  0  0  0  0  0  0  0
   56.4240   28.5360   44.8240 N   0  0  0  0  0  0  0  0  0  0  0  0
   56.8470   29.8950   44.6480 C   0  0  0  0  0  0  0  0  0  0  0  0
   56.0350   30.8440   44.8110 O   0  0  0  0  0  0  0  0  0  0  0  0
   58.2200   30.1750   44.1190 C   0  0  0  0  0  0  0  0  0  0  0  0
   58.1604   30.3709   43.0382 H   0  0  0  0  0  0  0  0  0  0  0  0
   58.8627   29.3022   44.3066 H   0  0  0  0  0  0  0  0  0  0  0  0
   58.7950   31.3520   44.7970 N   0  0  0  0  0  0  0  0  0  0  0  0
   58.4630   31.3470   46.2370 C   0  0  0  0  0  0  0  0  0  0  0  0
   57.3868   31.5378   46.3608 H   0  0  0  0  0  0  0  0  0  0  0  0
   58.7257   30.3656   46.6588 H   0  0  0  0  0  0  0  0  0  0  0  0
   59.2420   32.4130   46.9630 C   0  0  0  0  0  0  0  0  0  0  0  0
   60.6220   32.2630   47.1870 C   0  0  0  0  0  0  0  0  0  0  0  0
   61.1377   31.3548   46.8417 H   0  0  0  0  0  0  0  0  0  0  0  0
   61.3410   33.2640   47.8470 C   0  0  0  0  0  0  0  0  0  0  0  0
   62.4187   33.1376   48.0274 H   0  0  0  0  0  0  0  0  0  0  0  0
   60.6930   34.4250   48.2780 C   0  0  0  0  0  0  0  0  0  0  0  0
   61.2606   35.2112   48.7973 H   0  0  0  0  0  0  0  0  0  0  0  0
   59.3230   34.5870   48.0490 C   0  0  0  0  0  0  0  0  0  0  0  0
   58.8138   35.5016   48.3871 H   0  0  0  0  0  0  0  0  0  0  0  0
   58.6000   33.5880   47.3910 C   0  0  0  0  0  0  0  0  0  0  0  0
   57.5237   33.7219   47.2073 H   0  0  0  0  0  0  0  0  0  0  0  0
   58.1920   32.8140   44.0450 S   0  0  0  0  0  0  0  0  0  0  0  0
   56.9770   33.3120   44.7790 O   0  0  0  0  0  0  0  0  0  0  0  0
   59.2490   33.8820   44.0640 O   0  0  0  0  0  0  0  0  0  0  0  0
   57.7630   32.4920   42.3460 C   0  0  0  0  0  0  0  0  0  0  0  0
   56.8838   31.8321   42.3086 H   0  0  0  0  0  0  0  0  0  0  0  0
   57.5310   33.4409   41.8402 H   0  0  0  0  0  0  0  0  0  0  0  0
   58.6093   32.0043   41.8402 H   0  0  0  0  0  0  0  0  0  0  0  0
   56.1390   26.5740   46.1860 C   0  0  0  0  0  0  0  0  0  0  0  0
   54.7680   26.4630   45.9870 O   0  0  0  0  0  0  0  0  0  0  0  0
   56.7650   25.6430   47.0210 C   0  0  0  0  0  0  0  0  0  0  0  0
   56.1834   24.8128   47.4483 H   0  0  0  0  0  0  0  0  0  0  0  0
   58.1210   25.7620   47.3140 C   0  0  0  0  0  0  0  0  0  0  0  0
   58.6168   25.0269   47.9651 H   0  0  0  0  0  0  0  0  0  0  0  0
  1  2  1  0
  2  3  1  0
  3  4  1  0
  4  5  2  0
  5  6  1  0
  6  7  2  0
  6  8  1  0
  8  9  1  0
  8 10  1  0
  8 11  1  0
 11 12  1  0
 12 13  1  0
 12 14  1  0
 12 15  1  0
 15 16  2  0
 16 17  1  0
 16 18  1  0
 18 19  1  0
 18 20  2  0
 20 21  1  0
 20 22  1  0
 22 23  1  0
 22 24  2  0
 24 25  1  0
 11 26  1  0
 26 27  2  0
 26 28  2  0
 26 29  1  0
 29 30  1  0
 29 31  1  0
 29 32  1  0
  4 33  1  0
 33 34  1  0
 33 35  2  0
 35 36  1  0
 35 37  1  0
 37 38  1  0
 37  2  2  0
 24 15  1  0
M  CHG  2   3  -1  34  -1
M  END
>  <UniqueID>  (64) 
56

>  <SMILES>  (64) 
CS(=O)(=O)N(CC(=O)/N=c1/[n-]cccc1[O-])Cc1ccccc1

>  <Energy>  (64) 
43.963465524010395

>  <Genealogy>  (64) 
CS(=O)(=O)N(CC(=O)N=c1[n-]cccc1[O-])Cc1ccccc1 (protonated)
CS(=O)(=O)N(CC(=O)/N=c1/[n-]cccc1[O-])Cc1ccccc1 (cis-trans isomerization)
CS(=O)(=O)N(CC(=O)/N=c1/[n-]cccc1[O-])Cc1ccccc1 (3D coordinates assigned)
CS(=O)(=O)N(CC(=O)/N=c1/[n-]cccc1[O-])Cc1ccccc1 (optimized conformer: 43.963465524010395 kcal/mol)

>  <smiles>  (64) 
CS(=O)(=O)N(CC(=O)N=c1[nH]cccc1O)Cc1ccccc1

>  <score_type>  (64) 
oracle

>  <origin>  (64) 
adg

>  <m_score__min__energy>  (64) 
-13.74

>  <m_primary>  (64) 
energy

$$$$
65:0
     RDKit          3D

 77 80  0  0  0  0  0  0  0  0999 V2000
   58.9990   21.9040   43.9790 C   0  0  0  0  0  0  0  0  0  0  0  0
   57.6140   22.0520   44.5530 C   0  0  0  0  0  0  0  0  0  0  0  0
   56.7970   20.9130   44.6360 C   0  0  0  0  0  0  0  0  0  0  0  0
   55.5250   20.9910   45.2020 C   0  0  0  0  0  0  0  0  0  0  0  0
   55.0410   22.2110   45.6900 C   0  0  0  0  0  0  0  0  0  0  0  0
   53.7010   22.2680   46.3090 C   0  0  0  0  0  0  0  0  0  0  0  0
   52.7190   22.5590   45.5740 O   0  0  0  0  0  0  0  0  0  0  0  0
   53.5020   22.0460   47.7250 N   0  0  0  0  0  0  0  0  0  0  0  0
   52.1700   22.1740   48.3220 C   0  0  0  0  0  0  0  0  0  0  0  0
   54.5970   21.5070   48.5430 C   0  0  0  0  0  0  0  0  0  0  0  0
   55.6840   22.5690   48.7470 C   0  0  0  0  0  0  0  0  0  0  0  0
   57.0190   21.9310   48.8190 N   0  0  0  0  0  0  0  0  0  0  0  0
   57.4880   21.8530   50.2120 C   0  0  0  0  0  0  0  0  0  0  0  0
   56.9780   20.5800   48.2380 C   0  0  0  0  0  0  0  0  0  0  0  0
   55.8470   23.3560   45.6090 C   0  0  0  0  0  0  0  0  0  0  0  0
   57.1150   23.2980   45.0080 C   0  0  0  0  0  0  0  0  0  0  0  0
   57.8810   24.5090   44.8930 N   0  0  0  0  0  0  0  0  0  0  0  0
   59.1430   24.6790   45.5560 C   0  0  0  0  0  0  0  0  0  0  0  0
   59.7560   23.6740   46.0040 O   0  0  0  0  0  0  0  0  0  0  0  0
   59.7740   25.9630   45.6430 N   0  0  0  0  0  0  0  0  0  0  0  0
   59.1690   27.2570   45.5220 C   0  0  0  0  0  0  0  0  0  0  0  0
   58.4940   27.6690   44.3580 C   0  0  0  0  0  0  0  0  0  0  0  0
   57.8540   28.9120   44.3170 C   0  0  0  0  0  0  0  0  0  0  0  0
   57.8450   29.7420   45.4410 C   0  0  0  0  0  0  0  0  0  0  0  0
   57.1630   30.9650   45.3760 O   0  0  0  0  0  0  0  0  0  0  0  0
   57.7650   32.2240   45.5160 C   0  0  0  0  0  0  0  0  0  0  0  0
   57.9830   32.9960   44.3740 C   0  0  0  0  0  0  0  0  0  0  0  0
   58.5620   34.2570   44.4970 C   0  0  0  0  0  0  0  0  0  0  0  0
   58.9200   34.7250   45.7220 N   0  0  0  0  0  0  0  0  0  0  0  0
   58.7310   34.0090   46.8640 C   0  0  0  0  0  0  0  0  0  0  0  0
   59.1070   34.5470   47.9920 N   0  0  0  0  0  0  0  0  0  0  0  0
   60.0800   34.1060   48.9570 C   0  0  0  0  0  0  0  0  0  0  0  0
   59.7580   33.8990   50.1580 O   0  0  0  0  0  0  0  0  0  0  0  0
   61.4760   33.8490   48.5370 C   0  0  0  0  0  0  0  0  0  0  0  0
   61.7530   33.7750   47.1590 C   0  0  0  0  0  0  0  0  0  0  0  0
   63.0450   33.5060   46.7040 C   0  0  0  0  0  0  0  0  0  0  0  0
   64.0810   33.3150   47.6180 C   0  0  0  0  0  0  0  0  0  0  0  0
   63.8330   33.4030   48.9890 C   0  0  0  0  0  0  0  0  0  0  0  0
   62.5400   33.6850   49.4660 C   0  0  0  0  0  0  0  0  0  0  0  0
   62.3350   33.8110   50.9540 C   0  0  0  0  0  0  0  0  0  0  0  0
   58.1190   32.7410   46.7740 C   0  0  0  0  0  0  0  0  0  0  0  0
   58.5340   29.3410   46.6000 C   0  0  0  0  0  0  0  0  0  0  0  0
   58.5890   30.1500   47.6880 F   0  0  0  0  0  0  0  0  0  0  0  0
   59.1740   28.1010   46.6400 C   0  0  0  0  0  0  0  0  0  0  0  0
   59.7290   21.8260   44.7982 H   0  0  0  0  0  0  0  0  0  0  0  0
   59.0442   20.9959   43.3599 H   0  0  0  0  0  0  0  0  0  0  0  0
   59.2351   22.7820   43.3599 H   0  0  0  0  0  0  0  0  0  0  0  0
   57.1639   19.9501   44.2509 H   0  0  0  0  0  0  0  0  0  0  0  0
   54.8983   20.0892   45.2655 H   0  0  0  0  0  0  0  0  0  0  0  0
   52.2573   22.1656   49.4185 H   0  0  0  0  0  0  0  0  0  0  0  0
   51.7123   23.1203   47.9978 H   0  0  0  0  0  0  0  0  0  0  0  0
   51.5405   21.3322   47.9978 H   0  0  0  0  0  0  0  0  0  0  0  0
   54.2010   21.2008   49.5225 H   0  0  0  0  0  0  0  0  0  0  0  0
   55.0363   20.6413   48.0257 H   0  0  0  0  0  0  0  0  0  0  0  0
   55.6643   23.2751   47.9038 H   0  0  0  0  0  0  0  0  0  0  0  0
   55.4909   23.1022   49.6896 H   0  0  0  0  0  0  0  0  0  0  0  0
   56.6366   21.9946   50.8940 H   0  0  0  0  0  0  0  0  0  0  0  0
   57.9416   20.8671   50.3915 H   0  0  0  0  0  0  0  0  0  0  0  0
   58.2363   22.6390   50.3915 H   0  0  0  0  0  0  0  0  0  0  0  0
   56.9554   19.8339   49.0460 H   0  0  0  0  0  0  0  0  0  0  0  0
   56.0763   20.4752   47.6168 H   0  0  0  0  0  0  0  0  0  0  0  0
   57.8717   20.4207   47.6168 H   0  0  0  0  0  0  0  0  0  0  0  0
   55.4824   24.3088   46.0203 H   0  0  0  0  0  0  0  0  0  0  0  0
   57.6340   25.1820   44.1340 H   0  0  0  0  0  0  0  0  0  0  0  0
   58.4696   27.0109   43.4769 H   0  0  0  0  0  0  0  0  0  0  0  0
   57.3541   29.2385   43.3932 H   0  0  0  0  0  0  0  0  0  0  0  0
   57.6995   32.6113   43.3832 H   0  0  0  0  0  0  0  0  0  0  0  0
   58.7296   34.8745   43.6022 H   0  0  0  0  0  0  0  0  0  0  0  0
   60.9421   33.9309   46.4323 H   0  0  0  0  0  0  0  0  0  0  0  0
   63.2461   33.4447   45.6243 H   0  0  0  0  0  0  0  0  0  0  0  0
   65.0966   33.0944   47.2575 H   0  0  0  0  0  0  0  0  0  0  0  0
   64.6560   33.2505   49.7027 H   0  0  0  0  0  0  0  0  0  0  0  0
   63.1573   33.3056   51.4815 H   0  0  0  0  0  0  0  0  0  0  0  0
   62.3193   34.8749   51.2332 H   0  0  0  0  0  0  0  0  0  0  0  0
   61.3787   33.3445   51.2332 H   0  0  0  0  0  0  0  0  0  0  0  0
   57.9195   32.1588   47.6857 H   0  0  0  0  0  0  0  0  0  0  0  0
   59.6877   27.7833   47.5593 H   0  0  0  0  0  0  0  0  0  0  0  0
  1  2  1  0
  2  3  2  0
  3  4  1  0
  4  5  2  0
  5  6  1  0
  6  7  2  0
  6  8  1  0
  8  9  1  0
  8 10  1  0
 10 11  1  0
 11 12  1  0
 12 13  1  0
 12 14  1  0
  5 15  1  0
 15 16  2  0
 16 17  1  0
 17 18  1  0
 18 19  2  0
 18 20  1  0
 20 21  1  0
 21 22  2  0
 22 23  1  0
 23 24  2  0
 24 25  1  0
 25 26  1  0
 26 27  1  0
 27 28  2  0
 28 29  1  0
 29 30  1  0
 30 31  2  3
 31 32  1  0
 32 33  2  0
 32 34  1  0
 34 35  2  0
 35 36  1  0
 36 37  2  0
 37 38  1  0
 38 39  2  0
 39 40  1  0
 30 41  1  0
 24 42  1  0
 42 43  1  0
 42 44  2  0
 16  2  1  0
 44 21  1  0
 41 26  2  0
 39 34  1  0
  1 45  1  0
  1 46  1  0
  1 47  1  0
  3 48  1  0
  4 49  1  0
  9 50  1  0
  9 51  1  0
  9 52  1  0
 10 53  1  0
 10 54  1  0
 11 55  1  0
 11 56  1  0
 13 57  1  0
 13 58  1  0
 13 59  1  0
 14 60  1  0
 14 61  1  0
 14 62  1  0
 15 63  1  0
 17 64  1  0
 22 65  1  0
 23 66  1  0
 27 67  1  0
 28 68  1  0
 35 69  1  0
 36 70  1  0
 37 71  1  0
 38 72  1  0
 40 73  1  0
 40 74  1  0
 40 75  1  0
 41 76  1  0
 44 77  1  0
M  CHG  2  20  -1  29  -1
M  END
>  <UniqueID>  (65) 
57

>  <SMILES>  (65) 
Cc1ccc(C(=O)N(C)CCN(C)C)cc1NC(=O)[N-]c1ccc(Oc2cc[n-]c(=NC(=O)c3ccccc3C)c2)c(F)c1

>  <Energy>  (65) 
114.16408678811854

>  <Genealogy>  (65) 
Cc1ccc(C(=O)N(C)CCN(C)C)cc1NC(=O)[N-]c1ccc(Oc2cc[n-]c(=NC(=O)c3ccccc3C)c2)c(F)c1 (protonated)
Cc1ccc(C(=O)N(C)CCN(C)C)cc1NC(=O)[N-]c1ccc(Oc2cc[n-]c(=NC(=O)c3ccccc3C)c2)c(F)c1 (3D coordinates assigned)
Cc1ccc(C(=O)N(C)CCN(C)C)cc1NC(=O)[N-]c1ccc(Oc2cc[n-]c(=NC(=O)c3ccccc3C)c2)c(F)c1 (optimized conformer: 114.16408678811854 kcal/mol)

>  <smiles>  (65) 
Cc1ccc(C(=O)N(C)CCN(C)C)cc1NC(=O)Nc1ccc(Oc2cc[nH]c(=NC(=O)c3ccccc3C)c2)c(F)c1

>  <score_type>  (65) 
oracle

>  <origin>  (65) 
adg

>  <m_score__min__energy>  (65) 
-12.02

>  <m_primary>  (65) 
energy

$$$$
66:0
     RDKit          3D

 38 40  0  0  1  0  0  0  0  0999 V2000
   60.5070   28.5890   45.0400 C   0  0  0  0  0  0  0  0  0  0  0  0
   59.6400   27.9810   46.1310 C   0  0  0  0  0  0  0  0  0  0  0  0
   60.3420   27.7290   47.1730 O   0  0  0  0  0  0  0  0  0  0  0  0
   58.2720   27.7660   45.9290 C   0  0  0  0  0  0  0  0  0  0  0  0
   57.6150   26.0990   46.5160 S   0  0  0  0  0  0  0  0  0  0  0  0
   55.9110   26.5190   45.8760 C   0  0  0  0  0  0  0  0  0  0  0  0
   54.9410   25.6990   45.9930 N   0  0  0  0  0  0  0  0  0  0  0  0
   55.1530   24.3170   46.2620 C   0  0  0  0  0  0  0  0  0  0  0  0
   55.5480   23.9410   47.3720 O   0  0  0  0  0  0  0  0  0  0  0  0
   54.8710   23.3590   45.1350 C   0  0  0  0  0  0  0  0  0  0  0  0
   56.1070   22.6550   44.7260 C   0  0  0  0  0  0  0  0  0  0  0  0
   56.3530   21.9020   43.6420 N   0  0  0  0  0  0  0  0  0  0  0  0
   57.6260   21.4660   43.6950 C   0  0  0  0  0  0  0  0  0  0  0  0
   58.2000   21.9620   44.8540 C   0  0  0  0  0  0  0  0  0  0  0  0
   59.5100   21.7270   45.2570 O   0  0  0  0  0  0  0  0  0  0  0  0
   57.2420   22.6860   45.4610 N   0  0  0  0  0  0  0  0  0  0  0  0
   56.0350   27.7110   45.3670 N   0  0  0  0  0  0  0  0  0  0  0  0
   57.1810   28.3560   45.3770 C   0  0  0  0  0  0  0  0  0  0  0  0
   57.2670   29.7030   44.7360 C   0  0  0  0  0  0  0  0  0  0  0  0
   57.7790   30.8020   45.3310 C   0  0  0  0  0  0  0  0  0  0  0  0
   57.9080   31.9990   44.6300 C   0  0  0  0  0  0  0  0  0  0  0  0
   57.5260   32.1170   43.3280 C   0  0  0  0  0  0  0  0  0  0  0  0
   57.0000   31.0140   42.7020 C   0  0  0  0  0  0  0  0  0  0  0  0
   56.8750   29.8360   43.3950 C   0  0  0  0  0  0  0  0  0  0  0  0
   61.3254   29.1629   45.4992 H   0  0  0  0  0  0  0  0  0  0  0  0
   60.9271   27.7866   44.4157 H   0  0  0  0  0  0  0  0  0  0  0  0
   59.8958   29.2573   44.4157 H   0  0  0  0  0  0  0  0  0  0  0  0
   54.1272   22.6197   45.4669 H   0  0  0  0  0  0  0  0  0  0  0  0
   54.4864   23.9273   44.2753 H   0  0  0  0  0  0  0  0  0  0  0  0
   58.1227   20.8281   42.9491 H   0  0  0  0  0  0  0  0  0  0  0  0
   59.8230   20.7490   45.1850 H   0  0  0  0  0  0  0  0  0  0  0  0
   57.4070   23.1820   46.3720 H   0  0  0  0  0  0  0  0  0  0  0  0
   55.1460   28.1730   44.9280 H   0  0  0  0  0  0  0  0  0  0  0  0
   58.0982   30.7513   46.3824 H   0  0  0  0  0  0  0  0  0  0  0  0
   58.3310   32.8750   45.1434 H   0  0  0  0  0  0  0  0  0  0  0  0
   57.6360   33.0712   42.7919 H   0  0  0  0  0  0  0  0  0  0  0  0
   56.6806   31.0741   41.6511 H   0  0  0  0  0  0  0  0  0  0  0  0
   56.4510   28.9619   42.8792 H   0  0  0  0  0  0  0  0  0  0  0  0
  1  2  1  0
  2  3  2  0
  2  4  1  0
  4  5  1  0
  5  6  1  0
  6  7  2  0
  7  8  1  0
  8  9  2  0
  8 10  1  0
 10 11  1  0
 11 12  2  0
 12 13  1  0
 13 14  2  0
 14 15  1  0
 14 16  1  0
  6 17  1  0
 17 18  1  0
 18 19  1  0
 19 20  2  0
 20 21  1  0
 21 22  2  0
 22 23  1  0
 23 24  2  0
 18  4  2  0
 24 19  1  0
 16 11  1  0
  1 25  1  0
  1 26  1  0
  1 27  1  0
 10 28  1  0
 10 29  1  0
 13 30  1  0
 15 31  1  0
 16 32  1  0
 17 33  1  0
 20 34  1  0
 21 35  1  0
 22 36  1  0
 23 37  1  0
 24 38  1  0
M  END
>  <smiles>  (66) 
CC(=O)c1sc(=NC(=O)Cc2ncc(O)[nH]2)[nH]c1-c1ccccc1

>  <score_type>  (66) 
oracle

>  <origin>  (66) 
adg

>  <m_score__min__energy>  (66) 
-8.6300000000000008

>  <m_primary>  (66) 
energy

$$$$
67:0
     RDKit          3D

 37 39  0  0  0  0  0  0  0  0999 V2000
   62.5240   31.5950   47.5710 C   0  0  0  0  0  0  0  0  0  0  0  0
   61.2640   31.4020   48.2020 O   0  0  0  0  0  0  0  0  0  0  0  0
   60.6050   30.1670   48.2150 C   0  0  0  0  0  0  0  0  0  0  0  0
   60.8630   29.3320   49.1260 O   0  0  0  0  0  0  0  0  0  0  0  0
   59.6040   29.8400   47.1580 C   0  0  0  0  0  0  0  0  0  0  0  0
   59.5400   30.6250   46.0790 C   0  0  0  0  0  0  0  0  0  0  0  0
   58.5080   30.4720   45.0510 C   0  0  0  0  0  0  0  0  0  0  0  0
   58.5080   31.3640   43.9670 C   0  0  0  0  0  0  0  0  0  0  0  0
   57.4260   31.4130   43.0910 C   0  0  0  0  0  0  0  0  0  0  0  0
   57.4500   32.2990   42.0160 O   0  0  0  0  0  0  0  0  0  0  0  0
   56.3180   30.5960   43.3170 C   0  0  0  0  0  0  0  0  0  0  0  0
   56.3080   29.7020   44.3910 C   0  0  0  0  0  0  0  0  0  0  0  0
   55.1500   28.9710   44.6250 O   0  0  0  0  0  0  0  0  0  0  0  0
   57.4470   29.5620   45.2260 C   0  0  0  0  0  0  0  0  0  0  0  0
   57.4790   28.5240   46.3590 C   0  0  1  0  0  0  0  0  0  0  0  0
   57.0510   27.0670   45.8590 C   0  0  0  0  0  0  0  0  0  0  0  0
   57.2150   26.9860   44.4610 O   0  0  0  0  0  0  0  0  0  0  0  0
   55.6920   26.8480   46.1690 O   0  0  0  0  0  0  0  0  0  0  0  0
   57.8560   25.9210   46.4430 C   0  0  0  0  0  0  0  0  0  0  0  0
   59.1400   26.0540   46.7460 C   0  0  0  0  0  0  0  0  0  0  0  0
   59.7140   27.3860   46.8540 C   0  0  0  0  0  0  0  0  0  0  0  0
   60.9630   27.5290   46.7320 O   0  0  0  0  0  0  0  0  0  0  0  0
   58.8030   28.5390   47.2390 C   0  0  1  0  0  0  0  0  0  0  0  0
   58.4290   28.3740   48.5920 O   0  0  0  0  0  0  0  0  0  0  0  0
   63.3036   31.7144   48.3378 H   0  0  0  0  0  0  0  0  0  0  0  0
   62.7574   30.7221   46.9436 H   0  0  0  0  0  0  0  0  0  0  0  0
   62.4854   32.4977   46.9436 H   0  0  0  0  0  0  0  0  0  0  0  0
   60.2925   31.4181   45.9577 H   0  0  0  0  0  0  0  0  0  0  0  0
   59.3693   32.0296   43.8081 H   0  0  0  0  0  0  0  0  0  0  0  0
   56.5950   32.6580   41.6060 H   0  0  0  0  0  0  0  0  0  0  0  0
   55.4480   30.6558   42.6465 H   0  0  0  0  0  0  0  0  0  0  0  0
   56.7022   28.8473   47.0675 H   0  0  0  0  0  0  0  0  0  0  0  0
   56.5930   27.6380   44.0410 H   0  0  0  0  0  0  0  0  0  0  0  0
   55.1500   27.4660   45.6090 H   0  0  0  0  0  0  0  0  0  0  0  0
   57.3614   24.9545   46.6196 H   0  0  0  0  0  0  0  0  0  0  0  0
   59.7655   25.1649   46.9142 H   0  0  0  0  0  0  0  0  0  0  0  0
   59.2490   28.3000   49.1480 H   0  0  0  0  0  0  0  0  0  0  0  0
  1  2  1  0
  2  3  1  0
  3  4  2  0
  3  5  1  0
  5  6  2  0
  6  7  1  0
  7  8  2  0
  8  9  1  0
  9 10  1  0
  9 11  2  0
 11 12  1  0
 12 13  1  0
 12 14  2  0
 14 15  1  0
 15 16  1  0
 16 17  1  0
 16 18  1  0
 16 19  1  0
 19 20  2  0
 20 21  1  0
 21 22  2  0
 21 23  1  0
 23 24  1  1
 23  5  1  0
 14  7  1  0
 23 15  1  0
  1 25  1  0
  1 26  1  0
  1 27  1  0
  6 28  1  0
  8 29  1  0
 10 30  1  0
 11 31  1  0
 15 32  1  1
 17 33  1  0
 18 34  1  0
 19 35  1  0
 20 36  1  0
 24 37  1  0
M  CHG  1  13  -1
M  END
>  <UniqueID>  (67) 
58

>  <SMILES>  (67) 
COC(=O)C1=Cc2cc(O)cc([O-])c2[C@H]2C(O)(O)C=CC(=O)[C@@]12O

>  <Energy>  (67) 
69.65640636133804

>  <Genealogy>  (67) 
COC(=O)C1=Cc2cc(O)cc([O-])c2C2C(O)(O)C=CC(=O)C12O (protonated)
COC(=O)C1=Cc2cc(O)cc([O-])c2[C@H]2C(O)(O)C=CC(=O)[C@@]12O (chirality)
COC(=O)C1=Cc2cc(O)cc([O-])c2[C@H]2C(O)(O)C=CC(=O)[C@@]12O (3D coordinates assigned)
COC(=O)C1=Cc2cc(O)cc([O-])c2[C@H]2C(O)(O)C=CC(=O)[C@@]12O (nonaromatic ring conformer: 69.65640636133804 kcal/mol)

>  <smiles>  (67) 
COC(=O)C1=Cc2cc(O)cc(O)c2C2C(O)(O)C=CC(=O)C12O

>  <score_type>  (67) 
oracle

>  <origin>  (67) 
adg

>  <m_score__min__energy>  (67) 
-9.8399999999999999

>  <m_primary>  (67) 
energy

$$$$
68:0
     RDKit          3D

 49 52  0  0  0  0  0  0  0  0999 V2000
   57.6725   30.9603   47.0923 H   0  0  0  0  0  0  0  0  0  0  0  0
   57.7940   29.9250   46.7410 C   0  0  0  0  0  0  0  0  0  0  0  0
   57.2805   29.5903   45.8276 H   0  0  0  0  0  0  0  0  0  0  0  0
   58.5690   29.0700   47.4270 C   0  0  0  0  0  0  0  0  0  0  0  0
   58.8190   27.7270   47.1050 C   0  0  0  0  0  0  0  0  0  0  0  0
   58.3080   27.0380   46.0610 C   0  0  0  0  0  0  0  0  0  0  0  0
   58.9086   27.0086   45.1399 H   0  0  0  0  0  0  0  0  0  0  0  0
   57.0140   26.3190   46.0430 C   0  0  0  0  0  0  0  0  0  0  0  0
   56.8140   25.0350   46.3900 N   0  0  0  0  0  0  0  0  0  0  0  0
   55.4860   24.8620   46.2180 C   0  0  0  0  0  0  0  0  0  0  0  0
   54.9100   23.7660   46.4440 O   0  0  0  0  0  0  0  0  0  0  0  0
   54.8250   25.9560   45.7850 N   0  0  0  0  0  0  0  0  0  0  0  0
   55.8050   26.8680   45.6810 C   0  0  0  0  0  0  0  0  0  0  0  0
   55.5980   28.1770   45.2650 O   0  0  0  0  0  0  0  0  0  0  0  0
   59.7060   27.2610   48.0710 C   0  0  0  0  0  0  0  0  0  0  0  0
   60.1336   26.2495   48.1355 H   0  0  0  0  0  0  0  0  0  0  0  0
   59.9460   28.3130   48.9330 C   0  0  0  0  0  0  0  0  0  0  0  0
   60.8600   28.2480   50.1190 C   0  0  0  0  0  0  0  0  0  0  0  0
   60.2650   28.2903   51.0432 H   0  0  0  0  0  0  0  0  0  0  0  0
   61.4292   27.3071   50.0921 H   0  0  0  0  0  0  0  0  0  0  0  0
   61.5566   29.0989   50.0921 H   0  0  0  0  0  0  0  0  0  0  0  0
   59.2650   29.4100   48.5400 N   0  0  0  0  0  0  0  0  0  0  0  0
   59.2720   30.6860   49.2080 C   0  0  0  0  0  0  0  0  0  0  0  0
   60.2160   31.6600   48.8530 C   0  0  0  0  0  0  0  0  0  0  0  0
   60.9462   31.4531   48.0568 H   0  0  0  0  0  0  0  0  0  0  0  0
   60.2300   32.8920   49.5090 C   0  0  0  0  0  0  0  0  0  0  0  0
   60.9709   33.6546   49.2269 H   0  0  0  0  0  0  0  0  0  0  0  0
   59.3070   33.1600   50.5220 C   0  0  0  0  0  0  0  0  0  0  0  0
   59.3252   34.1336   51.0336 H   0  0  0  0  0  0  0  0  0  0  0  0
   58.3540   32.1940   50.8930 C   0  0  0  0  0  0  0  0  0  0  0  0
   57.3760   32.4770   51.9700 C   0  0  0  0  0  0  0  0  0  0  0  0
   57.2970   33.6350   52.4640 O   0  0  0  0  0  0  0  0  0  0  0  0
   56.5140   31.4380   52.4520 N   0  0  0  0  0  0  0  0  0  0  0  0
   55.5440   30.7380   51.6170 C   0  0  0  0  0  0  0  0  0  0  0  0
   55.6068   31.1217   50.5880 H   0  0  0  0  0  0  0  0  0  0  0  0
   55.7695   29.6615   51.6314 H   0  0  0  0  0  0  0  0  0  0  0  0
   54.1530   30.9540   52.1430 C   0  0  0  0  0  0  0  0  0  0  0  0
   53.7830   30.4240   53.3900 C   0  0  0  0  0  0  0  0  0  0  0  0
   54.5083   29.8361   53.9716 H   0  0  0  0  0  0  0  0  0  0  0  0
   52.4970   30.6400   53.8960 C   0  0  0  0  0  0  0  0  0  0  0  0
   52.2123   30.2191   54.8716 H   0  0  0  0  0  0  0  0  0  0  0  0
   51.5740   31.3900   53.1630 C   0  0  0  0  0  0  0  0  0  0  0  0
   50.5626   31.5583   53.5614 H   0  0  0  0  0  0  0  0  0  0  0  0
   51.9350   31.9270   51.9230 C   0  0  0  0  0  0  0  0  0  0  0  0
   51.0170   32.6750   51.1960 O   0  0  0  0  0  0  0  0  0  0  0  0
   53.2200   31.7120   51.4140 C   0  0  0  0  0  0  0  0  0  0  0  0
   53.5016   32.1376   50.4396 H   0  0  0  0  0  0  0  0  0  0  0  0
   58.3480   30.9540   50.2270 C   0  0  0  0  0  0  0  0  0  0  0  0
   57.6109   30.1878   50.5091 H   0  0  0  0  0  0  0  0  0  0  0  0
  1  2  1  0
  2  3  1  0
  2  4  2  0
  4  5  1  0
  5  6  2  0
  6  7  1  0
  6  8  1  0
  8  9  1  0
  9 10  1  0
 10 11  2  0
 10 12  1  0
 12 13  1  0
 13 14  1  0
  5 15  1  0
 15 16  1  0
 15 17  2  0
 17 18  1  0
 18 19  1  0
 18 20  1  0
 18 21  1  0
 17 22  1  0
 22 23  1  0
 23 24  2  0
 24 25  1  0
 24 26  1  0
 26 27  1  0
 26 28  2  0
 28 29  1  0
 28 30  1  0
 30 31  1  0
 31 32  2  0
 31 33  1  0
 33 34  1  0
 34 35  1  0
 34 36  1  0
 34 37  1  0
 37 38  2  0
 38 39  1  0
 38 40  1  0
 40 41  1  0
 40 42  2  0
 42 43  1  0
 42 44  1  0
 44 45  1  0
 44 46  2  0
 46 47  1  0
 30 48  2  0
 48 49  1  0
 22  4  1  0
 48 23  1  0
 13  8  2  0
 46 37  1  0
M  CHG  5   9  -1  12  -1  14  -1  33  -1  45  -1
M  END
>  <UniqueID>  (68) 
59

>  <SMILES>  (68) 
C=c1/c(=C/c2[n-]c(=O)[n-]c2[O-])cc(C)n1-c1cccc(C(=O)[N-]Cc2cccc([O-])c2)c1

>  <Energy>  (68) 
120.13914820020226

>  <Genealogy>  (68) 
C=c1c(=Cc2[n-]c(=O)[n-]c2[O-])cc(C)n1-c1cccc(C(=O)[N-]Cc2cccc([O-])c2)c1 (protonated)
C=c1/c(=C/c2[n-]c(=O)[n-]c2[O-])cc(C)n1-c1cccc(C(=O)[N-]Cc2cccc([O-])c2)c1 (cis-trans isomerization)
C=c1/c(=C/c2[n-]c(=O)[n-]c2[O-])cc(C)n1-c1cccc(C(=O)[N-]Cc2cccc([O-])c2)c1 (3D coordinates assigned)
C=c1/c(=C/c2[n-]c(=O)[n-]c2[O-])cc(C)n1-c1cccc(C(=O)[N-]Cc2cccc([O-])c2)c1 (optimized conformer: 120.13914820020226 kcal/mol)

>  <smiles>  (68) 
C=c1c(=Cc2[nH]c(=O)[nH]c2O)cc(C)n1-c1cccc(C(=O)NCc2cccc(O)c2)c1

>  <score_type>  (68) 
oracle

>  <origin>  (68) 
adg

>  <m_score__min__energy>  (68) 
-21.609999999999999

>  <m_primary>  (68) 
energy

$$$$
69:0
     RDKit          3D

 51 53  0  0  0  0  0  0  0  0999 V2000
   54.6830   24.4000   47.2330 H   0  0  0  0  0  0  0  0  0  0  0  0
   55.6660   24.1910   47.1070 O   0  0  0  0  0  0  0  0  0  0  0  0
   56.5680   25.1370   46.6220 C   0  0  0  0  0  0  0  0  0  0  0  0
   57.9340   24.8360   46.6130 C   0  0  0  0  0  0  0  0  0  0  0  0
   58.2819   23.8613   46.9857 H   0  0  0  0  0  0  0  0  0  0  0  0
   58.8590   25.7670   46.1330 C   0  0  0  0  0  0  0  0  0  0  0  0
   59.9316   25.5229   46.1329 H   0  0  0  0  0  0  0  0  0  0  0  0
   58.4260   27.0120   45.6510 C   0  0  0  0  0  0  0  0  0  0  0  0
   59.4270   28.0260   45.1670 C   0  0  0  0  0  0  0  0  0  0  0  0
   59.4845   27.9817   44.0694 H   0  0  0  0  0  0  0  0  0  0  0  0
   60.4074   27.7953   45.6092 H   0  0  0  0  0  0  0  0  0  0  0  0
   59.0220   29.4090   45.5840 C   0  0  0  0  0  0  0  0  0  0  0  0
   58.3580   30.1540   44.7460 N   0  0  0  0  0  0  0  0  0  0  0  0
   57.4280   29.6500   43.7390 C   0  0  0  0  0  0  0  0  0  0  0  0
   57.4613   28.5506   43.7277 H   0  0  0  0  0  0  0  0  0  0  0  0
   57.7152   30.0376   42.7504 H   0  0  0  0  0  0  0  0  0  0  0  0
   56.0170   30.1100   44.0710 C   0  0  0  0  0  0  0  0  0  0  0  0
   55.8921   30.1507   45.1631 H   0  0  0  0  0  0  0  0  0  0  0  0
   55.8476   31.1099   43.6450 H   0  0  0  0  0  0  0  0  0  0  0  0
   55.2908   29.4021   43.6450 H   0  0  0  0  0  0  0  0  0  0  0  0
   59.4280   29.9110   46.9090 C   0  0  0  0  0  0  0  0  0  0  0  0
   59.0400   29.4460   48.1500 C   0  0  0  0  0  0  0  0  0  0  0  0
   58.1910   28.3720   48.3810 O   0  0  0  0  0  0  0  0  0  0  0  0
   59.5950   30.1880   49.1300 N   0  0  0  0  0  0  0  0  0  0  0  0
   60.3390   31.1160   48.5420 N   0  0  0  0  0  0  0  0  0  0  0  0
   61.0480   32.1680   49.2660 C   0  0  0  0  0  0  0  0  0  0  0  0
   60.7016   32.1890   50.3098 H   0  0  0  0  0  0  0  0  0  0  0  0
   62.1282   31.9625   49.2358 H   0  0  0  0  0  0  0  0  0  0  0  0
   60.7760   33.5260   48.6140 C   0  0  0  0  0  0  0  0  0  0  0  0
   61.2986   34.3086   49.1836 H   0  0  0  0  0  0  0  0  0  0  0  0
   61.1396   33.4933   47.5763 H   0  0  0  0  0  0  0  0  0  0  0  0
   59.2770   33.8400   48.5930 C   0  0  0  0  0  0  0  0  0  0  0  0
   58.7386   33.0752   49.1720 H   0  0  0  0  0  0  0  0  0  0  0  0
   59.1149   34.8338   49.0357 H   0  0  0  0  0  0  0  0  0  0  0  0
   58.7610   33.8460   47.1800 C   0  0  0  0  0  0  0  0  0  0  0  0
   59.4080   34.6090   46.1910 C   0  0  0  0  0  0  0  0  0  0  0  0
   60.3131   35.1806   46.4441 H   0  0  0  0  0  0  0  0  0  0  0  0
   58.9040   34.6430   44.8870 C   0  0  0  0  0  0  0  0  0  0  0  0
   59.4180   35.2348   44.1153 H   0  0  0  0  0  0  0  0  0  0  0  0
   57.7490   33.9270   44.5620 C   0  0  0  0  0  0  0  0  0  0  0  0
   57.3560   33.9533   43.5349 H   0  0  0  0  0  0  0  0  0  0  0  0
   57.0930   33.1770   45.5430 C   0  0  0  0  0  0  0  0  0  0  0  0
   56.1820   32.6159   45.2875 H   0  0  0  0  0  0  0  0  0  0  0  0
   57.5930   33.1390   46.8480 C   0  0  0  0  0  0  0  0  0  0  0  0
   57.0698   32.5532   47.6181 H   0  0  0  0  0  0  0  0  0  0  0  0
   60.2420   30.9810   47.2050 C   0  0  0  0  0  0  0  0  0  0  0  0
   60.7960   31.7430   46.3690 O   0  0  0  0  0  0  0  0  0  0  0  0
   57.0540   27.3160   45.6640 C   0  0  0  0  0  0  0  0  0  0  0  0
   56.7062   28.2915   45.2934 H   0  0  0  0  0  0  0  0  0  0  0  0
   56.1280   26.3840   46.1460 C   0  0  0  0  0  0  0  0  0  0  0  0
   54.7760   26.7040   46.1530 O   0  0  0  0  0  0  0  0  0  0  0  0
  1  2  1  0
  2  3  1  0
  3  4  2  0
  4  5  1  0
  4  6  1  0
  6  7  1  0
  6  8  2  0
  8  9  1  0
  9 10  1  0
  9 11  1  0
  9 12  1  0
 12 13  2  0
 13 14  1  0
 14 15  1  0
 14 16  1  0
 14 17  1  0
 17 18  1  0
 17 19  1  0
 17 20  1  0
 12 21  1  0
 21 22  2  0
 22 23  1  0
 22 24  1  0
 24 25  1  0
 25 26  1  0
 26 27  1  0
 26 28  1  0
 26 29  1  0
 29 30  1  0
 29 31  1  0
 29 32  1  0
 32 33  1  0
 32 34  1  0
 32 35  1  0
 35 36  2  0
 36 37  1  0
 36 38  1  0
 38 39  1  0
 38 40  2  0
 40 41  1  0
 40 42  1  0
 42 43  1  0
 42 44  2  0
 44 45  1  0
 25 46  1  0
 46 47  2  0
  8 48  1  0
 48 49  1  0
 48 50  2  0
 50 51  1  0
 50  3  1  0
 46 21  1  0
 44 35  1  0
M  CHG  3  23  -1  24  -1  51  -1
M  END
>  <UniqueID>  (69) 
60

>  <SMILES>  (69) 
CC/N=C(/Cc1ccc(O)c([O-])c1)c1c([O-])[n-]n(CCCc2ccccc2)c1=O

>  <Energy>  (69) 
81.96932070234568

>  <Genealogy>  (69) 
CCN=C(Cc1ccc(O)c([O-])c1)c1c([O-])[n-]n(CCCc2ccccc2)c1=O (protonated)
CC/N=C(/Cc1ccc(O)c([O-])c1)c1c([O-])[n-]n(CCCc2ccccc2)c1=O (cis-trans isomerization)
CC/N=C(/Cc1ccc(O)c([O-])c1)c1c([O-])[n-]n(CCCc2ccccc2)c1=O (3D coordinates assigned)
CC/N=C(/Cc1ccc(O)c([O-])c1)c1c([O-])[n-]n(CCCc2ccccc2)c1=O (optimized conformer: 81.96932070234568 kcal/mol)

>  <smiles>  (69) 
CCN=C(Cc1ccc(O)c(O)c1)c1c(O)[nH]n(CCCc2ccccc2)c1=O

>  <score_type>  (69) 
oracle

>  <origin>  (69) 
adg

>  <m_score__min__energy>  (69) 
-16.059999999999999

>  <m_primary>  (69) 
energy

$$$$
70:0
     RDKit          3D

 44 46  0  0  0  0  0  0  0  0999 V2000
   56.2520   29.3470   42.7360 O   0  0  0  0  0  0  0  0  0  0  0  0
   55.9790   29.7090   43.9130 C   0  0  0  0  0  0  0  0  0  0  0  0
   56.1880   31.1320   44.3240 C   0  0  0  0  0  0  0  0  0  0  0  0
   57.2970   31.2420   45.2670 N   0  0  0  0  0  0  0  0  0  0  0  0
   57.7530   32.4410   45.9090 C   0  0  0  0  0  0  0  0  0  0  0  0
   56.9280   33.3740   46.0930 O   0  0  0  0  0  0  0  0  0  0  0  0
   59.1540   32.6490   46.3190 C   0  0  0  0  0  0  0  0  0  0  0  0
   60.0610   31.6830   46.7410 C   0  0  0  0  0  0  0  0  0  0  0  0
   61.2960   32.2130   47.1310 C   0  0  0  0  0  0  0  0  0  0  0  0
   61.3640   33.5960   47.0390 C   0  0  0  0  0  0  0  0  0  0  0  0
   59.8820   34.1570   46.4780 S   0  0  0  0  0  0  0  0  0  0  0  0
   55.5680   28.7490   44.8950 N   0  0  0  0  0  0  0  0  0  0  0  0
   56.4300   27.8310   45.5840 C   0  0  0  0  0  0  0  0  0  0  0  0
   57.8050   28.0850   45.7380 C   0  0  0  0  0  0  0  0  0  0  0  0
   58.6260   27.1670   46.4060 C   0  0  0  0  0  0  0  0  0  0  0  0
   60.3460   27.5070   46.6150 S   0  0  0  0  0  0  0  0  0  0  0  0
   60.7790   28.5050   45.5790 O   0  0  0  0  0  0  0  0  0  0  0  0
   61.1320   26.2430   46.4000 O   0  0  0  0  0  0  0  0  0  0  0  0
   60.6930   28.1380   48.2070 N   0  0  0  0  0  0  0  0  0  0  0  0
   60.7510   27.0460   49.1910 C   0  0  0  0  0  0  0  0  0  0  0  0
   60.9200   27.6120   50.6160 C   0  0  0  0  0  0  0  0  0  0  0  0
   61.1010   29.0160   50.6000 O   0  0  0  0  0  0  0  0  0  0  0  0
   59.9640   29.6390   50.0310 C   0  0  0  0  0  0  0  0  0  0  0  0
   59.6770   29.1240   48.6050 C   0  0  0  0  0  0  0  0  0  0  0  0
   58.0760   25.9780   46.9010 C   0  0  0  0  0  0  0  0  0  0  0  0
   56.7180   25.7070   46.7230 C   0  0  0  0  0  0  0  0  0  0  0  0
   55.8970   26.6250   46.0620 C   0  0  0  0  0  0  0  0  0  0  0  0
   54.5470   26.3400   45.8910 O   0  0  0  0  0  0  0  0  0  0  0  0
   56.4118   31.7358   43.4322 H   0  0  0  0  0  0  0  0  0  0  0  0
   55.2722   31.4958   44.8129 H   0  0  0  0  0  0  0  0  0  0  0  0
   59.8303   30.6078   46.7658 H   0  0  0  0  0  0  0  0  0  0  0  0
   62.1346   31.5914   47.4781 H   0  0  0  0  0  0  0  0  0  0  0  0
   62.2364   34.2174   47.2897 H   0  0  0  0  0  0  0  0  0  0  0  0
   58.2385   29.0105   45.3312 H   0  0  0  0  0  0  0  0  0  0  0  0
   59.8192   26.4636   49.1409 H   0  0  0  0  0  0  0  0  0  0  0  0
   61.6128   26.4030   48.9588 H   0  0  0  0  0  0  0  0  0  0  0  0
   60.0209   27.3745   51.2036 H   0  0  0  0  0  0  0  0  0  0  0  0
   61.8141   27.1545   51.0646 H   0  0  0  0  0  0  0  0  0  0  0  0
   59.0901   29.4319   50.6662 H   0  0  0  0  0  0  0  0  0  0  0  0
   60.1631   30.7191   49.9690 H   0  0  0  0  0  0  0  0  0  0  0  0
   58.6838   28.6517   48.5823 H   0  0  0  0  0  0  0  0  0  0  0  0
   59.7058   29.9718   47.9047 H   0  0  0  0  0  0  0  0  0  0  0  0
   58.7150   25.2563   47.4310 H   0  0  0  0  0  0  0  0  0  0  0  0
   56.2924   24.7672   47.1045 H   0  0  0  0  0  0  0  0  0  0  0  0
  1  2  2  0
  2  3  1  0
  3  4  1  0
  4  5  1  0
  5  6  2  0
  5  7  1  0
  7  8  2  0
  8  9  1  0
  9 10  2  0
 10 11  1  0
  2 12  1  0
 12 13  1  0
 13 14  2  0
 14 15  1  0
 15 16  1  0
 16 17  2  0
 16 18  2  0
 16 19  1  0
 19 20  1  0
 20 21  1  0
 21 22  1  0
 22 23  1  0
 23 24  1  0
 15 25  2  0
 25 26  1  0
 26 27  2  0
 27 28  1  0
 11  7  1  0
 27 13  1  0
 24 19  1  0
  3 29  1  0
  3 30  1  0
  8 31  1  0
  9 32  1  0
 10 33  1  0
 14 34  1  0
 20 35  1  0
 20 36  1  0
 21 37  1  0
 21 38  1  0
 23 39  1  0
 23 40  1  0
 24 41  1  0
 24 42  1  0
 25 43  1  0
 26 44  1  0
M  CHG  3   4  -1  12  -1  28  -1
M  END
>  <UniqueID>  (70) 
61

>  <SMILES>  (70) 
O=C(C[N-]C(=O)c1cccs1)[N-]c1cc(S(=O)(=O)N2CCOCC2)ccc1[O-]

>  <Energy>  (70) 
83.80105935666167

>  <Genealogy>  (70) 
O=C(C[N-]C(=O)c1cccs1)[N-]c1cc(S(=O)(=O)N2CCOCC2)ccc1[O-] (protonated)
O=C(C[N-]C(=O)c1cccs1)[N-]c1cc(S(=O)(=O)N2CCOCC2)ccc1[O-] (3D coordinates assigned)
O=C(C[N-]C(=O)c1cccs1)[N-]c1cc(S(=O)(=O)N2CCOCC2)ccc1[O-] (nonaromatic ring conformer: 83.80105935666167 kcal/mol)

>  <smiles>  (70) 
O=C(CNC(=O)c1cccs1)Nc1cc(S(=O)(=O)N2CCOCC2)ccc1O

>  <score_type>  (70) 
oracle

>  <origin>  (70) 
adg

>  <m_score__min__energy>  (70) 
-15.18

>  <m_primary>  (70) 
energy

$$$$
71:0
     RDKit          3D

 44 45  0  0  0  0  0  0  0  0999 V2000
   60.2485   34.3933   50.6391 H   0  0  0  0  0  0  0  0  0  0  0  0
   60.1580   33.5910   49.8920 C   0  0  0  0  0  0  0  0  0  0  0  0
   58.9520   33.4580   49.1860 O   0  0  0  0  0  0  0  0  0  0  0  0
   58.8330   33.3020   47.7970 C   0  0  0  0  0  0  0  0  0  0  0  0
   58.6860   34.4030   46.9330 C   0  0  0  0  0  0  0  0  0  0  0  0
   58.6434   35.4217   47.3458 H   0  0  0  0  0  0  0  0  0  0  0  0
   58.5940   34.2070   45.5530 C   0  0  0  0  0  0  0  0  0  0  0  0
   58.4717   35.0709   44.8832 H   0  0  0  0  0  0  0  0  0  0  0  0
   58.6570   32.9160   45.0210 C   0  0  0  0  0  0  0  0  0  0  0  0
   58.5857   32.7671   43.9335 H   0  0  0  0  0  0  0  0  0  0  0  0
   58.8110   31.8090   45.8700 C   0  0  0  0  0  0  0  0  0  0  0  0
   58.9280   30.4220   45.2940 C   0  0  0  0  0  0  0  0  0  0  0  0
   59.9551   30.0577   45.4437 H   0  0  0  0  0  0  0  0  0  0  0  0
   58.6834   30.4701   44.2226 H   0  0  0  0  0  0  0  0  0  0  0  0
   57.9500   29.4510   45.9700 C   0  0  0  0  0  0  0  0  0  0  0  0
   57.8754   29.7036   47.0380 H   0  0  0  0  0  0  0  0  0  0  0  0
   58.3304   28.4275   45.8371 H   0  0  0  0  0  0  0  0  0  0  0  0
   56.6170   29.5300   45.3670 N   0  0  0  0  0  0  0  0  0  0  0  0
   55.8230   29.7810   45.9960 H   0  0  0  0  0  0  0  0  0  0  0  0
   56.3300   29.3300   43.9700 C   0  0  0  0  0  0  0  0  0  0  0  0
   55.0370   29.6820   43.4720 N   0  0  0  0  0  0  0  0  0  0  0  0
   54.3200   30.0950   44.1090 H   0  0  0  0  0  0  0  0  0  0  0  0
   54.7910   29.5440   42.4660 H   0  0  0  0  0  0  0  0  0  0  0  0
   57.2130   28.8240   43.1590 N   0  0  0  0  0  0  0  0  0  0  0  0
   57.0700   27.8760   42.7440 H   0  0  0  0  0  0  0  0  0  0  0  0
   58.0900   29.3250   42.9020 H   0  0  0  0  0  0  0  0  0  0  0  0
   58.9130   32.0130   47.2570 C   0  0  0  0  0  0  0  0  0  0  0  0
   59.0572   31.1509   47.9249 H   0  0  0  0  0  0  0  0  0  0  0  0
   61.2020   32.7780   49.6900 C   0  0  0  0  0  0  0  0  0  0  0  0
   61.2172   31.7873   50.1678 H   0  0  0  0  0  0  0  0  0  0  0  0
   62.3570   33.1990   48.8180 C   0  0  0  0  0  0  0  0  0  0  0  0
   62.9960   33.7846   49.4953 H   0  0  0  0  0  0  0  0  0  0  0  0
   61.9120   34.0150   47.6110 C   0  0  0  0  0  0  0  0  0  0  0  0
   60.9539   33.6392   47.2228 H   0  0  0  0  0  0  0  0  0  0  0  0
   61.7568   35.0742   47.8640 H   0  0  0  0  0  0  0  0  0  0  0  0
   63.0150   33.8310   46.5800 C   0  0  0  0  0  0  0  0  0  0  0  0
   62.5849   33.7826   45.5687 H   0  0  0  0  0  0  0  0  0  0  0  0
   63.7222   34.6733   46.6012 H   0  0  0  0  0  0  0  0  0  0  0  0
   63.7150   32.5150   46.9190 C   0  0  0  0  0  0  0  0  0  0  0  0
   63.5549   31.7829   46.1137 H   0  0  0  0  0  0  0  0  0  0  0  0
   64.7996   32.6625   47.0283 H   0  0  0  0  0  0  0  0  0  0  0  0
   63.0990   32.0080   48.2190 C   0  0  0  0  0  0  0  0  0  0  0  0
   62.3997   31.1835   48.0158 H   0  0  0  0  0  0  0  0  0  0  0  0
   63.8652   31.6202   48.9065 H   0  0  0  0  0  0  0  0  0  0  0  0
  1  2  1  0
  2  3  1  0
  3  4  1  0
  4  5  2  0
  5  6  1  0
  5  7  1  0
  7  8  1  0
  7  9  2  0
  9 10  1  0
  9 11  1  0
 11 12  1  0
 12 13  1  0
 12 14  1  0
 12 15  1  0
 15 16  1  0
 15 17  1  0
 15 18  1  0
 18 19  1  0
 18 20  1  0
 20 21  1  0
 21 22  1  0
 21 23  1  0
 20 24  2  0
 24 25  1  0
 24 26  1  0
 11 27  2  0
 27 28  1  0
  2 29  2  0
 29 30  1  0
 29 31  1  0
 31 32  1  0
 31 33  1  0
 33 34  1  0
 33 35  1  0
 33 36  1  0
 36 37  1  0
 36 38  1  0
 36 39  1  0
 39 40  1  0
 39 41  1  0
 39 42  1  0
 42 43  1  0
 42 44  1  0
 27  4  1  0
 42 31  1  0
M  CHG  1  24   1
M  END
>  <UniqueID>  (71) 
62

>  <SMILES>  (71) 
NC(=[NH2+])NCCc1cccc(O/C=C/C2CCCC2)c1

>  <Energy>  (71) 
40.960095376041515

>  <Genealogy>  (71) 
NC(=[NH2+])NCCc1cccc(OC=CC2CCCC2)c1 (protonated)
NC(=[NH2+])NCCc1cccc(O/C=C/C2CCCC2)c1 (cis-trans isomerization)
NC(=[NH2+])NCCc1cccc(O/C=C/C2CCCC2)c1 (3D coordinates assigned)
NC(=[NH2+])NCCc1cccc(O/C=C/C2CCCC2)c1 (nonaromatic ring conformer: 40.960095376041515 kcal/mol)

>  <smiles>  (71) 
N=C(N)NCCc1cccc(OC=CC2CCCC2)c1

>  <score_type>  (71) 
oracle

>  <origin>  (71) 
adg

>  <m_score__min__energy>  (71) 
-6.0999999999999996

>  <m_primary>  (71) 
energy

$$$$
72:0
     RDKit          3D

 46 48  0  0  0  0  0  0  0  0999 V2000
   60.2130   27.4400   46.3950 C   0  0  0  0  0  0  0  0  0  0  0  0
   59.2880   28.3720   46.1110 C   0  0  0  0  0  0  0  0  0  0  0  0
   58.1440   28.1940   45.3130 C   0  0  0  0  0  0  0  0  0  0  0  0
   57.5760   27.0780   44.8140 C   0  0  0  0  0  0  0  0  0  0  0  0
   57.0800   25.9400   45.6050 C   0  0  0  0  0  0  0  0  0  0  0  0
   57.8320   24.9190   46.0500 N   0  0  0  0  0  0  0  0  0  0  0  0
   57.0050   24.2080   46.8420 C   0  0  0  0  0  0  0  0  0  0  0  0
   57.3600   23.1600   47.4410 O   0  0  0  0  0  0  0  0  0  0  0  0
   55.7630   24.7290   46.9500 N   0  0  0  0  0  0  0  0  0  0  0  0
   55.8330   25.8290   46.1750 C   0  0  0  0  0  0  0  0  0  0  0  0
   54.7790   26.7170   46.0000 O   0  0  0  0  0  0  0  0  0  0  0  0
   57.6210   29.4550   45.0980 C   0  0  0  0  0  0  0  0  0  0  0  0
   58.3940   30.3380   45.8190 C   0  0  0  0  0  0  0  0  0  0  0  0
   58.1790   31.8220   45.8350 C   0  0  0  0  0  0  0  0  0  0  0  0
   59.4070   29.6890   46.4410 N   0  0  0  0  0  0  0  0  0  0  0  0
   60.4610   30.3370   47.2420 C   0  0  0  0  0  0  0  0  0  0  0  0
   59.8940   30.8970   48.5210 C   0  0  0  0  0  0  0  0  0  0  0  0
   60.0750   32.2530   48.8440 C   0  0  0  0  0  0  0  0  0  0  0  0
   59.5630   32.7690   50.0380 C   0  0  0  0  0  0  0  0  0  0  0  0
   58.8590   31.9410   50.9200 C   0  0  0  0  0  0  0  0  0  0  0  0
   58.2450   32.6010   52.4330 S   0  0  0  0  0  0  0  0  0  0  0  0
   57.3910   33.8130   52.1790 O   0  0  0  0  0  0  0  0  0  0  0  0
   59.4040   33.0040   53.3000 O   0  0  0  0  0  0  0  0  0  0  0  0
   57.3080   31.3980   53.2510 N   0  0  0  0  0  0  0  0  0  0  0  0
   56.3170   30.6130   52.5860 C   0  0  0  0  0  0  0  0  0  0  0  0
   55.0050   31.2260   52.2340 C   0  0  0  0  0  0  0  0  0  0  0  0
   56.5600   29.4200   52.2600 O   0  0  0  0  0  0  0  0  0  0  0  0
   58.6730   30.5900   50.6020 C   0  0  0  0  0  0  0  0  0  0  0  0
   59.1850   30.0710   49.4090 C   0  0  0  0  0  0  0  0  0  0  0  0
   61.0714   27.6940   47.0342 H   0  0  0  0  0  0  0  0  0  0  0  0
   60.1119   26.4230   45.9883 H   0  0  0  0  0  0  0  0  0  0  0  0
   57.4743   27.0120   43.7207 H   0  0  0  0  0  0  0  0  0  0  0  0
   58.8420   24.7350   45.8600 H   0  0  0  0  0  0  0  0  0  0  0  0
   56.7529   29.7057   44.4707 H   0  0  0  0  0  0  0  0  0  0  0  0
   58.1280   32.1739   46.8759 H   0  0  0  0  0  0  0  0  0  0  0  0
   59.0145   32.3191   45.3204 H   0  0  0  0  0  0  0  0  0  0  0  0
   57.2368   32.0616   45.3204 H   0  0  0  0  0  0  0  0  0  0  0  0
   61.2360   29.5954   47.4855 H   0  0  0  0  0  0  0  0  0  0  0  0
   60.8912   31.1626   46.6562 H   0  0  0  0  0  0  0  0  0  0  0  0
   60.6224   32.9115   48.1536 H   0  0  0  0  0  0  0  0  0  0  0  0
   59.7140   33.8301   50.2854 H   0  0  0  0  0  0  0  0  0  0  0  0
   54.4603   31.4805   53.1551 H   0  0  0  0  0  0  0  0  0  0  0  0
   55.1733   32.1387   51.6435 H   0  0  0  0  0  0  0  0  0  0  0  0
   54.4130   30.5113   51.6435 H   0  0  0  0  0  0  0  0  0  0  0  0
   58.1223   29.9349   51.2931 H   0  0  0  0  0  0  0  0  0  0  0  0
   59.0318   29.0096   49.1643 H   0  0  0  0  0  0  0  0  0  0  0  0
  1  2  2  0
  2  3  1  0
  3  4  2  3
  4  5  1  0
  5  6  1  0
  6  7  1  0
  7  8  2  0
  7  9  1  0
  9 10  1  0
 10 11  1  0
  3 12  1  0
 12 13  2  0
 13 14  1  0
 13 15  1  0
 15 16  1  0
 16 17  1  0
 17 18  2  0
 18 19  1  0
 19 20  2  0
 20 21  1  0
 21 22  2  0
 21 23  2  0
 21 24  1  0
 24 25  1  0
 25 26  1  0
 25 27  2  0
 20 28  1  0
 28 29  2  0
 15  2  1  0
 29 17  1  0
 10  5  2  0
  1 30  1  0
  1 31  1  0
  4 32  1  0
  6 33  1  0
 12 34  1  0
 14 35  1  0
 14 36  1  0
 14 37  1  0
 16 38  1  0
 16 39  1  0
 18 40  1  0
 19 41  1  0
 26 42  1  0
 26 43  1  0
 26 44  1  0
 28 45  1  0
 29 46  1  0
M  CHG  3   9  -1  11  -1  24  -1
M  END
>  <UniqueID>  (72) 
63

>  <SMILES>  (72) 
C=c1c(=Cc2[nH]c(=O)[n-]c2[O-])cc(C)n1Cc1ccc(S(=O)(=O)[N-]C(C)=O)cc1

>  <Energy>  (72) 
117.8424141066207

>  <Genealogy>  (72) 
C=c1c(=Cc2[nH]c(=O)[n-]c2[O-])cc(C)n1Cc1ccc(S(=O)(=O)[N-]C(C)=O)cc1 (protonated)
C=c1c(=Cc2[nH]c(=O)[n-]c2[O-])cc(C)n1Cc1ccc(S(=O)(=O)[N-]C(C)=O)cc1 (3D coordinates assigned)
C=c1c(=Cc2[nH]c(=O)[n-]c2[O-])cc(C)n1Cc1ccc(S(=O)(=O)[N-]C(C)=O)cc1 (optimized conformer: 117.8424141066207 kcal/mol)

>  <smiles>  (72) 
C=c1c(=Cc2[nH]c(=O)[nH]c2O)cc(C)n1Cc1ccc(S(=O)(=O)NC(C)=O)cc1

>  <score_type>  (72) 
oracle

>  <origin>  (72) 
adg

>  <m_score__min__energy>  (72) 
-15.57

>  <m_primary>  (72) 
energy

$$$$
73:0
     RDKit          3D

 57 59  0  0  0  0  0  0  0  0999 V2000
   57.3380   19.4790   47.0400 C   0  0  0  0  0  0  0  0  0  0  0  0
   57.6860   20.6370   47.7860 O   0  0  0  0  0  0  0  0  0  0  0  0
   56.8580   21.1790   48.7720 C   0  0  0  0  0  0  0  0  0  0  0  0
   57.3480   21.8290   49.7360 O   0  0  0  0  0  0  0  0  0  0  0  0
   55.3800   20.9770   48.6890 C   0  0  0  0  0  0  0  0  0  0  0  0
   54.6260   22.2020   47.5600 S   0  0  0  0  0  0  0  0  0  0  0  0
   55.9250   23.4890   47.6970 C   0  0  0  0  0  0  0  0  0  0  0  0
   55.7110   24.6220   46.7260 C   0  0  0  0  0  0  0  0  0  0  0  0
   54.6750   24.6300   46.0100 O   0  0  0  0  0  0  0  0  0  0  0  0
   56.5470   25.7860   46.7270 N   0  0  0  0  0  0  0  0  0  0  0  0
   56.9470   26.5700   45.5930 C   0  0  0  0  0  0  0  0  0  0  0  0
   56.8070   27.9670   45.6020 C   0  0  0  0  0  0  0  0  0  0  0  0
   57.2330   28.7370   44.5130 C   0  0  0  0  0  0  0  0  0  0  0  0
   57.0740   30.4960   44.5550 S   0  0  0  0  0  0  0  0  0  0  0  0
   57.7350   31.0810   43.3390 O   0  0  0  0  0  0  0  0  0  0  0  0
   55.6160   30.8610   44.5140 O   0  0  0  0  0  0  0  0  0  0  0  0
   57.8100   31.1760   45.9880 N   0  0  0  0  0  0  0  0  0  0  0  0
   59.2260   30.7740   46.0840 C   0  0  0  0  0  0  0  0  0  0  0  0
   60.0060   31.7370   46.9930 C   0  0  0  0  0  0  0  0  0  0  0  0
   60.0010   33.0880   46.5460 O   0  0  0  0  0  0  0  0  0  0  0  0
   58.9050   33.4090   45.7000 C   0  0  0  0  0  0  0  0  0  0  0  0
   57.6180   32.6420   46.0560 C   0  0  0  0  0  0  0  0  0  0  0  0
   57.7990   28.1030   43.4020 C   0  0  0  0  0  0  0  0  0  0  0  0
   57.9630   26.7170   43.3910 C   0  0  0  0  0  0  0  0  0  0  0  0
   57.5590   25.9440   44.4900 C   0  0  0  0  0  0  0  0  0  0  0  0
   57.7650   24.5230   44.4600 N   0  0  0  0  0  0  0  0  0  0  0  0
   57.0840   23.6830   43.4730 C   0  0  0  0  0  0  0  0  0  0  0  0
   56.7410   22.3320   44.1080 C   0  0  0  0  0  0  0  0  0  0  0  0
   57.8900   21.7460   44.6910 O   0  0  0  0  0  0  0  0  0  0  0  0
   58.3430   22.5410   45.7710 C   0  0  0  0  0  0  0  0  0  0  0  0
   58.8140   23.9130   45.2780 C   0  0  0  0  0  0  0  0  0  0  0  0
   57.0915   18.6586   47.7301 H   0  0  0  0  0  0  0  0  0  0  0  0
   56.4664   19.6994   46.4062 H   0  0  0  0  0  0  0  0  0  0  0  0
   58.1867   19.1824   46.4062 H   0  0  0  0  0  0  0  0  0  0  0  0
   55.1740   19.9640   48.3130 H   0  0  0  0  0  0  0  0  0  0  0  0
   54.9474   21.1056   49.6922 H   0  0  0  0  0  0  0  0  0  0  0  0
   55.9163   23.8932   48.7200 H   0  0  0  0  0  0  0  0  0  0  0  0
   56.8909   23.0195   47.4594 H   0  0  0  0  0  0  0  0  0  0  0  0
   56.3572   28.4625   46.4751 H   0  0  0  0  0  0  0  0  0  0  0  0
   59.2849   29.7576   46.5004 H   0  0  0  0  0  0  0  0  0  0  0  0
   59.6695   30.8017   45.0778 H   0  0  0  0  0  0  0  0  0  0  0  0
   59.5583   31.7034   47.9972 H   0  0  0  0  0  0  0  0  0  0  0  0
   61.0541   31.4033   46.9846 H   0  0  0  0  0  0  0  0  0  0  0  0
   58.7035   34.4872   45.7830 H   0  0  0  0  0  0  0  0  0  0  0  0
   59.1860   33.1183   44.6770 H   0  0  0  0  0  0  0  0  0  0  0  0
   57.3138   32.9134   47.0777 H   0  0  0  0  0  0  0  0  0  0  0  0
   56.8444   32.9179   45.3243 H   0  0  0  0  0  0  0  0  0  0  0  0
   58.1161   28.6991   42.5336 H   0  0  0  0  0  0  0  0  0  0  0  0
   58.4122   26.2272   42.5145 H   0  0  0  0  0  0  0  0  0  0  0  0
   56.1593   24.1794   43.1435 H   0  0  0  0  0  0  0  0  0  0  0  0
   57.7425   23.5259   42.6060 H   0  0  0  0  0  0  0  0  0  0  0  0
   55.9782   22.4823   44.8862 H   0  0  0  0  0  0  0  0  0  0  0  0
   56.3606   21.6599   43.3247 H   0  0  0  0  0  0  0  0  0  0  0  0
   57.5197   22.6786   46.4874 H   0  0  0  0  0  0  0  0  0  0  0  0
   59.1896   22.0304   46.2532 H   0  0  0  0  0  0  0  0  0  0  0  0
   59.0281   24.5595   46.1418 H   0  0  0  0  0  0  0  0  0  0  0  0
   59.7263   23.7931   44.6752 H   0  0  0  0  0  0  0  0  0  0  0  0
  1  2  1  0
  2  3  1  0
  3  4  2  0
  3  5  1  0
  5  6  1  0
  6  7  1  0
  7  8  1  0
  8  9  2  0
  8 10  1  0
 10 11  1  0
 11 12  2  0
 12 13  1  0
 13 14  1  0
 14 15  2  0
 14 16  2  0
 14 17  1  0
 17 18  1  0
 18 19  1  0
 19 20  1  0
 20 21  1  0
 21 22  1  0
 13 23  2  0
 23 24  1  0
 24 25  2  0
 25 26  1  0
 26 27  1  0
 27 28  1  0
 28 29  1  0
 29 30  1  0
 30 31  1  0
 25 11  1  0
 31 26  1  0
 22 17  1  0
  1 32  1  0
  1 33  1  0
  1 34  1  0
  5 35  1  0
  5 36  1  0
  7 37  1  0
  7 38  1  0
 12 39  1  0
 18 40  1  0
 18 41  1  0
 19 42  1  0
 19 43  1  0
 21 44  1  0
 21 45  1  0
 22 46  1  0
 22 47  1  0
 23 48  1  0
 24 49  1  0
 27 50  1  0
 27 51  1  0
 28 52  1  0
 28 53  1  0
 30 54  1  0
 30 55  1  0
 31 56  1  0
 31 57  1  0
M  CHG  1  10  -1
M  END
>  <UniqueID>  (73) 
64

>  <SMILES>  (73) 
COC(=O)CSCC(=O)[N-]c1cc(S(=O)(=O)N2CCOCC2)ccc1N1CCOCC1

>  <Energy>  (73) 
71.32322740662642

>  <Genealogy>  (73) 
COC(=O)CSCC(=O)[N-]c1cc(S(=O)(=O)N2CCOCC2)ccc1N1CCOCC1 (protonated)
COC(=O)CSCC(=O)[N-]c1cc(S(=O)(=O)N2CCOCC2)ccc1N1CCOCC1 (3D coordinates assigned)
COC(=O)CSCC(=O)[N-]c1cc(S(=O)(=O)N2CCOCC2)ccc1N1CCOCC1 (nonaromatic ring conformer: 71.32322740662642 kcal/mol)

>  <smiles>  (73) 
COC(=O)CSCC(=O)Nc1cc(S(=O)(=O)N2CCOCC2)ccc1N1CCOCC1

>  <score_type>  (73) 
oracle

>  <origin>  (73) 
adg

>  <m_score__min__energy>  (73) 
-10.77

>  <m_primary>  (73) 
energy

$$$$
74:0
     RDKit          3D

 50 53  0  0  0  0  0  0  0  0999 V2000
   53.7575   25.2858   44.9914 H   0  0  0  0  0  0  0  0  0  0  0  0
   54.5300   24.8230   45.6230 C   0  0  0  0  0  0  0  0  0  0  0  0
   55.4490   25.5590   46.3090 N   0  0  0  0  0  0  0  0  0  0  0  0
   56.2810   24.7740   47.0240 C   0  0  0  0  0  0  0  0  0  0  0  0
   57.4430   25.2910   47.8030 C   0  0  0  0  0  0  0  0  0  0  0  0
   57.8497   24.4894   48.4371 H   0  0  0  0  0  0  0  0  0  0  0  0
   57.1231   26.1260   48.4437 H   0  0  0  0  0  0  0  0  0  0  0  0
   58.4440   25.7350   46.8900 O   0  0  0  0  0  0  0  0  0  0  0  0
   58.2070   26.5340   45.7610 C   0  0  0  0  0  0  0  0  0  0  0  0
   58.1520   27.9390   45.8330 C   0  0  0  0  0  0  0  0  0  0  0  0
   58.2649   28.4389   46.8063 H   0  0  0  0  0  0  0  0  0  0  0  0
   57.9540   28.7110   44.6720 C   0  0  0  0  0  0  0  0  0  0  0  0
   57.9450   30.1960   44.7360 C   0  0  0  0  0  0  0  0  0  0  0  0
   57.7110   31.0190   43.6280 C   0  0  0  0  0  0  0  0  0  0  0  0
   57.5287   30.6782   42.5981 H   0  0  0  0  0  0  0  0  0  0  0  0
   57.7570   32.6220   44.1450 S   0  0  0  0  0  0  0  0  0  0  0  0
   58.0510   32.2180   45.7540 C   0  0  0  0  0  0  0  0  0  0  0  0
   58.2180   33.0300   46.7580 N   0  0  0  0  0  0  0  0  0  0  0  0
   59.3880   33.7470   47.1980 C   0  0  0  0  0  0  0  0  0  0  0  0
   59.2340   34.9280   47.6170 O   0  0  0  0  0  0  0  0  0  0  0  0
   60.7490   33.1720   47.2130 C   0  0  0  0  0  0  0  0  0  0  0  0
   61.8150   33.9560   46.7510 C   0  0  0  0  0  0  0  0  0  0  0  0
   61.6237   34.9673   46.3627 H   0  0  0  0  0  0  0  0  0  0  0  0
   63.1180   33.4580   46.7820 C   0  0  0  0  0  0  0  0  0  0  0  0
   63.9537   34.0863   46.4401 H   0  0  0  0  0  0  0  0  0  0  0  0
   63.3640   32.1640   47.2460 C   0  0  0  0  0  0  0  0  0  0  0  0
   64.3925   31.7746   47.2671 H   0  0  0  0  0  0  0  0  0  0  0  0
   62.3070   31.3640   47.6830 C   0  0  0  0  0  0  0  0  0  0  0  0
   62.5056   30.3428   48.0404 H   0  0  0  0  0  0  0  0  0  0  0  0
   60.9840   31.8580   47.6690 C   0  0  0  0  0  0  0  0  0  0  0  0
   59.8960   31.0800   48.1180 O   0  0  0  0  0  0  0  0  0  0  0  0
   60.0030   29.7140   48.5230 C   0  0  0  0  0  0  0  0  0  0  0  0
   60.0075   29.6565   49.6215 H   0  0  0  0  0  0  0  0  0  0  0  0
   59.1465   29.1468   48.1297 H   0  0  0  0  0  0  0  0  0  0  0  0
   60.9373   29.2870   48.1297 H   0  0  0  0  0  0  0  0  0  0  0  0
   58.1410   30.8800   45.9010 N   0  0  0  0  0  0  0  0  0  0  0  0
   58.3630   30.4320   46.8180 H   0  0  0  0  0  0  0  0  0  0  0  0
   57.7760   28.0480   43.4430 C   0  0  0  0  0  0  0  0  0  0  0  0
   57.6114   28.6350   42.5274 H   0  0  0  0  0  0  0  0  0  0  0  0
   57.8060   26.6560   43.3730 C   0  0  0  0  0  0  0  0  0  0  0  0
   57.6446   26.1540   42.4076 H   0  0  0  0  0  0  0  0  0  0  0  0
   58.0410   25.8900   44.5270 C   0  0  0  0  0  0  0  0  0  0  0  0
   58.1400   24.4910   44.4880 O   0  0  0  0  0  0  0  0  0  0  0  0
   57.2800   23.6400   43.7460 C   0  0  0  0  0  0  0  0  0  0  0  0
   56.6724   23.0388   44.4384 H   0  0  0  0  0  0  0  0  0  0  0  0
   56.6188   24.2492   43.1123 H   0  0  0  0  0  0  0  0  0  0  0  0
   57.8823   22.9724   43.1123 H   0  0  0  0  0  0  0  0  0  0  0  0
   55.9300   23.1430   46.8140 S   0  0  0  0  0  0  0  0  0  0  0  0
   54.6380   23.4460   45.7780 C   0  0  0  0  0  0  0  0  0  0  0  0
   53.9938   22.6887   45.3074 H   0  0  0  0  0  0  0  0  0  0  0  0
  1  2  1  0
  2  3  1  0
  3  4  2  0
  4  5  1  0
  5  6  1  0
  5  7  1  0
  5  8  1  0
  8  9  1  0
  9 10  2  0
 10 11  1  0
 10 12  1  0
 12 13  1  0
 13 14  2  0
 14 15  1  0
 14 16  1  0
 16 17  1  0
 17 18  2  0
 18 19  1  0
 19 20  2  0
 19 21  1  0
 21 22  2  0
 22 23  1  0
 22 24  1  0
 24 25  1  0
 24 26  2  0
 26 27  1  0
 26 28  1  0
 28 29  1  0
 28 30  2  0
 30 31  1  0
 31 32  1  0
 32 33  1  0
 32 34  1  0
 32 35  1  0
 17 36  1  0
 36 37  1  0
 12 38  2  0
 38 39  1  0
 38 40  1  0
 40 41  1  0
 40 42  2  0
 42 43  1  0
 43 44  1  0
 44 45  1  0
 44 46  1  0
 44 47  1  0
  4 48  1  0
 48 49  1  0
 49 50  1  0
 49  2  2  0
 42  9  1  0
 36 13  1  0
 30 21  1  0
M  END
>  <UniqueID>  (74) 
65

>  <SMILES>  (74) 
COc1ccc(-c2cs/c(=N\C(=O)c3ccccc3OC)[nH]2)cc1OCc1nccs1

>  <Energy>  (74) 
127.66196036023936

>  <Genealogy>  (74) 
COc1ccc(-c2cs/c(=N\C(=O)c3ccccc3OC)[nH]2)cc1OCc1nccs1 (cis-trans isomerization)
COc1ccc(-c2cs/c(=N\C(=O)c3ccccc3OC)[nH]2)cc1OCc1nccs1 (3D coordinates assigned)
COc1ccc(-c2cs/c(=N\C(=O)c3ccccc3OC)[nH]2)cc1OCc1nccs1 (optimized conformer: 127.66196036023936 kcal/mol)

>  <smiles>  (74) 
COc1ccc(-c2csc(=NC(=O)c3ccccc3OC)[nH]2)cc1OCc1nccs1

>  <score_type>  (74) 
oracle

>  <origin>  (74) 
adg

>  <m_score__min__energy>  (74) 
-8.7799999999999994

>  <m_primary>  (74) 
energy

$$$$
75:0
     RDKit          3D

 46 48  0  0  0  0  0  0  0  0999 V2000
   59.0176   35.2552   47.1142 H   0  0  0  0  0  0  0  0  0  0  0  0
   58.7020   34.4330   46.4550 C   0  0  0  0  0  0  0  0  0  0  0  0
   58.8480   34.5520   45.0690 C   0  0  0  0  0  0  0  0  0  0  0  0
   59.2733   35.4704   44.6381 H   0  0  0  0  0  0  0  0  0  0  0  0
   58.4540   33.5050   44.2310 C   0  0  0  0  0  0  0  0  0  0  0  0
   58.5634   33.6049   43.1410 H   0  0  0  0  0  0  0  0  0  0  0  0
   57.9190   32.3260   44.7750 C   0  0  0  0  0  0  0  0  0  0  0  0
   57.4570   31.2170   43.8740 C   0  0  0  0  0  0  0  0  0  0  0  0
   58.3218   30.6140   43.5601 H   0  0  0  0  0  0  0  0  0  0  0  0
   56.9684   31.6430   42.9853 H   0  0  0  0  0  0  0  0  0  0  0  0
   56.5100   30.3730   44.5960 N   0  0  0  0  0  0  0  0  0  0  0  0
   56.7960   29.2910   45.2620 C   0  0  0  0  0  0  0  0  0  0  0  0
   57.9460   29.2590   45.9800 N   0  0  0  0  0  0  0  0  0  0  0  0
   58.2870   28.1590   46.6990 C   0  0  0  0  0  0  0  0  0  0  0  0
   59.3990   28.1080   47.3730 N   0  0  0  0  0  0  0  0  0  0  0  0
   60.2490   29.2160   47.7200 C   0  0  0  0  0  0  0  0  0  0  0  0
   60.7010   30.1300   46.7480 C   0  0  0  0  0  0  0  0  0  0  0  0
   60.4245   29.9874   45.6929 H   0  0  0  0  0  0  0  0  0  0  0  0
   61.4980   31.2160   47.1160 C   0  0  0  0  0  0  0  0  0  0  0  0
   61.8605   31.9162   46.3490 H   0  0  0  0  0  0  0  0  0  0  0  0
   61.8350   31.4140   48.4550 C   0  0  0  0  0  0  0  0  0  0  0  0
   62.4702   32.2652   48.7413 H   0  0  0  0  0  0  0  0  0  0  0  0
   61.3670   30.5330   49.4330 C   0  0  0  0  0  0  0  0  0  0  0  0
   61.6266   30.6993   50.4889 H   0  0  0  0  0  0  0  0  0  0  0  0
   60.5630   29.4310   49.0730 C   0  0  0  0  0  0  0  0  0  0  0  0
   60.0660   28.5300   50.0280 O   0  0  0  0  0  0  0  0  0  0  0  0
   60.7930   28.0810   51.1680 C   0  0  0  0  0  0  0  0  0  0  0  0
   60.2741   28.4015   52.0834 H   0  0  0  0  0  0  0  0  0  0  0  0
   60.8612   26.9833   51.1504 H   0  0  0  0  0  0  0  0  0  0  0  0
   61.8051   28.5116   51.1504 H   0  0  0  0  0  0  0  0  0  0  0  0
   57.4770   27.0740   46.6790 N   0  0  0  0  0  0  0  0  0  0  0  0
   56.3220   27.0810   45.9670 C   0  0  0  0  0  0  0  0  0  0  0  0
   55.5730   26.0150   45.9850 N   0  0  0  0  0  0  0  0  0  0  0  0
   55.8480   24.7600   45.2900 C   0  0  0  0  0  0  0  0  0  0  0  0
   54.9841   24.4909   44.6646 H   0  0  0  0  0  0  0  0  0  0  0  0
   56.0294   23.9653   46.0287 H   0  0  0  0  0  0  0  0  0  0  0  0
   57.0780   24.9230   44.4110 C   0  0  0  0  0  0  0  0  0  0  0  0
   57.9689   25.0411   45.0453 H   0  0  0  0  0  0  0  0  0  0  0  0
   57.1954   24.0326   43.7759 H   0  0  0  0  0  0  0  0  0  0  0  0
   56.9594   25.8133   43.7759 H   0  0  0  0  0  0  0  0  0  0  0  0
   55.9760   28.1980   45.2550 N   0  0  0  0  0  0  0  0  0  0  0  0
   55.0900   28.2120   44.7060 H   0  0  0  0  0  0  0  0  0  0  0  0
   57.7580   32.2200   46.1670 C   0  0  0  0  0  0  0  0  0  0  0  0
   57.3186   31.3096   46.6008 H   0  0  0  0  0  0  0  0  0  0  0  0
   58.1550   33.2690   47.0020 C   0  0  0  0  0  0  0  0  0  0  0  0
   58.0365   33.1779   48.0918 H   0  0  0  0  0  0  0  0  0  0  0  0
  1  2  1  0
  2  3  2  0
  3  4  1  0
  3  5  1  0
  5  6  1  0
  5  7  2  0
  7  8  1  0
  8  9  1  0
  8 10  1  0
  8 11  1  0
 11 12  2  0
 12 13  1  0
 13 14  1  0
 14 15  2  3
 15 16  1  0
 16 17  2  0
 17 18  1  0
 17 19  1  0
 19 20  1  0
 19 21  2  0
 21 22  1  0
 21 23  1  0
 23 24  1  0
 23 25  2  0
 25 26  1  0
 26 27  1  0
 27 28  1  0
 27 29  1  0
 27 30  1  0
 14 31  1  0
 31 32  1  0
 32 33  2  0
 33 34  1  0
 34 35  1  0
 34 36  1  0
 34 37  1  0
 37 38  1  0
 37 39  1  0
 37 40  1  0
 32 41  1  0
 41 42  1  0
  7 43  1  0
 43 44  1  0
 43 45  2  0
 45 46  1  0
 45  2  1  0
 41 12  1  0
 25 16  1  0
M  CHG  2  13  -1  31  -1
M  END
>  <UniqueID>  (75) 
66

>  <SMILES>  (75) 
CC/N=c1/[n-]c(=Nc2ccccc2OC)[n-]/c(=N/Cc2ccccc2)[nH]1

>  <Energy>  (75) 
52.34062905784667

>  <Genealogy>  (75) 
CCN=c1[n-]c(=Nc2ccccc2OC)[n-]c(=NCc2ccccc2)[nH]1 (protonated)
CC/N=c1/[n-]c(=Nc2ccccc2OC)[n-]/c(=N/Cc2ccccc2)[nH]1 (cis-trans isomerization)
CC/N=c1/[n-]c(=Nc2ccccc2OC)[n-]/c(=N/Cc2ccccc2)[nH]1 (3D coordinates assigned)
CC/N=c1/[n-]c(=Nc2ccccc2OC)[n-]/c(=N/Cc2ccccc2)[nH]1 (optimized conformer: 52.34062905784667 kcal/mol)

>  <smiles>  (75) 
CCN=c1[nH]c(=NCc2ccccc2)[nH]c(=Nc2ccccc2OC)[nH]1

>  <score_type>  (75) 
oracle

>  <origin>  (75) 
adg

>  <m_score__min__energy>  (75) 
-10.76

>  <m_primary>  (75) 
energy

$$$$
76:0
     RDKit          3D

 56 59  0  0  0  0  0  0  0  0999 V2000
   55.9800   21.8400   42.4160 N   0  0  0  0  0  0  0  0  0  0  0  0
   56.0020   22.5420   43.5040 C   0  0  0  0  0  0  0  0  0  0  0  0
   57.2170   22.8550   44.1340 C   0  0  0  0  0  0  0  0  0  0  0  0
   57.2070   23.6190   45.3110 C   0  0  0  0  0  0  0  0  0  0  0  0
   58.4950   23.9780   46.0060 C   0  0  0  0  0  0  0  0  0  0  0  0
   58.9360   25.3310   45.6090 N   0  0  0  0  0  0  0  0  0  0  0  0
   58.9770   26.2700   46.7630 C   0  0  0  0  0  0  0  0  0  0  0  0
   57.7950   27.2480   46.7810 C   0  0  0  0  0  0  0  0  0  0  0  0
   57.7740   28.1110   45.5040 C   0  0  0  0  0  0  0  0  0  0  0  0
   56.4020   28.5780   45.2730 N   0  0  0  0  0  0  0  0  0  0  0  0
   56.3740   29.9500   44.2060 S   0  0  0  0  0  0  0  0  0  0  0  0
   54.9700   30.4770   44.1140 O   0  0  0  0  0  0  0  0  0  0  0  0
   56.8230   29.5410   42.8300 O   0  0  0  0  0  0  0  0  0  0  0  0
   57.4230   31.2150   44.8410 C   0  0  0  0  0  0  0  0  0  0  0  0
   57.5720   32.4120   44.1300 C   0  0  0  0  0  0  0  0  0  0  0  0
   58.3890   33.4300   44.6290 C   0  0  0  0  0  0  0  0  0  0  0  0
   59.0570   33.2620   45.8500 C   0  0  0  0  0  0  0  0  0  0  0  0
   60.1190   34.5330   46.4550 S   0  0  0  0  0  0  0  0  0  0  0  0
   59.7790   34.8480   47.8850 O   0  0  0  0  0  0  0  0  0  0  0  0
   59.9190   35.7750   45.6330 O   0  0  0  0  0  0  0  0  0  0  0  0
   61.7740   34.0310   46.3390 N   0  0  0  0  0  0  0  0  0  0  0  0
   62.1730   33.4320   47.6100 C   0  0  0  0  0  0  0  0  0  0  0  0
   63.6590   33.1340   47.6800 C   0  0  0  0  0  0  0  0  0  0  0  0
   62.6650   32.0010   47.4820 C   0  0  0  0  0  0  0  0  0  0  0  0
   58.9080   32.0630   46.5620 C   0  0  0  0  0  0  0  0  0  0  0  0
   58.0920   31.0450   46.0610 C   0  0  0  0  0  0  0  0  0  0  0  0
   58.2870   27.3310   44.2700 C   0  0  0  0  0  0  0  0  0  0  0  0
   58.1380   25.8180   44.4580 C   0  0  0  0  0  0  0  0  0  0  0  0
   55.9830   24.0540   45.8360 C   0  0  0  0  0  0  0  0  0  0  0  0
   54.7960   23.7220   45.1790 C   0  0  0  0  0  0  0  0  0  0  0  0
   54.8310   22.9820   44.0390 N   0  0  0  0  0  0  0  0  0  0  0  0
   56.3060   22.2170   41.4980 H   0  0  0  0  0  0  0  0  0  0  0  0
   58.1688   22.5043   43.7085 H   0  0  0  0  0  0  0  0  0  0  0  0
   58.3384   23.9529   47.0945 H   0  0  0  0  0  0  0  0  0  0  0  0
   59.2696   23.2520   45.7181 H   0  0  0  0  0  0  0  0  0  0  0  0
   58.9610   25.6833   47.6933 H   0  0  0  0  0  0  0  0  0  0  0  0
   59.8967   26.8663   46.6701 H   0  0  0  0  0  0  0  0  0  0  0  0
   56.8567   26.6775   46.8453 H   0  0  0  0  0  0  0  0  0  0  0  0
   57.9021   27.9119   47.6515 H   0  0  0  0  0  0  0  0  0  0  0  0
   58.4503   28.9663   45.6490 H   0  0  0  0  0  0  0  0  0  0  0  0
   57.0440   32.5516   43.1751 H   0  0  0  0  0  0  0  0  0  0  0  0
   58.5082   34.3653   44.0624 H   0  0  0  0  0  0  0  0  0  0  0  0
   62.3460   34.8970   46.2140 H   0  0  0  0  0  0  0  0  0  0  0  0
   61.4441   33.9475   48.2526 H   0  0  0  0  0  0  0  0  0  0  0  0
   64.3201   33.4363   46.8544 H   0  0  0  0  0  0  0  0  0  0  0  0
   64.4620   33.3472   48.4010 H   0  0  0  0  0  0  0  0  0  0  0  0
   62.6063   31.4835   46.5131 H   0  0  0  0  0  0  0  0  0  0  0  0
   62.4500   31.0547   48.0000 H   0  0  0  0  0  0  0  0  0  0  0  0
   59.4349   31.9234   47.5175 H   0  0  0  0  0  0  0  0  0  0  0  0
   57.9745   30.1082   46.6254 H   0  0  0  0  0  0  0  0  0  0  0  0
   57.7087   27.6397   43.3867 H   0  0  0  0  0  0  0  0  0  0  0  0
   59.3553   27.5581   44.1388 H   0  0  0  0  0  0  0  0  0  0  0  0
   57.0779   25.5825   44.6332 H   0  0  0  0  0  0  0  0  0  0  0  0
   58.5054   25.3199   43.5486 H   0  0  0  0  0  0  0  0  0  0  0  0
   55.9571   24.6524   46.7586 H   0  0  0  0  0  0  0  0  0  0  0  0
   53.8310   24.0599   45.5847 H   0  0  0  0  0  0  0  0  0  0  0  0
  1  2  2  3
  2  3  1  0
  3  4  2  0
  4  5  1  0
  5  6  1  0
  6  7  1  0
  7  8  1  0
  8  9  1  0
  9 10  1  0
 10 11  1  0
 11 12  2  0
 11 13  2  0
 11 14  1  0
 14 15  2  0
 15 16  1  0
 16 17  2  0
 17 18  1  0
 18 19  2  0
 18 20  2  0
 18 21  1  0
 21 22  1  0
 22 23  1  0
 23 24  1  0
 17 25  1  0
 25 26  2  0
  9 27  1  0
 27 28  1  0
  4 29  1  0
 29 30  2  0
 30 31  1  0
 31  2  1  0
 28  6  1  0
 26 14  1  0
 24 22  1  0
  1 32  1  0
  3 33  1  0
  5 34  1  0
  5 35  1  0
  7 36  1  0
  7 37  1  0
  8 38  1  0
  8 39  1  0
  9 40  1  0
 15 41  1  0
 16 42  1  0
 21 43  1  0
 22 44  1  0
 23 45  1  0
 23 46  1  0
 24 47  1  0
 24 48  1  0
 25 49  1  0
 26 50  1  0
 27 51  1  0
 27 52  1  0
 28 53  1  0
 28 54  1  0
 29 55  1  0
 30 56  1  0
M  CHG  2  10  -1  31  -1
M  END
>  <UniqueID>  (76) 
67

>  <SMILES>  (76) 
N=c1cc(CN2CCC([N-]S(=O)(=O)c3ccc(S(=O)(=O)NC4CC4)cc3)CC2)cc[n-]1

>  <Energy>  (76) 
327.0994385763275

>  <Genealogy>  (76) 
N=c1cc(CN2CCC([N-]S(=O)(=O)c3ccc(S(=O)(=O)NC4CC4)cc3)CC2)cc[n-]1 (protonated)
N=c1cc(CN2CCC([N-]S(=O)(=O)c3ccc(S(=O)(=O)NC4CC4)cc3)CC2)cc[n-]1 (3D coordinates assigned)
N=c1cc(CN2CCC([N-]S(=O)(=O)c3ccc(S(=O)(=O)NC4CC4)cc3)CC2)cc[n-]1 (nonaromatic ring conformer: 327.0994385763275 kcal/mol)

>  <smiles>  (76) 
N=c1cc(CN2CCC(NS(=O)(=O)c3ccc(S(=O)(=O)NC4CC4)cc3)CC2)cc[nH]1

>  <score_type>  (76) 
oracle

>  <origin>  (76) 
adg

>  <m_score__min__energy>  (76) 
-13.35

>  <m_primary>  (76) 
energy

$$$$
77:0
     RDKit          3D

 66 70  0  0  0  0  0  0  0  0999 V2000
   58.2030   27.2710   43.5850 C   0  0  0  0  0  0  0  0  0  0  0  0
   58.6710   28.4100   44.4320 C   0  0  0  0  0  0  0  0  0  0  0  0
   58.2710   29.6470   44.2910 O   0  0  0  0  0  0  0  0  0  0  0  0
   58.8660   30.3620   45.2220 C   0  0  0  0  0  0  0  0  0  0  0  0
   58.6510   31.8240   45.3760 C   0  0  0  0  0  0  0  0  0  0  0  0
   57.5150   32.3990   44.7740 C   0  0  0  0  0  0  0  0  0  0  0  0
   57.2670   33.7680   44.8800 C   0  0  0  0  0  0  0  0  0  0  0  0
   58.1450   34.5840   45.5870 C   0  0  0  0  0  0  0  0  0  0  0  0
   59.2720   34.0330   46.1970 C   0  0  0  0  0  0  0  0  0  0  0  0
   59.5310   32.6530   46.1160 C   0  0  0  0  0  0  0  0  0  0  0  0
   60.7090   32.1060   46.7250 N   0  0  0  0  0  0  0  0  0  0  0  0
   61.8080   32.8730   47.2310 C   0  0  0  0  0  0  0  0  0  0  0  0
   62.7500   33.2070   46.4610 O   0  0  0  0  0  0  0  0  0  0  0  0
   61.7740   33.3440   48.6560 C   0  0  0  0  0  0  0  0  0  0  0  0
   63.1110   33.2450   49.3310 C   0  0  0  0  0  0  0  0  0  0  0  0
   64.1090   32.3180   49.0390 C   0  0  0  0  0  0  0  0  0  0  0  0
   65.2230   32.4260   49.8790 C   0  0  0  0  0  0  0  0  0  0  0  0
   65.0980   33.4220   50.8410 C   0  0  0  0  0  0  0  0  0  0  0  0
   63.6100   34.1750   50.6390 S   0  0  0  0  0  0  0  0  0  0  0  0
   59.6750   29.6110   46.0060 N   0  0  0  0  0  0  0  0  0  0  0  0
   59.5470   28.3690   45.4980 C   0  0  0  0  0  0  0  0  0  0  0  0
   60.2420   27.1560   46.0430 C   0  0  0  0  0  0  0  0  0  0  0  0
   59.7780   26.8180   47.3850 N   0  0  0  0  0  0  0  0  0  0  0  0
   60.4490   27.1880   48.5990 C   0  0  0  0  0  0  0  0  0  0  0  0
   61.1230   26.3300   49.2320 O   0  0  0  0  0  0  0  0  0  0  0  0
   60.3000   28.5530   49.1500 C   0  0  0  0  0  0  0  0  0  0  0  0
   61.2310   29.0430   50.0840 C   0  0  0  0  0  0  0  0  0  0  0  0
   61.0270   30.2740   50.7100 C   0  0  0  0  0  0  0  0  0  0  0  0
   59.8910   31.0380   50.4150 C   0  0  0  0  0  0  0  0  0  0  0  0
   59.6180   32.5570   51.2650 S   0  0  0  0  0  0  0  0  0  0  0  0
   58.8890   33.5150   50.3650 O   0  0  0  0  0  0  0  0  0  0  0  0
   60.9510   33.1460   51.6310 O   0  0  0  0  0  0  0  0  0  0  0  0
   58.6780   32.2430   52.7110 N   0  0  0  0  0  0  0  0  0  0  0  0
   58.8940   30.8730   53.2250 C   0  0  0  0  0  0  0  0  0  0  0  0
   57.7820   29.8990   52.7930 C   0  0  0  0  0  0  0  0  0  0  0  0
   57.2590   30.2740   51.5390 O   0  0  0  0  0  0  0  0  0  0  0  0
   56.5350   31.4890   51.6540 C   0  0  0  0  0  0  0  0  0  0  0  0
   57.2500   32.5500   52.5200 C   0  0  0  0  0  0  0  0  0  0  0  0
   58.9830   30.5820   49.4520 C   0  0  0  0  0  0  0  0  0  0  0  0
   59.1830   29.3460   48.8260 C   0  0  0  0  0  0  0  0  0  0  0  0
   57.8648   26.4479   44.2317 H   0  0  0  0  0  0  0  0  0  0  0  0
   57.3691   27.6047   42.9500 H   0  0  0  0  0  0  0  0  0  0  0  0
   59.0306   26.9220   42.9500 H   0  0  0  0  0  0  0  0  0  0  0  0
   56.8152   31.7615   44.2138 H   0  0  0  0  0  0  0  0  0  0  0  0
   56.3759   34.2030   44.4039 H   0  0  0  0  0  0  0  0  0  0  0  0
   57.9502   35.6638   45.6648 H   0  0  0  0  0  0  0  0  0  0  0  0
   59.9660   34.6852   46.7476 H   0  0  0  0  0  0  0  0  0  0  0  0
   61.4489   34.3947   48.6716 H   0  0  0  0  0  0  0  0  0  0  0  0
   61.0762   32.6940   49.2042 H   0  0  0  0  0  0  0  0  0  0  0  0
   64.0295   31.5765   48.2304 H   0  0  0  0  0  0  0  0  0  0  0  0
   66.1119   31.7847   49.7871 H   0  0  0  0  0  0  0  0  0  0  0  0
   65.8474   33.6744   51.6057 H   0  0  0  0  0  0  0  0  0  0  0  0
   60.0470   26.3044   45.3746 H   0  0  0  0  0  0  0  0  0  0  0  0
   61.3179   27.3775   46.1007 H   0  0  0  0  0  0  0  0  0  0  0  0
   62.1270   28.4513   50.3230 H   0  0  0  0  0  0  0  0  0  0  0  0
   61.7623   30.6458   51.4387 H   0  0  0  0  0  0  0  0  0  0  0  0
   59.8565   30.5009   52.8440 H   0  0  0  0  0  0  0  0  0  0  0  0
   58.8862   30.9231   54.3238 H   0  0  0  0  0  0  0  0  0  0  0  0
   58.1975   28.8829   52.7231 H   0  0  0  0  0  0  0  0  0  0  0  0
   56.9741   29.9270   53.5390 H   0  0  0  0  0  0  0  0  0  0  0  0
   56.3874   31.9036   50.6459 H   0  0  0  0  0  0  0  0  0  0  0  0
   55.5821   31.2533   52.1504 H   0  0  0  0  0  0  0  0  0  0  0  0
   57.1612   33.5288   52.0259 H   0  0  0  0  0  0  0  0  0  0  0  0
   56.7708   32.5560   53.5101 H   0  0  0  0  0  0  0  0  0  0  0  0
   58.1101   31.1965   49.1865 H   0  0  0  0  0  0  0  0  0  0  0  0
   58.4616   28.9916   48.0750 H   0  0  0  0  0  0  0  0  0  0  0  0
  1  2  1  0
  2  3  1  0
  3  4  1  0
  4  5  1  0
  5  6  2  0
  6  7  1  0
  7  8  2  0
  8  9  1  0
  9 10  2  0
 10 11  1  0
 11 12  1  0
 12 13  2  0
 12 14  1  0
 14 15  1  0
 15 16  2  0
 16 17  1  0
 17 18  2  0
 18 19  1  0
  4 20  2  0
 20 21  1  0
 21 22  1  0
 22 23  1  0
 23 24  1  0
 24 25  2  0
 24 26  1  0
 26 27  2  0
 27 28  1  0
 28 29  2  0
 29 30  1  0
 30 31  2  0
 30 32  2  0
 30 33  1  0
 33 34  1  0
 34 35  1  0
 35 36  1  0
 36 37  1  0
 37 38  1  0
 29 39  1  0
 39 40  2  0
 21  2  2  0
 40 26  1  0
 10  5  1  0
 19 15  1  0
 38 33  1  0
  1 41  1  0
  1 42  1  0
  1 43  1  0
  6 44  1  0
  7 45  1  0
  8 46  1  0
  9 47  1  0
 14 48  1  0
 14 49  1  0
 16 50  1  0
 17 51  1  0
 18 52  1  0
 22 53  1  0
 22 54  1  0
 27 55  1  0
 28 56  1  0
 34 57  1  0
 34 58  1  0
 35 59  1  0
 35 60  1  0
 37 61  1  0
 37 62  1  0
 38 63  1  0
 38 64  1  0
 39 65  1  0
 40 66  1  0
M  CHG  2  11  -1  23  -1
M  END
>  <UniqueID>  (77) 
68

>  <SMILES>  (77) 
Cc1oc(-c2ccccc2[N-]C(=O)Cc2cccs2)nc1C[N-]C(=O)c1ccc(S(=O)(=O)N2CCOCC2)cc1

>  <Energy>  (77) 
142.8513261760699

>  <Genealogy>  (77) 
Cc1oc(-c2ccccc2[N-]C(=O)Cc2cccs2)nc1C[N-]C(=O)c1ccc(S(=O)(=O)N2CCOCC2)cc1 (protonated)
Cc1oc(-c2ccccc2[N-]C(=O)Cc2cccs2)nc1C[N-]C(=O)c1ccc(S(=O)(=O)N2CCOCC2)cc1 (3D coordinates assigned)
Cc1oc(-c2ccccc2[N-]C(=O)Cc2cccs2)nc1C[N-]C(=O)c1ccc(S(=O)(=O)N2CCOCC2)cc1 (nonaromatic ring conformer: 142.8513261760699 kcal/mol)

>  <smiles>  (77) 
Cc1oc(-c2ccccc2NC(=O)Cc2cccs2)nc1CNC(=O)c1ccc(S(=O)(=O)N2CCOCC2)cc1

>  <score_type>  (77) 
oracle

>  <origin>  (77) 
adg

>  <m_score__min__energy>  (77) 
-12.279999999999999

>  <m_primary>  (77) 
energy

$$$$
78:0
     RDKit          3D

 57 59  0  0  0  0  0  0  0  0999 V2000
   59.8070   28.9890   49.2500 C   0  0  0  0  0  0  0  0  0  0  0  0
   60.0260   28.9280   47.8460 O   0  0  0  0  0  0  0  0  0  0  0  0
   59.0410   29.1480   46.8690 C   0  0  0  0  0  0  0  0  0  0  0  0
   58.6370   30.4470   46.5100 C   0  0  0  0  0  0  0  0  0  0  0  0
   57.6580   30.6550   45.5240 C   0  0  0  0  0  0  0  0  0  0  0  0
   57.2260   31.9860   45.2040 N   0  0  0  0  0  0  0  0  0  0  0  0
   57.5730   33.1740   45.9230 C   0  0  0  0  0  0  0  0  0  0  0  0
   57.0010   33.4510   47.0120 O   0  0  0  0  0  0  0  0  0  0  0  0
   58.7030   34.0280   45.4250 C   0  0  0  0  0  0  0  0  0  0  0  0
   59.3040   34.9100   46.5290 C   0  0  0  0  0  0  0  0  0  0  0  0
   60.7660   34.8110   46.5280 N   0  0  0  0  0  0  0  0  0  0  0  0
   61.3080   33.3960   47.3840 S   0  0  0  0  0  0  0  0  0  0  0  0
   62.7670   33.5510   47.7140 O   0  0  0  0  0  0  0  0  0  0  0  0
   61.1470   32.1900   46.5040 O   0  0  0  0  0  0  0  0  0  0  0  0
   60.3940   33.1790   48.8760 C   0  0  0  0  0  0  0  0  0  0  0  0
   60.7950   33.8410   50.0470 C   0  0  0  0  0  0  0  0  0  0  0  0
   60.0440   33.7070   51.2190 C   0  0  0  0  0  0  0  0  0  0  0  0
   58.8940   32.9150   51.2280 C   0  0  0  0  0  0  0  0  0  0  0  0
   58.4920   32.2530   50.0630 C   0  0  0  0  0  0  0  0  0  0  0  0
   59.2370   32.3870   48.8890 C   0  0  0  0  0  0  0  0  0  0  0  0
   57.0490   29.5410   44.9030 C   0  0  0  0  0  0  0  0  0  0  0  0
   55.9930   29.6740   43.8730 C   0  0  0  0  0  0  0  0  0  0  0  0
   54.7910   29.3740   44.1060 O   0  0  0  0  0  0  0  0  0  0  0  0
   57.4600   28.2490   45.2610 C   0  0  0  0  0  0  0  0  0  0  0  0
   58.4440   28.0430   46.2360 C   0  0  0  0  0  0  0  0  0  0  0  0
   58.8940   26.3820   46.6510 S   0  0  0  0  0  0  0  0  0  0  0  0
   60.2950   26.3260   47.1950 O   0  0  0  0  0  0  0  0  0  0  0  0
   57.9640   25.8860   47.7230 O   0  0  0  0  0  0  0  0  0  0  0  0
   58.7450   25.3410   45.2620 N   0  0  0  0  0  0  0  0  0  0  0  0
   57.3420   25.0580   44.9490 C   0  0  0  0  0  0  0  0  0  0  0  0
   57.1890   23.7280   44.2550 C   0  0  0  0  0  0  0  0  0  0  0  0
   58.1230   22.6990   44.4540 C   0  0  0  0  0  0  0  0  0  0  0  0
   57.9500   21.4670   43.8260 C   0  0  0  0  0  0  0  0  0  0  0  0
   56.8340   21.2670   43.0130 C   0  0  0  0  0  0  0  0  0  0  0  0
   55.9250   22.2630   42.8460 N   0  0  0  0  0  0  0  0  0  0  0  0
   56.0730   23.4730   43.4440 C   0  0  0  0  0  0  0  0  0  0  0  0
   60.7368   28.7300   49.7777 H   0  0  0  0  0  0  0  0  0  0  0  0
   59.4984   30.0073   49.5291 H   0  0  0  0  0  0  0  0  0  0  0  0
   59.0164   28.2769   49.5291 H   0  0  0  0  0  0  0  0  0  0  0  0
   59.0950   31.3136   47.0093 H   0  0  0  0  0  0  0  0  0  0  0  0
   59.4923   33.3725   45.0283 H   0  0  0  0  0  0  0  0  0  0  0  0
   58.3012   34.6937   44.6469 H   0  0  0  0  0  0  0  0  0  0  0  0
   59.0122   35.9562   46.3551 H   0  0  0  0  0  0  0  0  0  0  0  0
   58.9255   34.5668   47.5032 H   0  0  0  0  0  0  0  0  0  0  0  0
   61.7005   34.4655   50.0428 H   0  0  0  0  0  0  0  0  0  0  0  0
   60.3598   34.2266   52.1357 H   0  0  0  0  0  0  0  0  0  0  0  0
   58.3044   32.8117   52.1508 H   0  0  0  0  0  0  0  0  0  0  0  0
   57.5881   31.6262   50.0715 H   0  0  0  0  0  0  0  0  0  0  0  0
   58.9153   31.8701   47.9728 H   0  0  0  0  0  0  0  0  0  0  0  0
   56.2659   30.0459   42.8744 H   0  0  0  0  0  0  0  0  0  0  0  0
   57.0006   27.3805   44.7664 H   0  0  0  0  0  0  0  0  0  0  0  0
   56.7631   25.0420   45.8842 H   0  0  0  0  0  0  0  0  0  0  0  0
   56.9731   25.8444   44.2741 H   0  0  0  0  0  0  0  0  0  0  0  0
   58.9927   22.8654   45.1066 H   0  0  0  0  0  0  0  0  0  0  0  0
   58.6850   20.6614   43.9697 H   0  0  0  0  0  0  0  0  0  0  0  0
   56.6897   20.3013   42.5063 H   0  0  0  0  0  0  0  0  0  0  0  0
   55.3154   24.2559   43.2921 H   0  0  0  0  0  0  0  0  0  0  0  0
  1  2  1  0
  2  3  1  0
  3  4  2  0
  4  5  1  0
  5  6  1  0
  6  7  1  0
  7  8  2  0
  7  9  1  0
  9 10  1  0
 10 11  1  0
 11 12  1  0
 12 13  2  0
 12 14  2  0
 12 15  1  0
 15 16  2  0
 16 17  1  0
 17 18  2  0
 18 19  1  0
 19 20  2  0
  5 21  2  0
 21 22  1  0
 22 23  2  0
 21 24  1  0
 24 25  2  0
 25 26  1  0
 26 27  2  0
 26 28  2  0
 26 29  1  0
 29 30  1  0
 30 31  1  0
 31 32  2  0
 32 33  1  0
 33 34  2  0
 34 35  1  0
 35 36  2  0
 25  3  1  0
 36 31  1  0
 20 15  1  0
  1 37  1  0
  1 38  1  0
  1 39  1  0
  4 40  1  0
  9 41  1  0
  9 42  1  0
 10 43  1  0
 10 44  1  0
 16 45  1  0
 17 46  1  0
 18 47  1  0
 19 48  1  0
 20 49  1  0
 22 50  1  0
 24 51  1  0
 30 52  1  0
 30 53  1  0
 32 54  1  0
 33 55  1  0
 34 56  1  0
 36 57  1  0
M  CHG  3   6  -1  11  -1  29  -1
M  END
>  <UniqueID>  (78) 
69

>  <SMILES>  (78) 
COc1cc([N-]C(=O)CC[N-]S(=O)(=O)c2ccccc2)c(C=O)cc1S(=O)(=O)[N-]Cc1cccnc1

>  <Energy>  (78) 
62.60656021213356

>  <Genealogy>  (78) 
COc1cc([N-]C(=O)CC[N-]S(=O)(=O)c2ccccc2)c(C=O)cc1S(=O)(=O)[N-]Cc1cccnc1 (protonated)
COc1cc([N-]C(=O)CC[N-]S(=O)(=O)c2ccccc2)c(C=O)cc1S(=O)(=O)[N-]Cc1cccnc1 (3D coordinates assigned)
COc1cc([N-]C(=O)CC[N-]S(=O)(=O)c2ccccc2)c(C=O)cc1S(=O)(=O)[N-]Cc1cccnc1 (optimized conformer: 62.60656021213356 kcal/mol)

>  <smiles>  (78) 
COc1cc(NC(=O)CCNS(=O)(=O)c2ccccc2)c(C=O)cc1S(=O)(=O)NCc1cccnc1

>  <score_type>  (78) 
oracle

>  <origin>  (78) 
adg

>  <m_score__min__energy>  (78) 
-13.49

>  <m_primary>  (78) 
energy

$$$$
79:0
     RDKit          3D

 47 50  0  0  0  0  0  0  0  0999 V2000
   60.0080   35.3360   46.3560 C   0  0  0  0  0  0  0  0  0  0  0  0
   59.0380   34.2920   45.8870 C   0  0  0  0  0  0  0  0  0  0  0  0
   58.2660   33.5890   46.8190 C   0  0  0  0  0  0  0  0  0  0  0  0
   57.4010   32.5750   46.4000 C   0  0  0  0  0  0  0  0  0  0  0  0
   57.2950   32.2430   45.0350 C   0  0  0  0  0  0  0  0  0  0  0  0
   56.4570   31.2080   44.5730 O   0  0  0  0  0  0  0  0  0  0  0  0
   56.8910   30.0030   43.9430 C   0  0  0  0  0  0  0  0  0  0  0  0
   57.9530   29.3300   44.7550 C   0  0  0  0  0  0  0  0  0  0  0  0
   59.0190   28.6920   44.2410 N   0  0  0  0  0  0  0  0  0  0  0  0
   59.7460   28.2500   45.2530 N   0  0  0  0  0  0  0  0  0  0  0  0
   59.0860   28.6410   46.3590 C   0  0  0  0  0  0  0  0  0  0  0  0
   59.6420   28.3070   48.0280 S   0  0  0  0  0  0  0  0  0  0  0  0
   58.7670   29.7340   48.7540 C   0  0  0  0  0  0  0  0  0  0  0  0
   59.6820   30.9180   48.8810 C   0  0  0  0  0  0  0  0  0  0  0  0
   59.5480   31.8190   49.9380 C   0  0  0  0  0  0  0  0  0  0  0  0
   60.4560   32.8740   50.0460 C   0  0  0  0  0  0  0  0  0  0  0  0
   60.3410   33.6760   51.0150 O   0  0  0  0  0  0  0  0  0  0  0  0
   61.4580   33.0250   49.1180 N   0  0  0  0  0  0  0  0  0  0  0  0
   62.3710   34.0450   49.2280 C   0  0  0  0  0  0  0  0  0  0  0  0
   63.3900   34.1980   48.2820 C   0  0  0  0  0  0  0  0  0  0  0  0
   63.4760   33.3110   47.2140 C   0  0  0  0  0  0  0  0  0  0  0  0
   62.5540   32.2740   47.1040 C   0  0  0  0  0  0  0  0  0  0  0  0
   61.5490   32.1340   48.0700 C   0  0  0  0  0  0  0  0  0  0  0  0
   60.6730   31.0990   47.9700 N   0  0  0  0  0  0  0  0  0  0  0  0
   57.9890   29.3020   46.0660 O   0  0  0  0  0  0  0  0  0  0  0  0
   58.0690   32.9530   44.0950 C   0  0  0  0  0  0  0  0  0  0  0  0
   57.9960   32.5910   42.6390 C   0  0  0  0  0  0  0  0  0  0  0  0
   58.9430   33.9650   44.5270 C   0  0  0  0  0  0  0  0  0  0  0  0
   60.0244   35.3536   47.4557 H   0  0  0  0  0  0  0  0  0  0  0  0
   61.0134   35.0986   45.9781 H   0  0  0  0  0  0  0  0  0  0  0  0
   59.6974   36.3212   45.9781 H   0  0  0  0  0  0  0  0  0  0  0  0
   58.3408   33.8364   47.8882 H   0  0  0  0  0  0  0  0  0  0  0  0
   56.7978   32.0314   47.1420 H   0  0  0  0  0  0  0  0  0  0  0  0
   56.0332   29.3227   43.8368 H   0  0  0  0  0  0  0  0  0  0  0  0
   57.3075   30.2521   42.9558 H   0  0  0  0  0  0  0  0  0  0  0  0
   59.2530   28.5600   43.2320 H   0  0  0  0  0  0  0  0  0  0  0  0
   57.9185   30.0027   48.1075 H   0  0  0  0  0  0  0  0  0  0  0  0
   58.4133   29.4549   49.7575 H   0  0  0  0  0  0  0  0  0  0  0  0
   58.7397   31.6999   50.6745 H   0  0  0  0  0  0  0  0  0  0  0  0
   62.3001   34.7497   50.0696 H   0  0  0  0  0  0  0  0  0  0  0  0
   64.1193   35.0153   48.3821 H   0  0  0  0  0  0  0  0  0  0  0  0
   64.2685   33.4284   46.4603 H   0  0  0  0  0  0  0  0  0  0  0  0
   62.6142   31.5679   46.2627 H   0  0  0  0  0  0  0  0  0  0  0  0
   57.7795   31.5172   42.5386 H   0  0  0  0  0  0  0  0  0  0  0  0
   57.1971   33.1729   42.1561 H   0  0  0  0  0  0  0  0  0  0  0  0
   58.9580   32.8178   42.1561 H   0  0  0  0  0  0  0  0  0  0  0  0
   59.5578   34.5051   43.7920 H   0  0  0  0  0  0  0  0  0  0  0  0
  1  2  1  0
  2  3  2  0
  3  4  1  0
  4  5  2  0
  5  6  1  0
  6  7  1  0
  7  8  1  0
  8  9  2  0
  9 10  1  0
 10 11  2  0
 11 12  1  0
 12 13  1  0
 13 14  1  0
 14 15  2  0
 15 16  1  0
 16 17  2  0
 16 18  1  0
 18 19  1  0
 19 20  2  0
 20 21  1  0
 21 22  2  0
 22 23  1  0
 23 24  2  0
 11 25  1  0
  5 26  1  0
 26 27  1  0
 26 28  2  0
 28  2  1  0
 25  8  1  0
 24 14  1  0
 23 18  1  0
  1 29  1  0
  1 30  1  0
  1 31  1  0
  3 32  1  0
  4 33  1  0
  7 34  1  0
  7 35  1  0
  9 36  1  0
 13 37  1  0
 13 38  1  0
 15 39  1  0
 19 40  1  0
 20 41  1  0
 21 42  1  0
 22 43  1  0
 27 44  1  0
 27 45  1  0
 27 46  1  0
 28 47  1  0
M  CHG  1   9   1
M  END
>  <UniqueID>  (79) 
70

>  <SMILES>  (79) 
Cc1ccc(OCc2[nH+]nc(SCc3cc(=O)n4ccccc4n3)o2)c(C)c1

>  <Energy>  (79) 
80.03072676251891

>  <Genealogy>  (79) 
Cc1ccc(OCc2[nH+]nc(SCc3cc(=O)n4ccccc4n3)o2)c(C)c1 (protonated)
Cc1ccc(OCc2[nH+]nc(SCc3cc(=O)n4ccccc4n3)o2)c(C)c1 (3D coordinates assigned)
Cc1ccc(OCc2[nH+]nc(SCc3cc(=O)n4ccccc4n3)o2)c(C)c1 (optimized conformer: 80.03072676251891 kcal/mol)

>  <smiles>  (79) 
Cc1ccc(OCc2nnc(SCc3cc(=O)n4ccccc4n3)o2)c(C)c1

>  <score_type>  (79) 
oracle

>  <origin>  (79) 
adg

>  <m_score__min__energy>  (79) 
-8.7200000000000006

>  <m_primary>  (79) 
energy

$$$$
80:0
     RDKit          3D

 48 50  0  0  0  0  0  0  0  0999 V2000
   57.3350   34.5720   44.8970 C   0  0  0  0  0  0  0  0  0  0  0  0
   58.2330   33.8300   45.8490 C   0  0  0  0  0  0  0  0  0  0  0  0
   59.1240   34.5590   46.6520 C   0  0  0  0  0  0  0  0  0  0  0  0
   59.9570   33.9050   47.5590 C   0  0  0  0  0  0  0  0  0  0  0  0
   59.9150   32.5070   47.6770 C   0  0  0  0  0  0  0  0  0  0  0  0
   60.7050   31.8150   48.6520 N   0  0  0  0  0  0  0  0  0  0  0  0
   60.2150   30.8500   49.5940 C   0  0  0  0  0  0  0  0  0  0  0  0
   60.7130   29.6920   49.5790 O   0  0  0  0  0  0  0  0  0  0  0  0
   59.1160   31.1540   50.5460 C   0  0  0  0  0  0  0  0  0  0  0  0
   58.9270   32.4570   51.0480 C   0  0  0  0  0  0  0  0  0  0  0  0
   57.8830   32.7280   51.9360 C   0  0  0  0  0  0  0  0  0  0  0  0
   57.0110   31.7100   52.3270 C   0  0  0  0  0  0  0  0  0  0  0  0
   57.1790   30.4170   51.8250 C   0  0  0  0  0  0  0  0  0  0  0  0
   56.3080   29.4040   52.2110 O   0  0  0  0  0  0  0  0  0  0  0  0
   58.2230   30.1400   50.9360 C   0  0  0  0  0  0  0  0  0  0  0  0
   59.0660   31.7710   46.8450 C   0  0  0  0  0  0  0  0  0  0  0  0
   58.1820   32.4230   45.9760 C   0  0  0  0  0  0  0  0  0  0  0  0
   57.2130   31.6440   45.2630 N   0  0  0  0  0  0  0  0  0  0  0  0
   57.5540   30.4640   44.5260 C   0  0  0  0  0  0  0  0  0  0  0  0
   57.8810   30.5680   43.3150 O   0  0  0  0  0  0  0  0  0  0  0  0
   57.5310   29.1300   45.1620 C   0  0  0  0  0  0  0  0  0  0  0  0
   58.7270   28.5660   45.6250 C   0  0  0  0  0  0  0  0  0  0  0  0
   58.7380   27.2730   46.1480 C   0  0  0  0  0  0  0  0  0  0  0  0
   57.5510   26.5450   46.2390 C   0  0  0  0  0  0  0  0  0  0  0  0
   56.3330   27.1090   45.8430 C   0  0  0  0  0  0  0  0  0  0  0  0
   55.1490   26.3070   45.9920 N   0  0  0  0  0  0  0  0  0  0  0  0
   54.9970   24.5920   45.7670 S   0  0  0  0  0  0  0  0  0  0  0  0
   56.0450   24.0330   44.4390 C   0  0  0  0  0  0  0  0  0  0  0  0
   55.4240   23.9070   47.0340 O   0  0  0  0  0  0  0  0  0  0  0  0
   53.5650   24.2280   45.4940 O   0  0  0  0  0  0  0  0  0  0  0  0
   56.3250   28.4110   45.2930 C   0  0  0  0  0  0  0  0  0  0  0  0
   55.1390   28.9980   44.8720 O   0  0  0  0  0  0  0  0  0  0  0  0
   56.6102   35.1709   45.4680 H   0  0  0  0  0  0  0  0  0  0  0  0
   57.9412   35.2362   44.2635 H   0  0  0  0  0  0  0  0  0  0  0  0
   56.7970   33.8515   44.2635 H   0  0  0  0  0  0  0  0  0  0  0  0
   59.1654   35.6548   46.5651 H   0  0  0  0  0  0  0  0  0  0  0  0
   60.6498   34.4870   48.1845 H   0  0  0  0  0  0  0  0  0  0  0  0
   59.6055   33.2657   50.7389 H   0  0  0  0  0  0  0  0  0  0  0  0
   57.7475   33.7467   52.3284 H   0  0  0  0  0  0  0  0  0  0  0  0
   56.1926   31.9258   53.0296 H   0  0  0  0  0  0  0  0  0  0  0  0
   58.3463   29.1215   50.5391 H   0  0  0  0  0  0  0  0  0  0  0  0
   59.0925   30.6717   46.8731 H   0  0  0  0  0  0  0  0  0  0  0  0
   59.6609   29.1451   45.5759 H   0  0  0  0  0  0  0  0  0  0  0  0
   59.6837   26.8266   46.4892 H   0  0  0  0  0  0  0  0  0  0  0  0
   57.5729   25.5158   46.6265 H   0  0  0  0  0  0  0  0  0  0  0  0
   56.9427   23.5542   44.8571 H   0  0  0  0  0  0  0  0  0  0  0  0
   55.4970   23.3074   43.8200 H   0  0  0  0  0  0  0  0  0  0  0  0
   56.3423   24.8923   43.8200 H   0  0  0  0  0  0  0  0  0  0  0  0
  1  2  1  0
  2  3  2  0
  3  4  1  0
  4  5  2  0
  5  6  1  0
  6  7  1  0
  7  8  2  0
  7  9  1  0
  9 10  2  0
 10 11  1  0
 11 12  2  0
 12 13  1  0
 13 14  1  0
 13 15  2  0
  5 16  1  0
 16 17  2  0
 17 18  1  0
 18 19  1  0
 19 20  2  0
 19 21  1  0
 21 22  2  0
 22 23  1  0
 23 24  2  0
 24 25  1  0
 25 26  1  0
 26 27  1  0
 27 28  1  0
 27 29  2  0
 27 30  2  0
 25 31  2  0
 31 32  1  0
 17  2  1  0
 31 21  1  0
 15  9  1  0
  1 33  1  0
  1 34  1  0
  1 35  1  0
  3 36  1  0
  4 37  1  0
 10 38  1  0
 11 39  1  0
 12 40  1  0
 15 41  1  0
 16 42  1  0
 22 43  1  0
 23 44  1  0
 24 45  1  0
 28 46  1  0
 28 47  1  0
 28 48  1  0
M  CHG  5   6  -1  14  -1  18  -1  26  -1  32  -1
M  END
>  <UniqueID>  (80) 
71

>  <SMILES>  (80) 
Cc1ccc([N-]C(=O)c2cccc([O-])c2)cc1[N-]C(=O)c1cccc([N-]S(C)(=O)=O)c1[O-]

>  <Energy>  (80) 
70.17541944445057

>  <Genealogy>  (80) 
Cc1ccc([N-]C(=O)c2cccc([O-])c2)cc1[N-]C(=O)c1cccc([N-]S(C)(=O)=O)c1[O-] (protonated)
Cc1ccc([N-]C(=O)c2cccc([O-])c2)cc1[N-]C(=O)c1cccc([N-]S(C)(=O)=O)c1[O-] (3D coordinates assigned)
Cc1ccc([N-]C(=O)c2cccc([O-])c2)cc1[N-]C(=O)c1cccc([N-]S(C)(=O)=O)c1[O-] (optimized conformer: 70.17541944445057 kcal/mol)

>  <smiles>  (80) 
Cc1ccc(NC(=O)c2cccc(O)c2)cc1NC(=O)c1cccc(NS(C)(=O)=O)c1O

>  <score_type>  (80) 
oracle

>  <origin>  (80) 
adg

>  <m_score__min__energy>  (80) 
-18.710000000000001

>  <m_primary>  (80) 
energy

$$$$
81:0
     RDKit          3D

 57 59  0  0  0  0  0  0  0  0999 V2000
   58.1090   32.7140   42.6770 C   0  0  0  0  0  0  0  0  0  0  0  0
   58.3050   32.4770   44.1510 C   0  0  0  0  0  0  0  0  0  0  0  0
   58.9130   33.4760   44.9290 C   0  0  0  0  0  0  0  0  0  0  0  0
   59.1330   33.2750   46.3000 C   0  0  0  0  0  0  0  0  0  0  0  0
   59.9390   34.5220   47.2460 S   0  0  0  0  0  0  0  0  0  0  0  0
   59.8190   35.8360   46.5260 O   0  0  0  0  0  0  0  0  0  0  0  0
   59.2750   34.6490   48.5910 O   0  0  0  0  0  0  0  0  0  0  0  0
   61.6280   34.1130   47.4450 N   0  0  0  0  0  0  0  0  0  0  0  0
   61.8280   32.6670   47.2050 C   0  0  0  0  0  0  0  0  0  0  0  0
   63.1320   32.1760   47.8460 C   0  0  0  0  0  0  0  0  0  0  0  0
   63.1220   32.3350   49.3250 N   0  0  0  0  0  0  0  0  0  0  0  0
   62.7800   31.0510   49.9840 C   0  0  0  0  0  0  0  0  0  0  0  0
   61.3610   30.6110   49.6850 C   0  0  0  0  0  0  0  0  0  0  0  0
   60.2870   31.1050   50.4500 C   0  0  0  0  0  0  0  0  0  0  0  0
   58.9790   30.6950   50.1800 C   0  0  0  0  0  0  0  0  0  0  0  0
   58.7320   29.7840   49.1510 C   0  0  0  0  0  0  0  0  0  0  0  0
   59.7930   29.2900   48.3830 C   0  0  0  0  0  0  0  0  0  0  0  0
   61.1030   29.7050   48.6440 C   0  0  0  0  0  0  0  0  0  0  0  0
   62.2190   33.4260   49.7840 C   0  0  0  0  0  0  0  0  0  0  0  0
   62.1370   34.5690   48.7600 C   0  0  0  0  0  0  0  0  0  0  0  0
   58.7560   32.0630   46.8960 C   0  0  0  0  0  0  0  0  0  0  0  0
   58.1350   31.0710   46.1350 C   0  0  0  0  0  0  0  0  0  0  0  0
   57.8830   31.2760   44.7720 C   0  0  0  0  0  0  0  0  0  0  0  0
   57.2460   30.2620   44.0490 O   0  0  0  0  0  0  0  0  0  0  0  0
   56.7330   29.1090   44.6540 C   0  0  0  0  0  0  0  0  0  0  0  0
   55.4980   29.0330   44.9230 O   0  0  0  0  0  0  0  0  0  0  0  0
   57.6160   28.0270   44.9970 N   0  0  0  0  0  0  0  0  0  0  0  0
   57.0720   26.7940   45.5830 C   0  0  0  0  0  0  0  0  0  0  0  0
   59.0520   28.1630   44.7450 C   0  0  0  0  0  0  0  0  0  0  0  0
   57.4143   33.5541   42.5299 H   0  0  0  0  0  0  0  0  0  0  0  0
   59.0769   32.9529   42.2121 H   0  0  0  0  0  0  0  0  0  0  0  0
   57.6927   31.8081   42.2121 H   0  0  0  0  0  0  0  0  0  0  0  0
   59.2189   34.4228   44.4600 H   0  0  0  0  0  0  0  0  0  0  0  0
   60.9833   32.1108   47.6377 H   0  0  0  0  0  0  0  0  0  0  0  0
   61.8869   32.4979   46.1197 H   0  0  0  0  0  0  0  0  0  0  0  0
   63.2673   31.1114   47.6045 H   0  0  0  0  0  0  0  0  0  0  0  0
   63.9567   32.7836   47.4452 H   0  0  0  0  0  0  0  0  0  0  0  0
   64.0970   32.5900   49.6140 H   0  0  0  0  0  0  0  0  0  0  0  0
   63.4734   30.2749   49.6279 H   0  0  0  0  0  0  0  0  0  0  0  0
   62.8649   31.1976   51.0709 H   0  0  0  0  0  0  0  0  0  0  0  0
   60.4790   31.8181   51.2652 H   0  0  0  0  0  0  0  0  0  0  0  0
   58.1442   31.0896   50.7777 H   0  0  0  0  0  0  0  0  0  0  0  0
   57.7032   29.4544   48.9438 H   0  0  0  0  0  0  0  0  0  0  0  0
   59.5960   28.5735   47.5720 H   0  0  0  0  0  0  0  0  0  0  0  0
   61.9327   29.3208   48.0325 H   0  0  0  0  0  0  0  0  0  0  0  0
   61.2112   33.0128   49.9376 H   0  0  0  0  0  0  0  0  0  0  0  0
   62.6261   33.8350   50.7205 H   0  0  0  0  0  0  0  0  0  0  0  0
   61.4624   35.3453   49.1502 H   0  0  0  0  0  0  0  0  0  0  0  0
   63.1547   34.9584   48.6094 H   0  0  0  0  0  0  0  0  0  0  0  0
   58.9500   31.8935   47.9654 H   0  0  0  0  0  0  0  0  0  0  0  0
   57.8416   30.1224   46.6084 H   0  0  0  0  0  0  0  0  0  0  0  0
   57.1032   26.8647   46.6803 H   0  0  0  0  0  0  0  0  0  0  0  0
   56.0311   26.6597   45.2537 H   0  0  0  0  0  0  0  0  0  0  0  0
   57.6745   25.9346   45.2537 H   0  0  0  0  0  0  0  0  0  0  0  0
   59.5893   28.2139   45.7035 H   0  0  0  0  0  0  0  0  0  0  0  0
   59.4074   27.2945   44.1711 H   0  0  0  0  0  0  0  0  0  0  0  0
   59.2381   29.0828   44.1711 H   0  0  0  0  0  0  0  0  0  0  0  0
  1  2  1  0
  2  3  2  0
  3  4  1  0
  4  5  1  0
  5  6  2  0
  5  7  2  0
  5  8  1  0
  8  9  1  0
  9 10  1  0
 10 11  1  0
 11 12  1  0
 12 13  1  0
 13 14  2  0
 14 15  1  0
 15 16  2  0
 16 17  1  0
 17 18  2  0
 11 19  1  0
 19 20  1  0
  4 21  2  0
 21 22  1  0
 22 23  2  0
 23 24  1  0
 24 25  1  0
 25 26  2  0
 25 27  1  0
 27 28  1  0
 27 29  1  0
 23  2  1  0
 20  8  1  0
 18 13  1  0
  1 30  1  0
  1 31  1  0
  1 32  1  0
  3 33  1  0
  9 34  1  0
  9 35  1  0
 10 36  1  0
 10 37  1  0
 11 38  1  0
 12 39  1  0
 12 40  1  0
 14 41  1  0
 15 42  1  0
 16 43  1  0
 17 44  1  0
 18 45  1  0
 19 46  1  0
 19 47  1  0
 20 48  1  0
 20 49  1  0
 21 50  1  0
 22 51  1  0
 28 52  1  0
 28 53  1  0
 28 54  1  0
 29 55  1  0
 29 56  1  0
 29 57  1  0
M  CHG  1  11   1
M  END
>  <UniqueID>  (81) 
72

>  <SMILES>  (81) 
Cc1cc(S(=O)(=O)N2CC[NH+](Cc3ccccc3)CC2)ccc1OC(=O)N(C)C

>  <Energy>  (81) 
73.08898491598494

>  <Genealogy>  (81) 
Cc1cc(S(=O)(=O)N2CC[NH+](Cc3ccccc3)CC2)ccc1OC(=O)N(C)C (protonated)
Cc1cc(S(=O)(=O)N2CC[NH+](Cc3ccccc3)CC2)ccc1OC(=O)N(C)C (3D coordinates assigned)
Cc1cc(S(=O)(=O)N2CC[NH+](Cc3ccccc3)CC2)ccc1OC(=O)N(C)C (nonaromatic ring conformer: 73.08898491598494 kcal/mol)

>  <smiles>  (81) 
Cc1cc(S(=O)(=O)N2CCN(Cc3ccccc3)CC2)ccc1OC(=O)N(C)C

>  <score_type>  (81) 
oracle

>  <origin>  (81) 
adg

>  <m_score__min__energy>  (81) 
-7.1900000000000004

>  <m_primary>  (81) 
energy

$$$$
82:0
     RDKit          3D

 37 38  0  0  0  0  0  0  0  0999 V2000
   58.0880   31.2990   53.1290 O   0  0  0  0  0  0  0  0  0  0  0  0
   57.4430   30.8600   52.1390 C   0  0  0  0  0  0  0  0  0  0  0  0
   56.3730   29.8320   52.3440 C   0  0  0  0  0  0  0  0  0  0  0  0
   55.1590   30.4170   53.0830 C   0  0  0  0  0  0  0  0  0  0  0  0
   53.8580   29.6260   52.8600 C   0  0  0  0  0  0  0  0  0  0  0  0
   52.9060   30.3490   51.9420 C   0  0  0  0  0  0  0  0  0  0  0  0
   52.6980   29.8850   50.6320 C   0  0  0  0  0  0  0  0  0  0  0  0
   51.8030   30.5440   49.7840 C   0  0  0  0  0  0  0  0  0  0  0  0
   51.1040   31.6680   50.2370 C   0  0  0  0  0  0  0  0  0  0  0  0
   50.2150   32.3170   49.3900 O   0  0  0  0  0  0  0  0  0  0  0  0
   51.3040   32.1350   51.5410 C   0  0  0  0  0  0  0  0  0  0  0  0
   50.6120   33.2510   51.9990 O   0  0  0  0  0  0  0  0  0  0  0  0
   52.2000   31.4780   52.3910 C   0  0  0  0  0  0  0  0  0  0  0  0
   57.7440   31.3170   50.8160 N   0  0  0  0  0  0  0  0  0  0  0  0
   59.0750   31.2490   50.2270 C   0  0  0  0  0  0  0  0  0  0  0  0
   59.2170   32.3080   49.1680 C   0  0  0  0  0  0  0  0  0  0  0  0
   60.1280   33.3620   49.3460 C   0  0  0  0  0  0  0  0  0  0  0  0
   60.2190   34.3830   48.3950 C   0  0  0  0  0  0  0  0  0  0  0  0
   59.4000   34.3600   47.2630 C   0  0  0  0  0  0  0  0  0  0  0  0
   58.4870   33.3170   47.0810 C   0  0  0  0  0  0  0  0  0  0  0  0
   57.6700   33.2980   45.9560 O   0  0  0  0  0  0  0  0  0  0  0  0
   58.3930   32.2940   48.0310 C   0  0  0  0  0  0  0  0  0  0  0  0
   56.0465   29.4563   51.3630 H   0  0  0  0  0  0  0  0  0  0  0  0
   56.7900   29.0197   52.9574 H   0  0  0  0  0  0  0  0  0  0  0  0
   55.3796   30.4256   54.1606 H   0  0  0  0  0  0  0  0  0  0  0  0
   54.9938   31.4271   52.6799 H   0  0  0  0  0  0  0  0  0  0  0  0
   54.1073   28.6509   52.4161 H   0  0  0  0  0  0  0  0  0  0  0  0
   53.3631   29.5055   53.8350 H   0  0  0  0  0  0  0  0  0  0  0  0
   53.2419   28.9992   50.2721 H   0  0  0  0  0  0  0  0  0  0  0  0
   51.6481   30.1779   48.7583 H   0  0  0  0  0  0  0  0  0  0  0  0
   52.3527   31.8470   53.4160 H   0  0  0  0  0  0  0  0  0  0  0  0
   59.8300   31.4120   51.0103 H   0  0  0  0  0  0  0  0  0  0  0  0
   59.2214   30.2581   49.7724 H   0  0  0  0  0  0  0  0  0  0  0  0
   60.7725   33.3844   50.2371 H   0  0  0  0  0  0  0  0  0  0  0  0
   60.9359   35.2050   48.5381 H   0  0  0  0  0  0  0  0  0  0  0  0
   59.4737   35.1629   46.5148 H   0  0  0  0  0  0  0  0  0  0  0  0
   57.6715   31.4763   47.8867 H   0  0  0  0  0  0  0  0  0  0  0  0
  1  2  2  0
  2  3  1  0
  3  4  1  0
  4  5  1  0
  5  6  1  0
  6  7  2  0
  7  8  1  0
  8  9  2  0
  9 10  1  0
  9 11  1  0
 11 12  1  0
 11 13  2  0
  2 14  1  0
 14 15  1  0
 15 16  1  0
 16 17  2  0
 17 18  1  0
 18 19  2  0
 19 20  1  0
 20 21  1  0
 20 22  2  0
 13  6  1  0
 22 16  1  0
  3 23  1  0
  3 24  1  0
  4 25  1  0
  4 26  1  0
  5 27  1  0
  5 28  1  0
  7 29  1  0
  8 30  1  0
 13 31  1  0
 15 32  1  0
 15 33  1  0
 17 34  1  0
 18 35  1  0
 19 36  1  0
 22 37  1  0
M  CHG  4  10  -1  12  -1  14  -1  21  -1
M  END
>  <UniqueID>  (82) 
73

>  <SMILES>  (82) 
O=C(CCCc1ccc([O-])c([O-])c1)[N-]Cc1cccc([O-])c1

>  <Energy>  (82) 
28.419331761566422

>  <Genealogy>  (82) 
O=C(CCCc1ccc([O-])c([O-])c1)[N-]Cc1cccc([O-])c1 (protonated)
O=C(CCCc1ccc([O-])c([O-])c1)[N-]Cc1cccc([O-])c1 (3D coordinates assigned)
O=C(CCCc1ccc([O-])c([O-])c1)[N-]Cc1cccc([O-])c1 (optimized conformer: 28.419331761566422 kcal/mol)

>  <smiles>  (82) 
O=C(CCCc1ccc(O)c(O)c1)NCc1cccc(O)c1

>  <score_type>  (82) 
oracle

>  <origin>  (82) 
adg

>  <m_score__min__energy>  (82) 
-17.649999999999999

>  <m_primary>  (82) 
energy

$$$$
83:0
     RDKit          3D

 43 45  0  0  0  0  0  0  0  0999 V2000
   57.7490   24.3740   48.1960 O   0  0  0  0  0  0  0  0  0  0  0  0
   57.5870   25.1690   47.2310 C   0  0  0  0  0  0  0  0  0  0  0  0
   57.3240   24.6180   45.8560 C   0  0  0  0  0  0  0  0  0  0  0  0
   55.8580   24.4140   45.6140 C   0  0  0  0  0  0  0  0  0  0  0  0
   55.1340   22.9570   45.1730 S   0  0  0  0  0  0  0  0  0  0  0  0
   53.6000   23.6380   45.1060 C   0  0  0  0  0  0  0  0  0  0  0  0
   52.5560   23.0060   44.8050 O   0  0  0  0  0  0  0  0  0  0  0  0
   53.6040   24.9520   45.4010 N   0  0  0  0  0  0  0  0  0  0  0  0
   54.8630   25.3860   45.6810 C   0  0  0  0  0  0  0  0  0  0  0  0
   55.1280   26.7120   46.0040 O   0  0  0  0  0  0  0  0  0  0  0  0
   57.7980   26.5700   47.4460 N   0  0  0  0  0  0  0  0  0  0  0  0
   58.3300   27.4820   46.4780 C   0  0  0  0  0  0  0  0  0  0  0  0
   59.6280   27.3220   45.9690 C   0  0  0  0  0  0  0  0  0  0  0  0
   60.1200   28.2070   45.0060 C   0  0  0  0  0  0  0  0  0  0  0  0
   59.3160   29.2510   44.5380 C   0  0  0  0  0  0  0  0  0  0  0  0
   58.0140   29.4120   45.0290 C   0  0  0  0  0  0  0  0  0  0  0  0
   57.0190   30.7630   44.4780 S   0  0  0  0  0  0  0  0  0  0  0  0
   57.4150   31.1210   43.0730 O   0  0  0  0  0  0  0  0  0  0  0  0
   55.5740   30.3450   44.4620 O   0  0  0  0  0  0  0  0  0  0  0  0
   57.1940   32.1600   45.5200 N   0  0  0  0  0  0  0  0  0  0  0  0
   57.4420   33.3970   44.7410 C   0  0  0  0  0  0  0  0  0  0  0  0
   58.3630   34.3810   45.4690 C   0  0  0  0  0  0  0  0  0  0  0  0
   59.7220   33.7190   45.7080 C   0  0  0  0  0  0  0  0  0  0  0  0
   59.5840   32.3210   46.3590 C   0  0  0  0  0  0  0  0  0  0  0  0
   58.1240   31.9070   46.6480 C   0  0  0  0  0  0  0  0  0  0  0  0
   57.5170   28.5160   45.9900 C   0  0  0  0  0  0  0  0  0  0  0  0
   57.7145   25.3237   45.1080 H   0  0  0  0  0  0  0  0  0  0  0  0
   57.8251   23.6422   45.7748 H   0  0  0  0  0  0  0  0  0  0  0  0
   55.8170   26.9400   46.7080 H   0  0  0  0  0  0  0  0  0  0  0  0
   60.2602   26.4971   46.3293 H   0  0  0  0  0  0  0  0  0  0  0  0
   61.1408   28.0823   44.6157 H   0  0  0  0  0  0  0  0  0  0  0  0
   59.7071   29.9479   43.7821 H   0  0  0  0  0  0  0  0  0  0  0  0
   57.9080   33.1220   43.7833 H   0  0  0  0  0  0  0  0  0  0  0  0
   56.4729   33.8964   44.5941 H   0  0  0  0  0  0  0  0  0  0  0  0
   58.4967   35.2831   44.8539 H   0  0  0  0  0  0  0  0  0  0  0  0
   57.9146   34.6609   46.4337 H   0  0  0  0  0  0  0  0  0  0  0  0
   60.2383   33.6111   44.7427 H   0  0  0  0  0  0  0  0  0  0  0  0
   60.2929   34.3582   46.3975 H   0  0  0  0  0  0  0  0  0  0  0  0
   60.0270   31.5775   45.6801 H   0  0  0  0  0  0  0  0  0  0  0  0
   60.1008   32.3678   47.3289 H   0  0  0  0  0  0  0  0  0  0  0  0
   58.1076   30.8310   46.8760 H   0  0  0  0  0  0  0  0  0  0  0  0
   57.7782   32.5223   47.4917 H   0  0  0  0  0  0  0  0  0  0  0  0
   56.4873   28.6254   46.3610 H   0  0  0  0  0  0  0  0  0  0  0  0
  1  2  2  0
  2  3  1  0
  3  4  1  0
  4  5  1  0
  5  6  1  0
  6  7  2  0
  6  8  1  0
  8  9  1  0
  9 10  1  0
  2 11  1  0
 11 12  1  0
 12 13  2  0
 13 14  1  0
 14 15  2  0
 15 16  1  0
 16 17  1  0
 17 18  2  0
 17 19  2  0
 17 20  1  0
 20 21  1  0
 21 22  1  0
 22 23  1  0
 23 24  1  0
 24 25  1  0
 16 26  2  0
  9  4  2  0
 26 12  1  0
 25 20  1  0
  3 27  1  0
  3 28  1  0
 10 29  1  0
 13 30  1  0
 14 31  1  0
 15 32  1  0
 21 33  1  0
 21 34  1  0
 22 35  1  0
 22 36  1  0
 23 37  1  0
 23 38  1  0
 24 39  1  0
 24 40  1  0
 25 41  1  0
 25 42  1  0
 26 43  1  0
M  CHG  2   8  -1  11  -1
M  END
>  <UniqueID>  (83) 
74

>  <SMILES>  (83) 
O=C(Cc1sc(=O)[n-]c1O)[N-]c1cccc(S(=O)(=O)N2CCCCC2)c1

>  <Energy>  (83) 
84.84562356312571

>  <Genealogy>  (83) 
O=C(Cc1sc(=O)[n-]c1O)[N-]c1cccc(S(=O)(=O)N2CCCCC2)c1 (protonated)
O=C(Cc1sc(=O)[n-]c1O)[N-]c1cccc(S(=O)(=O)N2CCCCC2)c1 (3D coordinates assigned)
O=C(Cc1sc(=O)[n-]c1O)[N-]c1cccc(S(=O)(=O)N2CCCCC2)c1 (nonaromatic ring conformer: 84.84562356312571 kcal/mol)

>  <smiles>  (83) 
O=C(Cc1sc(=O)[nH]c1O)Nc1cccc(S(=O)(=O)N2CCCCC2)c1

>  <score_type>  (83) 
oracle

>  <origin>  (83) 
adg

>  <m_score__min__energy>  (83) 
-13.789999999999999

>  <m_primary>  (83) 
energy

$$$$
84:0
     RDKit          3D

 49 52  0  0  0  0  0  0  0  0999 V2000
   58.4370   29.2160   47.1490 C   0  0  0  0  0  0  0  0  0  0  0  0
   58.1090   29.1710   45.8470 C   0  0  0  0  0  0  0  0  0  0  0  0
   57.9010   28.0210   45.0700 C   0  0  0  0  0  0  0  0  0  0  0  0
   58.1920   26.7280   45.3120 C   0  0  0  0  0  0  0  0  0  0  0  0
   57.4260   25.8320   46.1940 C   0  0  0  0  0  0  0  0  0  0  0  0
   57.9390   24.7670   46.8380 N   0  0  0  0  0  0  0  0  0  0  0  0
   56.8550   24.1910   47.4020 C   0  0  0  0  0  0  0  0  0  0  0  0
   56.9300   23.1560   48.1140 O   0  0  0  0  0  0  0  0  0  0  0  0
   55.6830   24.8060   47.1330 N   0  0  0  0  0  0  0  0  0  0  0  0
   56.0620   25.8350   46.3560 C   0  0  0  0  0  0  0  0  0  0  0  0
   55.1810   26.7560   45.8000 O   0  0  0  0  0  0  0  0  0  0  0  0
   57.3170   28.4510   43.8900 C   0  0  0  0  0  0  0  0  0  0  0  0
   57.2660   29.8280   43.9470 C   0  0  0  0  0  0  0  0  0  0  0  0
   56.7370   30.7040   42.8510 C   0  0  0  0  0  0  0  0  0  0  0  0
   57.7430   30.2680   45.1340 N   0  0  0  0  0  0  0  0  0  0  0  0
   57.8360   31.6430   45.5520 C   0  0  0  0  0  0  0  0  0  0  0  0
   57.0100   32.6200   44.9780 C   0  0  0  0  0  0  0  0  0  0  0  0
   57.1070   33.9500   45.3900 C   0  0  0  0  0  0  0  0  0  0  0  0
   58.0150   34.3120   46.3880 C   0  0  0  0  0  0  0  0  0  0  0  0
   58.8350   33.3420   46.9900 C   0  0  0  0  0  0  0  0  0  0  0  0
   59.7680   33.7280   48.0690 C   0  0  0  0  0  0  0  0  0  0  0  0
   59.3350   33.8790   49.2420 O   0  0  0  0  0  0  0  0  0  0  0  0
   61.1700   33.8840   47.8230 N   0  0  0  0  0  0  0  0  0  0  0  0
   62.1450   33.6520   46.7380 C   0  0  0  0  0  0  0  0  0  0  0  0
   63.3660   33.9320   47.5580 C   0  0  0  0  0  0  0  0  0  0  0  0
   64.1330   32.7720   47.8080 O   0  0  0  0  0  0  0  0  0  0  0  0
   63.3760   31.6360   47.4540 C   0  0  0  0  0  0  0  0  0  0  0  0
   62.3620   34.1690   48.6420 C   0  0  0  0  0  0  0  0  0  0  0  0
   58.7560   32.0120   46.5450 C   0  0  0  0  0  0  0  0  0  0  0  0
   58.5733   30.1865   47.6486 H   0  0  0  0  0  0  0  0  0  0  0  0
   58.5693   28.2824   47.7154 H   0  0  0  0  0  0  0  0  0  0  0  0
   59.0750   26.3069   44.8090 H   0  0  0  0  0  0  0  0  0  0  0  0
   54.3840   27.0910   46.3270 H   0  0  0  0  0  0  0  0  0  0  0  0
   56.9618   27.8157   43.0652 H   0  0  0  0  0  0  0  0  0  0  0  0
   56.2158   31.5671   43.2908 H   0  0  0  0  0  0  0  0  0  0  0  0
   57.5724   31.0580   42.2291 H   0  0  0  0  0  0  0  0  0  0  0  0
   56.0347   30.1295   42.2291 H   0  0  0  0  0  0  0  0  0  0  0  0
   56.2840   32.3376   44.2013 H   0  0  0  0  0  0  0  0  0  0  0  0
   56.4666   34.7154   44.9275 H   0  0  0  0  0  0  0  0  0  0  0  0
   58.0887   35.3628   46.7047 H   0  0  0  0  0  0  0  0  0  0  0  0
   62.1175   32.6208   46.3560 H   0  0  0  0  0  0  0  0  0  0  0  0
   62.0163   34.2374   45.8156 H   0  0  0  0  0  0  0  0  0  0  0  0
   64.1535   34.6410   47.2629 H   0  0  0  0  0  0  0  0  0  0  0  0
   63.0348   31.1240   48.3658 H   0  0  0  0  0  0  0  0  0  0  0  0
   62.5040   31.9470   46.8600 H   0  0  0  0  0  0  0  0  0  0  0  0
   63.9988   30.9509   46.8600 H   0  0  0  0  0  0  0  0  0  0  0  0
   62.4746   33.4702   49.4841 H   0  0  0  0  0  0  0  0  0  0  0  0
   62.3969   35.1439   49.1502 H   0  0  0  0  0  0  0  0  0  0  0  0
   59.4222   31.2521   46.9794 H   0  0  0  0  0  0  0  0  0  0  0  0
  1  2  2  0
  2  3  1  0
  3  4  2  3
  4  5  1  0
  5  6  1  0
  6  7  1  0
  7  8  2  0
  7  9  1  0
  9 10  1  0
 10 11  1  0
  3 12  1  0
 12 13  2  0
 13 14  1  0
 13 15  1  0
 15 16  1  0
 16 17  2  0
 17 18  1  0
 18 19  2  0
 19 20  1  0
 20 21  1  0
 21 22  2  0
 21 23  1  0
 23 24  1  0
 24 25  1  0
 25 26  1  0
 26 27  1  0
 25 28  1  0
 20 29  2  0
 15  2  1  0
 29 16  1  0
 10  5  2  0
 28 23  1  0
  1 30  1  0
  1 31  1  0
  4 32  1  0
 11 33  1  0
 12 34  1  0
 14 35  1  0
 14 36  1  0
 14 37  1  0
 17 38  1  0
 18 39  1  0
 19 40  1  0
 24 41  1  0
 24 42  1  0
 25 43  1  0
 27 44  1  0
 27 45  1  0
 27 46  1  0
 28 47  1  0
 28 48  1  0
 29 49  1  0
M  CHG  2   6  -1   9  -1
M  END
>  <UniqueID>  (84) 
75

>  <SMILES>  (84) 
C=c1c(=Cc2[n-]c(=O)[n-]c2O)cc(C)n1-c1cccc(C(=O)N2CC(OC)C2)c1

>  <Energy>  (84) 
172.89082799452729

>  <Genealogy>  (84) 
C=c1c(=Cc2[n-]c(=O)[n-]c2O)cc(C)n1-c1cccc(C(=O)N2CC(OC)C2)c1 (protonated)
C=c1c(=Cc2[n-]c(=O)[n-]c2O)cc(C)n1-c1cccc(C(=O)N2CC(OC)C2)c1 (3D coordinates assigned)
C=c1c(=Cc2[n-]c(=O)[n-]c2O)cc(C)n1-c1cccc(C(=O)N2CC(OC)C2)c1 (nonaromatic ring conformer: 172.89082799452729 kcal/mol)

>  <smiles>  (84) 
C=c1c(=Cc2[nH]c(=O)[nH]c2O)cc(C)n1-c1cccc(C(=O)N2CC(OC)C2)c1

>  <score_type>  (84) 
oracle

>  <origin>  (84) 
adg

>  <m_score__min__energy>  (84) 
-14.26

>  <m_primary>  (84) 
energy

$$$$
85:0
     RDKit          3D

 25 26  0  0  0  0  0  0  0  0999 V2000
   56.1936   30.1907   43.0919 H   0  0  0  0  0  0  0  0  0  0  0  0
   56.8250   30.9240   43.6150 C   0  0  0  0  0  0  0  0  0  0  0  0
   57.0390   30.8810   44.9570 N   0  0  0  0  0  0  0  0  0  0  0  0
   57.8450   31.8830   45.3700 C   0  0  0  0  0  0  0  0  0  0  0  0
   58.1770   32.0230   46.6210 N   0  0  0  0  0  0  0  0  0  0  0  0
   59.4500   31.7400   47.2250 C   0  0  0  0  0  0  0  0  0  0  0  0
   60.2080   32.6640   47.6270 O   0  0  0  0  0  0  0  0  0  0  0  0
   59.9000   30.3190   47.3500 C   0  0  0  0  0  0  0  0  0  0  0  0
   60.8232   30.1774   46.7690 H   0  0  0  0  0  0  0  0  0  0  0  0
   60.0862   30.0925   48.4102 H   0  0  0  0  0  0  0  0  0  0  0  0
   58.8670   29.4180   46.8430 N   0  0  0  0  0  0  0  0  0  0  0  0
   58.0100   29.8470   46.4300 H   0  0  0  0  0  0  0  0  0  0  0  0
   59.0180   27.9900   46.8690 C   0  0  0  0  0  0  0  0  0  0  0  0
   60.0960   27.4810   47.2820 O   0  0  0  0  0  0  0  0  0  0  0  0
   57.9350   27.0950   46.4190 C   0  0  0  0  0  0  0  0  0  0  0  0
   56.6310   27.4340   46.4990 N   0  0  0  0  0  0  0  0  0  0  0  0
   55.9650   26.3790   45.9950 C   0  0  0  0  0  0  0  0  0  0  0  0
   54.5810   26.3280   45.8950 O   0  0  0  0  0  0  0  0  0  0  0  0
   56.8160   25.3750   45.5940 C   0  0  0  0  0  0  0  0  0  0  0  0
   56.5391   24.4078   45.1492 H   0  0  0  0  0  0  0  0  0  0  0  0
   58.0860   25.8320   45.8650 C   0  0  0  0  0  0  0  0  0  0  0  0
   59.0317   25.3017   45.6794 H   0  0  0  0  0  0  0  0  0  0  0  0
   58.3270   32.8660   44.0820 S   0  0  0  0  0  0  0  0  0  0  0  0
   57.4650   31.9650   42.9560 C   0  0  0  0  0  0  0  0  0  0  0  0
   57.3870   32.3260   41.0860 Br  0  0  0  0  0  0  0  0  0  0  0  0
  1  2  1  0
  2  3  1  0
  3  4  1  0
  4  5  2  0
  5  6  1  0
  6  7  2  0
  6  8  1  0
  8  9  1  0
  8 10  1  0
  8 11  1  0
 11 12  1  0
 11 13  1  0
 13 14  2  0
 13 15  1  0
 15 16  1  0
 16 17  1  0
 17 18  1  0
 17 19  2  0
 19 20  1  0
 19 21  1  0
 21 22  1  0
  4 23  1  0
 23 24  1  0
 24 25  1  0
 24  2  2  0
 21 15  2  0
M  CHG  3   3  -1  16  -1  18  -1
M  END
>  <UniqueID>  (85) 
76

>  <SMILES>  (85) 
O=C(CNC(=O)c1ccc([O-])[n-]1)/N=c1/[n-]cc(Br)s1

>  <Energy>  (85) 
80.84241751487106

>  <Genealogy>  (85) 
O=C(CNC(=O)c1ccc([O-])[n-]1)N=c1[n-]cc(Br)s1 (protonated)
O=C(CNC(=O)c1ccc([O-])[n-]1)/N=c1/[n-]cc(Br)s1 (cis-trans isomerization)
O=C(CNC(=O)c1ccc([O-])[n-]1)/N=c1/[n-]cc(Br)s1 (3D coordinates assigned)
O=C(CNC(=O)c1ccc([O-])[n-]1)/N=c1/[n-]cc(Br)s1 (optimized conformer: 80.84241751487106 kcal/mol)

>  <smiles>  (85) 
O=C(CNC(=O)c1ccc(O)[nH]1)N=c1[nH]cc(Br)s1

>  <score_type>  (85) 
oracle

>  <origin>  (85) 
adg

>  <m_score__min__energy>  (85) 
-13.42

>  <m_primary>  (85) 
energy

$$$$
86:0
     RDKit          3D

 39 41  0  0  0  0  0  0  0  0999 V2000
   55.0530   22.3460   48.8800 C   0  0  0  0  0  0  0  0  0  0  0  0
   56.3180   23.0340   47.8320 S   0  0  0  0  0  0  0  0  0  0  0  0
   57.0580   21.9110   47.1610 O   0  0  0  0  0  0  0  0  0  0  0  0
   57.2940   23.8330   48.6490 O   0  0  0  0  0  0  0  0  0  0  0  0
   55.6010   24.0360   46.6140 N   0  0  0  0  0  0  0  0  0  0  0  0
   55.8890   25.4260   46.4260 C   0  0  0  0  0  0  0  0  0  0  0  0
   54.9750   26.1770   45.9940 O   0  0  0  0  0  0  0  0  0  0  0  0
   57.1760   25.9730   46.7580 N   0  0  0  0  0  0  0  0  0  0  0  0
   57.6490   27.2460   46.2820 C   0  0  0  0  0  0  0  0  0  0  0  0
   57.2270   27.7130   45.0280 C   0  0  0  0  0  0  0  0  0  0  0  0
   57.6560   28.9550   44.5530 C   0  0  0  0  0  0  0  0  0  0  0  0
   58.5240   29.7450   45.3240 C   0  0  0  0  0  0  0  0  0  0  0  0
   58.9300   31.0510   44.8840 N   0  0  0  0  0  0  0  0  0  0  0  0
   58.7220   32.1980   45.4770 C   0  0  0  0  0  0  0  0  0  0  0  0
   57.6070   33.0060   45.1680 C   0  0  0  0  0  0  0  0  0  0  0  0
   57.4290   34.2270   45.8160 C   0  0  0  0  0  0  0  0  0  0  0  0
   58.3310   34.6540   46.7360 N   0  0  0  0  0  0  0  0  0  0  0  0
   59.4300   33.9200   47.0540 C   0  0  0  0  0  0  0  0  0  0  0  0
   60.3350   34.4080   48.0030 C   0  0  0  0  0  0  0  0  0  0  0  0
   61.4710   33.6660   48.3370 C   0  0  0  0  0  0  0  0  0  0  0  0
   62.6020   34.2830   49.5280 Cl  0  0  0  0  0  0  0  0  0  0  0  0
   61.7060   32.4330   47.7240 C   0  0  0  0  0  0  0  0  0  0  0  0
   60.8090   31.9340   46.7760 C   0  0  0  0  0  0  0  0  0  0  0  0
   59.6580   32.6710   46.4260 C   0  0  0  0  0  0  0  0  0  0  0  0
   58.8990   29.3080   46.5990 C   0  0  0  0  0  0  0  0  0  0  0  0
   58.4720   28.0650   47.0750 C   0  0  0  0  0  0  0  0  0  0  0  0
   55.3287   22.4959   49.9343 H   0  0  0  0  0  0  0  0  0  0  0  0
   54.0954   22.8476   48.6765 H   0  0  0  0  0  0  0  0  0  0  0  0
   54.9536   21.2696   48.6765 H   0  0  0  0  0  0  0  0  0  0  0  0
   57.7600   25.4740   47.4630 H   0  0  0  0  0  0  0  0  0  0  0  0
   56.5535   27.0968   44.4143 H   0  0  0  0  0  0  0  0  0  0  0  0
   57.3127   29.3151   43.5720 H   0  0  0  0  0  0  0  0  0  0  0  0
   56.8779   32.6719   44.4152 H   0  0  0  0  0  0  0  0  0  0  0  0
   56.5524   34.8483   45.5805 H   0  0  0  0  0  0  0  0  0  0  0  0
   60.1517   35.3784   48.4875 H   0  0  0  0  0  0  0  0  0  0  0  0
   62.6017   31.8520   47.9889 H   0  0  0  0  0  0  0  0  0  0  0  0
   61.0013   30.9612   46.2999 H   0  0  0  0  0  0  0  0  0  0  0  0
   59.5338   29.9465   47.2309 H   0  0  0  0  0  0  0  0  0  0  0  0
   58.7813   27.7260   48.0747 H   0  0  0  0  0  0  0  0  0  0  0  0
  1  2  1  0
  2  3  2  0
  2  4  2  0
  2  5  1  0
  5  6  1  0
  6  7  2  0
  6  8  1  0
  8  9  1  0
  9 10  2  0
 10 11  1  0
 11 12  2  0
 12 13  1  0
 13 14  2  3
 14 15  1  0
 15 16  2  0
 16 17  1  0
 17 18  1  0
 18 19  2  0
 19 20  1  0
 20 21  1  0
 20 22  2  0
 22 23  1  0
 23 24  2  0
 12 25  1  0
 25 26  2  0
 26  9  1  0
 24 14  1  0
 24 18  1  0
  1 27  1  0
  1 28  1  0
  1 29  1  0
  8 30  1  0
 10 31  1  0
 11 32  1  0
 15 33  1  0
 16 34  1  0
 19 35  1  0
 22 36  1  0
 23 37  1  0
 25 38  1  0
 26 39  1  0
M  CHG  2   5  -1  17  -1
M  END
>  <UniqueID>  (86) 
77

>  <SMILES>  (86) 
CS(=O)(=O)[N-]C(=O)Nc1ccc(N=c2cc[n-]c3cc(Cl)ccc23)cc1

>  <Energy>  (86) 
57.54760233594034

>  <Genealogy>  (86) 
CS(=O)(=O)[N-]C(=O)Nc1ccc(N=c2cc[n-]c3cc(Cl)ccc23)cc1 (protonated)
CS(=O)(=O)[N-]C(=O)Nc1ccc(N=c2cc[n-]c3cc(Cl)ccc23)cc1 (3D coordinates assigned)
CS(=O)(=O)[N-]C(=O)Nc1ccc(N=c2cc[n-]c3cc(Cl)ccc23)cc1 (optimized conformer: 57.54760233594034 kcal/mol)

>  <smiles>  (86) 
CS(=O)(=O)NC(=O)Nc1ccc(N=c2cc[nH]c3cc(Cl)ccc23)cc1

>  <score_type>  (86) 
oracle

>  <origin>  (86) 
adg

>  <m_score__min__energy>  (86) 
-10.630000000000001

>  <m_primary>  (86) 
energy

$$$$
87:0
     RDKit          3D

 43 46  0  0  0  0  0  0  0  0999 V2000
   58.9545   31.1401   48.4286 H   0  0  0  0  0  0  0  0  0  0  0  0
   58.9350   30.2730   47.7520 C   0  0  0  0  0  0  0  0  0  0  0  0
   59.2931   29.2937   48.1024 H   0  0  0  0  0  0  0  0  0  0  0  0
   58.4740   30.4100   46.4980 C   0  0  0  0  0  0  0  0  0  0  0  0
   58.3910   29.3970   45.5310 C   0  0  0  0  0  0  0  0  0  0  0  0
   58.4770   28.0580   45.6500 C   0  0  0  0  0  0  0  0  0  0  0  0
   59.4797   27.6081   45.6031 H   0  0  0  0  0  0  0  0  0  0  0  0
   57.3330   27.1490   45.8380 C   0  0  0  0  0  0  0  0  0  0  0  0
   57.4070   25.9330   46.4120 N   0  0  0  0  0  0  0  0  0  0  0  0
   56.1170   25.5420   46.4820 C   0  0  0  0  0  0  0  0  0  0  0  0
   55.7710   24.4280   46.9540 O   0  0  0  0  0  0  0  0  0  0  0  0
   55.2260   26.4430   46.0160 N   0  0  0  0  0  0  0  0  0  0  0  0
   56.0120   27.4590   45.6250 C   0  0  0  0  0  0  0  0  0  0  0  0
   55.5320   28.6480   45.0900 O   0  0  0  0  0  0  0  0  0  0  0  0
   58.1160   30.0270   44.3310 C   0  0  0  0  0  0  0  0  0  0  0  0
   58.0429   29.5514   43.3418 H   0  0  0  0  0  0  0  0  0  0  0  0
   57.9510   31.3670   44.6140 C   0  0  0  0  0  0  0  0  0  0  0  0
   57.5840   32.4060   43.5960 C   0  0  0  0  0  0  0  0  0  0  0  0
   57.2599   33.3235   44.1090 H   0  0  0  0  0  0  0  0  0  0  0  0
   58.4584   32.6273   42.9663 H   0  0  0  0  0  0  0  0  0  0  0  0
   56.7646   32.0290   42.9663 H   0  0  0  0  0  0  0  0  0  0  0  0
   58.1590   31.6060   45.9300 N   0  0  0  0  0  0  0  0  0  0  0  0
   57.9680   32.9040   46.6010 C   0  0  0  0  0  0  0  0  0  0  0  0
   57.0541   33.3768   46.2121 H   0  0  0  0  0  0  0  0  0  0  0  0
   57.8849   32.7253   47.6832 H   0  0  0  0  0  0  0  0  0  0  0  0
   59.1600   33.8430   46.3560 C   0  0  0  0  0  0  0  0  0  0  0  0
   59.7523   33.4519   45.5156 H   0  0  0  0  0  0  0  0  0  0  0  0
   58.7615   34.8438   46.1331 H   0  0  0  0  0  0  0  0  0  0  0  0
   60.0470   33.9580   47.5600 C   0  0  0  0  0  0  0  0  0  0  0  0
   59.6320   34.1530   48.8750 C   0  0  0  0  0  0  0  0  0  0  0  0
   58.5932   34.3423   49.1831 H   0  0  0  0  0  0  0  0  0  0  0  0
   60.6850   34.0770   49.7200 N   0  0  0  0  0  0  0  0  0  0  0  0
   60.6590   34.1630   50.7600 H   0  0  0  0  0  0  0  0  0  0  0  0
   61.7600   33.8250   48.9520 C   0  0  0  0  0  0  0  0  0  0  0  0
   63.0700   33.6150   49.3780 C   0  0  0  0  0  0  0  0  0  0  0  0
   63.3379   33.6778   50.4430 H   0  0  0  0  0  0  0  0  0  0  0  0
   64.0390   33.3200   48.4010 C   0  0  0  0  0  0  0  0  0  0  0  0
   65.0842   33.1538   48.7007 H   0  0  0  0  0  0  0  0  0  0  0  0
   63.6780   33.2360   47.0380 C   0  0  0  0  0  0  0  0  0  0  0  0
   64.4442   33.0038   46.2837 H   0  0  0  0  0  0  0  0  0  0  0  0
   62.3460   33.4470   46.6380 C   0  0  0  0  0  0  0  0  0  0  0  0
   62.0524   33.3785   45.5801 H   0  0  0  0  0  0  0  0  0  0  0  0
   61.4100   33.7460   47.6280 C   0  0  0  0  0  0  0  0  0  0  0  0
  1  2  1  0
  2  3  1  0
  2  4  2  0
  4  5  1  0
  5  6  2  0
  6  7  1  0
  6  8  1  0
  8  9  1  0
  9 10  1  0
 10 11  2  0
 10 12  1  0
 12 13  1  0
 13 14  1  0
  5 15  1  0
 15 16  1  0
 15 17  2  0
 17 18  1  0
 18 19  1  0
 18 20  1  0
 18 21  1  0
 17 22  1  0
 22 23  1  0
 23 24  1  0
 23 25  1  0
 23 26  1  0
 26 27  1  0
 26 28  1  0
 26 29  1  0
 29 30  2  0
 30 31  1  0
 30 32  1  0
 32 33  1  0
 32 34  1  0
 34 35  2  0
 35 36  1  0
 35 37  1  0
 37 38  1  0
 37 39  2  0
 39 40  1  0
 39 41  1  0
 41 42  1  0
 41 43  2  0
 22  4  1  0
 43 29  1  0
 13  8  2  0
 43 34  1  0
M  CHG  3   9  -1  12  -1  14  -1
M  END
>  <UniqueID>  (87) 
78

>  <SMILES>  (87) 
C=c1/c(=C\c2[n-]c(=O)[n-]c2[O-])cc(C)n1CCc1c[nH]c2ccccc12

>  <Energy>  (87) 
142.77660268469575

>  <Genealogy>  (87) 
C=c1c(=Cc2[n-]c(=O)[n-]c2[O-])cc(C)n1CCc1c[nH]c2ccccc12 (protonated)
C=c1/c(=C\c2[n-]c(=O)[n-]c2[O-])cc(C)n1CCc1c[nH]c2ccccc12 (cis-trans isomerization)
C=c1/c(=C\c2[n-]c(=O)[n-]c2[O-])cc(C)n1CCc1c[nH]c2ccccc12 (3D coordinates assigned)
C=c1/c(=C\c2[n-]c(=O)[n-]c2[O-])cc(C)n1CCc1c[nH]c2ccccc12 (optimized conformer: 142.77660268469575 kcal/mol)

>  <smiles>  (87) 
C=c1c(=Cc2[nH]c(=O)[nH]c2O)cc(C)n1CCc1c[nH]c2ccccc12

>  <score_type>  (87) 
oracle

>  <origin>  (87) 
adg

>  <m_score__min__energy>  (87) 
-16.399999999999999

>  <m_primary>  (87) 
energy

$$$$
88:0
     RDKit          3D

 47 51  0  0  0  0  0  0  0  0999 V2000
   62.9340   25.2700   51.7450 C   0  0  0  0  0  0  0  0  0  0  0  0
   61.7010   26.0860   52.1170 C   0  0  0  0  0  0  0  0  0  0  0  0
   61.2230   26.8790   50.9410 C   0  0  0  0  0  0  0  0  0  0  0  0
   60.7660   28.1910   51.0410 C   0  0  0  0  0  0  0  0  0  0  0  0
   60.2350   28.6670   49.5180 S   0  0  0  0  0  0  0  0  0  0  0  0
   60.5860   27.1820   48.8080 C   0  0  0  0  0  0  0  0  0  0  0  0
   60.3520   26.8350   47.3690 C   0  0  0  0  0  0  0  0  0  0  0  0
   59.5210   27.8510   46.7190 N   0  0  0  0  0  0  0  0  0  0  0  0
   60.0610   28.9860   46.2830 N   0  0  0  0  0  0  0  0  0  0  0  0
   59.1140   29.7090   45.6530 C   0  0  0  0  0  0  0  0  0  0  0  0
   57.9420   28.9940   45.6890 C   0  0  0  0  0  0  0  0  0  0  0  0
   56.7030   29.2520   45.1240 C   0  0  0  0  0  0  0  0  0  0  0  0
   56.4840   30.3150   44.4860 O   0  0  0  0  0  0  0  0  0  0  0  0
   55.7300   28.3130   45.2540 N   0  0  0  0  0  0  0  0  0  0  0  0
   55.9240   27.1510   45.9460 C   0  0  0  0  0  0  0  0  0  0  0  0
   54.8840   26.2290   45.9840 O   0  0  0  0  0  0  0  0  0  0  0  0
   57.1630   26.8860   46.6030 C   0  0  0  0  0  0  0  0  0  0  0  0
   57.3320   25.6370   47.4480 C   0  0  0  0  0  0  0  0  0  0  0  0
   56.9000   24.3690   46.7500 C   0  0  0  0  0  0  0  0  0  0  0  0
   56.5050   23.1530   47.3260 C   0  0  0  0  0  0  0  0  0  0  0  0
   56.3960   22.8420   48.7620 C   0  0  0  0  0  0  0  0  0  0  0  0
   57.4170   22.7780   49.4940 O   0  0  0  0  0  0  0  0  0  0  0  0
   55.1460   22.6130   49.3210 O   0  0  0  0  0  0  0  0  0  0  0  0
   56.2310   22.2260   46.3760 N   0  0  0  0  0  0  0  0  0  0  0  0
   56.4550   22.8510   45.2070 C   0  0  0  0  0  0  0  0  0  0  0  0
   56.3110   22.3020   43.9340 C   0  0  0  0  0  0  0  0  0  0  0  0
   56.5990   23.1170   42.8250 C   0  0  0  0  0  0  0  0  0  0  0  0
   57.0210   24.4510   43.0110 C   0  0  0  0  0  0  0  0  0  0  0  0
   57.1580   24.9800   44.3070 C   0  0  0  0  0  0  0  0  0  0  0  0
   56.8650   24.1460   45.3890 C   0  0  0  0  0  0  0  0  0  0  0  0
   58.1990   27.8380   46.3820 C   0  0  0  0  0  0  0  0  0  0  0  0
   61.1230   26.3250   49.7020 N   0  0  0  0  0  0  0  0  0  0  0  0
   63.4415   24.9341   52.6613 H   0  0  0  0  0  0  0  0  0  0  0  0
   62.6293   24.3946   51.1527 H   0  0  0  0  0  0  0  0  0  0  0  0
   63.6207   25.8926   51.1527 H   0  0  0  0  0  0  0  0  0  0  0  0
   60.9012   25.4050   52.4437 H   0  0  0  0  0  0  0  0  0  0  0  0
   61.9647   26.7787   52.9298 H   0  0  0  0  0  0  0  0  0  0  0  0
   60.7545   28.8058   51.9531 H   0  0  0  0  0  0  0  0  0  0  0  0
   61.3201   26.7747   46.8503 H   0  0  0  0  0  0  0  0  0  0  0  0
   59.8308   25.8676   47.3192 H   0  0  0  0  0  0  0  0  0  0  0  0
   59.2549   30.6975   45.1914 H   0  0  0  0  0  0  0  0  0  0  0  0
   58.3942   25.5408   47.7170 H   0  0  0  0  0  0  0  0  0  0  0  0
   56.6850   25.7552   48.3297 H   0  0  0  0  0  0  0  0  0  0  0  0
   55.9815   21.2610   43.8007 H   0  0  0  0  0  0  0  0  0  0  0  0
   56.4949   22.7129   41.8072 H   0  0  0  0  0  0  0  0  0  0  0  0
   57.2441   25.0807   42.1371 H   0  0  0  0  0  0  0  0  0  0  0  0
   57.4857   26.0183   44.4639 H   0  0  0  0  0  0  0  0  0  0  0  0
  1  2  1  0
  2  3  1  0
  3  4  2  0
  4  5  1  0
  5  6  1  0
  6  7  1  0
  7  8  1  0
  8  9  1  0
  9 10  2  0
 10 11  1  0
 11 12  1  0
 12 13  2  0
 12 14  1  0
 14 15  1  0
 15 16  1  0
 15 17  2  0
 17 18  1  0
 18 19  1  0
 19 20  2  0
 20 21  1  0
 21 22  2  0
 21 23  1  0
 20 24  1  0
 24 25  1  0
 25 26  2  0
 26 27  1  0
 27 28  2  0
 28 29  1  0
 29 30  2  0
 17 31  1  0
  6 32  2  0
 32  3  1  0
 31  8  1  0
 31 11  2  0
 30 19  1  0
 30 25  1  0
  1 33  1  0
  1 34  1  0
  1 35  1  0
  2 36  1  0
  2 37  1  0
  4 38  1  0
  7 39  1  0
  7 40  1  0
 10 41  1  0
 18 42  1  0
 18 43  1  0
 26 44  1  0
 27 45  1  0
 28 46  1  0
 29 47  1  0
M  CHG  4  14  -1  16  -1  23  -1  24  -1
M  END
>  <UniqueID>  (88) 
79

>  <SMILES>  (88) 
CCc1csc(Cn2ncc3c(=O)[n-]c([O-])c(Cc4c(C(=O)[O-])[n-]c5ccccc45)c32)n1

>  <Energy>  (88) 
156.06366364529688

>  <Genealogy>  (88) 
CCc1csc(Cn2ncc3c(=O)[n-]c([O-])c(Cc4c(C(=O)[O-])[n-]c5ccccc45)c32)n1 (protonated)
CCc1csc(Cn2ncc3c(=O)[n-]c([O-])c(Cc4c(C(=O)[O-])[n-]c5ccccc45)c32)n1 (3D coordinates assigned)
CCc1csc(Cn2ncc3c(=O)[n-]c([O-])c(Cc4c(C(=O)[O-])[n-]c5ccccc45)c32)n1 (optimized conformer: 156.06366364529688 kcal/mol)

>  <smiles>  (88) 
CCc1csc(Cn2ncc3c(=O)[nH]c(O)c(Cc4c(C(=O)O)[nH]c5ccccc45)c32)n1

>  <score_type>  (88) 
oracle

>  <origin>  (88) 
adg

>  <m_score__min__energy>  (88) 
-15.130000000000001

>  <m_primary>  (88) 
energy

$$$$
89:0
     RDKit          3D

 62 66  0  0  0  0  0  0  0  0999 V2000
   56.1179   32.7988   44.0999 H   0  0  0  0  0  0  0  0  0  0  0  0
   57.0150   32.4700   44.6450 C   0  0  0  0  0  0  0  0  0  0  0  0
   57.8420   33.4160   45.2590 C   0  0  0  0  0  0  0  0  0  0  0  0
   57.5869   34.4846   45.2031 H   0  0  0  0  0  0  0  0  0  0  0  0
   58.9940   33.0090   45.9450 C   0  0  0  0  0  0  0  0  0  0  0  0
   60.0040   34.1960   46.7760 S   0  0  0  0  0  0  0  0  0  0  0  0
   61.4500   33.8780   46.5190 O   0  0  0  0  0  0  0  0  0  0  0  0
   59.7200   35.5610   46.2120 O   0  0  0  0  0  0  0  0  0  0  0  0
   59.7220   34.2270   48.5010 N   0  0  0  0  0  0  0  0  0  0  0  0
   58.9560   33.0690   48.9530 C   0  0  0  0  0  0  0  0  0  0  0  0
   57.8788   33.2485   48.8211 H   0  0  0  0  0  0  0  0  0  0  0  0
   59.2104   32.1681   48.3753 H   0  0  0  0  0  0  0  0  0  0  0  0
   59.2850   32.8960   50.4240 C   0  0  0  0  0  0  0  0  0  0  0  0
   58.5380   33.4065   51.0496 H   0  0  0  0  0  0  0  0  0  0  0  0
   59.2801   31.8384   50.7263 H   0  0  0  0  0  0  0  0  0  0  0  0
   60.6540   33.5330   50.6000 C   0  0  0  0  0  0  0  0  0  0  0  0
   60.6287   34.2820   51.4052 H   0  0  0  0  0  0  0  0  0  0  0  0
   61.4168   32.7902   50.8765 H   0  0  0  0  0  0  0  0  0  0  0  0
   60.9700   34.1970   49.2650 C   0  0  0  0  0  0  0  0  0  0  0  0
   61.3382   35.2205   49.4290 H   0  0  0  0  0  0  0  0  0  0  0  0
   61.7506   33.6424   48.7236 H   0  0  0  0  0  0  0  0  0  0  0  0
   59.3360   31.6510   45.9700 C   0  0  0  0  0  0  0  0  0  0  0  0
   60.2613   31.3282   46.4697 H   0  0  0  0  0  0  0  0  0  0  0  0
   58.5070   30.7050   45.3630 C   0  0  0  0  0  0  0  0  0  0  0  0
   58.7828   29.6404   45.3881 H   0  0  0  0  0  0  0  0  0  0  0  0
   57.3240   31.1040   44.7210 C   0  0  0  0  0  0  0  0  0  0  0  0
   56.4110   30.0990   44.1290 C   0  0  0  0  0  0  0  0  0  0  0  0
   56.2190   30.0990   42.8850 O   0  0  0  0  0  0  0  0  0  0  0  0
   55.7630   29.0950   44.9270 N   0  0  0  0  0  0  0  0  0  0  0  0
   56.2850   27.9580   45.2810 C   0  0  0  0  0  0  0  0  0  0  0  0
   57.5690   27.6020   45.0000 N   0  0  0  0  0  0  0  0  0  0  0  0
   57.6580   26.3880   45.5600 C   0  0  0  0  0  0  0  0  0  0  0  0
   58.7590   25.5380   45.5780 C   0  0  0  0  0  0  0  0  0  0  0  0
   59.7062   25.8226   45.0966 H   0  0  0  0  0  0  0  0  0  0  0  0
   58.6180   24.3010   46.2340 C   0  0  0  0  0  0  0  0  0  0  0  0
   59.4692   23.6051   46.2688 H   0  0  0  0  0  0  0  0  0  0  0  0
   57.3950   23.9400   46.8500 C   0  0  0  0  0  0  0  0  0  0  0  0
   57.3180   22.6880   47.4830 O   0  0  0  0  0  0  0  0  0  0  0  0
   56.6410   21.5430   46.9660 C   0  0  0  0  0  0  0  0  0  0  0  0
   57.2713   21.0643   46.2021 H   0  0  0  0  0  0  0  0  0  0  0  0
   56.4466   20.8424   47.7914 H   0  0  0  0  0  0  0  0  0  0  0  0
   55.3040   21.9480   46.3350 C   0  0  0  0  0  0  0  0  0  0  0  0
   54.5085   21.2949   46.7231 H   0  0  0  0  0  0  0  0  0  0  0  0
   55.0941   22.9969   46.5915 H   0  0  0  0  0  0  0  0  0  0  0  0
   55.3630   21.8200   44.8650 N   0  0  0  0  0  0  0  0  0  0  0  0
   56.5210   20.9950   44.4640 C   0  0  0  0  0  0  0  0  0  0  0  0
   57.4119   21.3303   45.0152 H   0  0  0  0  0  0  0  0  0  0  0  0
   56.3037   19.9420   44.6964 H   0  0  0  0  0  0  0  0  0  0  0  0
   56.7820   21.1260   42.9530 C   0  0  0  0  0  0  0  0  0  0  0  0
   57.6902   20.5533   42.7139 H   0  0  0  0  0  0  0  0  0  0  0  0
   55.8782   20.7467   42.4538 H   0  0  0  0  0  0  0  0  0  0  0  0
   56.9640   22.4570   42.4810 O   0  0  0  0  0  0  0  0  0  0  0  0
   56.6460   23.4490   43.4400 C   0  0  0  0  0  0  0  0  0  0  0  0
   57.4633   23.5072   44.1739 H   0  0  0  0  0  0  0  0  0  0  0  0
   56.5166   24.4034   42.9087 H   0  0  0  0  0  0  0  0  0  0  0  0
   55.3350   23.1400   44.1820 C   0  0  0  0  0  0  0  0  0  0  0  0
   55.1634   23.9230   44.9353 H   0  0  0  0  0  0  0  0  0  0  0  0
   54.5278   23.1120   43.4353 H   0  0  0  0  0  0  0  0  0  0  0  0
   56.3010   24.8420   46.8110 C   0  0  0  0  0  0  0  0  0  0  0  0
   55.3412   24.5905   47.2860 H   0  0  0  0  0  0  0  0  0  0  0  0
   56.4800   26.0550   46.1530 C   0  0  0  0  0  0  0  0  0  0  0  0
   55.5830   27.0410   45.9950 N   0  0  0  0  0  0  0  0  0  0  0  0
  1  2  1  0
  2  3  2  0
  3  4  1  0
  3  5  1  0
  5  6  1  0
  6  7  2  0
  6  8  2  0
  6  9  1  0
  9 10  1  0
 10 11  1  0
 10 12  1  0
 10 13  1  0
 13 14  1  0
 13 15  1  0
 13 16  1  0
 16 17  1  0
 16 18  1  0
 16 19  1  0
 19 20  1  0
 19 21  1  0
  5 22  2  0
 22 23  1  0
 22 24  1  0
 24 25  1  0
 24 26  2  0
 26 27  1  0
 27 28  2  0
 27 29  1  0
 29 30  2  0
 30 31  1  0
 31 32  1  0
 32 33  2  0
 33 34  1  0
 33 35  1  0
 35 36  1  0
 35 37  2  0
 37 38  1  0
 38 39  1  0
 39 40  1  0
 39 41  1  0
 39 42  1  0
 42 43  1  0
 42 44  1  0
 42 45  1  0
 45 46  1  0
 46 47  1  0
 46 48  1  0
 46 49  1  0
 49 50  1  0
 49 51  1  0
 49 52  1  0
 52 53  1  0
 53 54  1  0
 53 55  1  0
 53 56  1  0
 56 57  1  0
 56 58  1  0
 37 59  1  0
 59 60  1  0
 59 61  2  0
 61 62  1  0
 26  2  1  0
 62 30  1  0
 19  9  1  0
 61 32  1  0
 56 45  1  0
M  CHG  2  31  -1  62  -1
M  END
>  <UniqueID>  (89) 
80

>  <SMILES>  (89) 
O=C(/N=c1\[n-]c2ccc(OCCN3CCOCC3)cc2[n-]1)c1ccc(S(=O)(=O)N2CCCC2)cc1

>  <Energy>  (89) 
121.69418410646298

>  <Genealogy>  (89) 
O=C(N=c1[n-]c2ccc(OCCN3CCOCC3)cc2[n-]1)c1ccc(S(=O)(=O)N2CCCC2)cc1 (protonated)
O=C(/N=c1\[n-]c2ccc(OCCN3CCOCC3)cc2[n-]1)c1ccc(S(=O)(=O)N2CCCC2)cc1 (cis-trans isomerization)
O=C(/N=c1\[n-]c2ccc(OCCN3CCOCC3)cc2[n-]1)c1ccc(S(=O)(=O)N2CCCC2)cc1 (3D coordinates assigned)
O=C(/N=c1\[n-]c2ccc(OCCN3CCOCC3)cc2[n-]1)c1ccc(S(=O)(=O)N2CCCC2)cc1 (nonaromatic ring conformer: 121.69418410646298 kcal/mol)

>  <smiles>  (89) 
O=C(N=c1[nH]c2ccc(OCCN3CCOCC3)cc2[nH]1)c1ccc(S(=O)(=O)N2CCCC2)cc1

>  <score_type>  (89) 
oracle

>  <origin>  (89) 
adg

>  <m_score__min__energy>  (89) 
-13.56

>  <m_primary>  (89) 
energy

$$$$
90:0
     RDKit          3D

 64 67  0  0  0  0  0  0  0  0999 V2000
   60.0790   34.5810   48.4880 C   0  0  0  0  0  0  0  0  0  0  0  0
   59.5110   33.9820   47.2710 N   0  0  0  0  0  0  0  0  0  0  0  0
   58.1580   33.4590   47.5380 C   0  0  0  0  0  0  0  0  0  0  0  0
   57.6100   32.7250   46.2940 C   0  0  0  0  0  0  0  0  0  0  0  0
   58.4130   33.0230   45.0880 N   0  0  0  0  0  0  0  0  0  0  0  0
   57.7570   32.4900   43.8750 C   0  0  0  0  0  0  0  0  0  0  0  0
   56.6530   31.5000   44.2610 C   0  0  0  0  0  0  0  0  0  0  0  0
   57.2230   30.1750   44.5050 N   0  0  0  0  0  0  0  0  0  0  0  0
   58.5350   29.8500   44.4420 C   0  0  0  0  0  0  0  0  0  0  0  0
   58.6820   28.5010   44.6970 C   0  0  0  0  0  0  0  0  0  0  0  0
   59.8780   27.7930   44.6720 O   0  0  0  0  0  0  0  0  0  0  0  0
   57.4200   27.9870   44.9310 C   0  0  0  0  0  0  0  0  0  0  0  0
   57.0570   26.6290   45.2030 N   0  0  0  0  0  0  0  0  0  0  0  0
   57.0160   26.0260   46.5030 C   0  0  0  0  0  0  0  0  0  0  0  0
   55.8970   25.6710   46.9630 O   0  0  0  0  0  0  0  0  0  0  0  0
   58.2440   25.9190   47.3310 C   0  0  0  0  0  0  0  0  0  0  0  0
   59.2760   26.7770   47.3100 C   0  0  0  0  0  0  0  0  0  0  0  0
   59.4110   27.9340   48.2080 C   0  0  0  0  0  0  0  0  0  0  0  0
   58.7510   29.1310   47.9070 C   0  0  0  0  0  0  0  0  0  0  0  0
   58.9120   30.2450   48.7370 C   0  0  0  0  0  0  0  0  0  0  0  0
   59.7580   30.1880   49.8500 C   0  0  0  0  0  0  0  0  0  0  0  0
   59.9190   31.3670   50.6490 N   0  0  0  0  0  0  0  0  0  0  0  0
   61.4230   32.1860   50.9330 S   0  0  0  0  0  0  0  0  0  0  0  0
   61.1460   33.5110   51.5850 O   0  0  0  0  0  0  0  0  0  0  0  0
   62.2670   31.3520   51.8600 O   0  0  0  0  0  0  0  0  0  0  0  0
   62.2650   32.4730   49.4080 C   0  0  0  0  0  0  0  0  0  0  0  0
   62.1340   31.5570   48.3540 C   0  0  0  0  0  0  0  0  0  0  0  0
   62.7870   31.7830   47.1390 C   0  0  0  0  0  0  0  0  0  0  0  0
   63.5780   32.9220   46.9690 C   0  0  0  0  0  0  0  0  0  0  0  0
   63.7200   33.8370   48.0170 C   0  0  0  0  0  0  0  0  0  0  0  0
   63.0710   33.6140   49.2360 C   0  0  0  0  0  0  0  0  0  0  0  0
   63.2340   34.5310   50.2690 O   0  0  0  0  0  0  0  0  0  0  0  0
   60.4150   28.9810   50.1540 C   0  0  0  0  0  0  0  0  0  0  0  0
   60.2440   27.8610   49.3320 C   0  0  0  0  0  0  0  0  0  0  0  0
   56.5460   29.0390   44.7740 C   0  0  0  0  0  0  0  0  0  0  0  0
   55.1610   28.9600   44.8810 O   0  0  0  0  0  0  0  0  0  0  0  0
   58.6390   34.4790   44.9830 C   0  0  0  0  0  0  0  0  0  0  0  0
   59.4750   34.9790   46.1790 C   0  0  0  0  0  0  0  0  0  0  0  0
   59.6301   34.1076   49.3736 H   0  0  0  0  0  0  0  0  0  0  0  0
   61.1676   34.4238   48.5004 H   0  0  0  0  0  0  0  0  0  0  0  0
   59.8642   35.6597   48.5004 H   0  0  0  0  0  0  0  0  0  0  0  0
   58.2010   32.7568   48.3836 H   0  0  0  0  0  0  0  0  0  0  0  0
   57.4912   34.3000   47.7791 H   0  0  0  0  0  0  0  0  0  0  0  0
   57.6338   31.6411   46.4798 H   0  0  0  0  0  0  0  0  0  0  0  0
   56.5810   33.0707   46.1162 H   0  0  0  0  0  0  0  0  0  0  0  0
   57.3163   33.3214   43.3053 H   0  0  0  0  0  0  0  0  0  0  0  0
   58.5068   31.9694   43.2612 H   0  0  0  0  0  0  0  0  0  0  0  0
   56.1516   31.8533   45.1741 H   0  0  0  0  0  0  0  0  0  0  0  0
   55.9285   31.4319   43.4361 H   0  0  0  0  0  0  0  0  0  0  0  0
   59.3548   30.5498   44.2224 H   0  0  0  0  0  0  0  0  0  0  0  0
   58.3138   25.0643   48.0199 H   0  0  0  0  0  0  0  0  0  0  0  0
   60.0734   26.6034   46.5725 H   0  0  0  0  0  0  0  0  0  0  0  0
   58.1061   29.1955   47.0182 H   0  0  0  0  0  0  0  0  0  0  0  0
   58.3685   31.1747   48.5127 H   0  0  0  0  0  0  0  0  0  0  0  0
   61.5149   30.6571   48.4841 H   0  0  0  0  0  0  0  0  0  0  0  0
   62.6779   31.0626   46.3149 H   0  0  0  0  0  0  0  0  0  0  0  0
   64.0889   33.0990   46.0111 H   0  0  0  0  0  0  0  0  0  0  0  0
   64.3430   34.7335   47.8826 H   0  0  0  0  0  0  0  0  0  0  0  0
   61.0644   28.9177   51.0396 H   0  0  0  0  0  0  0  0  0  0  0  0
   60.7648   26.9215   49.5691 H   0  0  0  0  0  0  0  0  0  0  0  0
   59.1768   34.6962   44.0484 H   0  0  0  0  0  0  0  0  0  0  0  0
   57.6665   34.9931   44.9866 H   0  0  0  0  0  0  0  0  0  0  0  0
   60.5029   35.1744   45.8396 H   0  0  0  0  0  0  0  0  0  0  0  0
   59.0086   35.8971   46.5657 H   0  0  0  0  0  0  0  0  0  0  0  0
  1  2  1  0
  2  3  1  0
  3  4  1  0
  4  5  1  0
  5  6  1  0
  6  7  1  0
  7  8  1  0
  8  9  1  0
  9 10  2  0
 10 11  1  0
 10 12  1  0
 12 13  1  0
 13 14  1  0
 14 15  2  0
 14 16  1  0
 16 17  2  3
 17 18  1  0
 18 19  2  0
 19 20  1  0
 20 21  2  0
 21 22  1  0
 22 23  1  0
 23 24  2  0
 23 25  2  0
 23 26  1  0
 26 27  2  0
 27 28  1  0
 28 29  2  0
 29 30  1  0
 30 31  2  0
 31 32  1  0
 21 33  1  0
 33 34  2  0
 12 35  2  0
 35 36  1  0
  5 37  1  0
 37 38  1  0
 38  2  1  0
 35  8  1  0
 34 18  1  0
 31 26  1  0
  1 39  1  0
  1 40  1  0
  1 41  1  0
  3 42  1  0
  3 43  1  0
  4 44  1  0
  4 45  1  0
  6 46  1  0
  6 47  1  0
  7 48  1  0
  7 49  1  0
  9 50  1  0
 16 51  1  0
 17 52  1  0
 19 53  1  0
 20 54  1  0
 27 55  1  0
 28 56  1  0
 29 57  1  0
 30 58  1  0
 33 59  1  0
 34 60  1  0
 37 61  1  0
 37 62  1  0
 38 63  1  0
 38 64  1  0
M  CHG  5  11  -1  13  -1  22  -1  32  -1  36  -1
M  END
>  <UniqueID>  (90) 
81

>  <SMILES>  (90) 
CN1CCN(CCn2cc([O-])c([N-]C(=O)C=Cc3ccc([N-]S(=O)(=O)c4ccccc4[O-])cc3)c2[O-])CC1

>  <Energy>  (90) 
120.81986956212764

>  <Genealogy>  (90) 
CN1CCN(CCn2cc([O-])c([N-]C(=O)C=Cc3ccc([N-]S(=O)(=O)c4ccccc4[O-])cc3)c2[O-])CC1 (protonated)
CN1CCN(CCn2cc([O-])c([N-]C(=O)C=Cc3ccc([N-]S(=O)(=O)c4ccccc4[O-])cc3)c2[O-])CC1 (3D coordinates assigned)
CN1CCN(CCn2cc([O-])c([N-]C(=O)C=Cc3ccc([N-]S(=O)(=O)c4ccccc4[O-])cc3)c2[O-])CC1 (nonaromatic ring conformer: 120.81986956212764 kcal/mol)

>  <smiles>  (90) 
CN1CCN(CCn2cc(O)c(NC(=O)C=Cc3ccc(NS(=O)(=O)c4ccccc4O)cc3)c2O)CC1

>  <score_type>  (90) 
oracle

>  <origin>  (90) 
adg

>  <m_score__min__energy>  (90) 
-18.489999999999998

>  <m_primary>  (90) 
energy

$$$$
91:0
     RDKit          3D

 42 44  0  0  0  0  0  0  0  0999 V2000
   55.2100   29.6540   44.8720 O   0  0  0  0  0  0  0  0  0  0  0  0
   56.4610   29.5150   44.8530 C   0  0  0  0  0  0  0  0  0  0  0  0
   57.0060   28.2150   44.5790 N   0  0  0  0  0  0  0  0  0  0  0  0
   57.9340   27.5040   45.4130 C   0  0  0  0  0  0  0  0  0  0  0  0
   59.2910   27.8390   45.3150 C   0  0  0  0  0  0  0  0  0  0  0  0
   60.2290   27.2650   46.1740 C   0  0  0  0  0  0  0  0  0  0  0  0
   59.8210   26.3400   47.1340 C   0  0  0  0  0  0  0  0  0  0  0  0
   58.4800   25.9630   47.2190 C   0  0  0  0  0  0  0  0  0  0  0  0
   57.5210   26.5190   46.3510 C   0  0  0  0  0  0  0  0  0  0  0  0
   56.1340   26.0090   46.4040 C   0  0  0  0  0  0  0  0  0  0  0  0
   55.1780   26.7200   45.9910 O   0  0  0  0  0  0  0  0  0  0  0  0
   55.8570   24.7610   46.9500 O   0  0  0  0  0  0  0  0  0  0  0  0
   57.3240   30.6870   45.1180 C   0  0  0  0  0  0  0  0  0  0  0  0
   58.2480   30.6780   46.1760 C   0  0  0  0  0  0  0  0  0  0  0  0
   59.0100   31.8140   46.4580 C   0  0  0  0  0  0  0  0  0  0  0  0
   58.8650   32.9710   45.6810 C   0  0  0  0  0  0  0  0  0  0  0  0
   59.7380   34.4450   46.0960 S   0  0  0  0  0  0  0  0  0  0  0  0
   61.2200   34.1910   46.0620 O   0  0  0  0  0  0  0  0  0  0  0  0
   59.4170   35.4990   45.0730 O   0  0  0  0  0  0  0  0  0  0  0  0
   59.2950   35.0270   47.6780 N   0  0  0  0  0  0  0  0  0  0  0  0
   60.2460   34.5900   48.7060 C   0  0  0  0  0  0  0  0  0  0  0  0
   59.6980   33.4470   49.5040 C   0  0  0  0  0  0  0  0  0  0  0  0
   60.3230   32.8360   50.5710 C   0  0  0  0  0  0  0  0  0  0  0  0
   59.4590   31.8490   50.9910 C   0  0  0  0  0  0  0  0  0  0  0  0
   58.3640   31.9160   50.1520 C   0  0  0  0  0  0  0  0  0  0  0  0
   58.5360   32.8790   49.2750 O   0  0  0  0  0  0  0  0  0  0  0  0
   57.9780   32.9700   44.5990 C   0  0  0  0  0  0  0  0  0  0  0  0
   57.2160   31.8330   44.3140 C   0  0  0  0  0  0  0  0  0  0  0  0
   59.6201   28.5614   44.5536 H   0  0  0  0  0  0  0  0  0  0  0  0
   61.2904   27.5424   46.0937 H   0  0  0  0  0  0  0  0  0  0  0  0
   60.5578   25.9063   47.8261 H   0  0  0  0  0  0  0  0  0  0  0  0
   58.1691   25.2238   47.9719 H   0  0  0  0  0  0  0  0  0  0  0  0
   58.3721   29.7710   46.7859 H   0  0  0  0  0  0  0  0  0  0  0  0
   59.7263   31.8004   47.2927 H   0  0  0  0  0  0  0  0  0  0  0  0
   58.3680   34.6000   47.9080 H   0  0  0  0  0  0  0  0  0  0  0  0
   61.1793   34.2717   48.2186 H   0  0  0  0  0  0  0  0  0  0  0  0
   60.4310   35.4326   49.3884 H   0  0  0  0  0  0  0  0  0  0  0  0
   61.3060   33.0849   50.9974 H   0  0  0  0  0  0  0  0  0  0  0  0
   59.6105   31.1489   51.8259 H   0  0  0  0  0  0  0  0  0  0  0  0
   57.4814   31.2620   50.2094 H   0  0  0  0  0  0  0  0  0  0  0  0
   57.8798   33.8672   43.9702 H   0  0  0  0  0  0  0  0  0  0  0  0
   56.5283   31.8363   43.4555 H   0  0  0  0  0  0  0  0  0  0  0  0
  1  2  2  0
  2  3  1  0
  3  4  1  0
  4  5  2  0
  5  6  1  0
  6  7  2  0
  7  8  1  0
  8  9  2  0
  9 10  1  0
 10 11  2  0
 10 12  1  0
  2 13  1  0
 13 14  2  0
 14 15  1  0
 15 16  2  0
 16 17  1  0
 17 18  2  0
 17 19  2  0
 17 20  1  0
 20 21  1  0
 21 22  1  0
 22 23  2  0
 23 24  1  0
 24 25  2  0
 25 26  1  0
 16 27  1  0
 27 28  2  0
  9  4  1  0
 28 13  1  0
 26 22  1  0
  5 29  1  0
  6 30  1  0
  7 31  1  0
  8 32  1  0
 14 33  1  0
 15 34  1  0
 20 35  1  0
 21 36  1  0
 21 37  1  0
 23 38  1  0
 24 39  1  0
 25 40  1  0
 27 41  1  0
 28 42  1  0
M  CHG  2   3  -1  12  -1
M  END
>  <UniqueID>  (91) 
82

>  <SMILES>  (91) 
O=C([N-]c1ccccc1C(=O)[O-])c1ccc(S(=O)(=O)NCc2ccco2)cc1

>  <Energy>  (91) 
78.70083580217755

>  <Genealogy>  (91) 
O=C([N-]c1ccccc1C(=O)[O-])c1ccc(S(=O)(=O)NCc2ccco2)cc1 (protonated)
O=C([N-]c1ccccc1C(=O)[O-])c1ccc(S(=O)(=O)NCc2ccco2)cc1 (3D coordinates assigned)
O=C([N-]c1ccccc1C(=O)[O-])c1ccc(S(=O)(=O)NCc2ccco2)cc1 (optimized conformer: 78.70083580217755 kcal/mol)

>  <smiles>  (91) 
O=C(Nc1ccccc1C(=O)O)c1ccc(S(=O)(=O)NCc2ccco2)cc1

>  <score_type>  (91) 
oracle

>  <origin>  (91) 
adg

>  <m_score__min__energy>  (91) 
-13.279999999999999

>  <m_primary>  (91) 
energy

$$$$
92:0
     RDKit          3D

 38 39  0  0  0  0  0  0  0  0999 V2000
   61.7631   26.9121   45.2293 H   0  0  0  0  0  0  0  0  0  0  0  0
   60.8790   27.4680   45.5750 C   0  0  0  0  0  0  0  0  0  0  0  0
   59.9980   26.7950   46.5590 C   0  0  0  0  0  0  0  0  0  0  0  0
   60.5320   26.3070   47.5910 O   0  0  0  0  0  0  0  0  0  0  0  0
   58.5240   26.7090   46.4040 C   0  0  0  0  0  0  0  0  0  0  0  0
   57.8430   25.5630   46.8440 C   0  0  0  0  0  0  0  0  0  0  0  0
   58.3994   24.7516   47.3359 H   0  0  0  0  0  0  0  0  0  0  0  0
   56.4640   25.4470   46.6610 C   0  0  0  0  0  0  0  0  0  0  0  0
   55.9399   24.5431   47.0049 H   0  0  0  0  0  0  0  0  0  0  0  0
   55.7470   26.4740   46.0430 C   0  0  0  0  0  0  0  0  0  0  0  0
   54.3760   26.3380   45.8540 O   0  0  0  0  0  0  0  0  0  0  0  0
   56.4030   27.6350   45.6130 C   0  0  0  0  0  0  0  0  0  0  0  0
   55.6460   28.6390   44.9890 O   0  0  0  0  0  0  0  0  0  0  0  0
   56.1730   29.5970   44.0790 C   0  0  0  0  0  0  0  0  0  0  0  0
   56.6286   30.4252   44.6416 H   0  0  0  0  0  0  0  0  0  0  0  0
   56.9359   29.1204   43.4459 H   0  0  0  0  0  0  0  0  0  0  0  0
   55.3620   29.9862   43.4459 H   0  0  0  0  0  0  0  0  0  0  0  0
   57.7920   27.7560   45.8140 C   0  0  0  0  0  0  0  0  0  0  0  0
   58.3090   28.6771   45.5070 H   0  0  0  0  0  0  0  0  0  0  0  0
   60.6910   28.6980   45.0690 C   0  0  0  0  0  0  0  0  0  0  0  0
   60.9887   28.8684   44.0239 H   0  0  0  0  0  0  0  0  0  0  0  0
   60.1150   29.8390   45.8090 C   0  0  0  0  0  0  0  0  0  0  0  0
   60.5830   30.1950   47.0850 C   0  0  0  0  0  0  0  0  0  0  0  0
   61.3547   29.5841   47.5762 H   0  0  0  0  0  0  0  0  0  0  0  0
   60.0710   31.3230   47.7320 C   0  0  0  0  0  0  0  0  0  0  0  0
   60.4401   31.5951   48.7319 H   0  0  0  0  0  0  0  0  0  0  0  0
   59.0910   32.1080   47.1140 C   0  0  0  0  0  0  0  0  0  0  0  0
   58.6030   33.2730   47.7920 N   0  0  0  0  0  0  0  0  0  0  0  0
   59.2700   34.5390   47.8770 C   0  0  0  0  0  0  0  0  0  0  0  0
   59.6150   34.9720   49.0070 O   0  0  0  0  0  0  0  0  0  0  0  0
   59.6040   35.3430   46.6580 C   0  0  0  0  0  0  0  0  0  0  0  0
   60.0095   36.3192   46.9624 H   0  0  0  0  0  0  0  0  0  0  0  0
   60.3533   34.8055   46.0582 H   0  0  0  0  0  0  0  0  0  0  0  0
   58.6944   35.4947   46.0582 H   0  0  0  0  0  0  0  0  0  0  0  0
   58.5660   31.7070   45.8740 C   0  0  0  0  0  0  0  0  0  0  0  0
   57.7544   32.2856   45.4087 H   0  0  0  0  0  0  0  0  0  0  0  0
   59.0730   30.5740   45.2300 C   0  0  0  0  0  0  0  0  0  0  0  0
   58.6514   30.2586   44.2642 H   0  0  0  0  0  0  0  0  0  0  0  0
  1  2  1  0
  2  3  1  0
  3  4  2  0
  3  5  1  0
  5  6  2  0
  6  7  1  0
  6  8  1  0
  8  9  1  0
  8 10  2  0
 10 11  1  0
 10 12  1  0
 12 13  1  0
 13 14  1  0
 14 15  1  0
 14 16  1  0
 14 17  1  0
 12 18  2  0
 18 19  1  0
  2 20  2  0
 20 21  1  0
 20 22  1  0
 22 23  2  0
 23 24  1  0
 23 25  1  0
 25 26  1  0
 25 27  2  0
 27 28  1  0
 28 29  1  0
 29 30  2  0
 29 31  1  0
 31 32  1  0
 31 33  1  0
 31 34  1  0
 27 35  1  0
 35 36  1  0
 35 37  2  0
 37 38  1  0
 18  5  1  0
 37 22  1  0
M  CHG  2  11  -1  28  -1
M  END
>  <UniqueID>  (92) 
83

>  <SMILES>  (92) 
COc1cc(C(=O)/C=C\c2ccc([N-]C(C)=O)cc2)ccc1[O-]

>  <Energy>  (92) 
49.338522020441815

>  <Genealogy>  (92) 
COc1cc(C(=O)C=Cc2ccc([N-]C(C)=O)cc2)ccc1[O-] (protonated)
COc1cc(C(=O)/C=C\c2ccc([N-]C(C)=O)cc2)ccc1[O-] (cis-trans isomerization)
COc1cc(C(=O)/C=C\c2ccc([N-]C(C)=O)cc2)ccc1[O-] (3D coordinates assigned)
COc1cc(C(=O)/C=C\c2ccc([N-]C(C)=O)cc2)ccc1[O-] (optimized conformer: 49.338522020441815 kcal/mol)

>  <smiles>  (92) 
COc1cc(C(=O)C=Cc2ccc(NC(C)=O)cc2)ccc1O

>  <score_type>  (92) 
oracle

>  <origin>  (92) 
adg

>  <m_score__min__energy>  (92) 
-11.77

>  <m_primary>  (92) 
energy

$$$$
93:0
     RDKit          3D

 52 55  0  0  0  0  0  0  0  0999 V2000
   57.0090   33.7450   45.3760 C   0  0  0  0  0  0  0  0  0  0  0  0
   57.6060   32.4660   45.7320 N   0  0  0  0  0  0  0  0  0  0  0  0
   58.6770   32.2900   46.5280 C   0  0  0  0  0  0  0  0  0  0  0  0
   58.9710   30.9420   46.5500 C   0  0  0  0  0  0  0  0  0  0  0  0
   60.0340   30.2560   47.3100 C   0  0  0  0  0  0  0  0  0  0  0  0
   61.0980   29.9300   46.7210 O   0  0  0  0  0  0  0  0  0  0  0  0
   59.8680   29.8980   48.6870 N   0  0  0  0  0  0  0  0  0  0  0  0
   59.2410   30.7040   49.6950 C   0  0  0  0  0  0  0  0  0  0  0  0
   58.1460   30.2150   50.4300 C   0  0  0  0  0  0  0  0  0  0  0  0
   57.4920   31.0330   51.3610 C   0  0  0  0  0  0  0  0  0  0  0  0
   56.3310   30.5130   52.1050 C   0  0  0  0  0  0  0  0  0  0  0  0
   56.4980   29.5610   52.9120 O   0  0  0  0  0  0  0  0  0  0  0  0
   55.0070   31.0240   51.9000 N   0  0  0  0  0  0  0  0  0  0  0  0
   53.7660   30.3310   52.2410 C   0  0  0  0  0  0  0  0  0  0  0  0
   52.5770   31.1050   51.7580 C   0  0  0  0  0  0  0  0  0  0  0  0
   52.0930   31.1770   50.4720 C   0  0  0  0  0  0  0  0  0  0  0  0
   51.0350   32.0100   50.4510 N   0  0  0  0  0  0  0  0  0  0  0  0
   50.8350   32.4700   51.6780 N   0  0  0  0  0  0  0  0  0  0  0  0
   51.7610   31.9350   52.4950 C   0  0  0  0  0  0  0  0  0  0  0  0
   57.9470   32.3410   51.5720 C   0  0  0  0  0  0  0  0  0  0  0  0
   59.0220   32.8390   50.8330 C   0  0  0  0  0  0  0  0  0  0  0  0
   59.6690   32.0300   49.8900 C   0  0  0  0  0  0  0  0  0  0  0  0
   60.7800   32.5530   49.1480 N   0  0  0  0  0  0  0  0  0  0  0  0
   60.6590   33.8590   48.4910 C   0  0  0  0  0  0  0  0  0  0  0  0
   61.3880   33.8560   47.1370 C   0  0  0  0  0  0  0  0  0  0  0  0
   62.7250   33.0810   47.1470 C   0  0  0  0  0  0  0  0  0  0  0  0
   63.1860   32.6960   48.5560 C   0  0  0  0  0  0  0  0  0  0  0  0
   62.0920   31.8990   49.2740 C   0  0  0  0  0  0  0  0  0  0  0  0
   58.0200   30.3500   45.7370 C   0  0  0  0  0  0  0  0  0  0  0  0
   57.2080   31.3030   45.2400 N   0  0  0  0  0  0  0  0  0  0  0  0
   56.7513   34.2970   46.2919 H   0  0  0  0  0  0  0  0  0  0  0  0
   57.7261   34.3321   44.7835 H   0  0  0  0  0  0  0  0  0  0  0  0
   56.0984   33.5724   44.7835 H   0  0  0  0  0  0  0  0  0  0  0  0
   59.2213   33.0804   47.0656 H   0  0  0  0  0  0  0  0  0  0  0  0
   57.8004   29.1826   50.2728 H   0  0  0  0  0  0  0  0  0  0  0  0
   53.7659   29.3373   51.7692 H   0  0  0  0  0  0  0  0  0  0  0  0
   53.7042   30.2341   53.3350 H   0  0  0  0  0  0  0  0  0  0  0  0
   52.5032   30.6416   49.6030 H   0  0  0  0  0  0  0  0  0  0  0  0
   51.8515   32.1286   53.5740 H   0  0  0  0  0  0  0  0  0  0  0  0
   57.4558   32.9779   52.3224 H   0  0  0  0  0  0  0  0  0  0  0  0
   59.3628   33.8727   50.9923 H   0  0  0  0  0  0  0  0  0  0  0  0
   59.5947   34.0837   48.3276 H   0  0  0  0  0  0  0  0  0  0  0  0
   61.1157   34.6234   49.1368 H   0  0  0  0  0  0  0  0  0  0  0  0
   60.7264   33.3955   46.3885 H   0  0  0  0  0  0  0  0  0  0  0  0
   61.6280   34.9033   46.9014 H   0  0  0  0  0  0  0  0  0  0  0  0
   62.6011   32.1617   46.5558 H   0  0  0  0  0  0  0  0  0  0  0  0
   63.4919   33.7446   46.7209 H   0  0  0  0  0  0  0  0  0  0  0  0
   64.0955   32.0813   48.4850 H   0  0  0  0  0  0  0  0  0  0  0  0
   63.3944   33.6126   49.1273 H   0  0  0  0  0  0  0  0  0  0  0  0
   62.0342   30.8931   48.8327 H   0  0  0  0  0  0  0  0  0  0  0  0
   62.3494   31.8429   50.3420 H   0  0  0  0  0  0  0  0  0  0  0  0
   57.9400   29.2727   45.5297 H   0  0  0  0  0  0  0  0  0  0  0  0
  1  2  1  0
  2  3  1  0
  3  4  2  0
  4  5  1  0
  5  6  2  0
  5  7  1  0
  7  8  1  0
  8  9  2  0
  9 10  1  0
 10 11  1  0
 11 12  2  0
 11 13  1  0
 13 14  1  0
 14 15  1  0
 15 16  1  0
 16 17  2  0
 17 18  1  0
 18 19  1  0
 10 20  2  0
 20 21  1  0
 21 22  2  0
 22 23  1  0
 23 24  1  0
 24 25  1  0
 25 26  1  0
 26 27  1  0
 27 28  1  0
  4 29  1  0
 29 30  2  0
 30  2  1  0
 22  8  1  0
 28 23  1  0
 19 15  2  0
  1 31  1  0
  1 32  1  0
  1 33  1  0
  3 34  1  0
  9 35  1  0
 14 36  1  0
 14 37  1  0
 16 38  1  0
 19 39  1  0
 20 40  1  0
 21 41  1  0
 24 42  1  0
 24 43  1  0
 25 44  1  0
 25 45  1  0
 26 46  1  0
 26 47  1  0
 27 48  1  0
 27 49  1  0
 28 50  1  0
 28 51  1  0
 29 52  1  0
M  CHG  3   7  -1  13  -1  18  -1
M  END
>  <UniqueID>  (93) 
84

>  <SMILES>  (93) 
Cn1cc(C(=O)[N-]c2cc(C(=O)[N-]Cc3cn[n-]c3)ccc2N2CCCCC2)cn1

>  <Energy>  (93) 
124.97779121783019

>  <Genealogy>  (93) 
Cn1cc(C(=O)[N-]c2cc(C(=O)[N-]Cc3cn[n-]c3)ccc2N2CCCCC2)cn1 (protonated)
Cn1cc(C(=O)[N-]c2cc(C(=O)[N-]Cc3cn[n-]c3)ccc2N2CCCCC2)cn1 (3D coordinates assigned)
Cn1cc(C(=O)[N-]c2cc(C(=O)[N-]Cc3cn[n-]c3)ccc2N2CCCCC2)cn1 (nonaromatic ring conformer: 124.97779121783019 kcal/mol)

>  <smiles>  (93) 
Cn1cc(C(=O)Nc2cc(C(=O)NCc3cn[nH]c3)ccc2N2CCCCC2)cn1

>  <score_type>  (93) 
oracle

>  <origin>  (93) 
adg

>  <m_score__min__energy>  (93) 
-13.619999999999999

>  <m_primary>  (93) 
energy

$$$$
94:0
     RDKit          3D

 50 52  0  0  0  0  0  0  0  0999 V2000
   60.2550   29.8800   46.5080 C   0  0  0  0  0  0  0  0  0  0  0  0
   59.4640   30.8340   45.9940 C   0  0  0  0  0  0  0  0  0  0  0  0
   58.3880   30.6690   45.1020 C   0  0  0  0  0  0  0  0  0  0  0  0
   57.9200   29.5780   44.4640 C   0  0  0  0  0  0  0  0  0  0  0  0
   57.3860   28.3630   45.1070 C   0  0  0  0  0  0  0  0  0  0  0  0
   56.0030   28.1930   45.2590 C   0  0  0  0  0  0  0  0  0  0  0  0
   55.1190   29.1820   44.8420 O   0  0  0  0  0  0  0  0  0  0  0  0
   55.5170   27.0570   45.8210 N   0  0  0  0  0  0  0  0  0  0  0  0
   56.3490   26.0630   46.2250 C   0  0  0  0  0  0  0  0  0  0  0  0
   55.8760   25.0220   46.7480 O   0  0  0  0  0  0  0  0  0  0  0  0
   57.6900   26.1890   46.0590 N   0  0  0  0  0  0  0  0  0  0  0  0
   58.2260   27.3060   45.5020 C   0  0  0  0  0  0  0  0  0  0  0  0
   59.4740   27.3820   45.3440 O   0  0  0  0  0  0  0  0  0  0  0  0
   57.8180   31.9220   44.9480 C   0  0  0  0  0  0  0  0  0  0  0  0
   58.5620   32.8000   45.7050 C   0  0  0  0  0  0  0  0  0  0  0  0
   58.2950   34.2700   45.8220 C   0  0  0  0  0  0  0  0  0  0  0  0
   59.5650   32.1480   46.3320 N   0  0  0  0  0  0  0  0  0  0  0  0
   60.4850   32.7420   47.2660 C   0  0  0  0  0  0  0  0  0  0  0  0
   61.7150   33.2420   46.8120 C   0  0  0  0  0  0  0  0  0  0  0  0
   62.6110   33.8250   47.7090 C   0  0  0  0  0  0  0  0  0  0  0  0
   62.2860   33.9170   49.0630 C   0  0  0  0  0  0  0  0  0  0  0  0
   61.0610   33.4280   49.5260 C   0  0  0  0  0  0  0  0  0  0  0  0
   60.1490   32.8400   48.6290 C   0  0  0  0  0  0  0  0  0  0  0  0
   58.9050   32.3430   49.0450 O   0  0  0  0  0  0  0  0  0  0  0  0
   58.5600   32.0450   50.3950 C   0  0  0  0  0  0  0  0  0  0  0  0
   58.1610   30.5710   50.5010 C   0  0  0  0  0  0  0  0  0  0  0  0
   57.0350   30.3890   51.4440 N   0  0  0  0  0  0  0  0  0  0  0  0
   57.3990   29.4760   52.5400 C   0  0  0  0  0  0  0  0  0  0  0  0
   56.6290   31.6880   52.0030 C   0  0  0  0  0  0  0  0  0  0  0  0
   61.0660   30.1516   47.1997 H   0  0  0  0  0  0  0  0  0  0  0  0
   60.0925   28.8262   46.2377 H   0  0  0  0  0  0  0  0  0  0  0  0
   57.9379   29.5954   43.3643 H   0  0  0  0  0  0  0  0  0  0  0  0
   56.9376   32.1692   44.3367 H   0  0  0  0  0  0  0  0  0  0  0  0
   58.2441   34.5500   46.8845 H   0  0  0  0  0  0  0  0  0  0  0  0
   59.1061   34.8300   45.3337 H   0  0  0  0  0  0  0  0  0  0  0  0
   57.3387   34.5090   45.3337 H   0  0  0  0  0  0  0  0  0  0  0  0
   61.9739   33.1741   45.7451 H   0  0  0  0  0  0  0  0  0  0  0  0
   63.5751   34.2127   47.3482 H   0  0  0  0  0  0  0  0  0  0  0  0
   62.9955   34.3754   49.7676 H   0  0  0  0  0  0  0  0  0  0  0  0
   60.8089   33.5028   50.5941 H   0  0  0  0  0  0  0  0  0  0  0  0
   59.4245   32.2396   51.0468 H   0  0  0  0  0  0  0  0  0  0  0  0
   57.7173   32.6786   50.7087 H   0  0  0  0  0  0  0  0  0  0  0  0
   57.8593   30.2084   49.5073 H   0  0  0  0  0  0  0  0  0  0  0  0
   59.0248   30.0018   50.8751 H   0  0  0  0  0  0  0  0  0  0  0  0
   57.2037   29.9658   53.5054 H   0  0  0  0  0  0  0  0  0  0  0  0
   56.7983   28.5574   52.4668 H   0  0  0  0  0  0  0  0  0  0  0  0
   58.4669   29.2226   52.4668 H   0  0  0  0  0  0  0  0  0  0  0  0
   56.6454   31.6356   53.1016 H   0  0  0  0  0  0  0  0  0  0  0  0
   57.3263   32.4677   51.6626 H   0  0  0  0  0  0  0  0  0  0  0  0
   55.6118   31.9318   51.6626 H   0  0  0  0  0  0  0  0  0  0  0  0
  1  2  2  0
  2  3  1  0
  3  4  2  3
  4  5  1  0
  5  6  2  0
  6  7  1  0
  6  8  1  0
  8  9  1  0
  9 10  2  0
  9 11  1  0
 11 12  1  0
 12 13  2  0
  3 14  1  0
 14 15  2  0
 15 16  1  0
 15 17  1  0
 17 18  1  0
 18 19  2  0
 19 20  1  0
 20 21  2  0
 21 22  1  0
 22 23  2  0
 23 24  1  0
 24 25  1  0
 25 26  1  0
 26 27  1  0
 27 28  1  0
 27 29  1  0
 17  2  1  0
 23 18  1  0
 12  5  1  0
  1 30  1  0
  1 31  1  0
  4 32  1  0
 14 33  1  0
 16 34  1  0
 16 35  1  0
 16 36  1  0
 19 37  1  0
 20 38  1  0
 21 39  1  0
 22 40  1  0
 25 41  1  0
 25 42  1  0
 26 43  1  0
 26 44  1  0
 28 45  1  0
 28 46  1  0
 28 47  1  0
 29 48  1  0
 29 49  1  0
 29 50  1  0
M  CHG  3   7  -1   8  -1  11  -1
M  END
>  <UniqueID>  (94) 
85

>  <SMILES>  (94) 
C=c1c(=Cc2c([O-])[n-]c(=O)[n-]c2=O)cc(C)n1-c1ccccc1OCCN(C)C

>  <Energy>  (94) 
96.6614398672026

>  <Genealogy>  (94) 
C=c1c(=Cc2c([O-])[n-]c(=O)[n-]c2=O)cc(C)n1-c1ccccc1OCCN(C)C (protonated)
C=c1c(=Cc2c([O-])[n-]c(=O)[n-]c2=O)cc(C)n1-c1ccccc1OCCN(C)C (3D coordinates assigned)
C=c1c(=Cc2c([O-])[n-]c(=O)[n-]c2=O)cc(C)n1-c1ccccc1OCCN(C)C (optimized conformer: 96.6614398672026 kcal/mol)

>  <smiles>  (94) 
C=c1c(=Cc2c(O)[nH]c(=O)[nH]c2=O)cc(C)n1-c1ccccc1OCCN(C)C

>  <score_type>  (94) 
oracle

>  <origin>  (94) 
adg

>  <m_score__min__energy>  (94) 
-15.699999999999999

>  <m_primary>  (94) 
energy

$$$$
95:0
     RDKit          3D

 40 41  0  0  0  0  0  0  0  0999 V2000
   57.6051   28.3727   46.7210 H   0  0  0  0  0  0  0  0  0  0  0  0
   57.3310   28.4560   45.6590 C   0  0  0  0  0  0  0  0  0  0  0  0
   56.8890   29.7860   45.1700 C   0  0  0  0  0  0  0  0  0  0  0  0
   55.7750   29.9110   44.5920 O   0  0  0  0  0  0  0  0  0  0  0  0
   57.7560   30.9800   45.3170 C   0  0  0  0  0  0  0  0  0  0  0  0
   57.6990   32.0180   44.3770 C   0  0  0  0  0  0  0  0  0  0  0  0
   57.0180   31.9363   43.5170 H   0  0  0  0  0  0  0  0  0  0  0  0
   58.4960   33.1530   44.5200 C   0  0  0  0  0  0  0  0  0  0  0  0
   58.4382   33.9576   43.7721 H   0  0  0  0  0  0  0  0  0  0  0  0
   59.3730   33.2780   45.6120 C   0  0  0  0  0  0  0  0  0  0  0  0
   60.1760   34.4190   45.7830 O   0  0  0  0  0  0  0  0  0  0  0  0
   59.6800   35.7340   46.0070 C   0  0  0  0  0  0  0  0  0  0  0  0
   59.6098   35.9201   47.0889 H   0  0  0  0  0  0  0  0  0  0  0  0
   60.3638   36.4661   45.5526 H   0  0  0  0  0  0  0  0  0  0  0  0
   58.6831   35.8322   45.5526 H   0  0  0  0  0  0  0  0  0  0  0  0
   59.4470   32.2380   46.5630 C   0  0  0  0  0  0  0  0  0  0  0  0
   60.3620   32.3610   47.7640 C   0  0  0  0  0  0  0  0  0  0  0  0
   60.2414   33.3624   48.2029 H   0  0  0  0  0  0  0  0  0  0  0  0
   60.0868   31.5781   48.4861 H   0  0  0  0  0  0  0  0  0  0  0  0
   61.8320   32.1610   47.3800 C   0  0  0  0  0  0  0  0  0  0  0  0
   62.2908   31.4422   48.0749 H   0  0  0  0  0  0  0  0  0  0  0  0
   61.8764   31.7816   46.3484 H   0  0  0  0  0  0  0  0  0  0  0  0
   62.5650   33.4210   47.4440 N   0  0  0  0  0  0  0  0  0  0  0  0
   62.3810   34.2060   48.3970 O   0  0  0  0  0  0  0  0  0  0  0  0
   63.3390   33.8190   46.3800 O   0  0  0  0  0  0  0  0  0  0  0  0
   58.6290   31.0980   46.4160 C   0  0  0  0  0  0  0  0  0  0  0  0
   58.6970   30.0740   47.3590 O   0  0  0  0  0  0  0  0  0  0  0  0
   57.4230   27.3460   44.9080 C   0  0  0  0  0  0  0  0  0  0  0  0
   57.7680   27.4652   43.8703 H   0  0  0  0  0  0  0  0  0  0  0  0
   57.0980   25.9760   45.3630 C   0  0  0  0  0  0  0  0  0  0  0  0
   58.0250   24.9300   45.2060 C   0  0  0  0  0  0  0  0  0  0  0  0
   59.0158   25.1367   44.7753 H   0  0  0  0  0  0  0  0  0  0  0  0
   57.6930   23.6280   45.5950 C   0  0  0  0  0  0  0  0  0  0  0  0
   58.4291   22.8177   45.4872 H   0  0  0  0  0  0  0  0  0  0  0  0
   56.4280   23.3560   46.1200 C   0  0  0  0  0  0  0  0  0  0  0  0
   56.1696   22.3326   46.4297 H   0  0  0  0  0  0  0  0  0  0  0  0
   55.4900   24.3840   46.2520 C   0  0  0  0  0  0  0  0  0  0  0  0
   54.4916   24.1662   46.6591 H   0  0  0  0  0  0  0  0  0  0  0  0
   55.8170   25.6890   45.8680 C   0  0  0  0  0  0  0  0  0  0  0  0
   54.8670   26.6970   46.0000 O   0  0  0  0  0  0  0  0  0  0  0  0
  1  2  1  0
  2  3  1  0
  3  4  2  0
  3  5  1  0
  5  6  2  0
  6  7  1  0
  6  8  1  0
  8  9  1  0
  8 10  2  0
 10 11  1  0
 11 12  1  0
 12 13  1  0
 12 14  1  0
 12 15  1  0
 10 16  1  0
 16 17  1  0
 17 18  1  0
 17 19  1  0
 17 20  1  0
 20 21  1  0
 20 22  1  0
 20 23  1  0
 23 24  2  0
 23 25  1  0
 16 26  2  0
 26 27  1  0
  2 28  2  0
 28 29  1  0
 28 30  1  0
 30 31  2  0
 31 32  1  0
 31 33  1  0
 33 34  1  0
 33 35  2  0
 35 36  1  0
 35 37  1  0
 37 38  1  0
 37 39  2  0
 39 40  1  0
 26  5  1  0
 39 30  1  0
M  CHG  4  23   1  25  -1  27  -1  40  -1
M  END
>  <UniqueID>  (95) 
86

>  <SMILES>  (95) 
COc1ccc(C(=O)/C=C\c2ccccc2[O-])c([O-])c1CC[N+](=O)[O-]

>  <Energy>  (95) 
51.24186664401498

>  <Genealogy>  (95) 
COc1ccc(C(=O)C=Cc2ccccc2[O-])c([O-])c1CC[N+](=O)[O-] (protonated)
COc1ccc(C(=O)/C=C\c2ccccc2[O-])c([O-])c1CC[N+](=O)[O-] (cis-trans isomerization)
COc1ccc(C(=O)/C=C\c2ccccc2[O-])c([O-])c1CC[N+](=O)[O-] (3D coordinates assigned)
COc1ccc(C(=O)/C=C\c2ccccc2[O-])c([O-])c1CC[N+](=O)[O-] (optimized conformer: 51.24186664401498 kcal/mol)

>  <smiles>  (95) 
COc1ccc(C(=O)C=Cc2ccccc2O)c(O)c1CC[N+](=O)[O-]

>  <score_type>  (95) 
oracle

>  <origin>  (95) 
adg

>  <m_score__min__energy>  (95) 
-13.380000000000001

>  <m_primary>  (95) 
energy

$$$$
96:0
     RDKit          3D

 55 58  0  0  0  0  0  0  0  0999 V2000
   58.5130   27.4870   42.9980 O   0  0  0  0  0  0  0  0  0  0  0  0
   58.5290   27.2730   44.2390 C   0  0  0  0  0  0  0  0  0  0  0  0
   59.5550   27.9580   45.1090 C   0  0  2  0  0  0  0  0  0  0  0  0
   60.2680   26.9570   46.0240 C   0  0  0  0  0  0  0  0  0  0  0  0
   60.3000   27.5980   47.4090 C   0  0  0  0  0  0  0  0  0  0  0  0
   59.2420   28.6960   47.3980 C   0  0  0  0  0  0  0  0  0  0  0  0
   58.9280   28.9290   46.0000 N   0  0  0  0  0  0  0  0  0  0  0  0
   58.1410   30.0450   45.5310 C   0  0  0  0  0  0  0  0  0  0  0  0
   56.8980   29.9010   45.3630 O   0  0  0  0  0  0  0  0  0  0  0  0
   58.7810   31.3700   45.1780 C   0  0  1  0  0  0  0  0  0  0  0  0
   58.0020   32.0630   44.0310 C   0  0  0  0  0  0  0  0  0  0  0  0
   57.6670   33.4870   44.5030 C   0  0  0  0  0  0  0  0  0  0  0  0
   58.1500   33.5150   45.8950 C   0  0  0  0  0  0  0  0  0  0  0  0
   58.0180   34.5070   46.6630 O   0  0  0  0  0  0  0  0  0  0  0  0
   58.7540   32.3020   46.3020 N   0  0  0  0  0  0  0  0  0  0  0  0
   59.5520   32.1190   47.5240 C   0  0  0  0  0  0  0  0  0  0  0  0
   61.0240   32.3760   47.2840 C   0  0  0  0  0  0  0  0  0  0  0  0
   61.9770   31.4070   47.6460 C   0  0  0  0  0  0  0  0  0  0  0  0
   63.3410   31.6580   47.4720 C   0  0  0  0  0  0  0  0  0  0  0  0
   63.7670   32.8810   46.9330 C   0  0  0  0  0  0  0  0  0  0  0  0
   62.8250   33.8460   46.5700 C   0  0  0  0  0  0  0  0  0  0  0  0
   61.4610   33.6020   46.7520 C   0  0  0  0  0  0  0  0  0  0  0  0
   57.5730   26.3710   44.8160 N   0  0  0  0  0  0  0  0  0  0  0  0
   56.6390   26.8410   45.8430 C   0  0  0  0  0  0  0  0  0  0  0  0
   56.2750   25.6730   46.7690 C   0  0  0  0  0  0  0  0  0  0  0  0
   55.8170   24.5600   46.0190 O   0  0  0  0  0  0  0  0  0  0  0  0
   56.8610   24.0620   45.2030 C   0  0  0  0  0  0  0  0  0  0  0  0
   57.2710   25.1000   44.1490 C   0  0  0  0  0  0  0  0  0  0  0  0
   60.2604   28.4419   44.4174 H   0  0  0  0  0  0  0  0  0  0  0  0
   59.7142   26.0071   46.0556 H   0  0  0  0  0  0  0  0  0  0  0  0
   61.2820   26.7327   45.6614 H   0  0  0  0  0  0  0  0  0  0  0  0
   60.0643   26.8499   48.1803 H   0  0  0  0  0  0  0  0  0  0  0  0
   61.2959   28.0052   47.6377 H   0  0  0  0  0  0  0  0  0  0  0  0
   58.3443   28.3683   47.9427 H   0  0  0  0  0  0  0  0  0  0  0  0
   59.6034   29.6112   47.8897 H   0  0  0  0  0  0  0  0  0  0  0  0
   59.8172   31.1399   44.8893 H   0  0  0  0  0  0  0  0  0  0  0  0
   58.6234   32.1032   43.1242 H   0  0  0  0  0  0  0  0  0  0  0  0
   57.0845   31.5059   43.7905 H   0  0  0  0  0  0  0  0  0  0  0  0
   58.1900   34.2366   43.8909 H   0  0  0  0  0  0  0  0  0  0  0  0
   56.5962   33.7240   44.4180 H   0  0  0  0  0  0  0  0  0  0  0  0
   59.1902   32.8180   48.2924 H   0  0  0  0  0  0  0  0  0  0  0  0
   59.4384   31.0748   47.8506 H   0  0  0  0  0  0  0  0  0  0  0  0
   61.6471   30.4464   48.0684 H   0  0  0  0  0  0  0  0  0  0  0  0
   64.0809   30.8959   47.7579 H   0  0  0  0  0  0  0  0  0  0  0  0
   64.8403   33.0795   46.7966 H   0  0  0  0  0  0  0  0  0  0  0  0
   63.1579   34.8018   46.1392 H   0  0  0  0  0  0  0  0  0  0  0  0
   60.7257   34.3728   46.4777 H   0  0  0  0  0  0  0  0  0  0  0  0
   57.1112   27.6423   46.4303 H   0  0  0  0  0  0  0  0  0  0  0  0
   55.7283   27.2291   45.3635 H   0  0  0  0  0  0  0  0  0  0  0  0
   57.1647   25.3784   47.3448 H   0  0  0  0  0  0  0  0  0  0  0  0
   55.4709   25.9970   47.4461 H   0  0  0  0  0  0  0  0  0  0  0  0
   57.7305   23.8258   45.8340 H   0  0  0  0  0  0  0  0  0  0  0  0
   56.5051   23.1577   44.6877 H   0  0  0  0  0  0  0  0  0  0  0  0
   58.1627   24.7458   43.6111 H   0  0  0  0  0  0  0  0  0  0  0  0
   56.4485   25.2446   43.4331 H   0  0  0  0  0  0  0  0  0  0  0  0
  1  2  2  0
  2  3  1  0
  3  4  1  0
  4  5  1  0
  5  6  1  0
  6  7  1  0
  7  8  1  0
  8  9  2  0
  8 10  1  0
 10 11  1  0
 11 12  1  0
 12 13  1  0
 13 14  2  0
 13 15  1  0
 15 16  1  0
 16 17  1  0
 17 18  2  0
 18 19  1  0
 19 20  2  0
 20 21  1  0
 21 22  2  0
  2 23  1  0
 23 24  1  0
 24 25  1  0
 25 26  1  0
 26 27  1  0
 27 28  1  0
  7  3  1  0
 15 10  1  0
 22 17  1  0
 28 23  1  0
  3 29  1  6
  4 30  1  0
  4 31  1  0
  5 32  1  0
  5 33  1  0
  6 34  1  0
  6 35  1  0
 10 36  1  6
 11 37  1  0
 11 38  1  0
 12 39  1  0
 12 40  1  0
 16 41  1  0
 16 42  1  0
 18 43  1  0
 19 44  1  0
 20 45  1  0
 21 46  1  0
 22 47  1  0
 24 48  1  0
 24 49  1  0
 25 50  1  0
 25 51  1  0
 27 52  1  0
 27 53  1  0
 28 54  1  0
 28 55  1  0
M  END
>  <UniqueID>  (96) 
87

>  <SMILES>  (96) 
O=C([C@@H]1CCCN1C(=O)[C@H]1CCC(=O)N1Cc1ccccc1)N1CCOCC1

>  <Energy>  (96) 
65.94117640250902

>  <Genealogy>  (96) 
O=C([C@@H]1CCCN1C(=O)[C@H]1CCC(=O)N1Cc1ccccc1)N1CCOCC1 (chirality)
O=C([C@@H]1CCCN1C(=O)[C@H]1CCC(=O)N1Cc1ccccc1)N1CCOCC1 (3D coordinates assigned)
O=C([C@@H]1CCCN1C(=O)[C@H]1CCC(=O)N1Cc1ccccc1)N1CCOCC1 (nonaromatic ring conformer: 65.94117640250902 kcal/mol)

>  <smiles>  (96) 
O=C(C1CCCN1C(=O)C1CCC(=O)N1Cc1ccccc1)N1CCOCC1

>  <score_type>  (96) 
oracle

>  <origin>  (96) 
adg

>  <m_score__min__energy>  (96) 
-9.4800000000000004

>  <m_primary>  (96) 
energy

$$$$
