0:0
     RDKit          3D

 61 64  0  0  0  0  0  0  0  0999 V2000
   57.0270   20.9010   48.7940 C   0  0  0  0  0  0  0  0  0  0  0  0
   56.5600   21.7640   47.6980 N   0  0  0  0  0  0  0  0  0  0  0  0
   55.7080   21.0100   46.7380 C   0  0  0  0  0  0  0  0  0  0  0  0
   54.2110   21.3090   46.9070 C   0  0  0  0  0  0  0  0  0  0  0  0
   53.9120   22.8180   46.6900 C   0  0  0  0  0  0  0  0  0  0  0  0
   53.5820   23.1570   45.2400 C   0  0  0  0  0  0  0  0  0  0  0  0
   52.3890   23.0810   44.8380 O   0  0  0  0  0  0  0  0  0  0  0  0
   54.6010   23.4340   44.2630 N   0  0  0  0  0  0  0  0  0  0  0  0
   55.7810   22.8990   44.1460 C   0  0  0  0  0  0  0  0  0  0  0  0
   56.8660   23.4970   44.7990 C   0  0  0  0  0  0  0  0  0  0  0  0
   58.1480   22.9340   44.6810 C   0  0  0  0  0  0  0  0  0  0  0  0
   59.2670   23.5040   45.3070 O   0  0  0  0  0  0  0  0  0  0  0  0
   59.2710   24.7260   45.9970 C   0  0  0  0  0  0  0  0  0  0  0  0
   58.1460   25.0760   46.7510 C   0  0  0  0  0  0  0  0  0  0  0  0
   58.1180   26.2780   47.4640 C   0  0  0  0  0  0  0  0  0  0  0  0
   59.2160   27.1490   47.4320 C   0  0  0  0  0  0  0  0  0  0  0  0
   59.1740   28.3630   48.2000 N   0  0  0  0  0  0  0  0  0  0  0  0
   58.5820   29.5900   47.7370 C   0  0  0  0  0  0  0  0  0  0  0  0
   58.0430   29.6520   46.6010 O   0  0  0  0  0  0  0  0  0  0  0  0
   58.6220   30.7730   48.5430 N   0  0  0  0  0  0  0  0  0  0  0  0
   58.9050   32.1000   48.0740 C   0  0  0  0  0  0  0  0  0  0  0  0
   59.5980   33.0240   48.8720 C   0  0  0  0  0  0  0  0  0  0  0  0
   59.8330   34.3180   48.4010 C   0  0  0  0  0  0  0  0  0  0  0  0
   59.3680   34.7060   47.1410 C   0  0  0  0  0  0  0  0  0  0  0  0
   59.6150   35.9670   46.7040 F   0  0  0  0  0  0  0  0  0  0  0  0
   58.6450   33.8000   46.3410 C   0  0  0  0  0  0  0  0  0  0  0  0
   58.1500   34.2320   44.9810 C   0  0  0  0  0  0  0  0  0  0  0  0
   58.2980   33.1920   44.0820 F   0  0  0  0  0  0  0  0  0  0  0  0
   56.8130   34.5670   45.0660 F   0  0  0  0  0  0  0  0  0  0  0  0
   58.8510   35.3270   44.5030 F   0  0  0  0  0  0  0  0  0  0  0  0
   58.4120   32.4980   46.8240 C   0  0  0  0  0  0  0  0  0  0  0  0
   60.3630   26.7780   46.7090 C   0  0  0  0  0  0  0  0  0  0  0  0
   60.3900   25.5770   45.9970 C   0  0  0  0  0  0  0  0  0  0  0  0
   58.3080   21.7520   43.9560 C   0  0  0  0  0  0  0  0  0  0  0  0
   57.2030   21.1740   43.3300 C   0  0  0  0  0  0  0  0  0  0  0  0
   55.9790   21.7540   43.4360 N   0  0  0  0  0  0  0  0  0  0  0  0
   55.0870   23.7040   47.1810 C   0  0  0  0  0  0  0  0  0  0  0  0
   55.9290   22.9890   48.2430 C   0  0  0  0  0  0  0  0  0  0  0  0
   56.7757   21.3654   49.7589 H   0  0  0  0  0  0  0  0  0  0  0  0
   56.5374   19.9187   48.7213 H   0  0  0  0  0  0  0  0  0  0  0  0
   58.1172   20.7736   48.7213 H   0  0  0  0  0  0  0  0  0  0  0  0
   56.0070   21.2814   45.7148 H   0  0  0  0  0  0  0  0  0  0  0  0
   55.8555   19.9381   46.9362 H   0  0  0  0  0  0  0  0  0  0  0  0
   53.6423   20.7211   46.1715 H   0  0  0  0  0  0  0  0  0  0  0  0
   53.9151   21.0389   47.9314 H   0  0  0  0  0  0  0  0  0  0  0  0
   53.0178   23.0349   47.2928 H   0  0  0  0  0  0  0  0  0  0  0  0
   56.7151   24.4044   45.4022 H   0  0  0  0  0  0  0  0  0  0  0  0
   57.2779   24.4011   46.7831 H   0  0  0  0  0  0  0  0  0  0  0  0
   57.2282   26.5423   48.0543 H   0  0  0  0  0  0  0  0  0  0  0  0
   59.5660   28.3280   49.1690 H   0  0  0  0  0  0  0  0  0  0  0  0
   59.9563   32.7288   49.8692 H   0  0  0  0  0  0  0  0  0  0  0  0
   60.3867   35.0352   49.0247 H   0  0  0  0  0  0  0  0  0  0  0  0
   57.8370   31.7859   46.2138 H   0  0  0  0  0  0  0  0  0  0  0  0
   61.2437   27.4370   46.7041 H   0  0  0  0  0  0  0  0  0  0  0  0
   61.2916   25.2954   45.4332 H   0  0  0  0  0  0  0  0  0  0  0  0
   59.2983   21.2795   43.8787 H   0  0  0  0  0  0  0  0  0  0  0  0
   57.3231   20.2472   42.7497 H   0  0  0  0  0  0  0  0  0  0  0  0
   55.7298   23.9515   46.3233 H   0  0  0  0  0  0  0  0  0  0  0  0
   54.6655   24.6142   47.6325 H   0  0  0  0  0  0  0  0  0  0  0  0
   56.7169   23.6715   48.5942 H   0  0  0  0  0  0  0  0  0  0  0  0
   55.2667   22.6980   49.0717 H   0  0  0  0  0  0  0  0  0  0  0  0
  1  2  1  0
  2  3  1  0
  3  4  1  0
  4  5  1  0
  5  6  1  0
  6  7  2  0
  6  8  1  0
  8  9  2  3
  9 10  1  0
 10 11  2  0
 11 12  1  0
 12 13  1  0
 13 14  2  0
 14 15  1  0
 15 16  2  0
 16 17  1  0
 17 18  1  0
 18 19  2  0
 18 20  1  0
 20 21  1  0
 21 22  2  0
 22 23  1  0
 23 24  2  0
 24 25  1  0
 24 26  1  0
 26 27  1  0
 27 28  1  0
 27 29  1  0
 27 30  1  0
 26 31  2  0
 16 32  1  0
 32 33  2  0
 11 34  1  0
 34 35  2  0
 35 36  1  0
  5 37  1  0
 37 38  1  0
 38  2  1  0
 36  9  1  0
 33 13  1  0
 31 21  1  0
  1 39  1  0
  1 40  1  0
  1 41  1  0
  3 42  1  0
  3 43  1  0
  4 44  1  0
  4 45  1  0
  5 46  1  0
 10 47  1  0
 14 48  1  0
 15 49  1  0
 17 50  1  0
 22 51  1  0
 23 52  1  0
 31 53  1  0
 32 54  1  0
 33 55  1  0
 34 56  1  0
 35 57  1  0
 37 58  1  0
 37 59  1  0
 38 60  1  0
 38 61  1  0
M  CHG  2  20  -1  36  -1
M  END
>  <UniqueID>  (1) 
1

>  <SMILES>  (1) 
CN1CCC(C(=O)N=c2cc(Oc3ccc(NC(=O)[N-]c4ccc(F)c(C(F)(F)F)c4)cc3)cc[n-]2)CC1

>  <Energy>  (1) 
96.06090101097303

>  <Genealogy>  (1) 
CN1CCC(C(=O)N=c2cc(Oc3ccc(NC(=O)[N-]c4ccc(F)c(C(F)(F)F)c4)cc3)cc[n-]2)CC1 (protonated)
CN1CCC(C(=O)N=c2cc(Oc3ccc(NC(=O)[N-]c4ccc(F)c(C(F)(F)F)c4)cc3)cc[n-]2)CC1 (3D coordinates assigned)
CN1CCC(C(=O)N=c2cc(Oc3ccc(NC(=O)[N-]c4ccc(F)c(C(F)(F)F)c4)cc3)cc[n-]2)CC1 (nonaromatic ring conformer: 96.06090101097303 kcal/mol)

>  <smiles>  (1) 
CN1CCC(C(=O)N=c2cc(Oc3ccc(NC(=O)Nc4ccc(F)c(C(F)(F)F)c4)cc3)cc[nH]2)CC1

>  <score_type>  (1) 
oracle

>  <origin>  (1) 
adg

>  <m_score__min__energy>  (1) 
-11.109999999999999

>  <m_primary>  (1) 
energy

$$$$
1:0
     RDKit          3D

 56 58  0  0  1  0  0  0  0  0999 V2000
   63.3620   31.6460   48.8170 C   0  0  0  0  0  0  0  0  0  0  0  0
   63.5010   32.0850   47.4460 N   0  0  0  0  0  0  0  0  0  0  0  0
   62.8870   33.6920   47.3000 S   0  0  0  0  0  0  0  0  0  0  0  0
   63.4090   34.2120   45.9740 O   0  0  0  0  0  0  0  0  0  0  0  0
   63.3580   34.5750   48.4010 O   0  0  0  0  0  0  0  0  0  0  0  0
   61.1610   33.7360   47.2230 C   0  0  0  0  0  0  0  0  0  0  0  0
   60.5180   34.3190   46.1410 C   0  0  0  0  0  0  0  0  0  0  0  0
   59.1360   34.3430   46.0980 C   0  0  0  0  0  0  0  0  0  0  0  0
   58.4170   33.7830   47.1450 C   0  0  0  0  0  0  0  0  0  0  0  0
   59.0420   33.1980   48.2330 C   0  0  0  0  0  0  0  0  0  0  0  0
   58.3660   32.6160   49.3170 N   0  0  0  0  0  0  0  0  0  0  0  0
   58.7600   31.4960   49.8010 C   0  0  0  0  0  0  0  0  0  0  0  0
   58.8000   31.2190   51.1410 C   0  0  0  0  0  0  0  0  0  0  0  0
   59.2440   29.9760   51.5430 C   0  0  0  0  0  0  0  0  0  0  0  0
   59.2910   29.6650   53.0070 C   0  0  0  0  0  0  0  0  0  0  0  0
   59.6400   29.0200   50.6810 N   0  0  0  0  0  0  0  0  0  0  0  0
   59.5800   29.3450   49.3670 C   0  0  0  0  0  0  0  0  0  0  0  0
   59.9370   28.4970   48.4630 N   0  0  0  0  0  0  0  0  0  0  0  0
   59.2720   28.3940   47.2090 C   0  0  0  0  0  0  0  0  0  0  0  0
   59.8360   29.1230   46.1620 C   0  0  0  0  0  0  0  0  0  0  0  0
   59.2860   29.1100   44.8970 C   0  0  0  0  0  0  0  0  0  0  0  0
   58.1540   28.3390   44.7210 C   0  0  0  0  0  0  0  0  0  0  0  0
   57.5460   28.2830   43.4520 O   0  0  0  0  0  0  0  0  0  0  0  0
   56.8500   29.4330   42.9650 C   0  0  0  0  0  0  0  0  0  0  0  0
   55.9330   29.9790   44.0100 C   0  0  0  0  0  0  0  0  0  0  0  0
   56.5220   30.8940   44.8670 O   0  0  0  0  0  0  0  0  0  0  0  0
   57.3910   31.7560   44.1990 C   0  0  0  0  0  0  0  0  0  0  0  0
   57.5720   27.6070   45.7350 C   0  0  0  0  0  0  0  0  0  0  0  0
   58.1400   27.6310   47.0120 C   0  0  0  0  0  0  0  0  0  0  0  0
   59.1530   30.5470   48.9390 N   0  0  0  0  0  0  0  0  0  0  0  0
   60.4330   33.1870   48.2500 C   0  0  0  0  0  0  0  0  0  0  0  0
   63.6235   32.4720   49.4948 H   0  0  0  0  0  0  0  0  0  0  0  0
   62.3221   31.3372   48.9995 H   0  0  0  0  0  0  0  0  0  0  0  0
   64.0346   30.7950   48.9995 H   0  0  0  0  0  0  0  0  0  0  0  0
   64.4950   32.0200   47.1640 H   0  0  0  0  0  0  0  0  0  0  0  0
   61.1044   34.7600   45.3214 H   0  0  0  0  0  0  0  0  0  0  0  0
   58.6131   34.8000   45.2449 H   0  0  0  0  0  0  0  0  0  0  0  0
   57.3178   33.8047   47.1092 H   0  0  0  0  0  0  0  0  0  0  0  0
   58.4854   31.9702   51.8804 H   0  0  0  0  0  0  0  0  0  0  0  0
   59.1510   30.5914   53.5833 H   0  0  0  0  0  0  0  0  0  0  0  0
   58.4902   28.9534   53.2566 H   0  0  0  0  0  0  0  0  0  0  0  0
   60.2663   29.2218   53.2566 H   0  0  0  0  0  0  0  0  0  0  0  0
   59.9750   28.0840   50.9550 H   0  0  0  0  0  0  0  0  0  0  0  0
   60.7396   29.7217   46.3493 H   0  0  0  0  0  0  0  0  0  0  0  0
   59.7272   29.6852   44.0696 H   0  0  0  0  0  0  0  0  0  0  0  0
   57.5812   30.2063   42.6869 H   0  0  0  0  0  0  0  0  0  0  0  0
   56.2523   29.1393   42.0895 H   0  0  0  0  0  0  0  0  0  0  0  0
   55.0910   30.4741   43.5041 H   0  0  0  0  0  0  0  0  0  0  0  0
   55.6195   29.1257   44.6293 H   0  0  0  0  0  0  0  0  0  0  0  0
   57.9722   32.3325   44.9337 H   0  0  0  0  0  0  0  0  0  0  0  0
   58.0757   31.1701   43.5682 H   0  0  0  0  0  0  0  0  0  0  0  0
   56.8106   32.4454   43.5682 H   0  0  0  0  0  0  0  0  0  0  0  0
   56.6690   27.0097   45.5404 H   0  0  0  0  0  0  0  0  0  0  0  0
   57.6958   27.0564   47.8382 H   0  0  0  0  0  0  0  0  0  0  0  0
   59.1250   30.7510   47.8980 H   0  0  0  0  0  0  0  0  0  0  0  0
   60.9592   32.7304   49.1013 H   0  0  0  0  0  0  0  0  0  0  0  0
  1  2  1  0
  2  3  1  0
  3  4  2  0
  3  5  2  0
  3  6  1  0
  6  7  2  0
  7  8  1  0
  8  9  2  0
  9 10  1  0
 10 11  1  0
 11 12  2  0
 12 13  1  0
 13 14  2  0
 14 15  1  0
 14 16  1  0
 16 17  1  0
 17 18  2  0
 18 19  1  0
 19 20  2  0
 20 21  1  0
 21 22  2  0
 22 23  1  0
 23 24  1  0
 24 25  1  0
 25 26  1  0
 26 27  1  0
 22 28  1  0
 28 29  2  0
 17 30  1  0
 10 31  2  0
 31  6  1  0
 30 12  1  0
 29 19  1  0
  1 32  1  0
  1 33  1  0
  1 34  1  0
  2 35  1  0
  7 36  1  0
  8 37  1  0
  9 38  1  0
 13 39  1  0
 15 40  1  0
 15 41  1  0
 15 42  1  0
 16 43  1  0
 20 44  1  0
 21 45  1  0
 24 46  1  0
 24 47  1  0
 25 48  1  0
 25 49  1  0
 27 50  1  0
 27 51  1  0
 27 52  1  0
 28 53  1  0
 29 54  1  0
 30 55  1  0
 31 56  1  0
M  END
>  <smiles>  (2) 
CNS(=O)(=O)c1cccc(N=c2cc(C)[nH]c(=Nc3ccc(OCCOC)cc3)[nH]2)c1

>  <score_type>  (2) 
oracle

>  <origin>  (2) 
adg

>  <m_score__min__energy>  (2) 
-8.8599999999999994

>  <m_primary>  (2) 
energy

$$$$
2:0
     RDKit          3D

 48 51  0  0  0  0  0  0  0  0999 V2000
   57.5750   31.8960   42.8050 C   0  0  0  0  0  0  0  0  0  0  0  0
   57.9230   31.7460   44.0880 C   0  0  0  0  0  0  0  0  0  0  0  0
   58.1910   32.8030   44.8870 N   0  0  0  0  0  0  0  0  0  0  0  0
   58.5050   32.2960   46.0890 C   0  0  0  0  0  0  0  0  0  0  0  0
   58.8370   33.0210   47.2320 C   0  0  0  0  0  0  0  0  0  0  0  0
   59.0960   32.3120   48.4210 C   0  0  0  0  0  0  0  0  0  0  0  0
   59.5360   33.0480   49.6540 C   0  0  0  0  0  0  0  0  0  0  0  0
   61.2780   33.4450   49.5720 S   0  0  0  0  0  0  0  0  0  0  0  0
   61.7270   33.8170   50.9590 O   0  0  0  0  0  0  0  0  0  0  0  0
   61.4710   34.6350   48.6710 O   0  0  0  0  0  0  0  0  0  0  0  0
   62.1890   32.0620   48.9820 N   0  0  0  0  0  0  0  0  0  0  0  0
   63.4920   31.9350   49.6630 C   0  0  0  0  0  0  0  0  0  0  0  0
   64.4770   33.0480   49.2340 C   0  0  0  0  0  0  0  0  0  0  0  0
   64.0960   33.7030   48.0370 O   0  0  0  0  0  0  0  0  0  0  0  0
   63.6790   32.7580   47.0770 C   0  0  0  0  0  0  0  0  0  0  0  0
   62.3560   32.0950   47.5080 C   0  0  0  0  0  0  0  0  0  0  0  0
   58.9950   30.9010   48.4330 C   0  0  0  0  0  0  0  0  0  0  0  0
   58.6550   30.1960   47.2660 C   0  0  0  0  0  0  0  0  0  0  0  0
   58.4440   30.9210   46.0860 C   0  0  0  0  0  0  0  0  0  0  0  0
   58.0870   30.5360   44.7880 C   0  0  0  0  0  0  0  0  0  0  0  0
   57.9270   29.2940   44.2840 C   0  0  0  0  0  0  0  0  0  0  0  0
   57.3930   28.1460   45.0390 C   0  0  0  0  0  0  0  0  0  0  0  0
   56.0190   28.0400   45.2910 C   0  0  0  0  0  0  0  0  0  0  0  0
   55.1440   29.0370   44.8770 O   0  0  0  0  0  0  0  0  0  0  0  0
   55.5320   26.9570   45.9520 N   0  0  0  0  0  0  0  0  0  0  0  0
   56.3560   25.9600   46.3670 C   0  0  0  0  0  0  0  0  0  0  0  0
   55.8840   24.9700   46.9820 O   0  0  0  0  0  0  0  0  0  0  0  0
   57.6880   26.0270   46.1120 N   0  0  0  0  0  0  0  0  0  0  0  0
   58.2230   27.0880   45.4530 C   0  0  0  0  0  0  0  0  0  0  0  0
   59.4610   27.1110   45.2200 O   0  0  0  0  0  0  0  0  0  0  0  0
   57.3643   31.0119   42.1853 H   0  0  0  0  0  0  0  0  0  0  0  0
   57.4996   32.9034   42.3697 H   0  0  0  0  0  0  0  0  0  0  0  0
   58.1560   33.8160   44.6310 H   0  0  0  0  0  0  0  0  0  0  0  0
   58.8953   34.1192   47.2061 H   0  0  0  0  0  0  0  0  0  0  0  0
   58.9580   33.9797   49.7429 H   0  0  0  0  0  0  0  0  0  0  0  0
   59.3629   32.4038   50.5287 H   0  0  0  0  0  0  0  0  0  0  0  0
   61.6280   31.2120   49.2260 H   0  0  0  0  0  0  0  0  0  0  0  0
   63.3334   31.9997   50.7496 H   0  0  0  0  0  0  0  0  0  0  0  0
   63.9300   30.9654   49.3837 H   0  0  0  0  0  0  0  0  0  0  0  0
   64.5311   33.7956   50.0391 H   0  0  0  0  0  0  0  0  0  0  0  0
   65.4492   32.5684   49.0476 H   0  0  0  0  0  0  0  0  0  0  0  0
   63.5321   33.2641   46.1115 H   0  0  0  0  0  0  0  0  0  0  0  0
   64.4519   31.9807   46.9852 H   0  0  0  0  0  0  0  0  0  0  0  0
   61.5197   32.6604   47.0711 H   0  0  0  0  0  0  0  0  0  0  0  0
   62.3723   31.0547   47.1508 H   0  0  0  0  0  0  0  0  0  0  0  0
   59.1847   30.3498   49.3659 H   0  0  0  0  0  0  0  0  0  0  0  0
   58.5568   29.1005   47.2787 H   0  0  0  0  0  0  0  0  0  0  0  0
   58.2155   29.1267   43.2358 H   0  0  0  0  0  0  0  0  0  0  0  0
  1  2  2  0
  2  3  1  0
  3  4  1  0
  4  5  2  0
  5  6  1  0
  6  7  1  0
  7  8  1  0
  8  9  2  0
  8 10  2  0
  8 11  1  0
 11 12  1  0
 12 13  1  0
 13 14  1  0
 14 15  1  0
 15 16  1  0
  6 17  2  0
 17 18  1  0
 18 19  2  0
 19 20  1  0
 20 21  2  3
 21 22  1  0
 22 23  2  0
 23 24  1  0
 23 25  1  0
 25 26  1  0
 26 27  2  0
 26 28  1  0
 28 29  1  0
 29 30  2  0
 20  2  1  0
 29 22  1  0
 19  4  1  0
 16 11  1  0
  1 31  1  0
  1 32  1  0
  3 33  1  0
  5 34  1  0
  7 35  1  0
  7 36  1  0
 11 37  1  0
 12 38  1  0
 12 39  1  0
 13 40  1  0
 13 41  1  0
 15 42  1  0
 15 43  1  0
 16 44  1  0
 16 45  1  0
 17 46  1  0
 18 47  1  0
 21 48  1  0
M  CHG  4  11   1  24  -1  25  -1  28  -1
M  END
>  <UniqueID>  (3) 
2

>  <SMILES>  (3) 
C=c1[nH]c2cc(CS(=O)(=O)[NH+]3CCOCC3)ccc2c1=Cc1c([O-])[n-]c(=O)[n-]c1=O

>  <Energy>  (3) 
104.24281570588563

>  <Genealogy>  (3) 
C=c1[nH]c2cc(CS(=O)(=O)[NH+]3CCOCC3)ccc2c1=Cc1c([O-])[n-]c(=O)[n-]c1=O (protonated)
C=c1[nH]c2cc(CS(=O)(=O)[NH+]3CCOCC3)ccc2c1=Cc1c([O-])[n-]c(=O)[n-]c1=O (3D coordinates assigned)
C=c1[nH]c2cc(CS(=O)(=O)[NH+]3CCOCC3)ccc2c1=Cc1c([O-])[n-]c(=O)[n-]c1=O (nonaromatic ring conformer: 104.24281570588563 kcal/mol)

>  <smiles>  (3) 
C=c1[nH]c2cc(CS(=O)(=O)N3CCOCC3)ccc2c1=Cc1c(O)[nH]c(=O)[nH]c1=O

>  <score_type>  (3) 
oracle

>  <origin>  (3) 
adg

>  <m_score__min__energy>  (3) 
-14.98

>  <m_primary>  (3) 
energy

$$$$
3:0
     RDKit          3D

 29 30  0  0  0  0  0  0  0  0999 V2000
   54.9160   21.1910   45.6630 C   0  0  0  0  0  0  0  0  0  0  0  0
   55.4760   22.4530   45.1620 N   0  0  0  0  0  0  0  0  0  0  0  0
   55.3850   23.5820   45.9310 C   0  0  0  0  0  0  0  0  0  0  0  0
   55.9230   24.8000   45.4820 C   0  0  0  0  0  0  0  0  0  0  0  0
   55.8600   26.0020   46.2660 N   0  0  0  0  0  0  0  0  0  0  0  0
   56.5560   27.2260   46.0070 C   0  0  0  0  0  0  0  0  0  0  0  0
   57.7250   27.4030   46.4410 O   0  0  0  0  0  0  0  0  0  0  0  0
   55.9000   28.2460   45.2440 N   0  0  0  0  0  0  0  0  0  0  0  0
   56.5210   29.3690   44.6020 C   0  0  0  0  0  0  0  0  0  0  0  0
   57.4820   30.1670   45.2530 C   0  0  0  0  0  0  0  0  0  0  0  0
   58.0440   31.2660   44.5970 C   0  0  0  0  0  0  0  0  0  0  0  0
   57.6460   31.5870   43.2970 C   0  0  0  0  0  0  0  0  0  0  0  0
   56.6750   30.8150   42.6540 C   0  0  0  0  0  0  0  0  0  0  0  0
   56.1090   29.7150   43.3070 C   0  0  0  0  0  0  0  0  0  0  0  0
   56.6000   24.8280   44.2620 C   0  0  0  0  0  0  0  0  0  0  0  0
   56.7000   23.6720   43.4930 C   0  0  0  0  0  0  0  0  0  0  0  0
   56.1320   22.4830   43.9570 C   0  0  0  0  0  0  0  0  0  0  0  0
   56.2350   21.4390   43.2550 O   0  0  0  0  0  0  0  0  0  0  0  0
   54.9197   21.1993   46.7630 H   0  0  0  0  0  0  0  0  0  0  0  0
   53.8835   21.0786   45.3006 H   0  0  0  0  0  0  0  0  0  0  0  0
   55.5254   20.3500   45.3006 H   0  0  0  0  0  0  0  0  0  0  0  0
   54.8858   23.5352   46.9101 H   0  0  0  0  0  0  0  0  0  0  0  0
   57.7911   29.9247   46.2805 H   0  0  0  0  0  0  0  0  0  0  0  0
   58.8018   31.8798   45.1059 H   0  0  0  0  0  0  0  0  0  0  0  0
   58.0967   32.4469   42.7799 H   0  0  0  0  0  0  0  0  0  0  0  0
   56.3554   31.0724   41.6334 H   0  0  0  0  0  0  0  0  0  0  0  0
   55.3359   29.1177   42.8015 H   0  0  0  0  0  0  0  0  0  0  0  0
   57.0551   25.7646   43.9076 H   0  0  0  0  0  0  0  0  0  0  0  0
   57.2232   23.6946   42.5257 H   0  0  0  0  0  0  0  0  0  0  0  0
  1  2  1  0
  2  3  1  0
  3  4  2  0
  4  5  1  0
  5  6  1  0
  6  7  2  0
  6  8  1  0
  8  9  1  0
  9 10  2  0
 10 11  1  0
 11 12  2  0
 12 13  1  0
 13 14  2  0
  4 15  1  0
 15 16  2  0
 16 17  1  0
 17 18  2  0
 17  2  1  0
 14  9  1  0
  1 19  1  0
  1 20  1  0
  1 21  1  0
  3 22  1  0
 10 23  1  0
 11 24  1  0
 12 25  1  0
 13 26  1  0
 14 27  1  0
 15 28  1  0
 16 29  1  0
M  CHG  2   5  -1   8  -1
M  END
>  <UniqueID>  (4) 
3

>  <SMILES>  (4) 
Cn1cc([N-]C(=O)[N-]c2ccccc2)ccc1=O

>  <Energy>  (4) 
38.563241912724436

>  <Genealogy>  (4) 
Cn1cc([N-]C(=O)[N-]c2ccccc2)ccc1=O (protonated)
Cn1cc([N-]C(=O)[N-]c2ccccc2)ccc1=O (3D coordinates assigned)
Cn1cc([N-]C(=O)[N-]c2ccccc2)ccc1=O (optimized conformer: 38.563241912724436 kcal/mol)

>  <smiles>  (4) 
Cn1cc(NC(=O)Nc2ccccc2)ccc1=O

>  <score_type>  (4) 
oracle

>  <origin>  (4) 
adg

>  <m_score__min__energy>  (4) 
-9.9900000000000002

>  <m_primary>  (4) 
energy

$$$$
4:0
     RDKit          3D

 38 39  0  0  0  0  0  0  0  0999 V2000
   57.5490   33.4490   45.0070 C   0  0  0  0  0  0  0  0  0  0  0  0
   58.6990   32.7890   45.7340 C   0  0  0  0  0  0  0  0  0  0  0  0
   59.6890   33.5760   46.3710 C   0  0  0  0  0  0  0  0  0  0  0  0
   59.6390   35.3380   46.3800 Cl  0  0  0  0  0  0  0  0  0  0  0  0
   60.7530   32.9620   47.0350 C   0  0  0  0  0  0  0  0  0  0  0  0
   60.8420   31.5750   47.0930 C   0  0  0  0  0  0  0  0  0  0  0  0
   59.8630   30.7850   46.4980 C   0  0  0  0  0  0  0  0  0  0  0  0
   58.7770   31.3710   45.8180 C   0  0  0  0  0  0  0  0  0  0  0  0
   57.7530   30.5380   45.2280 N   0  0  0  0  0  0  0  0  0  0  0  0
   57.6810   29.0820   45.3720 C   0  0  0  0  0  0  0  0  0  0  0  0
   56.2720   28.5620   45.2300 C   0  0  0  0  0  0  0  0  0  0  0  0
   55.4000   29.3220   44.7320 O   0  0  0  0  0  0  0  0  0  0  0  0
   55.8680   27.2570   45.6720 N   0  0  0  0  0  0  0  0  0  0  0  0
   56.6450   26.0530   45.6540 C   0  0  0  0  0  0  0  0  0  0  0  0
   57.8060   25.9880   46.4330 C   0  0  0  0  0  0  0  0  0  0  0  0
   58.5870   24.8290   46.4400 C   0  0  0  0  0  0  0  0  0  0  0  0
   58.2060   23.7230   45.6770 C   0  0  0  0  0  0  0  0  0  0  0  0
   57.0270   23.7650   44.9190 C   0  0  0  0  0  0  0  0  0  0  0  0
   56.5530   22.3920   43.9240 S   0  0  0  0  0  0  0  0  0  0  0  0
   55.5040   22.9350   42.6620 N   0  0  0  0  0  0  0  0  0  0  0  0
   55.8390   21.3770   44.7720 O   0  0  0  0  0  0  0  0  0  0  0  0
   57.7680   21.7470   43.3180 O   0  0  0  0  0  0  0  0  0  0  0  0
   56.2420   24.9240   44.9200 C   0  0  0  0  0  0  0  0  0  0  0  0
   56.8377   33.8572   45.7401 H   0  0  0  0  0  0  0  0  0  0  0  0
   57.9334   34.2639   44.3760 H   0  0  0  0  0  0  0  0  0  0  0  0
   57.0393   32.7060   44.3760 H   0  0  0  0  0  0  0  0  0  0  0  0
   61.5262   33.5795   47.5156 H   0  0  0  0  0  0  0  0  0  0  0  0
   61.6889   31.1012   47.6108 H   0  0  0  0  0  0  0  0  0  0  0  0
   59.9379   29.6893   46.5593 H   0  0  0  0  0  0  0  0  0  0  0  0
   56.9790   30.9800   44.6850 H   0  0  0  0  0  0  0  0  0  0  0  0
   58.3090   28.6183   44.5970 H   0  0  0  0  0  0  0  0  0  0  0  0
   58.0343   28.8256   46.3817 H   0  0  0  0  0  0  0  0  0  0  0  0
   58.1052   26.8533   47.0427 H   0  0  0  0  0  0  0  0  0  0  0  0
   59.5032   24.7878   47.0474 H   0  0  0  0  0  0  0  0  0  0  0  0
   58.8314   22.8181   45.6706 H   0  0  0  0  0  0  0  0  0  0  0  0
   54.9640   23.7440   43.0420 H   0  0  0  0  0  0  0  0  0  0  0  0
   56.1120   23.3120   41.9020 H   0  0  0  0  0  0  0  0  0  0  0  0
   55.3054   24.9514   44.3437 H   0  0  0  0  0  0  0  0  0  0  0  0
  1  2  1  0
  2  3  2  0
  3  4  1  0
  3  5  1  0
  5  6  2  0
  6  7  1  0
  7  8  2  0
  8  9  1  0
  9 10  1  0
 10 11  1  0
 11 12  2  0
 11 13  1  0
 13 14  1  0
 14 15  2  0
 15 16  1  0
 16 17  2  0
 17 18  1  0
 18 19  1  0
 19 20  1  0
 19 21  2  0
 19 22  2  0
 18 23  2  0
  8  2  1  0
 23 14  1  0
  1 24  1  0
  1 25  1  0
  1 26  1  0
  5 27  1  0
  6 28  1  0
  7 29  1  0
  9 30  1  0
 10 31  1  0
 10 32  1  0
 15 33  1  0
 16 34  1  0
 17 35  1  0
 20 36  1  0
 20 37  1  0
 23 38  1  0
M  CHG  1  13  -1
M  END
>  <UniqueID>  (5) 
4

>  <SMILES>  (5) 
Cc1c(Cl)cccc1NCC(=O)[N-]c1cccc(S(N)(=O)=O)c1

>  <Energy>  (5) 
42.09572322943067

>  <Genealogy>  (5) 
Cc1c(Cl)cccc1NCC(=O)[N-]c1cccc(S(N)(=O)=O)c1 (protonated)
Cc1c(Cl)cccc1NCC(=O)[N-]c1cccc(S(N)(=O)=O)c1 (3D coordinates assigned)
Cc1c(Cl)cccc1NCC(=O)[N-]c1cccc(S(N)(=O)=O)c1 (optimized conformer: 42.09572322943067 kcal/mol)

>  <smiles>  (5) 
Cc1c(Cl)cccc1NCC(=O)Nc1cccc(S(N)(=O)=O)c1

>  <score_type>  (5) 
oracle

>  <origin>  (5) 
adg

>  <m_score__min__energy>  (5) 
-10.24

>  <m_primary>  (5) 
energy

$$$$
5:0
     RDKit          3D

 60 62  0  0  0  0  0  0  0  0999 V2000
   59.6130   35.0250   46.3750 C   0  0  0  0  0  0  0  0  0  0  0  0
   59.2400   34.8070   44.9100 C   0  0  0  0  0  0  0  0  0  0  0  0
   58.6040   33.4600   44.7130 C   0  0  0  0  0  0  0  0  0  0  0  0
   58.3310   32.6360   45.8190 C   0  0  0  0  0  0  0  0  0  0  0  0
   57.7030   31.4010   45.6380 C   0  0  0  0  0  0  0  0  0  0  0  0
   57.3210   30.9830   44.3550 C   0  0  0  0  0  0  0  0  0  0  0  0
   56.5640   29.4090   44.1420 S   0  0  0  0  0  0  0  0  0  0  0  0
   57.3530   28.6260   43.1320 O   0  0  0  0  0  0  0  0  0  0  0  0
   55.1590   29.5730   43.6390 O   0  0  0  0  0  0  0  0  0  0  0  0
   56.5700   28.5470   45.6600 N   0  0  0  0  0  0  0  0  0  0  0  0
   56.9020   27.1250   45.4820 C   0  0  1  0  0  0  0  0  0  0  0  0
   58.3540   26.8550   45.9280 C   0  0  0  0  0  0  0  0  0  0  0  0
   59.0350   28.0720   46.5110 C   0  0  0  0  0  0  0  0  0  0  0  0
   58.7810   28.4610   47.8380 C   0  0  0  0  0  0  0  0  0  0  0  0
   59.3860   29.6040   48.3680 C   0  0  0  0  0  0  0  0  0  0  0  0
   60.2840   30.3550   47.5920 C   0  0  0  0  0  0  0  0  0  0  0  0
   60.9630   31.5680   48.1690 C   0  0  0  0  0  0  0  0  0  0  0  0
   61.3390   32.5070   47.1090 N   0  0  0  0  0  0  0  0  0  0  0  0
   63.0460   32.8320   47.1290 S   0  0  0  0  0  0  0  0  0  0  0  0
   63.7870   31.5780   46.7520 O   0  0  0  0  0  0  0  0  0  0  0  0
   63.3670   33.9010   46.1190 O   0  0  0  0  0  0  0  0  0  0  0  0
   63.5670   33.3350   48.7330 C   0  0  0  0  0  0  0  0  0  0  0  0
   62.7990   34.2260   49.4970 C   0  0  0  0  0  0  0  0  0  0  0  0
   63.1990   34.5690   50.7930 C   0  0  0  0  0  0  0  0  0  0  0  0
   64.3730   34.0290   51.3370 C   0  0  0  0  0  0  0  0  0  0  0  0
   64.8260   34.4440   52.7070 C   0  0  0  0  0  0  0  0  0  0  0  0
   65.1560   33.1600   50.5600 C   0  0  0  0  0  0  0  0  0  0  0  0
   64.7450   32.8040   49.2700 C   0  0  0  0  0  0  0  0  0  0  0  0
   60.5380   29.9660   46.2640 C   0  0  0  0  0  0  0  0  0  0  0  0
   59.9160   28.8370   45.7270 C   0  0  0  0  0  0  0  0  0  0  0  0
   55.9300   26.2340   46.2090 C   0  0  0  0  0  0  0  0  0  0  0  0
   56.3460   25.3500   47.0060 O   0  0  0  0  0  0  0  0  0  0  0  0
   54.5650   26.3340   45.9480 O   0  0  0  0  0  0  0  0  0  0  0  0
   57.5800   31.8060   43.2510 C   0  0  0  0  0  0  0  0  0  0  0  0
   58.2180   33.0420   43.4280 C   0  0  0  0  0  0  0  0  0  0  0  0
   58.8437   34.5754   47.0200 H   0  0  0  0  0  0  0  0  0  0  0  0
   60.5851   34.5529   46.5800 H   0  0  0  0  0  0  0  0  0  0  0  0
   59.6787   36.1037   46.5800 H   0  0  0  0  0  0  0  0  0  0  0  0
   58.5315   35.5887   44.5986 H   0  0  0  0  0  0  0  0  0  0  0  0
   60.1563   34.8549   44.3033 H   0  0  0  0  0  0  0  0  0  0  0  0
   58.6128   32.9647   46.8302 H   0  0  0  0  0  0  0  0  0  0  0  0
   57.5074   30.7538   46.5057 H   0  0  0  0  0  0  0  0  0  0  0  0
   56.8182   26.8854   44.4117 H   0  0  0  0  0  0  0  0  0  0  0  0
   58.3437   26.0618   46.6900 H   0  0  0  0  0  0  0  0  0  0  0  0
   58.9212   26.5611   45.0325 H   0  0  0  0  0  0  0  0  0  0  0  0
   58.1020   27.8622   48.4628 H   0  0  0  0  0  0  0  0  0  0  0  0
   59.1578   29.9168   49.3976 H   0  0  0  0  0  0  0  0  0  0  0  0
   60.2756   32.0683   48.8669 H   0  0  0  0  0  0  0  0  0  0  0  0
   61.8742   31.2457   48.6942 H   0  0  0  0  0  0  0  0  0  0  0  0
   61.8787   34.6567   49.0756 H   0  0  0  0  0  0  0  0  0  0  0  0
   62.5898   35.2654   51.3878 H   0  0  0  0  0  0  0  0  0  0  0  0
   64.2389   33.9061   53.4659 H   0  0  0  0  0  0  0  0  0  0  0  0
   65.8922   34.2027   52.8294 H   0  0  0  0  0  0  0  0  0  0  0  0
   64.6788   35.5272   52.8294 H   0  0  0  0  0  0  0  0  0  0  0  0
   66.0956   32.7576   50.9664 H   0  0  0  0  0  0  0  0  0  0  0  0
   65.3507   32.1038   48.6760 H   0  0  0  0  0  0  0  0  0  0  0  0
   61.2308   30.5548   45.6449 H   0  0  0  0  0  0  0  0  0  0  0  0
   60.1164   28.5449   44.6856 H   0  0  0  0  0  0  0  0  0  0  0  0
   57.2821   31.4817   42.2430 H   0  0  0  0  0  0  0  0  0  0  0  0
   58.4169   33.6861   42.5588 H   0  0  0  0  0  0  0  0  0  0  0  0
  1  2  1  0
  2  3  1  0
  3  4  2  0
  4  5  1  0
  5  6  2  0
  6  7  1  0
  7  8  2  0
  7  9  2  0
  7 10  1  0
 10 11  1  0
 11 12  1  0
 12 13  1  0
 13 14  2  0
 14 15  1  0
 15 16  2  0
 16 17  1  0
 17 18  1  0
 18 19  1  0
 19 20  2  0
 19 21  2  0
 19 22  1  0
 22 23  2  0
 23 24  1  0
 24 25  2  0
 25 26  1  0
 25 27  1  0
 27 28  2  0
 16 29  1  0
 29 30  2  0
 11 31  1  0
 31 32  2  0
 31 33  1  0
  6 34  1  0
 34 35  2  0
 35  3  1  0
 30 13  1  0
 28 22  1  0
  1 36  1  0
  1 37  1  0
  1 38  1  0
  2 39  1  0
  2 40  1  0
  4 41  1  0
  5 42  1  0
 11 43  1  6
 12 44  1  0
 12 45  1  0
 14 46  1  0
 15 47  1  0
 17 48  1  0
 17 49  1  0
 23 50  1  0
 24 51  1  0
 26 52  1  0
 26 53  1  0
 26 54  1  0
 27 55  1  0
 28 56  1  0
 29 57  1  0
 30 58  1  0
 34 59  1  0
 35 60  1  0
M  CHG  3  10  -1  18  -1  33  -1
M  END
>  <UniqueID>  (6) 
5

>  <SMILES>  (6) 
CCc1ccc(S(=O)(=O)[N-][C@@H](Cc2ccc(C[N-]S(=O)(=O)c3ccc(C)cc3)cc2)C(=O)[O-])cc1

>  <Energy>  (6) 
52.052042402861275

>  <Genealogy>  (6) 
CCc1ccc(S(=O)(=O)[N-]C(Cc2ccc(C[N-]S(=O)(=O)c3ccc(C)cc3)cc2)C(=O)[O-])cc1 (protonated)
CCc1ccc(S(=O)(=O)[N-][C@@H](Cc2ccc(C[N-]S(=O)(=O)c3ccc(C)cc3)cc2)C(=O)[O-])cc1 (chirality)
CCc1ccc(S(=O)(=O)[N-][C@@H](Cc2ccc(C[N-]S(=O)(=O)c3ccc(C)cc3)cc2)C(=O)[O-])cc1 (3D coordinates assigned)
CCc1ccc(S(=O)(=O)[N-][C@@H](Cc2ccc(C[N-]S(=O)(=O)c3ccc(C)cc3)cc2)C(=O)[O-])cc1 (optimized conformer: 52.052042402861275 kcal/mol)

>  <smiles>  (6) 
CCc1ccc(S(=O)(=O)NC(Cc2ccc(CNS(=O)(=O)c3ccc(C)cc3)cc2)C(=O)O)cc1

>  <score_type>  (6) 
oracle

>  <origin>  (6) 
adg

>  <m_score__min__energy>  (6) 
-16.16

>  <m_primary>  (6) 
energy

$$$$
6:0
     RDKit          3D

 50 53  0  0  0  0  0  0  0  0999 V2000
   55.3790   28.4960   54.9210 C   0  0  0  0  0  0  0  0  0  0  0  0
   56.2260   28.9370   53.7760 C   0  0  0  0  0  0  0  0  0  0  0  0
   57.6000   28.9870   53.7450 C   0  0  0  0  0  0  0  0  0  0  0  0
   57.9330   29.4880   52.5370 N   0  0  0  0  0  0  0  0  0  0  0  0
   59.2530   29.7510   52.0170 C   0  0  0  0  0  0  0  0  0  0  0  0
   60.3640   29.8760   52.8700 C   0  0  0  0  0  0  0  0  0  0  0  0
   61.6360   30.1240   52.3500 C   0  0  0  0  0  0  0  0  0  0  0  0
   61.8250   30.2570   50.9640 C   0  0  0  0  0  0  0  0  0  0  0  0
   63.1200   30.5080   50.3990 N   0  0  0  0  0  0  0  0  0  0  0  0
   63.7910   32.0750   50.0810 S   0  0  0  0  0  0  0  0  0  0  0  0
   63.7050   32.9080   51.3290 O   0  0  0  0  0  0  0  0  0  0  0  0
   65.2380   31.9230   49.7030 O   0  0  0  0  0  0  0  0  0  0  0  0
   62.8790   32.8760   48.7970 C   0  0  0  0  0  0  0  0  0  0  0  0
   63.4100   32.9190   47.4970 C   0  0  0  0  0  0  0  0  0  0  0  0
   62.7000   33.5350   46.4630 C   0  0  0  0  0  0  0  0  0  0  0  0
   61.4580   34.1180   46.7180 C   0  0  0  0  0  0  0  0  0  0  0  0
   60.9230   34.0870   48.0060 C   0  0  0  0  0  0  0  0  0  0  0  0
   61.6250   33.4710   49.0500 C   0  0  0  0  0  0  0  0  0  0  0  0
   60.9040   33.4750   50.6560 Cl  0  0  0  0  0  0  0  0  0  0  0  0
   60.7240   30.1510   50.1030 C   0  0  0  0  0  0  0  0  0  0  0  0
   60.9340   30.2670   48.7200 O   0  0  0  0  0  0  0  0  0  0  0  0
   59.9390   30.1940   47.7340 C   0  0  0  0  0  0  0  0  0  0  0  0
   59.2490   28.9990   47.4570 C   0  0  0  0  0  0  0  0  0  0  0  0
   58.2570   28.9700   46.4730 C   0  0  0  0  0  0  0  0  0  0  0  0
   57.9280   30.1370   45.7690 C   0  0  0  0  0  0  0  0  0  0  0  0
   56.6890   30.0920   44.5200 S   0  0  0  0  0  0  0  0  0  0  0  0
   55.5320   28.8600   44.8890 N   0  0  0  0  0  0  0  0  0  0  0  0
   57.3290   29.8000   43.1920 O   0  0  0  0  0  0  0  0  0  0  0  0
   55.9790   31.4150   44.4530 O   0  0  0  0  0  0  0  0  0  0  0  0
   58.6040   31.3310   46.0540 C   0  0  0  0  0  0  0  0  0  0  0  0
   59.5960   31.3580   47.0390 C   0  0  0  0  0  0  0  0  0  0  0  0
   59.4480   29.8800   50.6310 C   0  0  0  0  0  0  0  0  0  0  0  0
   56.8090   29.7340   51.8760 N   0  0  0  0  0  0  0  0  0  0  0  0
   55.7520   29.4100   52.6070 N   0  0  0  0  0  0  0  0  0  0  0  0
   55.8771   28.7554   55.8668 H   0  0  0  0  0  0  0  0  0  0  0  0
   54.4027   29.0003   54.8705 H   0  0  0  0  0  0  0  0  0  0  0  0
   55.2323   27.4070   54.8705 H   0  0  0  0  0  0  0  0  0  0  0  0
   58.2897   28.6800   54.5450 H   0  0  0  0  0  0  0  0  0  0  0  0
   60.2297   29.7775   53.9573 H   0  0  0  0  0  0  0  0  0  0  0  0
   62.4958   30.2159   53.0299 H   0  0  0  0  0  0  0  0  0  0  0  0
   64.3907   32.4650   47.2918 H   0  0  0  0  0  0  0  0  0  0  0  0
   63.1206   33.5604   45.4469 H   0  0  0  0  0  0  0  0  0  0  0  0
   60.9005   34.6023   45.9028 H   0  0  0  0  0  0  0  0  0  0  0  0
   59.9443   34.5489   48.2029 H   0  0  0  0  0  0  0  0  0  0  0  0
   59.4915   28.0840   48.0173 H   0  0  0  0  0  0  0  0  0  0  0  0
   57.7328   28.0289   46.2502 H   0  0  0  0  0  0  0  0  0  0  0  0
   54.6490   29.3440   45.1660 H   0  0  0  0  0  0  0  0  0  0  0  0
   58.3537   32.2488   45.5017 H   0  0  0  0  0  0  0  0  0  0  0  0
   60.1108   32.3025   47.2691 H   0  0  0  0  0  0  0  0  0  0  0  0
   58.5916   29.7676   49.9498 H   0  0  0  0  0  0  0  0  0  0  0  0
  1  2  1  0
  2  3  2  0
  3  4  1  0
  4  5  1  0
  5  6  2  0
  6  7  1  0
  7  8  2  0
  8  9  1  0
  9 10  1  0
 10 11  2  0
 10 12  2  0
 10 13  1  0
 13 14  2  0
 14 15  1  0
 15 16  2  0
 16 17  1  0
 17 18  2  0
 18 19  1  0
  8 20  1  0
 20 21  1  0
 21 22  1  0
 22 23  2  0
 23 24  1  0
 24 25  2  0
 25 26  1  0
 26 27  1  0
 26 28  2  0
 26 29  2  0
 25 30  1  0
 30 31  2  0
 20 32  2  0
  4 33  1  0
 33 34  2  0
 34  2  1  0
 32  5  1  0
 18 13  1  0
 31 22  1  0
  1 35  1  0
  1 36  1  0
  1 37  1  0
  3 38  1  0
  6 39  1  0
  7 40  1  0
 14 41  1  0
 15 42  1  0
 16 43  1  0
 17 44  1  0
 23 45  1  0
 24 46  1  0
 27 47  1  0
 30 48  1  0
 31 49  1  0
 32 50  1  0
M  CHG  2   9  -1  27  -1
M  END
>  <UniqueID>  (7) 
6

>  <SMILES>  (7) 
Cc1cn(-c2ccc([N-]S(=O)(=O)c3ccccc3Cl)c(Oc3ccc(S([NH-])(=O)=O)cc3)c2)nn1

>  <Energy>  (7) 
101.35440510949182

>  <Genealogy>  (7) 
Cc1cn(-c2ccc([N-]S(=O)(=O)c3ccccc3Cl)c(Oc3ccc(S([NH-])(=O)=O)cc3)c2)nn1 (protonated)
Cc1cn(-c2ccc([N-]S(=O)(=O)c3ccccc3Cl)c(Oc3ccc(S([NH-])(=O)=O)cc3)c2)nn1 (3D coordinates assigned)
Cc1cn(-c2ccc([N-]S(=O)(=O)c3ccccc3Cl)c(Oc3ccc(S([NH-])(=O)=O)cc3)c2)nn1 (optimized conformer: 101.35440510949182 kcal/mol)

>  <smiles>  (7) 
Cc1cn(-c2ccc(NS(=O)(=O)c3ccccc3Cl)c(Oc3ccc(S(N)(=O)=O)cc3)c2)nn1

>  <score_type>  (7) 
oracle

>  <origin>  (7) 
adg

>  <m_score__min__energy>  (7) 
-12.970000000000001

>  <m_primary>  (7) 
energy

$$$$
7:0
     RDKit          3D

 46 48  0  0  0  0  0  0  0  0999 V2000
   56.0230   31.2730   44.5940 O   0  0  0  0  0  0  0  0  0  0  0  0
   57.0620   31.3180   43.8810 C   0  0  0  0  0  0  0  0  0  0  0  0
   57.7130   32.6420   43.6150 C   0  0  0  0  0  0  0  0  0  0  0  0
   57.3370   33.5920   44.6090 O   0  0  0  0  0  0  0  0  0  0  0  0
   57.5980   33.4220   45.9740 C   0  0  0  0  0  0  0  0  0  0  0  0
   56.6590   33.5060   46.8120 O   0  0  0  0  0  0  0  0  0  0  0  0
   58.9770   33.1390   46.4300 C   0  0  0  0  0  0  0  0  0  0  0  0
   59.9840   34.1090   46.2810 C   0  0  0  0  0  0  0  0  0  0  0  0
   61.2890   33.8470   46.7040 C   0  0  0  0  0  0  0  0  0  0  0  0
   61.6150   32.6060   47.2770 C   0  0  0  0  0  0  0  0  0  0  0  0
   62.9450   32.2880   47.7090 N   0  0  0  0  0  0  0  0  0  0  0  0
   63.5510   32.5030   49.3180 S   0  0  0  0  0  0  0  0  0  0  0  0
   64.3870   31.3140   49.6980 O   0  0  0  0  0  0  0  0  0  0  0  0
   64.4050   33.7380   49.3670 O   0  0  0  0  0  0  0  0  0  0  0  0
   62.2150   32.6890   50.4390 C   0  0  0  0  0  0  0  0  0  0  0  0
   61.9770   31.9040   51.5570 C   0  0  0  0  0  0  0  0  0  0  0  0
   60.8190   32.2770   52.2490 C   0  0  0  0  0  0  0  0  0  0  0  0
   60.1480   33.3490   51.6730 C   0  0  0  0  0  0  0  0  0  0  0  0
   60.9940   33.8340   50.3020 S   0  0  0  0  0  0  0  0  0  0  0  0
   60.6130   31.6400   47.4290 C   0  0  0  0  0  0  0  0  0  0  0  0
   59.3050   31.9030   47.0100 C   0  0  0  0  0  0  0  0  0  0  0  0
   57.6320   30.1110   43.3550 N   0  0  0  0  0  0  0  0  0  0  0  0
   57.0460   28.7950   43.6010 C   0  0  0  0  0  0  0  0  0  0  0  0
   57.6780   28.1560   44.8130 C   0  0  0  0  0  0  0  0  0  0  0  0
   59.0640   28.2760   45.0100 C   0  0  0  0  0  0  0  0  0  0  0  0
   59.6720   27.7150   46.1380 C   0  0  0  0  0  0  0  0  0  0  0  0
   58.9010   27.0310   47.0800 C   0  0  0  0  0  0  0  0  0  0  0  0
   57.5220   26.9030   46.8960 C   0  0  0  0  0  0  0  0  0  0  0  0
   56.9050   27.4630   45.7690 C   0  0  0  0  0  0  0  0  0  0  0  0
   55.5300   27.3250   45.6110 O   0  0  0  0  0  0  0  0  0  0  0  0
   58.8058   32.5172   43.6285 H   0  0  0  0  0  0  0  0  0  0  0  0
   57.3852   33.0082   42.6309 H   0  0  0  0  0  0  0  0  0  0  0  0
   59.7421   35.0817   45.8278 H   0  0  0  0  0  0  0  0  0  0  0  0
   62.0663   34.6167   46.5879 H   0  0  0  0  0  0  0  0  0  0  0  0
   62.6299   31.0750   51.8675 H   0  0  0  0  0  0  0  0  0  0  0  0
   60.4730   31.7699   53.1618 H   0  0  0  0  0  0  0  0  0  0  0  0
   59.2201   33.8038   52.0499 H   0  0  0  0  0  0  0  0  0  0  0  0
   60.8564   30.6672   47.8812 H   0  0  0  0  0  0  0  0  0  0  0  0
   58.5270   31.1356   47.1358 H   0  0  0  0  0  0  0  0  0  0  0  0
   58.4910   30.1680   42.7620 H   0  0  0  0  0  0  0  0  0  0  0  0
   55.9650   28.9058   43.7719 H   0  0  0  0  0  0  0  0  0  0  0  0
   57.2265   28.1546   42.7250 H   0  0  0  0  0  0  0  0  0  0  0  0
   59.6756   28.8152   44.2716 H   0  0  0  0  0  0  0  0  0  0  0  0
   60.7580   27.8127   46.2830 H   0  0  0  0  0  0  0  0  0  0  0  0
   59.3799   26.5925   47.9679 H   0  0  0  0  0  0  0  0  0  0  0  0
   56.9182   26.3606   47.6385 H   0  0  0  0  0  0  0  0  0  0  0  0
  1  2  2  0
  2  3  1  0
  3  4  1  0
  4  5  1  0
  5  6  2  0
  5  7  1  0
  7  8  2  0
  8  9  1  0
  9 10  2  0
 10 11  1  0
 11 12  1  0
 12 13  2  0
 12 14  2  0
 12 15  1  0
 15 16  2  0
 16 17  1  0
 17 18  2  0
 18 19  1  0
 10 20  1  0
 20 21  2  0
  2 22  1  0
 22 23  1  0
 23 24  1  0
 24 25  2  0
 25 26  1  0
 26 27  2  0
 27 28  1  0
 28 29  2  0
 29 30  1  0
 21  7  1  0
 29 24  1  0
 19 15  1  0
  3 31  1  0
  3 32  1  0
  8 33  1  0
  9 34  1  0
 16 35  1  0
 17 36  1  0
 18 37  1  0
 20 38  1  0
 21 39  1  0
 22 40  1  0
 23 41  1  0
 23 42  1  0
 25 43  1  0
 26 44  1  0
 27 45  1  0
 28 46  1  0
M  CHG  2  11  -1  30  -1
M  END
>  <UniqueID>  (8) 
7

>  <SMILES>  (8) 
O=C(COC(=O)c1ccc([N-]S(=O)(=O)c2cccs2)cc1)NCc1ccccc1[O-]

>  <Energy>  (8) 
74.15033372032443

>  <Genealogy>  (8) 
O=C(COC(=O)c1ccc([N-]S(=O)(=O)c2cccs2)cc1)NCc1ccccc1[O-] (protonated)
O=C(COC(=O)c1ccc([N-]S(=O)(=O)c2cccs2)cc1)NCc1ccccc1[O-] (3D coordinates assigned)
O=C(COC(=O)c1ccc([N-]S(=O)(=O)c2cccs2)cc1)NCc1ccccc1[O-] (optimized conformer: 74.15033372032443 kcal/mol)

>  <smiles>  (8) 
O=C(COC(=O)c1ccc(NS(=O)(=O)c2cccs2)cc1)NCc1ccccc1O

>  <score_type>  (8) 
oracle

>  <origin>  (8) 
adg

>  <m_score__min__energy>  (8) 
-14.48

>  <m_primary>  (8) 
energy

$$$$
8:0
     RDKit          3D

 34 35  0  0  0  0  0  0  0  0999 V2000
   64.6740   33.5020   48.8280 N   0  0  0  0  0  0  0  0  0  0  0  0
   63.6050   33.2510   47.4940 S   0  0  0  0  0  0  0  0  0  0  0  0
   63.5540   34.4920   46.6480 O   0  0  0  0  0  0  0  0  0  0  0  0
   64.1100   32.1120   46.6530 O   0  0  0  0  0  0  0  0  0  0  0  0
   61.9940   32.8780   48.1020 C   0  0  0  0  0  0  0  0  0  0  0  0
   61.2740   33.8350   48.8290 C   0  0  0  0  0  0  0  0  0  0  0  0
   60.0020   33.5310   49.3180 C   0  0  0  0  0  0  0  0  0  0  0  0
   59.4350   32.2790   49.0700 C   0  0  0  0  0  0  0  0  0  0  0  0
   60.1290   31.3230   48.3170 C   0  0  0  0  0  0  0  0  0  0  0  0
   59.5150   30.0460   48.0970 N   0  0  0  0  0  0  0  0  0  0  0  0
   58.8760   29.5980   46.8940 C   0  0  0  0  0  0  0  0  0  0  0  0
   57.9680   30.2830   46.3520 O   0  0  0  0  0  0  0  0  0  0  0  0
   59.2270   28.2580   46.3280 C   0  0  0  0  0  0  0  0  0  0  0  0
   58.1240   27.2590   46.6030 C   0  0  0  0  0  0  0  0  0  0  0  0
   58.4130   26.1730   47.4510 C   0  0  0  0  0  0  0  0  0  0  0  0
   57.4670   25.1740   47.6800 C   0  0  0  0  0  0  0  0  0  0  0  0
   57.7700   24.1110   48.5230 O   0  0  0  0  0  0  0  0  0  0  0  0
   56.2220   25.2350   47.0590 C   0  0  0  0  0  0  0  0  0  0  0  0
   55.9110   26.2980   46.2080 C   0  0  0  0  0  0  0  0  0  0  0  0
   54.6530   26.3330   45.6130 O   0  0  0  0  0  0  0  0  0  0  0  0
   56.8510   27.3240   45.9690 C   0  0  0  0  0  0  0  0  0  0  0  0
   56.4840   28.4290   45.0530 C   0  0  0  0  0  0  0  0  0  0  0  0
   55.4300   29.0900   45.2510 O   0  0  0  0  0  0  0  0  0  0  0  0
   57.3110   28.7790   43.9940 O   0  0  0  0  0  0  0  0  0  0  0  0
   61.4210   31.6230   47.8470 C   0  0  0  0  0  0  0  0  0  0  0  0
   65.5830   33.0520   48.5790 H   0  0  0  0  0  0  0  0  0  0  0  0
   61.7113   34.8271   49.0148 H   0  0  0  0  0  0  0  0  0  0  0  0
   59.4449   34.2797   49.9002 H   0  0  0  0  0  0  0  0  0  0  0  0
   58.4374   32.0421   49.4683 H   0  0  0  0  0  0  0  0  0  0  0  0
   59.3686   28.3503   45.2411 H   0  0  0  0  0  0  0  0  0  0  0  0
   60.1535   27.9036   46.8033 H   0  0  0  0  0  0  0  0  0  0  0  0
   59.3969   26.1116   47.9389 H   0  0  0  0  0  0  0  0  0  0  0  0
   55.4805   24.4428   47.2394 H   0  0  0  0  0  0  0  0  0  0  0  0
   61.9845   30.8698   47.2768 H   0  0  0  0  0  0  0  0  0  0  0  0
  1  2  1  0
  2  3  2  0
  2  4  2  0
  2  5  1  0
  5  6  2  0
  6  7  1  0
  7  8  2  0
  8  9  1  0
  9 10  1  0
 10 11  1  0
 11 12  2  0
 11 13  1  0
 13 14  1  0
 14 15  2  0
 15 16  1  0
 16 17  1  0
 16 18  2  0
 18 19  1  0
 19 20  1  0
 19 21  2  0
 21 22  1  0
 22 23  2  0
 22 24  1  0
  9 25  2  0
 25  5  1  0
 21 14  1  0
  1 26  1  0
  6 27  1  0
  7 28  1  0
  8 29  1  0
 13 30  1  0
 13 31  1  0
 15 32  1  0
 18 33  1  0
 25 34  1  0
M  CHG  5   1  -1  10  -1  17  -1  20  -1  24  -1
M  END
>  <UniqueID>  (9) 
8

>  <SMILES>  (9) 
[NH-]S(=O)(=O)c1cccc([N-]C(=O)Cc2cc([O-])cc([O-])c2C(=O)[O-])c1

>  <Energy>  (9) 
44.394040187187436

>  <Genealogy>  (9) 
[NH-]S(=O)(=O)c1cccc([N-]C(=O)Cc2cc([O-])cc([O-])c2C(=O)[O-])c1 (protonated)
[NH-]S(=O)(=O)c1cccc([N-]C(=O)Cc2cc([O-])cc([O-])c2C(=O)[O-])c1 (3D coordinates assigned)
[NH-]S(=O)(=O)c1cccc([N-]C(=O)Cc2cc([O-])cc([O-])c2C(=O)[O-])c1 (optimized conformer: 44.394040187187436 kcal/mol)

>  <smiles>  (9) 
NS(=O)(=O)c1cccc(NC(=O)Cc2cc(O)cc(O)c2C(=O)O)c1

>  <score_type>  (9) 
oracle

>  <origin>  (9) 
adg

>  <m_score__min__energy>  (9) 
-17.57

>  <m_primary>  (9) 
energy

$$$$
9:0
     RDKit          3D

 66 70  0  0  0  0  0  0  0  0999 V2000
   55.9190   31.0040   44.7290 O   0  0  0  0  0  0  0  0  0  0  0  0
   56.8870   30.3730   44.2270 C   0  0  0  0  0  0  0  0  0  0  0  0
   56.6260   29.0580   43.5550 C   0  0  0  0  0  0  0  0  0  0  0  0
   58.1200   27.9990   43.3680 S   0  0  0  0  0  0  0  0  0  0  0  0
   58.5540   27.8190   45.1110 C   0  0  0  0  0  0  0  0  0  0  0  0
   59.4150   28.7370   45.6180 N   0  0  0  0  0  0  0  0  0  0  0  0
   59.8470   28.6820   46.8970 C   0  0  0  0  0  0  0  0  0  0  0  0
   60.7360   29.6510   47.3770 C   0  0  0  0  0  0  0  0  0  0  0  0
   61.2130   29.5730   48.6870 C   0  0  0  0  0  0  0  0  0  0  0  0
   60.7870   28.5410   49.5270 C   0  0  0  0  0  0  0  0  0  0  0  0
   59.8960   27.5710   49.0530 C   0  0  0  0  0  0  0  0  0  0  0  0
   59.4170   27.6370   47.7300 C   0  0  0  0  0  0  0  0  0  0  0  0
   58.5070   26.7010   47.2080 C   0  0  0  0  0  0  0  0  0  0  0  0
   58.0930   25.7620   47.9460 O   0  0  0  0  0  0  0  0  0  0  0  0
   58.0710   26.8040   45.9080 N   0  0  0  0  0  0  0  0  0  0  0  0
   57.0830   25.8280   45.4030 C   0  0  0  0  0  0  0  0  0  0  0  0
   57.7450   24.5180   45.0650 C   0  0  0  0  0  0  0  0  0  0  0  0
   59.0250   24.2190   45.5600 C   0  0  0  0  0  0  0  0  0  0  0  0
   59.6190   22.9830   45.2790 C   0  0  0  0  0  0  0  0  0  0  0  0
   58.9410   22.0390   44.5060 C   0  0  0  0  0  0  0  0  0  0  0  0
   57.6750   22.3350   43.9950 C   0  0  0  0  0  0  0  0  0  0  0  0
   57.0800   23.5700   44.2710 C   0  0  0  0  0  0  0  0  0  0  0  0
   58.2200   30.9040   44.2980 N   0  0  0  0  0  0  0  0  0  0  0  0
   58.5160   32.1910   44.8730 C   0  0  0  0  0  0  0  0  0  0  0  0
   58.1260   33.3800   44.2320 C   0  0  0  0  0  0  0  0  0  0  0  0
   58.3840   34.6170   44.8270 C   0  0  0  0  0  0  0  0  0  0  0  0
   59.0350   34.6830   46.0600 C   0  0  0  0  0  0  0  0  0  0  0  0
   59.4650   33.5070   46.6900 C   0  0  0  0  0  0  0  0  0  0  0  0
   60.2830   33.5860   48.2520 S   0  0  0  0  0  0  0  0  0  0  0  0
   59.5100   34.4880   49.1760 O   0  0  0  0  0  0  0  0  0  0  0  0
   60.2950   32.2050   48.8500 O   0  0  0  0  0  0  0  0  0  0  0  0
   61.9370   34.1420   48.0840 N   0  0  0  0  0  0  0  0  0  0  0  0
   62.7960   33.7240   49.2100 C   0  0  0  0  0  0  0  0  0  0  0  0
   63.1800   32.2300   49.1500 C   0  0  0  0  0  0  0  0  0  0  0  0
   63.5060   31.7460   47.7260 C   0  0  0  0  0  0  0  0  0  0  0  0
   63.7210   32.9090   46.7610 C   0  0  0  0  0  0  0  0  0  0  0  0
   62.4870   33.8290   46.7390 C   0  0  0  0  0  0  0  0  0  0  0  0
   59.2150   32.2660   46.0870 C   0  0  0  0  0  0  0  0  0  0  0  0
   55.8843   28.5066   44.1515 H   0  0  0  0  0  0  0  0  0  0  0  0
   56.2702   29.2862   42.5395 H   0  0  0  0  0  0  0  0  0  0  0  0
   61.0588   30.4738   46.7222 H   0  0  0  0  0  0  0  0  0  0  0  0
   61.9250   30.3249   49.0581 H   0  0  0  0  0  0  0  0  0  0  0  0
   61.1526   28.4906   50.5632 H   0  0  0  0  0  0  0  0  0  0  0  0
   59.5692   26.7556   49.7150 H   0  0  0  0  0  0  0  0  0  0  0  0
   56.3190   25.6565   46.1756 H   0  0  0  0  0  0  0  0  0  0  0  0
   56.6226   26.2345   44.4905 H   0  0  0  0  0  0  0  0  0  0  0  0
   59.5628   24.9590   46.1709 H   0  0  0  0  0  0  0  0  0  0  0  0
   60.6223   22.7552   45.6682 H   0  0  0  0  0  0  0  0  0  0  0  0
   59.4033   21.0625   44.2993 H   0  0  0  0  0  0  0  0  0  0  0  0
   57.1459   21.5962   43.3752 H   0  0  0  0  0  0  0  0  0  0  0  0
   56.0846   23.8003   43.8634 H   0  0  0  0  0  0  0  0  0  0  0  0
   59.0130   30.2480   44.1280 H   0  0  0  0  0  0  0  0  0  0  0  0
   57.6159   33.3359   43.2584 H   0  0  0  0  0  0  0  0  0  0  0  0
   58.0728   35.5432   44.3218 H   0  0  0  0  0  0  0  0  0  0  0  0
   59.2106   35.6583   46.5375 H   0  0  0  0  0  0  0  0  0  0  0  0
   63.7175   34.3244   49.1902 H   0  0  0  0  0  0  0  0  0  0  0  0
   62.2250   33.8812   50.1370 H   0  0  0  0  0  0  0  0  0  0  0  0
   64.0640   32.0702   49.7848 H   0  0  0  0  0  0  0  0  0  0  0  0
   62.3109   31.6541   49.5007 H   0  0  0  0  0  0  0  0  0  0  0  0
   64.4221   31.1379   47.7588 H   0  0  0  0  0  0  0  0  0  0  0  0
   62.6502   31.1578   47.3632 H   0  0  0  0  0  0  0  0  0  0  0  0
   64.5986   33.4887   47.0831 H   0  0  0  0  0  0  0  0  0  0  0  0
   63.8816   32.5063   45.7500 H   0  0  0  0  0  0  0  0  0  0  0  0
   62.7701   34.7745   46.2534 H   0  0  0  0  0  0  0  0  0  0  0  0
   61.6995   33.2889   46.1930 H   0  0  0  0  0  0  0  0  0  0  0  0
   59.5699   31.3436   46.5699 H   0  0  0  0  0  0  0  0  0  0  0  0
  1  2  2  0
  2  3  1  0
  3  4  1  0
  4  5  1  0
  5  6  2  0
  6  7  1  0
  7  8  2  0
  8  9  1  0
  9 10  2  0
 10 11  1  0
 11 12  2  0
 12 13  1  0
 13 14  2  0
 13 15  1  0
 15 16  1  0
 16 17  1  0
 17 18  2  0
 18 19  1  0
 19 20  2  0
 20 21  1  0
 21 22  2  0
  2 23  1  0
 23 24  1  0
 24 25  2  0
 25 26  1  0
 26 27  2  0
 27 28  1  0
 28 29  1  0
 29 30  2  0
 29 31  2  0
 29 32  1  0
 32 33  1  0
 33 34  1  0
 34 35  1  0
 35 36  1  0
 36 37  1  0
 28 38  2  0
 15  5  1  0
 22 17  1  0
 38 24  1  0
 12  7  1  0
 37 32  1  0
  3 39  1  0
  3 40  1  0
  8 41  1  0
  9 42  1  0
 10 43  1  0
 11 44  1  0
 16 45  1  0
 16 46  1  0
 18 47  1  0
 19 48  1  0
 20 49  1  0
 21 50  1  0
 22 51  1  0
 23 52  1  0
 25 53  1  0
 26 54  1  0
 27 55  1  0
 33 56  1  0
 33 57  1  0
 34 58  1  0
 34 59  1  0
 35 60  1  0
 35 61  1  0
 36 62  1  0
 36 63  1  0
 37 64  1  0
 37 65  1  0
 38 66  1  0
M  END
>  <UniqueID>  (10) 
9

>  <SMILES>  (10) 
O=C(CSc1nc2ccccc2c(=O)n1Cc1ccccc1)Nc1cccc(S(=O)(=O)N2CCCCC2)c1

>  <Energy>  (10) 
87.83877030605964

>  <Genealogy>  (10) 
O=C(CSc1nc2ccccc2c(=O)n1Cc1ccccc1)Nc1cccc(S(=O)(=O)N2CCCCC2)c1 (3D coordinates assigned)
O=C(CSc1nc2ccccc2c(=O)n1Cc1ccccc1)Nc1cccc(S(=O)(=O)N2CCCCC2)c1 (nonaromatic ring conformer: 87.83877030605964 kcal/mol)

>  <smiles>  (10) 
O=C(CSc1nc2ccccc2c(=O)n1Cc1ccccc1)Nc1cccc(S(=O)(=O)N2CCCCC2)c1

>  <score_type>  (10) 
oracle

>  <origin>  (10) 
adg

>  <m_score__min__energy>  (10) 
-11.66

>  <m_primary>  (10) 
energy

$$$$
10:0
     RDKit          3D

 51 53  0  0  0  0  0  0  0  0999 V2000
   58.5900   21.7700   43.9550 C   0  0  0  0  0  0  0  0  0  0  0  0
   57.3430   22.5110   44.1210 N   0  0  0  0  0  0  0  0  0  0  0  0
   57.1440   23.4350   45.1020 C   0  0  0  0  0  0  0  0  0  0  0  0
   55.9050   24.0710   45.0510 C   0  0  0  0  0  0  0  0  0  0  0  0
   55.4520   25.1480   45.9420 C   0  0  0  0  0  0  0  0  0  0  0  0
   54.4400   25.8340   45.6360 O   0  0  0  0  0  0  0  0  0  0  0  0
   56.1890   25.4410   47.1320 N   0  0  0  0  0  0  0  0  0  0  0  0
   57.5670   25.9190   47.1250 C   0  0  0  0  0  0  0  0  0  0  0  0
   57.6200   27.3710   46.6480 C   0  0  0  0  0  0  0  0  0  0  0  0
   57.0880   27.4650   45.2910 N   0  0  0  0  0  0  0  0  0  0  0  0
   57.7510   28.2100   44.2640 C   0  0  0  0  0  0  0  0  0  0  0  0
   58.0700   27.6330   43.1890 O   0  0  0  0  0  0  0  0  0  0  0  0
   57.9780   29.6650   44.4250 C   0  0  0  0  0  0  0  0  0  0  0  0
   58.7980   30.1490   45.4620 C   0  0  0  0  0  0  0  0  0  0  0  0
   58.9010   31.5220   45.7030 C   0  0  0  0  0  0  0  0  0  0  0  0
   58.2000   32.4310   44.9030 C   0  0  0  0  0  0  0  0  0  0  0  0
   58.2360   34.1490   45.2750 S   0  0  0  0  0  0  0  0  0  0  0  0
   59.3300   34.7890   44.4660 O   0  0  0  0  0  0  0  0  0  0  0  0
   56.9190   34.7750   44.9140 O   0  0  0  0  0  0  0  0  0  0  0  0
   58.4980   34.3560   46.9840 N   0  0  0  0  0  0  0  0  0  0  0  0
   59.8220   34.9110   47.2630 C   0  0  0  0  0  0  0  0  0  0  0  0
   60.8180   33.8050   47.4940 C   0  0  0  0  0  0  0  0  0  0  0  0
   60.5030   32.7190   48.3300 C   0  0  0  0  0  0  0  0  0  0  0  0
   61.4300   31.6900   48.5290 C   0  0  0  0  0  0  0  0  0  0  0  0
   62.6750   31.7370   47.8920 C   0  0  0  0  0  0  0  0  0  0  0  0
   62.9980   32.8150   47.0640 C   0  0  0  0  0  0  0  0  0  0  0  0
   62.0720   33.8440   46.8600 C   0  0  0  0  0  0  0  0  0  0  0  0
   57.4130   31.9600   43.8450 C   0  0  0  0  0  0  0  0  0  0  0  0
   57.2980   30.5860   43.6080 C   0  0  0  0  0  0  0  0  0  0  0  0
   55.0450   23.4700   43.7280 S   0  0  0  0  0  0  0  0  0  0  0  0
   56.2850   22.4290   43.2800 C   0  0  0  0  0  0  0  0  0  0  0  0
   56.2440   21.6660   42.2780 O   0  0  0  0  0  0  0  0  0  0  0  0
   59.0045   21.5237   44.9437 H   0  0  0  0  0  0  0  0  0  0  0  0
   58.3937   20.8419   43.3981 H   0  0  0  0  0  0  0  0  0  0  0  0
   59.3113   22.3861   43.3981 H   0  0  0  0  0  0  0  0  0  0  0  0
   57.8983   23.6603   45.8703 H   0  0  0  0  0  0  0  0  0  0  0  0
   57.9787   25.8558   48.1431 H   0  0  0  0  0  0  0  0  0  0  0  0
   58.1600   25.2945   46.4406 H   0  0  0  0  0  0  0  0  0  0  0  0
   57.0174   27.9988   47.3209 H   0  0  0  0  0  0  0  0  0  0  0  0
   58.6639   27.7177   46.6540 H   0  0  0  0  0  0  0  0  0  0  0  0
   59.3619   29.4413   46.0874 H   0  0  0  0  0  0  0  0  0  0  0  0
   59.5349   31.8888   46.5238 H   0  0  0  0  0  0  0  0  0  0  0  0
   60.1479   35.5189   46.4061 H   0  0  0  0  0  0  0  0  0  0  0  0
   59.7641   35.5332   48.1682 H   0  0  0  0  0  0  0  0  0  0  0  0
   59.5238   32.6783   48.8295 H   0  0  0  0  0  0  0  0  0  0  0  0
   61.1801   30.8441   49.1862 H   0  0  0  0  0  0  0  0  0  0  0  0
   63.4004   30.9241   48.0434 H   0  0  0  0  0  0  0  0  0  0  0  0
   63.9811   32.8548   46.5721 H   0  0  0  0  0  0  0  0  0  0  0  0
   62.3264   34.6870   46.2007 H   0  0  0  0  0  0  0  0  0  0  0  0
   56.8827   32.6736   43.1972 H   0  0  0  0  0  0  0  0  0  0  0  0
   56.6726   30.2242   42.7785 H   0  0  0  0  0  0  0  0  0  0  0  0
  1  2  1  0
  2  3  1  0
  3  4  2  0
  4  5  1  0
  5  6  2  0
  5  7  1  0
  7  8  1  0
  8  9  1  0
  9 10  1  0
 10 11  1  0
 11 12  2  0
 11 13  1  0
 13 14  2  0
 14 15  1  0
 15 16  2  0
 16 17  1  0
 17 18  2  0
 17 19  2  0
 17 20  1  0
 20 21  1  0
 21 22  1  0
 22 23  2  0
 23 24  1  0
 24 25  2  0
 25 26  1  0
 26 27  2  0
 16 28  1  0
 28 29  2  0
  4 30  1  0
 30 31  1  0
 31 32  2  0
 31  2  1  0
 29 13  1  0
 27 22  1  0
  1 33  1  0
  1 34  1  0
  1 35  1  0
  3 36  1  0
  8 37  1  0
  8 38  1  0
  9 39  1  0
  9 40  1  0
 14 41  1  0
 15 42  1  0
 21 43  1  0
 21 44  1  0
 23 45  1  0
 24 46  1  0
 25 47  1  0
 26 48  1  0
 27 49  1  0
 28 50  1  0
 29 51  1  0
M  CHG  3   7  -1  10  -1  20  -1
M  END
>  <UniqueID>  (11) 
10

>  <SMILES>  (11) 
Cn1cc(C(=O)[N-]CC[N-]C(=O)c2ccc(S(=O)(=O)[N-]Cc3ccccc3)cc2)sc1=O

>  <Energy>  (11) 
75.56946379780989

>  <Genealogy>  (11) 
Cn1cc(C(=O)[N-]CC[N-]C(=O)c2ccc(S(=O)(=O)[N-]Cc3ccccc3)cc2)sc1=O (protonated)
Cn1cc(C(=O)[N-]CC[N-]C(=O)c2ccc(S(=O)(=O)[N-]Cc3ccccc3)cc2)sc1=O (3D coordinates assigned)
Cn1cc(C(=O)[N-]CC[N-]C(=O)c2ccc(S(=O)(=O)[N-]Cc3ccccc3)cc2)sc1=O (optimized conformer: 75.56946379780989 kcal/mol)

>  <smiles>  (11) 
Cn1cc(C(=O)NCCNC(=O)c2ccc(S(=O)(=O)NCc3ccccc3)cc2)sc1=O

>  <score_type>  (11) 
oracle

>  <origin>  (11) 
adg

>  <m_score__min__energy>  (11) 
-14.029999999999999

>  <m_primary>  (11) 
energy

$$$$
11:0
     RDKit          3D

 45 47  0  0  0  0  0  0  0  0999 V2000
   57.7780   33.1870   44.5650 C   0  0  0  0  0  0  0  0  0  0  0  0
   58.4580   33.3790   45.8900 C   0  0  0  0  0  0  0  0  0  0  0  0
   59.7110   34.0040   45.9630 C   0  0  0  0  0  0  0  0  0  0  0  0
   60.3600   34.1460   47.1940 C   0  0  0  0  0  0  0  0  0  0  0  0
   59.7760   33.6470   48.3710 C   0  0  0  0  0  0  0  0  0  0  0  0
   60.4820   33.8330   49.6890 C   0  0  0  0  0  0  0  0  0  0  0  0
   58.5310   32.9810   48.3030 C   0  0  0  0  0  0  0  0  0  0  0  0
   57.9360   32.4160   49.4820 N   0  0  0  0  0  0  0  0  0  0  0  0
   58.6110   31.0250   50.2650 S   0  0  0  0  0  0  0  0  0  0  0  0
   57.5640   30.3980   51.1440 O   0  0  0  0  0  0  0  0  0  0  0  0
   59.7760   31.4230   51.1290 O   0  0  0  0  0  0  0  0  0  0  0  0
   59.1210   29.8600   49.0470 C   0  0  0  0  0  0  0  0  0  0  0  0
   60.1560   28.9590   49.3280 C   0  0  0  0  0  0  0  0  0  0  0  0
   60.5830   28.0540   48.3530 C   0  0  0  0  0  0  0  0  0  0  0  0
   59.9750   28.0420   47.0920 C   0  0  0  0  0  0  0  0  0  0  0  0
   58.9310   28.9400   46.7930 C   0  0  0  0  0  0  0  0  0  0  0  0
   58.2780   28.9280   45.4610 C   0  0  0  0  0  0  0  0  0  0  0  0
   58.5300   29.8480   44.6290 O   0  0  0  0  0  0  0  0  0  0  0  0
   57.2650   27.9530   45.1630 N   0  0  0  0  0  0  0  0  0  0  0  0
   57.2020   26.6970   45.5180 C   0  0  0  0  0  0  0  0  0  0  0  0
   58.3390   25.9540   45.4050 N   0  0  0  0  0  0  0  0  0  0  0  0
   58.3960   24.6430   45.7590 C   0  0  0  0  0  0  0  0  0  0  0  0
   57.2610   24.0050   46.2590 C   0  0  0  0  0  0  0  0  0  0  0  0
   56.0680   24.7180   46.3630 C   0  0  0  0  0  0  0  0  0  0  0  0
   56.0150   26.0610   45.9770 C   0  0  0  0  0  0  0  0  0  0  0  0
   54.7830   26.7060   46.0060 O   0  0  0  0  0  0  0  0  0  0  0  0
   58.5150   29.8540   47.7800 C   0  0  0  0  0  0  0  0  0  0  0  0
   57.8850   32.8520   47.0590 C   0  0  0  0  0  0  0  0  0  0  0  0
   56.7313   32.8915   44.7295 H   0  0  0  0  0  0  0  0  0  0  0  0
   57.8082   34.1288   43.9975 H   0  0  0  0  0  0  0  0  0  0  0  0
   58.2963   32.4001   43.9975 H   0  0  0  0  0  0  0  0  0  0  0  0
   60.1864   34.3848   45.0470 H   0  0  0  0  0  0  0  0  0  0  0  0
   61.3354   34.6523   47.2412 H   0  0  0  0  0  0  0  0  0  0  0  0
   59.7765   33.6471   50.5123 H   0  0  0  0  0  0  0  0  0  0  0  0
   61.3213   33.1253   49.7585 H   0  0  0  0  0  0  0  0  0  0  0  0
   60.8636   34.8623   49.7585 H   0  0  0  0  0  0  0  0  0  0  0  0
   56.9770   32.7110   49.7640 H   0  0  0  0  0  0  0  0  0  0  0  0
   60.6338   28.9640   50.3188 H   0  0  0  0  0  0  0  0  0  0  0  0
   61.3981   27.3499   48.5765 H   0  0  0  0  0  0  0  0  0  0  0  0
   60.3148   27.3263   46.3289 H   0  0  0  0  0  0  0  0  0  0  0  0
   59.3377   24.0849   45.6511 H   0  0  0  0  0  0  0  0  0  0  0  0
   57.3069   22.9503   46.5680 H   0  0  0  0  0  0  0  0  0  0  0  0
   55.1652   24.2227   46.7499 H   0  0  0  0  0  0  0  0  0  0  0  0
   57.7092   30.5688   47.5570 H   0  0  0  0  0  0  0  0  0  0  0  0
   56.9178   32.3311   47.0016 H   0  0  0  0  0  0  0  0  0  0  0  0
  1  2  1  0
  2  3  2  0
  3  4  1  0
  4  5  2  0
  5  6  1  0
  5  7  1  0
  7  8  1  0
  8  9  1  0
  9 10  2  0
  9 11  2  0
  9 12  1  0
 12 13  2  0
 13 14  1  0
 14 15  2  0
 15 16  1  0
 16 17  1  0
 17 18  2  0
 17 19  1  0
 19 20  2  3
 20 21  1  0
 21 22  1  0
 22 23  2  0
 23 24  1  0
 24 25  2  0
 25 26  1  0
 16 27  2  0
  7 28  2  0
 28  2  1  0
 27 12  1  0
 25 20  1  0
  1 29  1  0
  1 30  1  0
  1 31  1  0
  3 32  1  0
  4 33  1  0
  6 34  1  0
  6 35  1  0
  6 36  1  0
  8 37  1  0
 13 38  1  0
 14 39  1  0
 15 40  1  0
 22 41  1  0
 23 42  1  0
 24 43  1  0
 27 44  1  0
 28 45  1  0
M  CHG  2  21  -1  26  -1
M  END
>  <UniqueID>  (12) 
11

>  <SMILES>  (12) 
Cc1ccc(C)c(NS(=O)(=O)c2cccc(C(=O)N=c3[n-]cccc3[O-])c2)c1

>  <Energy>  (12) 
65.37311095452262

>  <Genealogy>  (12) 
Cc1ccc(C)c(NS(=O)(=O)c2cccc(C(=O)N=c3[n-]cccc3[O-])c2)c1 (protonated)
Cc1ccc(C)c(NS(=O)(=O)c2cccc(C(=O)N=c3[n-]cccc3[O-])c2)c1 (3D coordinates assigned)
Cc1ccc(C)c(NS(=O)(=O)c2cccc(C(=O)N=c3[n-]cccc3[O-])c2)c1 (optimized conformer: 65.37311095452262 kcal/mol)

>  <smiles>  (12) 
Cc1ccc(C)c(NS(=O)(=O)c2cccc(C(=O)N=c3[nH]cccc3O)c2)c1

>  <score_type>  (12) 
oracle

>  <origin>  (12) 
adg

>  <m_score__min__energy>  (12) 
-14.779999999999999

>  <m_primary>  (12) 
energy

$$$$
12:0
     RDKit          3D

 43 45  0  0  1  0  0  0  0  0999 V2000
   59.1260   29.6120   49.8640 C   0  0  0  0  0  0  0  0  0  0  0  0
   59.2820   29.2900   48.6100 C   0  0  0  0  0  0  0  0  0  0  0  0
   58.3450   28.5960   47.9090 N   0  0  0  0  0  0  0  0  0  0  0  0
   58.7610   28.4080   46.6610 N   0  0  0  0  0  0  0  0  0  0  0  0
   59.9720   28.9560   46.4740 C   0  0  0  0  0  0  0  0  0  0  0  0
   60.8610   28.9660   45.1050 S   0  0  0  0  0  0  0  0  0  0  0  0
   60.2950   29.5120   47.7120 C   0  0  0  0  0  0  0  0  0  0  0  0
   61.4070   30.1550   47.9740 C   0  0  0  0  0  0  0  0  0  0  0  0
   61.7450   31.4880   47.5340 C   0  0  0  0  0  0  0  0  0  0  0  0
   63.0640   31.7800   47.1570 C   0  0  0  0  0  0  0  0  0  0  0  0
   63.4100   33.0600   46.7730 C   0  0  0  0  0  0  0  0  0  0  0  0
   62.4630   34.0590   46.7550 C   0  0  0  0  0  0  0  0  0  0  0  0
   61.1710   33.7560   47.1280 C   0  0  0  0  0  0  0  0  0  0  0  0
   60.2490   34.7970   47.0950 O   0  0  0  0  0  0  0  0  0  0  0  0
   59.5060   35.0790   45.9380 C   0  0  0  0  0  0  0  0  0  0  0  0
   58.8150   33.9000   45.4070 C   0  0  0  0  0  0  0  0  0  0  0  0
   58.1030   33.1110   46.2890 C   0  0  0  0  0  0  0  0  0  0  0  0
   57.4240   31.9750   45.8370 C   0  0  0  0  0  0  0  0  0  0  0  0
   57.4390   31.6010   44.5120 C   0  0  0  0  0  0  0  0  0  0  0  0
   56.5720   30.1690   43.9950 S   0  0  0  0  0  0  0  0  0  0  0  0
   56.5970   30.1690   42.2640 N   0  0  0  0  0  0  0  0  0  0  0  0
   57.2710   28.9350   44.4760 O   0  0  0  0  0  0  0  0  0  0  0  0
   55.1680   30.2350   44.4960 O   0  0  0  0  0  0  0  0  0  0  0  0
   58.1540   32.3930   43.6280 C   0  0  0  0  0  0  0  0  0  0  0  0
   58.8290   33.5250   44.0840 C   0  0  0  0  0  0  0  0  0  0  0  0
   60.7690   32.4970   47.5210 C   0  0  0  0  0  0  0  0  0  0  0  0
   59.9121   30.1742   50.3894 H   0  0  0  0  0  0  0  0  0  0  0  0
   58.2083   29.3214   50.3964 H   0  0  0  0  0  0  0  0  0  0  0  0
   57.4200   28.2330   48.2270 H   0  0  0  0  0  0  0  0  0  0  0  0
   58.2460   27.9070   45.9000 H   0  0  0  0  0  0  0  0  0  0  0  0
   62.1535   29.6290   48.5873 H   0  0  0  0  0  0  0  0  0  0  0  0
   63.8255   30.9862   47.1674 H   0  0  0  0  0  0  0  0  0  0  0  0
   64.4467   33.2826   46.4802 H   0  0  0  0  0  0  0  0  0  0  0  0
   62.7324   35.0805   46.4485 H   0  0  0  0  0  0  0  0  0  0  0  0
   58.7564   35.8469   46.1798 H   0  0  0  0  0  0  0  0  0  0  0  0
   60.2104   35.4259   45.1676 H   0  0  0  0  0  0  0  0  0  0  0  0
   58.0697   33.3782   47.3555 H   0  0  0  0  0  0  0  0  0  0  0  0
   56.8629   31.3639   46.5594 H   0  0  0  0  0  0  0  0  0  0  0  0
   55.8280   29.5010   41.9640 H   0  0  0  0  0  0  0  0  0  0  0  0
   57.4830   29.6830   41.9760 H   0  0  0  0  0  0  0  0  0  0  0  0
   58.1894   32.1275   42.5611 H   0  0  0  0  0  0  0  0  0  0  0  0
   59.3903   34.1372   43.3627 H   0  0  0  0  0  0  0  0  0  0  0  0
   59.7282   32.2920   47.8119 H   0  0  0  0  0  0  0  0  0  0  0  0
  1  2  2  0
  2  3  1  0
  3  4  1  0
  4  5  1  0
  5  6  2  0
  5  7  1  0
  7  8  2  0
  8  9  1  0
  9 10  2  0
 10 11  1  0
 11 12  2  0
 12 13  1  0
 13 14  1  0
 14 15  1  0
 15 16  1  0
 16 17  2  0
 17 18  1  0
 18 19  2  0
 19 20  1  0
 20 21  1  0
 20 22  2  0
 20 23  2  0
 19 24  1  0
 24 25  2  0
 13 26  2  0
  7  2  1  0
 26  9  1  0
 25 16  1  0
  1 27  1  0
  1 28  1  0
  3 29  1  0
  4 30  1  0
  8 31  1  0
 10 32  1  0
 11 33  1  0
 12 34  1  0
 15 35  1  0
 15 36  1  0
 17 37  1  0
 18 38  1  0
 21 39  1  0
 21 40  1  0
 24 41  1  0
 25 42  1  0
 26 43  1  0
M  END
>  <smiles>  (13) 
C=c1[nH][nH]c(=S)c1=Cc1cccc(OCc2ccc(S(N)(=O)=O)cc2)c1

>  <score_type>  (13) 
oracle

>  <origin>  (13) 
adg

>  <m_score__min__energy>  (13) 
-9.2200000000000006

>  <m_primary>  (13) 
energy

$$$$
13:0
     RDKit          3D

 46 48  0  0  0  0  0  0  0  0999 V2000
   58.2010   29.4810   50.5830 N   0  0  0  0  0  0  0  0  0  0  0  0
   57.4000   30.2040   51.9280 S   0  0  0  0  0  0  0  0  0  0  0  0
   55.9400   30.3570   51.6200 O   0  0  0  0  0  0  0  0  0  0  0  0
   57.5470   29.3060   53.1240 O   0  0  0  0  0  0  0  0  0  0  0  0
   58.1120   31.7900   52.2550 C   0  0  0  0  0  0  0  0  0  0  0  0
   58.4810   32.1280   53.5700 C   0  0  0  0  0  0  0  0  0  0  0  0
   59.0730   33.3650   53.8450 C   0  0  0  0  0  0  0  0  0  0  0  0
   59.2930   34.2780   52.8140 C   0  0  0  0  0  0  0  0  0  0  0  0
   58.9220   33.9600   51.5040 C   0  0  0  0  0  0  0  0  0  0  0  0
   58.3430   32.7090   51.2090 C   0  0  0  0  0  0  0  0  0  0  0  0
   57.9920   32.3390   49.8660 N   0  0  0  0  0  0  0  0  0  0  0  0
   59.0920   31.8520   48.6200 S   0  0  0  0  0  0  0  0  0  0  0  0
   60.4630   31.6760   49.2170 O   0  0  0  0  0  0  0  0  0  0  0  0
   58.6390   30.5580   47.9970 O   0  0  0  0  0  0  0  0  0  0  0  0
   59.1190   33.0890   47.3590 C   0  0  0  0  0  0  0  0  0  0  0  0
   60.0060   34.1730   47.4650 C   0  0  0  0  0  0  0  0  0  0  0  0
   60.0900   35.1200   46.4410 C   0  0  0  0  0  0  0  0  0  0  0  0
   59.2930   34.9890   45.3020 C   0  0  0  0  0  0  0  0  0  0  0  0
   58.4110   33.9120   45.1850 C   0  0  0  0  0  0  0  0  0  0  0  0
   58.3200   32.9560   46.2060 C   0  0  0  0  0  0  0  0  0  0  0  0
   57.3940   31.8750   46.0960 N   0  0  0  0  0  0  0  0  0  0  0  0
   57.3180   30.8390   44.7100 S   0  0  0  0  0  0  0  0  0  0  0  0
   58.2670   31.3140   43.6410 O   0  0  0  0  0  0  0  0  0  0  0  0
   55.9240   30.8530   44.1450 O   0  0  0  0  0  0  0  0  0  0  0  0
   57.7250   29.2070   45.2240 C   0  0  0  0  0  0  0  0  0  0  0  0
   59.0620   28.8410   45.4280 C   0  0  0  0  0  0  0  0  0  0  0  0
   59.3740   27.5650   45.9050 C   0  0  0  0  0  0  0  0  0  0  0  0
   58.3550   26.6530   46.1930 C   0  0  0  0  0  0  0  0  0  0  0  0
   57.0050   27.0110   46.0040 C   0  0  0  0  0  0  0  0  0  0  0  0
   55.9210   26.0570   46.3260 C   0  0  0  0  0  0  0  0  0  0  0  0
   56.1740   24.9740   46.9180 O   0  0  0  0  0  0  0  0  0  0  0  0
   54.6050   26.3400   45.9800 O   0  0  0  0  0  0  0  0  0  0  0  0
   56.7000   28.2940   45.5160 C   0  0  0  0  0  0  0  0  0  0  0  0
   58.7330   30.2400   50.1010 H   0  0  0  0  0  0  0  0  0  0  0  0
   58.3026   31.4142   54.3877 H   0  0  0  0  0  0  0  0  0  0  0  0
   59.3652   33.6178   54.8749 H   0  0  0  0  0  0  0  0  0  0  0  0
   59.7593   35.2502   53.0318 H   0  0  0  0  0  0  0  0  0  0  0  0
   59.0830   34.6910   50.6980 H   0  0  0  0  0  0  0  0  0  0  0  0
   60.6381   34.2770   48.3592 H   0  0  0  0  0  0  0  0  0  0  0  0
   60.7839   35.9686   46.5322 H   0  0  0  0  0  0  0  0  0  0  0  0
   59.3597   35.7346   44.4960 H   0  0  0  0  0  0  0  0  0  0  0  0
   57.7843   33.8136   44.2864 H   0  0  0  0  0  0  0  0  0  0  0  0
   59.8671   29.5589   45.2124 H   0  0  0  0  0  0  0  0  0  0  0  0
   60.4252   27.2775   46.0543 H   0  0  0  0  0  0  0  0  0  0  0  0
   58.6079   25.6507   46.5691 H   0  0  0  0  0  0  0  0  0  0  0  0
   55.6502   28.5842   45.3620 H   0  0  0  0  0  0  0  0  0  0  0  0
  1  2  1  0
  2  3  2  0
  2  4  2  0
  2  5  1  0
  5  6  2  0
  6  7  1  0
  7  8  2  0
  8  9  1  0
  9 10  2  0
 10 11  1  0
 11 12  1  0
 12 13  2  0
 12 14  2  0
 12 15  1  0
 15 16  2  0
 16 17  1  0
 17 18  2  0
 18 19  1  0
 19 20  2  0
 20 21  1  0
 21 22  1  0
 22 23  2  0
 22 24  2  0
 22 25  1  0
 25 26  2  0
 26 27  1  0
 27 28  2  0
 28 29  1  0
 29 30  1  0
 30 31  2  0
 30 32  1  0
 29 33  2  0
 10  5  1  0
 20 15  1  0
 33 25  1  0
  1 34  1  0
  6 35  1  0
  7 36  1  0
  8 37  1  0
  9 38  1  0
 16 39  1  0
 17 40  1  0
 18 41  1  0
 19 42  1  0
 26 43  1  0
 27 44  1  0
 28 45  1  0
 33 46  1  0
M  CHG  4   1  -1  11  -1  21  -1  32  -1
M  END
>  <UniqueID>  (14) 
12

>  <SMILES>  (14) 
[NH-]S(=O)(=O)c1ccccc1[N-]S(=O)(=O)c1ccccc1[N-]S(=O)(=O)c1cccc(C(=O)[O-])c1

>  <Energy>  (14) 
59.763229881506554

>  <Genealogy>  (14) 
[NH-]S(=O)(=O)c1ccccc1[N-]S(=O)(=O)c1ccccc1[N-]S(=O)(=O)c1cccc(C(=O)[O-])c1 (protonated)
[NH-]S(=O)(=O)c1ccccc1[N-]S(=O)(=O)c1ccccc1[N-]S(=O)(=O)c1cccc(C(=O)[O-])c1 (3D coordinates assigned)
[NH-]S(=O)(=O)c1ccccc1[N-]S(=O)(=O)c1ccccc1[N-]S(=O)(=O)c1cccc(C(=O)[O-])c1 (optimized conformer: 59.763229881506554 kcal/mol)

>  <smiles>  (14) 
NS(=O)(=O)c1ccccc1NS(=O)(=O)c1ccccc1NS(=O)(=O)c1cccc(C(=O)O)c1

>  <score_type>  (14) 
oracle

>  <origin>  (14) 
adg

>  <m_score__min__energy>  (14) 
-18.199999999999999

>  <m_primary>  (14) 
energy

$$$$
14:0
     RDKit          3D

 43 46  0  0  0  0  0  0  0  0999 V2000
   56.1330   31.0050   53.7630 O   0  0  0  0  0  0  0  0  0  0  0  0
   56.3910   31.0600   52.5310 C   0  0  0  0  0  0  0  0  0  0  0  0
   55.4130   30.5710   51.6020 N   0  0  0  0  0  0  0  0  0  0  0  0
   53.9940   30.5250   51.8120 C   0  0  0  0  0  0  0  0  0  0  0  0
   53.3630   29.3880   52.3480 C   0  0  0  0  0  0  0  0  0  0  0  0
   51.9760   29.3730   52.5280 C   0  0  0  0  0  0  0  0  0  0  0  0
   51.2100   30.4820   52.1610 C   0  0  0  0  0  0  0  0  0  0  0  0
   51.8290   31.6060   51.6040 C   0  0  0  0  0  0  0  0  0  0  0  0
   51.0660   32.7040   51.2280 O   0  0  0  0  0  0  0  0  0  0  0  0
   53.2160   31.6230   51.4240 C   0  0  0  0  0  0  0  0  0  0  0  0
   57.7080   31.5740   52.0870 C   0  0  0  0  0  0  0  0  0  0  0  0
   58.8370   31.4210   52.9100 C   0  0  0  0  0  0  0  0  0  0  0  0
   60.0840   31.9050   52.5040 C   0  0  0  0  0  0  0  0  0  0  0  0
   60.2240   32.5450   51.2590 C   0  0  0  0  0  0  0  0  0  0  0  0
   61.4550   33.0500   50.8070 C   0  0  0  0  0  0  0  0  0  0  0  0
   62.4850   32.9190   51.5280 O   0  0  0  0  0  0  0  0  0  0  0  0
   61.5380   33.6770   49.5860 N   0  0  0  0  0  0  0  0  0  0  0  0
   60.4200   33.7740   48.7890 C   0  0  0  0  0  0  0  0  0  0  0  0
   59.2290   33.2820   49.2200 N   0  0  0  0  0  0  0  0  0  0  0  0
   59.1010   32.6830   50.4260 C   0  0  0  0  0  0  0  0  0  0  0  0
   57.8550   32.1950   50.8350 C   0  0  0  0  0  0  0  0  0  0  0  0
   60.4870   34.3830   47.4080 C   0  0  0  0  0  0  0  0  0  0  0  0
   61.3410   33.5740   46.4010 C   0  0  0  0  0  0  0  0  0  0  0  0
   62.8700   33.7080   46.5520 C   0  0  0  0  0  0  0  0  0  0  0  0
   63.3990   33.3460   47.9520 C   0  0  0  0  0  0  0  0  0  0  0  0
   62.8300   34.2030   49.0960 C   0  0  0  0  0  0  0  0  0  0  0  0
   53.9618   28.5083   52.6264 H   0  0  0  0  0  0  0  0  0  0  0  0
   51.4877   28.4866   52.9592 H   0  0  0  0  0  0  0  0  0  0  0  0
   50.1202   30.4714   52.3100 H   0  0  0  0  0  0  0  0  0  0  0  0
   53.6985   32.5038   50.9751 H   0  0  0  0  0  0  0  0  0  0  0  0
   58.7385   30.9159   53.8822 H   0  0  0  0  0  0  0  0  0  0  0  0
   60.9587   31.7851   53.1601 H   0  0  0  0  0  0  0  0  0  0  0  0
   56.9838   32.2983   50.1714 H   0  0  0  0  0  0  0  0  0  0  0  0
   59.4631   34.4557   47.0125 H   0  0  0  0  0  0  0  0  0  0  0  0
   60.9709   35.3648   47.5174 H   0  0  0  0  0  0  0  0  0  0  0  0
   61.0829   32.5111   46.5182 H   0  0  0  0  0  0  0  0  0  0  0  0
   61.1030   33.9878   45.4100 H   0  0  0  0  0  0  0  0  0  0  0  0
   63.3489   33.0420   45.8192 H   0  0  0  0  0  0  0  0  0  0  0  0
   63.1128   34.7680   46.3861 H   0  0  0  0  0  0  0  0  0  0  0  0
   63.1454   32.2946   48.1528 H   0  0  0  0  0  0  0  0  0  0  0  0
   64.4827   33.5339   47.9326 H   0  0  0  0  0  0  0  0  0  0  0  0
   63.5500   34.2100   49.9276 H   0  0  0  0  0  0  0  0  0  0  0  0
   62.6612   35.2193   48.7105 H   0  0  0  0  0  0  0  0  0  0  0  0
  1  2  2  0
  2  3  1  0
  3  4  1  0
  4  5  2  0
  5  6  1  0
  6  7  2  0
  7  8  1  0
  8  9  1  0
  8 10  2  0
  2 11  1  0
 11 12  2  0
 12 13  1  0
 13 14  2  0
 14 15  1  0
 15 16  2  0
 15 17  1  0
 17 18  1  0
 18 19  2  0
 19 20  1  0
 20 21  2  0
 18 22  1  0
 22 23  1  0
 23 24  1  0
 24 25  1  0
 25 26  1  0
 10  4  1  0
 21 11  1  0
 20 14  1  0
 26 17  1  0
  5 27  1  0
  6 28  1  0
  7 29  1  0
 10 30  1  0
 12 31  1  0
 13 32  1  0
 21 33  1  0
 22 34  1  0
 22 35  1  0
 23 36  1  0
 23 37  1  0
 24 38  1  0
 24 39  1  0
 25 40  1  0
 25 41  1  0
 26 42  1  0
 26 43  1  0
M  CHG  2   3  -1   9  -1
M  END
>  <UniqueID>  (15) 
13

>  <SMILES>  (15) 
O=C([N-]c1cccc([O-])c1)c1ccc2c(=O)n3c(nc2c1)CCCCC3

>  <Energy>  (15) 
66.66063265702468

>  <Genealogy>  (15) 
O=C([N-]c1cccc([O-])c1)c1ccc2c(=O)n3c(nc2c1)CCCCC3 (protonated)
O=C([N-]c1cccc([O-])c1)c1ccc2c(=O)n3c(nc2c1)CCCCC3 (3D coordinates assigned)
O=C([N-]c1cccc([O-])c1)c1ccc2c(=O)n3c(nc2c1)CCCCC3 (nonaromatic ring conformer: 66.66063265702468 kcal/mol)

>  <smiles>  (15) 
O=C(Nc1cccc(O)c1)c1ccc2c(=O)n3c(nc2c1)CCCCC3

>  <score_type>  (15) 
oracle

>  <origin>  (15) 
adg

>  <m_score__min__energy>  (15) 
-12.25

>  <m_primary>  (15) 
energy

$$$$
15:0
     RDKit          3D

 55 58  0  0  1  0  0  0  0  0999 V2000
   64.1140   32.0270   49.2600 C   0  0  0  0  0  0  0  0  0  0  0  0
   63.6900   33.4550   48.9900 C   0  0  0  0  0  0  0  0  0  0  0  0
   63.2940   34.1790   50.2430 C   0  0  0  0  0  0  0  0  0  0  0  0
   62.6010   33.5540   48.0620 N   0  0  0  0  0  0  0  0  0  0  0  0
   62.7470   33.8360   46.7430 C   0  0  0  0  0  0  0  0  0  0  0  0
   61.5230   33.8520   46.1720 N   0  0  0  0  0  0  0  0  0  0  0  0
   60.6220   33.5820   47.1270 C   0  0  0  0  0  0  0  0  0  0  0  0
   59.2500   33.4660   47.1370 C   0  0  0  0  0  0  0  0  0  0  0  0
   58.6190   33.6390   46.0360 N   0  0  0  0  0  0  0  0  0  0  0  0
   58.2020   32.4790   45.3210 C   0  0  0  0  0  0  0  0  0  0  0  0
   57.8320   32.6180   43.9930 C   0  0  0  0  0  0  0  0  0  0  0  0
   57.4210   31.5030   43.2740 C   0  0  0  0  0  0  0  0  0  0  0  0
   57.3900   30.2710   43.9130 C   0  0  0  0  0  0  0  0  0  0  0  0
   56.9680   29.1370   43.1700 N   0  0  0  0  0  0  0  0  0  0  0  0
   57.7590   30.1220   45.2430 C   0  0  0  0  0  0  0  0  0  0  0  0
   58.1690   31.2500   45.9500 C   0  0  0  0  0  0  0  0  0  0  0  0
   58.6190   33.1770   48.3000 N   0  0  0  0  0  0  0  0  0  0  0  0
   59.2700   32.9940   49.4580 C   0  0  0  0  0  0  0  0  0  0  0  0
   58.6080   32.6820   50.7180 C   0  0  0  0  0  0  0  0  0  0  0  0
   59.0960   33.2210   51.9090 C   0  0  0  0  0  0  0  0  0  0  0  0
   58.5100   32.9620   53.1300 C   0  0  0  0  0  0  0  0  0  0  0  0
   57.4060   32.1410   53.1740 C   0  0  0  0  0  0  0  0  0  0  0  0
   56.8900   31.5850   52.0220 C   0  0  0  0  0  0  0  0  0  0  0  0
   55.7230   30.7120   52.0210 C   0  0  0  0  0  0  0  0  0  0  0  0
   55.8250   29.4850   52.3460 O   0  0  0  0  0  0  0  0  0  0  0  0
   54.4230   31.1540   51.6680 N   0  0  0  0  0  0  0  0  0  0  0  0
   53.3520   30.1880   51.7080 C   0  0  0  0  0  0  0  0  0  0  0  0
   52.0570   30.7690   51.2660 C   0  0  0  0  0  0  0  0  0  0  0  0
   51.9090   31.9420   50.9620 O   0  0  0  0  0  0  0  0  0  0  0  0
   57.5080   31.8740   50.8230 C   0  0  0  0  0  0  0  0  0  0  0  0
   60.6090   33.1100   49.4290 N   0  0  0  0  0  0  0  0  0  0  0  0
   61.2760   33.3920   48.3210 C   0  0  0  0  0  0  0  0  0  0  0  0
   64.1640   31.8585   50.3459 H   0  0  0  0  0  0  0  0  0  0  0  0
   63.3820   31.3368   48.8152 H   0  0  0  0  0  0  0  0  0  0  0  0
   65.1040   31.8481   48.8152 H   0  0  0  0  0  0  0  0  0  0  0  0
   64.5820   33.9251   48.5502 H   0  0  0  0  0  0  0  0  0  0  0  0
   63.6128   33.5961   51.1196 H   0  0  0  0  0  0  0  0  0  0  0  0
   63.7774   35.1669   50.2640 H   0  0  0  0  0  0  0  0  0  0  0  0
   62.2014   34.3049   50.2640 H   0  0  0  0  0  0  0  0  0  0  0  0
   63.7004   34.0203   46.2262 H   0  0  0  0  0  0  0  0  0  0  0  0
   57.8636   33.6061   43.5107 H   0  0  0  0  0  0  0  0  0  0  0  0
   57.1257   31.5944   42.2183 H   0  0  0  0  0  0  0  0  0  0  0  0
   56.2580   28.4690   43.5000 H   0  0  0  0  0  0  0  0  0  0  0  0
   57.4230   28.9860   42.2270 H   0  0  0  0  0  0  0  0  0  0  0  0
   57.7283   29.1351   45.7278 H   0  0  0  0  0  0  0  0  0  0  0  0
   58.4655   31.1621   47.0057 H   0  0  0  0  0  0  0  0  0  0  0  0
   57.5970   33.1000   48.2630 H   0  0  0  0  0  0  0  0  0  0  0  0
   59.9793   33.8756   51.8725 H   0  0  0  0  0  0  0  0  0  0  0  0
   58.9172   33.4032   54.0517 H   0  0  0  0  0  0  0  0  0  0  0  0
   56.9287   31.9253   54.1413 H   0  0  0  0  0  0  0  0  0  0  0  0
   54.2610   32.1460   51.3900 H   0  0  0  0  0  0  0  0  0  0  0  0
   53.6078   29.3475   51.0461 H   0  0  0  0  0  0  0  0  0  0  0  0
   53.2354   29.8550   52.7499 H   0  0  0  0  0  0  0  0  0  0  0  0
   51.1824   30.1042   51.2097 H   0  0  0  0  0  0  0  0  0  0  0  0
   57.0956   31.4324   49.9038 H   0  0  0  0  0  0  0  0  0  0  0  0
  1  2  1  0
  2  3  1  0
  2  4  1  0
  4  5  1  0
  5  6  2  0
  6  7  1  0
  7  8  1  0
  8  9  2  0
  9 10  1  0
 10 11  2  0
 11 12  1  0
 12 13  2  0
 13 14  1  0
 13 15  1  0
 15 16  2  0
  8 17  1  0
 17 18  1  0
 18 19  1  0
 19 20  2  0
 20 21  1  0
 21 22  2  0
 22 23  1  0
 23 24  1  0
 24 25  2  0
 24 26  1  0
 26 27  1  0
 27 28  1  0
 28 29  2  0
 23 30  2  0
 18 31  2  0
 31 32  1  0
 32  4  1  0
 32  7  2  0
 16 10  1  0
 30 19  1  0
  1 33  1  0
  1 34  1  0
  1 35  1  0
  2 36  1  0
  3 37  1  0
  3 38  1  0
  3 39  1  0
  5 40  1  0
 11 41  1  0
 12 42  1  0
 14 43  1  0
 14 44  1  0
 15 45  1  0
 16 46  1  0
 17 47  1  0
 20 48  1  0
 21 49  1  0
 22 50  1  0
 26 51  1  0
 27 52  1  0
 27 53  1  0
 28 54  1  0
 30 55  1  0
M  END
>  <smiles>  (16) 
CC(C)n1cnc2c(=Nc3ccc(N)cc3)[nH]c(-c3cccc(C(=O)NCC=O)c3)nc21

>  <score_type>  (16) 
oracle

>  <origin>  (16) 
adg

>  <m_score__min__energy>  (16) 
-9.6600000000000001

>  <m_primary>  (16) 
energy

$$$$
16:0
     RDKit          3D

 45 47  0  0  0  0  0  0  0  0999 V2000
   63.9660   31.2130   50.7930 N   0  0  0  0  0  0  0  0  0  0  0  0
   63.3520   31.9130   49.8980 C   0  0  0  0  0  0  0  0  0  0  0  0
   62.1490   32.4460   50.1450 N   0  0  0  0  0  0  0  0  0  0  0  0
   61.5130   33.1740   49.2090 C   0  0  0  0  0  0  0  0  0  0  0  0
   62.0710   33.4060   47.9490 C   0  0  0  0  0  0  0  0  0  0  0  0
   61.3010   34.1960   46.9730 C   0  0  0  0  0  0  0  0  0  0  0  0
   60.0870   33.5220   46.4620 C   0  0  0  0  0  0  0  0  0  0  0  0
   59.0420   34.3260   45.9990 C   0  0  0  0  0  0  0  0  0  0  0  0
   57.8760   33.7850   45.4920 C   0  0  0  0  0  0  0  0  0  0  0  0
   56.8430   34.5970   45.0340 O   0  0  0  0  0  0  0  0  0  0  0  0
   57.7120   32.4000   45.4280 C   0  0  0  0  0  0  0  0  0  0  0  0
   56.5310   31.8770   44.9140 O   0  0  0  0  0  0  0  0  0  0  0  0
   58.7440   31.6070   45.8840 C   0  0  0  0  0  0  0  0  0  0  0  0
   58.5880   29.8550   45.8260 S   0  0  0  0  0  0  0  0  0  0  0  0
   57.3760   29.5930   44.9810 O   0  0  0  0  0  0  0  0  0  0  0  0
   59.7460   29.2680   45.0730 O   0  0  0  0  0  0  0  0  0  0  0  0
   58.3730   29.1550   47.3610 N   0  0  0  0  0  0  0  0  0  0  0  0
   59.2240   29.3760   48.4790 C   0  0  0  0  0  0  0  0  0  0  0  0
   58.8660   30.4140   49.3480 C   0  0  0  0  0  0  0  0  0  0  0  0
   59.6270   30.7120   50.4630 C   0  0  0  0  0  0  0  0  0  0  0  0
   60.7690   29.9720   50.7330 C   0  0  0  0  0  0  0  0  0  0  0  0
   61.5390   30.2760   51.8650 O   0  0  0  0  0  0  0  0  0  0  0  0
   61.1160   28.9450   49.8660 C   0  0  0  0  0  0  0  0  0  0  0  0
   60.3480   28.6510   48.7490 C   0  0  0  0  0  0  0  0  0  0  0  0
   59.9050   32.1670   46.3890 C   0  0  0  0  0  0  0  0  0  0  0  0
   63.3020   32.8500   47.7260 C   0  0  0  0  0  0  0  0  0  0  0  0
   63.9340   32.9990   46.6280 N   0  0  0  0  0  0  0  0  0  0  0  0
   63.9080   32.1230   48.6950 N   0  0  0  0  0  0  0  0  0  0  0  0
   63.5390   31.1180   51.7510 H   0  0  0  0  0  0  0  0  0  0  0  0
   61.7230   32.2820   51.0770 H   0  0  0  0  0  0  0  0  0  0  0  0
   60.5255   33.5987   49.4424 H   0  0  0  0  0  0  0  0  0  0  0  0
   60.9951   35.1358   47.4560 H   0  0  0  0  0  0  0  0  0  0  0  0
   61.9605   34.3535   46.1068 H   0  0  0  0  0  0  0  0  0  0  0  0
   59.1507   35.4199   46.0393 H   0  0  0  0  0  0  0  0  0  0  0  0
   56.0310   34.1290   44.6480 H   0  0  0  0  0  0  0  0  0  0  0  0
   56.2630   30.9520   45.2520 H   0  0  0  0  0  0  0  0  0  0  0  0
   57.5560   28.4970   47.5470 H   0  0  0  0  0  0  0  0  0  0  0  0
   57.9614   31.0040   49.1393 H   0  0  0  0  0  0  0  0  0  0  0  0
   59.3285   31.5319   51.1329 H   0  0  0  0  0  0  0  0  0  0  0  0
   62.5180   30.0110   51.8830 H   0  0  0  0  0  0  0  0  0  0  0  0
   62.0196   28.3515   50.0692 H   0  0  0  0  0  0  0  0  0  0  0  0
   60.6459   27.8311   48.0789 H   0  0  0  0  0  0  0  0  0  0  0  0
   60.7067   31.5022   46.7429 H   0  0  0  0  0  0  0  0  0  0  0  0
   64.8610   32.7140   46.3510 H   0  0  0  0  0  0  0  0  0  0  0  0
   64.8630   31.6960   48.5110 H   0  0  0  0  0  0  0  0  0  0  0  0
  1  2  2  3
  2  3  1  0
  3  4  1  0
  4  5  2  0
  5  6  1  0
  6  7  1  0
  7  8  2  0
  8  9  1  0
  9 10  1  0
  9 11  2  0
 11 12  1  0
 11 13  1  0
 13 14  1  0
 14 15  2  0
 14 16  2  0
 14 17  1  0
 17 18  1  0
 18 19  2  0
 19 20  1  0
 20 21  2  0
 21 22  1  0
 21 23  1  0
 23 24  2  0
 13 25  2  0
  5 26  1  0
 26 27  2  3
 26 28  1  0
 28  2  1  0
 25  7  1  0
 24 18  1  0
  1 29  1  0
  3 30  1  0
  4 31  1  0
  6 32  1  0
  6 33  1  0
  8 34  1  0
 10 35  1  0
 12 36  1  0
 17 37  1  0
 19 38  1  0
 20 39  1  0
 22 40  1  0
 23 41  1  0
 24 42  1  0
 25 43  1  0
 27 44  1  0
 28 45  1  0
M  END
>  <smiles>  (17) 
N=c1[nH]cc(Cc2cc(O)c(O)c(S(=O)(=O)Nc3ccc(O)cc3)c2)c(=N)[nH]1

>  <score_type>  (17) 
oracle

>  <origin>  (17) 
adg

>  <m_score__min__energy>  (17) 
-7.8300000000000001

>  <m_primary>  (17) 
energy

$$$$
17:0
     RDKit          3D

 60 63  0  0  0  0  0  0  0  0999 V2000
   61.4286   27.1222   50.6336 H   0  0  0  0  0  0  0  0  0  0  0  0
   60.8140   28.0330   50.5820 C   0  0  0  0  0  0  0  0  0  0  0  0
   60.3190   28.5800   51.7170 N   0  0  0  0  0  0  0  0  0  0  0  0
   59.5890   29.7230   51.6990 C   0  0  0  0  0  0  0  0  0  0  0  0
   59.2098   30.1388   52.6441 H   0  0  0  0  0  0  0  0  0  0  0  0
   59.3100   30.3840   50.4900 C   0  0  0  0  0  0  0  0  0  0  0  0
   58.6640   32.0330   50.6360 S   0  0  0  0  0  0  0  0  0  0  0  0
   59.4350   32.7880   51.6850 O   0  0  0  0  0  0  0  0  0  0  0  0
   57.2060   31.9990   50.9980 O   0  0  0  0  0  0  0  0  0  0  0  0
   58.7950   32.8190   49.0830 N   0  0  0  0  0  0  0  0  0  0  0  0
   59.6790   33.9890   49.0960 C   0  0  1  0  0  0  0  0  0  0  0  0
   59.5530   34.6179   49.9897 H   0  0  0  0  0  0  0  0  0  0  0  0
   61.1300   33.5120   49.1800 C   0  0  0  0  0  0  0  0  0  0  0  0
   61.8670   34.1100   49.9530 O   0  0  0  0  0  0  0  0  0  0  0  0
   61.6670   32.4030   48.4020 N   0  0  0  0  0  0  0  0  0  0  0  0
   60.8890   31.7550   48.1680 H   0  0  0  0  0  0  0  0  0  0  0  0
   62.6660   31.6470   49.1860 C   0  0  0  0  0  0  0  0  0  0  0  0
   62.2617   31.4699   50.1936 H   0  0  0  0  0  0  0  0  0  0  0  0
   62.8611   30.7041   48.6542 H   0  0  0  0  0  0  0  0  0  0  0  0
   64.0130   32.3960   49.3180 C   0  0  0  0  0  0  0  0  0  0  0  0
   64.1208   32.7387   50.3577 H   0  0  0  0  0  0  0  0  0  0  0  0
   64.8059   31.6910   49.0278 H   0  0  0  0  0  0  0  0  0  0  0  0
   64.1190   33.5180   48.4630 O   0  0  0  0  0  0  0  0  0  0  0  0
   63.7290   33.1640   47.1560 C   0  0  0  0  0  0  0  0  0  0  0  0
   63.9465   34.0013   46.4766 H   0  0  0  0  0  0  0  0  0  0  0  0
   64.2894   32.2669   46.8541 H   0  0  0  0  0  0  0  0  0  0  0  0
   62.2190   32.8440   47.0960 C   0  0  0  0  0  0  0  0  0  0  0  0
   61.6814   33.7487   46.7758 H   0  0  0  0  0  0  0  0  0  0  0  0
   62.0864   32.0145   46.3858 H   0  0  0  0  0  0  0  0  0  0  0  0
   59.2960   34.9440   47.9330 C   0  0  0  0  0  0  0  0  0  0  0  0
   58.5269   35.6359   48.3068 H   0  0  0  0  0  0  0  0  0  0  0  0
   60.2354   35.4300   47.6307 H   0  0  0  0  0  0  0  0  0  0  0  0
   58.7570   34.2890   46.6770 C   0  0  0  0  0  0  0  0  0  0  0  0
   59.4550   34.4110   45.4590 C   0  0  0  0  0  0  0  0  0  0  0  0
   60.3946   34.9818   45.4228 H   0  0  0  0  0  0  0  0  0  0  0  0
   58.9620   33.8120   44.2970 C   0  0  0  0  0  0  0  0  0  0  0  0
   59.5270   33.8920   43.3566 H   0  0  0  0  0  0  0  0  0  0  0  0
   57.7540   33.1120   44.3260 C   0  0  0  0  0  0  0  0  0  0  0  0
   57.3788   32.6218   43.4156 H   0  0  0  0  0  0  0  0  0  0  0  0
   57.0240   33.0360   45.5130 C   0  0  0  0  0  0  0  0  0  0  0  0
   56.0604   32.5057   45.5301 H   0  0  0  0  0  0  0  0  0  0  0  0
   57.5120   33.6310   46.6810 C   0  0  0  0  0  0  0  0  0  0  0  0
   56.9204   33.5847   47.6072 H   0  0  0  0  0  0  0  0  0  0  0  0
   59.7390   29.7660   49.2700 C   0  0  0  0  0  0  0  0  0  0  0  0
   59.4280   30.1640   48.0640 N   0  0  0  0  0  0  0  0  0  0  0  0
   60.0530   29.8860   46.8060 C   0  0  0  0  0  0  0  0  0  0  0  0
   61.2210   30.3110   46.5980 O   0  0  0  0  0  0  0  0  0  0  0  0
   59.2750   29.2210   45.7260 C   0  0  0  0  0  0  0  0  0  0  0  0
   58.4230   30.0100   44.9260 C   0  0  0  0  0  0  0  0  0  0  0  0
   58.3493   31.0910   45.1156 H   0  0  0  0  0  0  0  0  0  0  0  0
   57.6710   29.4390   43.8960 C   0  0  0  0  0  0  0  0  0  0  0  0
   57.0116   30.0704   43.2825 H   0  0  0  0  0  0  0  0  0  0  0  0
   57.7550   28.0720   43.6450 C   0  0  0  0  0  0  0  0  0  0  0  0
   57.1714   27.6263   42.8260 H   0  0  0  0  0  0  0  0  0  0  0  0
   58.5790   27.2680   44.4320 C   0  0  0  0  0  0  0  0  0  0  0  0
   58.6321   26.1868   44.2368 H   0  0  0  0  0  0  0  0  0  0  0  0
   59.3400   27.8240   45.4690 C   0  0  0  0  0  0  0  0  0  0  0  0
   60.3680   26.7190   46.3810 Cl  0  0  0  0  0  0  0  0  0  0  0  0
   60.5460   28.6220   49.3500 C   0  0  0  0  0  0  0  0  0  0  0  0
   60.9700   28.1873   48.4328 H   0  0  0  0  0  0  0  0  0  0  0  0
  1  2  1  0
  2  3  1  0
  3  4  1  0
  4  5  1  0
  4  6  2  0
  6  7  1  0
  7  8  2  0
  7  9  2  0
  7 10  1  0
 10 11  1  0
 11 12  1  1
 11 13  1  0
 13 14  2  0
 13 15  1  0
 15 16  1  0
 15 17  1  0
 17 18  1  0
 17 19  1  0
 17 20  1  0
 20 21  1  0
 20 22  1  0
 20 23  1  0
 23 24  1  0
 24 25  1  0
 24 26  1  0
 24 27  1  0
 27 28  1  0
 27 29  1  0
 11 30  1  0
 30 31  1  0
 30 32  1  0
 30 33  1  0
 33 34  2  0
 34 35  1  0
 34 36  1  0
 36 37  1  0
 36 38  2  0
 38 39  1  0
 38 40  1  0
 40 41  1  0
 40 42  2  0
 42 43  1  0
  6 44  1  0
 44 45  2  0
 45 46  1  0
 46 47  2  0
 46 48  1  0
 48 49  2  0
 49 50  1  0
 49 51  1  0
 51 52  1  0
 51 53  2  0
 53 54  1  0
 53 55  1  0
 55 56  1  0
 55 57  2  0
 57 58  1  0
 44 59  1  0
 59 60  1  0
 59  2  2  0
 27 15  1  0
 42 33  1  0
 57 48  1  0
M  CHG  3   3  -1  10  -1  15   1
M  END
>  <UniqueID>  (18) 
14

>  <SMILES>  (18) 
O=C(/N=c1/cc[n-]cc1S(=O)(=O)[N-][C@H](Cc1ccccc1)C(=O)[NH+]1CCOCC1)c1ccccc1Cl

>  <Energy>  (18) 
108.03197537012908

>  <Genealogy>  (18) 
O=C(N=c1cc[n-]cc1S(=O)(=O)[N-]C(Cc1ccccc1)C(=O)[NH+]1CCOCC1)c1ccccc1Cl (protonated)
O=C(N=c1cc[n-]cc1S(=O)(=O)[N-][C@H](Cc1ccccc1)C(=O)[NH+]1CCOCC1)c1ccccc1Cl (chirality)
O=C(/N=c1/cc[n-]cc1S(=O)(=O)[N-][C@H](Cc1ccccc1)C(=O)[NH+]1CCOCC1)c1ccccc1Cl (cis-trans isomerization)
O=C(/N=c1/cc[n-]cc1S(=O)(=O)[N-][C@H](Cc1ccccc1)C(=O)[NH+]1CCOCC1)c1ccccc1Cl (3D coordinates assigned)
O=C(/N=c1/cc[n-]cc1S(=O)(=O)[N-][C@H](Cc1ccccc1)C(=O)[NH+]1CCOCC1)c1ccccc1Cl (nonaromatic ring conformer: 108.03197537012908 kcal/mol)

>  <smiles>  (18) 
O=C(N=c1cc[nH]cc1S(=O)(=O)NC(Cc1ccccc1)C(=O)N1CCOCC1)c1ccccc1Cl

>  <score_type>  (18) 
oracle

>  <origin>  (18) 
adg

>  <m_score__min__energy>  (18) 
-10.23

>  <m_primary>  (18) 
energy

$$$$
18:0
     RDKit          3D

 67 70  0  0  0  0  0  0  0  0999 V2000
   57.3240   23.0430   47.8930 N   0  0  0  0  0  0  0  0  0  0  0  0
   56.4090   23.7270   46.5960 S   0  0  0  0  0  0  0  0  0  0  0  0
   54.9770   23.8920   47.0250 O   0  0  0  0  0  0  0  0  0  0  0  0
   56.4490   22.8020   45.4120 O   0  0  0  0  0  0  0  0  0  0  0  0
   57.0840   25.2950   46.1570 C   0  0  0  0  0  0  0  0  0  0  0  0
   58.4720   25.4790   46.1120 C   0  0  0  0  0  0  0  0  0  0  0  0
   59.0050   26.7270   45.7760 C   0  0  0  0  0  0  0  0  0  0  0  0
   58.1540   27.7950   45.4730 C   0  0  0  0  0  0  0  0  0  0  0  0
   56.7640   27.6190   45.4980 C   0  0  0  0  0  0  0  0  0  0  0  0
   55.9090   28.7420   45.2490 N   0  0  0  0  0  0  0  0  0  0  0  0
   55.8890   29.4930   44.0290 C   0  0  0  0  0  0  0  0  0  0  0  0
   54.8000   29.7000   43.4270 O   0  0  0  0  0  0  0  0  0  0  0  0
   57.1560   30.0810   43.4940 C   0  0  0  0  0  0  0  0  0  0  0  0
   57.7530   30.9960   44.5290 C   0  0  0  0  0  0  0  0  0  0  0  0
   57.1530   32.2300   44.8180 C   0  0  0  0  0  0  0  0  0  0  0  0
   57.7570   33.1150   45.7150 C   0  0  0  0  0  0  0  0  0  0  0  0
   58.9840   32.7890   46.3180 C   0  0  0  0  0  0  0  0  0  0  0  0
   59.6910   33.7240   47.1470 N   0  0  0  0  0  0  0  0  0  0  0  0
   61.1030   33.9590   47.1110 C   0  0  0  0  0  0  0  0  0  0  0  0
   61.6920   34.0300   46.0010 O   0  0  0  0  0  0  0  0  0  0  0  0
   61.8470   34.1180   48.3370 N   0  0  0  0  0  0  0  0  0  0  0  0
   61.2180   33.8730   49.6470 C   0  0  0  0  0  0  0  0  0  0  0  0
   62.0890   32.9270   50.5070 C   0  0  0  0  0  0  0  0  0  0  0  0
   62.9700   32.0050   49.6270 C   0  0  0  0  0  0  0  0  0  0  0  0
   62.1360   31.0520   48.7870 C   0  0  0  0  0  0  0  0  0  0  0  0
   62.1270   31.1580   47.5290 O   0  0  0  0  0  0  0  0  0  0  0  0
   61.2980   30.0800   49.4250 N   0  0  0  0  0  0  0  0  0  0  0  0
   60.2470   29.3230   48.7450 C   0  0  0  0  0  0  0  0  0  0  0  0
   58.8580   29.7530   49.2370 C   0  0  1  0  0  0  0  0  0  0  0  0
   58.7760   29.8410   50.7560 C   0  0  0  0  0  0  0  0  0  0  0  0
   59.0180   31.2910   51.0250 C   0  0  0  0  0  0  0  0  0  0  0  0
   58.5440   31.9560   49.7480 C   0  0  0  0  0  0  0  0  0  0  0  0
   58.5590   31.0200   48.6960 O   0  0  0  0  0  0  0  0  0  0  0  0
   63.9320   32.8690   48.7610 C   0  0  0  0  0  0  0  0  0  0  0  0
   63.3110   34.2100   48.3150 C   0  0  0  0  0  0  0  0  0  0  0  0
   59.5820   31.5560   46.0290 C   0  0  0  0  0  0  0  0  0  0  0  0
   58.9720   30.6630   45.1430 C   0  0  0  0  0  0  0  0  0  0  0  0
   56.2330   26.3640   45.8470 C   0  0  0  0  0  0  0  0  0  0  0  0
   57.3410   22.0100   47.7420 H   0  0  0  0  0  0  0  0  0  0  0  0
   59.1444   24.6392   46.3417 H   0  0  0  0  0  0  0  0  0  0  0  0
   60.0954   26.8693   45.7499 H   0  0  0  0  0  0  0  0  0  0  0  0
   58.5775   28.7767   45.2141 H   0  0  0  0  0  0  0  0  0  0  0  0
   57.8669   29.2742   43.2624 H   0  0  0  0  0  0  0  0  0  0  0  0
   56.9410   30.6502   42.5776 H   0  0  0  0  0  0  0  0  0  0  0  0
   56.2024   32.5026   44.3363 H   0  0  0  0  0  0  0  0  0  0  0  0
   57.2693   34.0724   45.9506 H   0  0  0  0  0  0  0  0  0  0  0  0
   61.0978   34.8310   50.1740 H   0  0  0  0  0  0  0  0  0  0  0  0
   60.2385   33.3995   49.4845 H   0  0  0  0  0  0  0  0  0  0  0  0
   62.7410   33.5320   51.1543 H   0  0  0  0  0  0  0  0  0  0  0  0
   61.4193   32.2929   51.1064 H   0  0  0  0  0  0  0  0  0  0  0  0
   63.5780   31.3679   50.2861 H   0  0  0  0  0  0  0  0  0  0  0  0
   60.3171   29.5022   47.6620 H   0  0  0  0  0  0  0  0  0  0  0  0
   60.3836   28.2543   48.9667 H   0  0  0  0  0  0  0  0  0  0  0  0
   58.1374   28.9902   48.9070 H   0  0  0  0  0  0  0  0  0  0  0  0
   57.7835   29.5328   51.1164 H   0  0  0  0  0  0  0  0  0  0  0  0
   59.4926   29.1810   51.2667 H   0  0  0  0  0  0  0  0  0  0  0  0
   58.4339   31.6357   51.8911 H   0  0  0  0  0  0  0  0  0  0  0  0
   60.0660   31.5184   51.2700 H   0  0  0  0  0  0  0  0  0  0  0  0
   57.5200   32.3322   49.8891 H   0  0  0  0  0  0  0  0  0  0  0  0
   59.2127   32.7940   49.5018 H   0  0  0  0  0  0  0  0  0  0  0  0
   64.8366   33.0814   49.3498 H   0  0  0  0  0  0  0  0  0  0  0  0
   64.1567   32.2943   47.8504 H   0  0  0  0  0  0  0  0  0  0  0  0
   63.6360   35.0073   48.9996 H   0  0  0  0  0  0  0  0  0  0  0  0
   63.6427   34.4383   47.2914 H   0  0  0  0  0  0  0  0  0  0  0  0
   60.5382   31.2884   46.5024 H   0  0  0  0  0  0  0  0  0  0  0  0
   59.4484   29.6956   44.9257 H   0  0  0  0  0  0  0  0  0  0  0  0
   55.1427   26.2210   45.8767 H   0  0  0  0  0  0  0  0  0  0  0  0
  1  2  1  0
  2  3  2  0
  2  4  2  0
  2  5  1  0
  5  6  2  0
  6  7  1  0
  7  8  2  0
  8  9  1  0
  9 10  1  0
 10 11  1  0
 11 12  2  0
 11 13  1  0
 13 14  1  0
 14 15  2  0
 15 16  1  0
 16 17  2  0
 17 18  1  0
 18 19  1  0
 19 20  2  0
 19 21  1  0
 21 22  1  0
 22 23  1  0
 23 24  1  0
 24 25  1  0
 25 26  2  0
 25 27  1  0
 27 28  1  0
 28 29  1  0
 29 30  1  0
 30 31  1  0
 31 32  1  0
 32 33  1  0
 24 34  1  0
 34 35  1  0
 17 36  1  0
 36 37  2  0
  9 38  2  0
 38  5  1  0
 37 14  1  0
 35 21  1  0
 33 29  1  0
  1 39  1  0
  6 40  1  0
  7 41  1  0
  8 42  1  0
 13 43  1  0
 13 44  1  0
 15 45  1  0
 16 46  1  0
 22 47  1  0
 22 48  1  0
 23 49  1  0
 23 50  1  0
 24 51  1  0
 28 52  1  0
 28 53  1  0
 29 54  1  6
 30 55  1  0
 30 56  1  0
 31 57  1  0
 31 58  1  0
 32 59  1  0
 32 60  1  0
 34 61  1  0
 34 62  1  0
 35 63  1  0
 35 64  1  0
 36 65  1  0
 37 66  1  0
 38 67  1  0
M  CHG  4   1  -1  10  -1  18  -1  27  -1
M  END
>  <UniqueID>  (19) 
15

>  <SMILES>  (19) 
[NH-]S(=O)(=O)c1cccc([N-]C(=O)Cc2ccc([N-]C(=O)N3CCC(C(=O)[N-]C[C@H]4CCCO4)CC3)cc2)c1

>  <Energy>  (19) 
74.97073331448874

>  <Genealogy>  (19) 
[NH-]S(=O)(=O)c1cccc([N-]C(=O)Cc2ccc([N-]C(=O)N3CCC(C(=O)[N-]CC4CCCO4)CC3)cc2)c1 (protonated)
[NH-]S(=O)(=O)c1cccc([N-]C(=O)Cc2ccc([N-]C(=O)N3CCC(C(=O)[N-]C[C@H]4CCCO4)CC3)cc2)c1 (chirality)
[NH-]S(=O)(=O)c1cccc([N-]C(=O)Cc2ccc([N-]C(=O)N3CCC(C(=O)[N-]C[C@H]4CCCO4)CC3)cc2)c1 (3D coordinates assigned)
[NH-]S(=O)(=O)c1cccc([N-]C(=O)Cc2ccc([N-]C(=O)N3CCC(C(=O)[N-]C[C@H]4CCCO4)CC3)cc2)c1 (nonaromatic ring conformer: 74.97073331448874 kcal/mol)

>  <smiles>  (19) 
NS(=O)(=O)c1cccc(NC(=O)Cc2ccc(NC(=O)N3CCC(C(=O)NCC4CCCO4)CC3)cc2)c1

>  <score_type>  (19) 
oracle

>  <origin>  (19) 
adg

>  <m_score__min__energy>  (19) 
-15.69

>  <m_primary>  (19) 
energy

$$$$
19:0
     RDKit          3D

 63 67  0  0  0  0  0  0  0  0999 V2000
   64.2284   32.5683   46.2145 H   0  0  0  0  0  0  0  0  0  0  0  0
   63.5650   32.6510   47.0880 C   0  0  0  0  0  0  0  0  0  0  0  0
   63.4960   33.8510   47.8020 C   0  0  0  0  0  0  0  0  0  0  0  0
   64.1074   34.7109   47.4909 H   0  0  0  0  0  0  0  0  0  0  0  0
   62.6510   33.9600   48.9110 C   0  0  0  0  0  0  0  0  0  0  0  0
   62.6049   34.9036   49.4745 H   0  0  0  0  0  0  0  0  0  0  0  0
   61.8600   32.8670   49.3080 C   0  0  0  0  0  0  0  0  0  0  0  0
   60.9590   32.9710   50.5100 C   0  0  0  0  0  0  0  0  0  0  0  0
   61.3868   33.7015   51.2124 H   0  0  0  0  0  0  0  0  0  0  0  0
   60.8871   31.9735   50.9680 H   0  0  0  0  0  0  0  0  0  0  0  0
   59.5670   33.4130   50.1360 C   0  0  0  0  0  0  0  0  0  0  0  0
   59.3750   34.5820   49.7050 O   0  0  0  0  0  0  0  0  0  0  0  0
   58.4520   32.5140   50.1840 N   0  0  0  0  0  0  0  0  0  0  0  0
   58.3620   31.0880   51.1670 S   0  0  0  0  0  0  0  0  0  0  0  0
   56.9260   30.6540   51.2670 O   0  0  0  0  0  0  0  0  0  0  0  0
   58.8640   31.3930   52.5510 O   0  0  0  0  0  0  0  0  0  0  0  0
   59.2890   29.7830   50.4320 C   0  0  0  0  0  0  0  0  0  0  0  0
   60.3200   29.1740   51.1570 C   0  0  0  0  0  0  0  0  0  0  0  0
   60.5484   29.5146   52.1777 H   0  0  0  0  0  0  0  0  0  0  0  0
   61.0600   28.1340   50.5870 C   0  0  0  0  0  0  0  0  0  0  0  0
   61.8633   27.6513   51.1629 H   0  0  0  0  0  0  0  0  0  0  0  0
   60.7800   27.7070   49.2860 C   0  0  0  0  0  0  0  0  0  0  0  0
   61.3557   26.8799   48.8450 H   0  0  0  0  0  0  0  0  0  0  0  0
   59.7710   28.3270   48.5430 C   0  0  0  0  0  0  0  0  0  0  0  0
   59.4830   27.8620   47.2170 N   0  0  0  0  0  0  0  0  0  0  0  0
   58.4470   27.1870   46.7900 C   0  0  0  0  0  0  0  0  0  0  0  0
   58.1000   26.0670   47.4830 N   0  0  0  0  0  0  0  0  0  0  0  0
   57.0540   25.2840   47.1190 C   0  0  0  0  0  0  0  0  0  0  0  0
   56.7250   24.1430   47.8570 C   0  0  0  0  0  0  0  0  0  0  0  0
   57.3148   23.8715   48.7449 H   0  0  0  0  0  0  0  0  0  0  0  0
   55.6430   23.3470   47.4630 C   0  0  0  0  0  0  0  0  0  0  0  0
   55.3821   22.4489   48.0420 H   0  0  0  0  0  0  0  0  0  0  0  0
   54.8920   23.6930   46.3320 C   0  0  0  0  0  0  0  0  0  0  0  0
   54.0427   23.0651   46.0247 H   0  0  0  0  0  0  0  0  0  0  0  0
   55.2190   24.8350   45.5920 C   0  0  0  0  0  0  0  0  0  0  0  0
   54.6280   25.1061   44.7048 H   0  0  0  0  0  0  0  0  0  0  0  0
   56.3000   25.6300   45.9850 C   0  0  0  0  0  0  0  0  0  0  0  0
   56.6400   26.7350   45.2760 N   0  0  0  0  0  0  0  0  0  0  0  0
   57.6890   27.5280   45.6310 C   0  0  0  0  0  0  0  0  0  0  0  0
   58.0000   28.5590   44.9050 N   0  0  0  0  0  0  0  0  0  0  0  0
   56.9750   29.9050   44.5100 S   0  0  0  0  0  0  0  0  0  0  0  0
   55.6270   29.6930   45.1400 O   0  0  0  0  0  0  0  0  0  0  0  0
   56.7840   30.0340   43.0240 O   0  0  0  0  0  0  0  0  0  0  0  0
   57.7010   31.3730   45.1470 C   0  0  0  0  0  0  0  0  0  0  0  0
   58.5390   31.3040   46.2680 C   0  0  0  0  0  0  0  0  0  0  0  0
   58.7392   30.3327   46.7439 H   0  0  0  0  0  0  0  0  0  0  0  0
   59.1220   32.4670   46.7840 C   0  0  0  0  0  0  0  0  0  0  0  0
   59.7816   32.4063   47.6622 H   0  0  0  0  0  0  0  0  0  0  0  0
   58.8680   33.7100   46.1850 C   0  0  0  0  0  0  0  0  0  0  0  0
   59.5120   34.9550   46.7210 C   0  0  0  0  0  0  0  0  0  0  0  0
   59.4992   34.9302   47.8206 H   0  0  0  0  0  0  0  0  0  0  0  0
   60.5522   35.0111   46.3676 H   0  0  0  0  0  0  0  0  0  0  0  0
   58.9567   35.8363   46.3676 H   0  0  0  0  0  0  0  0  0  0  0  0
   58.0560   33.7720   45.0420 C   0  0  0  0  0  0  0  0  0  0  0  0
   57.8766   34.7389   44.5492 H   0  0  0  0  0  0  0  0  0  0  0  0
   57.4740   32.6090   44.5270 C   0  0  0  0  0  0  0  0  0  0  0  0
   56.8362   32.6648   43.6326 H   0  0  0  0  0  0  0  0  0  0  0  0
   59.0010   29.3440   49.1320 C   0  0  0  0  0  0  0  0  0  0  0  0
   58.1699   29.7970   48.5716 H   0  0  0  0  0  0  0  0  0  0  0  0
   61.9440   31.6610   48.5930 C   0  0  0  0  0  0  0  0  0  0  0  0
   61.3416   30.7955   48.9060 H   0  0  0  0  0  0  0  0  0  0  0  0
   62.7910   31.5560   47.4840 C   0  0  0  0  0  0  0  0  0  0  0  0
   62.8479   30.6113   46.9234 H   0  0  0  0  0  0  0  0  0  0  0  0
  1  2  1  0
  2  3  2  0
  3  4  1  0
  3  5  1  0
  5  6  1  0
  5  7  2  0
  7  8  1  0
  8  9  1  0
  8 10  1  0
  8 11  1  0
 11 12  2  0
 11 13  1  0
 13 14  1  0
 14 15  2  0
 14 16  2  0
 14 17  1  0
 17 18  2  0
 18 19  1  0
 18 20  1  0
 20 21  1  0
 20 22  2  0
 22 23  1  0
 22 24  1  0
 24 25  1  0
 25 26  2  0
 26 27  1  0
 27 28  1  0
 28 29  2  0
 29 30  1  0
 29 31  1  0
 31 32  1  0
 31 33  2  0
 33 34  1  0
 33 35  1  0
 35 36  1  0
 35 37  2  0
 37 38  1  0
 38 39  1  0
 39 40  2  3
 40 41  1  0
 41 42  2  0
 41 43  2  0
 41 44  1  0
 44 45  2  0
 45 46  1  0
 45 47  1  0
 47 48  1  0
 47 49  2  0
 49 50  1  0
 50 51  1  0
 50 52  1  0
 50 53  1  0
 49 54  1  0
 54 55  1  0
 54 56  2  0
 56 57  1  0
 24 58  2  0
 58 59  1  0
  7 60  1  0
 60 61  1  0
 60 62  2  0
 62 63  1  0
 62  2  1  0
 58 17  1  0
 39 26  1  0
 56 44  1  0
 37 28  1  0
M  CHG  3  13  -1  27  -1  38  -1
M  END
>  <UniqueID>  (20) 
16

>  <SMILES>  (20) 
Cc1ccc(S(=O)(=O)N=c2[n-]c3ccccc3[n-]/c2=N/c2cccc(S(=O)(=O)[N-]C(=O)Cc3ccccc3)c2)cc1

>  <Energy>  (20) 
91.53819061203295

>  <Genealogy>  (20) 
Cc1ccc(S(=O)(=O)N=c2[n-]c3ccccc3[n-]c2=Nc2cccc(S(=O)(=O)[N-]C(=O)Cc3ccccc3)c2)cc1 (protonated)
Cc1ccc(S(=O)(=O)N=c2[n-]c3ccccc3[n-]/c2=N/c2cccc(S(=O)(=O)[N-]C(=O)Cc3ccccc3)c2)cc1 (cis-trans isomerization)
Cc1ccc(S(=O)(=O)N=c2[n-]c3ccccc3[n-]/c2=N/c2cccc(S(=O)(=O)[N-]C(=O)Cc3ccccc3)c2)cc1 (3D coordinates assigned)
Cc1ccc(S(=O)(=O)N=c2[n-]c3ccccc3[n-]/c2=N/c2cccc(S(=O)(=O)[N-]C(=O)Cc3ccccc3)c2)cc1 (optimized conformer: 91.53819061203295 kcal/mol)

>  <smiles>  (20) 
Cc1ccc(S(=O)(=O)N=c2[nH]c3ccccc3[nH]c2=Nc2cccc(S(=O)(=O)NC(=O)Cc3ccccc3)c2)cc1

>  <score_type>  (20) 
oracle

>  <origin>  (20) 
adg

>  <m_score__min__energy>  (20) 
-15.640000000000001

>  <m_primary>  (20) 
energy

$$$$
20:0
     RDKit          3D

 50 54  0  0  0  0  0  0  0  0999 V2000
   52.9084   30.5091   50.2735 H   0  0  0  0  0  0  0  0  0  0  0  0
   52.9260   30.6360   51.3660 C   0  0  0  0  0  0  0  0  0  0  0  0
   51.8300   31.3990   51.9840 C   0  0  0  0  0  0  0  0  0  0  0  0
   51.5790   31.3970   53.3040 N   0  0  0  0  0  0  0  0  0  0  0  0
   50.5860   32.3030   53.4370 C   0  0  0  0  0  0  0  0  0  0  0  0
   50.0580   32.5730   54.5470 O   0  0  0  0  0  0  0  0  0  0  0  0
   50.2110   32.9050   52.2880 N   0  0  0  0  0  0  0  0  0  0  0  0
   51.0180   32.3320   51.3800 C   0  0  0  0  0  0  0  0  0  0  0  0
   51.0410   32.6910   50.0380 O   0  0  0  0  0  0  0  0  0  0  0  0
   53.9440   30.0850   52.0410 C   0  0  0  0  0  0  0  0  0  0  0  0
   53.8480   29.0230   52.9400 C   0  0  0  0  0  0  0  0  0  0  0  0
   52.9134   28.5097   53.2104 H   0  0  0  0  0  0  0  0  0  0  0  0
   55.0720   28.7150   53.4320 N   0  0  0  0  0  0  0  0  0  0  0  0
   55.9310   29.5410   52.8590 N   0  0  0  0  0  0  0  0  0  0  0  0
   57.2760   29.5830   53.0230 C   0  0  0  0  0  0  0  0  0  0  0  0
   57.8540   28.7660   53.8630 N   0  0  0  0  0  0  0  0  0  0  0  0
   58.9060   27.7460   53.6980 C   0  0  0  0  0  0  0  0  0  0  0  0
   58.2176   26.9106   53.8933 H   0  0  0  0  0  0  0  0  0  0  0  0
   59.9890   28.0250   52.6670 C   0  0  0  0  0  0  0  0  0  0  0  0
   60.4001   27.2020   52.0639 H   0  0  0  0  0  0  0  0  0  0  0  0
   60.0900   28.7042   51.8077 H   0  0  0  0  0  0  0  0  0  0  0  0
   60.3080   28.1130   54.1620 C   0  0  0  0  0  0  0  0  0  0  0  0
   60.9483   27.3533   54.6341 H   0  0  0  0  0  0  0  0  0  0  0  0
   60.7334   28.8816   54.8240 H   0  0  0  0  0  0  0  0  0  0  0  0
   57.9740   30.4920   52.2860 N   0  0  0  0  0  0  0  0  0  0  0  0
   57.3410   31.3190   51.4030 C   0  0  0  0  0  0  0  0  0  0  0  0
   58.0450   32.1650   50.7110 N   0  0  0  0  0  0  0  0  0  0  0  0
   59.0720   31.8060   49.7340 C   0  0  0  0  0  0  0  0  0  0  0  0
   58.9503   30.7506   49.4490 H   0  0  0  0  0  0  0  0  0  0  0  0
   60.0651   31.9599   50.1814 H   0  0  0  0  0  0  0  0  0  0  0  0
   58.9430   32.6710   48.5090 C   0  0  0  0  0  0  0  0  0  0  0  0
   59.7570   33.8040   48.3600 C   0  0  0  0  0  0  0  0  0  0  0  0
   60.4733   34.0727   49.1504 H   0  0  0  0  0  0  0  0  0  0  0  0
   59.6600   34.5920   47.2100 C   0  0  0  0  0  0  0  0  0  0  0  0
   60.2918   35.4861   47.1033 H   0  0  0  0  0  0  0  0  0  0  0  0
   58.7630   34.2480   46.1950 C   0  0  0  0  0  0  0  0  0  0  0  0
   58.6896   34.8730   45.2928 H   0  0  0  0  0  0  0  0  0  0  0  0
   57.9540   33.1050   46.3240 C   0  0  0  0  0  0  0  0  0  0  0  0
   57.0250   32.7020   45.3080 N   0  0  0  0  0  0  0  0  0  0  0  0
   57.1030   31.2350   44.3870 S   0  0  0  0  0  0  0  0  0  0  0  0
   55.8220   30.4650   44.5420 O   0  0  0  0  0  0  0  0  0  0  0  0
   58.2360   30.3990   44.9110 O   0  0  0  0  0  0  0  0  0  0  0  0
   57.4080   31.6000   42.6710 C   0  0  0  0  0  0  0  0  0  0  0  0
   58.1116   32.4421   42.5947 H   0  0  0  0  0  0  0  0  0  0  0  0
   57.8396   30.7158   42.1791 H   0  0  0  0  0  0  0  0  0  0  0  0
   56.4612   31.8676   42.1791 H   0  0  0  0  0  0  0  0  0  0  0  0
   58.0540   32.3240   47.4820 C   0  0  0  0  0  0  0  0  0  0  0  0
   57.4268   31.4265   47.5872 H   0  0  0  0  0  0  0  0  0  0  0  0
   55.9820   31.2530   51.2590 N   0  0  0  0  0  0  0  0  0  0  0  0
   55.2990   30.3650   52.0180 C   0  0  0  0  0  0  0  0  0  0  0  0
  1  2  1  0
  2  3  1  0
  3  4  1  0
  4  5  1  0
  5  6  2  0
  5  7  1  0
  7  8  1  0
  8  9  1  0
  2 10  2  3
 10 11  1  0
 11 12  1  0
 11 13  2  0
 13 14  1  0
 14 15  1  0
 15 16  2  3
 16 17  1  0
 17 18  1  0
 17 19  1  0
 19 20  1  0
 19 21  1  0
 19 22  1  0
 22 23  1  0
 22 24  1  0
 15 25  1  0
 25 26  1  0
 26 27  2  0
 27 28  1  0
 28 29  1  0
 28 30  1  0
 28 31  1  0
 31 32  2  0
 32 33  1  0
 32 34  1  0
 34 35  1  0
 34 36  2  0
 36 37  1  0
 36 38  1  0
 38 39  1  0
 39 40  1  0
 40 41  2  0
 40 42  2  0
 40 43  1  0
 43 44  1  0
 43 45  1  0
 43 46  1  0
 38 47  2  0
 47 48  1  0
 26 49  1  0
 49 50  2  0
  8  3  2  0
 50 10  1  0
 50 14  1  0
 22 17  1  0
 47 31  1  0
M  CHG  5   4  -1   7  -1   9  -1  25  -1  39  -1
M  END
>  <UniqueID>  (21) 
17

>  <SMILES>  (21) 
CS(=O)(=O)[N-]c1cccc(C/N=c2\nc3c(=Cc4[n-]c(=O)[n-]c4[O-])cnn3c(=NC3CC3)[n-]2)c1

>  <Energy>  (21) 
400.55923710408894

>  <Genealogy>  (21) 
CS(=O)(=O)[N-]c1cccc(CN=c2nc3c(=Cc4[n-]c(=O)[n-]c4[O-])cnn3c(=NC3CC3)[n-]2)c1 (protonated)
CS(=O)(=O)[N-]c1cccc(C/N=c2\nc3c(=Cc4[n-]c(=O)[n-]c4[O-])cnn3c(=NC3CC3)[n-]2)c1 (cis-trans isomerization)
CS(=O)(=O)[N-]c1cccc(C/N=c2\nc3c(=Cc4[n-]c(=O)[n-]c4[O-])cnn3c(=NC3CC3)[n-]2)c1 (3D coordinates assigned)
CS(=O)(=O)[N-]c1cccc(C/N=c2\nc3c(=Cc4[n-]c(=O)[n-]c4[O-])cnn3c(=NC3CC3)[n-]2)c1 (nonaromatic ring conformer: 400.55923710408894 kcal/mol)

>  <smiles>  (21) 
CS(=O)(=O)Nc1cccc(CN=c2nc3c(=Cc4[nH]c(=O)[nH]c4O)cnn3c(=NC3CC3)[nH]2)c1

>  <score_type>  (21) 
oracle

>  <origin>  (21) 
adg

>  <m_score__min__energy>  (21) 
-21.140000000000001

>  <m_primary>  (21) 
energy

$$$$
21:0
     RDKit          3D

 39 41  0  0  0  0  0  0  0  0999 V2000
   56.0273   27.4695   45.4609 H   0  0  0  0  0  0  0  0  0  0  0  0
   56.7040   28.2940   45.1920 C   0  0  0  0  0  0  0  0  0  0  0  0
   56.2530   29.5770   45.2070 N   0  0  0  0  0  0  0  0  0  0  0  0
   57.0570   30.6280   44.8790 C   0  0  0  0  0  0  0  0  0  0  0  0
   56.6040   31.8450   44.8920 N   0  0  0  0  0  0  0  0  0  0  0  0
   57.6060   33.2490   44.6960 S   0  0  0  0  0  0  0  0  0  0  0  0
   58.2090   33.2310   43.3190 O   0  0  0  0  0  0  0  0  0  0  0  0
   56.7630   34.4830   44.8480 O   0  0  0  0  0  0  0  0  0  0  0  0
   58.8690   33.2630   45.9240 C   0  0  0  0  0  0  0  0  0  0  0  0
   60.1050   33.8670   45.6660 C   0  0  0  0  0  0  0  0  0  0  0  0
   60.2892   34.3429   44.6915 H   0  0  0  0  0  0  0  0  0  0  0  0
   61.1060   33.8680   46.6410 C   0  0  0  0  0  0  0  0  0  0  0  0
   62.0730   34.3479   46.4297 H   0  0  0  0  0  0  0  0  0  0  0  0
   60.8870   33.2600   47.8910 C   0  0  0  0  0  0  0  0  0  0  0  0
   61.9530   33.2680   48.9220 C   0  0  0  0  0  0  0  0  0  0  0  0
   61.6920   33.6890   50.0820 O   0  0  0  0  0  0  0  0  0  0  0  0
   63.2910   32.8490   48.6020 N   0  0  0  0  0  0  0  0  0  0  0  0
   63.6150   32.9550   47.6140 H   0  0  0  0  0  0  0  0  0  0  0  0
   64.2560   32.4400   49.5860 C   0  0  0  0  0  0  0  0  0  0  0  0
   63.9320   31.4090   50.4830 C   0  0  0  0  0  0  0  0  0  0  0  0
   62.9521   30.9138   50.4152 H   0  0  0  0  0  0  0  0  0  0  0  0
   64.8460   31.0080   51.4610 C   0  0  0  0  0  0  0  0  0  0  0  0
   64.5876   30.1930   52.1531 H   0  0  0  0  0  0  0  0  0  0  0  0
   66.0880   31.6410   51.5610 C   0  0  0  0  0  0  0  0  0  0  0  0
   66.8085   31.3200   52.3277 H   0  0  0  0  0  0  0  0  0  0  0  0
   66.4150   32.6820   50.6870 C   0  0  0  0  0  0  0  0  0  0  0  0
   67.9650   33.4900   50.8280 Cl  0  0  0  0  0  0  0  0  0  0  0  0
   65.5010   33.0850   49.7060 C   0  0  0  0  0  0  0  0  0  0  0  0
   65.7574   33.9102   49.0254 H   0  0  0  0  0  0  0  0  0  0  0  0
   59.6360   32.6690   48.1480 C   0  0  0  0  0  0  0  0  0  0  0  0
   59.4435   32.2019   49.1251 H   0  0  0  0  0  0  0  0  0  0  0  0
   58.6370   32.6710   47.1720 C   0  0  0  0  0  0  0  0  0  0  0  0
   57.6633   32.2054   47.3844 H   0  0  0  0  0  0  0  0  0  0  0  0
   58.3900   30.3920   44.5170 C   0  0  0  0  0  0  0  0  0  0  0  0
   59.0498   31.2310   44.2510 H   0  0  0  0  0  0  0  0  0  0  0  0
   58.8730   29.0820   44.4970 C   0  0  0  0  0  0  0  0  0  0  0  0
   59.9178   28.8840   44.2156 H   0  0  0  0  0  0  0  0  0  0  0  0
   58.0270   28.0240   44.8350 C   0  0  0  0  0  0  0  0  0  0  0  0
   58.3985   26.9887   44.8203 H   0  0  0  0  0  0  0  0  0  0  0  0
  1  2  1  0
  2  3  1  0
  3  4  1  0
  4  5  2  0
  5  6  1  0
  6  7  2  0
  6  8  2  0
  6  9  1  0
  9 10  2  0
 10 11  1  0
 10 12  1  0
 12 13  1  0
 12 14  2  0
 14 15  1  0
 15 16  2  0
 15 17  1  0
 17 18  1  0
 17 19  1  0
 19 20  2  0
 20 21  1  0
 20 22  1  0
 22 23  1  0
 22 24  2  0
 24 25  1  0
 24 26  1  0
 26 27  1  0
 26 28  2  0
 28 29  1  0
 14 30  1  0
 30 31  1  0
 30 32  2  0
 32 33  1  0
  4 34  1  0
 34 35  1  0
 34 36  2  0
 36 37  1  0
 36 38  1  0
 38 39  1  0
 38  2  2  0
 32  9  1  0
 28 19  1  0
M  CHG  1   3  -1
M  END
>  <UniqueID>  (22) 
18

>  <SMILES>  (22) 
O=C(Nc1cccc(Cl)c1)c1ccc(S(=O)(=O)/N=c2/cccc[n-]2)cc1

>  <Energy>  (22) 
51.011729826894886

>  <Genealogy>  (22) 
O=C(Nc1cccc(Cl)c1)c1ccc(S(=O)(=O)N=c2cccc[n-]2)cc1 (protonated)
O=C(Nc1cccc(Cl)c1)c1ccc(S(=O)(=O)/N=c2/cccc[n-]2)cc1 (cis-trans isomerization)
O=C(Nc1cccc(Cl)c1)c1ccc(S(=O)(=O)/N=c2/cccc[n-]2)cc1 (3D coordinates assigned)
O=C(Nc1cccc(Cl)c1)c1ccc(S(=O)(=O)/N=c2/cccc[n-]2)cc1 (optimized conformer: 51.011729826894886 kcal/mol)

>  <smiles>  (22) 
O=C(Nc1cccc(Cl)c1)c1ccc(S(=O)(=O)N=c2cccc[nH]2)cc1

>  <score_type>  (22) 
oracle

>  <origin>  (22) 
adg

>  <m_score__min__energy>  (22) 
-9.9700000000000006

>  <m_primary>  (22) 
energy

$$$$
22:0
     RDKit          3D

 58 61  0  0  1  0  0  0  0  0999 V2000
   57.7420   32.4080   51.6400 C   0  0  0  0  0  0  0  0  0  0  0  0
   58.4900   31.1700   51.3790 N   0  0  0  0  0  0  0  0  0  0  0  0
   59.2870   31.1410   50.2980 C   0  0  0  0  0  0  0  0  0  0  0  0
   60.0370   29.9860   49.9760 C   0  0  0  0  0  0  0  0  0  0  0  0
   60.8890   30.1010   48.7890 C   0  0  0  0  0  0  0  0  0  0  0  0
   60.2340   29.5760   47.5880 C   0  0  0  0  0  0  0  0  0  0  0  0
   59.8710   28.2640   47.6490 N   0  0  0  0  0  0  0  0  0  0  0  0
   59.2150   27.6190   46.6830 C   0  0  0  0  0  0  0  0  0  0  0  0
   58.8490   26.2520   46.7280 N   0  0  0  0  0  0  0  0  0  0  0  0
   59.6050   25.2120   46.0140 C   0  0  0  0  0  0  0  0  0  0  0  0
   58.7310   23.9770   45.9610 C   0  0  0  0  0  0  0  0  0  0  0  0
   57.4130   24.2300   45.6560 O   0  0  0  0  0  0  0  0  0  0  0  0
   56.7730   25.1130   46.5040 C   0  0  0  0  0  0  0  0  0  0  0  0
   57.7070   25.7610   47.4950 C   0  0  0  0  0  0  0  0  0  0  0  0
   58.8880   28.3150   45.5720 N   0  0  0  0  0  0  0  0  0  0  0  0
   59.2220   29.6210   45.4520 C   0  0  0  0  0  0  0  0  0  0  0  0
   58.8950   30.2790   44.4340 N   0  0  0  0  0  0  0  0  0  0  0  0
   57.3840   30.6380   43.7920 S   0  0  0  0  0  0  0  0  0  0  0  0
   57.3700   31.6240   42.3240 C   0  0  0  0  0  0  0  0  0  0  0  0
   56.2170   30.7720   44.6850 O   0  0  0  0  0  0  0  0  0  0  0  0
   57.0250   29.2270   43.1940 O   0  0  0  0  0  0  0  0  0  0  0  0
   59.9010   30.2620   46.4580 C   0  0  0  0  0  0  0  0  0  0  0  0
   60.2670   31.5870   46.3620 O   0  0  0  0  0  0  0  0  0  0  0  0
   59.2780   32.5750   46.0820 C   0  0  0  0  0  0  0  0  0  0  0  0
   58.0140   32.4530   46.6490 C   0  0  0  0  0  0  0  0  0  0  0  0
   57.0760   33.4160   46.3690 C   0  0  0  0  0  0  0  0  0  0  0  0
   57.4100   34.4720   45.5350 C   0  0  0  0  0  0  0  0  0  0  0  0
   58.6610   34.6060   44.9630 C   0  0  0  0  0  0  0  0  0  0  0  0
   59.6050   33.6290   45.2520 C   0  0  0  0  0  0  0  0  0  0  0  0
   59.8870   28.9380   50.8260 C   0  0  0  0  0  0  0  0  0  0  0  0
   60.4870   27.8600   50.6530 O   0  0  0  0  0  0  0  0  0  0  0  0
   59.0690   28.9830   51.9260 N   0  0  0  0  0  0  0  0  0  0  0  0
   58.3630   30.1170   52.2020 C   0  0  0  0  0  0  0  0  0  0  0  0
   57.6210   30.1340   53.2160 O   0  0  0  0  0  0  0  0  0  0  0  0
   57.6506   32.5592   52.7257 H   0  0  0  0  0  0  0  0  0  0  0  0
   58.2765   33.2601   51.1948 H   0  0  0  0  0  0  0  0  0  0  0  0
   56.7391   32.3312   51.1948 H   0  0  0  0  0  0  0  0  0  0  0  0
   59.3574   32.0294   49.6532 H   0  0  0  0  0  0  0  0  0  0  0  0
   61.1300   31.1619   48.6267 H   0  0  0  0  0  0  0  0  0  0  0  0
   61.7984   29.5080   48.9658 H   0  0  0  0  0  0  0  0  0  0  0  0
   60.1050   27.6770   48.5070 H   0  0  0  0  0  0  0  0  0  0  0  0
   59.8403   25.5507   44.9943 H   0  0  0  0  0  0  0  0  0  0  0  0
   60.5529   24.9967   46.5289 H   0  0  0  0  0  0  0  0  0  0  0  0
   59.1379   23.2993   45.1961 H   0  0  0  0  0  0  0  0  0  0  0  0
   58.7429   23.5384   46.9697 H   0  0  0  0  0  0  0  0  0  0  0  0
   56.3025   25.9017   45.8985 H   0  0  0  0  0  0  0  0  0  0  0  0
   56.0314   24.5383   47.0783 H   0  0  0  0  0  0  0  0  0  0  0  0
   57.2026   26.5964   48.0026 H   0  0  0  0  0  0  0  0  0  0  0  0
   58.0247   25.0463   48.2685 H   0  0  0  0  0  0  0  0  0  0  0  0
   57.3549   32.6892   42.5979 H   0  0  0  0  0  0  0  0  0  0  0  0
   58.2713   31.4108   41.7305 H   0  0  0  0  0  0  0  0  0  0  0  0
   56.4752   31.3853   41.7305 H   0  0  0  0  0  0  0  0  0  0  0  0
   57.7713   31.6050   47.3063 H   0  0  0  0  0  0  0  0  0  0  0  0
   56.0674   33.3501   46.8030 H   0  0  0  0  0  0  0  0  0  0  0  0
   56.6475   35.2350   45.3196 H   0  0  0  0  0  0  0  0  0  0  0  0
   58.8999   35.4539   44.3042 H   0  0  0  0  0  0  0  0  0  0  0  0
   60.6141   33.6949   44.8192 H   0  0  0  0  0  0  0  0  0  0  0  0
   58.9860   28.1680   52.5430 H   0  0  0  0  0  0  0  0  0  0  0  0
  1  2  1  0
  2  3  1  0
  3  4  2  0
  4  5  1  0
  5  6  1  0
  6  7  1  0
  7  8  1  0
  8  9  1  0
  9 10  1  0
 10 11  1  0
 11 12  1  0
 12 13  1  0
 13 14  1  0
  8 15  2  0
 15 16  1  0
 16 17  2  0
 17 18  1  0
 18 19  1  0
 18 20  2  0
 18 21  2  0
 16 22  1  0
 22 23  1  0
 23 24  1  0
 24 25  2  0
 25 26  1  0
 26 27  2  0
 27 28  1  0
 28 29  2  0
  4 30  1  0
 30 31  2  0
 30 32  1  0
 32 33  1  0
 33 34  2  0
 33  2  1  0
 22  6  2  0
 29 24  1  0
 14  9  1  0
  1 35  1  0
  1 36  1  0
  1 37  1  0
  3 38  1  0
  5 39  1  0
  5 40  1  0
  7 41  1  0
 10 42  1  0
 10 43  1  0
 11 44  1  0
 11 45  1  0
 13 46  1  0
 13 47  1  0
 14 48  1  0
 14 49  1  0
 19 50  1  0
 19 51  1  0
 19 52  1  0
 25 53  1  0
 26 54  1  0
 27 55  1  0
 28 56  1  0
 29 57  1  0
 32 58  1  0
M  END
>  <smiles>  (23) 
Cn1cc(Cc2[nH]c(N3CCOCC3)nc(=NS(C)(=O)=O)c2Oc2ccccc2)c(=O)[nH]c1=O

>  <score_type>  (23) 
oracle

>  <origin>  (23) 
adg

>  <m_score__min__energy>  (23) 
-8.3800000000000008

>  <m_primary>  (23) 
energy

$$$$
23:0
     RDKit          3D

 35 36  0  0  0  0  0  0  0  0999 V2000
   55.2360   29.9770   44.1170 C   0  0  0  0  0  0  0  0  0  0  0  0
   55.9980   29.3120   45.1650 N   0  0  0  0  0  0  0  0  0  0  0  0
   57.2580   28.6610   44.9600 C   0  0  0  0  0  0  0  0  0  0  0  0
   57.3900   27.8880   43.9750 O   0  0  0  0  0  0  0  0  0  0  0  0
   58.3950   28.8510   45.8850 C   0  0  0  0  0  0  0  0  0  0  0  0
   59.2560   29.9440   45.7080 C   0  0  0  0  0  0  0  0  0  0  0  0
   60.3340   30.1390   46.5700 C   0  0  0  0  0  0  0  0  0  0  0  0
   60.5820   29.2320   47.5990 C   0  0  0  0  0  0  0  0  0  0  0  0
   59.7560   28.1110   47.7760 C   0  0  0  0  0  0  0  0  0  0  0  0
   60.0910   27.1300   48.8680 C   0  0  0  0  0  0  0  0  0  0  0  0
   58.6300   27.9380   46.9340 C   0  0  0  0  0  0  0  0  0  0  0  0
   57.7310   26.8340   47.1140 N   0  0  0  0  0  0  0  0  0  0  0  0
   57.8570   25.5800   46.4340 C   0  0  0  0  0  0  0  0  0  0  0  0
   58.9990   25.1490   46.1190 O   0  0  0  0  0  0  0  0  0  0  0  0
   56.6540   24.7600   46.1840 C   0  0  0  0  0  0  0  0  0  0  0  0
   56.7840   23.3580   46.1770 C   0  0  0  0  0  0  0  0  0  0  0  0
   55.6890   22.5440   45.8820 C   0  0  0  0  0  0  0  0  0  0  0  0
   54.4500   23.1150   45.5910 C   0  0  0  0  0  0  0  0  0  0  0  0
   53.3640   22.3020   45.2860 O   0  0  0  0  0  0  0  0  0  0  0  0
   54.3000   24.5030   45.6110 C   0  0  0  0  0  0  0  0  0  0  0  0
   55.3840   25.3330   45.9240 C   0  0  0  0  0  0  0  0  0  0  0  0
   55.1510   26.7080   46.0000 O   0  0  0  0  0  0  0  0  0  0  0  0
   54.4819   30.6351   44.5733 H   0  0  0  0  0  0  0  0  0  0  0  0
   55.9158   30.5758   43.4931 H   0  0  0  0  0  0  0  0  0  0  0  0
   54.7347   29.2224   43.4931 H   0  0  0  0  0  0  0  0  0  0  0  0
   59.0796   30.6514   44.8843 H   0  0  0  0  0  0  0  0  0  0  0  0
   60.9910   31.0113   46.4378 H   0  0  0  0  0  0  0  0  0  0  0  0
   61.4319   29.3961   48.2778 H   0  0  0  0  0  0  0  0  0  0  0  0
   59.9295   27.6029   49.8479 H   0  0  0  0  0  0  0  0  0  0  0  0
   59.4442   26.2450   48.7769 H   0  0  0  0  0  0  0  0  0  0  0  0
   61.1441   26.8254   48.7769 H   0  0  0  0  0  0  0  0  0  0  0  0
   57.7575   22.8999   46.4061 H   0  0  0  0  0  0  0  0  0  0  0  0
   55.8034   21.4500   45.8790 H   0  0  0  0  0  0  0  0  0  0  0  0
   53.3215   24.9488   45.3788 H   0  0  0  0  0  0  0  0  0  0  0  0
   55.8840   27.3910   46.1370 H   0  0  0  0  0  0  0  0  0  0  0  0
  1  2  1  0
  2  3  1  0
  3  4  2  0
  3  5  1  0
  5  6  2  0
  6  7  1  0
  7  8  2  0
  8  9  1  0
  9 10  1  0
  9 11  2  0
 11 12  1  0
 12 13  1  0
 13 14  2  0
 13 15  1  0
 15 16  2  0
 16 17  1  0
 17 18  2  0
 18 19  1  0
 18 20  1  0
 20 21  2  0
 21 22  1  0
 11  5  1  0
 21 15  1  0
  1 23  1  0
  1 24  1  0
  1 25  1  0
  6 26  1  0
  7 27  1  0
  8 28  1  0
 10 29  1  0
 10 30  1  0
 10 31  1  0
 16 32  1  0
 17 33  1  0
 20 34  1  0
 22 35  1  0
M  CHG  3   2  -1  12  -1  19  -1
M  END
>  <UniqueID>  (24) 
19

>  <SMILES>  (24) 
C[N-]C(=O)c1cccc(C)c1[N-]C(=O)c1ccc([O-])cc1O

>  <Energy>  (24) 
51.81126904085344

>  <Genealogy>  (24) 
C[N-]C(=O)c1cccc(C)c1[N-]C(=O)c1ccc([O-])cc1O (protonated)
C[N-]C(=O)c1cccc(C)c1[N-]C(=O)c1ccc([O-])cc1O (3D coordinates assigned)
C[N-]C(=O)c1cccc(C)c1[N-]C(=O)c1ccc([O-])cc1O (optimized conformer: 51.81126904085344 kcal/mol)

>  <smiles>  (24) 
CNC(=O)c1cccc(C)c1NC(=O)c1ccc(O)cc1O

>  <score_type>  (24) 
oracle

>  <origin>  (24) 
adg

>  <m_score__min__energy>  (24) 
-12.199999999999999

>  <m_primary>  (24) 
energy

$$$$
24:0
     RDKit          3D

 39 41  0  0  0  0  0  0  0  0999 V2000
   57.4160   28.3850   43.8570 O   0  0  0  0  0  0  0  0  0  0  0  0
   57.1360   28.9130   44.9660 C   0  0  0  0  0  0  0  0  0  0  0  0
   57.3980   28.1630   46.2320 C   0  0  0  0  0  0  0  0  0  0  0  0
   57.2010   26.7320   46.0100 N   0  0  0  0  0  0  0  0  0  0  0  0
   56.0200   26.0880   45.8850 C   0  0  0  0  0  0  0  0  0  0  0  0
   54.7780   26.7020   45.9960 O   0  0  0  0  0  0  0  0  0  0  0  0
   56.2280   24.7490   45.6180 C   0  0  0  0  0  0  0  0  0  0  0  0
   57.5910   24.5780   45.5250 C   0  0  0  0  0  0  0  0  0  0  0  0
   58.1610   25.8080   45.7850 C   0  0  0  0  0  0  0  0  0  0  0  0
   59.5250   26.0760   45.8060 O   0  0  0  0  0  0  0  0  0  0  0  0
   58.2560   23.2570   45.2810 C   0  0  0  0  0  0  0  0  0  0  0  0
   57.2520   22.2600   44.6670 C   0  0  0  0  0  0  0  0  0  0  0  0
   55.8940   22.2870   45.4010 C   0  0  0  0  0  0  0  0  0  0  0  0
   55.2270   23.6750   45.3200 C   0  0  0  0  0  0  0  0  0  0  0  0
   56.6320   30.2170   45.0350 O   0  0  0  0  0  0  0  0  0  0  0  0
   57.0790   31.2730   44.1870 C   0  0  0  0  0  0  0  0  0  0  0  0
   57.7480   32.3500   44.9970 C   0  0  0  0  0  0  0  0  0  0  0  0
   57.9910   33.6080   44.4230 C   0  0  0  0  0  0  0  0  0  0  0  0
   58.6280   34.6080   45.1640 C   0  0  0  0  0  0  0  0  0  0  0  0
   59.0310   34.3570   46.4800 C   0  0  0  0  0  0  0  0  0  0  0  0
   59.6500   35.3270   47.1960 F   0  0  0  0  0  0  0  0  0  0  0  0
   58.7970   33.1040   47.0550 C   0  0  0  0  0  0  0  0  0  0  0  0
   58.1590   32.1020   46.3180 C   0  0  0  0  0  0  0  0  0  0  0  0
   58.4339   28.3431   46.5553 H   0  0  0  0  0  0  0  0  0  0  0  0
   56.7012   28.5090   47.0097 H   0  0  0  0  0  0  0  0  0  0  0  0
   59.0987   23.3971   44.5881 H   0  0  0  0  0  0  0  0  0  0  0  0
   58.6195   22.8561   46.2387 H   0  0  0  0  0  0  0  0  0  0  0  0
   57.0910   22.5220   43.6109 H   0  0  0  0  0  0  0  0  0  0  0  0
   57.6726   21.2483   44.7642 H   0  0  0  0  0  0  0  0  0  0  0  0
   55.2260   21.5436   44.9415 H   0  0  0  0  0  0  0  0  0  0  0  0
   56.0736   22.0552   46.4612 H   0  0  0  0  0  0  0  0  0  0  0  0
   54.8233   23.8255   44.3079 H   0  0  0  0  0  0  0  0  0  0  0  0
   54.4149   23.7263   46.0601 H   0  0  0  0  0  0  0  0  0  0  0  0
   57.7960   30.8715   43.4557 H   0  0  0  0  0  0  0  0  0  0  0  0
   56.2107   31.7050   43.6679 H   0  0  0  0  0  0  0  0  0  0  0  0
   57.6793   33.8075   43.3871 H   0  0  0  0  0  0  0  0  0  0  0  0
   58.8126   35.5935   44.7116 H   0  0  0  0  0  0  0  0  0  0  0  0
   59.1155   32.9064   48.0892 H   0  0  0  0  0  0  0  0  0  0  0  0
   57.9782   31.1170   46.7731 H   0  0  0  0  0  0  0  0  0  0  0  0
  1  2  2  0
  2  3  1  0
  3  4  1  0
  4  5  1  0
  5  6  1  0
  5  7  2  0
  7  8  1  0
  8  9  2  0
  9 10  1  0
  8 11  1  0
 11 12  1  0
 12 13  1  0
 13 14  1  0
  2 15  1  0
 15 16  1  0
 16 17  1  0
 17 18  2  0
 18 19  1  0
 19 20  2  0
 20 21  1  0
 20 22  1  0
 22 23  2  0
  9  4  1  0
 23 17  1  0
 14  7  1  0
  3 24  1  0
  3 25  1  0
 11 26  1  0
 11 27  1  0
 12 28  1  0
 12 29  1  0
 13 30  1  0
 13 31  1  0
 14 32  1  0
 14 33  1  0
 16 34  1  0
 16 35  1  0
 18 36  1  0
 19 37  1  0
 22 38  1  0
 23 39  1  0
M  CHG  2   6  -1  10  -1
M  END
>  <UniqueID>  (25) 
20

>  <SMILES>  (25) 
O=C(Cn1c([O-])c2c(c1[O-])CCCC2)OCc1ccc(F)cc1

>  <Energy>  (25) 
65.2697929182127

>  <Genealogy>  (25) 
O=C(Cn1c([O-])c2c(c1[O-])CCCC2)OCc1ccc(F)cc1 (protonated)
O=C(Cn1c([O-])c2c(c1[O-])CCCC2)OCc1ccc(F)cc1 (3D coordinates assigned)
O=C(Cn1c([O-])c2c(c1[O-])CCCC2)OCc1ccc(F)cc1 (nonaromatic ring conformer: 65.2697929182127 kcal/mol)

>  <smiles>  (25) 
O=C(Cn1c(O)c2c(c1O)CCCC2)OCc1ccc(F)cc1

>  <score_type>  (25) 
oracle

>  <origin>  (25) 
adg

>  <m_score__min__energy>  (25) 
-12.050000000000001

>  <m_primary>  (25) 
energy

$$$$
25:0
     RDKit          3D

 49 51  0  0  0  0  0  0  0  0999 V2000
   58.3040   32.3020   49.8370 C   0  0  0  0  0  0  0  0  0  0  0  0
   59.4760   32.8230   49.0360 C   0  0  0  0  0  0  0  0  0  0  0  0
   60.7290   32.8640   49.6650 C   0  0  0  0  0  0  0  0  0  0  0  0
   61.8480   33.3410   48.9850 C   0  0  0  0  0  0  0  0  0  0  0  0
   63.1770   33.3850   49.6480 C   0  0  0  0  0  0  0  0  0  0  0  0
   64.2640   32.6590   49.1210 C   0  0  0  0  0  0  0  0  0  0  0  0
   65.5130   32.7020   49.7470 C   0  0  0  0  0  0  0  0  0  0  0  0
   65.6940   33.4670   50.9000 C   0  0  0  0  0  0  0  0  0  0  0  0
   64.6250   34.1910   51.4320 C   0  0  0  0  0  0  0  0  0  0  0  0
   63.3720   34.1520   50.8120 C   0  0  0  0  0  0  0  0  0  0  0  0
   61.6960   33.7750   47.6680 C   0  0  0  0  0  0  0  0  0  0  0  0
   60.4410   33.7300   47.0430 C   0  0  0  0  0  0  0  0  0  0  0  0
   60.3530   34.2140   45.6130 C   0  0  0  0  0  0  0  0  0  0  0  0
   59.3340   33.2770   47.7380 N   0  0  0  0  0  0  0  0  0  0  0  0
   58.0000   33.2450   47.0900 C   0  0  0  0  0  0  0  0  0  0  0  0
   57.7750   31.9660   46.3290 C   0  0  0  0  0  0  0  0  0  0  0  0
   57.2450   32.0280   45.1860 O   0  0  0  0  0  0  0  0  0  0  0  0
   58.1640   30.6940   46.8760 N   0  0  0  0  0  0  0  0  0  0  0  0
   58.2580   29.4860   46.1030 C   0  0  0  0  0  0  0  0  0  0  0  0
   59.1510   29.4280   45.0240 C   0  0  0  0  0  0  0  0  0  0  0  0
   59.2470   28.2700   44.2480 C   0  0  0  0  0  0  0  0  0  0  0  0
   58.4400   27.1650   44.5320 C   0  0  0  0  0  0  0  0  0  0  0  0
   57.5200   27.2200   45.5870 C   0  0  0  0  0  0  0  0  0  0  0  0
   56.4930   25.8360   45.9460 S   0  0  0  0  0  0  0  0  0  0  0  0
   54.8370   26.3300   45.9400 N   0  0  0  0  0  0  0  0  0  0  0  0
   56.7030   24.7670   44.9100 O   0  0  0  0  0  0  0  0  0  0  0  0
   56.8400   25.2740   47.2960 O   0  0  0  0  0  0  0  0  0  0  0  0
   57.4300   28.3800   46.3700 C   0  0  0  0  0  0  0  0  0  0  0  0
   58.5218   32.3988   50.9109 H   0  0  0  0  0  0  0  0  0  0  0  0
   57.4040   32.8848   49.5914 H   0  0  0  0  0  0  0  0  0  0  0  0
   58.1337   31.2434   49.5914 H   0  0  0  0  0  0  0  0  0  0  0  0
   60.8293   32.5167   50.7039 H   0  0  0  0  0  0  0  0  0  0  0  0
   64.1287   32.0550   48.2117 H   0  0  0  0  0  0  0  0  0  0  0  0
   66.3556   32.1312   49.3296 H   0  0  0  0  0  0  0  0  0  0  0  0
   66.6785   33.4997   51.3896 H   0  0  0  0  0  0  0  0  0  0  0  0
   64.7688   34.7935   52.3410 H   0  0  0  0  0  0  0  0  0  0  0  0
   62.5339   34.7241   51.2365 H   0  0  0  0  0  0  0  0  0  0  0  0
   62.5674   34.1556   47.1151 H   0  0  0  0  0  0  0  0  0  0  0  0
   60.1562   35.2962   45.6036 H   0  0  0  0  0  0  0  0  0  0  0  0
   61.3030   34.0096   45.0976 H   0  0  0  0  0  0  0  0  0  0  0  0
   59.5357   33.6883   45.0976 H   0  0  0  0  0  0  0  0  0  0  0  0
   57.2257   33.3379   47.8658 H   0  0  0  0  0  0  0  0  0  0  0  0
   57.9485   34.0798   46.3755 H   0  0  0  0  0  0  0  0  0  0  0  0
   58.2910   30.6130   47.9100 H   0  0  0  0  0  0  0  0  0  0  0  0
   59.7797   30.2990   44.7869 H   0  0  0  0  0  0  0  0  0  0  0  0
   59.9598   28.2280   43.4112 H   0  0  0  0  0  0  0  0  0  0  0  0
   58.5273   26.2509   43.9264 H   0  0  0  0  0  0  0  0  0  0  0  0
   54.7420   27.0840   46.6570 H   0  0  0  0  0  0  0  0  0  0  0  0
   56.7075   28.4256   47.1982 H   0  0  0  0  0  0  0  0  0  0  0  0
  1  2  1  0
  2  3  2  0
  3  4  1  0
  4  5  1  0
  5  6  2  0
  6  7  1  0
  7  8  2  0
  8  9  1  0
  9 10  2  0
  4 11  2  0
 11 12  1  0
 12 13  1  0
 12 14  2  0
 14 15  1  0
 15 16  1  0
 16 17  2  0
 16 18  1  0
 18 19  1  0
 19 20  2  0
 20 21  1  0
 21 22  2  0
 22 23  1  0
 23 24  1  0
 24 25  1  0
 24 26  2  0
 24 27  2  0
 23 28  2  0
 14  2  1  0
 28 19  1  0
 10  5  1  0
  1 29  1  0
  1 30  1  0
  1 31  1  0
  3 32  1  0
  6 33  1  0
  7 34  1  0
  8 35  1  0
  9 36  1  0
 10 37  1  0
 11 38  1  0
 13 39  1  0
 13 40  1  0
 13 41  1  0
 15 42  1  0
 15 43  1  0
 18 44  1  0
 20 45  1  0
 21 46  1  0
 22 47  1  0
 25 48  1  0
 28 49  1  0
M  CHG  2  14   1  25  -1
M  END
>  <UniqueID>  (26) 
21

>  <SMILES>  (26) 
Cc1cc(-c2ccccc2)cc(C)[n+]1CC(=O)Nc1cccc(S([NH-])(=O)=O)c1

>  <Energy>  (26) 
64.99382719044667

>  <Genealogy>  (26) 
Cc1cc(-c2ccccc2)cc(C)[n+]1CC(=O)Nc1cccc(S([NH-])(=O)=O)c1 (protonated)
Cc1cc(-c2ccccc2)cc(C)[n+]1CC(=O)Nc1cccc(S([NH-])(=O)=O)c1 (3D coordinates assigned)
Cc1cc(-c2ccccc2)cc(C)[n+]1CC(=O)Nc1cccc(S([NH-])(=O)=O)c1 (optimized conformer: 64.99382719044667 kcal/mol)

>  <smiles>  (26) 
Cc1cc(-c2ccccc2)cc(C)[n+]1CC(=O)Nc1cccc(S(N)(=O)=O)c1

>  <score_type>  (26) 
oracle

>  <origin>  (26) 
adg

>  <m_score__min__energy>  (26) 
-10.460000000000001

>  <m_primary>  (26) 
energy

$$$$
26:0
     RDKit          3D

 57 60  0  0  0  0  0  0  0  0999 V2000
   61.2690   28.1790   51.8260 C   0  0  0  0  0  0  0  0  0  0  0  0
   61.3410   29.7230   50.9440 S   0  0  0  0  0  0  0  0  0  0  0  0
   62.7810   30.0680   50.6800 O   0  0  0  0  0  0  0  0  0  0  0  0
   60.7250   30.8120   51.7750 O   0  0  0  0  0  0  0  0  0  0  0  0
   60.4610   29.5750   49.4260 C   0  0  0  0  0  0  0  0  0  0  0  0
   61.1150   29.8410   48.2150 C   0  0  0  0  0  0  0  0  0  0  0  0
   60.4290   29.7260   47.0020 C   0  0  0  0  0  0  0  0  0  0  0  0
   59.0800   29.3420   46.9880 C   0  0  0  0  0  0  0  0  0  0  0  0
   58.3700   29.2400   45.7410 N   0  0  0  0  0  0  0  0  0  0  0  0
   58.6530   30.2420   44.7010 C   0  0  0  0  0  0  0  0  0  0  0  0
   58.3320   31.6250   45.2010 C   0  0  0  0  0  0  0  0  0  0  0  0
   57.1090   32.2260   44.8660 C   0  0  0  0  0  0  0  0  0  0  0  0
   56.8340   33.5340   45.2720 C   0  0  0  0  0  0  0  0  0  0  0  0
   57.7730   34.2490   46.0200 C   0  0  0  0  0  0  0  0  0  0  0  0
   58.9930   33.6510   46.3800 C   0  0  0  0  0  0  0  0  0  0  0  0
   59.9730   34.3460   47.1020 O   0  0  0  0  0  0  0  0  0  0  0  0
   61.1620   33.7900   47.5960 C   0  0  0  0  0  0  0  0  0  0  0  0
   62.2350   33.6010   46.7140 C   0  0  0  0  0  0  0  0  0  0  0  0
   63.4290   33.0320   47.1670 C   0  0  0  0  0  0  0  0  0  0  0  0
   63.5510   32.6320   48.5010 C   0  0  0  0  0  0  0  0  0  0  0  0
   62.4800   32.8010   49.3830 C   0  0  0  0  0  0  0  0  0  0  0  0
   61.2870   33.3720   48.9340 C   0  0  0  0  0  0  0  0  0  0  0  0
   59.2660   32.3450   45.9630 C   0  0  0  0  0  0  0  0  0  0  0  0
   57.2740   28.3010   45.6230 C   0  0  0  0  0  0  0  0  0  0  0  0
   56.1360   28.7060   45.2590 O   0  0  0  0  0  0  0  0  0  0  0  0
   57.4380   26.8640   45.9120 C   0  0  0  0  0  0  0  0  0  0  0  0
   58.7230   26.3110   46.0390 C   0  0  0  0  0  0  0  0  0  0  0  0
   58.8810   24.9510   46.3150 C   0  0  0  0  0  0  0  0  0  0  0  0
   57.7590   24.1340   46.4810 C   0  0  0  0  0  0  0  0  0  0  0  0
   57.9200   22.7810   46.7560 O   0  0  0  0  0  0  0  0  0  0  0  0
   56.4760   24.6780   46.3730 C   0  0  0  0  0  0  0  0  0  0  0  0
   56.3100   26.0430   46.0940 C   0  0  0  0  0  0  0  0  0  0  0  0
   55.0270   26.5810   45.9780 O   0  0  0  0  0  0  0  0  0  0  0  0
   58.4220   29.0870   48.2020 C   0  0  0  0  0  0  0  0  0  0  0  0
   59.1090   29.2000   49.4140 C   0  0  0  0  0  0  0  0  0  0  0  0
   61.2781   28.3743   52.9085 H   0  0  0  0  0  0  0  0  0  0  0  0
   60.3450   27.6460   51.5573 H   0  0  0  0  0  0  0  0  0  0  0  0
   62.1394   27.5623   51.5573 H   0  0  0  0  0  0  0  0  0  0  0  0
   62.1731   30.1417   48.2190 H   0  0  0  0  0  0  0  0  0  0  0  0
   60.9488   29.9373   46.0559 H   0  0  0  0  0  0  0  0  0  0  0  0
   59.7182   30.1927   44.4310 H   0  0  0  0  0  0  0  0  0  0  0  0
   58.0288   30.0278   43.8210 H   0  0  0  0  0  0  0  0  0  0  0  0
   56.3645   31.6653   44.2818 H   0  0  0  0  0  0  0  0  0  0  0  0
   55.8759   34.0023   45.0022 H   0  0  0  0  0  0  0  0  0  0  0  0
   57.5568   35.2827   46.3279 H   0  0  0  0  0  0  0  0  0  0  0  0
   62.1371   33.9018   45.6605 H   0  0  0  0  0  0  0  0  0  0  0  0
   64.2726   32.8990   46.4737 H   0  0  0  0  0  0  0  0  0  0  0  0
   64.4905   32.1840   48.8567 H   0  0  0  0  0  0  0  0  0  0  0  0
   62.5768   32.4840   50.4319 H   0  0  0  0  0  0  0  0  0  0  0  0
   60.4427   33.4953   49.6282 H   0  0  0  0  0  0  0  0  0  0  0  0
   60.2232   31.8762   46.2349 H   0  0  0  0  0  0  0  0  0  0  0  0
   59.6090   26.9521   45.9205 H   0  0  0  0  0  0  0  0  0  0  0  0
   59.8902   24.5221   46.4019 H   0  0  0  0  0  0  0  0  0  0  0  0
   55.5942   24.0343   46.5071 H   0  0  0  0  0  0  0  0  0  0  0  0
   54.7910   27.4830   46.3750 H   0  0  0  0  0  0  0  0  0  0  0  0
   57.3609   28.7970   48.1992 H   0  0  0  0  0  0  0  0  0  0  0  0
   58.5883   28.9944   50.3609 H   0  0  0  0  0  0  0  0  0  0  0  0
  1  2  1  0
  2  3  2  0
  2  4  2  0
  2  5  1  0
  5  6  2  0
  6  7  1  0
  7  8  2  0
  8  9  1  0
  9 10  1  0
 10 11  1  0
 11 12  2  0
 12 13  1  0
 13 14  2  0
 14 15  1  0
 15 16  1  0
 16 17  1  0
 17 18  2  0
 18 19  1  0
 19 20  2  0
 20 21  1  0
 21 22  2  0
 15 23  2  0
  9 24  1  0
 24 25  2  0
 24 26  1  0
 26 27  2  0
 27 28  1  0
 28 29  2  0
 29 30  1  0
 29 31  1  0
 31 32  2  0
 32 33  1  0
  8 34  1  0
 34 35  2  0
 35  5  1  0
 23 11  1  0
 32 26  1  0
 22 17  1  0
  1 36  1  0
  1 37  1  0
  1 38  1  0
  6 39  1  0
  7 40  1  0
 10 41  1  0
 10 42  1  0
 12 43  1  0
 13 44  1  0
 14 45  1  0
 18 46  1  0
 19 47  1  0
 20 48  1  0
 21 49  1  0
 22 50  1  0
 23 51  1  0
 27 52  1  0
 28 53  1  0
 31 54  1  0
 33 55  1  0
 34 56  1  0
 35 57  1  0
M  CHG  1  30  -1
M  END
>  <UniqueID>  (27) 
22

>  <SMILES>  (27) 
CS(=O)(=O)c1ccc(N(Cc2cccc(Oc3ccccc3)c2)C(=O)c2ccc([O-])cc2O)cc1

>  <Energy>  (27) 
75.45822291553554

>  <Genealogy>  (27) 
CS(=O)(=O)c1ccc(N(Cc2cccc(Oc3ccccc3)c2)C(=O)c2ccc([O-])cc2O)cc1 (protonated)
CS(=O)(=O)c1ccc(N(Cc2cccc(Oc3ccccc3)c2)C(=O)c2ccc([O-])cc2O)cc1 (3D coordinates assigned)
CS(=O)(=O)c1ccc(N(Cc2cccc(Oc3ccccc3)c2)C(=O)c2ccc([O-])cc2O)cc1 (optimized conformer: 75.45822291553554 kcal/mol)

>  <smiles>  (27) 
CS(=O)(=O)c1ccc(N(Cc2cccc(Oc3ccccc3)c2)C(=O)c2ccc(O)cc2O)cc1

>  <score_type>  (27) 
oracle

>  <origin>  (27) 
adg

>  <m_score__min__energy>  (27) 
-12.15

>  <m_primary>  (27) 
energy

$$$$
27:0
     RDKit          3D

 61 64  0  0  0  0  0  0  0  0999 V2000
   54.4320   29.3510   45.6190 H   0  0  0  0  0  0  0  0  0  0  0  0
   55.1590   29.3740   44.8710 N   0  0  0  0  0  0  0  0  0  0  0  0
   56.4000   28.6990   45.0420 C   0  0  0  0  0  0  0  0  0  0  0  0
   56.4530   27.6620   45.7530 O   0  0  0  0  0  0  0  0  0  0  0  0
   57.6420   29.2390   44.4020 C   0  0  0  0  0  0  0  0  0  0  0  0
   57.5366   29.1873   43.3083 H   0  0  0  0  0  0  0  0  0  0  0  0
   58.5010   28.6358   44.7311 H   0  0  0  0  0  0  0  0  0  0  0  0
   57.8710   30.6750   44.8110 C   0  0  0  0  0  0  0  0  0  0  0  0
   57.2330   31.6850   44.0670 C   0  0  0  0  0  0  0  0  0  0  0  0
   56.5983   31.4103   43.2117 H   0  0  0  0  0  0  0  0  0  0  0  0
   57.3950   33.0300   44.4000 C   0  0  0  0  0  0  0  0  0  0  0  0
   56.8878   33.8074   43.8098 H   0  0  0  0  0  0  0  0  0  0  0  0
   58.1990   33.3890   45.4800 C   0  0  0  0  0  0  0  0  0  0  0  0
   58.3330   34.4504   45.7358 H   0  0  0  0  0  0  0  0  0  0  0  0
   58.8340   32.4050   46.2370 C   0  0  0  0  0  0  0  0  0  0  0  0
   59.4747   32.6991   47.0814 H   0  0  0  0  0  0  0  0  0  0  0  0
   58.6660   31.0400   45.9350 C   0  0  0  0  0  0  0  0  0  0  0  0
   59.3820   30.0250   46.8000 C   0  0  0  0  0  0  0  0  0  0  0  0
   59.1734   29.0150   46.4174 H   0  0  0  0  0  0  0  0  0  0  0  0
   59.0201   30.1272   47.8337 H   0  0  0  0  0  0  0  0  0  0  0  0
   60.8970   30.2640   46.7860 C   0  0  0  0  0  0  0  0  0  0  0  0
   61.1140   31.1624   46.1895 H   0  0  0  0  0  0  0  0  0  0  0  0
   61.3869   29.3824   46.3469 H   0  0  0  0  0  0  0  0  0  0  0  0
   61.4260   30.4610   48.1850 C   0  0  0  0  0  0  0  0  0  0  0  0
   61.0260   29.5680   49.1320 N   0  0  0  0  0  0  0  0  0  0  0  0
   61.4460   29.6490   50.4220 C   0  0  0  0  0  0  0  0  0  0  0  0
   61.0700   28.7870   51.3190 N   0  0  0  0  0  0  0  0  0  0  0  0
   59.8890   28.8390   52.1310 C   0  0  0  0  0  0  0  0  0  0  0  0
   58.7530   29.4890   51.7980 N   0  0  0  0  0  0  0  0  0  0  0  0
   57.8000   29.3590   52.7630 C   0  0  0  0  0  0  0  0  0  0  0  0
   56.4740   29.9740   52.6230 C   0  0  0  0  0  0  0  0  0  0  0  0
   55.4920   29.2560   52.2990 O   0  0  0  0  0  0  0  0  0  0  0  0
   56.3050   31.3800   52.8450 N   0  0  0  0  0  0  0  0  0  0  0  0
   57.3910   32.3380   53.0650 C   0  0  2  0  0  0  0  0  0  0  0  0
   56.9803   33.3243   53.3269 H   0  0  0  0  0  0  0  0  0  0  0  0
   58.1710   32.5670   51.7800 C   0  0  0  0  0  0  0  0  0  0  0  0
   57.8090   31.9810   50.5490 C   0  0  0  0  0  0  0  0  0  0  0  0
   56.9632   31.2789   50.5070 H   0  0  0  0  0  0  0  0  0  0  0  0
   58.5160   32.2850   49.3820 C   0  0  0  0  0  0  0  0  0  0  0  0
   58.2185   31.8290   48.4262 H   0  0  0  0  0  0  0  0  0  0  0  0
   59.5990   33.1660   49.4260 C   0  0  0  0  0  0  0  0  0  0  0  0
   60.1592   33.3968   48.5079 H   0  0  0  0  0  0  0  0  0  0  0  0
   59.9690   33.7530   50.6370 C   0  0  0  0  0  0  0  0  0  0  0  0
   60.8221   34.4465   50.6729 H   0  0  0  0  0  0  0  0  0  0  0  0
   59.2570   33.4610   51.8050 C   0  0  0  0  0  0  0  0  0  0  0  0
   59.5493   33.9355   52.7534 H   0  0  0  0  0  0  0  0  0  0  0  0
   58.2350   31.9240   54.2760 C   0  0  0  0  0  0  0  0  0  0  0  0
   57.7014   32.1858   55.2016 H   0  0  0  0  0  0  0  0  0  0  0  0
   58.4091   30.8382   54.2477 H   0  0  0  0  0  0  0  0  0  0  0  0
   59.2002   32.4509   54.2477 H   0  0  0  0  0  0  0  0  0  0  0  0
   58.1790   28.5960   53.8660 C   0  0  0  0  0  0  0  0  0  0  0  0
   57.5538   28.3714   54.7427 H   0  0  0  0  0  0  0  0  0  0  0  0
   59.7580   28.0800   53.6210 S   0  0  0  0  0  0  0  0  0  0  0  0
   62.2880   30.6440   50.7850 N   0  0  0  0  0  0  0  0  0  0  0  0
   62.7230   31.5720   49.8970 C   0  0  0  0  0  0  0  0  0  0  0  0
   63.5210   32.4590   50.3000 O   0  0  0  0  0  0  0  0  0  0  0  0
   62.2890   31.5320   48.5500 C   0  0  0  0  0  0  0  0  0  0  0  0
   62.8000   32.5330   47.5180 C   0  0  0  0  0  0  0  0  0  0  0  0
   63.7490   31.9900   46.6710 F   0  0  0  0  0  0  0  0  0  0  0  0
   61.7390   32.9730   46.7480 F   0  0  0  0  0  0  0  0  0  0  0  0
   63.3860   33.6150   48.1440 F   0  0  0  0  0  0  0  0  0  0  0  0
  1  2  1  0
  2  3  1  0
  3  4  2  0
  3  5  1  0
  5  6  1  0
  5  7  1  0
  5  8  1  0
  8  9  2  0
  9 10  1  0
  9 11  1  0
 11 12  1  0
 11 13  2  0
 13 14  1  0
 13 15  1  0
 15 16  1  0
 15 17  2  0
 17 18  1  0
 18 19  1  0
 18 20  1  0
 18 21  1  0
 21 22  1  0
 21 23  1  0
 21 24  1  0
 24 25  1  0
 25 26  1  0
 26 27  2  0
 27 28  1  0
 28 29  2  0
 29 30  1  0
 30 31  1  0
 31 32  2  0
 31 33  1  0
 33 34  1  0
 34 35  1  1
 34 36  1  0
 36 37  2  0
 37 38  1  0
 37 39  1  0
 39 40  1  0
 39 41  2  0
 41 42  1  0
 41 43  1  0
 43 44  1  0
 43 45  2  0
 45 46  1  0
 34 47  1  0
 47 48  1  0
 47 49  1  0
 47 50  1  0
 30 51  2  0
 51 52  1  0
 51 53  1  0
 26 54  1  0
 54 55  1  0
 55 56  2  0
 55 57  1  0
 57 58  1  0
 58 59  1  0
 58 60  1  0
 58 61  1  0
 17  8  1  0
 57 24  2  0
 53 28  1  0
 45 36  1  0
M  CHG  4   2  -1  25  -1  33  -1  54  -1
M  END
>  <UniqueID>  (28) 
23

>  <SMILES>  (28) 
C[C@H]([N-]C(=O)c1csc(/N=c2\[n-]c(CCc3ccccc3CC([NH-])=O)c(C(F)(F)F)c(=O)[n-]2)n1)c1ccccc1

>  <Energy>  (28) 
96.45816414410339

>  <Genealogy>  (28) 
CC([N-]C(=O)c1csc(N=c2[n-]c(CCc3ccccc3CC([NH-])=O)c(C(F)(F)F)c(=O)[n-]2)n1)c1ccccc1 (protonated)
C[C@H]([N-]C(=O)c1csc(N=c2[n-]c(CCc3ccccc3CC([NH-])=O)c(C(F)(F)F)c(=O)[n-]2)n1)c1ccccc1 (chirality)
C[C@H]([N-]C(=O)c1csc(/N=c2\[n-]c(CCc3ccccc3CC([NH-])=O)c(C(F)(F)F)c(=O)[n-]2)n1)c1ccccc1 (cis-trans isomerization)
C[C@H]([N-]C(=O)c1csc(/N=c2\[n-]c(CCc3ccccc3CC([NH-])=O)c(C(F)(F)F)c(=O)[n-]2)n1)c1ccccc1 (3D coordinates assigned)
C[C@H]([N-]C(=O)c1csc(/N=c2\[n-]c(CCc3ccccc3CC([NH-])=O)c(C(F)(F)F)c(=O)[n-]2)n1)c1ccccc1 (optimized conformer: 96.45816414410339 kcal/mol)

>  <smiles>  (28) 
CC(NC(=O)c1csc(N=c2[nH]c(CCc3ccccc3CC(N)=O)c(C(F)(F)F)c(=O)[nH]2)n1)c1ccccc1

>  <score_type>  (28) 
oracle

>  <origin>  (28) 
adg

>  <m_score__min__energy>  (28) 
-18

>  <m_primary>  (28) 
energy

$$$$
28:0
     RDKit          3D

 43 46  0  0  0  0  0  0  0  0999 V2000
   54.9470   23.6420   44.2770 N   0  0  0  0  0  0  0  0  0  0  0  0
   56.6380   23.8220   43.9750 S   0  0  0  0  0  0  0  0  0  0  0  0
   56.8790   23.8970   42.4930 O   0  0  0  0  0  0  0  0  0  0  0  0
   57.3760   22.6330   44.5250 O   0  0  0  0  0  0  0  0  0  0  0  0
   57.2150   25.2920   44.7490 C   0  0  0  0  0  0  0  0  0  0  0  0
   57.9170   26.2520   44.0060 C   0  0  0  0  0  0  0  0  0  0  0  0
   58.3610   27.4270   44.6170 C   0  0  0  0  0  0  0  0  0  0  0  0
   58.1060   27.6610   45.9770 C   0  0  0  0  0  0  0  0  0  0  0  0
   58.5360   28.8930   46.5920 N   0  0  0  0  0  0  0  0  0  0  0  0
   59.5910   28.8480   47.5750 C   0  0  0  0  0  0  0  0  0  0  0  0
   60.0820   27.7390   47.9270 O   0  0  0  0  0  0  0  0  0  0  0  0
   60.0930   30.0930   48.1750 C   0  0  0  0  0  0  0  0  0  0  0  0
   61.1140   30.0840   49.1420 C   0  0  0  0  0  0  0  0  0  0  0  0
   61.5880   31.2860   49.6740 C   0  0  0  0  0  0  0  0  0  0  0  0
   61.0510   32.5010   49.2450 C   0  0  0  0  0  0  0  0  0  0  0  0
   60.0360   32.5160   48.2850 C   0  0  0  0  0  0  0  0  0  0  0  0
   59.5490   31.3120   47.7520 C   0  0  0  0  0  0  0  0  0  0  0  0
   58.5100   31.3300   46.7660 N   0  0  0  0  0  0  0  0  0  0  0  0
   57.7540   30.1330   46.3830 C   0  0  1  0  0  0  0  0  0  0  0  0
   57.3440   30.2630   44.9260 C   0  0  0  0  0  0  0  0  0  0  0  0
   58.0610   31.1300   44.0820 C   0  0  0  0  0  0  0  0  0  0  0  0
   57.7150   31.2550   42.7340 C   0  0  0  0  0  0  0  0  0  0  0  0
   56.6470   30.5210   42.2140 C   0  0  0  0  0  0  0  0  0  0  0  0
   55.9220   29.6610   43.0430 C   0  0  0  0  0  0  0  0  0  0  0  0
   56.2620   29.5300   44.3940 C   0  0  0  0  0  0  0  0  0  0  0  0
   55.5210   28.6670   45.1950 O   0  0  0  0  0  0  0  0  0  0  0  0
   57.3980   26.6990   46.7180 C   0  0  0  0  0  0  0  0  0  0  0  0
   56.9550   25.5240   46.1060 C   0  0  0  0  0  0  0  0  0  0  0  0
   54.8200   22.7320   44.7760 H   0  0  0  0  0  0  0  0  0  0  0  0
   58.1187   26.0792   42.9385 H   0  0  0  0  0  0  0  0  0  0  0  0
   58.9141   28.1737   44.0284 H   0  0  0  0  0  0  0  0  0  0  0  0
   61.5406   29.1282   49.4805 H   0  0  0  0  0  0  0  0  0  0  0  0
   62.3853   31.2748   50.4318 H   0  0  0  0  0  0  0  0  0  0  0  0
   61.4270   33.4466   49.6628 H   0  0  0  0  0  0  0  0  0  0  0  0
   59.6169   33.4747   47.9456 H   0  0  0  0  0  0  0  0  0  0  0  0
   58.1400   32.2590   46.4560 H   0  0  0  0  0  0  0  0  0  0  0  0
   56.8632   30.0589   47.0241 H   0  0  0  0  0  0  0  0  0  0  0  0
   58.9008   31.7143   44.4863 H   0  0  0  0  0  0  0  0  0  0  0  0
   58.2849   31.9327   42.0814 H   0  0  0  0  0  0  0  0  0  0  0  0
   56.3766   30.6197   41.1523 H   0  0  0  0  0  0  0  0  0  0  0  0
   55.0803   29.0844   42.6318 H   0  0  0  0  0  0  0  0  0  0  0  0
   57.1919   26.8722   47.7845 H   0  0  0  0  0  0  0  0  0  0  0  0
   56.3994   24.7773   46.6923 H   0  0  0  0  0  0  0  0  0  0  0  0
  1  2  1  0
  2  3  2  0
  2  4  2  0
  2  5  1  0
  5  6  2  0
  6  7  1  0
  7  8  2  0
  8  9  1  0
  9 10  1  0
 10 11  2  0
 10 12  1  0
 12 13  2  0
 13 14  1  0
 14 15  2  0
 15 16  1  0
 16 17  2  0
 17 18  1  0
 18 19  1  0
 19 20  1  0
 20 21  2  0
 21 22  1  0
 22 23  2  0
 23 24  1  0
 24 25  2  0
 25 26  1  0
  8 27  1  0
 27 28  2  0
 28  5  1  0
 19  9  1  0
 25 20  1  0
 17 12  1  0
  1 29  1  0
  6 30  1  0
  7 31  1  0
 13 32  1  0
 14 33  1  0
 15 34  1  0
 16 35  1  0
 18 36  1  0
 19 37  1  1
 21 38  1  0
 22 39  1  0
 23 40  1  0
 24 41  1  0
 27 42  1  0
 28 43  1  0
M  CHG  2   1  -1  26  -1
M  END
>  <UniqueID>  (29) 
24

>  <SMILES>  (29) 
[NH-]S(=O)(=O)c1ccc(N2C(=O)c3ccccc3N[C@H]2c2ccccc2[O-])cc1

>  <Energy>  (29) 
56.27982097528899

>  <Genealogy>  (29) 
[NH-]S(=O)(=O)c1ccc(N2C(=O)c3ccccc3NC2c2ccccc2[O-])cc1 (protonated)
[NH-]S(=O)(=O)c1ccc(N2C(=O)c3ccccc3N[C@H]2c2ccccc2[O-])cc1 (chirality)
[NH-]S(=O)(=O)c1ccc(N2C(=O)c3ccccc3N[C@H]2c2ccccc2[O-])cc1 (3D coordinates assigned)
[NH-]S(=O)(=O)c1ccc(N2C(=O)c3ccccc3N[C@H]2c2ccccc2[O-])cc1 (nonaromatic ring conformer: 56.27982097528899 kcal/mol)

>  <smiles>  (29) 
NS(=O)(=O)c1ccc(N2C(=O)c3ccccc3NC2c2ccccc2O)cc1

>  <score_type>  (29) 
oracle

>  <origin>  (29) 
adg

>  <m_score__min__energy>  (29) 
-12.23

>  <m_primary>  (29) 
energy

$$$$
29:0
     RDKit          3D

 37 38  0  0  0  0  0  0  0  0999 V2000
   56.4394   34.2822   45.1443 H   0  0  0  0  0  0  0  0  0  0  0  0
   57.4070   33.8650   45.4600 C   0  0  0  0  0  0  0  0  0  0  0  0
   57.7960   32.5230   44.9810 C   0  0  0  0  0  0  0  0  0  0  0  0
   58.2270   32.3680   43.8060 O   0  0  0  0  0  0  0  0  0  0  0  0
   57.6470   31.3920   45.8530 N   0  0  0  0  0  0  0  0  0  0  0  0
   57.0590   31.5090   46.7100 H   0  0  0  0  0  0  0  0  0  0  0  0
   58.1750   30.0850   45.5650 C   0  0  0  0  0  0  0  0  0  0  0  0
   59.5310   29.7900   45.7980 C   0  0  0  0  0  0  0  0  0  0  0  0
   60.2013   30.5721   46.1839 H   0  0  0  0  0  0  0  0  0  0  0  0
   60.0320   28.5120   45.5430 C   0  0  0  0  0  0  0  0  0  0  0  0
   61.0952   28.2930   45.7209 H   0  0  0  0  0  0  0  0  0  0  0  0
   59.1860   27.5130   45.0630 C   0  0  0  0  0  0  0  0  0  0  0  0
   59.5847   26.5088   44.8565 H   0  0  0  0  0  0  0  0  0  0  0  0
   57.8350   27.7840   44.8440 C   0  0  0  0  0  0  0  0  0  0  0  0
   57.1716   26.9896   44.4715 H   0  0  0  0  0  0  0  0  0  0  0  0
   57.3150   29.0690   45.0970 C   0  0  0  0  0  0  0  0  0  0  0  0
   55.9600   29.3760   44.8860 O   0  0  0  0  0  0  0  0  0  0  0  0
   55.4060   29.7720   43.6360 C   0  0  0  0  0  0  0  0  0  0  0  0
   54.5224   30.4036   43.8102 H   0  0  0  0  0  0  0  0  0  0  0  0
   56.1560   30.3399   43.0659 H   0  0  0  0  0  0  0  0  0  0  0  0
   55.1115   28.8785   43.0659 H   0  0  0  0  0  0  0  0  0  0  0  0
   58.1940   34.5920   46.2670 C   0  0  0  0  0  0  0  0  0  0  0  0
   57.8596   35.6017   46.5476 H   0  0  0  0  0  0  0  0  0  0  0  0
   59.4910   34.1090   46.8020 C   0  0  0  0  0  0  0  0  0  0  0  0
   59.6080   33.4900   48.0620 C   0  0  0  0  0  0  0  0  0  0  0  0
   58.7154   33.3589   48.6914 H   0  0  0  0  0  0  0  0  0  0  0  0
   60.8520   33.0410   48.5180 C   0  0  0  0  0  0  0  0  0  0  0  0
   60.9286   32.5529   49.5008 H   0  0  0  0  0  0  0  0  0  0  0  0
   62.0040   33.2080   47.7320 C   0  0  0  0  0  0  0  0  0  0  0  0
   63.3340   32.6790   48.2050 C   0  0  0  0  0  0  0  0  0  0  0  0
   63.2300   32.1710   49.4890 F   0  0  0  0  0  0  0  0  0  0  0  0
   63.7510   31.6710   47.3550 F   0  0  0  0  0  0  0  0  0  0  0  0
   64.2860   33.6840   48.2140 F   0  0  0  0  0  0  0  0  0  0  0  0
   61.8800   33.7850   46.4590 C   0  0  0  0  0  0  0  0  0  0  0  0
   62.7672   33.8855   45.8166 H   0  0  0  0  0  0  0  0  0  0  0  0
   60.6380   34.2330   46.0010 C   0  0  0  0  0  0  0  0  0  0  0  0
   60.5579   34.6876   45.0025 H   0  0  0  0  0  0  0  0  0  0  0  0
  1  2  1  0
  2  3  1  0
  3  4  2  0
  3  5  1  0
  5  6  1  0
  5  7  1  0
  7  8  2  0
  8  9  1  0
  8 10  1  0
 10 11  1  0
 10 12  2  0
 12 13  1  0
 12 14  1  0
 14 15  1  0
 14 16  2  0
 16 17  1  0
 17 18  1  0
 18 19  1  0
 18 20  1  0
 18 21  1  0
  2 22  2  0
 22 23  1  0
 22 24  1  0
 24 25  2  0
 25 26  1  0
 25 27  1  0
 27 28  1  0
 27 29  2  0
 29 30  1  0
 30 31  1  0
 30 32  1  0
 30 33  1  0
 29 34  1  0
 34 35  1  0
 34 36  2  0
 36 37  1  0
 16  7  1  0
 36 24  1  0
M  END
>  <UniqueID>  (30) 
25

>  <SMILES>  (30) 
COc1ccccc1NC(=O)/C=C/c1ccc(C(F)(F)F)cc1

>  <Energy>  (30) 
42.84605274569837

>  <Genealogy>  (30) 
COc1ccccc1NC(=O)/C=C/c1ccc(C(F)(F)F)cc1 (cis-trans isomerization)
COc1ccccc1NC(=O)/C=C/c1ccc(C(F)(F)F)cc1 (3D coordinates assigned)
COc1ccccc1NC(=O)/C=C/c1ccc(C(F)(F)F)cc1 (optimized conformer: 42.84605274569837 kcal/mol)

>  <smiles>  (30) 
COc1ccccc1NC(=O)C=Cc1ccc(C(F)(F)F)cc1

>  <score_type>  (30) 
oracle

>  <origin>  (30) 
adg

>  <m_score__min__energy>  (30) 
-7.3799999999999999

>  <m_primary>  (30) 
energy

$$$$
30:0
     RDKit          3D

 32 34  0  0  1  0  0  0  0  0999 V2000
   58.6290   26.9730   44.9790 O   0  0  0  0  0  0  0  0  0  0  0  0
   57.7580   27.8810   44.9850 C   0  0  0  0  0  0  0  0  0  0  0  0
   57.8880   29.2340   44.7610 C   0  0  0  0  0  0  0  0  0  0  0  0
   56.6270   29.8280   44.8780 C   0  0  0  0  0  0  0  0  0  0  0  0
   56.3290   31.2180   44.7180 N   0  0  0  0  0  0  0  0  0  0  0  0
   57.2550   32.1150   44.8960 C   0  0  0  0  0  0  0  0  0  0  0  0
   57.6040   32.5290   46.1280 N   0  0  0  0  0  0  0  0  0  0  0  0
   58.5650   33.4580   46.2930 C   0  0  0  0  0  0  0  0  0  0  0  0
   58.9480   33.9000   47.4370 N   0  0  0  0  0  0  0  0  0  0  0  0
   60.3200   33.7630   47.7860 C   0  0  0  0  0  0  0  0  0  0  0  0
   61.1600   32.9820   46.9850 C   0  0  0  0  0  0  0  0  0  0  0  0
   62.4960   32.8190   47.2810 C   0  0  0  0  0  0  0  0  0  0  0  0
   63.0530   33.4360   48.3970 C   0  0  0  0  0  0  0  0  0  0  0  0
   64.3670   33.2720   48.6810 F   0  0  0  0  0  0  0  0  0  0  0  0
   62.2170   34.2120   49.1920 C   0  0  0  0  0  0  0  0  0  0  0  0
   60.8740   34.3760   48.8960 C   0  0  0  0  0  0  0  0  0  0  0  0
   59.1650   33.9610   45.1960 N   0  0  0  0  0  0  0  0  0  0  0  0
   58.8400   33.5690   43.9430 C   0  0  0  0  0  0  0  0  0  0  0  0
   57.8480   32.6080   43.7500 C   0  0  0  0  0  0  0  0  0  0  0  0
   57.3930   32.0590   42.0050 Br  0  0  0  0  0  0  0  0  0  0  0  0
   55.8000   28.8100   45.1640 N   0  0  0  0  0  0  0  0  0  0  0  0
   56.4670   27.6650   45.2280 N   0  0  0  0  0  0  0  0  0  0  0  0
   58.8262   29.7593   44.5290 H   0  0  0  0  0  0  0  0  0  0  0  0
   57.1290   32.1290   46.9670 H   0  0  0  0  0  0  0  0  0  0  0  0
   60.7434   32.4854   46.0963 H   0  0  0  0  0  0  0  0  0  0  0  0
   63.1271   32.1962   46.6299 H   0  0  0  0  0  0  0  0  0  0  0  0
   62.6336   34.7093   50.0803 H   0  0  0  0  0  0  0  0  0  0  0  0
   60.2432   34.9980   49.5480 H   0  0  0  0  0  0  0  0  0  0  0  0
   59.9070   34.6770   45.2870 H   0  0  0  0  0  0  0  0  0  0  0  0
   59.3576   34.0077   43.0772 H   0  0  0  0  0  0  0  0  0  0  0  0
   54.7620   28.9740   45.3090 H   0  0  0  0  0  0  0  0  0  0  0  0
   56.0360   26.7360   45.4370 H   0  0  0  0  0  0  0  0  0  0  0  0
  1  2  2  0
  2  3  1  0
  3  4  2  0
  4  5  1  0
  5  6  2  0
  6  7  1  0
  7  8  1  0
  8  9  2  0
  9 10  1  0
 10 11  2  0
 11 12  1  0
 12 13  2  0
 13 14  1  0
 13 15  1  0
 15 16  2  0
  8 17  1  0
 17 18  1  0
 18 19  2  0
 19 20  1  0
  4 21  1  0
 21 22  1  0
 22  2  1  0
 19  6  1  0
 16 10  1  0
  3 23  1  0
  7 24  1  0
 11 25  1  0
 12 26  1  0
 15 27  1  0
 16 28  1  0
 17 29  1  0
 18 30  1  0
 21 31  1  0
 22 32  1  0
M  END
>  <smiles>  (31) 
O=c1cc(N=c2[nH]c(=Nc3ccc(F)cc3)[nH]cc2Br)[nH][nH]1

>  <score_type>  (31) 
oracle

>  <origin>  (31) 
adg

>  <m_score__min__energy>  (31) 
-7.9100000000000001

>  <m_primary>  (31) 
energy

$$$$
31:0
     RDKit          3D

 63 67  0  0  0  0  0  0  0  0999 V2000
   62.4240   29.4350   53.5270 C   0  0  0  0  0  0  0  0  0  0  0  0
   61.7970   29.8750   52.3270 O   0  0  0  0  0  0  0  0  0  0  0  0
   61.9630   31.1510   51.7590 C   0  0  0  0  0  0  0  0  0  0  0  0
   63.0580   31.4580   50.9260 C   0  0  0  0  0  0  0  0  0  0  0  0
   63.2070   32.7440   50.3770 C   0  0  0  0  0  0  0  0  0  0  0  0
   64.3600   33.0620   49.5000 C   0  0  0  0  0  0  0  0  0  0  0  0
   65.5240   32.7010   49.8310 O   0  0  0  0  0  0  0  0  0  0  0  0
   64.1600   33.7700   48.2740 N   0  0  0  0  0  0  0  0  0  0  0  0
   63.1730   33.1580   46.9900 S   0  0  0  0  0  0  0  0  0  0  0  0
   63.5220   33.8750   45.7150 O   0  0  0  0  0  0  0  0  0  0  0  0
   63.4460   31.6890   46.8220 O   0  0  0  0  0  0  0  0  0  0  0  0
   61.4690   33.4260   47.3500 C   0  0  0  0  0  0  0  0  0  0  0  0
   60.7700   32.5220   48.1630 C   0  0  0  0  0  0  0  0  0  0  0  0
   59.4090   32.7210   48.4250 C   0  0  0  0  0  0  0  0  0  0  0  0
   58.7440   33.8200   47.8740 C   0  0  0  0  0  0  0  0  0  0  0  0
   59.4360   34.7210   47.0600 C   0  0  0  0  0  0  0  0  0  0  0  0
   60.7950   34.5240   46.7950 C   0  0  0  0  0  0  0  0  0  0  0  0
   62.2500   33.7270   50.6740 C   0  0  0  0  0  0  0  0  0  0  0  0
   61.1610   33.4300   51.4950 C   0  0  0  0  0  0  0  0  0  0  0  0
   61.0030   32.1440   52.0330 C   0  0  0  0  0  0  0  0  0  0  0  0
   59.8260   31.8400   52.9200 C   0  0  0  0  0  0  0  0  0  0  0  0
   58.6520   31.5810   52.0960 N   0  0  0  0  0  0  0  0  0  0  0  0
   58.3010   30.3210   51.5110 C   0  0  0  0  0  0  0  0  0  0  0  0
   57.3520   29.6680   52.0190 O   0  0  0  0  0  0  0  0  0  0  0  0
   59.0350   29.7320   50.3740 C   0  0  0  0  0  0  0  0  0  0  0  0
   58.6210   29.6410   49.0560 C   0  0  0  0  0  0  0  0  0  0  0  0
   59.6560   28.9700   48.4320 C   0  0  0  0  0  0  0  0  0  0  0  0
   59.7200   28.5830   46.9840 C   0  0  0  0  0  0  0  0  0  0  0  0
   58.4370   28.8240   46.1980 C   0  0  0  0  0  0  0  0  0  0  0  0
   57.4270   27.8420   46.1270 C   0  0  0  0  0  0  0  0  0  0  0  0
   56.2940   28.0570   45.4120 N   0  0  0  0  0  0  0  0  0  0  0  0
   56.0650   29.2130   44.7450 C   0  0  0  0  0  0  0  0  0  0  0  0
   54.9950   29.3410   44.0930 O   0  0  0  0  0  0  0  0  0  0  0  0
   57.0130   30.2510   44.7920 C   0  0  0  0  0  0  0  0  0  0  0  0
   56.7890   31.4690   44.1220 C   0  0  0  0  0  0  0  0  0  0  0  0
   57.7280   32.4980   44.1940 C   0  0  0  0  0  0  0  0  0  0  0  0
   58.8940   32.3290   44.9350 C   0  0  0  0  0  0  0  0  0  0  0  0
   59.1380   31.1270   45.6030 C   0  0  0  0  0  0  0  0  0  0  0  0
   58.2090   30.0640   45.5370 C   0  0  0  0  0  0  0  0  0  0  0  0
   60.5810   28.6850   49.3190 O   0  0  0  0  0  0  0  0  0  0  0  0
   60.2320   29.1230   50.4910 N   0  0  0  0  0  0  0  0  0  0  0  0
   61.8699   29.8238   54.3941 H   0  0  0  0  0  0  0  0  0  0  0  0
   62.4274   28.3354   53.5571 H   0  0  0  0  0  0  0  0  0  0  0  0
   63.4592   29.8058   53.5571 H   0  0  0  0  0  0  0  0  0  0  0  0
   63.8051   30.6821   50.7027 H   0  0  0  0  0  0  0  0  0  0  0  0
   61.2916   31.6555   48.5954 H   0  0  0  0  0  0  0  0  0  0  0  0
   58.8629   32.0121   49.0647 H   0  0  0  0  0  0  0  0  0  0  0  0
   57.6750   33.9759   48.0812 H   0  0  0  0  0  0  0  0  0  0  0  0
   58.9114   35.5857   46.6275 H   0  0  0  0  0  0  0  0  0  0  0  0
   61.3366   35.2316   46.1500 H   0  0  0  0  0  0  0  0  0  0  0  0
   62.3591   34.7389   50.2566 H   0  0  0  0  0  0  0  0  0  0  0  0
   60.4203   34.2109   51.7221 H   0  0  0  0  0  0  0  0  0  0  0  0
   60.0474   30.9533   53.5322 H   0  0  0  0  0  0  0  0  0  0  0  0
   59.6304   32.6996   53.5778 H   0  0  0  0  0  0  0  0  0  0  0  0
   57.6875   30.0149   48.6100 H   0  0  0  0  0  0  0  0  0  0  0  0
   60.5251   29.1639   46.5103 H   0  0  0  0  0  0  0  0  0  0  0  0
   59.8956   27.4973   46.9624 H   0  0  0  0  0  0  0  0  0  0  0  0
   57.5597   26.8883   46.6588 H   0  0  0  0  0  0  0  0  0  0  0  0
   55.8675   31.6100   43.5380 H   0  0  0  0  0  0  0  0  0  0  0  0
   57.5466   33.4448   43.6642 H   0  0  0  0  0  0  0  0  0  0  0  0
   59.6274   33.1467   44.9948 H   0  0  0  0  0  0  0  0  0  0  0  0
   60.0627   31.0064   46.1865 H   0  0  0  0  0  0  0  0  0  0  0  0
   60.8000   29.0160   51.3610 H   0  0  0  0  0  0  0  0  0  0  0  0
  1  2  1  0
  2  3  1  0
  3  4  2  0
  4  5  1  0
  5  6  1  0
  6  7  2  0
  6  8  1  0
  8  9  1  0
  9 10  2  0
  9 11  2  0
  9 12  1  0
 12 13  2  0
 13 14  1  0
 14 15  2  0
 15 16  1  0
 16 17  2  0
  5 18  2  0
 18 19  1  0
 19 20  2  0
 20 21  1  0
 21 22  1  0
 22 23  1  0
 23 24  2  0
 23 25  1  0
 25 26  1  0
 26 27  2  0
 27 28  1  0
 28 29  1  0
 29 30  2  0
 30 31  1  0
 31 32  1  0
 32 33  2  0
 32 34  1  0
 34 35  2  0
 35 36  1  0
 36 37  2  0
 37 38  1  0
 38 39  2  0
 27 40  1  0
 40 41  1  0
 20  3  1  0
 41 25  2  0
 17 12  1  0
 39 29  1  0
 39 34  1  0
  1 42  1  0
  1 43  1  0
  1 44  1  0
  4 45  1  0
 13 46  1  0
 14 47  1  0
 15 48  1  0
 16 49  1  0
 17 50  1  0
 18 51  1  0
 19 52  1  0
 21 53  1  0
 21 54  1  0
 26 55  1  0
 28 56  1  0
 28 57  1  0
 30 58  1  0
 35 59  1  0
 36 60  1  0
 37 61  1  0
 38 62  1  0
 41 63  1  0
M  CHG  4   8  -1  22  -1  31  -1  41   1
M  END
>  <UniqueID>  (32) 
26

>  <SMILES>  (32) 
COc1cc(C(=O)[N-]S(=O)(=O)c2ccccc2)ccc1C[N-]C(=O)c1cc(Cc2c[n-]c(=O)c3ccccc23)o[nH+]1

>  <Energy>  (32) 
114.54860631211521

>  <Genealogy>  (32) 
COc1cc(C(=O)[N-]S(=O)(=O)c2ccccc2)ccc1C[N-]C(=O)c1cc(Cc2c[n-]c(=O)c3ccccc23)o[nH+]1 (protonated)
COc1cc(C(=O)[N-]S(=O)(=O)c2ccccc2)ccc1C[N-]C(=O)c1cc(Cc2c[n-]c(=O)c3ccccc23)o[nH+]1 (3D coordinates assigned)
COc1cc(C(=O)[N-]S(=O)(=O)c2ccccc2)ccc1C[N-]C(=O)c1cc(Cc2c[n-]c(=O)c3ccccc23)o[nH+]1 (optimized conformer: 114.54860631211521 kcal/mol)

>  <smiles>  (32) 
COc1cc(C(=O)NS(=O)(=O)c2ccccc2)ccc1CNC(=O)c1cc(Cc2c[nH]c(=O)c3ccccc23)on1

>  <score_type>  (32) 
oracle

>  <origin>  (32) 
adg

>  <m_score__min__energy>  (32) 
-14.17

>  <m_primary>  (32) 
energy

$$$$
32:0
     RDKit          3D

 52 54  0  0  0  0  0  0  0  0999 V2000
   57.0363   30.0201   42.3405 H   0  0  0  0  0  0  0  0  0  0  0  0
   56.9070   29.5110   43.3070 C   0  0  0  0  0  0  0  0  0  0  0  0
   55.9860   30.0940   44.2960 C   0  0  0  0  0  0  0  0  0  0  0  0
   55.1540   29.3430   44.8700 O   0  0  0  0  0  0  0  0  0  0  0  0
   56.0680   31.4850   44.6390 N   0  0  0  0  0  0  0  0  0  0  0  0
   57.2400   32.1920   45.0690 C   0  0  0  0  0  0  0  0  0  0  0  0
   57.3850   33.5790   44.8840 C   0  0  0  0  0  0  0  0  0  0  0  0
   56.5771   34.1559   44.4102 H   0  0  0  0  0  0  0  0  0  0  0  0
   58.5520   34.2270   45.3000 C   0  0  0  0  0  0  0  0  0  0  0  0
   58.6524   35.3141   45.1650 H   0  0  0  0  0  0  0  0  0  0  0  0
   59.5960   33.4970   45.8890 C   0  0  0  0  0  0  0  0  0  0  0  0
   60.8440   34.1940   46.3670 C   0  0  0  0  0  0  0  0  0  0  0  0
   60.8051   35.2502   46.0621 H   0  0  0  0  0  0  0  0  0  0  0  0
   61.7165   33.6951   45.9199 H   0  0  0  0  0  0  0  0  0  0  0  0
   60.9630   34.1200   47.8390 N   0  0  0  0  0  0  0  0  0  0  0  0
   61.6030   32.8490   48.2640 C   0  0  0  0  0  0  0  0  0  0  0  0
   62.6915   32.9362   48.1315 H   0  0  0  0  0  0  0  0  0  0  0  0
   61.1947   32.0358   47.6459 H   0  0  0  0  0  0  0  0  0  0  0  0
   61.3050   32.5280   49.7350 C   0  0  0  0  0  0  0  0  0  0  0  0
   61.7148   33.3320   50.3641 H   0  0  0  0  0  0  0  0  0  0  0  0
   61.7708   31.5603   49.9729 H   0  0  0  0  0  0  0  0  0  0  0  0
   59.8500   32.4120   49.9940 N   0  0  0  0  0  0  0  0  0  0  0  0
   59.3930   31.0460   50.3330 C   0  0  0  0  0  0  0  0  0  0  0  0
   58.5074   31.1295   50.9801 H   0  0  0  0  0  0  0  0  0  0  0  0
   60.2378   30.5446   50.8279 H   0  0  0  0  0  0  0  0  0  0  0  0
   59.0210   30.1850   49.1170 C   0  0  0  0  0  0  0  0  0  0  0  0
   58.6065   29.2256   49.4601 H   0  0  0  0  0  0  0  0  0  0  0  0
   58.2705   30.7126   48.5100 H   0  0  0  0  0  0  0  0  0  0  0  0
   59.9195   30.0001   48.5100 H   0  0  0  0  0  0  0  0  0  0  0  0
   58.9900   33.0920   49.0030 C   0  0  0  0  0  0  0  0  0  0  0  0
   58.0268   33.3429   49.4713 H   0  0  0  0  0  0  0  0  0  0  0  0
   58.8320   32.4186   48.1477 H   0  0  0  0  0  0  0  0  0  0  0  0
   59.6590   34.3790   48.5040 C   0  0  0  0  0  0  0  0  0  0  0  0
   59.8269   35.0455   49.3628 H   0  0  0  0  0  0  0  0  0  0  0  0
   58.9898   34.8382   47.7615 H   0  0  0  0  0  0  0  0  0  0  0  0
   59.4580   32.1110   46.0560 C   0  0  0  0  0  0  0  0  0  0  0  0
   60.2711   31.5312   46.5171 H   0  0  0  0  0  0  0  0  0  0  0  0
   58.2920   31.4640   45.6390 C   0  0  0  0  0  0  0  0  0  0  0  0
   58.1995   30.3745   45.7593 H   0  0  0  0  0  0  0  0  0  0  0  0
   57.5930   28.3860   43.5380 C   0  0  0  0  0  0  0  0  0  0  0  0
   57.4693   27.5378   42.8487 H   0  0  0  0  0  0  0  0  0  0  0  0
   58.5120   28.2430   44.6880 C   0  0  0  0  0  0  0  0  0  0  0  0
   59.7920   28.8110   44.5840 C   0  0  0  0  0  0  0  0  0  0  0  0
   60.0835   29.3341   43.6613 H   0  0  0  0  0  0  0  0  0  0  0  0
   60.6980   28.7170   45.6430 C   0  0  0  0  0  0  0  0  0  0  0  0
   61.6936   29.1767   45.5565 H   0  0  0  0  0  0  0  0  0  0  0  0
   60.3420   28.0410   46.8100 C   0  0  0  0  0  0  0  0  0  0  0  0
   61.0531   27.9774   47.6468 H   0  0  0  0  0  0  0  0  0  0  0  0
   59.0840   27.4450   46.9170 C   0  0  0  0  0  0  0  0  0  0  0  0
   58.8119   26.9032   47.8348 H   0  0  0  0  0  0  0  0  0  0  0  0
   58.1660   27.5330   45.8620 C   0  0  0  0  0  0  0  0  0  0  0  0
   56.6430   26.6630   46.0220 Cl  0  0  0  0  0  0  0  0  0  0  0  0
  1  2  1  0
  2  3  1  0
  3  4  2  0
  3  5  1  0
  5  6  1  0
  6  7  2  0
  7  8  1  0
  7  9  1  0
  9 10  1  0
  9 11  2  0
 11 12  1  0
 12 13  1  0
 12 14  1  0
 12 15  1  0
 15 16  1  0
 16 17  1  0
 16 18  1  0
 16 19  1  0
 19 20  1  0
 19 21  1  0
 19 22  1  0
 22 23  1  0
 23 24  1  0
 23 25  1  0
 23 26  1  0
 26 27  1  0
 26 28  1  0
 26 29  1  0
 22 30  1  0
 30 31  1  0
 30 32  1  0
 30 33  1  0
 33 34  1  0
 33 35  1  0
 11 36  1  0
 36 37  1  0
 36 38  2  0
 38 39  1  0
  2 40  2  0
 40 41  1  0
 40 42  1  0
 42 43  2  0
 43 44  1  0
 43 45  1  0
 45 46  1  0
 45 47  2  0
 47 48  1  0
 47 49  1  0
 49 50  1  0
 49 51  2  0
 51 52  1  0
 38  6  1  0
 51 42  1  0
 33 15  1  0
M  CHG  1   5  -1
M  END
>  <UniqueID>  (33) 
27

>  <SMILES>  (33) 
CCN1CCN(Cc2ccc([N-]C(=O)/C=C/c3ccccc3Cl)cc2)CC1

>  <Energy>  (33) 
75.19821477576966

>  <Genealogy>  (33) 
CCN1CCN(Cc2ccc([N-]C(=O)C=Cc3ccccc3Cl)cc2)CC1 (protonated)
CCN1CCN(Cc2ccc([N-]C(=O)/C=C/c3ccccc3Cl)cc2)CC1 (cis-trans isomerization)
CCN1CCN(Cc2ccc([N-]C(=O)/C=C/c3ccccc3Cl)cc2)CC1 (3D coordinates assigned)
CCN1CCN(Cc2ccc([N-]C(=O)/C=C/c3ccccc3Cl)cc2)CC1 (nonaromatic ring conformer: 75.19821477576966 kcal/mol)

>  <smiles>  (33) 
CCN1CCN(Cc2ccc(NC(=O)C=Cc3ccccc3Cl)cc2)CC1

>  <score_type>  (33) 
oracle

>  <origin>  (33) 
adg

>  <m_score__min__energy>  (33) 
-10.789999999999999

>  <m_primary>  (33) 
energy

$$$$
33:0
     RDKit          3D

 57 60  0  0  0  0  0  0  0  0999 V2000
   60.9990   30.6790   47.1340 C   0  0  0  0  0  0  0  0  0  0  0  0
   60.1220   29.4590   47.2250 C   0  0  0  0  0  0  0  0  0  0  0  0
   59.3080   29.2100   48.4680 C   0  0  0  0  0  0  0  0  0  0  0  0
   60.0960   28.6090   46.1800 C   0  0  0  0  0  0  0  0  0  0  0  0
   58.8450   27.9470   45.6480 C   0  0  0  0  0  0  0  0  0  0  0  0
   57.8710   28.9170   45.0100 C   0  0  0  0  0  0  0  0  0  0  0  0
   58.3370   30.0670   44.3440 C   0  0  0  0  0  0  0  0  0  0  0  0
   57.4420   30.9560   43.7300 C   0  0  0  0  0  0  0  0  0  0  0  0
   57.9420   32.1910   43.0890 C   0  0  0  0  0  0  0  0  0  0  0  0
   58.4000   32.1420   41.9170 O   0  0  0  0  0  0  0  0  0  0  0  0
   57.9580   33.4430   43.7900 N   0  0  0  0  0  0  0  0  0  0  0  0
   58.4360   33.6340   45.1300 C   0  0  0  0  0  0  0  0  0  0  0  0
   59.2360   34.7460   45.4150 C   0  0  0  0  0  0  0  0  0  0  0  0
   59.7010   34.9740   46.7140 C   0  0  0  0  0  0  0  0  0  0  0  0
   59.3470   34.0960   47.7480 C   0  0  0  0  0  0  0  0  0  0  0  0
   59.7860   34.2950   49.0600 C   0  0  0  0  0  0  0  0  0  0  0  0
   59.3810   33.4140   50.0690 C   0  0  0  0  0  0  0  0  0  0  0  0
   59.7910   33.6570   51.4720 C   0  0  0  0  0  0  0  0  0  0  0  0
   58.9370   34.0430   52.3140 O   0  0  0  0  0  0  0  0  0  0  0  0
   61.1580   33.5280   51.8810 N   0  0  0  0  0  0  0  0  0  0  0  0
   62.2170   33.0390   51.0470 C   0  0  0  0  0  0  0  0  0  0  0  0
   62.6730   31.7120   51.1510 C   0  0  0  0  0  0  0  0  0  0  0  0
   63.7340   31.2680   50.3550 C   0  0  0  0  0  0  0  0  0  0  0  0
   64.3480   32.1430   49.4550 C   0  0  0  0  0  0  0  0  0  0  0  0
   63.9120   33.4700   49.3610 C   0  0  0  0  0  0  0  0  0  0  0  0
   62.8550   33.9190   50.1630 C   0  0  0  0  0  0  0  0  0  0  0  0
   58.5480   32.3330   49.7170 C   0  0  0  0  0  0  0  0  0  0  0  0
   58.1730   31.5040   50.5870 O   0  0  0  0  0  0  0  0  0  0  0  0
   58.1600   32.1660   48.4550 O   0  0  0  0  0  0  0  0  0  0  0  0
   58.5180   32.9900   47.4760 C   0  0  0  0  0  0  0  0  0  0  0  0
   58.0660   32.7620   46.1720 C   0  0  0  0  0  0  0  0  0  0  0  0
   56.0740   30.6600   43.7280 C   0  0  0  0  0  0  0  0  0  0  0  0
   55.6010   29.5100   44.3650 C   0  0  0  0  0  0  0  0  0  0  0  0
   56.4900   28.6370   45.0040 C   0  0  0  0  0  0  0  0  0  0  0  0
   56.0040   27.4900   45.6300 O   0  0  0  0  0  0  0  0  0  0  0  0
   61.2492   31.0271   48.1470 H   0  0  0  0  0  0  0  0  0  0  0  0
   61.9236   30.4265   46.5942 H   0  0  0  0  0  0  0  0  0  0  0  0
   60.4651   31.4750   46.5942 H   0  0  0  0  0  0  0  0  0  0  0  0
   59.9281   29.3997   49.3565 H   0  0  0  0  0  0  0  0  0  0  0  0
   58.4380   29.8831   48.4775 H   0  0  0  0  0  0  0  0  0  0  0  0
   58.9635   28.1654   48.4775 H   0  0  0  0  0  0  0  0  0  0  0  0
   61.0491   28.3813   45.6802 H   0  0  0  0  0  0  0  0  0  0  0  0
   59.1392   27.2026   44.8935 H   0  0  0  0  0  0  0  0  0  0  0  0
   58.3308   27.4908   46.5067 H   0  0  0  0  0  0  0  0  0  0  0  0
   59.4172   30.2710   44.3047 H   0  0  0  0  0  0  0  0  0  0  0  0
   59.5015   35.4471   44.6101 H   0  0  0  0  0  0  0  0  0  0  0  0
   60.3439   35.8414   46.9243 H   0  0  0  0  0  0  0  0  0  0  0  0
   60.4474   35.1410   49.2985 H   0  0  0  0  0  0  0  0  0  0  0  0
   62.1936   31.0215   51.8605 H   0  0  0  0  0  0  0  0  0  0  0  0
   64.0854   30.2289   50.4376 H   0  0  0  0  0  0  0  0  0  0  0  0
   65.1739   31.7891   48.8204 H   0  0  0  0  0  0  0  0  0  0  0  0
   64.3997   34.1604   48.6570 H   0  0  0  0  0  0  0  0  0  0  0  0
   62.5247   34.9662   50.0985 H   0  0  0  0  0  0  0  0  0  0  0  0
   57.4190   31.8981   45.9597 H   0  0  0  0  0  0  0  0  0  0  0  0
   55.3682   31.3357   43.2227 H   0  0  0  0  0  0  0  0  0  0  0  0
   54.5234   29.2890   44.3646 H   0  0  0  0  0  0  0  0  0  0  0  0
   55.9650   26.5980   45.1520 H   0  0  0  0  0  0  0  0  0  0  0  0
  1  2  1  0
  2  3  1  0
  2  4  2  3
  4  5  1  0
  5  6  1  0
  6  7  2  0
  7  8  1  0
  8  9  1  0
  9 10  2  0
  9 11  1  0
 11 12  1  0
 12 13  2  0
 13 14  1  0
 14 15  2  0
 15 16  1  0
 16 17  2  0
 17 18  1  0
 18 19  2  0
 18 20  1  0
 20 21  1  0
 21 22  2  0
 22 23  1  0
 23 24  2  0
 24 25  1  0
 25 26  2  0
 17 27  1  0
 27 28  2  0
 27 29  1  0
 29 30  1  0
 30 31  2  0
  8 32  2  0
 32 33  1  0
 33 34  2  0
 34 35  1  0
 34  6  1  0
 31 12  1  0
 30 15  1  0
 26 21  1  0
  1 36  1  0
  1 37  1  0
  1 38  1  0
  3 39  1  0
  3 40  1  0
  3 41  1  0
  4 42  1  0
  5 43  1  0
  5 44  1  0
  7 45  1  0
 13 46  1  0
 14 47  1  0
 16 48  1  0
 22 49  1  0
 23 50  1  0
 24 51  1  0
 25 52  1  0
 26 53  1  0
 31 54  1  0
 32 55  1  0
 33 56  1  0
 35 57  1  0
M  CHG  2  11  -1  20  -1
M  END
>  <UniqueID>  (34) 
28

>  <SMILES>  (34) 
CC(C)=CCc1cc(C(=O)[N-]c2ccc3cc(C(=O)[N-]c4ccccc4)c(=O)oc3c2)ccc1O

>  <Energy>  (34) 
70.02886455773881

>  <Genealogy>  (34) 
CC(C)=CCc1cc(C(=O)[N-]c2ccc3cc(C(=O)[N-]c4ccccc4)c(=O)oc3c2)ccc1O (protonated)
CC(C)=CCc1cc(C(=O)[N-]c2ccc3cc(C(=O)[N-]c4ccccc4)c(=O)oc3c2)ccc1O (3D coordinates assigned)
CC(C)=CCc1cc(C(=O)[N-]c2ccc3cc(C(=O)[N-]c4ccccc4)c(=O)oc3c2)ccc1O (optimized conformer: 70.02886455773881 kcal/mol)

>  <smiles>  (34) 
CC(C)=CCc1cc(C(=O)Nc2ccc3cc(C(=O)Nc4ccccc4)c(=O)oc3c2)ccc1O

>  <score_type>  (34) 
oracle

>  <origin>  (34) 
adg

>  <m_score__min__energy>  (34) 
-11.949999999999999

>  <m_primary>  (34) 
energy

$$$$
34:0
     RDKit          3D

 53 55  0  0  0  0  0  0  0  0999 V2000
   54.7780   24.0480   44.4800 C   0  0  0  0  0  0  0  0  0  0  0  0
   54.2240   24.8910   45.6190 C   0  0  0  0  0  0  0  0  0  0  0  0
   55.1710   25.8970   45.9720 O   0  0  0  0  0  0  0  0  0  0  0  0
   56.5620   25.7050   46.0070 C   0  0  0  0  0  0  0  0  0  0  0  0
   57.1320   24.4490   46.3100 C   0  0  0  0  0  0  0  0  0  0  0  0
   58.5200   24.2850   46.3210 C   0  0  0  0  0  0  0  0  0  0  0  0
   59.3580   25.3670   46.0300 C   0  0  0  0  0  0  0  0  0  0  0  0
   58.8090   26.6180   45.7270 C   0  0  0  0  0  0  0  0  0  0  0  0
   57.4120   26.8020   45.7290 C   0  0  0  0  0  0  0  0  0  0  0  0
   56.8380   28.1500   45.3650 C   0  0  0  0  0  0  0  0  0  0  0  0
   57.0280   28.3910   43.9280 N   0  0  0  0  0  0  0  0  0  0  0  0
   56.3200   29.5950   43.4650 C   0  0  0  0  0  0  0  0  0  0  0  0
   57.0680   30.8580   43.7830 C   0  0  0  0  0  0  0  0  0  0  0  0
   57.5090   31.7990   42.8800 C   0  0  0  0  0  0  0  0  0  0  0  0
   58.1110   32.7380   43.5630 O   0  0  0  0  0  0  0  0  0  0  0  0
   58.0480   32.4080   44.8370 C   0  0  0  0  0  0  0  0  0  0  0  0
   58.6210   33.2170   45.9410 C   0  0  0  0  0  0  0  0  0  0  0  0
   58.9080   34.5770   45.7150 C   0  0  0  0  0  0  0  0  0  0  0  0
   59.4500   35.3680   46.7280 C   0  0  0  0  0  0  0  0  0  0  0  0
   59.7080   34.8160   47.9790 C   0  0  0  0  0  0  0  0  0  0  0  0
   59.4290   33.4710   48.2240 C   0  0  0  0  0  0  0  0  0  0  0  0
   58.8860   32.6490   47.2130 C   0  0  0  0  0  0  0  0  0  0  0  0
   58.5910   31.2830   47.4100 O   0  0  0  0  0  0  0  0  0  0  0  0
   59.4790   30.1570   47.4640 C   0  0  0  0  0  0  0  0  0  0  0  0
   58.8780   28.9640   48.2230 C   0  0  0  0  0  0  0  0  0  0  0  0
   60.0410   29.7890   46.0840 C   0  0  0  0  0  0  0  0  0  0  0  0
   57.4020   31.2390   45.0310 N   0  0  0  0  0  0  0  0  0  0  0  0
   55.3379   23.1960   44.8931 H   0  0  0  0  0  0  0  0  0  0  0  0
   53.9477   23.6760   43.8617 H   0  0  0  0  0  0  0  0  0  0  0  0
   55.4489   24.6625   43.8617 H   0  0  0  0  0  0  0  0  0  0  0  0
   53.2854   25.3674   45.2993 H   0  0  0  0  0  0  0  0  0  0  0  0
   54.0314   24.2478   46.4903 H   0  0  0  0  0  0  0  0  0  0  0  0
   56.4791   23.5938   46.5389 H   0  0  0  0  0  0  0  0  0  0  0  0
   58.9546   23.3029   46.5590 H   0  0  0  0  0  0  0  0  0  0  0  0
   60.4499   25.2341   46.0394 H   0  0  0  0  0  0  0  0  0  0  0  0
   59.4716   27.4623   45.4860 H   0  0  0  0  0  0  0  0  0  0  0  0
   55.7637   28.1669   45.6008 H   0  0  0  0  0  0  0  0  0  0  0  0
   57.3518   28.9348   45.9396 H   0  0  0  0  0  0  0  0  0  0  0  0
   56.6770   27.5660   43.3870 H   0  0  0  0  0  0  0  0  0  0  0  0
   56.1862   29.5288   42.3752 H   0  0  0  0  0  0  0  0  0  0  0  0
   55.3534   29.6373   43.9884 H   0  0  0  0  0  0  0  0  0  0  0  0
   57.3793   31.7671   41.7881 H   0  0  0  0  0  0  0  0  0  0  0  0
   58.7026   35.0201   44.7294 H   0  0  0  0  0  0  0  0  0  0  0  0
   59.6735   36.4282   46.5379 H   0  0  0  0  0  0  0  0  0  0  0  0
   60.1333   35.4420   48.7773 H   0  0  0  0  0  0  0  0  0  0  0  0
   59.6348   33.0459   49.2174 H   0  0  0  0  0  0  0  0  0  0  0  0
   60.3480   30.4696   48.0616 H   0  0  0  0  0  0  0  0  0  0  0  0
   58.9651   29.1368   49.3058 H   0  0  0  0  0  0  0  0  0  0  0  0
   57.8172   28.8546   47.9533 H   0  0  0  0  0  0  0  0  0  0  0  0
   59.4214   28.0464   47.9533 H   0  0  0  0  0  0  0  0  0  0  0  0
   60.9554   29.1903   46.2082 H   0  0  0  0  0  0  0  0  0  0  0  0
   59.2932   29.2051   45.5274 H   0  0  0  0  0  0  0  0  0  0  0  0
   60.2772   30.7079   45.5274 H   0  0  0  0  0  0  0  0  0  0  0  0
  1  2  1  0
  2  3  1  0
  3  4  1  0
  4  5  2  0
  5  6  1  0
  6  7  2  0
  7  8  1  0
  8  9  2  0
  9 10  1  0
 10 11  1  0
 11 12  1  0
 12 13  1  0
 13 14  2  0
 14 15  1  0
 15 16  1  0
 16 17  1  0
 17 18  2  0
 18 19  1  0
 19 20  2  0
 20 21  1  0
 21 22  2  0
 22 23  1  0
 23 24  1  0
 24 25  1  0
 24 26  1  0
 16 27  2  0
  9  4  1  0
 27 13  1  0
 22 17  1  0
  1 28  1  0
  1 29  1  0
  1 30  1  0
  2 31  1  0
  2 32  1  0
  5 33  1  0
  6 34  1  0
  7 35  1  0
  8 36  1  0
 10 37  1  0
 10 38  1  0
 11 39  1  0
 12 40  1  0
 12 41  1  0
 14 42  1  0
 18 43  1  0
 19 44  1  0
 20 45  1  0
 21 46  1  0
 24 47  1  0
 25 48  1  0
 25 49  1  0
 25 50  1  0
 26 51  1  0
 26 52  1  0
 26 53  1  0
M  END
>  <UniqueID>  (35) 
29

>  <SMILES>  (35) 
CCOc1ccccc1CNCc1coc(-c2ccccc2OC(C)C)n1

>  <Energy>  (35) 
82.92789393628911

>  <Genealogy>  (35) 
CCOc1ccccc1CNCc1coc(-c2ccccc2OC(C)C)n1 (3D coordinates assigned)
CCOc1ccccc1CNCc1coc(-c2ccccc2OC(C)C)n1 (optimized conformer: 82.92789393628911 kcal/mol)

>  <smiles>  (35) 
CCOc1ccccc1CNCc1coc(-c2ccccc2OC(C)C)n1

>  <score_type>  (35) 
oracle

>  <origin>  (35) 
adg

>  <m_score__min__energy>  (35) 
-7.7300000000000004

>  <m_primary>  (35) 
energy

$$$$
35:0
     RDKit          3D

 50 52  0  0  0  0  0  0  0  0999 V2000
   57.3440   32.7050   40.6380 C   0  0  0  0  0  0  0  0  0  0  0  0
   58.0500   32.0660   41.8340 C   0  0  0  0  0  0  0  0  0  0  0  0
   57.1160   31.8580   42.9630 N   0  0  0  0  0  0  0  0  0  0  0  0
   56.6410   30.4490   43.0310 C   0  0  0  0  0  0  0  0  0  0  0  0
   56.3100   30.0180   44.4630 C   0  0  0  0  0  0  0  0  0  0  0  0
   57.5900   30.0190   45.3500 C   0  0  0  0  0  0  0  0  0  0  0  0
   58.4160   28.7780   45.2220 N   0  0  0  0  0  0  0  0  0  0  0  0
   59.8430   29.1230   45.0340 C   0  0  0  0  0  0  0  0  0  0  0  0
   58.2960   27.8360   46.3650 C   0  0  0  0  0  0  0  0  0  0  0  0
   57.7430   26.4970   45.9120 C   0  0  0  0  0  0  0  0  0  0  0  0
   56.3900   26.3610   45.5670 C   0  0  0  0  0  0  0  0  0  0  0  0
   55.5280   27.4510   45.6260 O   0  0  0  0  0  0  0  0  0  0  0  0
   55.9070   25.1590   45.1640 N   0  0  0  0  0  0  0  0  0  0  0  0
   56.7150   24.0690   45.0590 C   0  0  0  0  0  0  0  0  0  0  0  0
   56.1690   22.8420   44.6460 C   0  0  0  0  0  0  0  0  0  0  0  0
   56.9940   21.7230   44.5130 C   0  0  0  0  0  0  0  0  0  0  0  0
   56.4140   20.3980   44.1120 C   0  0  0  0  0  0  0  0  0  0  0  0
   58.3490   21.8350   44.8240 C   0  0  0  0  0  0  0  0  0  0  0  0
   58.8670   23.0660   45.2310 C   0  0  0  0  0  0  0  0  0  0  0  0
   58.0580   24.1690   45.3470 N   0  0  0  0  0  0  0  0  0  0  0  0
   58.5800   25.3750   45.7540 C   0  0  0  0  0  0  0  0  0  0  0  0
   59.8150   25.4860   45.9910 O   0  0  0  0  0  0  0  0  0  0  0  0
   58.4590   31.2690   45.0010 C   0  0  0  0  0  0  0  0  0  0  0  0
   57.6870   32.3590   44.2410 C   0  0  0  0  0  0  0  0  0  0  0  0
   56.5731   33.4027   40.9971 H   0  0  0  0  0  0  0  0  0  0  0  0
   58.0781   33.2519   40.0282 H   0  0  0  0  0  0  0  0  0  0  0  0
   56.8727   31.9201   40.0282 H   0  0  0  0  0  0  0  0  0  0  0  0
   58.4640   31.0939   41.5280 H   0  0  0  0  0  0  0  0  0  0  0  0
   58.8504   32.7433   42.1665 H   0  0  0  0  0  0  0  0  0  0  0  0
   55.7362   30.3501   42.4133 H   0  0  0  0  0  0  0  0  0  0  0  0
   57.4505   29.8018   42.6623 H   0  0  0  0  0  0  0  0  0  0  0  0
   55.5752   30.7168   44.8893 H   0  0  0  0  0  0  0  0  0  0  0  0
   55.8986   28.9981   44.4383 H   0  0  0  0  0  0  0  0  0  0  0  0
   57.2492   30.0544   46.3953 H   0  0  0  0  0  0  0  0  0  0  0  0
   60.3245   29.2394   46.0161 H   0  0  0  0  0  0  0  0  0  0  0  0
   60.3436   28.3200   44.4731 H   0  0  0  0  0  0  0  0  0  0  0  0
   59.9214   30.0660   44.4731 H   0  0  0  0  0  0  0  0  0  0  0  0
   59.2901   27.6824   46.8102 H   0  0  0  0  0  0  0  0  0  0  0  0
   57.6050   28.2682   47.1037 H   0  0  0  0  0  0  0  0  0  0  0  0
   54.8900   25.0850   44.9290 H   0  0  0  0  0  0  0  0  0  0  0  0
   55.0938   22.7629   44.4278 H   0  0  0  0  0  0  0  0  0  0  0  0
   56.1612   19.8205   45.0134 H   0  0  0  0  0  0  0  0  0  0  0  0
   55.5051   20.5614   43.5143 H   0  0  0  0  0  0  0  0  0  0  0  0
   57.1506   19.8411   43.5143 H   0  0  0  0  0  0  0  0  0  0  0  0
   59.0071   20.9568   44.7489 H   0  0  0  0  0  0  0  0  0  0  0  0
   59.9389   23.1533   45.4621 H   0  0  0  0  0  0  0  0  0  0  0  0
   58.8397   31.7011   45.9382 H   0  0  0  0  0  0  0  0  0  0  0  0
   59.2691   30.9259   44.3407 H   0  0  0  0  0  0  0  0  0  0  0  0
   56.8661   32.7205   44.8777 H   0  0  0  0  0  0  0  0  0  0  0  0
   58.3938   33.1668   44.0004 H   0  0  0  0  0  0  0  0  0  0  0  0
  1  2  1  0
  2  3  1  0
  3  4  1  0
  4  5  1  0
  5  6  1  0
  6  7  1  0
  7  8  1  0
  7  9  1  0
  9 10  1  0
 10 11  2  0
 11 12  1  0
 11 13  1  0
 13 14  2  0
 14 15  1  0
 15 16  2  0
 16 17  1  0
 16 18  1  0
 18 19  2  0
 19 20  1  0
 20 21  1  0
 21 22  2  0
  6 23  1  0
 23 24  1  0
 24  3  1  0
 21 10  1  0
 20 14  1  0
  1 25  1  0
  1 26  1  0
  1 27  1  0
  2 28  1  0
  2 29  1  0
  4 30  1  0
  4 31  1  0
  5 32  1  0
  5 33  1  0
  6 34  1  0
  8 35  1  0
  8 36  1  0
  8 37  1  0
  9 38  1  0
  9 39  1  0
 13 40  1  0
 15 41  1  0
 17 42  1  0
 17 43  1  0
 17 44  1  0
 18 45  1  0
 19 46  1  0
 23 47  1  0
 23 48  1  0
 24 49  1  0
 24 50  1  0
M  CHG  2  12  -1  13   1
M  END
>  <UniqueID>  (36) 
30

>  <SMILES>  (36) 
CCN1CCC(N(C)Cc2c([O-])[nH+]c3cc(C)ccn3c2=O)CC1

>  <Energy>  (36) 
73.67208742726751

>  <Genealogy>  (36) 
CCN1CCC(N(C)Cc2c([O-])[nH+]c3cc(C)ccn3c2=O)CC1 (protonated)
CCN1CCC(N(C)Cc2c([O-])[nH+]c3cc(C)ccn3c2=O)CC1 (3D coordinates assigned)
CCN1CCC(N(C)Cc2c([O-])[nH+]c3cc(C)ccn3c2=O)CC1 (nonaromatic ring conformer: 73.67208742726751 kcal/mol)

>  <smiles>  (36) 
CCN1CCC(N(C)Cc2c(O)nc3cc(C)ccn3c2=O)CC1

>  <score_type>  (36) 
oracle

>  <origin>  (36) 
adg

>  <m_score__min__energy>  (36) 
-9.1300000000000008

>  <m_primary>  (36) 
energy

$$$$
36:0
     RDKit          3D

 44 46  0  0  0  0  0  0  0  0999 V2000
   55.4820   29.6870   43.3130 C   0  0  0  0  0  0  0  0  0  0  0  0
   55.8070   29.5660   44.6950 O   0  0  0  0  0  0  0  0  0  0  0  0
   56.9870   30.0480   45.2880 C   0  0  0  0  0  0  0  0  0  0  0  0
   57.4770   31.3410   45.0140 C   0  0  0  0  0  0  0  0  0  0  0  0
   58.7310   31.7480   45.4930 C   0  0  0  0  0  0  0  0  0  0  0  0
   59.2060   33.0590   45.1680 N   0  0  0  0  0  0  0  0  0  0  0  0
   59.7740   34.2110   46.3390 S   0  0  0  0  0  0  0  0  0  0  0  0
   59.9400   35.5480   45.6650 O   0  0  0  0  0  0  0  0  0  0  0  0
   58.7360   34.3530   47.4170 O   0  0  0  0  0  0  0  0  0  0  0  0
   61.2860   33.6910   47.0800 C   0  0  0  0  0  0  0  0  0  0  0  0
   62.5020   33.8300   46.3890 C   0  0  0  0  0  0  0  0  0  0  0  0
   63.6970   33.4030   46.9780 C   0  0  0  0  0  0  0  0  0  0  0  0
   63.6860   32.8450   48.2640 C   0  0  0  0  0  0  0  0  0  0  0  0
   62.4770   32.7090   48.9580 C   0  0  0  0  0  0  0  0  0  0  0  0
   61.2780   33.1270   48.3670 C   0  0  0  0  0  0  0  0  0  0  0  0
   59.4930   30.8640   46.2710 C   0  0  0  0  0  0  0  0  0  0  0  0
   58.9890   29.6050   46.5990 C   0  0  0  0  0  0  0  0  0  0  0  0
   57.7240   29.2030   46.1480 C   0  0  0  0  0  0  0  0  0  0  0  0
   57.2490   27.9020   46.5330 N   0  0  0  0  0  0  0  0  0  0  0  0
   57.8920   26.6430   46.2740 C   0  0  0  0  0  0  0  0  0  0  0  0
   59.1340   26.5520   46.4490 O   0  0  0  0  0  0  0  0  0  0  0  0
   57.1400   25.4450   45.8270 C   0  0  0  0  0  0  0  0  0  0  0  0
   57.8540   24.2570   45.5830 C   0  0  0  0  0  0  0  0  0  0  0  0
   57.2020   23.1290   45.0760 C   0  0  0  0  0  0  0  0  0  0  0  0
   55.8340   23.1770   44.7950 C   0  0  0  0  0  0  0  0  0  0  0  0
   55.1910   22.0550   44.2810 O   0  0  0  0  0  0  0  0  0  0  0  0
   55.1120   24.3480   45.0450 C   0  0  0  0  0  0  0  0  0  0  0  0
   55.7420   25.4680   45.6010 C   0  0  0  0  0  0  0  0  0  0  0  0
   54.9480   26.5670   45.9490 O   0  0  0  0  0  0  0  0  0  0  0  0
   54.4557   30.0691   43.2098 H   0  0  0  0  0  0  0  0  0  0  0  0
   56.1831   30.3844   42.8311 H   0  0  0  0  0  0  0  0  0  0  0  0
   55.5563   28.7010   42.8311 H   0  0  0  0  0  0  0  0  0  0  0  0
   56.8696   32.0382   44.4182 H   0  0  0  0  0  0  0  0  0  0  0  0
   62.5141   34.2753   45.3833 H   0  0  0  0  0  0  0  0  0  0  0  0
   64.6461   33.5052   46.4315 H   0  0  0  0  0  0  0  0  0  0  0  0
   64.6268   32.5140   48.7280 H   0  0  0  0  0  0  0  0  0  0  0  0
   62.4692   32.2735   49.9681 H   0  0  0  0  0  0  0  0  0  0  0  0
   60.3287   33.0136   48.9111 H   0  0  0  0  0  0  0  0  0  0  0  0
   60.4908   31.1642   46.6236 H   0  0  0  0  0  0  0  0  0  0  0  0
   59.5897   28.9216   47.2171 H   0  0  0  0  0  0  0  0  0  0  0  0
   58.9330   24.2157   45.7928 H   0  0  0  0  0  0  0  0  0  0  0  0
   57.7669   22.2021   44.8980 H   0  0  0  0  0  0  0  0  0  0  0  0
   54.0398   24.3897   44.8028 H   0  0  0  0  0  0  0  0  0  0  0  0
   55.1410   27.5040   45.6170 H   0  0  0  0  0  0  0  0  0  0  0  0
  1  2  1  0
  2  3  1  0
  3  4  2  0
  4  5  1  0
  5  6  1  0
  6  7  1  0
  7  8  2  0
  7  9  2  0
  7 10  1  0
 10 11  2  0
 11 12  1  0
 12 13  2  0
 13 14  1  0
 14 15  2  0
  5 16  2  0
 16 17  1  0
 17 18  2  0
 18 19  1  0
 19 20  1  0
 20 21  2  0
 20 22  1  0
 22 23  2  0
 23 24  1  0
 24 25  2  0
 25 26  1  0
 25 27  1  0
 27 28  2  0
 28 29  1  0
 18  3  1  0
 28 22  1  0
 15 10  1  0
  1 30  1  0
  1 31  1  0
  1 32  1  0
  4 33  1  0
 11 34  1  0
 12 35  1  0
 13 36  1  0
 14 37  1  0
 15 38  1  0
 16 39  1  0
 17 40  1  0
 23 41  1  0
 24 42  1  0
 27 43  1  0
 29 44  1  0
M  CHG  3   6  -1  19  -1  26  -1
M  END
>  <UniqueID>  (37) 
31

>  <SMILES>  (37) 
COc1cc([N-]S(=O)(=O)c2ccccc2)ccc1[N-]C(=O)c1ccc([O-])cc1O

>  <Energy>  (37) 
63.78315826297042

>  <Genealogy>  (37) 
COc1cc([N-]S(=O)(=O)c2ccccc2)ccc1[N-]C(=O)c1ccc([O-])cc1O (protonated)
COc1cc([N-]S(=O)(=O)c2ccccc2)ccc1[N-]C(=O)c1ccc([O-])cc1O (3D coordinates assigned)
COc1cc([N-]S(=O)(=O)c2ccccc2)ccc1[N-]C(=O)c1ccc([O-])cc1O (optimized conformer: 63.78315826297042 kcal/mol)

>  <smiles>  (37) 
COc1cc(NS(=O)(=O)c2ccccc2)ccc1NC(=O)c1ccc(O)cc1O

>  <score_type>  (37) 
oracle

>  <origin>  (37) 
adg

>  <m_score__min__energy>  (37) 
-13.720000000000001

>  <m_primary>  (37) 
energy

$$$$
37:0
     RDKit          3D

 37 39  0  0  0  0  0  0  0  0999 V2000
   58.9640   30.9300   44.0400 H   0  0  0  0  0  0  0  0  0  0  0  0
   59.2840   29.9730   44.1190 O   0  0  0  0  0  0  0  0  0  0  0  0
   58.5280   29.0140   44.7880 C   0  0  0  0  0  0  0  0  0  0  0  0
   58.9900   28.1680   45.7810 C   0  0  0  0  0  0  0  0  0  0  0  0
   57.9100   27.4350   46.2040 C   0  0  0  0  0  0  0  0  0  0  0  0
   56.8290   27.8570   45.4570 C   0  0  0  0  0  0  0  0  0  0  0  0
   55.5240   27.4040   45.6040 O   0  0  0  0  0  0  0  0  0  0  0  0
   57.2070   28.8110   44.5790 N   0  0  0  0  0  0  0  0  0  0  0  0
   56.3240   29.6220   43.7420 C   0  0  0  0  0  0  0  0  0  0  0  0
   55.2992   29.5754   44.1390 H   0  0  0  0  0  0  0  0  0  0  0  0
   56.3391   29.2337   42.7129 H   0  0  0  0  0  0  0  0  0  0  0  0
   56.7940   31.0430   43.7430 C   0  0  0  0  0  0  0  0  0  0  0  0
   57.3030   31.5420   42.7050 O   0  0  0  0  0  0  0  0  0  0  0  0
   56.5880   31.8610   44.8990 N   0  0  0  0  0  0  0  0  0  0  0  0
   57.5490   32.4870   45.5100 C   0  0  0  0  0  0  0  0  0  0  0  0
   58.6310   31.8070   45.9880 N   0  0  0  0  0  0  0  0  0  0  0  0
   59.6750   32.4380   46.5920 C   0  0  0  0  0  0  0  0  0  0  0  0
   60.8550   31.6440   47.0510 C   0  0  0  0  0  0  0  0  0  0  0  0
   60.8802   31.6270   48.1506 H   0  0  0  0  0  0  0  0  0  0  0  0
   60.7752   30.6151   46.6701 H   0  0  0  0  0  0  0  0  0  0  0  0
   61.7780   32.1054   46.6701 H   0  0  0  0  0  0  0  0  0  0  0  0
   59.6570   33.8310   46.7270 C   0  0  0  0  0  0  0  0  0  0  0  0
   60.5015   34.3545   47.1990 H   0  0  0  0  0  0  0  0  0  0  0  0
   58.5550   34.5500   46.2560 C   0  0  0  0  0  0  0  0  0  0  0  0
   58.5233   35.6439   46.3673 H   0  0  0  0  0  0  0  0  0  0  0  0
   57.4940   33.8790   45.6440 C   0  0  0  0  0  0  0  0  0  0  0  0
   56.6238   34.4390   45.2710 H   0  0  0  0  0  0  0  0  0  0  0  0
   57.9530   26.4450   47.3220 C   0  0  0  0  0  0  0  0  0  0  0  0
   57.6594   25.4580   46.9352 H   0  0  0  0  0  0  0  0  0  0  0  0
   57.2601   26.7842   48.1062 H   0  0  0  0  0  0  0  0  0  0  0  0
   59.3380   26.3420   47.9290 C   0  0  0  0  0  0  0  0  0  0  0  0
   59.4878   25.6311   48.7549 H   0  0  0  0  0  0  0  0  0  0  0  0
   60.4010   27.0700   47.5180 C   0  0  0  0  0  0  0  0  0  0  0  0
   61.3637   26.9089   48.0251 H   0  0  0  0  0  0  0  0  0  0  0  0
   60.3480   28.0950   46.4010 C   0  0  0  0  0  0  0  0  0  0  0  0
   61.0786   27.8169   45.6271 H   0  0  0  0  0  0  0  0  0  0  0  0
   60.5827   29.0807   46.8290 H   0  0  0  0  0  0  0  0  0  0  0  0
  1  2  1  0
  2  3  1  0
  3  4  2  0
  4  5  1  0
  5  6  2  0
  6  7  1  0
  6  8  1  0
  8  9  1  0
  9 10  1  0
  9 11  1  0
  9 12  1  0
 12 13  2  0
 12 14  1  0
 14 15  2  0
 15 16  1  0
 16 17  1  0
 17 18  1  0
 18 19  1  0
 18 20  1  0
 18 21  1  0
 17 22  2  0
 22 23  1  0
 22 24  1  0
 24 25  1  0
 24 26  2  0
 26 27  1  0
  5 28  1  0
 28 29  1  0
 28 30  1  0
 28 31  1  0
 31 32  1  0
 31 33  2  0
 33 34  1  0
 33 35  1  0
 35 36  1  0
 35 37  1  0
  8  3  1  0
 26 15  1  0
 35  4  1  0
M  CHG  2   7  -1  16  -1
M  END
>  <UniqueID>  (38) 
32

>  <SMILES>  (38) 
Cc1ccc/c(=N/C(=O)Cn2c([O-])c3c(c2O)CC=CC3)[n-]1

>  <Energy>  (38) 
72.8094876399581

>  <Genealogy>  (38) 
Cc1cccc(=NC(=O)Cn2c([O-])c3c(c2O)CC=CC3)[n-]1 (protonated)
Cc1ccc/c(=N/C(=O)Cn2c([O-])c3c(c2O)CC=CC3)[n-]1 (cis-trans isomerization)
Cc1ccc/c(=N/C(=O)Cn2c([O-])c3c(c2O)CC=CC3)[n-]1 (3D coordinates assigned)
Cc1ccc/c(=N/C(=O)Cn2c([O-])c3c(c2O)CC=CC3)[n-]1 (nonaromatic ring conformer: 72.8094876399581 kcal/mol)

>  <smiles>  (38) 
Cc1cccc(=NC(=O)Cn2c(O)c3c(c2O)CC=CC3)[nH]1

>  <score_type>  (38) 
oracle

>  <origin>  (38) 
adg

>  <m_score__min__energy>  (38) 
-10.970000000000001

>  <m_primary>  (38) 
energy

$$$$
38:0
     RDKit          3D

 50 52  0  0  0  0  0  0  0  0999 V2000
   54.4130   21.8830   48.4630 C   0  0  0  0  0  0  0  0  0  0  0  0
   55.6960   22.3580   47.3280 S   0  0  0  0  0  0  0  0  0  0  0  0
   55.6400   21.4520   46.1290 O   0  0  0  0  0  0  0  0  0  0  0  0
   57.0270   22.2300   48.0100 O   0  0  0  0  0  0  0  0  0  0  0  0
   55.4270   24.0000   46.8410 N   0  0  0  0  0  0  0  0  0  0  0  0
   56.4190   24.9730   46.4710 C   0  0  0  0  0  0  0  0  0  0  0  0
   57.7520   24.5470   46.4230 C   0  0  0  0  0  0  0  0  0  0  0  0
   58.7670   25.4290   46.0590 C   0  0  0  0  0  0  0  0  0  0  0  0
   58.4640   26.7500   45.7360 C   0  0  0  0  0  0  0  0  0  0  0  0
   57.1390   27.2050   45.7650 C   0  0  0  0  0  0  0  0  0  0  0  0
   56.8660   28.5590   45.3590 N   0  0  0  0  0  0  0  0  0  0  0  0
   57.7890   29.3770   44.6250 C   0  0  0  0  0  0  0  0  0  0  0  0
   58.5260   28.8440   43.7510 O   0  0  0  0  0  0  0  0  0  0  0  0
   57.8840   30.8350   44.8850 C   0  0  0  0  0  0  0  0  0  0  0  0
   57.6890   31.7550   43.8410 C   0  0  0  0  0  0  0  0  0  0  0  0
   57.8390   33.1260   44.0670 C   0  0  0  0  0  0  0  0  0  0  0  0
   58.1790   33.5940   45.3370 C   0  0  0  0  0  0  0  0  0  0  0  0
   58.3650   32.7020   46.3970 C   0  0  0  0  0  0  0  0  0  0  0  0
   58.7040   33.2270   47.6880 N   0  0  0  0  0  0  0  0  0  0  0  0
   59.8240   34.5140   48.0100 S   0  0  0  0  0  0  0  0  0  0  0  0
   59.5550   35.6880   47.1090 O   0  0  0  0  0  0  0  0  0  0  0  0
   59.6330   34.9690   49.4290 O   0  0  0  0  0  0  0  0  0  0  0  0
   61.4800   33.9380   47.8120 C   0  0  0  0  0  0  0  0  0  0  0  0
   62.0430   33.8650   46.5320 C   0  0  0  0  0  0  0  0  0  0  0  0
   63.3490   33.4020   46.3690 C   0  0  0  0  0  0  0  0  0  0  0  0
   64.1110   33.0290   47.4810 C   0  0  0  0  0  0  0  0  0  0  0  0
   63.5710   33.1220   48.7730 C   0  0  0  0  0  0  0  0  0  0  0  0
   64.4030   32.7070   49.9600 C   0  0  0  0  0  0  0  0  0  0  0  0
   64.0840   31.4100   50.3120 F   0  0  0  0  0  0  0  0  0  0  0  0
   65.7480   32.7670   49.6310 F   0  0  0  0  0  0  0  0  0  0  0  0
   64.1850   33.5330   51.0490 F   0  0  0  0  0  0  0  0  0  0  0  0
   62.2400   33.5580   48.9290 C   0  0  0  0  0  0  0  0  0  0  0  0
   58.2290   31.3200   46.1620 C   0  0  0  0  0  0  0  0  0  0  0  0
   56.1020   26.3020   46.1060 C   0  0  0  0  0  0  0  0  0  0  0  0
   54.7780   26.7130   46.0190 O   0  0  0  0  0  0  0  0  0  0  0  0
   54.7693   22.0149   49.4953 H   0  0  0  0  0  0  0  0  0  0  0  0
   53.5260   22.5123   48.2980 H   0  0  0  0  0  0  0  0  0  0  0  0
   54.1497   20.8278   48.2980 H   0  0  0  0  0  0  0  0  0  0  0  0
   58.0002   23.5055   46.6752 H   0  0  0  0  0  0  0  0  0  0  0  0
   59.8102   25.0817   46.0265 H   0  0  0  0  0  0  0  0  0  0  0  0
   59.2720   27.4418   45.4558 H   0  0  0  0  0  0  0  0  0  0  0  0
   55.9020   28.9320   45.5080 H   0  0  0  0  0  0  0  0  0  0  0  0
   57.4163   31.3935   42.8385 H   0  0  0  0  0  0  0  0  0  0  0  0
   57.6887   33.8378   43.2419 H   0  0  0  0  0  0  0  0  0  0  0  0
   58.3017   34.6741   45.5053 H   0  0  0  0  0  0  0  0  0  0  0  0
   61.4553   34.1728   45.6546 H   0  0  0  0  0  0  0  0  0  0  0  0
   63.7818   33.3299   45.3603 H   0  0  0  0  0  0  0  0  0  0  0  0
   65.1383   32.6610   47.3422 H   0  0  0  0  0  0  0  0  0  0  0  0
   61.7936   33.6008   49.9334 H   0  0  0  0  0  0  0  0  0  0  0  0
   58.3942   30.6103   46.9860 H   0  0  0  0  0  0  0  0  0  0  0  0
  1  2  1  0
  2  3  2  0
  2  4  2  0
  2  5  1  0
  5  6  1  0
  6  7  2  0
  7  8  1  0
  8  9  2  0
  9 10  1  0
 10 11  1  0
 11 12  1  0
 12 13  2  0
 12 14  1  0
 14 15  2  0
 15 16  1  0
 16 17  2  0
 17 18  1  0
 18 19  1  0
 19 20  1  0
 20 21  2  0
 20 22  2  0
 20 23  1  0
 23 24  2  0
 24 25  1  0
 25 26  2  0
 26 27  1  0
 27 28  1  0
 28 29  1  0
 28 30  1  0
 28 31  1  0
 27 32  2  0
 18 33  2  0
 10 34  2  0
 34 35  1  0
 34  6  1  0
 33 14  1  0
 32 23  1  0
  1 36  1  0
  1 37  1  0
  1 38  1  0
  7 39  1  0
  8 40  1  0
  9 41  1  0
 11 42  1  0
 15 43  1  0
 16 44  1  0
 17 45  1  0
 24 46  1  0
 25 47  1  0
 26 48  1  0
 32 49  1  0
 33 50  1  0
M  CHG  3   5  -1  19  -1  35  -1
M  END
>  <UniqueID>  (39) 
33

>  <SMILES>  (39) 
CS(=O)(=O)[N-]c1cccc(NC(=O)c2cccc([N-]S(=O)(=O)c3cccc(C(F)(F)F)c3)c2)c1[O-]

>  <Energy>  (39) 
67.43384865549855

>  <Genealogy>  (39) 
CS(=O)(=O)[N-]c1cccc(NC(=O)c2cccc([N-]S(=O)(=O)c3cccc(C(F)(F)F)c3)c2)c1[O-] (protonated)
CS(=O)(=O)[N-]c1cccc(NC(=O)c2cccc([N-]S(=O)(=O)c3cccc(C(F)(F)F)c3)c2)c1[O-] (3D coordinates assigned)
CS(=O)(=O)[N-]c1cccc(NC(=O)c2cccc([N-]S(=O)(=O)c3cccc(C(F)(F)F)c3)c2)c1[O-] (optimized conformer: 67.43384865549855 kcal/mol)

>  <smiles>  (39) 
CS(=O)(=O)Nc1cccc(NC(=O)c2cccc(NS(=O)(=O)c3cccc(C(F)(F)F)c3)c2)c1O

>  <score_type>  (39) 
oracle

>  <origin>  (39) 
adg

>  <m_score__min__energy>  (39) 
-16.600000000000001

>  <m_primary>  (39) 
energy

$$$$
39:0
     RDKit          3D

 64 66  0  0  0  0  0  0  0  0999 V2000
   58.8810   30.6580   49.6320 C   0  0  0  0  0  0  0  0  0  0  0  0
   58.5930   32.0830   49.1910 C   0  0  0  0  0  0  0  0  0  0  0  0
   58.0850   32.0730   47.8580 O   0  0  0  0  0  0  0  0  0  0  0  0
   58.3830   33.0400   46.8850 C   0  0  0  0  0  0  0  0  0  0  0  0
   59.1910   34.1600   47.1670 C   0  0  0  0  0  0  0  0  0  0  0  0
   59.4720   35.0960   46.1680 C   0  0  0  0  0  0  0  0  0  0  0  0
   58.9650   34.9190   44.8800 C   0  0  0  0  0  0  0  0  0  0  0  0
   58.1670   33.8120   44.5890 C   0  0  0  0  0  0  0  0  0  0  0  0
   57.8510   32.8790   45.5940 C   0  0  0  0  0  0  0  0  0  0  0  0
   57.0580   31.7190   45.3060 N   0  0  0  0  0  0  0  0  0  0  0  0
   57.5430   30.3730   45.2340 C   0  0  0  0  0  0  0  0  0  0  0  0
   57.3460   29.7130   44.1810 O   0  0  0  0  0  0  0  0  0  0  0  0
   58.2690   29.7940   46.3310 N   0  0  0  0  0  0  0  0  0  0  0  0
   58.6360   28.4070   46.3720 C   0  0  0  0  0  0  0  0  0  0  0  0
   57.6930   27.4470   45.9850 C   0  0  0  0  0  0  0  0  0  0  0  0
   58.0210   26.0870   45.9850 C   0  0  0  0  0  0  0  0  0  0  0  0
   56.8470   24.8910   45.4330 S   0  0  0  0  0  0  0  0  0  0  0  0
   55.5030   25.2240   46.0180 O   0  0  0  0  0  0  0  0  0  0  0  0
   56.7270   24.9710   43.9360 O   0  0  0  0  0  0  0  0  0  0  0  0
   57.2860   23.2580   45.8940 N   0  0  0  0  0  0  0  0  0  0  0  0
   58.0800   22.5640   44.8570 C   0  0  0  0  0  0  0  0  0  0  0  0
   57.2460   21.5740   44.0260 C   0  0  0  0  0  0  0  0  0  0  0  0
   55.9030   21.9940   43.9590 O   0  0  0  0  0  0  0  0  0  0  0  0
   55.2990   21.8550   45.2300 C   0  0  0  0  0  0  0  0  0  0  0  0
   56.1330   22.4740   46.3760 C   0  0  0  0  0  0  0  0  0  0  0  0
   59.2900   25.6830   46.4130 C   0  0  0  0  0  0  0  0  0  0  0  0
   60.2250   26.6300   46.8340 C   0  0  0  0  0  0  0  0  0  0  0  0
   59.9050   28.0010   46.8280 C   0  0  0  0  0  0  0  0  0  0  0  0
   60.8060   28.9770   47.2820 O   0  0  0  0  0  0  0  0  0  0  0  0
   61.1450   30.1630   46.5700 C   0  0  0  0  0  0  0  0  0  0  0  0
   61.4310   31.2850   47.5680 C   0  0  0  0  0  0  0  0  0  0  0  0
   62.8770   31.7680   47.4660 C   0  0  0  0  0  0  0  0  0  0  0  0
   62.9160   33.1550   47.7220 O   0  0  0  0  0  0  0  0  0  0  0  0
   63.2870   33.8370   46.5450 C   0  0  0  0  0  0  0  0  0  0  0  0
   58.8909   30.6092   50.7309 H   0  0  0  0  0  0  0  0  0  0  0  0
   58.1000   29.9886   49.2422 H   0  0  0  0  0  0  0  0  0  0  0  0
   59.8607   30.3445   49.2422 H   0  0  0  0  0  0  0  0  0  0  0  0
   57.8480   32.5320   49.8643 H   0  0  0  0  0  0  0  0  0  0  0  0
   59.5207   32.6731   49.2262 H   0  0  0  0  0  0  0  0  0  0  0  0
   59.6022   34.2979   48.1779 H   0  0  0  0  0  0  0  0  0  0  0  0
   60.0939   35.9738   46.3974 H   0  0  0  0  0  0  0  0  0  0  0  0
   59.1947   35.6528   44.0934 H   0  0  0  0  0  0  0  0  0  0  0  0
   57.7828   33.6678   43.5684 H   0  0  0  0  0  0  0  0  0  0  0  0
   58.4140   30.3560   47.1980 H   0  0  0  0  0  0  0  0  0  0  0  0
   56.6856   27.7649   45.6783 H   0  0  0  0  0  0  0  0  0  0  0  0
   58.5074   23.3178   44.1794 H   0  0  0  0  0  0  0  0  0  0  0  0
   58.8614   21.9858   45.3719 H   0  0  0  0  0  0  0  0  0  0  0  0
   57.6590   21.5184   43.0080 H   0  0  0  0  0  0  0  0  0  0  0  0
   57.2857   20.5852   44.5063 H   0  0  0  0  0  0  0  0  0  0  0  0
   54.3173   22.3506   45.2059 H   0  0  0  0  0  0  0  0  0  0  0  0
   55.2151   20.7774   45.4342 H   0  0  0  0  0  0  0  0  0  0  0  0
   55.4813   23.1358   46.9653 H   0  0  0  0  0  0  0  0  0  0  0  0
   56.5297   21.6437   46.9787 H   0  0  0  0  0  0  0  0  0  0  0  0
   59.5521   24.6147   46.4178 H   0  0  0  0  0  0  0  0  0  0  0  0
   61.2190   26.3028   47.1729 H   0  0  0  0  0  0  0  0  0  0  0  0
   62.0391   29.9804   45.9558 H   0  0  0  0  0  0  0  0  0  0  0  0
   60.3086   30.4537   45.9174 H   0  0  0  0  0  0  0  0  0  0  0  0
   60.7565   32.1288   47.3605 H   0  0  0  0  0  0  0  0  0  0  0  0
   61.2677   30.8946   48.5833 H   0  0  0  0  0  0  0  0  0  0  0  0
   63.4959   31.2387   48.2055 H   0  0  0  0  0  0  0  0  0  0  0  0
   63.2671   31.5646   46.4578 H   0  0  0  0  0  0  0  0  0  0  0  0
   63.7972   34.7748   46.8100 H   0  0  0  0  0  0  0  0  0  0  0  0
   63.9656   33.2049   45.9534 H   0  0  0  0  0  0  0  0  0  0  0  0
   62.3877   34.0633   45.9534 H   0  0  0  0  0  0  0  0  0  0  0  0
  1  2  1  0
  2  3  1  0
  3  4  1  0
  4  5  2  0
  5  6  1  0
  6  7  2  0
  7  8  1  0
  8  9  2  0
  9 10  1  0
 10 11  1  0
 11 12  2  0
 11 13  1  0
 13 14  1  0
 14 15  2  0
 15 16  1  0
 16 17  1  0
 17 18  2  0
 17 19  2  0
 17 20  1  0
 20 21  1  0
 21 22  1  0
 22 23  1  0
 23 24  1  0
 24 25  1  0
 16 26  2  0
 26 27  1  0
 27 28  2  0
 28 29  1  0
 29 30  1  0
 30 31  1  0
 31 32  1  0
 32 33  1  0
 33 34  1  0
  9  4  1  0
 28 14  1  0
 25 20  1  0
  1 35  1  0
  1 36  1  0
  1 37  1  0
  2 38  1  0
  2 39  1  0
  5 40  1  0
  6 41  1  0
  7 42  1  0
  8 43  1  0
 13 44  1  0
 15 45  1  0
 21 46  1  0
 21 47  1  0
 22 48  1  0
 22 49  1  0
 24 50  1  0
 24 51  1  0
 25 52  1  0
 25 53  1  0
 26 54  1  0
 27 55  1  0
 30 56  1  0
 30 57  1  0
 31 58  1  0
 31 59  1  0
 32 60  1  0
 32 61  1  0
 34 62  1  0
 34 63  1  0
 34 64  1  0
M  CHG  1  10  -1
M  END
>  <UniqueID>  (40) 
34

>  <SMILES>  (40) 
CCOc1ccccc1[N-]C(=O)Nc1cc(S(=O)(=O)N2CCOCC2)ccc1OCCCOC

>  <Energy>  (40) 
76.2458642188564

>  <Genealogy>  (40) 
CCOc1ccccc1[N-]C(=O)Nc1cc(S(=O)(=O)N2CCOCC2)ccc1OCCCOC (protonated)
CCOc1ccccc1[N-]C(=O)Nc1cc(S(=O)(=O)N2CCOCC2)ccc1OCCCOC (3D coordinates assigned)
CCOc1ccccc1[N-]C(=O)Nc1cc(S(=O)(=O)N2CCOCC2)ccc1OCCCOC (nonaromatic ring conformer: 76.2458642188564 kcal/mol)

>  <smiles>  (40) 
CCOc1ccccc1NC(=O)Nc1cc(S(=O)(=O)N2CCOCC2)ccc1OCCCOC

>  <score_type>  (40) 
oracle

>  <origin>  (40) 
adg

>  <m_score__min__energy>  (40) 
-10.58

>  <m_primary>  (40) 
energy

$$$$
40:0
     RDKit          3D

 22 23  0  0  0  0  0  0  0  0999 V2000
   57.5900   31.7620   44.4740 C   0  0  0  0  0  0  0  0  0  0  0  0
   57.7220   30.5790   43.8770 C   0  0  0  0  0  0  0  0  0  0  0  0
   57.6920   29.2910   44.6170 C   0  0  0  0  0  0  0  0  0  0  0  0
   56.4430   28.7280   44.9500 C   0  0  0  0  0  0  0  0  0  0  0  0
   55.2680   29.3940   44.5960 O   0  0  0  0  0  0  0  0  0  0  0  0
   56.3820   27.5090   45.6470 C   0  0  0  0  0  0  0  0  0  0  0  0
   55.1540   26.9550   45.9900 O   0  0  0  0  0  0  0  0  0  0  0  0
   57.5540   26.8420   46.0070 C   0  0  0  0  0  0  0  0  0  0  0  0
   58.7990   27.3750   45.6600 C   0  0  0  0  0  0  0  0  0  0  0  0
   59.9860   26.7110   45.9850 C   0  0  0  0  0  0  0  0  0  0  0  0
   61.2080   27.2580   45.5980 C   0  0  0  0  0  0  0  0  0  0  0  0
   61.2130   28.4640   44.8900 C   0  0  0  0  0  0  0  0  0  0  0  0
   62.3040   28.9730   44.5250 O   0  0  0  0  0  0  0  0  0  0  0  0
   60.0690   29.0770   44.5980 O   0  0  0  0  0  0  0  0  0  0  0  0
   58.8770   28.5980   44.9550 C   0  0  0  0  0  0  0  0  0  0  0  0
   57.6198   32.6856   43.8773 H   0  0  0  0  0  0  0  0  0  0  0  0
   57.4512   31.8156   45.5639 H   0  0  0  0  0  0  0  0  0  0  0  0
   57.8596   30.5543   42.7859 H   0  0  0  0  0  0  0  0  0  0  0  0
   54.3740   28.9200   44.5340 H   0  0  0  0  0  0  0  0  0  0  0  0
   57.4980   25.8955   46.5646 H   0  0  0  0  0  0  0  0  0  0  0  0
   59.9554   25.7632   46.5424 H   0  0  0  0  0  0  0  0  0  0  0  0
   62.1519   26.7501   45.8451 H   0  0  0  0  0  0  0  0  0  0  0  0
  1  2  2  0
  2  3  1  0
  3  4  2  0
  4  5  1  0
  4  6  1  0
  6  7  1  0
  6  8  2  0
  8  9  1  0
  9 10  1  0
 10 11  2  0
 11 12  1  0
 12 13  2  0
 12 14  1  0
 14 15  1  0
 15  3  1  0
 15  9  2  0
  1 16  1  0
  1 17  1  0
  2 18  1  0
  5 19  1  0
  8 20  1  0
 10 21  1  0
 11 22  1  0
M  CHG  1   7  -1
M  END
>  <UniqueID>  (41) 
35

>  <SMILES>  (41) 
C=Cc1c(O)c([O-])cc2ccc(=O)oc12

>  <Energy>  (41) 
31.53320387011693

>  <Genealogy>  (41) 
C=Cc1c(O)c([O-])cc2ccc(=O)oc12 (protonated)
C=Cc1c(O)c([O-])cc2ccc(=O)oc12 (3D coordinates assigned)
C=Cc1c(O)c([O-])cc2ccc(=O)oc12 (optimized conformer: 31.53320387011693 kcal/mol)

>  <smiles>  (41) 
C=Cc1c(O)c(O)cc2ccc(=O)oc12

>  <score_type>  (41) 
oracle

>  <origin>  (41) 
adg

>  <m_score__min__energy>  (41) 
-10.15

>  <m_primary>  (41) 
energy

$$$$
41:0
     RDKit          3D

 45 47  0  0  0  0  0  0  0  0999 V2000
   60.9557   35.4931   49.2084 H   0  0  0  0  0  0  0  0  0  0  0  0
   60.7780   34.5770   48.6260 C   0  0  0  0  0  0  0  0  0  0  0  0
   61.7240   33.5480   48.6370 C   0  0  0  0  0  0  0  0  0  0  0  0
   62.6414   33.6506   49.2351 H   0  0  0  0  0  0  0  0  0  0  0  0
   61.5040   32.3890   47.8880 C   0  0  0  0  0  0  0  0  0  0  0  0
   62.2448   31.5761   47.9083 H   0  0  0  0  0  0  0  0  0  0  0  0
   60.3450   32.2560   47.1110 C   0  0  0  0  0  0  0  0  0  0  0  0
   60.1460   31.0560   46.3550 N   0  0  0  0  0  0  0  0  0  0  0  0
   59.9500   31.1530   45.3340 H   0  0  0  0  0  0  0  0  0  0  0  0
   60.0390   29.7650   46.9770 C   0  0  0  0  0  0  0  0  0  0  0  0
   60.2740   29.6340   48.2080 O   0  0  0  0  0  0  0  0  0  0  0  0
   59.7100   28.6020   46.2080 N   0  0  0  0  0  0  0  0  0  0  0  0
   58.4360   27.9420   46.1870 C   0  0  0  0  0  0  0  0  0  0  0  0
   57.4120   28.4170   45.3480 C   0  0  0  0  0  0  0  0  0  0  0  0
   57.6030   29.6450   44.5120 C   0  0  0  0  0  0  0  0  0  0  0  0
   57.7387   30.5176   45.1679 H   0  0  0  0  0  0  0  0  0  0  0  0
   58.4928   29.5216   43.8771 H   0  0  0  0  0  0  0  0  0  0  0  0
   56.7178   29.7977   43.8771 H   0  0  0  0  0  0  0  0  0  0  0  0
   56.2180   27.7660   45.3070 N   0  0  0  0  0  0  0  0  0  0  0  0
   55.9700   26.6470   46.0440 C   0  0  0  0  0  0  0  0  0  0  0  0
   54.8140   26.0530   45.9880 N   0  0  0  0  0  0  0  0  0  0  0  0
   54.5860   24.7220   45.4240 C   0  0  0  0  0  0  0  0  0  0  0  0
   53.8917   24.1685   46.0733 H   0  0  0  0  0  0  0  0  0  0  0  0
   54.1590   24.8327   44.4163 H   0  0  0  0  0  0  0  0  0  0  0  0
   55.8810   23.9600   45.3210 C   0  0  0  0  0  0  0  0  0  0  0  0
   56.2880   23.0970   46.3500 C   0  0  0  0  0  0  0  0  0  0  0  0
   55.6484   22.9604   47.2345 H   0  0  0  0  0  0  0  0  0  0  0  0
   57.5020   22.4100   46.2570 C   0  0  0  0  0  0  0  0  0  0  0  0
   57.8125   21.7337   47.0671 H   0  0  0  0  0  0  0  0  0  0  0  0
   58.3250   22.5800   45.1350 C   0  0  0  0  0  0  0  0  0  0  0  0
   59.5660   21.8780   45.0400 N   0  0  0  0  0  0  0  0  0  0  0  0
   60.4520   22.3850   44.8160 H   0  0  0  0  0  0  0  0  0  0  0  0
   59.6110   20.8450   45.1900 H   0  0  0  0  0  0  0  0  0  0  0  0
   57.9220   23.4440   44.1070 C   0  0  0  0  0  0  0  0  0  0  0  0
   58.5633   23.5804   43.2238 H   0  0  0  0  0  0  0  0  0  0  0  0
   56.7090   24.1330   44.1990 C   0  0  0  0  0  0  0  0  0  0  0  0
   56.4018   24.8127   43.3905 H   0  0  0  0  0  0  0  0  0  0  0  0
   56.9730   26.1290   46.8680 C   0  0  0  0  0  0  0  0  0  0  0  0
   56.7891   25.2216   47.4620 H   0  0  0  0  0  0  0  0  0  0  0  0
   58.2090   26.7720   46.9310 C   0  0  0  0  0  0  0  0  0  0  0  0
   59.0087   26.3618   47.5652 H   0  0  0  0  0  0  0  0  0  0  0  0
   59.3800   33.2850   47.1210 C   0  0  0  0  0  0  0  0  0  0  0  0
   57.8540   33.1210   46.2620 Cl  0  0  0  0  0  0  0  0  0  0  0  0
   59.6070   34.4430   47.8760 C   0  0  0  0  0  0  0  0  0  0  0  0
   58.8599   35.2504   47.8783 H   0  0  0  0  0  0  0  0  0  0  0  0
  1  2  1  0
  2  3  2  0
  3  4  1  0
  3  5  1  0
  5  6  1  0
  5  7  2  0
  7  8  1  0
  8  9  1  0
  8 10  1  0
 10 11  2  0
 10 12  1  0
 12 13  1  0
 13 14  2  0
 14 15  1  0
 15 16  1  0
 15 17  1  0
 15 18  1  0
 14 19  1  0
 19 20  1  0
 20 21  2  0
 21 22  1  0
 22 23  1  0
 22 24  1  0
 22 25  1  0
 25 26  2  0
 26 27  1  0
 26 28  1  0
 28 29  1  0
 28 30  2  0
 30 31  1  0
 31 32  1  0
 31 33  1  0
 30 34  1  0
 34 35  1  0
 34 36  2  0
 36 37  1  0
 20 38  1  0
 38 39  1  0
 38 40  2  0
 40 41  1  0
  7 42  1  0
 42 43  1  0
 42 44  2  0
 44 45  1  0
 44  2  1  0
 40 13  1  0
 36 25  1  0
M  CHG  2  12  -1  19  -1
M  END
>  <UniqueID>  (42) 
36

>  <SMILES>  (42) 
Cc1[n-]/c(=N\Cc2ccc(N)cc2)ccc1[N-]C(=O)Nc1ccccc1Cl

>  <Energy>  (42) 
55.92171717910856

>  <Genealogy>  (42) 
Cc1[n-]c(=NCc2ccc(N)cc2)ccc1[N-]C(=O)Nc1ccccc1Cl (protonated)
Cc1[n-]/c(=N\Cc2ccc(N)cc2)ccc1[N-]C(=O)Nc1ccccc1Cl (cis-trans isomerization)
Cc1[n-]/c(=N\Cc2ccc(N)cc2)ccc1[N-]C(=O)Nc1ccccc1Cl (3D coordinates assigned)
Cc1[n-]/c(=N\Cc2ccc(N)cc2)ccc1[N-]C(=O)Nc1ccccc1Cl (optimized conformer: 55.92171717910856 kcal/mol)

>  <smiles>  (42) 
Cc1[nH]c(=NCc2ccc(N)cc2)ccc1NC(=O)Nc1ccccc1Cl

>  <score_type>  (42) 
oracle

>  <origin>  (42) 
adg

>  <m_score__min__energy>  (42) 
-11.039999999999999

>  <m_primary>  (42) 
energy

$$$$
42:0
     RDKit          3D

 65 68  0  0  1  0  0  0  0  0999 V2000
   61.9390   34.5930   49.4180 C   0  0  0  0  0  0  0  0  0  0  0  0
   62.3220   33.2350   49.8410 C   0  0  0  0  0  0  0  0  0  0  0  0
   63.3340   32.9870   50.7100 N   0  0  0  0  0  0  0  0  0  0  0  0
   63.6740   31.7430   51.0890 C   0  0  0  0  0  0  0  0  0  0  0  0
   64.7660   31.6260   52.0130 N   0  0  0  0  0  0  0  0  0  0  0  0
   65.5040   32.8540   52.2390 C   0  0  0  0  0  0  0  0  0  0  0  0
   66.7860   32.7640   51.4450 C   0  0  0  0  0  0  0  0  0  0  0  0
   67.4870   31.4430   51.6370 C   0  0  0  0  0  0  0  0  0  0  0  0
   66.8280   30.3210   50.8900 C   0  0  0  0  0  0  0  0  0  0  0  0
   65.8390   29.5200   51.6600 C   0  0  0  0  0  0  0  0  0  0  0  0
   64.9420   30.2980   52.5680 C   0  0  0  0  0  0  0  0  0  0  0  0
   63.0280   30.6620   50.6260 N   0  0  0  0  0  0  0  0  0  0  0  0
   62.0190   30.8400   49.7650 C   0  0  0  0  0  0  0  0  0  0  0  0
   61.3320   29.7850   49.2680 N   0  0  0  0  0  0  0  0  0  0  0  0
   60.3150   29.9290   48.4030 C   0  0  0  0  0  0  0  0  0  0  0  0
   59.5650   28.7980   47.8570 C   0  0  0  0  0  0  0  0  0  0  0  0
   59.8870   27.6010   48.1470 O   0  0  0  0  0  0  0  0  0  0  0  0
   58.4550   28.9470   46.9880 N   0  0  0  0  0  0  0  0  0  0  0  0
   57.8130   27.7180   46.5290 C   0  0  0  0  0  0  0  0  0  0  0  0
   57.0380   28.0480   45.2940 C   0  0  0  0  0  0  0  0  0  0  0  0
   56.8570   29.4630   45.0620 N   0  0  0  0  0  0  0  0  0  0  0  0
   55.6080   29.7820   44.4010 C   0  0  0  0  0  0  0  0  0  0  0  0
   57.9680   30.0770   44.3640 C   0  0  0  0  0  0  0  0  0  0  0  0
   59.9710   31.1650   48.0210 N   0  0  0  0  0  0  0  0  0  0  0  0
   60.6110   32.2370   48.4780 C   0  0  0  0  0  0  0  0  0  0  0  0
   60.2340   33.3920   48.0770 N   0  0  0  0  0  0  0  0  0  0  0  0
   59.3360   33.6010   46.9990 C   0  0  0  0  0  0  0  0  0  0  0  0
   57.9680   33.4020   47.1420 C   0  0  0  0  0  0  0  0  0  0  0  0
   57.1560   33.6240   46.0490 C   0  0  0  0  0  0  0  0  0  0  0  0
   57.6290   34.0350   44.8270 C   0  0  0  0  0  0  0  0  0  0  0  0
   58.9880   34.2320   44.6920 C   0  0  0  0  0  0  0  0  0  0  0  0
   59.8190   34.0140   45.7740 C   0  0  0  0  0  0  0  0  0  0  0  0
   61.1530   34.2050   45.6480 F   0  0  0  0  0  0  0  0  0  0  0  0
   61.6550   32.1220   49.3640 C   0  0  0  0  0  0  0  0  0  0  0  0
   61.7628   35.2177   50.3061 H   0  0  0  0  0  0  0  0  0  0  0  0
   62.7485   35.0315   48.8160 H   0  0  0  0  0  0  0  0  0  0  0  0
   61.0197   34.5439   48.8160 H   0  0  0  0  0  0  0  0  0  0  0  0
   64.9115   33.7165   51.8997 H   0  0  0  0  0  0  0  0  0  0  0  0
   65.7190   32.9862   53.3097 H   0  0  0  0  0  0  0  0  0  0  0  0
   66.5503   32.8875   50.3777 H   0  0  0  0  0  0  0  0  0  0  0  0
   67.4593   33.5571   51.8024 H   0  0  0  0  0  0  0  0  0  0  0  0
   68.5236   31.5404   51.2821 H   0  0  0  0  0  0  0  0  0  0  0  0
   67.4438   31.1978   52.7085 H   0  0  0  0  0  0  0  0  0  0  0  0
   66.3088   30.7533   50.0219 H   0  0  0  0  0  0  0  0  0  0  0  0
   67.6366   29.6229   50.6277 H   0  0  0  0  0  0  0  0  0  0  0  0
   65.2059   28.9813   50.9396 H   0  0  0  0  0  0  0  0  0  0  0  0
   66.4298   28.8615   52.3137 H   0  0  0  0  0  0  0  0  0  0  0  0
   63.9664   29.7958   52.6454 H   0  0  0  0  0  0  0  0  0  0  0  0
   65.3874   30.3647   53.5716 H   0  0  0  0  0  0  0  0  0  0  0  0
   61.6170   28.8350   49.5790 H   0  0  0  0  0  0  0  0  0  0  0  0
   58.1400   29.8950   46.7090 H   0  0  0  0  0  0  0  0  0  0  0  0
   58.5756   26.9585   46.3017 H   0  0  0  0  0  0  0  0  0  0  0  0
   57.1477   27.3154   47.3070 H   0  0  0  0  0  0  0  0  0  0  0  0
   57.5704   27.6232   44.4302 H   0  0  0  0  0  0  0  0  0  0  0  0
   56.0333   27.6217   45.4311 H   0  0  0  0  0  0  0  0  0  0  0  0
   54.8334   29.9798   45.1565 H   0  0  0  0  0  0  0  0  0  0  0  0
   55.7434   30.6744   43.7723 H   0  0  0  0  0  0  0  0  0  0  0  0
   55.2989   28.9340   43.7723 H   0  0  0  0  0  0  0  0  0  0  0  0
   58.6866   30.4741   45.0961 H   0  0  0  0  0  0  0  0  0  0  0  0
   58.4650   29.3255   43.7329 H   0  0  0  0  0  0  0  0  0  0  0  0
   57.5961   30.8976   43.7329 H   0  0  0  0  0  0  0  0  0  0  0  0
   57.5432   33.0756   48.1028 H   0  0  0  0  0  0  0  0  0  0  0  0
   56.0737   33.4635   46.1622 H   0  0  0  0  0  0  0  0  0  0  0  0
   56.9453   34.2021   43.9816 H   0  0  0  0  0  0  0  0  0  0  0  0
   59.4070   34.5604   43.7294 H   0  0  0  0  0  0  0  0  0  0  0  0
  1  2  1  0
  2  3  2  0
  3  4  1  0
  4  5  1  0
  5  6  1  0
  6  7  1  0
  7  8  1  0
  8  9  1  0
  9 10  1  0
 10 11  1  0
  4 12  2  0
 12 13  1  0
 13 14  1  0
 14 15  1  0
 15 16  1  0
 16 17  2  0
 16 18  1  0
 18 19  1  0
 19 20  1  0
 20 21  1  0
 21 22  1  0
 21 23  1  0
 15 24  2  0
 24 25  1  0
 25 26  2  0
 26 27  1  0
 27 28  2  0
 28 29  1  0
 29 30  2  0
 30 31  1  0
 31 32  2  0
 32 33  1  0
 25 34  1  0
 34  2  1  0
 11  5  1  0
 34 13  2  0
 32 27  1  0
  1 35  1  0
  1 36  1  0
  1 37  1  0
  6 38  1  0
  6 39  1  0
  7 40  1  0
  7 41  1  0
  8 42  1  0
  8 43  1  0
  9 44  1  0
  9 45  1  0
 10 46  1  0
 10 47  1  0
 11 48  1  0
 11 49  1  0
 14 50  1  0
 18 51  1  0
 19 52  1  0
 19 53  1  0
 20 54  1  0
 20 55  1  0
 22 56  1  0
 22 57  1  0
 22 58  1  0
 23 59  1  0
 23 60  1  0
 23 61  1  0
 28 62  1  0
 29 63  1  0
 30 64  1  0
 31 65  1  0
M  END
>  <smiles>  (43) 
Cc1nc(N2CCCCCC2)nc2[nH]c(C(=O)NCCN(C)C)nc(=Nc3ccccc3F)c12

>  <score_type>  (43) 
oracle

>  <origin>  (43) 
adg

>  <m_score__min__energy>  (43) 
-5.8499999999999996

>  <m_primary>  (43) 
energy

$$$$
43:0
     RDKit          3D

 65 68  0  0  0  0  0  0  0  0999 V2000
   55.2430   23.9600   46.7030 C   0  0  0  0  0  0  0  0  0  0  0  0
   56.0870   25.1840   46.5440 C   0  0  0  0  0  0  0  0  0  0  0  0
   57.4270   25.1780   46.9390 C   0  0  0  0  0  0  0  0  0  0  0  0
   58.2150   26.3250   46.7590 C   0  0  0  0  0  0  0  0  0  0  0  0
   59.6620   26.2800   47.1810 C   0  0  0  0  0  0  0  0  0  0  0  0
   57.6530   27.4630   46.1270 C   0  0  0  0  0  0  0  0  0  0  0  0
   58.4870   28.6950   45.8150 C   0  0  0  0  0  0  0  0  0  0  0  0
   57.8580   29.9350   46.2820 N   0  0  0  0  0  0  0  0  0  0  0  0
   57.6680   31.1060   45.0060 S   0  0  0  0  0  0  0  0  0  0  0  0
   58.3400   30.5850   43.7690 O   0  0  0  0  0  0  0  0  0  0  0  0
   56.2000   31.2540   44.7220 O   0  0  0  0  0  0  0  0  0  0  0  0
   58.4210   32.6570   45.4350 C   0  0  0  0  0  0  0  0  0  0  0  0
   58.1200   33.7670   44.6320 C   0  0  0  0  0  0  0  0  0  0  0  0
   58.7160   35.0060   44.8740 C   0  0  0  0  0  0  0  0  0  0  0  0
   59.6150   35.1560   45.9290 C   0  0  0  0  0  0  0  0  0  0  0  0
   59.9100   34.0690   46.7540 C   0  0  0  0  0  0  0  0  0  0  0  0
   59.3110   32.8180   46.5310 C   0  0  0  0  0  0  0  0  0  0  0  0
   59.6360   31.7200   47.4630 C   0  0  0  0  0  0  0  0  0  0  0  0
   60.6150   30.7700   47.1300 C   0  0  0  0  0  0  0  0  0  0  0  0
   60.9230   29.7380   48.0190 C   0  0  0  0  0  0  0  0  0  0  0  0
   60.2480   29.6360   49.2470 C   0  0  0  0  0  0  0  0  0  0  0  0
   60.5460   28.5110   50.1960 C   0  0  0  0  0  0  0  0  0  0  0  0
   61.6840   28.8500   51.0640 N   0  0  0  0  0  0  0  0  0  0  0  0
   61.3110   29.7550   52.1700 C   0  0  0  0  0  0  0  0  0  0  0  0
   62.3040   30.9180   52.2930 C   0  0  0  0  0  0  0  0  0  0  0  0
   62.4560   31.6750   50.9980 C   0  0  0  0  0  0  0  0  0  0  0  0
   63.3960   31.2680   50.0410 C   0  0  0  0  0  0  0  0  0  0  0  0
   63.5280   31.9920   48.8530 C   0  0  0  0  0  0  0  0  0  0  0  0
   62.7470   33.0840   48.6270 N   0  0  0  0  0  0  0  0  0  0  0  0
   61.8250   33.4980   49.5380 C   0  0  0  0  0  0  0  0  0  0  0  0
   61.6620   32.8020   50.7380 C   0  0  0  0  0  0  0  0  0  0  0  0
   59.2530   30.5730   49.5670 C   0  0  0  0  0  0  0  0  0  0  0  0
   58.9410   31.6000   48.6740 C   0  0  0  0  0  0  0  0  0  0  0  0
   56.2880   27.4230   45.7680 C   0  0  0  0  0  0  0  0  0  0  0  0
   55.7280   28.4210   45.2420 O   0  0  0  0  0  0  0  0  0  0  0  0
   55.5550   26.2980   45.9800 N   0  0  0  0  0  0  0  0  0  0  0  0
   55.0986   23.7506   47.7732 H   0  0  0  0  0  0  0  0  0  0  0  0
   54.2653   24.1243   46.2264 H   0  0  0  0  0  0  0  0  0  0  0  0
   55.7441   23.1046   46.2264 H   0  0  0  0  0  0  0  0  0  0  0  0
   57.8639   24.2751   47.3906 H   0  0  0  0  0  0  0  0  0  0  0  0
   59.7238   26.2781   48.2793 H   0  0  0  0  0  0  0  0  0  0  0  0
   60.1310   25.3668   46.7858 H   0  0  0  0  0  0  0  0  0  0  0  0
   60.1868   27.1623   46.7858 H   0  0  0  0  0  0  0  0  0  0  0  0
   59.4664   28.5907   46.3047 H   0  0  0  0  0  0  0  0  0  0  0  0
   58.5853   28.7626   44.7215 H   0  0  0  0  0  0  0  0  0  0  0  0
   57.4061   33.6600   43.8020 H   0  0  0  0  0  0  0  0  0  0  0  0
   58.4758   35.8656   44.2310 H   0  0  0  0  0  0  0  0  0  0  0  0
   60.0917   36.1304   46.1113 H   0  0  0  0  0  0  0  0  0  0  0  0
   60.6182   34.1933   47.5865 H   0  0  0  0  0  0  0  0  0  0  0  0
   61.1407   30.8389   46.1662 H   0  0  0  0  0  0  0  0  0  0  0  0
   61.6972   29.0020   47.7568 H   0  0  0  0  0  0  0  0  0  0  0  0
   59.6602   28.3208   50.8199 H   0  0  0  0  0  0  0  0  0  0  0  0
   60.8016   27.6144   49.6122 H   0  0  0  0  0  0  0  0  0  0  0  0
   62.0270   27.9570   51.4860 H   0  0  0  0  0  0  0  0  0  0  0  0
   60.3061   30.1597   51.9793 H   0  0  0  0  0  0  0  0  0  0  0  0
   61.3264   29.1826   53.1092 H   0  0  0  0  0  0  0  0  0  0  0  0
   61.9445   31.6106   53.0683 H   0  0  0  0  0  0  0  0  0  0  0  0
   63.2859   30.4979   52.5564 H   0  0  0  0  0  0  0  0  0  0  0  0
   64.0255   30.3847   50.2239 H   0  0  0  0  0  0  0  0  0  0  0  0
   64.2648   31.6788   48.0986 H   0  0  0  0  0  0  0  0  0  0  0  0
   62.8580   33.6140   47.7340 H   0  0  0  0  0  0  0  0  0  0  0  0
   61.2063   34.3832   49.3289 H   0  0  0  0  0  0  0  0  0  0  0  0
   60.9159   33.1354   51.4744 H   0  0  0  0  0  0  0  0  0  0  0  0
   58.7172   30.4979   50.5247 H   0  0  0  0  0  0  0  0  0  0  0  0
   58.1458   32.3184   48.9222 H   0  0  0  0  0  0  0  0  0  0  0  0
  1  2  1  0
  2  3  2  0
  3  4  1  0
  4  5  1  0
  4  6  2  0
  6  7  1  0
  7  8  1  0
  8  9  1  0
  9 10  2  0
  9 11  2  0
  9 12  1  0
 12 13  2  0
 13 14  1  0
 14 15  2  0
 15 16  1  0
 16 17  2  0
 17 18  1  0
 18 19  2  0
 19 20  1  0
 20 21  2  0
 21 22  1  0
 22 23  1  0
 23 24  1  0
 24 25  1  0
 25 26  1  0
 26 27  2  0
 27 28  1  0
 28 29  2  0
 29 30  1  0
 30 31  2  0
 21 32  1  0
 32 33  2  0
  6 34  1  0
 34 35  2  0
 34 36  1  0
 36  2  1  0
 17 12  1  0
 33 18  1  0
 31 26  1  0
  1 37  1  0
  1 38  1  0
  1 39  1  0
  3 40  1  0
  5 41  1  0
  5 42  1  0
  5 43  1  0
  7 44  1  0
  7 45  1  0
 13 46  1  0
 14 47  1  0
 15 48  1  0
 16 49  1  0
 19 50  1  0
 20 51  1  0
 22 52  1  0
 22 53  1  0
 23 54  1  0
 24 55  1  0
 24 56  1  0
 25 57  1  0
 25 58  1  0
 27 59  1  0
 28 60  1  0
 29 61  1  0
 30 62  1  0
 31 63  1  0
 32 64  1  0
 33 65  1  0
M  CHG  3   8  -1  29   1  36  -1
M  END
>  <UniqueID>  (44) 
37

>  <SMILES>  (44) 
Cc1cc(C)c(C[N-]S(=O)(=O)c2ccccc2-c2ccc(CNCCc3cc[nH+]cc3)cc2)c(=O)[n-]1

>  <Energy>  (44) 
73.8488419153943

>  <Genealogy>  (44) 
Cc1cc(C)c(C[N-]S(=O)(=O)c2ccccc2-c2ccc(CNCCc3cc[nH+]cc3)cc2)c(=O)[n-]1 (protonated)
Cc1cc(C)c(C[N-]S(=O)(=O)c2ccccc2-c2ccc(CNCCc3cc[nH+]cc3)cc2)c(=O)[n-]1 (3D coordinates assigned)
Cc1cc(C)c(C[N-]S(=O)(=O)c2ccccc2-c2ccc(CNCCc3cc[nH+]cc3)cc2)c(=O)[n-]1 (optimized conformer: 73.8488419153943 kcal/mol)

>  <smiles>  (44) 
Cc1cc(C)c(CNS(=O)(=O)c2ccccc2-c2ccc(CNCCc3ccncc3)cc2)c(=O)[nH]1

>  <score_type>  (44) 
oracle

>  <origin>  (44) 
adg

>  <m_score__min__energy>  (44) 
-10.890000000000001

>  <m_primary>  (44) 
energy

$$$$
44:0
     RDKit          3D

 51 53  0  0  0  0  0  0  0  0999 V2000
   59.2589   35.1023   46.4075 H   0  0  0  0  0  0  0  0  0  0  0  0
   58.7680   34.2630   45.8930 C   0  0  0  0  0  0  0  0  0  0  0  0
   58.0500   33.3170   46.6290 C   0  0  0  0  0  0  0  0  0  0  0  0
   57.9753   33.4128   47.7223 H   0  0  0  0  0  0  0  0  0  0  0  0
   57.4260   32.2480   45.9770 C   0  0  0  0  0  0  0  0  0  0  0  0
   56.8607   31.5054   46.5592 H   0  0  0  0  0  0  0  0  0  0  0  0
   57.5190   32.1200   44.5820 C   0  0  0  0  0  0  0  0  0  0  0  0
   56.8690   30.9530   43.8860 C   0  0  0  0  0  0  0  0  0  0  0  0
   57.6450   30.3526   43.3887 H   0  0  0  0  0  0  0  0  0  0  0  0
   56.1506   31.3397   43.1482 H   0  0  0  0  0  0  0  0  0  0  0  0
   56.1500   30.1100   44.8410 N   0  0  0  0  0  0  0  0  0  0  0  0
   56.6640   29.0930   45.4690 C   0  0  0  0  0  0  0  0  0  0  0  0
   57.7790   29.2340   46.2350 N   0  0  0  0  0  0  0  0  0  0  0  0
   58.2980   28.1660   46.8950 C   0  0  0  0  0  0  0  0  0  0  0  0
   59.3550   28.2900   47.6380 N   0  0  0  0  0  0  0  0  0  0  0  0
   59.6240   29.4430   48.4910 C   0  0  0  0  0  0  0  0  0  0  0  0
   60.2629   29.1365   49.3323 H   0  0  0  0  0  0  0  0  0  0  0  0
   58.6759   29.8428   48.8799 H   0  0  0  0  0  0  0  0  0  0  0  0
   60.3270   30.5050   47.6860 C   0  0  0  0  0  0  0  0  0  0  0  0
   60.8890   31.5530   48.2260 N   0  0  0  0  0  0  0  0  0  0  0  0
   62.2010   32.1260   47.9190 C   0  0  0  0  0  0  0  0  0  0  0  0
   62.7866   31.3930   47.3448 H   0  0  0  0  0  0  0  0  0  0  0  0
   62.7037   32.3695   48.8666 H   0  0  0  0  0  0  0  0  0  0  0  0
   62.0690   33.4070   47.1010 C   0  0  0  0  0  0  0  0  0  0  0  0
   61.9803   34.2680   47.7798 H   0  0  0  0  0  0  0  0  0  0  0  0
   62.9592   33.5304   46.4667 H   0  0  0  0  0  0  0  0  0  0  0  0
   61.1724   33.3463   46.4667 H   0  0  0  0  0  0  0  0  0  0  0  0
   60.3300   30.3880   46.2630 N   0  0  0  0  0  0  0  0  0  0  0  0
   59.8640   29.5800   45.7930 H   0  0  0  0  0  0  0  0  0  0  0  0
   60.7950   31.1140   45.6720 H   0  0  0  0  0  0  0  0  0  0  0  0
   57.7030   26.9530   46.7790 N   0  0  0  0  0  0  0  0  0  0  0  0
   56.5960   26.7990   46.0040 C   0  0  0  0  0  0  0  0  0  0  0  0
   55.9970   25.6490   45.8990 N   0  0  0  0  0  0  0  0  0  0  0  0
   56.4720   24.4910   45.1900 C   0  0  0  0  0  0  0  0  0  0  0  0
   55.7700   23.9420   44.1010 C   0  0  0  0  0  0  0  0  0  0  0  0
   54.8402   24.4158   43.7532 H   0  0  0  0  0  0  0  0  0  0  0  0
   56.2500   22.7970   43.4600 C   0  0  0  0  0  0  0  0  0  0  0  0
   55.7056   22.3817   42.5991 H   0  0  0  0  0  0  0  0  0  0  0  0
   57.4190   22.1780   43.9090 C   0  0  0  0  0  0  0  0  0  0  0  0
   57.7980   21.2823   43.3952 H   0  0  0  0  0  0  0  0  0  0  0  0
   58.1100   22.6960   45.0130 C   0  0  0  0  0  0  0  0  0  0  0  0
   59.2980   22.0530   45.4840 N   0  0  0  0  0  0  0  0  0  0  0  0
   60.0360   22.5950   45.9860 H   0  0  0  0  0  0  0  0  0  0  0  0
   59.4490   21.0310   45.3300 H   0  0  0  0  0  0  0  0  0  0  0  0
   57.6270   23.8450   45.6550 C   0  0  0  0  0  0  0  0  0  0  0  0
   58.1588   24.2436   46.5315 H   0  0  0  0  0  0  0  0  0  0  0  0
   56.0750   27.8760   45.3620 N   0  0  0  0  0  0  0  0  0  0  0  0
   58.2400   33.0780   43.8480 C   0  0  0  0  0  0  0  0  0  0  0  0
   58.3144   32.9890   42.7541 H   0  0  0  0  0  0  0  0  0  0  0  0
   58.8630   34.1440   44.5050 C   0  0  0  0  0  0  0  0  0  0  0  0
   59.4287   34.8898   43.9274 H   0  0  0  0  0  0  0  0  0  0  0  0
  1  2  1  0
  2  3  2  0
  3  4  1  0
  3  5  1  0
  5  6  1  0
  5  7  2  0
  7  8  1  0
  8  9  1  0
  8 10  1  0
  8 11  1  0
 11 12  2  0
 12 13  1  0
 13 14  1  0
 14 15  2  3
 15 16  1  0
 16 17  1  0
 16 18  1  0
 16 19  1  0
 19 20  2  3
 20 21  1  0
 21 22  1  0
 21 23  1  0
 21 24  1  0
 24 25  1  0
 24 26  1  0
 24 27  1  0
 19 28  1  0
 28 29  1  0
 28 30  1  0
 14 31  1  0
 31 32  1  0
 32 33  2  0
 33 34  1  0
 34 35  2  0
 35 36  1  0
 35 37  1  0
 37 38  1  0
 37 39  2  0
 39 40  1  0
 39 41  1  0
 41 42  1  0
 42 43  1  0
 42 44  1  0
 41 45  2  0
 45 46  1  0
 32 47  1  0
  7 48  1  0
 48 49  1  0
 48 50  2  0
 50 51  1  0
 50  2  1  0
 47 12  1  0
 45 34  1  0
M  CHG  3  13  -1  31  -1  47  -1
M  END
>  <UniqueID>  (45) 
38

>  <SMILES>  (45) 
CCN=C(N)CN=c1[n-]/c(=N\c2cccc(N)c2)[n-]/c(=N/Cc2ccccc2)[n-]1

>  <Energy>  (45) 
52.20872252141817

>  <Genealogy>  (45) 
CCN=C(N)CN=c1[n-]c(=NCc2ccccc2)[n-]c(=Nc2cccc(N)c2)[n-]1 (protonated)
CCN=C(N)CN=c1[n-]/c(=N\c2cccc(N)c2)[n-]/c(=N/Cc2ccccc2)[n-]1 (cis-trans isomerization)
CCN=C(N)CN=c1[n-]/c(=N\c2cccc(N)c2)[n-]/c(=N/Cc2ccccc2)[n-]1 (3D coordinates assigned)
CCN=C(N)CN=c1[n-]/c(=N\c2cccc(N)c2)[n-]/c(=N/Cc2ccccc2)[n-]1 (optimized conformer: 52.20872252141817 kcal/mol)

>  <smiles>  (45) 
CCN=C(N)CN=c1[nH]c(=NCc2ccccc2)[nH]c(=Nc2cccc(N)c2)[nH]1

>  <score_type>  (45) 
oracle

>  <origin>  (45) 
adg

>  <m_score__min__energy>  (45) 
-12.44

>  <m_primary>  (45) 
energy

$$$$
45:0
     RDKit          3D

 41 43  0  0  0  0  0  0  0  0999 V2000
   57.3830   29.6400   50.4600 H   0  0  0  0  0  0  0  0  0  0  0  0
   57.1450   30.1840   51.2810 O   0  0  0  0  0  0  0  0  0  0  0  0
   57.7650   31.4010   51.5610 C   0  0  0  0  0  0  0  0  0  0  0  0
   57.5450   32.0080   52.8080 C   0  0  0  0  0  0  0  0  0  0  0  0
   56.8914   31.5182   53.5448 H   0  0  0  0  0  0  0  0  0  0  0  0
   58.1480   33.2270   53.1210 C   0  0  0  0  0  0  0  0  0  0  0  0
   57.9681   33.6951   54.1000 H   0  0  0  0  0  0  0  0  0  0  0  0
   58.9790   33.8510   52.1910 C   0  0  0  0  0  0  0  0  0  0  0  0
   59.4560   34.8108   52.4384 H   0  0  0  0  0  0  0  0  0  0  0  0
   59.2070   33.2600   50.9460 C   0  0  0  0  0  0  0  0  0  0  0  0
   59.8641   33.7607   50.2197 H   0  0  0  0  0  0  0  0  0  0  0  0
   58.6060   32.0300   50.6080 C   0  0  0  0  0  0  0  0  0  0  0  0
   58.8700   31.4350   49.2680 C   0  0  0  0  0  0  0  0  0  0  0  0
   58.6800   30.2020   49.0850 O   0  0  0  0  0  0  0  0  0  0  0  0
   59.3900   32.2400   48.2000 N   0  0  0  0  0  0  0  0  0  0  0  0
   58.7620   32.5040   46.9360 C   0  0  0  0  0  0  0  0  0  0  0  0
   58.4170   33.8050   46.5290 C   0  0  0  0  0  0  0  0  0  0  0  0
   58.6081   34.6578   47.1970 H   0  0  0  0  0  0  0  0  0  0  0  0
   57.8320   34.0170   45.2780 C   0  0  0  0  0  0  0  0  0  0  0  0
   57.5579   35.0358   44.9669 H   0  0  0  0  0  0  0  0  0  0  0  0
   57.5940   32.9400   44.4210 C   0  0  0  0  0  0  0  0  0  0  0  0
   57.1299   33.1131   43.4388 H   0  0  0  0  0  0  0  0  0  0  0  0
   57.9450   31.6380   44.8090 C   0  0  0  0  0  0  0  0  0  0  0  0
   57.7540   30.4870   43.8610 C   0  0  0  0  0  0  0  0  0  0  0  0
   58.5173   29.7198   44.0578 H   0  0  0  0  0  0  0  0  0  0  0  0
   57.8517   30.8456   42.8257 H   0  0  0  0  0  0  0  0  0  0  0  0
   56.3940   29.8980   44.0570 C   0  0  0  0  0  0  0  0  0  0  0  0
   55.4900   30.1010   43.2020 O   0  0  0  0  0  0  0  0  0  0  0  0
   56.1390   29.0720   45.2000 N   0  0  0  0  0  0  0  0  0  0  0  0
   56.7920   28.0140   45.5970 C   0  0  0  0  0  0  0  0  0  0  0  0
   58.1490   28.1020   45.6760 N   0  0  0  0  0  0  0  0  0  0  0  0
   58.9290   27.0650   46.0780 C   0  0  0  0  0  0  0  0  0  0  0  0
   60.0218   27.1833   46.1200 H   0  0  0  0  0  0  0  0  0  0  0  0
   58.3460   25.8520   46.4370 C   0  0  0  0  0  0  0  0  0  0  0  0
   58.9729   25.0052   46.7531 H   0  0  0  0  0  0  0  0  0  0  0  0
   56.9590   25.7240   46.3910 C   0  0  0  0  0  0  0  0  0  0  0  0
   56.4872   24.7719   46.6755 H   0  0  0  0  0  0  0  0  0  0  0  0
   56.1650   26.8000   45.9850 C   0  0  0  0  0  0  0  0  0  0  0  0
   54.7840   26.6510   46.0170 O   0  0  0  0  0  0  0  0  0  0  0  0
   58.5470   31.4320   46.0610 C   0  0  0  0  0  0  0  0  0  0  0  0
   58.8529   30.4178   46.3575 H   0  0  0  0  0  0  0  0  0  0  0  0
  1  2  1  0
  2  3  1  0
  3  4  2  0
  4  5  1  0
  4  6  1  0
  6  7  1  0
  6  8  2  0
  8  9  1  0
  8 10  1  0
 10 11  1  0
 10 12  2  0
 12 13  1  0
 13 14  2  0
 13 15  1  0
 15 16  1  0
 16 17  2  0
 17 18  1  0
 17 19  1  0
 19 20  1  0
 19 21  2  0
 21 22  1  0
 21 23  1  0
 23 24  1  0
 24 25  1  0
 24 26  1  0
 24 27  1  0
 27 28  2  0
 27 29  1  0
 29 30  2  0
 30 31  1  0
 31 32  1  0
 32 33  1  0
 32 34  2  0
 34 35  1  0
 34 36  1  0
 36 37  1  0
 36 38  2  0
 38 39  1  0
 23 40  2  0
 40 41  1  0
 12  3  1  0
 40 16  1  0
 38 30  1  0
M  CHG  3  15  -1  31  -1  39  -1
M  END
>  <UniqueID>  (46) 
39

>  <SMILES>  (46) 
O=C(Cc1cccc([N-]C(=O)c2ccccc2O)c1)/N=c1/[n-]cccc1[O-]

>  <Energy>  (46) 
60.15138439067102

>  <Genealogy>  (46) 
O=C(Cc1cccc([N-]C(=O)c2ccccc2O)c1)N=c1[n-]cccc1[O-] (protonated)
O=C(Cc1cccc([N-]C(=O)c2ccccc2O)c1)/N=c1/[n-]cccc1[O-] (cis-trans isomerization)
O=C(Cc1cccc([N-]C(=O)c2ccccc2O)c1)/N=c1/[n-]cccc1[O-] (3D coordinates assigned)
O=C(Cc1cccc([N-]C(=O)c2ccccc2O)c1)/N=c1/[n-]cccc1[O-] (optimized conformer: 60.15138439067102 kcal/mol)

>  <smiles>  (46) 
O=C(Cc1cccc(NC(=O)c2ccccc2O)c1)N=c1[nH]cccc1O

>  <score_type>  (46) 
oracle

>  <origin>  (46) 
adg

>  <m_score__min__energy>  (46) 
-14.75

>  <m_primary>  (46) 
energy

$$$$
46:0
     RDKit          3D

 39 41  0  0  0  0  0  0  0  0999 V2000
   58.4937   33.4508   45.0194 H   0  0  0  0  0  0  0  0  0  0  0  0
   58.0810   32.8090   44.2270 C   0  0  0  0  0  0  0  0  0  0  0  0
   58.4040   33.0430   42.9270 N   0  0  0  0  0  0  0  0  0  0  0  0
   57.9090   32.2760   41.9220 C   0  0  0  0  0  0  0  0  0  0  0  0
   58.1832   32.4942   40.8793 H   0  0  0  0  0  0  0  0  0  0  0  0
   57.0520   31.2100   42.2090 C   0  0  0  0  0  0  0  0  0  0  0  0
   56.6365   30.5985   41.3945 H   0  0  0  0  0  0  0  0  0  0  0  0
   56.7250   30.9250   43.5450 C   0  0  0  0  0  0  0  0  0  0  0  0
   55.7550   29.8220   43.8890 C   0  0  0  0  0  0  0  0  0  0  0  0
   55.8533   29.0184   43.1444 H   0  0  0  0  0  0  0  0  0  0  0  0
   54.7413   30.2491   43.8843 H   0  0  0  0  0  0  0  0  0  0  0  0
   56.0030   29.2650   45.2200 N   0  0  0  0  0  0  0  0  0  0  0  0
   56.6420   28.1990   45.6240 C   0  0  0  0  0  0  0  0  0  0  0  0
   55.9110   27.0530   45.7160 N   0  0  0  0  0  0  0  0  0  0  0  0
   56.4430   25.8570   46.0760 C   0  0  0  0  0  0  0  0  0  0  0  0
   55.8019   24.9650   46.1348 H   0  0  0  0  0  0  0  0  0  0  0  0
   57.7970   25.7600   46.3700 C   0  0  0  0  0  0  0  0  0  0  0  0
   58.2387   24.7916   46.6475 H   0  0  0  0  0  0  0  0  0  0  0  0
   58.5880   26.9040   46.3090 C   0  0  0  0  0  0  0  0  0  0  0  0
   59.6592   26.8378   46.5502 H   0  0  0  0  0  0  0  0  0  0  0  0
   58.0340   28.1420   45.9430 C   0  0  0  0  0  0  0  0  0  0  0  0
   58.9500   29.2990   45.9750 C   0  0  0  0  0  0  0  0  0  0  0  0
   59.4940   29.6650   44.9010 O   0  0  0  0  0  0  0  0  0  0  0  0
   59.1230   30.1140   47.1490 N   0  0  0  0  0  0  0  0  0  0  0  0
   59.4490   31.3730   47.2070 C   0  0  0  0  0  0  0  0  0  0  0  0
   60.7270   31.7890   46.9740 N   0  0  0  0  0  0  0  0  0  0  0  0
   61.0830   33.1000   47.0030 C   0  0  0  0  0  0  0  0  0  0  0  0
   62.4950   33.4910   46.7070 C   0  0  0  0  0  0  0  0  0  0  0  0
   63.0393   33.6417   47.6509 H   0  0  0  0  0  0  0  0  0  0  0  0
   62.9821   32.6939   46.1261 H   0  0  0  0  0  0  0  0  0  0  0  0
   62.5027   34.4251   46.1261 H   0  0  0  0  0  0  0  0  0  0  0  0
   60.1110   34.0760   47.2590 C   0  0  0  0  0  0  0  0  0  0  0  0
   60.3822   35.1420   47.2699 H   0  0  0  0  0  0  0  0  0  0  0  0
   58.7950   33.6800   47.5000 C   0  0  0  0  0  0  0  0  0  0  0  0
   58.0228   34.4353   47.7082 H   0  0  0  0  0  0  0  0  0  0  0  0
   58.4580   32.3250   47.4770 C   0  0  0  0  0  0  0  0  0  0  0  0
   57.4224   32.0079   47.6694 H   0  0  0  0  0  0  0  0  0  0  0  0
   57.2260   31.7550   44.5580 C   0  0  0  0  0  0  0  0  0  0  0  0
   56.9474   31.5772   45.6072 H   0  0  0  0  0  0  0  0  0  0  0  0
  1  2  1  0
  2  3  2  0
  3  4  1  0
  4  5  1  0
  4  6  2  0
  6  7  1  0
  6  8  1  0
  8  9  1  0
  9 10  1  0
  9 11  1  0
  9 12  1  0
 12 13  2  0
 13 14  1  0
 14 15  1  0
 15 16  1  0
 15 17  2  0
 17 18  1  0
 17 19  1  0
 19 20  1  0
 19 21  2  0
 21 22  1  0
 22 23  2  0
 22 24  1  0
 24 25  2  3
 25 26  1  0
 26 27  1  0
 27 28  1  0
 28 29  1  0
 28 30  1  0
 28 31  1  0
 27 32  2  0
 32 33  1  0
 32 34  1  0
 34 35  1  0
 34 36  2  0
 36 37  1  0
  8 38  2  0
 38 39  1  0
 38  2  1  0
 21 13  1  0
 36 25  1  0
M  CHG  2  14  -1  26  -1
M  END
>  <UniqueID>  (47) 
40

>  <SMILES>  (47) 
Cc1cccc(=NC(=O)c2ccc[n-]/c2=N/Cc2ccncc2)[n-]1

>  <Energy>  (47) 
58.27259020532535

>  <Genealogy>  (47) 
Cc1cccc(=NC(=O)c2ccc[n-]c2=NCc2ccncc2)[n-]1 (protonated)
Cc1cccc(=NC(=O)c2ccc[n-]/c2=N/Cc2ccncc2)[n-]1 (cis-trans isomerization)
Cc1cccc(=NC(=O)c2ccc[n-]/c2=N/Cc2ccncc2)[n-]1 (3D coordinates assigned)
Cc1cccc(=NC(=O)c2ccc[n-]/c2=N/Cc2ccncc2)[n-]1 (optimized conformer: 58.27259020532535 kcal/mol)

>  <smiles>  (47) 
Cc1cccc(=NC(=O)c2ccc[nH]c2=NCc2ccncc2)[nH]1

>  <score_type>  (47) 
oracle

>  <origin>  (47) 
adg

>  <m_score__min__energy>  (47) 
-11.039999999999999

>  <m_primary>  (47) 
energy

$$$$
47:0
     RDKit          3D

 34 36  0  0  0  0  0  0  0  0999 V2000
   55.5620   26.3210   46.4680 O   0  0  0  0  0  0  0  0  0  0  0  0
   56.2940   26.8970   45.6200 C   0  0  0  0  0  0  0  0  0  0  0  0
   56.0060   28.2490   45.2560 N   0  0  0  0  0  0  0  0  0  0  0  0
   57.0990   29.2650   44.3740 S   0  0  0  0  0  0  0  0  0  0  0  0
   56.3670   30.0910   43.3530 O   0  0  0  0  0  0  0  0  0  0  0  0
   58.0850   28.3950   43.6470 O   0  0  0  0  0  0  0  0  0  0  0  0
   57.9590   30.2820   45.4880 N   0  0  0  0  0  0  0  0  0  0  0  0
   58.5440   29.8490   46.6290 C   0  0  0  0  0  0  0  0  0  0  0  0
   59.0330   30.9210   47.3650 C   0  0  0  0  0  0  0  0  0  0  0  0
   58.7140   32.0430   46.6300 C   0  0  0  0  0  0  0  0  0  0  0  0
   58.9350   33.3900   46.9060 C   0  0  0  0  0  0  0  0  0  0  0  0
   58.4650   34.3350   45.9770 C   0  0  0  0  0  0  0  0  0  0  0  0
   57.7920   33.9150   44.8080 C   0  0  0  0  0  0  0  0  0  0  0  0
   57.5920   32.5470   44.5520 C   0  0  0  0  0  0  0  0  0  0  0  0
   58.0620   31.6270   45.4940 C   0  0  0  0  0  0  0  0  0  0  0  0
   57.4360   26.2170   45.0840 N   0  0  0  0  0  0  0  0  0  0  0  0
   57.4280   24.8290   44.6980 C   0  0  0  0  0  0  0  0  0  0  0  0
   56.5950   24.3610   43.6600 C   0  0  0  0  0  0  0  0  0  0  0  0
   56.6390   23.0190   43.2650 C   0  0  0  0  0  0  0  0  0  0  0  0
   57.5140   22.1300   43.8950 C   0  0  0  0  0  0  0  0  0  0  0  0
   57.5630   20.8330   43.4950 F   0  0  0  0  0  0  0  0  0  0  0  0
   58.3560   22.5840   44.9180 C   0  0  0  0  0  0  0  0  0  0  0  0
   59.2210   21.7220   45.5110 F   0  0  0  0  0  0  0  0  0  0  0  0
   58.3180   23.9290   45.3160 C   0  0  0  0  0  0  0  0  0  0  0  0
   59.1470   24.3530   46.3070 F   0  0  0  0  0  0  0  0  0  0  0  0
   58.6215   28.7943   46.9317 H   0  0  0  0  0  0  0  0  0  0  0  0
   59.5619   30.8828   48.3287 H   0  0  0  0  0  0  0  0  0  0  0  0
   59.4598   33.7042   47.8203 H   0  0  0  0  0  0  0  0  0  0  0  0
   58.6223   35.4079   46.1616 H   0  0  0  0  0  0  0  0  0  0  0  0
   57.4216   34.6640   44.0926 H   0  0  0  0  0  0  0  0  0  0  0  0
   57.0810   32.2106   43.6378 H   0  0  0  0  0  0  0  0  0  0  0  0
   58.3430   26.7430   45.0750 H   0  0  0  0  0  0  0  0  0  0  0  0
   55.9060   25.0558   43.1575 H   0  0  0  0  0  0  0  0  0  0  0  0
   55.9832   22.6632   42.4567 H   0  0  0  0  0  0  0  0  0  0  0  0
  1  2  2  0
  2  3  1  0
  3  4  1  0
  4  5  2  0
  4  6  2  0
  4  7  1  0
  7  8  1  0
  8  9  2  0
  9 10  1  0
 10 11  2  0
 11 12  1  0
 12 13  2  0
 13 14  1  0
 14 15  2  0
  2 16  1  0
 16 17  1  0
 17 18  2  0
 18 19  1  0
 19 20  2  0
 20 21  1  0
 20 22  1  0
 22 23  1  0
 22 24  2  0
 24 25  1  0
 15  7  1  0
 24 17  1  0
 15 10  1  0
  8 26  1  0
  9 27  1  0
 11 28  1  0
 12 29  1  0
 13 30  1  0
 14 31  1  0
 16 32  1  0
 18 33  1  0
 19 34  1  0
M  CHG  1   3  -1
M  END
>  <UniqueID>  (48) 
41

>  <SMILES>  (48) 
O=C([N-]S(=O)(=O)n1ccc2ccccc21)Nc1ccc(F)c(F)c1F

>  <Energy>  (48) 
77.81697298301026

>  <Genealogy>  (48) 
O=C([N-]S(=O)(=O)n1ccc2ccccc21)Nc1ccc(F)c(F)c1F (protonated)
O=C([N-]S(=O)(=O)n1ccc2ccccc21)Nc1ccc(F)c(F)c1F (3D coordinates assigned)
O=C([N-]S(=O)(=O)n1ccc2ccccc21)Nc1ccc(F)c(F)c1F (optimized conformer: 77.81697298301026 kcal/mol)

>  <smiles>  (48) 
O=C(Nc1ccc(F)c(F)c1F)NS(=O)(=O)n1ccc2ccccc21

>  <score_type>  (48) 
oracle

>  <origin>  (48) 
adg

>  <m_score__min__energy>  (48) 
-9.7899999999999991

>  <m_primary>  (48) 
energy

$$$$
48:0
     RDKit          3D

 30 31  0  0  0  0  0  0  0  0999 V2000
   60.0560   27.7810   45.6900 C   0  0  0  0  0  0  0  0  0  0  0  0
   58.8350   26.9760   46.0440 C   0  0  0  0  0  0  0  0  0  0  0  0
   58.7500   26.3400   47.2890 C   0  0  0  0  0  0  0  0  0  0  0  0
   57.6450   25.6230   47.6160 N   0  0  0  0  0  0  0  0  0  0  0  0
   56.6080   25.5030   46.7480 C   0  0  0  0  0  0  0  0  0  0  0  0
   55.5900   24.8410   47.0740 O   0  0  0  0  0  0  0  0  0  0  0  0
   56.6720   26.0930   45.5280 N   0  0  0  0  0  0  0  0  0  0  0  0
   57.7610   26.8110   45.1460 C   0  0  0  0  0  0  0  0  0  0  0  0
   57.7830   27.5300   43.4960 S   0  0  0  0  0  0  0  0  0  0  0  0
   57.8600   29.2640   44.0670 C   0  0  0  0  0  0  0  0  0  0  0  0
   56.4980   29.7750   44.4060 C   0  0  0  0  0  0  0  0  0  0  0  0
   55.5620   28.9580   44.6100 O   0  0  0  0  0  0  0  0  0  0  0  0
   56.3080   31.1820   44.6020 N   0  0  0  0  0  0  0  0  0  0  0  0
   57.2160   32.0920   45.2390 C   0  0  0  0  0  0  0  0  0  0  0  0
   57.3180   33.4410   44.8540 C   0  0  0  0  0  0  0  0  0  0  0  0
   58.2270   34.2880   45.4950 C   0  0  0  0  0  0  0  0  0  0  0  0
   59.0480   33.7950   46.5150 C   0  0  0  0  0  0  0  0  0  0  0  0
   60.1880   34.8590   47.3170 Cl  0  0  0  0  0  0  0  0  0  0  0  0
   58.9650   32.4490   46.8860 C   0  0  0  0  0  0  0  0  0  0  0  0
   58.0590   31.6000   46.2440 C   0  0  0  0  0  0  0  0  0  0  0  0
   60.5572   28.1115   46.6117 H   0  0  0  0  0  0  0  0  0  0  0  0
   60.7461   27.1602   45.0997 H   0  0  0  0  0  0  0  0  0  0  0  0
   59.7573   28.6599   45.0997 H   0  0  0  0  0  0  0  0  0  0  0  0
   59.5817   26.4219   48.0042 H   0  0  0  0  0  0  0  0  0  0  0  0
   58.4986   29.3207   44.9608 H   0  0  0  0  0  0  0  0  0  0  0  0
   58.2757   29.8822   43.2577 H   0  0  0  0  0  0  0  0  0  0  0  0
   56.6808   33.8306   44.0464 H   0  0  0  0  0  0  0  0  0  0  0  0
   58.2969   35.3445   45.1967 H   0  0  0  0  0  0  0  0  0  0  0  0
   59.6135   32.0581   47.6839 H   0  0  0  0  0  0  0  0  0  0  0  0
   58.0076   30.5390   46.5296 H   0  0  0  0  0  0  0  0  0  0  0  0
  1  2  1  0
  2  3  1  0
  3  4  2  0
  4  5  1  0
  5  6  2  0
  5  7  1  0
  7  8  1  0
  8  9  1  0
  9 10  1  0
 10 11  1  0
 11 12  2  0
 11 13  1  0
 13 14  1  0
 14 15  2  0
 15 16  1  0
 16 17  2  0
 17 18  1  0
 17 19  1  0
 19 20  2  0
  8  2  2  0
 20 14  1  0
  1 21  1  0
  1 22  1  0
  1 23  1  0
  3 24  1  0
 10 25  1  0
 10 26  1  0
 15 27  1  0
 16 28  1  0
 19 29  1  0
 20 30  1  0
M  CHG  2   7  -1  13  -1
M  END
>  <UniqueID>  (49) 
42

>  <SMILES>  (49) 
Cc1cnc(=O)[n-]c1SCC(=O)[N-]c1ccc(Cl)cc1

>  <Energy>  (49) 
29.103387246057537

>  <Genealogy>  (49) 
Cc1cnc(=O)[n-]c1SCC(=O)[N-]c1ccc(Cl)cc1 (protonated)
Cc1cnc(=O)[n-]c1SCC(=O)[N-]c1ccc(Cl)cc1 (3D coordinates assigned)
Cc1cnc(=O)[n-]c1SCC(=O)[N-]c1ccc(Cl)cc1 (optimized conformer: 29.103387246057537 kcal/mol)

>  <smiles>  (49) 
Cc1cnc(=O)[nH]c1SCC(=O)Nc1ccc(Cl)cc1

>  <score_type>  (49) 
oracle

>  <origin>  (49) 
adg

>  <m_score__min__energy>  (49) 
-11.76

>  <m_primary>  (49) 
energy

$$$$
49:0
     RDKit          3D

 43 46  0  0  0  0  0  0  0  0999 V2000
   62.4175   33.5862   48.7635 H   0  0  0  0  0  0  0  0  0  0  0  0
   61.5360   33.7370   48.1230 C   0  0  0  0  0  0  0  0  0  0  0  0
   61.6090   33.4540   46.7560 C   0  0  0  0  0  0  0  0  0  0  0  0
   62.5473   33.0784   46.3218 H   0  0  0  0  0  0  0  0  0  0  0  0
   60.4900   33.6480   45.9400 C   0  0  0  0  0  0  0  0  0  0  0  0
   60.5479   33.4148   44.8666 H   0  0  0  0  0  0  0  0  0  0  0  0
   59.2910   34.1400   46.4860 C   0  0  0  0  0  0  0  0  0  0  0  0
   58.0790   34.3380   45.6140 C   0  0  0  0  0  0  0  0  0  0  0  0
   58.1998   35.2662   45.0362 H   0  0  0  0  0  0  0  0  0  0  0  0
   57.1901   34.3973   46.2593 H   0  0  0  0  0  0  0  0  0  0  0  0
   57.9080   33.2210   44.6910 N   0  0  0  0  0  0  0  0  0  0  0  0
   57.6740   31.8510   45.0510 C   0  0  0  0  0  0  0  0  0  0  0  0
   57.7370   31.5270   46.2670 O   0  0  0  0  0  0  0  0  0  0  0  0
   57.3850   30.7850   44.0300 C   0  0  0  0  0  0  0  0  0  0  0  0
   56.4441   31.0277   43.5145 H   0  0  0  0  0  0  0  0  0  0  0  0
   58.2212   30.7510   43.3161 H   0  0  0  0  0  0  0  0  0  0  0  0
   57.2560   29.4370   44.6740 C   0  0  0  0  0  0  0  0  0  0  0  0
   58.5410   28.4140   45.0480 S   0  0  0  0  0  0  0  0  0  0  0  0
   57.6080   27.1460   45.6570 C   0  0  0  0  0  0  0  0  0  0  0  0
   58.1350   25.8930   46.2350 C   0  0  0  0  0  0  0  0  0  0  0  0
   57.9720   24.8070   45.6200 O   0  0  0  0  0  0  0  0  0  0  0  0
   58.7530   25.8700   47.5280 N   0  0  0  0  0  0  0  0  0  0  0  0
   59.2620   26.9010   48.1360 C   0  0  0  0  0  0  0  0  0  0  0  0
   58.6260   28.0950   48.1740 N   0  0  0  0  0  0  0  0  0  0  0  0
   59.3390   29.0010   48.8910 C   0  0  0  0  0  0  0  0  0  0  0  0
   58.9470   30.3240   49.1050 C   0  0  0  0  0  0  0  0  0  0  0  0
   58.0053   30.7047   48.6827 H   0  0  0  0  0  0  0  0  0  0  0  0
   59.7780   31.1600   49.8700 C   0  0  0  0  0  0  0  0  0  0  0  0
   59.4850   32.2050   50.0490 H   0  0  0  0  0  0  0  0  0  0  0  0
   60.9850   30.6690   50.4100 C   0  0  0  0  0  0  0  0  0  0  0  0
   61.6278   31.3328   51.0069 H   0  0  0  0  0  0  0  0  0  0  0  0
   61.3700   29.3360   50.1890 C   0  0  0  0  0  0  0  0  0  0  0  0
   62.3089   28.9419   50.6052 H   0  0  0  0  0  0  0  0  0  0  0  0
   60.5290   28.5280   49.4280 C   0  0  0  0  0  0  0  0  0  0  0  0
   60.7230   26.9140   49.0090 S   0  0  0  0  0  0  0  0  0  0  0  0
   56.2690   27.5220   45.5750 C   0  0  0  0  0  0  0  0  0  0  0  0
   55.2180   26.7170   45.9980 O   0  0  0  0  0  0  0  0  0  0  0  0
   56.0740   28.7910   45.0190 C   0  0  0  0  0  0  0  0  0  0  0  0
   54.8150   29.3470   44.8260 O   0  0  0  0  0  0  0  0  0  0  0  0
   59.2220   34.4090   47.8630 C   0  0  0  0  0  0  0  0  0  0  0  0
   58.2830   34.7762   48.3029 H   0  0  0  0  0  0  0  0  0  0  0  0
   60.3420   34.2120   48.6770 C   0  0  0  0  0  0  0  0  0  0  0  0
   60.2843   34.4306   49.7535 H   0  0  0  0  0  0  0  0  0  0  0  0
  1  2  1  0
  2  3  2  0
  3  4  1  0
  3  5  1  0
  5  6  1  0
  5  7  2  0
  7  8  1  0
  8  9  1  0
  8 10  1  0
  8 11  1  0
 11 12  1  0
 12 13  2  0
 12 14  1  0
 14 15  1  0
 14 16  1  0
 14 17  1  0
 17 18  1  0
 18 19  1  0
 19 20  1  0
 20 21  2  0
 20 22  1  0
 22 23  2  0
 23 24  1  0
 24 25  1  0
 25 26  2  0
 26 27  1  0
 26 28  1  0
 28 29  1  0
 28 30  2  0
 30 31  1  0
 30 32  1  0
 32 33  1  0
 32 34  2  0
 34 35  1  0
 19 36  2  0
 36 37  1  0
 36 38  1  0
 38 39  1  0
  7 40  1  0
 40 41  1  0
 40 42  2  0
 42 43  1  0
 42  2  1  0
 38 17  2  0
 35 23  1  0
 34 25  1  0
M  CHG  4  11  -1  24  -1  37  -1  39  -1
M  END
>  <UniqueID>  (50) 
43

>  <SMILES>  (50) 
O=C(Cc1sc(C(=O)/N=c2/[n-]c3ccccc3s2)c([O-])c1[O-])[N-]Cc1ccccc1

>  <Energy>  (50) 
113.1294201583401

>  <Genealogy>  (50) 
O=C(Cc1sc(C(=O)N=c2[n-]c3ccccc3s2)c([O-])c1[O-])[N-]Cc1ccccc1 (protonated)
O=C(Cc1sc(C(=O)/N=c2/[n-]c3ccccc3s2)c([O-])c1[O-])[N-]Cc1ccccc1 (cis-trans isomerization)
O=C(Cc1sc(C(=O)/N=c2/[n-]c3ccccc3s2)c([O-])c1[O-])[N-]Cc1ccccc1 (3D coordinates assigned)
O=C(Cc1sc(C(=O)/N=c2/[n-]c3ccccc3s2)c([O-])c1[O-])[N-]Cc1ccccc1 (optimized conformer: 113.1294201583401 kcal/mol)

>  <smiles>  (50) 
O=C(Cc1sc(C(=O)N=c2[nH]c3ccccc3s2)c(O)c1O)NCc1ccccc1

>  <score_type>  (50) 
oracle

>  <origin>  (50) 
adg

>  <m_score__min__energy>  (50) 
-17.809999999999999

>  <m_primary>  (50) 
energy

$$$$
50:0
     RDKit          3D

 48 51  0  0  0  0  0  0  0  0999 V2000
   54.7900   28.9660   45.6400 H   0  0  0  0  0  0  0  0  0  0  0  0
   55.3730   29.1810   44.8030 N   0  0  0  0  0  0  0  0  0  0  0  0
   56.6330   29.4750   44.8690 C   0  0  0  0  0  0  0  0  0  0  0  0
   57.0950   30.7330   44.8650 N   0  0  0  0  0  0  0  0  0  0  0  0
   58.3890   30.6170   44.9740 O   0  0  0  0  0  0  0  0  0  0  0  0
   58.8030   29.3820   45.0480 N   0  0  0  0  0  0  0  0  0  0  0  0
   57.7030   28.6090   44.9860 C   0  0  0  0  0  0  0  0  0  0  0  0
   57.7130   27.1280   44.9990 C   0  0  0  0  0  0  0  0  0  0  0  0
   57.4770   26.3880   43.8920 N   0  0  0  0  0  0  0  0  0  0  0  0
   57.5760   25.1140   44.3150 C   0  0  0  0  0  0  0  0  0  0  0  0
   57.3070   23.9260   43.4520 C   0  0  0  0  0  0  0  0  0  0  0  0
   57.1085   23.0495   44.0863 H   0  0  0  0  0  0  0  0  0  0  0  0
   56.4312   24.1249   42.8169 H   0  0  0  0  0  0  0  0  0  0  0  0
   58.1831   23.7282   42.8169 H   0  0  0  0  0  0  0  0  0  0  0  0
   57.8470   25.0850   45.6630 C   0  0  0  0  0  0  0  0  0  0  0  0
   57.9567   24.1824   46.2821 H   0  0  0  0  0  0  0  0  0  0  0  0
   57.9540   26.3550   46.0900 N   0  0  0  0  0  0  0  0  0  0  0  0
   58.1440   26.7570   47.4870 C   0  0  0  0  0  0  0  0  0  0  0  0
   58.0381   27.8490   47.5659 H   0  0  0  0  0  0  0  0  0  0  0  0
   57.3862   26.2538   48.1055 H   0  0  0  0  0  0  0  0  0  0  0  0
   59.5300   26.3510   47.9830 C   0  0  0  0  0  0  0  0  0  0  0  0
   59.5176   26.2732   49.0802 H   0  0  0  0  0  0  0  0  0  0  0  0
   59.8028   25.3785   47.5472 H   0  0  0  0  0  0  0  0  0  0  0  0
   60.4870   27.3310   47.5880 O   0  0  0  0  0  0  0  0  0  0  0  0
   60.3080   28.7140   47.7230 C   0  0  0  0  0  0  0  0  0  0  0  0
   59.3730   29.1740   48.6580 C   0  0  0  0  0  0  0  0  0  0  0  0
   58.8052   28.4513   49.2624 H   0  0  0  0  0  0  0  0  0  0  0  0
   59.1550   30.5440   48.8300 C   0  0  0  0  0  0  0  0  0  0  0  0
   58.4224   30.8931   49.5726 H   0  0  0  0  0  0  0  0  0  0  0  0
   59.8670   31.4760   48.0590 C   0  0  0  0  0  0  0  0  0  0  0  0
   59.6630   32.9510   48.2710 C   0  0  0  0  0  0  0  0  0  0  0  0
   59.0422   33.1068   49.1656 H   0  0  0  0  0  0  0  0  0  0  0  0
   60.6428   33.4328   48.4045 H   0  0  0  0  0  0  0  0  0  0  0  0
   58.9770   33.5580   47.0790 C   0  0  0  0  0  0  0  0  0  0  0  0
   57.6310   33.2600   46.8070 C   0  0  0  0  0  0  0  0  0  0  0  0
   57.0680   32.6020   47.4853 H   0  0  0  0  0  0  0  0  0  0  0  0
   57.0040   33.7960   45.6780 C   0  0  0  0  0  0  0  0  0  0  0  0
   55.9484   33.5639   45.4733 H   0  0  0  0  0  0  0  0  0  0  0  0
   57.7180   34.6270   44.8090 C   0  0  0  0  0  0  0  0  0  0  0  0
   57.2229   35.0511   43.9230 H   0  0  0  0  0  0  0  0  0  0  0  0
   59.0610   34.9190   45.0660 C   0  0  0  0  0  0  0  0  0  0  0  0
   59.6228   35.5694   44.3795 H   0  0  0  0  0  0  0  0  0  0  0  0
   59.6910   34.3850   46.1950 C   0  0  0  0  0  0  0  0  0  0  0  0
   60.7490   34.6132   46.3916 H   0  0  0  0  0  0  0  0  0  0  0  0
   60.8140   31.0190   47.1300 C   0  0  0  0  0  0  0  0  0  0  0  0
   61.3889   31.7429   46.5337 H   0  0  0  0  0  0  0  0  0  0  0  0
   61.0310   29.6480   46.9580 C   0  0  0  0  0  0  0  0  0  0  0  0
   61.7698   29.2984   46.2218 H   0  0  0  0  0  0  0  0  0  0  0  0
  1  2  1  0
  2  3  2  0
  3  4  1  0
  4  5  1  0
  5  6  1  0
  6  7  2  0
  7  8  1  0
  8  9  2  0
  9 10  1  0
 10 11  1  0
 11 12  1  0
 11 13  1  0
 11 14  1  0
 10 15  2  0
 15 16  1  0
 15 17  1  0
 17 18  1  0
 18 19  1  0
 18 20  1  0
 18 21  1  0
 21 22  1  0
 21 23  1  0
 21 24  1  0
 24 25  1  0
 25 26  2  0
 26 27  1  0
 26 28  1  0
 28 29  1  0
 28 30  2  0
 30 31  1  0
 31 32  1  0
 31 33  1  0
 31 34  1  0
 34 35  2  0
 35 36  1  0
 35 37  1  0
 37 38  1  0
 37 39  2  0
 39 40  1  0
 39 41  1  0
 41 42  1  0
 41 43  2  0
 43 44  1  0
 30 45  1  0
 45 46  1  0
 45 47  2  0
 47 48  1  0
  7  3  1  0
 17  8  1  0
 47 25  1  0
 43 34  1  0
M  CHG  1   4  -1
M  END
>  <UniqueID>  (51) 
44

>  <SMILES>  (51) 
[H]/N=c1/[n-]onc1-c1nc(C)cn1CCOc1ccc(Cc2ccccc2)cc1

>  <Energy>  (51) 
114.3798971212323

>  <Genealogy>  (51) 
Cc1cn(CCOc2ccc(Cc3ccccc3)cc2)c(-c2no[n-]c2=N)n1 (protonated)
[H]/N=c1/[n-]onc1-c1nc(C)cn1CCOc1ccc(Cc2ccccc2)cc1 (cis-trans isomerization)
[H]/N=c1/[n-]onc1-c1nc(C)cn1CCOc1ccc(Cc2ccccc2)cc1 (3D coordinates assigned)
[H]/N=c1/[n-]onc1-c1nc(C)cn1CCOc1ccc(Cc2ccccc2)cc1 (optimized conformer: 114.3798971212323 kcal/mol)

>  <smiles>  (51) 
Cc1cn(CCOc2ccc(Cc3ccccc3)cc2)c(-c2no[nH]c2=N)n1

>  <score_type>  (51) 
oracle

>  <origin>  (51) 
adg

>  <m_score__min__energy>  (51) 
-11.359999999999999

>  <m_primary>  (51) 
energy

$$$$
51:0
     RDKit          3D

 53 56  0  0  0  0  0  0  0  0999 V2000
   56.1066   25.1491   46.2966 H   0  0  0  0  0  0  0  0  0  0  0  0
   56.6330   26.1120   46.2210 C   0  0  0  0  0  0  0  0  0  0  0  0
   56.0230   27.1750   45.6410 N   0  0  0  0  0  0  0  0  0  0  0  0
   56.6250   28.3910   45.5110 C   0  0  0  0  0  0  0  0  0  0  0  0
   55.9210   29.3480   44.9710 N   0  0  0  0  0  0  0  0  0  0  0  0
   56.3000   30.2730   43.9460 C   0  0  0  0  0  0  0  0  0  0  0  0
   55.9170   30.0620   42.7620 O   0  0  0  0  0  0  0  0  0  0  0  0
   57.2020   31.3540   44.2370 N   0  0  0  0  0  0  0  0  0  0  0  0
   57.5680   31.4600   45.2080 H   0  0  0  0  0  0  0  0  0  0  0  0
   57.7260   32.2240   43.1830 C   0  0  0  0  0  0  0  0  0  0  0  0
   58.3685   31.6343   42.5126 H   0  0  0  0  0  0  0  0  0  0  0  0
   56.8822   32.6502   42.6205 H   0  0  0  0  0  0  0  0  0  0  0  0
   58.5460   33.3680   43.7910 C   0  0  0  0  0  0  0  0  0  0  0  0
   59.6151   33.1139   43.7420 H   0  0  0  0  0  0  0  0  0  0  0  0
   58.3508   34.2893   43.2225 H   0  0  0  0  0  0  0  0  0  0  0  0
   58.1640   33.5810   45.1880 N   0  0  0  0  0  0  0  0  0  0  0  0
   57.1580   33.4670   45.4490 H   0  0  0  0  0  0  0  0  0  0  0  0
   59.1460   33.7280   46.2260 C   0  0  0  0  0  0  0  0  0  0  0  0
   60.4680   33.5490   45.9530 N   0  0  0  0  0  0  0  0  0  0  0  0
   61.4300   33.6670   46.9040 C   0  0  0  0  0  0  0  0  0  0  0  0
   62.7730   33.4660   46.5650 C   0  0  0  0  0  0  0  0  0  0  0  0
   63.0453   33.2120   45.5300 H   0  0  0  0  0  0  0  0  0  0  0  0
   63.7680   33.5870   47.5370 C   0  0  0  0  0  0  0  0  0  0  0  0
   64.8226   33.4303   47.2665 H   0  0  0  0  0  0  0  0  0  0  0  0
   63.4250   33.9070   48.8530 C   0  0  0  0  0  0  0  0  0  0  0  0
   64.2120   34.0037   49.6154 H   0  0  0  0  0  0  0  0  0  0  0  0
   62.0870   34.1050   49.2060 C   0  0  0  0  0  0  0  0  0  0  0  0
   61.8242   34.3542   50.2447 H   0  0  0  0  0  0  0  0  0  0  0  0
   61.0750   33.9860   48.2340 C   0  0  0  0  0  0  0  0  0  0  0  0
   59.7140   34.1740   48.5400 C   0  0  0  0  0  0  0  0  0  0  0  0
   59.3490   34.4580   49.7140 O   0  0  0  0  0  0  0  0  0  0  0  0
   58.7500   34.0430   47.5340 C   0  0  0  0  0  0  0  0  0  0  0  0
   57.6849   34.1867   47.7685 H   0  0  0  0  0  0  0  0  0  0  0  0
   57.9420   28.5700   46.0180 C   0  0  0  0  0  0  0  0  0  0  0  0
   58.5820   29.8190   45.9290 O   0  0  0  0  0  0  0  0  0  0  0  0
   59.9710   30.0600   46.1600 C   0  0  0  0  0  0  0  0  0  0  0  0
   60.5424   29.1517   45.9182 H   0  0  0  0  0  0  0  0  0  0  0  0
   60.3015   30.8929   45.5220 H   0  0  0  0  0  0  0  0  0  0  0  0
   60.2030   30.4240   47.6010 C   0  0  0  0  0  0  0  0  0  0  0  0
   61.5100   30.4680   48.1070 C   0  0  0  0  0  0  0  0  0  0  0  0
   62.3606   30.2395   47.4480 H   0  0  0  0  0  0  0  0  0  0  0  0
   61.7360   30.8010   49.4450 C   0  0  0  0  0  0  0  0  0  0  0  0
   62.7642   30.8340   49.8345 H   0  0  0  0  0  0  0  0  0  0  0  0
   60.6600   31.0930   50.2930 C   0  0  0  0  0  0  0  0  0  0  0  0
   60.9820   31.4940   51.9740 Cl  0  0  0  0  0  0  0  0  0  0  0  0
   59.3490   31.0560   49.7920 C   0  0  0  0  0  0  0  0  0  0  0  0
   57.9690   31.4210   50.8220 Cl  0  0  0  0  0  0  0  0  0  0  0  0
   59.1250   30.7210   48.4510 C   0  0  0  0  0  0  0  0  0  0  0  0
   58.0972   30.6902   48.0603 H   0  0  0  0  0  0  0  0  0  0  0  0
   58.5770   27.4670   46.6220 C   0  0  0  0  0  0  0  0  0  0  0  0
   59.5969   27.5753   47.0196 H   0  0  0  0  0  0  0  0  0  0  0  0
   57.9240   26.2400   46.7200 C   0  0  0  0  0  0  0  0  0  0  0  0
   58.4257   25.3803   47.1881 H   0  0  0  0  0  0  0  0  0  0  0  0
  1  2  1  0
  2  3  1  0
  3  4  1  0
  4  5  2  0
  5  6  1  0
  6  7  2  0
  6  8  1  0
  8  9  1  0
  8 10  1  0
 10 11  1  0
 10 12  1  0
 10 13  1  0
 13 14  1  0
 13 15  1  0
 13 16  1  0
 16 17  1  0
 16 18  1  0
 18 19  1  0
 19 20  1  0
 20 21  2  0
 21 22  1  0
 21 23  1  0
 23 24  1  0
 23 25  2  0
 25 26  1  0
 25 27  1  0
 27 28  1  0
 27 29  2  0
 29 30  1  0
 30 31  2  0
 30 32  1  0
 32 33  1  0
  4 34  1  0
 34 35  1  0
 35 36  1  0
 36 37  1  0
 36 38  1  0
 36 39  1  0
 39 40  2  0
 40 41  1  0
 40 42  1  0
 42 43  1  0
 42 44  2  0
 44 45  1  0
 44 46  1  0
 46 47  1  0
 46 48  2  0
 48 49  1  0
 34 50  2  0
 50 51  1  0
 50 52  1  0
 52 53  1  0
 52  2  2  0
 32 18  2  0
 48 39  1  0
 29 20  1  0
M  CHG  2   3  -1  19  -1
M  END
>  <UniqueID>  (52) 
45

>  <SMILES>  (52) 
O=C(/N=c1/[n-]cccc1OCc1ccc(Cl)c(Cl)c1)NCCNc1cc(=O)c2ccccc2[n-]1

>  <Energy>  (52) 
68.52125753727574

>  <Genealogy>  (52) 
O=C(N=c1[n-]cccc1OCc1ccc(Cl)c(Cl)c1)NCCNc1cc(=O)c2ccccc2[n-]1 (protonated)
O=C(/N=c1/[n-]cccc1OCc1ccc(Cl)c(Cl)c1)NCCNc1cc(=O)c2ccccc2[n-]1 (cis-trans isomerization)
O=C(/N=c1/[n-]cccc1OCc1ccc(Cl)c(Cl)c1)NCCNc1cc(=O)c2ccccc2[n-]1 (3D coordinates assigned)
O=C(/N=c1/[n-]cccc1OCc1ccc(Cl)c(Cl)c1)NCCNc1cc(=O)c2ccccc2[n-]1 (optimized conformer: 68.52125753727574 kcal/mol)

>  <smiles>  (52) 
O=C(N=c1[nH]cccc1OCc1ccc(Cl)c(Cl)c1)NCCNc1cc(=O)c2ccccc2[nH]1

>  <score_type>  (52) 
oracle

>  <origin>  (52) 
adg

>  <m_score__min__energy>  (52) 
-13.07

>  <m_primary>  (52) 
energy

$$$$
52:0
     RDKit          3D

 35 36  0  0  0  0  0  0  0  0999 V2000
   55.9442   22.4798   42.0291 H   0  0  0  0  0  0  0  0  0  0  0  0
   56.2520   22.7610   43.0470 C   0  0  0  0  0  0  0  0  0  0  0  0
   55.5410   23.7340   43.7430 C   0  0  0  0  0  0  0  0  0  0  0  0
   54.6854   24.2303   43.2617 H   0  0  0  0  0  0  0  0  0  0  0  0
   55.9030   24.0900   45.0530 C   0  0  0  0  0  0  0  0  0  0  0  0
   55.1450   25.1790   45.7140 C   0  0  0  0  0  0  0  0  0  0  0  0
   53.8860   25.1990   45.6250 O   0  0  0  0  0  0  0  0  0  0  0  0
   55.8490   26.2320   46.3950 N   0  0  0  0  0  0  0  0  0  0  0  0
   56.5490   27.1870   45.8550 C   0  0  0  0  0  0  0  0  0  0  0  0
   55.9480   28.2500   45.2470 N   0  0  0  0  0  0  0  0  0  0  0  0
   56.6620   29.2610   44.6830 C   0  0  0  0  0  0  0  0  0  0  0  0
   55.9480   30.4130   44.0510 C   0  0  0  0  0  0  0  0  0  0  0  0
   55.5420   31.0680   44.8360 H   0  0  0  0  0  0  0  0  0  0  0  0
   56.6518   30.9823   43.4261 H   0  0  0  0  0  0  0  0  0  0  0  0
   55.1250   30.0360   43.4261 H   0  0  0  0  0  0  0  0  0  0  0  0
   58.0610   29.2320   44.7250 C   0  0  0  0  0  0  0  0  0  0  0  0
   58.6458   30.0550   44.2882 H   0  0  0  0  0  0  0  0  0  0  0  0
   58.7110   28.1460   45.3280 C   0  0  0  0  0  0  0  0  0  0  0  0
   60.2080   28.1140   45.4160 C   0  0  0  0  0  0  0  0  0  0  0  0
   60.5131   28.1075   46.4728 H   0  0  0  0  0  0  0  0  0  0  0  0
   60.5852   27.2076   44.9199 H   0  0  0  0  0  0  0  0  0  0  0  0
   60.6236   29.0035   44.9199 H   0  0  0  0  0  0  0  0  0  0  0  0
   57.9460   27.1250   45.9090 C   0  0  0  0  0  0  0  0  0  0  0  0
   58.4421   26.2781   46.4056 H   0  0  0  0  0  0  0  0  0  0  0  0
   56.9820   23.4110   45.6870 C   0  0  0  0  0  0  0  0  0  0  0  0
   57.2830   23.6370   47.1510 C   0  0  0  0  0  0  0  0  0  0  0  0
   56.5528   23.0887   47.7644 H   0  0  0  0  0  0  0  0  0  0  0  0
   58.2969   23.2751   47.3770 H   0  0  0  0  0  0  0  0  0  0  0  0
   57.2184   24.7116   47.3770 H   0  0  0  0  0  0  0  0  0  0  0  0
   57.7440   22.4700   44.9420 C   0  0  0  0  0  0  0  0  0  0  0  0
   58.9210   21.8500   45.4910 N   0  0  0  0  0  0  0  0  0  0  0  0
   60.0390   22.3860   45.3450 O   0  0  0  0  0  0  0  0  0  0  0  0
   58.8050   20.7830   46.3500 O   0  0  0  0  0  0  0  0  0  0  0  0
   57.3510   22.1430   43.6350 C   0  0  0  0  0  0  0  0  0  0  0  0
   57.9184   21.3895   43.0691 H   0  0  0  0  0  0  0  0  0  0  0  0
  1  2  1  0
  2  3  2  0
  3  4  1  0
  3  5  1  0
  5  6  1  0
  6  7  2  0
  6  8  1  0
  8  9  2  0
  9 10  1  0
 10 11  1  0
 11 12  1  0
 12 13  1  0
 12 14  1  0
 12 15  1  0
 11 16  2  0
 16 17  1  0
 16 18  1  0
 18 19  1  0
 19 20  1  0
 19 21  1  0
 19 22  1  0
 18 23  2  0
 23 24  1  0
  5 25  2  0
 25 26  1  0
 26 27  1  0
 26 28  1  0
 26 29  1  0
 25 30  1  0
 30 31  1  0
 31 32  2  0
 31 33  1  0
 30 34  2  0
 34 35  1  0
 34  2  1  0
 23  9  1  0
M  CHG  3  10  -1  31   1  33  -1
M  END
>  <UniqueID>  (53) 
46

>  <SMILES>  (53) 
Cc1cc(C)[n-]/c(=N\C(=O)c2cccc([N+](=O)[O-])c2C)c1

>  <Energy>  (53) 
47.69946617594529

>  <Genealogy>  (53) 
Cc1cc(C)[n-]c(=NC(=O)c2cccc([N+](=O)[O-])c2C)c1 (protonated)
Cc1cc(C)[n-]/c(=N\C(=O)c2cccc([N+](=O)[O-])c2C)c1 (cis-trans isomerization)
Cc1cc(C)[n-]/c(=N\C(=O)c2cccc([N+](=O)[O-])c2C)c1 (3D coordinates assigned)
Cc1cc(C)[n-]/c(=N\C(=O)c2cccc([N+](=O)[O-])c2C)c1 (optimized conformer: 47.69946617594529 kcal/mol)

>  <smiles>  (53) 
Cc1cc(C)[nH]c(=NC(=O)c2cccc([N+](=O)[O-])c2C)c1

>  <score_type>  (53) 
oracle

>  <origin>  (53) 
adg

>  <m_score__min__energy>  (53) 
-9.5299999999999994

>  <m_primary>  (53) 
energy

$$$$
53:0
     RDKit          3D

 34 35  0  0  0  0  0  0  0  0999 V2000
   56.2180   29.7120   43.0590 C   0  0  0  0  0  0  0  0  0  0  0  0
   57.2740   29.5970   44.0670 N   0  0  0  0  0  0  0  0  0  0  0  0
   57.6140   30.5250   44.9950 C   0  0  0  0  0  0  0  0  0  0  0  0
   56.9440   31.7670   45.2310 N   0  0  0  0  0  0  0  0  0  0  0  0
   57.6860   33.3210   45.0350 S   0  0  0  0  0  0  0  0  0  0  0  0
   56.6480   34.3880   45.2330 O   0  0  0  0  0  0  0  0  0  0  0  0
   58.2290   33.4360   43.6370 O   0  0  0  0  0  0  0  0  0  0  0  0
   58.9720   33.5400   46.2150 C   0  0  0  0  0  0  0  0  0  0  0  0
   60.2710   33.8630   45.8020 C   0  0  0  0  0  0  0  0  0  0  0  0
   61.2890   34.0250   46.7480 C   0  0  0  0  0  0  0  0  0  0  0  0
   61.0240   33.8700   48.1140 C   0  0  0  0  0  0  0  0  0  0  0  0
   62.0850   34.0420   49.0180 O   0  0  0  0  0  0  0  0  0  0  0  0
   63.3860   33.4760   48.8770 C   0  0  0  0  0  0  0  0  0  0  0  0
   64.0310   34.0930   47.8220 F   0  0  0  0  0  0  0  0  0  0  0  0
   64.1220   33.6790   50.0300 F   0  0  0  0  0  0  0  0  0  0  0  0
   63.2910   32.1220   48.6100 F   0  0  0  0  0  0  0  0  0  0  0  0
   59.7150   33.5500   48.5260 C   0  0  0  0  0  0  0  0  0  0  0  0
   58.6980   33.3900   47.5810 C   0  0  0  0  0  0  0  0  0  0  0  0
   58.7480   30.1200   45.6740 C   0  0  0  0  0  0  0  0  0  0  0  0
   59.0300   28.8890   45.1230 C   0  0  0  0  0  0  0  0  0  0  0  0
   59.9960   28.1500   45.4530 O   0  0  0  0  0  0  0  0  0  0  0  0
   58.1270   28.5830   44.1700 N   0  0  0  0  0  0  0  0  0  0  0  0
   58.1290   27.3820   43.3330 C   0  0  0  0  0  0  0  0  0  0  0  0
   55.2439   29.8181   43.5589 H   0  0  0  0  0  0  0  0  0  0  0  0
   56.4057   30.5950   42.4305 H   0  0  0  0  0  0  0  0  0  0  0  0
   56.2112   28.8093   42.4305 H   0  0  0  0  0  0  0  0  0  0  0  0
   60.4911   33.9895   44.7317 H   0  0  0  0  0  0  0  0  0  0  0  0
   62.3069   34.2765   46.4155 H   0  0  0  0  0  0  0  0  0  0  0  0
   59.4927   33.4256   49.5961 H   0  0  0  0  0  0  0  0  0  0  0  0
   57.6776   33.1452   47.9110 H   0  0  0  0  0  0  0  0  0  0  0  0
   59.2949   30.6534   46.4655 H   0  0  0  0  0  0  0  0  0  0  0  0
   58.1305   26.4882   43.9742 H   0  0  0  0  0  0  0  0  0  0  0  0
   57.2309   27.3762   42.6979 H   0  0  0  0  0  0  0  0  0  0  0  0
   59.0272   27.3792   42.6979 H   0  0  0  0  0  0  0  0  0  0  0  0
  1  2  1  0
  2  3  1  0
  3  4  1  0
  4  5  1  0
  5  6  2  0
  5  7  2  0
  5  8  1  0
  8  9  2  0
  9 10  1  0
 10 11  2  0
 11 12  1  0
 12 13  1  0
 13 14  1  0
 13 15  1  0
 13 16  1  0
 11 17  1  0
 17 18  2  0
  3 19  2  0
 19 20  1  0
 20 21  2  0
 20 22  1  0
 22 23  1  0
 22  2  1  0
 18  8  1  0
  1 24  1  0
  1 25  1  0
  1 26  1  0
  9 27  1  0
 10 28  1  0
 17 29  1  0
 18 30  1  0
 19 31  1  0
 23 32  1  0
 23 33  1  0
 23 34  1  0
M  CHG  1   4  -1
M  END
>  <UniqueID>  (54) 
47

>  <SMILES>  (54) 
Cn1c([N-]S(=O)(=O)c2ccc(OC(F)(F)F)cc2)cc(=O)n1C

>  <Energy>  (54) 
75.69425707149325

>  <Genealogy>  (54) 
Cn1c([N-]S(=O)(=O)c2ccc(OC(F)(F)F)cc2)cc(=O)n1C (protonated)
Cn1c([N-]S(=O)(=O)c2ccc(OC(F)(F)F)cc2)cc(=O)n1C (3D coordinates assigned)
Cn1c([N-]S(=O)(=O)c2ccc(OC(F)(F)F)cc2)cc(=O)n1C (optimized conformer: 75.69425707149325 kcal/mol)

>  <smiles>  (54) 
Cn1c(NS(=O)(=O)c2ccc(OC(F)(F)F)cc2)cc(=O)n1C

>  <score_type>  (54) 
oracle

>  <origin>  (54) 
adg

>  <m_score__min__energy>  (54) 
-7.71

>  <m_primary>  (54) 
energy

$$$$
54:0
     RDKit          3D

 54 56  0  0  0  0  0  0  0  0999 V2000
   56.6580   20.8250   43.0200 C   0  0  0  0  0  0  0  0  0  0  0  0
   56.1910   22.1270   43.3560 O   0  0  0  0  0  0  0  0  0  0  0  0
   56.9390   23.0770   44.0670 C   0  0  0  0  0  0  0  0  0  0  0  0
   57.8590   22.7160   45.0660 C   0  0  0  0  0  0  0  0  0  0  0  0
   58.5900   23.7000   45.7390 C   0  0  0  0  0  0  0  0  0  0  0  0
   58.4210   25.0530   45.4240 C   0  0  0  0  0  0  0  0  0  0  0  0
   59.2160   26.0250   46.1170 N   0  0  0  0  0  0  0  0  0  0  0  0
   58.8070   27.6980   46.3110 S   0  0  0  0  0  0  0  0  0  0  0  0
   57.3180   27.8510   46.1850 O   0  0  0  0  0  0  0  0  0  0  0  0
   59.4800   28.4940   45.2270 O   0  0  0  0  0  0  0  0  0  0  0  0
   59.3000   28.2830   47.8990 C   0  0  0  0  0  0  0  0  0  0  0  0
   60.4060   27.7200   48.5440 C   0  0  0  0  0  0  0  0  0  0  0  0
   60.7840   28.1680   49.8120 C   0  0  0  0  0  0  0  0  0  0  0  0
   60.0540   29.1750   50.4480 C   0  0  0  0  0  0  0  0  0  0  0  0
   58.9390   29.7520   49.8130 C   0  0  0  0  0  0  0  0  0  0  0  0
   58.1390   30.7980   50.4900 C   0  0  0  0  0  0  0  0  0  0  0  0
   57.3130   30.4850   51.3910 O   0  0  0  0  0  0  0  0  0  0  0  0
   58.2910   32.1690   50.1090 N   0  0  0  0  0  0  0  0  0  0  0  0
   59.5410   32.7450   49.6420 C   0  0  0  0  0  0  0  0  0  0  0  0
   59.3760   33.1340   48.2110 C   0  0  0  0  0  0  0  0  0  0  0  0
   60.3300   33.6870   47.6020 O   0  0  0  0  0  0  0  0  0  0  0  0
   58.1560   32.8280   47.5250 N   0  0  0  0  0  0  0  0  0  0  0  0
   58.0810   32.5680   46.1150 C   0  0  0  0  0  0  0  0  0  0  0  0
   58.5690   33.5230   45.2100 C   0  0  0  0  0  0  0  0  0  0  0  0
   58.4630   33.3120   43.8340 C   0  0  0  0  0  0  0  0  0  0  0  0
   57.8570   32.1520   43.3470 C   0  0  0  0  0  0  0  0  0  0  0  0
   57.3480   31.1970   44.2380 C   0  0  0  0  0  0  0  0  0  0  0  0
   56.5730   29.7330   43.6360 S   0  0  0  0  0  0  0  0  0  0  0  0
   55.3210   29.2560   44.7270 N   0  0  0  0  0  0  0  0  0  0  0  0
   55.9840   29.9940   42.2780 O   0  0  0  0  0  0  0  0  0  0  0  0
   57.5810   28.6240   43.5200 O   0  0  0  0  0  0  0  0  0  0  0  0
   57.4610   31.4070   45.6190 C   0  0  0  0  0  0  0  0  0  0  0  0
   58.5800   29.3070   48.5260 C   0  0  0  0  0  0  0  0  0  0  0  0
   57.4890   25.4160   44.4390 C   0  0  0  0  0  0  0  0  0  0  0  0
   56.7560   24.4320   43.7690 C   0  0  0  0  0  0  0  0  0  0  0  0
   56.8609   20.2592   43.9412 H   0  0  0  0  0  0  0  0  0  0  0  0
   55.8916   20.3016   42.4296 H   0  0  0  0  0  0  0  0  0  0  0  0
   57.5824   20.9081   42.4296 H   0  0  0  0  0  0  0  0  0  0  0  0
   58.0047   21.6556   45.3195 H   0  0  0  0  0  0  0  0  0  0  0  0
   59.3042   23.4079   46.5230 H   0  0  0  0  0  0  0  0  0  0  0  0
   60.9802   26.9217   48.0511 H   0  0  0  0  0  0  0  0  0  0  0  0
   61.6591   27.7265   50.3112 H   0  0  0  0  0  0  0  0  0  0  0  0
   60.3522   29.5183   51.4496 H   0  0  0  0  0  0  0  0  0  0  0  0
   59.7876   33.6332   50.2422 H   0  0  0  0  0  0  0  0  0  0  0  0
   60.3551   32.0121   49.7425 H   0  0  0  0  0  0  0  0  0  0  0  0
   57.2750   32.7940   48.0840 H   0  0  0  0  0  0  0  0  0  0  0  0
   59.0380   34.4437   45.5872 H   0  0  0  0  0  0  0  0  0  0  0  0
   58.8577   34.0612   43.1319 H   0  0  0  0  0  0  0  0  0  0  0  0
   57.7789   31.9873   42.2622 H   0  0  0  0  0  0  0  0  0  0  0  0
   55.5220   28.2690   45.0070 H   0  0  0  0  0  0  0  0  0  0  0  0
   57.0621   30.6588   46.3198 H   0  0  0  0  0  0  0  0  0  0  0  0
   57.7259   29.7683   48.0085 H   0  0  0  0  0  0  0  0  0  0  0  0
   57.3351   26.4772   44.1938 H   0  0  0  0  0  0  0  0  0  0  0  0
   56.0274   24.7261   42.9991 H   0  0  0  0  0  0  0  0  0  0  0  0
  1  2  1  0
  2  3  1  0
  3  4  2  0
  4  5  1  0
  5  6  2  0
  6  7  1  0
  7  8  1  0
  8  9  2  0
  8 10  2  0
  8 11  1  0
 11 12  2  0
 12 13  1  0
 13 14  2  0
 14 15  1  0
 15 16  1  0
 16 17  2  0
 16 18  1  0
 18 19  1  0
 19 20  1  0
 20 21  2  0
 20 22  1  0
 22 23  1  0
 23 24  2  0
 24 25  1  0
 25 26  2  0
 26 27  1  0
 27 28  1  0
 28 29  1  0
 28 30  2  0
 28 31  2  0
 27 32  2  0
 15 33  2  0
  6 34  1  0
 34 35  2  0
 35  3  1  0
 33 11  1  0
 32 23  1  0
  1 36  1  0
  1 37  1  0
  1 38  1  0
  4 39  1  0
  5 40  1  0
 12 41  1  0
 13 42  1  0
 14 43  1  0
 19 44  1  0
 19 45  1  0
 22 46  1  0
 24 47  1  0
 25 48  1  0
 26 49  1  0
 29 50  1  0
 32 51  1  0
 33 52  1  0
 34 53  1  0
 35 54  1  0
M  CHG  3   7  -1  18  -1  29  -1
M  END
>  <UniqueID>  (55) 
48

>  <SMILES>  (55) 
COc1ccc([N-]S(=O)(=O)c2cccc(C(=O)[N-]CC(=O)Nc3cccc(S([NH-])(=O)=O)c3)c2)cc1

>  <Energy>  (55) 
53.99710471288558

>  <Genealogy>  (55) 
COc1ccc([N-]S(=O)(=O)c2cccc(C(=O)[N-]CC(=O)Nc3cccc(S([NH-])(=O)=O)c3)c2)cc1 (protonated)
COc1ccc([N-]S(=O)(=O)c2cccc(C(=O)[N-]CC(=O)Nc3cccc(S([NH-])(=O)=O)c3)c2)cc1 (3D coordinates assigned)
COc1ccc([N-]S(=O)(=O)c2cccc(C(=O)[N-]CC(=O)Nc3cccc(S([NH-])(=O)=O)c3)c2)cc1 (optimized conformer: 53.99710471288558 kcal/mol)

>  <smiles>  (55) 
COc1ccc(NS(=O)(=O)c2cccc(C(=O)NCC(=O)Nc3cccc(S(N)(=O)=O)c3)c2)cc1

>  <score_type>  (55) 
oracle

>  <origin>  (55) 
adg

>  <m_score__min__energy>  (55) 
-15.1

>  <m_primary>  (55) 
energy

$$$$
55:0
     RDKit          3D

 45 47  0  0  0  0  0  0  0  0999 V2000
   55.9820   21.0700   45.0590 C   0  0  0  0  0  0  0  0  0  0  0  0
   56.4630   22.4500   44.7100 C   0  0  0  0  0  0  0  0  0  0  0  0
   56.6860   22.8240   43.3870 C   0  0  0  0  0  0  0  0  0  0  0  0
   57.1770   24.4250   43.3630 S   0  0  0  0  0  0  0  0  0  0  0  0
   57.1300   24.6730   45.0250 C   0  0  0  0  0  0  0  0  0  0  0  0
   57.4670   25.9920   45.6610 C   0  0  0  0  0  0  0  0  0  0  0  0
   56.2690   26.8910   45.7010 C   0  0  0  0  0  0  0  0  0  0  0  0
   55.1400   26.4200   46.0100 O   0  0  0  0  0  0  0  0  0  0  0  0
   56.3990   28.2560   45.2860 N   0  0  0  0  0  0  0  0  0  0  0  0
   57.4650   29.1460   45.6450 C   0  0  0  0  0  0  0  0  0  0  0  0
   58.1440   28.9310   46.8510 C   0  0  0  0  0  0  0  0  0  0  0  0
   59.1740   29.7900   47.2460 C   0  0  0  0  0  0  0  0  0  0  0  0
   59.5310   30.8790   46.4390 C   0  0  0  0  0  0  0  0  0  0  0  0
   60.6100   31.7900   46.8590 C   0  0  0  0  0  0  0  0  0  0  0  0
   61.8690   31.2370   47.1460 C   0  0  0  0  0  0  0  0  0  0  0  0
   62.9170   32.0490   47.5870 C   0  0  0  0  0  0  0  0  0  0  0  0
   62.7180   33.4190   47.7460 C   0  0  0  0  0  0  0  0  0  0  0  0
   61.4760   33.9850   47.4510 C   0  0  0  0  0  0  0  0  0  0  0  0
   60.4130   33.1870   46.9970 C   0  0  0  0  0  0  0  0  0  0  0  0
   58.8770   33.9840   46.6040 S   0  0  0  0  0  0  0  0  0  0  0  0
   57.5700   33.1560   47.3770 N   0  0  0  0  0  0  0  0  0  0  0  0
   58.6460   34.0120   45.1200 O   0  0  0  0  0  0  0  0  0  0  0  0
   58.9160   35.4030   47.0970 O   0  0  0  0  0  0  0  0  0  0  0  0
   58.8260   31.1220   45.2520 C   0  0  0  0  0  0  0  0  0  0  0  0
   57.7990   30.2620   44.8560 C   0  0  0  0  0  0  0  0  0  0  0  0
   56.7090   23.4860   45.6490 C   0  0  0  0  0  0  0  0  0  0  0  0
   56.5440   23.3330   47.1190 C   0  0  0  0  0  0  0  0  0  0  0  0
   55.6330   23.9500   47.7310 O   0  0  0  0  0  0  0  0  0  0  0  0
   57.3850   22.5040   47.8480 O   0  0  0  0  0  0  0  0  0  0  0  0
   55.9439   20.9607   46.1529 H   0  0  0  0  0  0  0  0  0  0  0  0
   54.9769   20.9151   44.6398 H   0  0  0  0  0  0  0  0  0  0  0  0
   56.6731   20.3239   44.6398 H   0  0  0  0  0  0  0  0  0  0  0  0
   56.5607   22.1769   42.5063 H   0  0  0  0  0  0  0  0  0  0  0  0
   57.8193   25.8164   46.6881 H   0  0  0  0  0  0  0  0  0  0  0  0
   58.2508   26.4793   45.0625 H   0  0  0  0  0  0  0  0  0  0  0  0
   57.8652   28.0811   47.4913 H   0  0  0  0  0  0  0  0  0  0  0  0
   59.7054   29.6108   48.1923 H   0  0  0  0  0  0  0  0  0  0  0  0
   62.0311   30.1560   47.0226 H   0  0  0  0  0  0  0  0  0  0  0  0
   63.8994   31.6067   47.8088 H   0  0  0  0  0  0  0  0  0  0  0  0
   63.5404   34.0555   48.1044 H   0  0  0  0  0  0  0  0  0  0  0  0
   61.3285   35.0679   47.5756 H   0  0  0  0  0  0  0  0  0  0  0  0
   57.2530   32.4060   46.7210 H   0  0  0  0  0  0  0  0  0  0  0  0
   56.7810   33.8320   47.4630 H   0  0  0  0  0  0  0  0  0  0  0  0
   59.0823   31.9926   44.6305 H   0  0  0  0  0  0  0  0  0  0  0  0
   57.2492   30.4580   43.9236 H   0  0  0  0  0  0  0  0  0  0  0  0
  1  2  1  0
  2  3  2  0
  3  4  1  0
  4  5  1  0
  5  6  1  0
  6  7  1  0
  7  8  2  0
  7  9  1  0
  9 10  1  0
 10 11  2  0
 11 12  1  0
 12 13  2  0
 13 14  1  0
 14 15  2  0
 15 16  1  0
 16 17  2  0
 17 18  1  0
 18 19  2  0
 19 20  1  0
 20 21  1  0
 20 22  2  0
 20 23  2  0
 13 24  1  0
 24 25  2  0
  5 26  2  0
 26 27  1  0
 27 28  2  0
 27 29  1  0
 26  2  1  0
 25 10  1  0
 19 14  1  0
  1 30  1  0
  1 31  1  0
  1 32  1  0
  3 33  1  0
  6 34  1  0
  6 35  1  0
 11 36  1  0
 12 37  1  0
 15 38  1  0
 16 39  1  0
 17 40  1  0
 18 41  1  0
 21 42  1  0
 21 43  1  0
 24 44  1  0
 25 45  1  0
M  CHG  2   9  -1  29  -1
M  END
>  <UniqueID>  (56) 
49

>  <SMILES>  (56) 
Cc1csc(CC(=O)[N-]c2ccc(-c3ccccc3S(N)(=O)=O)cc2)c1C(=O)[O-]

>  <Energy>  (56) 
85.1390035175484

>  <Genealogy>  (56) 
Cc1csc(CC(=O)[N-]c2ccc(-c3ccccc3S(N)(=O)=O)cc2)c1C(=O)[O-] (protonated)
Cc1csc(CC(=O)[N-]c2ccc(-c3ccccc3S(N)(=O)=O)cc2)c1C(=O)[O-] (3D coordinates assigned)
Cc1csc(CC(=O)[N-]c2ccc(-c3ccccc3S(N)(=O)=O)cc2)c1C(=O)[O-] (optimized conformer: 85.1390035175484 kcal/mol)

>  <smiles>  (56) 
Cc1csc(CC(=O)Nc2ccc(-c3ccccc3S(N)(=O)=O)cc2)c1C(=O)O

>  <score_type>  (56) 
oracle

>  <origin>  (56) 
adg

>  <m_score__min__energy>  (56) 
-13.69

>  <m_primary>  (56) 
energy

$$$$
56:0
     RDKit          3D

 42 43  0  0  0  0  0  0  0  0999 V2000
   58.8250   25.4440   47.0800 C   0  0  0  0  0  0  0  0  0  0  0  0
   58.4730   26.8450   46.6720 C   0  0  0  0  0  0  0  0  0  0  0  0
   59.3850   27.8310   46.9400 N   0  0  0  0  0  0  0  0  0  0  0  0
   59.1240   29.1030   46.5600 C   0  0  0  0  0  0  0  0  0  0  0  0
   57.9770   29.4520   45.9200 C   0  0  0  0  0  0  0  0  0  0  0  0
   58.0810   30.8150   45.7300 C   0  0  0  0  0  0  0  0  0  0  0  0
   57.1260   31.6270   45.1160 O   0  0  0  0  0  0  0  0  0  0  0  0
   57.4400   32.5160   44.0500 C   0  0  0  0  0  0  0  0  0  0  0  0
   57.5040   33.9560   44.5660 C   0  0  0  0  0  0  0  0  0  0  0  0
   58.9130   34.3540   45.0390 C   0  0  0  0  0  0  0  0  0  0  0  0
   59.1440   33.9610   46.4480 N   0  0  0  0  0  0  0  0  0  0  0  0
   59.9880   34.9610   47.1220 C   0  0  0  0  0  0  0  0  0  0  0  0
   57.8710   33.8210   47.1760 C   0  0  0  0  0  0  0  0  0  0  0  0
   59.2630   31.2370   46.2460 N   0  0  0  0  0  0  0  0  0  0  0  0
   59.9040   30.1840   46.7440 N   0  0  0  0  0  0  0  0  0  0  0  0
   61.1740   30.2420   47.4570 C   0  0  0  0  0  0  0  0  0  0  0  0
   57.0000   28.5110   45.6220 C   0  0  0  0  0  0  0  0  0  0  0  0
   55.9350   28.8600   45.0450 O   0  0  0  0  0  0  0  0  0  0  0  0
   57.2370   27.1640   46.0100 C   0  0  0  0  0  0  0  0  0  0  0  0
   56.2100   26.1300   45.7200 C   0  0  0  0  0  0  0  0  0  0  0  0
   54.8410   26.3430   46.0600 N   0  0  0  0  0  0  0  0  0  0  0  0
   56.5370   25.0610   45.1380 O   0  0  0  0  0  0  0  0  0  0  0  0
   58.8423   25.3752   48.1777 H   0  0  0  0  0  0  0  0  0  0  0  0
   58.0743   24.7462   46.6806 H   0  0  0  0  0  0  0  0  0  0  0  0
   59.8164   25.1839   46.6806 H   0  0  0  0  0  0  0  0  0  0  0  0
   58.4146   32.2397   43.6212 H   0  0  0  0  0  0  0  0  0  0  0  0
   56.6578   32.4444   43.2799 H   0  0  0  0  0  0  0  0  0  0  0  0
   57.2000   34.6344   43.7552 H   0  0  0  0  0  0  0  0  0  0  0  0
   56.8293   34.0296   45.4316 H   0  0  0  0  0  0  0  0  0  0  0  0
   59.6581   33.8549   44.4020 H   0  0  0  0  0  0  0  0  0  0  0  0
   59.0052   35.4477   44.9663 H   0  0  0  0  0  0  0  0  0  0  0  0
   59.8919   34.8472   48.2119 H   0  0  0  0  0  0  0  0  0  0  0  0
   61.0377   34.8123   46.8289 H   0  0  0  0  0  0  0  0  0  0  0  0
   59.6650   35.9708   46.8289 H   0  0  0  0  0  0  0  0  0  0  0  0
   58.0636   33.8422   48.2588 H   0  0  0  0  0  0  0  0  0  0  0  0
   57.2012   34.6509   46.9064 H   0  0  0  0  0  0  0  0  0  0  0  0
   57.3976   32.8654   46.9064 H   0  0  0  0  0  0  0  0  0  0  0  0
   59.6200   32.2180   46.2710 H   0  0  0  0  0  0  0  0  0  0  0  0
   60.9867   30.2334   48.5409 H   0  0  0  0  0  0  0  0  0  0  0  0
   61.7878   29.3710   47.1841 H   0  0  0  0  0  0  0  0  0  0  0  0
   61.7059   31.1654   47.1841 H   0  0  0  0  0  0  0  0  0  0  0  0
   54.5660   27.0890   46.7360 H   0  0  0  0  0  0  0  0  0  0  0  0
  1  2  1  0
  2  3  1  0
  3  4  1  0
  4  5  2  0
  5  6  1  0
  6  7  1  0
  7  8  1  0
  8  9  1  0
  9 10  1  0
 10 11  1  0
 11 12  1  0
 11 13  1  0
  6 14  2  0
 14 15  1  0
 15 16  1  0
  5 17  1  0
 17 18  2  0
 17 19  1  0
 19 20  1  0
 20 21  1  0
 20 22  2  0
 19  2  2  0
 15  4  1  0
  1 23  1  0
  1 24  1  0
  1 25  1  0
  8 26  1  0
  8 27  1  0
  9 28  1  0
  9 29  1  0
 10 30  1  0
 10 31  1  0
 12 32  1  0
 12 33  1  0
 12 34  1  0
 13 35  1  0
 13 36  1  0
 13 37  1  0
 14 38  1  0
 16 39  1  0
 16 40  1  0
 16 41  1  0
 21 42  1  0
M  CHG  3   3  -1  14   1  21  -1
M  END
>  <UniqueID>  (57) 
50

>  <SMILES>  (57) 
Cc1[n-]c2c(c(OCCCN(C)C)[nH+]n2C)c(=O)c1C([NH-])=O

>  <Energy>  (57) 
83.36125577970073

>  <Genealogy>  (57) 
Cc1[n-]c2c(c(OCCCN(C)C)[nH+]n2C)c(=O)c1C([NH-])=O (protonated)
Cc1[n-]c2c(c(OCCCN(C)C)[nH+]n2C)c(=O)c1C([NH-])=O (3D coordinates assigned)
Cc1[n-]c2c(c(OCCCN(C)C)[nH+]n2C)c(=O)c1C([NH-])=O (optimized conformer: 83.36125577970073 kcal/mol)

>  <smiles>  (57) 
Cc1[nH]c2c(c(OCCCN(C)C)nn2C)c(=O)c1C(N)=O

>  <score_type>  (57) 
oracle

>  <origin>  (57) 
adg

>  <m_score__min__energy>  (57) 
-9.4600000000000009

>  <m_primary>  (57) 
energy

$$$$
57:0
     RDKit          3D

 48 51  0  0  0  0  0  0  0  0999 V2000
   60.5702   35.3795   46.4888 H   0  0  0  0  0  0  0  0  0  0  0  0
   59.6420   35.2590   45.9110 C   0  0  0  0  0  0  0  0  0  0  0  0
   59.1539   36.1380   45.4648 H   0  0  0  0  0  0  0  0  0  0  0  0
   59.1070   34.0440   45.7510 C   0  0  0  0  0  0  0  0  0  0  0  0
   57.6870   33.8070   44.8750 S   0  0  0  0  0  0  0  0  0  0  0  0
   57.5950   32.1710   45.2410 C   0  0  0  0  0  0  0  0  0  0  0  0
   56.5980   31.2850   44.8180 O   0  0  0  0  0  0  0  0  0  0  0  0
   56.8370   30.1880   43.9390 C   0  0  0  0  0  0  0  0  0  0  0  0
   55.8747   29.7419   43.6475 H   0  0  0  0  0  0  0  0  0  0  0  0
   57.3706   30.5553   43.0500 H   0  0  0  0  0  0  0  0  0  0  0  0
   57.6820   29.1430   44.6150 C   0  0  0  0  0  0  0  0  0  0  0  0
   57.0880   28.1190   45.3720 C   0  0  0  0  0  0  0  0  0  0  0  0
   55.9933   28.0755   45.4710 H   0  0  0  0  0  0  0  0  0  0  0  0
   57.8830   27.1550   46.0000 C   0  0  0  0  0  0  0  0  0  0  0  0
   57.4130   26.3566   46.5930 H   0  0  0  0  0  0  0  0  0  0  0  0
   59.2730   27.2050   45.8750 C   0  0  0  0  0  0  0  0  0  0  0  0
   59.8968   26.4467   46.3709 H   0  0  0  0  0  0  0  0  0  0  0  0
   59.8730   28.2180   45.1200 C   0  0  0  0  0  0  0  0  0  0  0  0
   60.9680   28.2552   45.0215 H   0  0  0  0  0  0  0  0  0  0  0  0
   59.0810   29.1840   44.4900 C   0  0  0  0  0  0  0  0  0  0  0  0
   59.5551   29.9783   43.8948 H   0  0  0  0  0  0  0  0  0  0  0  0
   58.6290   31.7860   46.0170 N   0  0  0  0  0  0  0  0  0  0  0  0
   58.7470   30.7990   46.3390 H   0  0  0  0  0  0  0  0  0  0  0  0
   59.5030   32.7970   46.3000 C   0  0  0  0  0  0  0  0  0  0  0  0
   60.6080   32.5310   47.0290 C   0  0  0  0  0  0  0  0  0  0  0  0
   61.2563   31.7166   46.6734 H   0  0  0  0  0  0  0  0  0  0  0  0
   61.0250   33.2290   48.2540 C   0  0  0  0  0  0  0  0  0  0  0  0
   60.2570   33.3700   49.3910 C   0  0  0  0  0  0  0  0  0  0  0  0
   61.0250   33.7660   50.3850 N   0  0  0  0  0  0  0  0  0  0  0  0
   62.2810   33.8270   49.9130 C   0  0  0  0  0  0  0  0  0  0  0  0
   63.1650   34.0792   50.5171 H   0  0  0  0  0  0  0  0  0  0  0  0
   62.3090   33.5350   48.5900 N   0  0  0  0  0  0  0  0  0  0  0  0
   63.5220   33.2720   47.8130 C   0  0  0  0  0  0  0  0  0  0  0  0
   64.3847   33.7229   48.3252 H   0  0  0  0  0  0  0  0  0  0  0  0
   63.6589   32.1841   47.7250 H   0  0  0  0  0  0  0  0  0  0  0  0
   63.4010   33.8680   46.4150 C   0  0  0  0  0  0  0  0  0  0  0  0
   63.1827   34.9433   46.4925 H   0  0  0  0  0  0  0  0  0  0  0  0
   64.3467   33.7240   45.8719 H   0  0  0  0  0  0  0  0  0  0  0  0
   62.5863   33.3667   45.8719 H   0  0  0  0  0  0  0  0  0  0  0  0
   60.4730   33.4760   51.6860 C   0  0  0  0  0  0  0  0  0  0  0  0
   61.0757   32.7193   52.2095 H   0  0  0  0  0  0  0  0  0  0  0  0
   60.4544   34.3530   52.3498 H   0  0  0  0  0  0  0  0  0  0  0  0
   59.0590   32.9320   51.3630 C   0  0  0  0  0  0  0  0  0  0  0  0
   58.9047   31.9620   51.8582 H   0  0  0  0  0  0  0  0  0  0  0  0
   58.2805   33.6209   51.7228 H   0  0  0  0  0  0  0  0  0  0  0  0
   58.9820   32.7630   49.8240 C   0  0  0  0  0  0  0  0  0  0  0  0
   58.9263   31.7019   49.5396 H   0  0  0  0  0  0  0  0  0  0  0  0
   58.0920   33.2220   49.3687 H   0  0  0  0  0  0  0  0  0  0  0  0
  1  2  1  0
  2  3  1  0
  2  4  2  0
  4  5  1  0
  5  6  1  0
  6  7  1  0
  7  8  1  0
  8  9  1  0
  8 10  1  0
  8 11  1  0
 11 12  2  0
 12 13  1  0
 12 14  1  0
 14 15  1  0
 14 16  2  0
 16 17  1  0
 16 18  1  0
 18 19  1  0
 18 20  2  0
 20 21  1  0
  6 22  2  0
 22 23  1  0
 22 24  1  0
 24 25  2  0
 25 26  1  0
 25 27  1  0
 27 28  2  0
 28 29  1  0
 29 30  1  0
 30 31  1  0
 30 32  2  0
 32 33  1  0
 33 34  1  0
 33 35  1  0
 33 36  1  0
 36 37  1  0
 36 38  1  0
 36 39  1  0
 29 40  1  0
 40 41  1  0
 40 42  1  0
 40 43  1  0
 43 44  1  0
 43 45  1  0
 43 46  1  0
 46 47  1  0
 46 48  1  0
 24  4  1  0
 32 27  1  0
 20 11  1  0
 46 28  1  0
M  CHG  2  22   1  32   1
M  END
>  <UniqueID>  (58) 
51

>  <SMILES>  (58) 
C=c1sc(OCc2ccccc2)[nH+]/c1=C/c1c2n(c[n+]1CC)CCC2

>  <Energy>  (58) 
140.51674010964567

>  <Genealogy>  (58) 
C=c1sc(OCc2ccccc2)[nH+]c1=Cc1c2n(c[n+]1CC)CCC2 (protonated)
C=c1sc(OCc2ccccc2)[nH+]/c1=C/c1c2n(c[n+]1CC)CCC2 (cis-trans isomerization)
C=c1sc(OCc2ccccc2)[nH+]/c1=C/c1c2n(c[n+]1CC)CCC2 (3D coordinates assigned)
C=c1sc(OCc2ccccc2)[nH+]/c1=C/c1c2n(c[n+]1CC)CCC2 (nonaromatic ring conformer: 140.51674010964567 kcal/mol)

>  <smiles>  (58) 
C=c1sc(OCc2ccccc2)nc1=Cc1c2n(c[n+]1CC)CCC2

>  <score_type>  (58) 
oracle

>  <origin>  (58) 
adg

>  <m_score__min__energy>  (58) 
-5.4500000000000002

>  <m_primary>  (58) 
energy

$$$$
58:0
     RDKit          3D

 38 40  0  0  0  0  0  0  0  0999 V2000
   55.1842   28.8478   43.6395 H   0  0  0  0  0  0  0  0  0  0  0  0
   55.8580   29.7150   43.7030 C   0  0  0  0  0  0  0  0  0  0  0  0
   56.0130   30.4360   44.8440 N   0  0  0  0  0  0  0  0  0  0  0  0
   56.8990   31.4430   44.6800 C   0  0  0  0  0  0  0  0  0  0  0  0
   57.2230   32.3010   45.6010 N   0  0  0  0  0  0  0  0  0  0  0  0
   58.3480   32.2560   46.4970 C   0  0  0  0  0  0  0  0  0  0  0  0
   58.2300   32.8250   47.6150 O   0  0  0  0  0  0  0  0  0  0  0  0
   59.6570   31.5610   46.1420 C   0  0  2  0  0  0  0  0  0  0  0  0
   59.8030   31.8257   45.0844 H   0  0  0  0  0  0  0  0  0  0  0  0
   59.5880   30.0420   46.2550 C   0  0  0  0  0  0  0  0  0  0  0  0
   60.0420   29.2180   45.2050 C   0  0  0  0  0  0  0  0  0  0  0  0
   60.4792   29.6743   44.3046 H   0  0  0  0  0  0  0  0  0  0  0  0
   59.9420   27.8270   45.2970 C   0  0  0  0  0  0  0  0  0  0  0  0
   60.3072   27.1948   44.4743 H   0  0  0  0  0  0  0  0  0  0  0  0
   59.3800   27.2390   46.4300 C   0  0  0  0  0  0  0  0  0  0  0  0
   59.3056   26.1439   46.5017 H   0  0  0  0  0  0  0  0  0  0  0  0
   58.9120   28.0400   47.4730 C   0  0  0  0  0  0  0  0  0  0  0  0
   58.4659   27.5738   48.3639 H   0  0  0  0  0  0  0  0  0  0  0  0
   59.0080   29.4330   47.3900 C   0  0  0  0  0  0  0  0  0  0  0  0
   58.5280   30.1810   48.4160 F   0  0  0  0  0  0  0  0  0  0  0  0
   60.8650   32.0730   46.9230 C   0  0  0  0  0  0  0  0  0  0  0  0
   61.5070   31.1780   47.8000 C   0  0  0  0  0  0  0  0  0  0  0  0
   61.1363   30.1461   47.8881 H   0  0  0  0  0  0  0  0  0  0  0  0
   62.6050   31.5800   48.5580 C   0  0  0  0  0  0  0  0  0  0  0  0
   63.1021   30.8632   49.2281 H   0  0  0  0  0  0  0  0  0  0  0  0
   63.0740   32.8890   48.4680 C   0  0  0  0  0  0  0  0  0  0  0  0
   64.4570   33.3920   49.4240 Cl  0  0  0  0  0  0  0  0  0  0  0  0
   62.4410   33.8020   47.6240 C   0  0  0  0  0  0  0  0  0  0  0  0
   62.8133   34.8352   47.5622 H   0  0  0  0  0  0  0  0  0  0  0  0
   61.3280   33.4130   46.8490 C   0  0  0  0  0  0  0  0  0  0  0  0
   60.6780   34.3270   46.0040 O   0  0  0  0  0  0  0  0  0  0  0  0
   59.6780   35.2500   46.4190 C   0  0  0  0  0  0  0  0  0  0  0  0
   59.6426   35.2827   47.5179 H   0  0  0  0  0  0  0  0  0  0  0  0
   59.9183   36.2505   46.0300 H   0  0  0  0  0  0  0  0  0  0  0  0
   58.7000   34.9305   46.0300 H   0  0  0  0  0  0  0  0  0  0  0  0
   57.5060   31.4930   43.1160 S   0  0  0  0  0  0  0  0  0  0  0  0
   56.6140   30.1540   42.6210 C   0  0  0  0  0  0  0  0  0  0  0  0
   56.6267   29.7046   41.6171 H   0  0  0  0  0  0  0  0  0  0  0  0
  1  2  1  0
  2  3  1  0
  3  4  1  0
  4  5  2  0
  5  6  1  0
  6  7  2  0
  6  8  1  0
  8  9  1  6
  8 10  1  0
 10 11  2  0
 11 12  1  0
 11 13  1  0
 13 14  1  0
 13 15  2  0
 15 16  1  0
 15 17  1  0
 17 18  1  0
 17 19  2  0
 19 20  1  0
  8 21  1  0
 21 22  2  0
 22 23  1  0
 22 24  1  0
 24 25  1  0
 24 26  2  0
 26 27  1  0
 26 28  1  0
 28 29  1  0
 28 30  2  0
 30 31  1  0
 31 32  1  0
 32 33  1  0
 32 34  1  0
 32 35  1  0
  4 36  1  0
 36 37  1  0
 37 38  1  0
 37  2  2  0
 19 10  1  0
 30 21  1  0
M  CHG  1   3  -1
M  END
>  <UniqueID>  (59) 
52

>  <SMILES>  (59) 
COc1cc(Cl)ccc1[C@H](C(=O)/N=c1\[n-]ccs1)c1ccccc1F

>  <Energy>  (59) 
79.4775875805352

>  <Genealogy>  (59) 
COc1cc(Cl)ccc1C(C(=O)N=c1[n-]ccs1)c1ccccc1F (protonated)
COc1cc(Cl)ccc1[C@H](C(=O)N=c1[n-]ccs1)c1ccccc1F (chirality)
COc1cc(Cl)ccc1[C@H](C(=O)/N=c1\[n-]ccs1)c1ccccc1F (cis-trans isomerization)
COc1cc(Cl)ccc1[C@H](C(=O)/N=c1\[n-]ccs1)c1ccccc1F (3D coordinates assigned)
COc1cc(Cl)ccc1[C@H](C(=O)/N=c1\[n-]ccs1)c1ccccc1F (optimized conformer: 79.4775875805352 kcal/mol)

>  <smiles>  (59) 
COc1cc(Cl)ccc1C(C(=O)N=c1[nH]ccs1)c1ccccc1F

>  <score_type>  (59) 
oracle

>  <origin>  (59) 
adg

>  <m_score__min__energy>  (59) 
-9.3599999999999994

>  <m_primary>  (59) 
energy

$$$$
59:0
     RDKit          3D

 37 39  0  0  0  0  0  0  0  0999 V2000
   59.2280   35.0180   44.8560 C   0  0  0  0  0  0  0  0  0  0  0  0
   59.1780   34.3280   46.1940 C   0  0  0  0  0  0  0  0  0  0  0  0
   59.7590   34.9760   47.3000 C   0  0  0  0  0  0  0  0  0  0  0  0
   59.7250   34.3930   48.5670 C   0  0  0  0  0  0  0  0  0  0  0  0
   59.1120   33.1570   48.7500 C   0  0  0  0  0  0  0  0  0  0  0  0
   58.5380   32.4920   47.6660 C   0  0  0  0  0  0  0  0  0  0  0  0
   58.5690   33.0540   46.3750 C   0  0  0  0  0  0  0  0  0  0  0  0
   57.9910   32.2590   45.2630 C   0  0  0  0  0  0  0  0  0  0  0  0
   57.2740   31.1280   45.4090 N   0  0  0  0  0  0  0  0  0  0  0  0
   56.9360   30.8520   44.1340 C   0  0  0  0  0  0  0  0  0  0  0  0
   56.0280   29.7310   43.7450 C   0  0  0  0  0  0  0  0  0  0  0  0
   55.6970   28.9090   44.9110 N   0  0  0  0  0  0  0  0  0  0  0  0
   56.9480   27.7460   45.2530 S   0  0  0  0  0  0  0  0  0  0  0  0
   56.3960   26.6880   46.1650 O   0  0  0  0  0  0  0  0  0  0  0  0
   57.3950   27.0910   43.9750 O   0  0  0  0  0  0  0  0  0  0  0  0
   58.3130   28.5200   46.0550 C   0  0  0  0  0  0  0  0  0  0  0  0
   59.3950   28.9820   45.2920 C   0  0  0  0  0  0  0  0  0  0  0  0
   60.5050   29.5580   45.9200 C   0  0  0  0  0  0  0  0  0  0  0  0
   60.5350   29.6810   47.3120 C   0  0  0  0  0  0  0  0  0  0  0  0
   59.4550   29.2330   48.0780 C   0  0  0  0  0  0  0  0  0  0  0  0
   58.3450   28.6550   47.4530 C   0  0  0  0  0  0  0  0  0  0  0  0
   57.4160   31.7590   43.2640 N   0  0  0  0  0  0  0  0  0  0  0  0
   58.0640   32.6100   43.9990 O   0  0  0  0  0  0  0  0  0  0  0  0
   59.3068   36.1048   45.0066 H   0  0  0  0  0  0  0  0  0  0  0  0
   60.1027   34.6616   44.2921 H   0  0  0  0  0  0  0  0  0  0  0  0
   58.3111   34.7915   44.2921 H   0  0  0  0  0  0  0  0  0  0  0  0
   60.2454   35.9532   47.1639 H   0  0  0  0  0  0  0  0  0  0  0  0
   60.1833   34.9109   49.4224 H   0  0  0  0  0  0  0  0  0  0  0  0
   59.0800   32.7033   49.7516 H   0  0  0  0  0  0  0  0  0  0  0  0
   58.0550   31.5161   47.8218 H   0  0  0  0  0  0  0  0  0  0  0  0
   55.1020   30.1462   43.3205 H   0  0  0  0  0  0  0  0  0  0  0  0
   56.5386   29.1023   43.0007 H   0  0  0  0  0  0  0  0  0  0  0  0
   59.3712   28.8913   44.1960 H   0  0  0  0  0  0  0  0  0  0  0  0
   61.3541   29.9140   45.3181 H   0  0  0  0  0  0  0  0  0  0  0  0
   61.4094   30.1308   47.8052 H   0  0  0  0  0  0  0  0  0  0  0  0
   59.4780   29.3350   49.1730 H   0  0  0  0  0  0  0  0  0  0  0  0
   57.4952   28.3054   48.0576 H   0  0  0  0  0  0  0  0  0  0  0  0
  1  2  1  0
  2  3  2  0
  3  4  1  0
  4  5  2  0
  5  6  1  0
  6  7  2  0
  7  8  1  0
  8  9  2  0
  9 10  1  0
 10 11  1  0
 11 12  1  0
 12 13  1  0
 13 14  2  0
 13 15  2  0
 13 16  1  0
 16 17  2  0
 17 18  1  0
 18 19  2  0
 19 20  1  0
 20 21  2  0
 10 22  2  0
 22 23  1  0
  7  2  1  0
 23  8  1  0
 21 16  1  0
  1 24  1  0
  1 25  1  0
  1 26  1  0
  3 27  1  0
  4 28  1  0
  5 29  1  0
  6 30  1  0
 11 31  1  0
 11 32  1  0
 17 33  1  0
 18 34  1  0
 19 35  1  0
 20 36  1  0
 21 37  1  0
M  CHG  1  12  -1
M  END
>  <UniqueID>  (60) 
53

>  <SMILES>  (60) 
Cc1ccccc1-c1nc(C[N-]S(=O)(=O)c2ccccc2)no1

>  <Energy>  (60) 
69.64893748125782

>  <Genealogy>  (60) 
Cc1ccccc1-c1nc(C[N-]S(=O)(=O)c2ccccc2)no1 (protonated)
Cc1ccccc1-c1nc(C[N-]S(=O)(=O)c2ccccc2)no1 (3D coordinates assigned)
Cc1ccccc1-c1nc(C[N-]S(=O)(=O)c2ccccc2)no1 (optimized conformer: 69.64893748125782 kcal/mol)

>  <smiles>  (60) 
Cc1ccccc1-c1nc(CNS(=O)(=O)c2ccccc2)no1

>  <score_type>  (60) 
oracle

>  <origin>  (60) 
adg

>  <m_score__min__energy>  (60) 
-10.890000000000001

>  <m_primary>  (60) 
energy

$$$$
60:0
     RDKit          3D

 57 61  0  0  1  0  0  0  0  0999 V2000
   63.4220   33.9330   46.3780 O   0  0  0  0  0  0  0  0  0  0  0  0
   63.1040   33.0630   47.1380 C   0  0  0  0  0  0  0  0  0  0  0  0
   63.7430   31.7950   46.9730 O   0  0  0  0  0  0  0  0  0  0  0  0
   62.1040   33.0660   48.2160 C   0  0  0  0  0  0  0  0  0  0  0  0
   62.3930   32.5220   49.4740 C   0  0  0  0  0  0  0  0  0  0  0  0
   61.4760   32.6710   50.4590 C   0  0  0  0  0  0  0  0  0  0  0  0
   60.2590   33.3230   50.1820 C   0  0  0  0  0  0  0  0  0  0  0  0
   59.3830   33.3760   51.3120 C   0  0  0  0  0  0  0  0  0  0  0  0
   58.8960   34.5570   51.5860 O   0  0  0  0  0  0  0  0  0  0  0  0
   59.1860   32.1670   51.9650 N   0  0  0  0  0  0  0  0  0  0  0  0
   58.6620   31.1120   51.5230 C   0  0  0  0  0  0  0  0  0  0  0  0
   59.1580   29.9370   50.9170 C   0  0  0  0  0  0  0  0  0  0  0  0
   59.5400   29.6660   49.5700 C   0  0  0  0  0  0  0  0  0  0  0  0
   58.9250   30.7090   48.7190 C   0  0  0  0  0  0  0  0  0  0  0  0
   59.0730   30.7430   47.3910 C   0  0  0  0  0  0  0  0  0  0  0  0
   59.7690   29.8000   46.7630 C   0  0  0  0  0  0  0  0  0  0  0  0
   59.8850   29.8740   45.3410 O   0  0  0  0  0  0  0  0  0  0  0  0
   58.7330   30.0840   44.5280 C   0  0  0  0  0  0  0  0  0  0  0  0
   58.5160   31.3390   44.0600 C   0  0  0  0  0  0  0  0  0  0  0  0
   57.3630   31.5650   43.3000 C   0  0  0  0  0  0  0  0  0  0  0  0
   56.4280   30.5430   43.0420 C   0  0  0  0  0  0  0  0  0  0  0  0
   56.6370   29.3070   43.5260 C   0  0  0  0  0  0  0  0  0  0  0  0
   57.8280   29.1030   44.2490 C   0  0  0  0  0  0  0  0  0  0  0  0
   58.3940   27.2560   44.3860 Br  0  0  0  0  0  0  0  0  0  0  0  0
   60.3460   28.7880   47.5100 C   0  0  0  0  0  0  0  0  0  0  0  0
   60.2330   28.7480   48.9370 C   0  0  0  0  0  0  0  0  0  0  0  0
   57.2260   30.7860   52.0390 C   0  0  0  0  0  0  0  0  0  0  0  0
   56.8220   29.6160   52.4160 N   0  0  0  0  0  0  0  0  0  0  0  0
   55.4320   29.7240   52.4260 C   0  0  0  0  0  0  0  0  0  0  0  0
   54.5600   28.6870   52.6670 C   0  0  0  0  0  0  0  0  0  0  0  0
   53.2100   28.9880   52.5000 C   0  0  0  0  0  0  0  0  0  0  0  0
   52.8320   30.2330   52.0930 C   0  0  0  0  0  0  0  0  0  0  0  0
   53.7410   31.2560   51.8630 C   0  0  0  0  0  0  0  0  0  0  0  0
   55.0940   30.9770   52.0400 C   0  0  0  0  0  0  0  0  0  0  0  0
   56.2540   31.6950   51.8050 N   0  0  0  0  0  0  0  0  0  0  0  0
   59.9660   33.8670   48.9760 C   0  0  0  0  0  0  0  0  0  0  0  0
   60.9350   33.7260   48.0080 C   0  0  0  0  0  0  0  0  0  0  0  0
   64.7720   31.9880   46.7290 H   0  0  0  0  0  0  0  0  0  0  0  0
   63.3378   31.9890   49.6565 H   0  0  0  0  0  0  0  0  0  0  0  0
   61.6803   32.2854   51.4687 H   0  0  0  0  0  0  0  0  0  0  0  0
   60.0618   29.7027   51.4987 H   0  0  0  0  0  0  0  0  0  0  0  0
   58.2071   29.3843   50.8997 H   0  0  0  0  0  0  0  0  0  0  0  0
   58.3193   31.4908   49.2006 H   0  0  0  0  0  0  0  0  0  0  0  0
   58.6148   31.5586   46.8123 H   0  0  0  0  0  0  0  0  0  0  0  0
   59.2245   32.1535   44.2715 H   0  0  0  0  0  0  0  0  0  0  0  0
   57.1812   32.5702   42.8919 H   0  0  0  0  0  0  0  0  0  0  0  0
   55.5287   30.7565   42.4456 H   0  0  0  0  0  0  0  0  0  0  0  0
   55.9132   28.4944   43.3653 H   0  0  0  0  0  0  0  0  0  0  0  0
   60.9059   27.9939   46.9943 H   0  0  0  0  0  0  0  0  0  0  0  0
   60.7281   27.9461   49.5042 H   0  0  0  0  0  0  0  0  0  0  0  0
   54.9056   27.6879   52.9710 H   0  0  0  0  0  0  0  0  0  0  0  0
   52.4478   28.2197   52.6969 H   0  0  0  0  0  0  0  0  0  0  0  0
   51.7615   30.4351   51.9405 H   0  0  0  0  0  0  0  0  0  0  0  0
   53.4037   32.2554   51.5508 H   0  0  0  0  0  0  0  0  0  0  0  0
   56.2580   32.6770   51.5250 H   0  0  0  0  0  0  0  0  0  0  0  0
   59.0162   34.3872   48.7830 H   0  0  0  0  0  0  0  0  0  0  0  0
   60.7537   34.1695   47.0178 H   0  0  0  0  0  0  0  0  0  0  0  0
  1  2  2  0
  2  3  1  0
  2  4  1  0
  4  5  2  0
  5  6  1  0
  6  7  2  0
  7  8  1  0
  8  9  2  0
  8 10  1  0
 10 11  2  0
 11 12  1  0
 12 13  1  0
 13 14  2  0
 14 15  1  0
 15 16  2  0
 16 17  1  0
 17 18  1  0
 18 19  2  0
 19 20  1  0
 20 21  2  0
 21 22  1  0
 22 23  2  0
 23 24  1  0
 16 25  1  0
 25 26  2  0
 11 27  1  0
 27 28  2  0
 28 29  1  0
 29 30  2  0
 30 31  1  0
 31 32  2  0
 32 33  1  0
 33 34  2  0
 34 35  1  0
  7 36  1  0
 36 37  2  0
 37  4  1  0
 26 13  1  0
 35 27  1  0
 23 18  1  0
 34 29  1  0
  3 38  1  0
  5 39  1  0
  6 40  1  0
 12 41  1  0
 12 42  1  0
 14 43  1  0
 15 44  1  0
 19 45  1  0
 20 46  1  0
 21 47  1  0
 22 48  1  0
 25 49  1  0
 26 50  1  0
 30 51  1  0
 31 52  1  0
 32 53  1  0
 33 54  1  0
 35 55  1  0
 36 56  1  0
 37 57  1  0
M  END
>  <smiles>  (61) 
O=C(O)c1ccc(C(=O)N=C(Cc2ccc(Oc3ccccc3Br)cc2)c2nc3ccccc3[nH]2)cc1

>  <score_type>  (61) 
oracle

>  <origin>  (61) 
adg

>  <m_score__min__energy>  (61) 
-10.44

>  <m_primary>  (61) 
energy

$$$$
61:0
     RDKit          3D

 59 61  0  0  0  0  0  0  0  0999 V2000
   64.1890   34.7595   47.2871 H   0  0  0  0  0  0  0  0  0  0  0  0
   63.6480   33.8380   47.5480 C   0  0  0  0  0  0  0  0  0  0  0  0
   64.0630   33.0690   48.6380 C   0  0  0  0  0  0  0  0  0  0  0  0
   64.9341   33.3835   49.2316 H   0  0  0  0  0  0  0  0  0  0  0  0
   63.3740   31.9010   48.9760 C   0  0  0  0  0  0  0  0  0  0  0  0
   63.7093   31.2939   49.8298 H   0  0  0  0  0  0  0  0  0  0  0  0
   62.2510   31.4990   48.2260 C   0  0  0  0  0  0  0  0  0  0  0  0
   61.4890   30.3670   48.5550 O   0  0  0  0  0  0  0  0  0  0  0  0
   60.2970   29.9670   47.8860 C   0  0  0  0  0  0  0  0  0  0  0  0
   60.1664   30.5730   46.9773 H   0  0  0  0  0  0  0  0  0  0  0  0
   59.4361   30.1148   48.5545 H   0  0  0  0  0  0  0  0  0  0  0  0
   60.3940   28.4910   47.5030 C   0  0  0  0  0  0  0  0  0  0  0  0
   60.4184   27.8804   48.4176 H   0  0  0  0  0  0  0  0  0  0  0  0
   61.3125   28.3344   46.9184 H   0  0  0  0  0  0  0  0  0  0  0  0
   59.2300   28.0920   46.6820 N   0  0  0  0  0  0  0  0  0  0  0  0
   58.4090   27.0820   47.1110 C   0  0  0  0  0  0  0  0  0  0  0  0
   58.6850   26.4630   48.1760 O   0  0  0  0  0  0  0  0  0  0  0  0
   57.2570   26.7520   46.3640 C   0  0  0  0  0  0  0  0  0  0  0  0
   56.4020   25.8260   46.7150 N   0  0  0  0  0  0  0  0  0  0  0  0
   56.1340   24.5390   46.0750 C   0  0  0  0  0  0  0  0  0  0  0  0
   56.8293   24.3970   45.2345 H   0  0  0  0  0  0  0  0  0  0  0  0
   56.2717   23.7318   46.8095 H   0  0  0  0  0  0  0  0  0  0  0  0
   54.7010   24.5100   45.5570 C   0  0  0  0  0  0  0  0  0  0  0  0
   54.6830   24.0760   44.2440 F   0  0  0  0  0  0  0  0  0  0  0  0
   53.9360   23.6560   46.3310 F   0  0  0  0  0  0  0  0  0  0  0  0
   54.1620   25.7810   45.6190 F   0  0  0  0  0  0  0  0  0  0  0  0
   57.0120   27.4500   45.2260 N   0  0  0  0  0  0  0  0  0  0  0  0
   56.1520   27.2180   44.6740 H   0  0  0  0  0  0  0  0  0  0  0  0
   57.8080   28.4400   44.8120 N   0  0  0  0  0  0  0  0  0  0  0  0
   57.3980   29.2220   43.6330 C   0  0  0  0  0  0  0  0  0  0  0  0
   56.5816   28.7008   43.1117 H   0  0  0  0  0  0  0  0  0  0  0  0
   58.2523   29.3349   42.9493 H   0  0  0  0  0  0  0  0  0  0  0  0
   56.9280   30.5700   44.0760 C   0  0  0  0  0  0  0  0  0  0  0  0
   55.8090   30.6910   44.6440 O   0  0  0  0  0  0  0  0  0  0  0  0
   57.7980   31.6970   43.9450 N   0  0  0  0  0  0  0  0  0  0  0  0
   57.4280   33.0460   44.3630 C   0  0  0  0  0  0  0  0  0  0  0  0
   57.7019   33.7546   43.5675 H   0  0  0  0  0  0  0  0  0  0  0  0
   56.3438   33.0652   44.5478 H   0  0  0  0  0  0  0  0  0  0  0  0
   58.1340   33.4430   45.6390 C   0  0  0  0  0  0  0  0  0  0  0  0
   58.9890   34.5580   45.6850 C   0  0  0  0  0  0  0  0  0  0  0  0
   59.1835   35.1321   44.7671 H   0  0  0  0  0  0  0  0  0  0  0  0
   59.5940   34.9450   46.8820 C   0  0  0  0  0  0  0  0  0  0  0  0
   60.2722   35.8109   46.8987 H   0  0  0  0  0  0  0  0  0  0  0  0
   59.3390   34.2310   48.0670 C   0  0  0  0  0  0  0  0  0  0  0  0
   59.9140   34.5800   49.3000 O   0  0  0  0  0  0  0  0  0  0  0  0
   60.2290   33.6660   50.3480 C   0  0  0  0  0  0  0  0  0  0  0  0
   60.1480   32.3640   49.8850 F   0  0  0  0  0  0  0  0  0  0  0  0
   61.5190   33.9060   50.7790 F   0  0  0  0  0  0  0  0  0  0  0  0
   59.3630   33.8430   51.4110 F   0  0  0  0  0  0  0  0  0  0  0  0
   58.4760   33.1300   48.0260 C   0  0  0  0  0  0  0  0  0  0  0  0
   58.2700   32.5650   48.9471 H   0  0  0  0  0  0  0  0  0  0  0  0
   57.8730   32.7410   46.8260 C   0  0  0  0  0  0  0  0  0  0  0  0
   57.1896   31.8792   46.8121 H   0  0  0  0  0  0  0  0  0  0  0  0
   58.9190   28.7800   45.5380 C   0  0  0  0  0  0  0  0  0  0  0  0
   59.6460   29.7440   45.1640 O   0  0  0  0  0  0  0  0  0  0  0  0
   61.8540   32.2680   47.1230 C   0  0  0  0  0  0  0  0  0  0  0  0
   60.7790   31.8900   46.3850 F   0  0  0  0  0  0  0  0  0  0  0  0
   62.5450   33.4360   46.7890 C   0  0  0  0  0  0  0  0  0  0  0  0
   62.2207   34.0394   45.9283 H   0  0  0  0  0  0  0  0  0  0  0  0
  1  2  1  0
  2  3  2  0
  3  4  1  0
  3  5  1  0
  5  6  1  0
  5  7  2  0
  7  8  1  0
  8  9  1  0
  9 10  1  0
  9 11  1  0
  9 12  1  0
 12 13  1  0
 12 14  1  0
 12 15  1  0
 15 16  1  0
 16 17  2  0
 16 18  1  0
 18 19  2  0
 19 20  1  0
 20 21  1  0
 20 22  1  0
 20 23  1  0
 23 24  1  0
 23 25  1  0
 23 26  1  0
 18 27  1  0
 27 28  1  0
 27 29  1  0
 29 30  1  0
 30 31  1  0
 30 32  1  0
 30 33  1  0
 33 34  2  0
 33 35  1  0
 35 36  1  0
 36 37  1  0
 36 38  1  0
 36 39  1  0
 39 40  2  0
 40 41  1  0
 40 42  1  0
 42 43  1  0
 42 44  2  0
 44 45  1  0
 45 46  1  0
 46 47  1  0
 46 48  1  0
 46 49  1  0
 44 50  1  0
 50 51  1  0
 50 52  2  0
 52 53  1  0
 29 54  1  0
 54 55  2  0
  7 56  1  0
 56 57  1  0
 56 58  2  0
 58 59  1  0
 58  2  1  0
 54 15  1  0
 52 39  1  0
M  CHG  1  35  -1
M  END
>  <UniqueID>  (62) 
54

>  <SMILES>  (62) 
O=C(Cn1[nH]/c(=N/CC(F)(F)F)c(=O)n(CCOc2ccccc2F)c1=O)[N-]Cc1ccc(OC(F)(F)F)cc1

>  <Energy>  (62) 
56.684027636680305

>  <Genealogy>  (62) 
O=C(Cn1[nH]c(=NCC(F)(F)F)c(=O)n(CCOc2ccccc2F)c1=O)[N-]Cc1ccc(OC(F)(F)F)cc1 (protonated)
O=C(Cn1[nH]/c(=N/CC(F)(F)F)c(=O)n(CCOc2ccccc2F)c1=O)[N-]Cc1ccc(OC(F)(F)F)cc1 (cis-trans isomerization)
O=C(Cn1[nH]/c(=N/CC(F)(F)F)c(=O)n(CCOc2ccccc2F)c1=O)[N-]Cc1ccc(OC(F)(F)F)cc1 (3D coordinates assigned)
O=C(Cn1[nH]/c(=N/CC(F)(F)F)c(=O)n(CCOc2ccccc2F)c1=O)[N-]Cc1ccc(OC(F)(F)F)cc1 (optimized conformer: 56.684027636680305 kcal/mol)

>  <smiles>  (62) 
O=C(Cn1[nH]c(=NCC(F)(F)F)c(=O)n(CCOc2ccccc2F)c1=O)NCc1ccc(OC(F)(F)F)cc1

>  <score_type>  (62) 
oracle

>  <origin>  (62) 
adg

>  <m_score__min__energy>  (62) 
-9.6899999999999995

>  <m_primary>  (62) 
energy

$$$$
62:0
     RDKit          3D

 43 45  0  0  0  0  0  0  0  0999 V2000
   57.7250   34.0410   44.9060 O   0  0  0  0  0  0  0  0  0  0  0  0
   58.2520   34.1290   46.0460 C   0  0  0  0  0  0  0  0  0  0  0  0
   59.4720   34.9960   46.2220 C   0  0  0  0  0  0  0  0  0  0  0  0
   60.0510   34.8270   47.5150 O   0  0  0  0  0  0  0  0  0  0  0  0
   61.2710   34.1860   47.7830 C   0  0  0  0  0  0  0  0  0  0  0  0
   61.7560   33.9930   49.0920 C   0  0  0  0  0  0  0  0  0  0  0  0
   62.9830   33.3550   49.2990 C   0  0  0  0  0  0  0  0  0  0  0  0
   63.7330   32.9050   48.2090 C   0  0  0  0  0  0  0  0  0  0  0  0
   63.2560   33.0930   46.9090 C   0  0  0  0  0  0  0  0  0  0  0  0
   62.0280   33.7280   46.6990 C   0  0  0  0  0  0  0  0  0  0  0  0
   57.6700   33.3990   47.1340 N   0  0  0  0  0  0  0  0  0  0  0  0
   58.3450   32.3950   47.8970 C   0  0  0  0  0  0  0  0  0  0  0  0
   58.6690   32.6630   49.2320 C   0  0  0  0  0  0  0  0  0  0  0  0
   59.2760   31.6840   50.0200 C   0  0  0  0  0  0  0  0  0  0  0  0
   59.5700   30.4310   49.4770 C   0  0  0  0  0  0  0  0  0  0  0  0
   59.2810   30.1660   48.1350 C   0  0  0  0  0  0  0  0  0  0  0  0
   58.7000   31.1540   47.3290 C   0  0  0  0  0  0  0  0  0  0  0  0
   58.4540   30.8270   45.5730 S   0  0  0  0  0  0  0  0  0  0  0  0
   59.1980   29.1570   45.5930 C   0  0  0  0  0  0  0  0  0  0  0  0
   58.3970   28.1860   44.7650 C   0  0  0  0  0  0  0  0  0  0  0  0
   58.5540   28.2020   43.5150 O   0  0  0  0  0  0  0  0  0  0  0  0
   57.5060   27.1580   45.3680 C   0  0  0  0  0  0  0  0  0  0  0  0
   56.1400   27.3970   45.6260 C   0  0  0  0  0  0  0  0  0  0  0  0
   55.5280   28.5830   45.2420 O   0  0  0  0  0  0  0  0  0  0  0  0
   55.3860   26.4420   46.2290 N   0  0  0  0  0  0  0  0  0  0  0  0
   55.9100   25.2400   46.5690 C   0  0  0  0  0  0  0  0  0  0  0  0
   55.1910   24.3760   47.1330 O   0  0  0  0  0  0  0  0  0  0  0  0
   57.2090   24.9630   46.2920 N   0  0  0  0  0  0  0  0  0  0  0  0
   58.0110   25.8830   45.6960 C   0  0  0  0  0  0  0  0  0  0  0  0
   59.2130   25.5840   45.4630 O   0  0  0  0  0  0  0  0  0  0  0  0
   60.2163   34.7250   45.4588 H   0  0  0  0  0  0  0  0  0  0  0  0
   59.1668   36.0474   46.1151 H   0  0  0  0  0  0  0  0  0  0  0  0
   61.1682   34.3449   49.9526 H   0  0  0  0  0  0  0  0  0  0  0  0
   63.3588   33.2070   50.3222 H   0  0  0  0  0  0  0  0  0  0  0  0
   64.6979   32.4033   48.3742 H   0  0  0  0  0  0  0  0  0  0  0  0
   63.8469   32.7413   46.0504 H   0  0  0  0  0  0  0  0  0  0  0  0
   61.6543   33.8685   45.6740 H   0  0  0  0  0  0  0  0  0  0  0  0
   58.4441   33.6501   49.6622 H   0  0  0  0  0  0  0  0  0  0  0  0
   59.5232   31.8994   51.0700 H   0  0  0  0  0  0  0  0  0  0  0  0
   60.0287   29.6531   50.1050 H   0  0  0  0  0  0  0  0  0  0  0  0
   59.5107   29.1777   47.7101 H   0  0  0  0  0  0  0  0  0  0  0  0
   60.2188   29.2155   45.1873 H   0  0  0  0  0  0  0  0  0  0  0  0
   59.2098   28.7967   46.6323 H   0  0  0  0  0  0  0  0  0  0  0  0
  1  2  2  0
  2  3  1  0
  3  4  1  0
  4  5  1  0
  5  6  2  0
  6  7  1  0
  7  8  2  0
  8  9  1  0
  9 10  2  0
  2 11  1  0
 11 12  1  0
 12 13  2  0
 13 14  1  0
 14 15  2  0
 15 16  1  0
 16 17  2  0
 17 18  1  0
 18 19  1  0
 19 20  1  0
 20 21  2  0
 20 22  1  0
 22 23  2  0
 23 24  1  0
 23 25  1  0
 25 26  1  0
 26 27  2  0
 26 28  1  0
 28 29  1  0
 29 30  2  0
 10  5  1  0
 17 12  1  0
 29 22  1  0
  3 31  1  0
  3 32  1  0
  6 33  1  0
  7 34  1  0
  8 35  1  0
  9 36  1  0
 10 37  1  0
 13 38  1  0
 14 39  1  0
 15 40  1  0
 16 41  1  0
 19 42  1  0
 19 43  1  0
M  CHG  4  11  -1  24  -1  25  -1  28  -1
M  END
>  <UniqueID>  (63) 
55

>  <SMILES>  (63) 
O=C(COc1ccccc1)[N-]c1ccccc1SCC(=O)c1c([O-])[n-]c(=O)[n-]c1=O

>  <Energy>  (63) 
53.66970201426328

>  <Genealogy>  (63) 
O=C(COc1ccccc1)[N-]c1ccccc1SCC(=O)c1c([O-])[n-]c(=O)[n-]c1=O (protonated)
O=C(COc1ccccc1)[N-]c1ccccc1SCC(=O)c1c([O-])[n-]c(=O)[n-]c1=O (3D coordinates assigned)
O=C(COc1ccccc1)[N-]c1ccccc1SCC(=O)c1c([O-])[n-]c(=O)[n-]c1=O (optimized conformer: 53.66970201426328 kcal/mol)

>  <smiles>  (63) 
O=C(COc1ccccc1)Nc1ccccc1SCC(=O)c1c(O)[nH]c(=O)[nH]c1=O

>  <score_type>  (63) 
oracle

>  <origin>  (63) 
adg

>  <m_score__min__energy>  (63) 
-17.420000000000002

>  <m_primary>  (63) 
energy

$$$$
63:0
     RDKit          3D

 31 32  0  0  0  0  0  0  0  0999 V2000
   57.4050   32.3750   40.7280 C   0  0  0  0  0  0  0  0  0  0  0  0
   57.3730   31.5590   41.8960 O   0  0  0  0  0  0  0  0  0  0  0  0
   57.6730   32.0060   43.1940 C   0  0  0  0  0  0  0  0  0  0  0  0
   58.4810   33.1380   43.4100 C   0  0  0  0  0  0  0  0  0  0  0  0
   58.7900   33.5560   44.7050 C   0  0  0  0  0  0  0  0  0  0  0  0
   58.2990   32.8570   45.8170 C   0  0  0  0  0  0  0  0  0  0  0  0
   58.6280   33.3010   47.1930 C   0  0  0  0  0  0  0  0  0  0  0  0
   58.0770   32.6280   48.3230 N   0  0  0  0  0  0  0  0  0  0  0  0
   59.3990   34.2810   47.3780 O   0  0  0  0  0  0  0  0  0  0  0  0
   57.4860   31.7310   45.6060 C   0  0  0  0  0  0  0  0  0  0  0  0
   57.1670   31.2950   44.3060 C   0  0  0  0  0  0  0  0  0  0  0  0
   56.3040   30.0940   44.1270 C   0  0  0  0  0  0  0  0  0  0  0  0
   55.6830   29.9170   43.0460 O   0  0  0  0  0  0  0  0  0  0  0  0
   56.0700   29.1780   45.2070 N   0  0  0  0  0  0  0  0  0  0  0  0
   56.7550   28.1150   45.5280 C   0  0  0  0  0  0  0  0  0  0  0  0
   58.1130   28.2160   45.5360 N   0  0  0  0  0  0  0  0  0  0  0  0
   58.9250   27.1690   45.8390 C   0  0  0  0  0  0  0  0  0  0  0  0
   58.3740   25.9310   46.1630 C   0  0  0  0  0  0  0  0  0  0  0  0
   56.9880   25.7890   46.1890 C   0  0  0  0  0  0  0  0  0  0  0  0
   56.1630   26.8760   45.8910 C   0  0  0  0  0  0  0  0  0  0  0  0
   54.7870   26.7120   45.9990 O   0  0  0  0  0  0  0  0  0  0  0  0
   57.4465   33.4342   41.0218 H   0  0  0  0  0  0  0  0  0  0  0  0
   58.2940   32.1251   40.1304 H   0  0  0  0  0  0  0  0  0  0  0  0
   56.4991   32.1955   40.1304 H   0  0  0  0  0  0  0  0  0  0  0  0
   58.8730   33.6991   42.5489 H   0  0  0  0  0  0  0  0  0  0  0  0
   59.4246   34.4419   44.8549 H   0  0  0  0  0  0  0  0  0  0  0  0
   57.0720   32.7420   48.5780 H   0  0  0  0  0  0  0  0  0  0  0  0
   57.0914   31.1799   46.4724 H   0  0  0  0  0  0  0  0  0  0  0  0
   60.0172   27.2991   45.8284 H   0  0  0  0  0  0  0  0  0  0  0  0
   59.0254   25.0757   46.3955 H   0  0  0  0  0  0  0  0  0  0  0  0
   56.5418   24.8168   46.4453 H   0  0  0  0  0  0  0  0  0  0  0  0
  1  2  1  0
  2  3  1  0
  3  4  2  0
  4  5  1  0
  5  6  2  0
  6  7  1  0
  7  8  1  0
  7  9  2  0
  6 10  1  0
 10 11  2  0
 11 12  1  0
 12 13  2  0
 12 14  1  0
 14 15  2  3
 15 16  1  0
 16 17  1  0
 17 18  2  0
 18 19  1  0
 19 20  2  0
 20 21  1  0
 11  3  1  0
 20 15  1  0
  1 22  1  0
  1 23  1  0
  1 24  1  0
  4 25  1  0
  5 26  1  0
  8 27  1  0
 10 28  1  0
 17 29  1  0
 18 30  1  0
 19 31  1  0
M  CHG  3   8  -1  16  -1  21  -1
M  END
>  <UniqueID>  (64) 
56

>  <SMILES>  (64) 
COc1ccc(C([NH-])=O)cc1C(=O)N=c1[n-]cccc1[O-]

>  <Energy>  (64) 
47.7211470516847

>  <Genealogy>  (64) 
COc1ccc(C([NH-])=O)cc1C(=O)N=c1[n-]cccc1[O-] (protonated)
COc1ccc(C([NH-])=O)cc1C(=O)N=c1[n-]cccc1[O-] (3D coordinates assigned)
COc1ccc(C([NH-])=O)cc1C(=O)N=c1[n-]cccc1[O-] (optimized conformer: 47.7211470516847 kcal/mol)

>  <smiles>  (64) 
COc1ccc(C(N)=O)cc1C(=O)N=c1[nH]cccc1O

>  <score_type>  (64) 
oracle

>  <origin>  (64) 
adg

>  <m_score__min__energy>  (64) 
-13.94

>  <m_primary>  (64) 
energy

$$$$
64:0
     RDKit          3D

 28 29  0  0  0  0  0  0  0  0999 V2000
   55.1280   29.3470   44.8010 N   0  0  0  0  0  0  0  0  0  0  0  0
   56.6870   29.8630   44.2650 S   0  0  0  0  0  0  0  0  0  0  0  0
   56.5190   30.9160   43.2060 O   0  0  0  0  0  0  0  0  0  0  0  0
   57.4230   28.6870   43.6890 O   0  0  0  0  0  0  0  0  0  0  0  0
   57.5610   30.5230   45.6150 N   0  0  0  0  0  0  0  0  0  0  0  0
   59.0010   30.2800   45.4870 C   0  0  0  0  0  0  0  0  0  0  0  0
   59.6550   30.1100   46.8620 C   0  0  0  0  0  0  0  0  0  0  0  0
   59.6620   28.6730   47.2930 C   0  0  0  0  0  0  0  0  0  0  0  0
   60.7140   27.9980   47.9060 C   0  0  0  0  0  0  0  0  0  0  0  0
   60.3970   26.6950   48.0860 N   0  0  0  0  0  0  0  0  0  0  0  0
   59.1590   26.5410   47.5820 C   0  0  0  0  0  0  0  0  0  0  0  0
   58.4120   25.3650   47.5220 C   0  0  0  0  0  0  0  0  0  0  0  0
   57.1380   25.4250   46.9290 C   0  0  0  0  0  0  0  0  0  0  0  0
   56.6430   26.6480   46.4100 C   0  0  0  0  0  0  0  0  0  0  0  0
   55.3830   26.7040   45.8200 O   0  0  0  0  0  0  0  0  0  0  0  0
   57.4240   27.8160   46.4840 C   0  0  0  0  0  0  0  0  0  0  0  0
   58.6800   27.7240   47.0830 C   0  0  0  0  0  0  0  0  0  0  0  0
   55.2810   28.7180   45.6210 H   0  0  0  0  0  0  0  0  0  0  0  0
   59.1601   29.3649   44.8977 H   0  0  0  0  0  0  0  0  0  0  0  0
   59.4588   31.1460   44.9866 H   0  0  0  0  0  0  0  0  0  0  0  0
   60.6921   30.4734   46.8120 H   0  0  0  0  0  0  0  0  0  0  0  0
   59.0729   30.6876   47.5951 H   0  0  0  0  0  0  0  0  0  0  0  0
   61.6679   28.4588   48.2021 H   0  0  0  0  0  0  0  0  0  0  0  0
   60.9990   25.9590   48.5170 H   0  0  0  0  0  0  0  0  0  0  0  0
   58.8064   24.4207   47.9255 H   0  0  0  0  0  0  0  0  0  0  0  0
   56.5211   24.5163   46.8675 H   0  0  0  0  0  0  0  0  0  0  0  0
   55.1190   27.4670   45.2070 H   0  0  0  0  0  0  0  0  0  0  0  0
   57.0556   28.7714   46.0821 H   0  0  0  0  0  0  0  0  0  0  0  0
  1  2  1  0
  2  3  2  0
  2  4  2  0
  2  5  1  0
  5  6  1  0
  6  7  1  0
  7  8  1  0
  8  9  2  0
  9 10  1  0
 10 11  1  0
 11 12  2  0
 12 13  1  0
 13 14  2  0
 14 15  1  0
 14 16  1  0
 16 17  2  0
 17  8  1  0
 17 11  1  0
  1 18  1  0
  6 19  1  0
  6 20  1  0
  7 21  1  0
  7 22  1  0
  9 23  1  0
 10 24  1  0
 12 25  1  0
 13 26  1  0
 15 27  1  0
 16 28  1  0
M  CHG  2   1  -1   5  -1
M  END
>  <UniqueID>  (65) 
57

>  <SMILES>  (65) 
[NH-]S(=O)(=O)[N-]CCc1c[nH]c2ccc(O)cc12

>  <Energy>  (65) 
55.052625944424754

>  <Genealogy>  (65) 
[NH-]S(=O)(=O)[N-]CCc1c[nH]c2ccc(O)cc12 (protonated)
[NH-]S(=O)(=O)[N-]CCc1c[nH]c2ccc(O)cc12 (3D coordinates assigned)
[NH-]S(=O)(=O)[N-]CCc1c[nH]c2ccc(O)cc12 (optimized conformer: 55.052625944424754 kcal/mol)

>  <smiles>  (65) 
NS(=O)(=O)NCCc1c[nH]c2ccc(O)cc12

>  <score_type>  (65) 
oracle

>  <origin>  (65) 
adg

>  <m_score__min__energy>  (65) 
-11.07

>  <m_primary>  (65) 
energy

$$$$
65:0
     RDKit          3D

 65 69  0  0  0  0  0  0  0  0999 V2000
   55.1200   29.3800   44.0350 O   0  0  0  0  0  0  0  0  0  0  0  0
   56.2670   29.8190   44.3160 C   0  0  0  0  0  0  0  0  0  0  0  0
   56.5160   31.2280   44.2830 N   0  0  0  0  0  0  0  0  0  0  0  0
   57.3050   31.8500   45.1030 C   0  0  0  0  0  0  0  0  0  0  0  0
   57.7830   33.0860   44.8420 N   0  0  0  0  0  0  0  0  0  0  0  0
   58.5570   33.5430   45.8610 C   0  0  0  0  0  0  0  0  0  0  0  0
   58.7020   32.6600   46.9230 C   0  0  0  0  0  0  0  0  0  0  0  0
   57.8150   31.2680   46.6080 S   0  0  0  0  0  0  0  0  0  0  0  0
   59.3630   33.0100   48.2180 C   0  0  0  0  0  0  0  0  0  0  0  0
   60.3880   34.1440   47.9970 C   0  0  2  0  0  0  0  0  0  0  0  0
   61.0380   34.6040   49.2380 N   0  0  0  0  0  0  0  0  0  0  0  0
   62.6990   34.1110   49.4770 S   0  0  0  0  0  0  0  0  0  0  0  0
   63.4100   34.2000   48.1570 O   0  0  0  0  0  0  0  0  0  0  0  0
   63.4070   35.0040   50.4540 O   0  0  0  0  0  0  0  0  0  0  0  0
   62.7670   32.4040   50.0270 C   0  0  0  0  0  0  0  0  0  0  0  0
   62.0340   31.4970   49.0740 C   0  0  0  0  0  0  0  0  0  0  0  0
   61.0880   30.5810   49.5630 C   0  0  0  0  0  0  0  0  0  0  0  0
   60.3900   29.7490   48.6810 C   0  0  0  0  0  0  0  0  0  0  0  0
   60.6310   29.8270   47.3060 C   0  0  0  0  0  0  0  0  0  0  0  0
   61.5640   30.7410   46.8120 C   0  0  0  0  0  0  0  0  0  0  0  0
   62.2660   31.5720   47.6890 C   0  0  0  0  0  0  0  0  0  0  0  0
   59.7930   35.3100   47.1710 C   0  0  0  0  0  0  0  0  0  0  0  0
   59.3240   34.8340   45.7820 C   0  0  0  0  0  0  0  0  0  0  0  0
   57.3310   28.8930   44.7260 C   0  0  0  0  0  0  0  0  0  0  0  0
   58.6150   28.9890   44.1690 C   0  0  0  0  0  0  0  0  0  0  0  0
   59.6140   28.0910   44.5530 C   0  0  0  0  0  0  0  0  0  0  0  0
   59.3460   27.1070   45.5090 C   0  0  0  0  0  0  0  0  0  0  0  0
   58.0680   27.0010   46.0830 C   0  0  0  0  0  0  0  0  0  0  0  0
   57.8340   26.0110   47.1990 C   0  0  0  0  0  0  0  0  0  0  0  0
   57.6540   24.6520   46.6860 N   0  0  0  0  0  0  0  0  0  0  0  0
   56.5160   24.2870   45.8940 C   0  0  0  0  0  0  0  0  0  0  0  0
   55.4560   24.9650   45.9730 O   0  0  0  0  0  0  0  0  0  0  0  0
   56.5720   23.1170   44.9900 C   0  0  0  0  0  0  0  0  0  0  0  0
   56.6180   21.8130   45.5160 C   0  0  0  0  0  0  0  0  0  0  0  0
   56.6670   20.7080   44.6610 C   0  0  0  0  0  0  0  0  0  0  0  0
   56.6610   20.8910   43.2780 C   0  0  0  0  0  0  0  0  0  0  0  0
   56.6010   22.1810   42.7440 C   0  0  0  0  0  0  0  0  0  0  0  0
   56.5530   23.2890   43.5930 C   0  0  0  0  0  0  0  0  0  0  0  0
   57.0670   27.9130   45.6950 C   0  0  0  0  0  0  0  0  0  0  0  0
   58.6008   33.3428   48.9380 H   0  0  0  0  0  0  0  0  0  0  0  0
   59.8834   32.1235   48.6095 H   0  0  0  0  0  0  0  0  0  0  0  0
   61.1969   33.7030   47.3961 H   0  0  0  0  0  0  0  0  0  0  0  0
   63.8188   32.0876   50.0867 H   0  0  0  0  0  0  0  0  0  0  0  0
   62.2857   32.3357   51.0138 H   0  0  0  0  0  0  0  0  0  0  0  0
   60.8951   30.5176   50.6441 H   0  0  0  0  0  0  0  0  0  0  0  0
   59.6510   29.0329   49.0696 H   0  0  0  0  0  0  0  0  0  0  0  0
   60.0859   29.1686   46.6136 H   0  0  0  0  0  0  0  0  0  0  0  0
   61.7469   30.8070   45.7293 H   0  0  0  0  0  0  0  0  0  0  0  0
   63.0027   32.2874   47.2947 H   0  0  0  0  0  0  0  0  0  0  0  0
   58.9339   35.7311   47.7138 H   0  0  0  0  0  0  0  0  0  0  0  0
   60.5764   36.0693   47.0302 H   0  0  0  0  0  0  0  0  0  0  0  0
   58.6761   35.6062   45.3415 H   0  0  0  0  0  0  0  0  0  0  0  0
   60.2158   34.6632   45.1612 H   0  0  0  0  0  0  0  0  0  0  0  0
   58.8355   29.7724   43.4289 H   0  0  0  0  0  0  0  0  0  0  0  0
   60.6148   28.1585   44.1015 H   0  0  0  0  0  0  0  0  0  0  0  0
   60.1412   26.4108   45.8140 H   0  0  0  0  0  0  0  0  0  0  0  0
   58.7009   26.0249   47.8759 H   0  0  0  0  0  0  0  0  0  0  0  0
   56.9157   26.3023   47.7299 H   0  0  0  0  0  0  0  0  0  0  0  0
   58.3170   23.9040   46.9890 H   0  0  0  0  0  0  0  0  0  0  0  0
   56.6154   21.6621   46.6056 H   0  0  0  0  0  0  0  0  0  0  0  0
   56.7104   19.6918   45.0798 H   0  0  0  0  0  0  0  0  0  0  0  0
   56.7035   20.0198   42.6078 H   0  0  0  0  0  0  0  0  0  0  0  0
   56.5916   22.3240   41.6534 H   0  0  0  0  0  0  0  0  0  0  0  0
   56.5000   24.3020   43.1675 H   0  0  0  0  0  0  0  0  0  0  0  0
   56.0697   27.8565   46.1556 H   0  0  0  0  0  0  0  0  0  0  0  0
  1  2  2  0
  2  3  1  0
  3  4  2  3
  4  5  1  0
  5  6  1  0
  6  7  2  0
  7  8  1  0
  7  9  1  0
  9 10  1  0
 10 11  1  0
 11 12  1  0
 12 13  2  0
 12 14  2  0
 12 15  1  0
 15 16  1  0
 16 17  2  0
 17 18  1  0
 18 19  2  0
 19 20  1  0
 20 21  2  0
 10 22  1  0
 22 23  1  0
  2 24  1  0
 24 25  2  0
 25 26  1  0
 26 27  2  0
 27 28  1  0
 28 29  1  0
 29 30  1  0
 30 31  1  0
 31 32  2  0
 31 33  1  0
 33 34  2  0
 34 35  1  0
 35 36  2  0
 36 37  1  0
 37 38  2  0
 28 39  2  0
  8  4  1  0
 21 16  1  0
 39 24  1  0
 23  6  1  0
 38 33  1  0
  9 40  1  0
  9 41  1  0
 10 42  1  6
 15 43  1  0
 15 44  1  0
 17 45  1  0
 18 46  1  0
 19 47  1  0
 20 48  1  0
 21 49  1  0
 22 50  1  0
 22 51  1  0
 23 52  1  0
 23 53  1  0
 25 54  1  0
 26 55  1  0
 27 56  1  0
 29 57  1  0
 29 58  1  0
 30 59  1  0
 34 60  1  0
 35 61  1  0
 36 62  1  0
 37 63  1  0
 38 64  1  0
 39 65  1  0
M  CHG  2   5  -1  11  -1
M  END
>  <UniqueID>  (66) 
58

>  <SMILES>  (66) 
O=C(N=c1[n-]c2c(s1)C[C@H]([N-]S(=O)(=O)Cc1ccccc1)CC2)c1cccc(CNC(=O)c2ccccc2)c1

>  <Energy>  (66) 
108.70578960049541

>  <Genealogy>  (66) 
O=C(N=c1[n-]c2c(s1)CC([N-]S(=O)(=O)Cc1ccccc1)CC2)c1cccc(CNC(=O)c2ccccc2)c1 (protonated)
O=C(N=c1[n-]c2c(s1)C[C@H]([N-]S(=O)(=O)Cc1ccccc1)CC2)c1cccc(CNC(=O)c2ccccc2)c1 (chirality)
O=C(N=c1[n-]c2c(s1)C[C@H]([N-]S(=O)(=O)Cc1ccccc1)CC2)c1cccc(CNC(=O)c2ccccc2)c1 (3D coordinates assigned)
O=C(N=c1[n-]c2c(s1)C[C@H]([N-]S(=O)(=O)Cc1ccccc1)CC2)c1cccc(CNC(=O)c2ccccc2)c1 (nonaromatic ring conformer: 108.70578960049541 kcal/mol)

>  <smiles>  (66) 
O=C(N=c1[nH]c2c(s1)CC(NS(=O)(=O)Cc1ccccc1)CC2)c1cccc(CNC(=O)c2ccccc2)c1

>  <score_type>  (66) 
oracle

>  <origin>  (66) 
adg

>  <m_score__min__energy>  (66) 
-14.130000000000001

>  <m_primary>  (66) 
energy

$$$$
66:0
     RDKit          3D

 31 32  0  0  0  0  0  0  0  0999 V2000
   63.3520   31.8840   47.5400 N   0  0  0  0  0  0  0  0  0  0  0  0
   62.1890   33.1490   47.3570 S   0  0  0  0  0  0  0  0  0  0  0  0
   61.9700   33.8240   48.6820 O   0  0  0  0  0  0  0  0  0  0  0  0
   62.7040   34.1670   46.3790 O   0  0  0  0  0  0  0  0  0  0  0  0
   60.6690   32.4760   46.7730 C   0  0  0  0  0  0  0  0  0  0  0  0
   59.9140   33.1670   45.8170 C   0  0  0  0  0  0  0  0  0  0  0  0
   58.7140   32.6270   45.3450 C   0  0  0  0  0  0  0  0  0  0  0  0
   58.2650   31.3830   45.8060 C   0  0  0  0  0  0  0  0  0  0  0  0
   57.0180   30.8760   45.3110 N   0  0  0  0  0  0  0  0  0  0  0  0
   56.6340   29.4990   45.2020 C   0  0  0  0  0  0  0  0  0  0  0  0
   55.4670   29.1880   44.8410 O   0  0  0  0  0  0  0  0  0  0  0  0
   57.6010   28.4440   45.5720 C   0  0  0  0  0  0  0  0  0  0  0  0
   58.7740   28.3000   44.9720 C   0  0  0  0  0  0  0  0  0  0  0  0
   59.7760   26.9540   45.5700 S   0  0  0  0  0  0  0  0  0  0  0  0
   58.6990   26.8500   47.0360 C   0  0  0  0  0  0  0  0  0  0  0  0
   57.3410   27.4670   46.6750 C   0  0  2  0  0  0  0  0  0  0  0  0
   56.3570   26.4200   46.2290 C   0  0  0  0  0  0  0  0  0  0  0  0
   55.1480   26.7150   46.0330 O   0  0  0  0  0  0  0  0  0  0  0  0
   56.7810   25.1100   46.0360 O   0  0  0  0  0  0  0  0  0  0  0  0
   59.0160   30.6990   46.7780 C   0  0  0  0  0  0  0  0  0  0  0  0
   60.2160   31.2410   47.2510 C   0  0  0  0  0  0  0  0  0  0  0  0
   63.0190   31.0770   46.9660 H   0  0  0  0  0  0  0  0  0  0  0  0
   64.2390   32.2200   47.1010 H   0  0  0  0  0  0  0  0  0  0  0  0
   60.2661   34.1372   45.4365 H   0  0  0  0  0  0  0  0  0  0  0  0
   58.1182   33.1831   44.6063 H   0  0  0  0  0  0  0  0  0  0  0  0
   59.1057   28.9653   44.1612 H   0  0  0  0  0  0  0  0  0  0  0  0
   58.5649   25.7975   47.3262 H   0  0  0  0  0  0  0  0  0  0  0  0
   59.1511   27.3914   47.8801 H   0  0  0  0  0  0  0  0  0  0  0  0
   56.8958   27.9567   47.5536 H   0  0  0  0  0  0  0  0  0  0  0  0
   58.6589   29.7344   47.1679 H   0  0  0  0  0  0  0  0  0  0  0  0
   60.8058   30.6943   48.0015 H   0  0  0  0  0  0  0  0  0  0  0  0
  1  2  1  0
  2  3  2  0
  2  4  2  0
  2  5  1  0
  5  6  2  0
  6  7  1  0
  7  8  2  0
  8  9  1  0
  9 10  1  0
 10 11  2  0
 10 12  1  0
 12 13  2  0
 13 14  1  0
 14 15  1  0
 15 16  1  0
 16 17  1  0
 17 18  2  0
 17 19  1  0
  8 20  1  0
 20 21  2  0
 21  5  1  0
 16 12  1  0
  1 22  1  0
  1 23  1  0
  6 24  1  0
  7 25  1  0
 13 26  1  0
 15 27  1  0
 15 28  1  0
 16 29  1  1
 20 30  1  0
 21 31  1  0
M  CHG  2   9  -1  19  -1
M  END
>  <UniqueID>  (67) 
59

>  <SMILES>  (67) 
NS(=O)(=O)c1ccc([N-]C(=O)C2=CSC[C@@H]2C(=O)[O-])cc1

>  <Energy>  (67) 
37.50039171943988

>  <Genealogy>  (67) 
NS(=O)(=O)c1ccc([N-]C(=O)C2=CSCC2C(=O)[O-])cc1 (protonated)
NS(=O)(=O)c1ccc([N-]C(=O)C2=CSC[C@@H]2C(=O)[O-])cc1 (chirality)
NS(=O)(=O)c1ccc([N-]C(=O)C2=CSC[C@@H]2C(=O)[O-])cc1 (3D coordinates assigned)
NS(=O)(=O)c1ccc([N-]C(=O)C2=CSC[C@@H]2C(=O)[O-])cc1 (nonaromatic ring conformer: 37.50039171943988 kcal/mol)

>  <smiles>  (67) 
NS(=O)(=O)c1ccc(NC(=O)C2=CSCC2C(=O)O)cc1

>  <score_type>  (67) 
oracle

>  <origin>  (67) 
adg

>  <m_score__min__energy>  (67) 
-11.66

>  <m_primary>  (67) 
energy

$$$$
67:0
     RDKit          3D

 44 46  0  0  0  0  0  0  0  0999 V2000
   59.9650   35.3640   46.0350 C   0  0  0  0  0  0  0  0  0  0  0  0
   59.5590   34.3010   47.0220 C   0  0  0  0  0  0  0  0  0  0  0  0
   60.2310   34.2210   48.2520 C   0  0  0  0  0  0  0  0  0  0  0  0
   59.8900   33.2440   49.1880 C   0  0  0  0  0  0  0  0  0  0  0  0
   58.8700   32.3250   48.9140 C   0  0  0  0  0  0  0  0  0  0  0  0
   58.5160   31.2830   49.9040 C   0  0  0  0  0  0  0  0  0  0  0  0
   57.9980   31.4510   51.1770 C   0  0  0  0  0  0  0  0  0  0  0  0
   57.6810   32.7420   51.8620 C   0  0  0  0  0  0  0  0  0  0  0  0
   57.8130   30.2450   51.7480 N   0  0  0  0  0  0  0  0  0  0  0  0
   58.1870   29.3490   50.8800 O   0  0  0  0  0  0  0  0  0  0  0  0
   58.6150   29.9070   49.7710 C   0  0  0  0  0  0  0  0  0  0  0  0
   59.1130   29.1400   48.5900 C   0  0  0  0  0  0  0  0  0  0  0  0
   58.1900   32.4000   47.6910 C   0  0  0  0  0  0  0  0  0  0  0  0
   58.5240   33.3760   46.7370 C   0  0  0  0  0  0  0  0  0  0  0  0
   57.6410   33.4140   45.2030 S   0  0  0  0  0  0  0  0  0  0  0  0
   56.6640   34.5570   45.1940 O   0  0  0  0  0  0  0  0  0  0  0  0
   58.6170   33.6060   44.0760 O   0  0  0  0  0  0  0  0  0  0  0  0
   56.7620   31.9240   45.0200 N   0  0  0  0  0  0  0  0  0  0  0  0
   57.3930   31.0610   44.0210 C   0  0  0  0  0  0  0  0  0  0  0  0
   57.7410   29.7250   44.6220 C   0  0  0  0  0  0  0  0  0  0  0  0
   59.0830   29.3370   44.7720 C   0  0  0  0  0  0  0  0  0  0  0  0
   59.3970   28.0960   45.3380 C   0  0  0  0  0  0  0  0  0  0  0  0
   58.3770   27.2370   45.7530 C   0  0  0  0  0  0  0  0  0  0  0  0
   57.0400   27.6130   45.6010 C   0  0  0  0  0  0  0  0  0  0  0  0
   56.0520   26.7760   46.0020 F   0  0  0  0  0  0  0  0  0  0  0  0
   56.7210   28.8500   45.0330 C   0  0  0  0  0  0  0  0  0  0  0  0
   60.3063   36.2576   46.5782 H   0  0  0  0  0  0  0  0  0  0  0  0
   60.7816   34.9849   45.4030 H   0  0  0  0  0  0  0  0  0  0  0  0
   59.1036   35.6258   45.4030 H   0  0  0  0  0  0  0  0  0  0  0  0
   61.0350   34.9362   48.4803 H   0  0  0  0  0  0  0  0  0  0  0  0
   60.4260   33.1955   50.1473 H   0  0  0  0  0  0  0  0  0  0  0  0
   57.7166   32.5972   52.9518 H   0  0  0  0  0  0  0  0  0  0  0  0
   58.4189   33.5034   51.5690 H   0  0  0  0  0  0  0  0  0  0  0  0
   56.6744   33.0750   51.5690 H   0  0  0  0  0  0  0  0  0  0  0  0
   59.6818   28.2640   48.9350 H   0  0  0  0  0  0  0  0  0  0  0  0
   58.2587   28.8065   47.9826 H   0  0  0  0  0  0  0  0  0  0  0  0
   59.7653   29.7847   47.9826 H   0  0  0  0  0  0  0  0  0  0  0  0
   57.3830   31.6844   47.4747 H   0  0  0  0  0  0  0  0  0  0  0  0
   56.6978   30.9104   43.1819 H   0  0  0  0  0  0  0  0  0  0  0  0
   58.3162   31.5430   43.6669 H   0  0  0  0  0  0  0  0  0  0  0  0
   59.8888   30.0101   44.4439 H   0  0  0  0  0  0  0  0  0  0  0  0
   60.4489   27.7968   45.4562 H   0  0  0  0  0  0  0  0  0  0  0  0
   58.6265   26.2634   46.2000 H   0  0  0  0  0  0  0  0  0  0  0  0
   55.6673   29.1396   44.9073 H   0  0  0  0  0  0  0  0  0  0  0  0
  1  2  1  0
  2  3  2  0
  3  4  1  0
  4  5  2  0
  5  6  1  0
  6  7  1  0
  7  8  1  0
  7  9  2  0
  9 10  1  0
 10 11  1  0
 11 12  1  0
  5 13  1  0
 13 14  2  0
 14 15  1  0
 15 16  2  0
 15 17  2  0
 15 18  1  0
 18 19  1  0
 19 20  1  0
 20 21  2  0
 21 22  1  0
 22 23  2  0
 23 24  1  0
 24 25  1  0
 24 26  2  0
 14  2  1  0
 26 20  1  0
 11  6  2  0
  1 27  1  0
  1 28  1  0
  1 29  1  0
  3 30  1  0
  4 31  1  0
  8 32  1  0
  8 33  1  0
  8 34  1  0
 12 35  1  0
 12 36  1  0
 12 37  1  0
 13 38  1  0
 19 39  1  0
 19 40  1  0
 21 41  1  0
 22 42  1  0
 23 43  1  0
 26 44  1  0
M  CHG  1  18  -1
M  END
>  <UniqueID>  (68) 
60

>  <SMILES>  (68) 
Cc1ccc(-c2c(C)noc2C)cc1S(=O)(=O)[N-]Cc1cccc(F)c1

>  <Energy>  (68) 
79.48804114512242

>  <Genealogy>  (68) 
Cc1ccc(-c2c(C)noc2C)cc1S(=O)(=O)[N-]Cc1cccc(F)c1 (protonated)
Cc1ccc(-c2c(C)noc2C)cc1S(=O)(=O)[N-]Cc1cccc(F)c1 (3D coordinates assigned)
Cc1ccc(-c2c(C)noc2C)cc1S(=O)(=O)[N-]Cc1cccc(F)c1 (optimized conformer: 79.48804114512242 kcal/mol)

>  <smiles>  (68) 
Cc1ccc(-c2c(C)noc2C)cc1S(=O)(=O)NCc1cccc(F)c1

>  <score_type>  (68) 
oracle

>  <origin>  (68) 
adg

>  <m_score__min__energy>  (68) 
-10

>  <m_primary>  (68) 
energy

$$$$
68:0
     RDKit          3D

 52 55  0  0  0  0  0  0  0  0999 V2000
   55.1510   29.3360   44.8730 N   0  0  0  0  0  0  0  0  0  0  0  0
   56.8530   29.1750   45.1360 S   0  0  0  0  0  0  0  0  0  0  0  0
   57.5750   29.2240   43.8130 O   0  0  0  0  0  0  0  0  0  0  0  0
   57.3110   30.3230   45.9830 O   0  0  0  0  0  0  0  0  0  0  0  0
   57.2100   27.6490   45.9610 C   0  0  0  0  0  0  0  0  0  0  0  0
   56.3240   26.5630   45.8240 C   0  0  0  0  0  0  0  0  0  0  0  0
   56.5920   25.3350   46.4320 C   0  0  0  0  0  0  0  0  0  0  0  0
   57.7520   25.1750   47.1820 C   0  0  0  0  0  0  0  0  0  0  0  0
   58.6330   26.2500   47.3410 C   0  0  0  0  0  0  0  0  0  0  0  0
   58.3680   27.4930   46.7510 C   0  0  0  0  0  0  0  0  0  0  0  0
   59.3070   28.5970   46.9970 C   0  0  0  0  0  0  0  0  0  0  0  0
   59.2780   29.2870   48.2120 C   0  0  0  0  0  0  0  0  0  0  0  0
   60.1550   30.3480   48.4420 C   0  0  0  0  0  0  0  0  0  0  0  0
   61.0650   30.7490   47.4450 C   0  0  0  0  0  0  0  0  0  0  0  0
   62.0060   31.8580   47.6960 C   0  0  0  0  0  0  0  0  0  0  0  0
   63.1640   31.6170   48.1290 O   0  0  0  0  0  0  0  0  0  0  0  0
   61.6190   33.2030   47.4160 N   0  0  0  0  0  0  0  0  0  0  0  0
   60.3360   33.5550   46.8830 C   0  0  0  0  0  0  0  0  0  0  0  0
   60.2320   33.8670   45.5220 C   0  0  0  0  0  0  0  0  0  0  0  0
   59.0050   34.2550   44.9780 C   0  0  0  0  0  0  0  0  0  0  0  0
   57.8730   34.3300   45.7950 C   0  0  0  0  0  0  0  0  0  0  0  0
   57.9610   33.9980   47.1470 C   0  0  0  0  0  0  0  0  0  0  0  0
   59.1840   33.5980   47.7000 C   0  0  0  0  0  0  0  0  0  0  0  0
   59.2360   33.1590   49.0670 N   0  0  0  0  0  0  0  0  0  0  0  0
   58.1230   32.3330   49.5580 C   0  0  0  0  0  0  0  0  0  0  0  0
   58.3600   31.8540   50.9920 C   0  0  0  0  0  0  0  0  0  0  0  0
   58.8680   32.9110   51.7900 O   0  0  0  0  0  0  0  0  0  0  0  0
   60.1750   33.1970   51.3760 C   0  0  0  0  0  0  0  0  0  0  0  0
   60.1710   33.8230   49.9860 C   0  0  0  0  0  0  0  0  0  0  0  0
   61.0660   30.0700   46.2140 C   0  0  0  0  0  0  0  0  0  0  0  0
   60.1980   29.0000   45.9940 C   0  0  0  0  0  0  0  0  0  0  0  0
   54.7160   29.4040   45.8200 H   0  0  0  0  0  0  0  0  0  0  0  0
   55.4068   26.6840   45.2289 H   0  0  0  0  0  0  0  0  0  0  0  0
   55.8882   24.4973   46.3182 H   0  0  0  0  0  0  0  0  0  0  0  0
   57.9765   24.2049   47.6494 H   0  0  0  0  0  0  0  0  0  0  0  0
   59.5473   26.1175   47.9380 H   0  0  0  0  0  0  0  0  0  0  0  0
   58.5599   28.9922   48.9914 H   0  0  0  0  0  0  0  0  0  0  0  0
   60.1353   30.8741   49.4078 H   0  0  0  0  0  0  0  0  0  0  0  0
   61.1213   33.8063   44.8775 H   0  0  0  0  0  0  0  0  0  0  0  0
   58.9297   34.5011   43.9085 H   0  0  0  0  0  0  0  0  0  0  0  0
   56.9105   34.6516   45.3706 H   0  0  0  0  0  0  0  0  0  0  0  0
   57.0647   34.0507   47.7825 H   0  0  0  0  0  0  0  0  0  0  0  0
   57.1984   32.9283   49.5297 H   0  0  0  0  0  0  0  0  0  0  0  0
   58.0431   31.4473   48.9106 H   0  0  0  0  0  0  0  0  0  0  0  0
   57.4087   31.5030   51.4185 H   0  0  0  0  0  0  0  0  0  0  0  0
   59.0935   31.0344   50.9773 H   0  0  0  0  0  0  0  0  0  0  0  0
   60.6345   33.8988   52.0875 H   0  0  0  0  0  0  0  0  0  0  0  0
   60.7500   32.2599   51.3420 H   0  0  0  0  0  0  0  0  0  0  0  0
   59.8830   34.8807   50.0773 H   0  0  0  0  0  0  0  0  0  0  0  0
   61.1826   33.7111   49.5686 H   0  0  0  0  0  0  0  0  0  0  0  0
   61.7567   30.3848   45.4178 H   0  0  0  0  0  0  0  0  0  0  0  0
   60.2134   28.4711   45.0296 H   0  0  0  0  0  0  0  0  0  0  0  0
  1  2  1  0
  2  3  2  0
  2  4  2  0
  2  5  1  0
  5  6  2  0
  6  7  1  0
  7  8  2  0
  8  9  1  0
  9 10  2  0
 10 11  1  0
 11 12  2  0
 12 13  1  0
 13 14  2  0
 14 15  1  0
 15 16  2  0
 15 17  1  0
 17 18  1  0
 18 19  2  0
 19 20  1  0
 20 21  2  0
 21 22  1  0
 22 23  2  0
 23 24  1  0
 24 25  1  0
 25 26  1  0
 26 27  1  0
 27 28  1  0
 28 29  1  0
 14 30  1  0
 30 31  2  0
 10  5  1  0
 31 11  1  0
 23 18  1  0
 29 24  1  0
  1 32  1  0
  6 33  1  0
  7 34  1  0
  8 35  1  0
  9 36  1  0
 12 37  1  0
 13 38  1  0
 19 39  1  0
 20 40  1  0
 21 41  1  0
 22 42  1  0
 25 43  1  0
 25 44  1  0
 26 45  1  0
 26 46  1  0
 28 47  1  0
 28 48  1  0
 29 49  1  0
 29 50  1  0
 30 51  1  0
 31 52  1  0
M  CHG  2   1  -1  17  -1
M  END
>  <UniqueID>  (69) 
61

>  <SMILES>  (69) 
[NH-]S(=O)(=O)c1ccccc1-c1ccc(C(=O)[N-]c2ccccc2N2CCOCC2)cc1

>  <Energy>  (69) 
78.43612427971475

>  <Genealogy>  (69) 
[NH-]S(=O)(=O)c1ccccc1-c1ccc(C(=O)[N-]c2ccccc2N2CCOCC2)cc1 (protonated)
[NH-]S(=O)(=O)c1ccccc1-c1ccc(C(=O)[N-]c2ccccc2N2CCOCC2)cc1 (3D coordinates assigned)
[NH-]S(=O)(=O)c1ccccc1-c1ccc(C(=O)[N-]c2ccccc2N2CCOCC2)cc1 (nonaromatic ring conformer: 78.43612427971475 kcal/mol)

>  <smiles>  (69) 
NS(=O)(=O)c1ccccc1-c1ccc(C(=O)Nc2ccccc2N2CCOCC2)cc1

>  <score_type>  (69) 
oracle

>  <origin>  (69) 
adg

>  <m_score__min__energy>  (69) 
-13.380000000000001

>  <m_primary>  (69) 
energy

$$$$
69:0
     RDKit          3D

 52 54  0  0  0  0  0  0  0  0999 V2000
   60.3350   27.1250   48.3660 C   0  0  0  0  0  0  0  0  0  0  0  0
   59.0190   26.5490   47.8520 C   0  0  0  0  0  0  0  0  0  0  0  0
   58.6420   27.1540   46.5690 N   0  0  0  0  0  0  0  0  0  0  0  0
   59.5890   28.0340   45.8630 C   0  0  0  0  0  0  0  0  0  0  0  0
   59.0950   29.4600   45.8460 C   0  0  0  0  0  0  0  0  0  0  0  0
   58.9860   30.1870   47.0410 C   0  0  0  0  0  0  0  0  0  0  0  0
   58.5670   31.5190   47.0200 C   0  0  0  0  0  0  0  0  0  0  0  0
   58.2620   32.1500   45.8070 C   0  0  0  0  0  0  0  0  0  0  0  0
   57.8380   33.5190   45.8370 N   0  0  0  0  0  0  0  0  0  0  0  0
   58.7210   34.6440   45.8640 C   0  0  0  0  0  0  0  0  0  0  0  0
   59.0730   35.2100   44.7940 O   0  0  0  0  0  0  0  0  0  0  0  0
   59.3080   35.0900   47.1650 C   0  0  0  0  0  0  0  0  0  0  0  0
   60.5030   34.2440   47.5040 C   0  0  0  0  0  0  0  0  0  0  0  0
   60.7550   33.8760   48.8380 C   0  0  0  0  0  0  0  0  0  0  0  0
   61.8920   33.1280   49.1600 C   0  0  0  0  0  0  0  0  0  0  0  0
   62.7880   32.7480   48.1560 C   0  0  0  0  0  0  0  0  0  0  0  0
   62.5520   33.1230   46.8300 C   0  0  0  0  0  0  0  0  0  0  0  0
   61.4160   33.8700   46.5040 C   0  0  0  0  0  0  0  0  0  0  0  0
   58.3250   31.4100   44.6070 C   0  0  0  0  0  0  0  0  0  0  0  0
   57.7840   32.0770   43.0700 Cl  0  0  0  0  0  0  0  0  0  0  0  0
   58.7530   30.0770   44.6340 C   0  0  0  0  0  0  0  0  0  0  0  0
   57.3350   26.8780   46.0250 C   0  0  0  0  0  0  0  0  0  0  0  0
   56.6280   27.8320   45.6020 O   0  0  0  0  0  0  0  0  0  0  0  0
   56.7890   25.5020   45.9900 C   0  0  0  0  0  0  0  0  0  0  0  0
   57.6630   24.4010   46.0010 C   0  0  0  0  0  0  0  0  0  0  0  0
   57.1610   23.0910   45.9850 C   0  0  0  0  0  0  0  0  0  0  0  0
   58.0260   21.9990   45.9860 O   0  0  0  0  0  0  0  0  0  0  0  0
   55.7810   22.8780   45.9710 C   0  0  0  0  0  0  0  0  0  0  0  0
   54.9030   23.9640   45.9730 C   0  0  0  0  0  0  0  0  0  0  0  0
   55.3970   25.2720   45.9820 C   0  0  0  0  0  0  0  0  0  0  0  0
   54.5000   26.3350   45.9670 O   0  0  0  0  0  0  0  0  0  0  0  0
   60.3312   27.1233   49.4660 H   0  0  0  0  0  0  0  0  0  0  0  0
   61.1714   26.5107   48.0013 H   0  0  0  0  0  0  0  0  0  0  0  0
   60.4512   28.1563   48.0013 H   0  0  0  0  0  0  0  0  0  0  0  0
   59.1304   25.4629   47.7180 H   0  0  0  0  0  0  0  0  0  0  0  0
   58.2308   26.7694   48.5869 H   0  0  0  0  0  0  0  0  0  0  0  0
   60.5628   27.9970   46.3733 H   0  0  0  0  0  0  0  0  0  0  0  0
   59.6837   27.6843   44.8244 H   0  0  0  0  0  0  0  0  0  0  0  0
   59.2317   29.7055   47.9990 H   0  0  0  0  0  0  0  0  0  0  0  0
   58.4757   32.0772   47.9634 H   0  0  0  0  0  0  0  0  0  0  0  0
   59.6175   36.1424   47.0838 H   0  0  0  0  0  0  0  0  0  0  0  0
   58.5530   34.9845   47.9580 H   0  0  0  0  0  0  0  0  0  0  0  0
   60.0550   34.1777   49.6311 H   0  0  0  0  0  0  0  0  0  0  0  0
   62.0816   32.8383   50.2041 H   0  0  0  0  0  0  0  0  0  0  0  0
   63.6785   32.1541   48.4095 H   0  0  0  0  0  0  0  0  0  0  0  0
   63.2612   32.8299   46.0419 H   0  0  0  0  0  0  0  0  0  0  0  0
   61.2364   34.1661   45.4600 H   0  0  0  0  0  0  0  0  0  0  0  0
   58.8216   29.5081   43.6950 H   0  0  0  0  0  0  0  0  0  0  0  0
   58.7500   24.5680   46.0223 H   0  0  0  0  0  0  0  0  0  0  0  0
   57.9790   21.2860   45.2670 H   0  0  0  0  0  0  0  0  0  0  0  0
   55.3844   21.8520   45.9584 H   0  0  0  0  0  0  0  0  0  0  0  0
   53.8170   23.7894   45.9675 H   0  0  0  0  0  0  0  0  0  0  0  0
  1  2  1  0
  2  3  1  0
  3  4  1  0
  4  5  1  0
  5  6  2  0
  6  7  1  0
  7  8  2  0
  8  9  1  0
  9 10  1  0
 10 11  2  0
 10 12  1  0
 12 13  1  0
 13 14  2  0
 14 15  1  0
 15 16  2  0
 16 17  1  0
 17 18  2  0
  8 19  1  0
 19 20  1  0
 19 21  2  0
  3 22  1  0
 22 23  2  0
 22 24  1  0
 24 25  2  0
 25 26  1  0
 26 27  1  0
 26 28  2  0
 28 29  1  0
 29 30  2  0
 30 31  1  0
 21  5  1  0
 30 24  1  0
 18 13  1  0
  1 32  1  0
  1 33  1  0
  1 34  1  0
  2 35  1  0
  2 36  1  0
  4 37  1  0
  4 38  1  0
  6 39  1  0
  7 40  1  0
 12 41  1  0
 12 42  1  0
 14 43  1  0
 15 44  1  0
 16 45  1  0
 17 46  1  0
 18 47  1  0
 21 48  1  0
 25 49  1  0
 27 50  1  0
 28 51  1  0
 29 52  1  0
M  CHG  2   9  -1  31  -1
M  END
>  <UniqueID>  (70) 
62

>  <SMILES>  (70) 
CCN(Cc1ccc([N-]C(=O)Cc2ccccc2)c(Cl)c1)C(=O)c1cc(O)ccc1[O-]

>  <Energy>  (70) 
60.13174635867796

>  <Genealogy>  (70) 
CCN(Cc1ccc([N-]C(=O)Cc2ccccc2)c(Cl)c1)C(=O)c1cc(O)ccc1[O-] (protonated)
CCN(Cc1ccc([N-]C(=O)Cc2ccccc2)c(Cl)c1)C(=O)c1cc(O)ccc1[O-] (3D coordinates assigned)
CCN(Cc1ccc([N-]C(=O)Cc2ccccc2)c(Cl)c1)C(=O)c1cc(O)ccc1[O-] (optimized conformer: 60.13174635867796 kcal/mol)

>  <smiles>  (70) 
CCN(Cc1ccc(NC(=O)Cc2ccccc2)c(Cl)c1)C(=O)c1cc(O)ccc1O

>  <score_type>  (70) 
oracle

>  <origin>  (70) 
adg

>  <m_score__min__energy>  (70) 
-13.35

>  <m_primary>  (70) 
energy

$$$$
70:0
     RDKit          3D

 28 29  0  0  0  0  0  0  0  0999 V2000
   55.3430   29.2540   44.8870 O   0  0  0  0  0  0  0  0  0  0  0  0
   56.5430   29.5710   44.6640 C   0  0  0  0  0  0  0  0  0  0  0  0
   57.5190   28.5300   44.2230 C   0  0  0  0  0  0  0  0  0  0  0  0
   57.8910   27.6720   45.3910 C   0  0  0  0  0  0  0  0  0  0  0  0
   59.1220   27.6250   45.9300 N   0  0  0  0  0  0  0  0  0  0  0  0
   58.9620   26.8130   46.9970 C   0  0  0  0  0  0  0  0  0  0  0  0
   59.9100   26.5120   47.7680 O   0  0  0  0  0  0  0  0  0  0  0  0
   57.7050   26.3550   47.1790 N   0  0  0  0  0  0  0  0  0  0  0  0
   57.0370   26.9150   46.1570 C   0  0  0  0  0  0  0  0  0  0  0  0
   55.6750   26.7490   45.9320 O   0  0  0  0  0  0  0  0  0  0  0  0
   56.9970   30.9070   44.9000 N   0  0  0  0  0  0  0  0  0  0  0  0
   58.3390   31.3680   44.5630 C   0  0  0  0  0  0  0  0  0  0  0  0
   58.6830   32.5830   45.3800 C   0  0  0  0  0  0  0  0  0  0  0  0
   58.9460   33.8150   44.7580 C   0  0  0  0  0  0  0  0  0  0  0  0
   59.2250   34.9480   45.5300 C   0  0  0  0  0  0  0  0  0  0  0  0
   59.2400   34.8600   46.9240 C   0  0  0  0  0  0  0  0  0  0  0  0
   58.9730   33.6380   47.5500 C   0  0  0  0  0  0  0  0  0  0  0  0
   58.6940   32.5040   46.7830 C   0  0  0  0  0  0  0  0  0  0  0  0
   57.0622   27.9066   43.4402 H   0  0  0  0  0  0  0  0  0  0  0  0
   58.4204   29.0171   43.8226 H   0  0  0  0  0  0  0  0  0  0  0  0
   55.1420   27.4610   45.4480 H   0  0  0  0  0  0  0  0  0  0  0  0
   59.0636   30.5682   44.7758 H   0  0  0  0  0  0  0  0  0  0  0  0
   58.3751   31.6278   43.4947 H   0  0  0  0  0  0  0  0  0  0  0  0
   58.9325   33.8890   43.6606 H   0  0  0  0  0  0  0  0  0  0  0  0
   59.4329   35.9098   45.0383 H   0  0  0  0  0  0  0  0  0  0  0  0
   59.4617   35.7514   47.5292 H   0  0  0  0  0  0  0  0  0  0  0  0
   58.9827   33.5697   48.6478 H   0  0  0  0  0  0  0  0  0  0  0  0
   58.4821   31.5455   47.2794 H   0  0  0  0  0  0  0  0  0  0  0  0
  1  2  2  0
  2  3  1  0
  3  4  1  0
  4  5  1  0
  5  6  1  0
  6  7  2  0
  6  8  1  0
  8  9  1  0
  9 10  1  0
  2 11  1  0
 11 12  1  0
 12 13  1  0
 13 14  2  0
 14 15  1  0
 15 16  2  0
 16 17  1  0
 17 18  2  0
  9  4  2  0
 18 13  1  0
  3 19  1  0
  3 20  1  0
 10 21  1  0
 12 22  1  0
 12 23  1  0
 14 24  1  0
 15 25  1  0
 16 26  1  0
 17 27  1  0
 18 28  1  0
M  CHG  3   5  -1   8  -1  11  -1
M  END
>  <UniqueID>  (71) 
63

>  <SMILES>  (71) 
O=C(Cc1[n-]c(=O)[n-]c1O)[N-]Cc1ccccc1

>  <Energy>  (71) 
51.35120358349988

>  <Genealogy>  (71) 
O=C(Cc1[n-]c(=O)[n-]c1O)[N-]Cc1ccccc1 (protonated)
O=C(Cc1[n-]c(=O)[n-]c1O)[N-]Cc1ccccc1 (3D coordinates assigned)
O=C(Cc1[n-]c(=O)[n-]c1O)[N-]Cc1ccccc1 (optimized conformer: 51.35120358349988 kcal/mol)

>  <smiles>  (71) 
O=C(Cc1[nH]c(=O)[nH]c1O)NCc1ccccc1

>  <score_type>  (71) 
oracle

>  <origin>  (71) 
adg

>  <m_score__min__energy>  (71) 
-12.789999999999999

>  <m_primary>  (71) 
energy

$$$$
71:0
     RDKit          3D

 14 14  0  0  0  0  0  0  0  0999 V2000
   52.5080   28.9790   48.3370 O   0  0  0  0  0  0  0  0  0  0  0  0
   51.6830   29.8400   48.7420 C   0  0  0  0  0  0  0  0  0  0  0  0
   50.6390   30.2190   47.9070 O   0  0  0  0  0  0  0  0  0  0  0  0
   51.8210   30.4400   50.0880 C   0  0  0  0  0  0  0  0  0  0  0  0
   52.6190   29.8160   51.0640 C   0  0  0  0  0  0  0  0  0  0  0  0
   52.7520   30.3820   52.3370 C   0  0  0  0  0  0  0  0  0  0  0  0
   52.0910   31.5720   52.6480 C   0  0  0  0  0  0  0  0  0  0  0  0
   51.2960   32.2020   51.6860 C   0  0  0  0  0  0  0  0  0  0  0  0
   50.6380   33.3860   51.9960 O   0  0  0  0  0  0  0  0  0  0  0  0
   51.1600   31.6410   50.4110 C   0  0  0  0  0  0  0  0  0  0  0  0
   53.1414   28.8779   50.8253 H   0  0  0  0  0  0  0  0  0  0  0  0
   53.3787   29.8883   53.0943 H   0  0  0  0  0  0  0  0  0  0  0  0
   52.1958   32.0137   53.6499 H   0  0  0  0  0  0  0  0  0  0  0  0
   50.5336   32.1406   49.6573 H   0  0  0  0  0  0  0  0  0  0  0  0
  1  2  2  0
  2  3  1  0
  2  4  1  0
  4  5  2  0
  5  6  1  0
  6  7  2  0
  7  8  1  0
  8  9  1  0
  8 10  2  0
 10  4  1  0
  5 11  1  0
  6 12  1  0
  7 13  1  0
 10 14  1  0
M  CHG  2   3  -1   9  -1
M  END
>  <UniqueID>  (72) 
64

>  <SMILES>  (72) 
O=C([O-])c1cccc([O-])c1

>  <Energy>  (72) 
13.46632271660899

>  <Genealogy>  (72) 
O=C([O-])c1cccc([O-])c1 (protonated)
O=C([O-])c1cccc([O-])c1 (3D coordinates assigned)
O=C([O-])c1cccc([O-])c1 (optimized conformer: 13.46632271660899 kcal/mol)

>  <smiles>  (72) 
O=C(O)c1cccc(O)c1

>  <score_type>  (72) 
oracle

>  <origin>  (72) 
adg

>  <m_score__min__energy>  (72) 
-10.890000000000001

>  <m_primary>  (72) 
energy

$$$$
72:0
     RDKit          3D

 46 48  0  0  0  0  0  0  0  0999 V2000
   55.1480   28.9730   44.4960 N   0  0  0  0  0  0  0  0  0  0  0  0
   56.3440   30.1480   44.0820 S   0  0  0  0  0  0  0  0  0  0  0  0
   55.9540   31.4970   44.6120 O   0  0  0  0  0  0  0  0  0  0  0  0
   56.4110   30.2330   42.5830 O   0  0  0  0  0  0  0  0  0  0  0  0
   57.9200   29.6570   44.7310 C   0  0  0  0  0  0  0  0  0  0  0  0
   58.5980   28.6110   44.0800 C   0  0  0  0  0  0  0  0  0  0  0  0
   59.7990   28.1130   44.5840 C   0  0  0  0  0  0  0  0  0  0  0  0
   60.3380   28.6420   45.7510 C   0  0  0  0  0  0  0  0  0  0  0  0
   59.6910   29.6860   46.4090 C   0  0  0  0  0  0  0  0  0  0  0  0
   58.4960   30.2370   45.8980 C   0  0  0  0  0  0  0  0  0  0  0  0
   57.8650   31.3880   46.6690 C   0  0  0  0  0  0  0  0  0  0  0  0
   58.7600   32.6160   46.8650 C   0  0  0  0  0  0  0  0  0  0  0  0
   58.9590   33.5380   45.8020 C   0  0  0  0  0  0  0  0  0  0  0  0
   58.3580   33.2820   44.1670 Cl  0  0  0  0  0  0  0  0  0  0  0  0
   59.7160   34.6880   46.0000 C   0  0  0  0  0  0  0  0  0  0  0  0
   60.3320   34.9300   47.2170 C   0  0  0  0  0  0  0  0  0  0  0  0
   60.2570   33.9990   48.2610 C   0  0  0  0  0  0  0  0  0  0  0  0
   61.0370   34.3150   49.5250 C   0  0  0  0  0  0  0  0  0  0  0  0
   62.4450   33.7690   49.4690 C   0  0  0  0  0  0  0  0  0  0  0  0
   63.2650   33.7750   50.6090 C   0  0  0  0  0  0  0  0  0  0  0  0
   64.5530   33.2460   50.5460 C   0  0  0  0  0  0  0  0  0  0  0  0
   65.0110   32.6990   49.3480 C   0  0  0  0  0  0  0  0  0  0  0  0
   64.2030   32.6760   48.2530 N   0  0  0  0  0  0  0  0  0  0  0  0
   62.9400   33.1870   48.2920 C   0  0  0  0  0  0  0  0  0  0  0  0
   59.4980   32.8030   48.0820 C   0  0  0  0  0  0  0  0  0  0  0  0
   59.5210   31.7110   49.1390 C   0  0  0  0  0  0  0  0  0  0  0  0
   58.2840   31.6660   49.7960 O   0  0  0  0  0  0  0  0  0  0  0  0
   54.5790   29.3770   45.2740 H   0  0  0  0  0  0  0  0  0  0  0  0
   58.1751   28.1798   43.1606 H   0  0  0  0  0  0  0  0  0  0  0  0
   60.3207   27.3003   44.0573 H   0  0  0  0  0  0  0  0  0  0  0  0
   61.2768   28.2358   46.1557 H   0  0  0  0  0  0  0  0  0  0  0  0
   60.1177   30.0867   47.3403 H   0  0  0  0  0  0  0  0  0  0  0  0
   56.9643   31.7079   46.1246 H   0  0  0  0  0  0  0  0  0  0  0  0
   57.6575   31.0000   47.6772 H   0  0  0  0  0  0  0  0  0  0  0  0
   59.8268   35.4137   45.1808 H   0  0  0  0  0  0  0  0  0  0  0  0
   60.8883   35.8672   47.3658 H   0  0  0  0  0  0  0  0  0  0  0  0
   61.0836   35.4068   49.6507 H   0  0  0  0  0  0  0  0  0  0  0  0
   60.5205   33.8403   50.3723 H   0  0  0  0  0  0  0  0  0  0  0  0
   62.8904   34.1977   51.5529 H   0  0  0  0  0  0  0  0  0  0  0  0
   65.2025   33.2599   51.4337 H   0  0  0  0  0  0  0  0  0  0  0  0
   66.0283   32.2849   49.2877 H   0  0  0  0  0  0  0  0  0  0  0  0
   64.5560   32.2550   47.3660 H   0  0  0  0  0  0  0  0  0  0  0  0
   62.3047   33.1429   47.3951 H   0  0  0  0  0  0  0  0  0  0  0  0
   59.7158   30.7408   48.6587 H   0  0  0  0  0  0  0  0  0  0  0  0
   60.3147   31.9265   49.8694 H   0  0  0  0  0  0  0  0  0  0  0  0
   58.3690   30.9750   50.5030 H   0  0  0  0  0  0  0  0  0  0  0  0
  1  2  1  0
  2  3  2  0
  2  4  2  0
  2  5  1  0
  5  6  2  0
  6  7  1  0
  7  8  2  0
  8  9  1  0
  9 10  2  0
 10 11  1  0
 11 12  1  0
 12 13  2  0
 13 14  1  0
 13 15  1  0
 15 16  2  0
 16 17  1  0
 17 18  1  0
 18 19  1  0
 19 20  2  0
 20 21  1  0
 21 22  2  0
 22 23  1  0
 23 24  2  0
 17 25  2  0
 25 26  1  0
 26 27  1  0
 10  5  1  0
 25 12  1  0
 24 19  1  0
  1 28  1  0
  6 29  1  0
  7 30  1  0
  8 31  1  0
  9 32  1  0
 11 33  1  0
 11 34  1  0
 15 35  1  0
 16 36  1  0
 18 37  1  0
 18 38  1  0
 20 39  1  0
 21 40  1  0
 22 41  1  0
 23 42  1  0
 24 43  1  0
 26 44  1  0
 26 45  1  0
 27 46  1  0
M  CHG  2   1  -1  23   1
M  END
>  <UniqueID>  (73) 
65

>  <SMILES>  (73) 
[NH-]S(=O)(=O)c1ccccc1Cc1c(Cl)ccc(Cc2ccc[nH+]c2)c1CO

>  <Energy>  (73) 
62.63101573131485

>  <Genealogy>  (73) 
[NH-]S(=O)(=O)c1ccccc1Cc1c(Cl)ccc(Cc2ccc[nH+]c2)c1CO (protonated)
[NH-]S(=O)(=O)c1ccccc1Cc1c(Cl)ccc(Cc2ccc[nH+]c2)c1CO (3D coordinates assigned)
[NH-]S(=O)(=O)c1ccccc1Cc1c(Cl)ccc(Cc2ccc[nH+]c2)c1CO (optimized conformer: 62.63101573131485 kcal/mol)

>  <smiles>  (73) 
NS(=O)(=O)c1ccccc1Cc1c(Cl)ccc(Cc2cccnc2)c1CO

>  <score_type>  (73) 
oracle

>  <origin>  (73) 
adg

>  <m_score__min__energy>  (73) 
-10.48

>  <m_primary>  (73) 
energy

$$$$
73:0
     RDKit          3D

 46 48  0  0  0  0  0  0  0  0999 V2000
   58.7130   26.1480   47.4150 C   0  0  0  0  0  0  0  0  0  0  0  0
   58.8030   27.2180   46.4150 N   0  0  0  0  0  0  0  0  0  0  0  0
   57.6780   27.9220   46.0780 C   0  0  0  0  0  0  0  0  0  0  0  0
   57.7440   28.9990   45.1780 C   0  0  0  0  0  0  0  0  0  0  0  0
   56.5450   29.8160   44.8630 C   0  0  0  0  0  0  0  0  0  0  0  0
   55.4110   29.2670   44.8730 O   0  0  0  0  0  0  0  0  0  0  0  0
   56.6230   31.2220   44.5800 N   0  0  0  0  0  0  0  0  0  0  0  0
   57.6160   32.1450   45.0520 C   0  0  0  0  0  0  0  0  0  0  0  0
   58.1550   33.0790   44.1580 C   0  0  0  0  0  0  0  0  0  0  0  0
   59.0920   34.0180   44.5980 C   0  0  0  0  0  0  0  0  0  0  0  0
   59.4910   34.0360   45.9380 C   0  0  0  0  0  0  0  0  0  0  0  0
   58.9710   33.0970   46.8390 C   0  0  0  0  0  0  0  0  0  0  0  0
   59.4050   33.1660   48.5450 S   0  0  0  0  0  0  0  0  0  0  0  0
   59.6420   34.5980   48.9360 O   0  0  0  0  0  0  0  0  0  0  0  0
   58.2570   32.6250   49.3520 O   0  0  0  0  0  0  0  0  0  0  0  0
   60.8420   32.1880   48.8050 N   0  0  0  0  0  0  0  0  0  0  0  0
   61.8280   32.8460   49.6820 C   0  0  0  0  0  0  0  0  0  0  0  0
   62.5210   34.0410   48.9970 C   0  0  0  0  0  0  0  0  0  0  0  0
   62.7420   33.8230   47.4910 C   0  0  0  0  0  0  0  0  0  0  0  0
   62.7440   32.3400   47.1280 C   0  0  0  0  0  0  0  0  0  0  0  0
   61.4240   31.6600   47.5460 C   0  0  0  0  0  0  0  0  0  0  0  0
   58.0710   32.1270   46.3830 C   0  0  0  0  0  0  0  0  0  0  0  0
   58.9750   29.3010   44.5840 C   0  0  0  0  0  0  0  0  0  0  0  0
   60.1120   28.5730   44.9270 C   0  0  0  0  0  0  0  0  0  0  0  0
   60.0160   27.5400   45.8610 C   0  0  0  0  0  0  0  0  0  0  0  0
   61.0590   26.9080   46.1860 O   0  0  0  0  0  0  0  0  0  0  0  0
   58.7498   26.5849   48.4238 H   0  0  0  0  0  0  0  0  0  0  0  0
   57.7659   25.6037   47.2854 H   0  0  0  0  0  0  0  0  0  0  0  0
   59.5559   25.4532   47.2854 H   0  0  0  0  0  0  0  0  0  0  0  0
   56.7097   27.6407   46.5177 H   0  0  0  0  0  0  0  0  0  0  0  0
   57.8392   33.0734   43.1043 H   0  0  0  0  0  0  0  0  0  0  0  0
   59.5163   34.7441   43.8890 H   0  0  0  0  0  0  0  0  0  0  0  0
   60.2142   34.7884   46.2855 H   0  0  0  0  0  0  0  0  0  0  0  0
   61.3126   33.2067   50.5844 H   0  0  0  0  0  0  0  0  0  0  0  0
   62.6034   32.1057   49.9285 H   0  0  0  0  0  0  0  0  0  0  0  0
   61.8950   34.9351   49.1339 H   0  0  0  0  0  0  0  0  0  0  0  0
   63.5110   34.1587   49.4618 H   0  0  0  0  0  0  0  0  0  0  0  0
   61.9352   34.3244   46.9363 H   0  0  0  0  0  0  0  0  0  0  0  0
   63.7237   34.2419   47.2249 H   0  0  0  0  0  0  0  0  0  0  0  0
   62.8714   32.2373   46.0402 H   0  0  0  0  0  0  0  0  0  0  0  0
   63.5714   31.8520   47.6640 H   0  0  0  0  0  0  0  0  0  0  0  0
   60.6904   31.8046   46.7392 H   0  0  0  0  0  0  0  0  0  0  0  0
   61.6563   30.5997   47.7244 H   0  0  0  0  0  0  0  0  0  0  0  0
   57.7168   31.3448   47.0705 H   0  0  0  0  0  0  0  0  0  0  0  0
   59.0445   30.1137   43.8459 H   0  0  0  0  0  0  0  0  0  0  0  0
   61.0810   28.8110   44.4640 H   0  0  0  0  0  0  0  0  0  0  0  0
  1  2  1  0
  2  3  1  0
  3  4  2  0
  4  5  1  0
  5  6  2  0
  5  7  1  0
  7  8  1  0
  8  9  2  0
  9 10  1  0
 10 11  2  0
 11 12  1  0
 12 13  1  0
 13 14  2  0
 13 15  2  0
 13 16  1  0
 16 17  1  0
 17 18  1  0
 18 19  1  0
 19 20  1  0
 20 21  1  0
 12 22  2  0
  4 23  1  0
 23 24  2  0
 24 25  1  0
 25 26  2  0
 25  2  1  0
 22  8  1  0
 21 16  1  0
  1 27  1  0
  1 28  1  0
  1 29  1  0
  3 30  1  0
  9 31  1  0
 10 32  1  0
 11 33  1  0
 17 34  1  0
 17 35  1  0
 18 36  1  0
 18 37  1  0
 19 38  1  0
 19 39  1  0
 20 40  1  0
 20 41  1  0
 21 42  1  0
 21 43  1  0
 22 44  1  0
 23 45  1  0
 24 46  1  0
M  CHG  1   7  -1
M  END
>  <UniqueID>  (74) 
66

>  <SMILES>  (74) 
Cn1cc(C(=O)[N-]c2cccc(S(=O)(=O)N3CCCCC3)c2)ccc1=O

>  <Energy>  (74) 
61.49261733604756

>  <Genealogy>  (74) 
Cn1cc(C(=O)[N-]c2cccc(S(=O)(=O)N3CCCCC3)c2)ccc1=O (protonated)
Cn1cc(C(=O)[N-]c2cccc(S(=O)(=O)N3CCCCC3)c2)ccc1=O (3D coordinates assigned)
Cn1cc(C(=O)[N-]c2cccc(S(=O)(=O)N3CCCCC3)c2)ccc1=O (nonaromatic ring conformer: 61.49261733604756 kcal/mol)

>  <smiles>  (74) 
Cn1cc(C(=O)Nc2cccc(S(=O)(=O)N3CCCCC3)c2)ccc1=O

>  <score_type>  (74) 
oracle

>  <origin>  (74) 
adg

>  <m_score__min__energy>  (74) 
-11.48

>  <m_primary>  (74) 
energy

$$$$
74:0
     RDKit          3D

 42 44  0  0  0  0  0  0  0  0999 V2000
   57.6635   32.3890   42.7447 H   0  0  0  0  0  0  0  0  0  0  0  0
   57.8300   32.3790   43.8320 C   0  0  0  0  0  0  0  0  0  0  0  0
   58.5760   33.3210   44.4670 N   0  0  0  0  0  0  0  0  0  0  0  0
   58.6310   33.0980   45.7990 C   0  0  0  0  0  0  0  0  0  0  0  0
   59.3050   33.8260   46.6380 N   0  0  0  0  0  0  0  0  0  0  0  0
   60.6440   33.5830   47.1010 C   0  0  0  0  0  0  0  0  0  0  0  0
   60.8290   33.1550   48.4230 C   0  0  0  0  0  0  0  0  0  0  0  0
   59.9557   32.9918   49.0717 H   0  0  0  0  0  0  0  0  0  0  0  0
   62.1170   32.9340   48.9230 C   0  0  0  0  0  0  0  0  0  0  0  0
   62.2527   32.5830   49.9566 H   0  0  0  0  0  0  0  0  0  0  0  0
   63.2310   33.1590   48.1100 C   0  0  0  0  0  0  0  0  0  0  0  0
   64.2430   32.9771   48.5007 H   0  0  0  0  0  0  0  0  0  0  0  0
   63.0590   33.6150   46.8010 C   0  0  0  0  0  0  0  0  0  0  0  0
   63.9368   33.8006   46.1646 H   0  0  0  0  0  0  0  0  0  0  0  0
   61.7730   33.8360   46.2980 C   0  0  0  0  0  0  0  0  0  0  0  0
   61.6428   34.2088   45.2713 H   0  0  0  0  0  0  0  0  0  0  0  0
   57.7890   31.7150   46.2440 S   0  0  0  0  0  0  0  0  0  0  0  0
   57.2920   31.3990   44.6650 C   0  0  0  0  0  0  0  0  0  0  0  0
   56.4670   30.2450   44.2570 C   0  0  0  0  0  0  0  0  0  0  0  0
   56.0350   30.1880   43.0750 O   0  0  0  0  0  0  0  0  0  0  0  0
   56.1000   29.2070   45.1750 N   0  0  0  0  0  0  0  0  0  0  0  0
   56.8960   28.0650   45.5250 C   0  0  0  0  0  0  0  0  0  0  0  0
   58.2890   28.2010   45.5410 C   0  0  0  0  0  0  0  0  0  0  0  0
   58.7462   29.1726   45.3021 H   0  0  0  0  0  0  0  0  0  0  0  0
   59.1010   27.1120   45.8580 C   0  0  0  0  0  0  0  0  0  0  0  0
   60.1952   27.2246   45.8534 H   0  0  0  0  0  0  0  0  0  0  0  0
   58.5300   25.8800   46.1810 C   0  0  0  0  0  0  0  0  0  0  0  0
   59.1764   25.0191   46.4067 H   0  0  0  0  0  0  0  0  0  0  0  0
   57.1340   25.7350   46.2190 C   0  0  0  0  0  0  0  0  0  0  0  0
   56.5390   24.4240   46.5560 C   0  0  0  0  0  0  0  0  0  0  0  0
   56.7270   23.9520   47.7110 O   0  0  0  0  0  0  0  0  0  0  0  0
   55.7570   23.6780   45.6000 N   0  0  0  0  0  0  0  0  0  0  0  0
   55.9670   23.8610   44.1600 C   0  0  0  0  0  0  0  0  0  0  0  0
   56.7871   24.5757   43.9970 H   0  0  0  0  0  0  0  0  0  0  0  0
   56.2257   22.8952   43.7015 H   0  0  0  0  0  0  0  0  0  0  0  0
   55.0456   24.2494   43.7015 H   0  0  0  0  0  0  0  0  0  0  0  0
   54.8430   22.6390   46.0820 C   0  0  0  0  0  0  0  0  0  0  0  0
   54.8396   22.6352   47.1820 H   0  0  0  0  0  0  0  0  0  0  0  0
   53.8273   22.8442   45.7129 H   0  0  0  0  0  0  0  0  0  0  0  0
   55.1760   21.6577   45.7129 H   0  0  0  0  0  0  0  0  0  0  0  0
   56.3130   26.8340   45.8970 C   0  0  0  0  0  0  0  0  0  0  0  0
   54.9300   26.7120   45.9850 O   0  0  0  0  0  0  0  0  0  0  0  0
  1  2  1  0
  2  3  1  0
  3  4  1  0
  4  5  2  0
  5  6  1  0
  6  7  2  0
  7  8  1  0
  7  9  1  0
  9 10  1  0
  9 11  2  0
 11 12  1  0
 11 13  1  0
 13 14  1  0
 13 15  2  0
 15 16  1  0
  4 17  1  0
 17 18  1  0
 18 19  1  0
 19 20  2  0
 19 21  1  0
 21 22  1  0
 22 23  2  0
 23 24  1  0
 23 25  1  0
 25 26  1  0
 25 27  2  0
 27 28  1  0
 27 29  1  0
 29 30  1  0
 30 31  2  0
 30 32  1  0
 32 33  1  0
 33 34  1  0
 33 35  1  0
 33 36  1  0
 32 37  1  0
 37 38  1  0
 37 39  1  0
 37 40  1  0
 29 41  2  0
 41 42  1  0
 18  2  2  0
 41 22  1  0
 15  6  1  0
M  CHG  3   3  -1  21  -1  42  -1
M  END
>  <UniqueID>  (75) 
67

>  <SMILES>  (75) 
CN(C)C(=O)c1cccc([N-]C(=O)c2c[n-]/c(=N\c3ccccc3)s2)c1[O-]

>  <Energy>  (75) 
91.29939110250429

>  <Genealogy>  (75) 
CN(C)C(=O)c1cccc([N-]C(=O)c2c[n-]c(=Nc3ccccc3)s2)c1[O-] (protonated)
CN(C)C(=O)c1cccc([N-]C(=O)c2c[n-]/c(=N\c3ccccc3)s2)c1[O-] (cis-trans isomerization)
CN(C)C(=O)c1cccc([N-]C(=O)c2c[n-]/c(=N\c3ccccc3)s2)c1[O-] (3D coordinates assigned)
CN(C)C(=O)c1cccc([N-]C(=O)c2c[n-]/c(=N\c3ccccc3)s2)c1[O-] (optimized conformer: 91.29939110250429 kcal/mol)

>  <smiles>  (75) 
CN(C)C(=O)c1cccc(NC(=O)c2c[nH]c(=Nc3ccccc3)s2)c1O

>  <score_type>  (75) 
oracle

>  <origin>  (75) 
adg

>  <m_score__min__energy>  (75) 
-15.59

>  <m_primary>  (75) 
energy

$$$$
75:0
     RDKit          3D

 69 72  0  0  0  0  0  0  0  0999 V2000
   56.8410   28.6500   53.5270 C   0  0  0  0  0  0  0  0  0  0  0  0
   57.0980   28.9450   52.1580 O   0  0  0  0  0  0  0  0  0  0  0  0
   57.9000   29.9900   51.6550 C   0  0  0  0  0  0  0  0  0  0  0  0
   57.3610   31.2990   51.6750 C   0  0  0  0  0  0  0  0  0  0  0  0
   55.9980   31.5840   52.2650 C   0  0  0  0  0  0  0  0  0  0  0  0
   54.9100   30.8590   51.4720 C   0  0  0  0  0  0  0  0  0  0  0  0
   54.0260   30.1440   52.3850 N   0  0  0  0  0  0  0  0  0  0  0  0
   52.6040   30.0070   52.2470 C   0  0  0  0  0  0  0  0  0  0  0  0
   52.1460   28.8930   51.8840 O   0  0  0  0  0  0  0  0  0  0  0  0
   51.6560   31.1130   52.5180 C   0  0  0  0  0  0  0  0  0  0  0  0
   50.6570   31.0780   53.4810 C   0  0  0  0  0  0  0  0  0  0  0  0
   50.0040   32.2870   53.4070 C   0  0  0  0  0  0  0  0  0  0  0  0
   50.6380   32.9890   52.4090 C   0  0  0  0  0  0  0  0  0  0  0  0
   50.2870   34.2670   51.9970 O   0  0  0  0  0  0  0  0  0  0  0  0
   51.6410   32.2860   51.8520 N   0  0  0  0  0  0  0  0  0  0  0  0
   58.1100   32.3730   51.1750 C   0  0  0  0  0  0  0  0  0  0  0  0
   59.3930   32.1700   50.6790 C   0  0  0  0  0  0  0  0  0  0  0  0
   59.9420   30.8910   50.6590 C   0  0  0  0  0  0  0  0  0  0  0  0
   59.2070   29.7830   51.1310 C   0  0  0  0  0  0  0  0  0  0  0  0
   59.7540   28.4880   51.1040 O   0  0  0  0  0  0  0  0  0  0  0  0
   60.6970   27.9890   50.1540 C   0  0  0  0  0  0  0  0  0  0  0  0
   60.3360   28.4350   48.7390 C   0  0  0  0  0  0  0  0  0  0  0  0
   59.2880   27.6210   48.2430 O   0  0  0  0  0  0  0  0  0  0  0  0
   58.9370   27.9320   46.9080 C   0  0  0  0  0  0  0  0  0  0  0  0
   58.1260   29.2240   46.8840 C   0  0  0  0  0  0  0  0  0  0  0  0
   58.6030   30.1240   45.8310 N   0  0  0  0  0  0  0  0  0  0  0  0
   58.3880   31.4150   45.7580 C   0  0  0  0  0  0  0  0  0  0  0  0
   59.1410   32.3780   46.5860 C   0  0  0  0  0  0  0  0  0  0  0  0
   58.5520   33.5910   46.9660 C   0  0  0  0  0  0  0  0  0  0  0  0
   59.2620   34.4950   47.7610 C   0  0  0  0  0  0  0  0  0  0  0  0
   60.5730   34.2070   48.1530 C   0  0  0  0  0  0  0  0  0  0  0  0
   61.1650   32.9980   47.7730 C   0  0  0  0  0  0  0  0  0  0  0  0
   60.4510   32.0810   46.9960 C   0  0  0  0  0  0  0  0  0  0  0  0
   57.3070   31.9460   44.8470 C   0  0  1  0  0  0  0  0  0  0  0  0
   57.8740   32.7380   43.6540 C   0  0  0  0  0  0  0  0  0  0  0  0
   57.6930   31.8380   42.4160 C   0  0  0  0  0  0  0  0  0  0  0  0
   56.8060   30.8070   42.8140 O   0  0  0  0  0  0  0  0  0  0  0  0
   56.5920   30.8380   44.1740 C   0  0  0  0  0  0  0  0  0  0  0  0
   55.8670   29.9980   44.7700 O   0  0  0  0  0  0  0  0  0  0  0  0
   57.4298   29.3259   54.1645 H   0  0  0  0  0  0  0  0  0  0  0  0
   55.7701   28.7881   53.7371 H   0  0  0  0  0  0  0  0  0  0  0  0
   57.1245   27.6081   53.7371 H   0  0  0  0  0  0  0  0  0  0  0  0
   55.9760   31.2388   53.3092 H   0  0  0  0  0  0  0  0  0  0  0  0
   55.8098   32.6668   52.2200 H   0  0  0  0  0  0  0  0  0  0  0  0
   54.3256   31.5934   50.8983 H   0  0  0  0  0  0  0  0  0  0  0  0
   55.3799   30.1403   50.7845 H   0  0  0  0  0  0  0  0  0  0  0  0
   50.4319   30.2483   54.1673 H   0  0  0  0  0  0  0  0  0  0  0  0
   49.1530   32.6218   54.0183 H   0  0  0  0  0  0  0  0  0  0  0  0
   57.6792   33.3851   51.1750 H   0  0  0  0  0  0  0  0  0  0  0  0
   59.9760   33.0228   50.3012 H   0  0  0  0  0  0  0  0  0  0  0  0
   60.9604   30.7424   50.2708 H   0  0  0  0  0  0  0  0  0  0  0  0
   61.6978   28.3692   50.4067 H   0  0  0  0  0  0  0  0  0  0  0  0
   60.6822   26.8897   50.1896 H   0  0  0  0  0  0  0  0  0  0  0  0
   60.0082   29.4849   48.7573 H   0  0  0  0  0  0  0  0  0  0  0  0
   61.2167   28.3386   48.0870 H   0  0  0  0  0  0  0  0  0  0  0  0
   59.8506   28.0612   46.3091 H   0  0  0  0  0  0  0  0  0  0  0  0
   58.3354   27.1132   46.4865 H   0  0  0  0  0  0  0  0  0  0  0  0
   57.0691   28.9819   46.6987 H   0  0  0  0  0  0  0  0  0  0  0  0
   58.2415   29.7283   47.8548 H   0  0  0  0  0  0  0  0  0  0  0  0
   57.5300   33.8321   46.6384 H   0  0  0  0  0  0  0  0  0  0  0  0
   58.7883   35.4354   48.0791 H   0  0  0  0  0  0  0  0  0  0  0  0
   61.1380   34.9302   48.7594 H   0  0  0  0  0  0  0  0  0  0  0  0
   62.1942   32.7684   48.0861 H   0  0  0  0  0  0  0  0  0  0  0  0
   60.9152   31.1269   46.7058 H   0  0  0  0  0  0  0  0  0  0  0  0
   56.6755   32.5615   45.5046 H   0  0  0  0  0  0  0  0  0  0  0  0
   57.3214   33.6803   43.5246 H   0  0  0  0  0  0  0  0  0  0  0  0
   58.9316   32.9966   43.8106 H   0  0  0  0  0  0  0  0  0  0  0  0
   57.2621   32.4138   41.5837 H   0  0  0  0  0  0  0  0  0  0  0  0
   58.6540   31.4325   42.0665 H   0  0  0  0  0  0  0  0  0  0  0  0
  1  2  1  0
  2  3  1  0
  3  4  2  0
  4  5  1  0
  5  6  1  0
  6  7  1  0
  7  8  1  0
  8  9  2  0
  8 10  1  0
 10 11  2  0
 11 12  1  0
 12 13  2  0
 13 14  1  0
 13 15  1  0
  4 16  1  0
 16 17  2  0
 17 18  1  0
 18 19  2  0
 19 20  1  0
 20 21  1  0
 21 22  1  0
 22 23  1  0
 23 24  1  0
 24 25  1  0
 25 26  1  0
 26 27  2  3
 27 28  1  0
 28 29  2  0
 29 30  1  0
 30 31  2  0
 31 32  1  0
 32 33  2  0
 27 34  1  0
 34 35  1  0
 35 36  1  0
 36 37  1  0
 37 38  1  0
 38 39  2  0
 19  3  1  0
 33 28  1  0
 38 34  1  0
 15 10  1  0
  1 40  1  0
  1 41  1  0
  1 42  1  0
  5 43  1  0
  5 44  1  0
  6 45  1  0
  6 46  1  0
 11 47  1  0
 12 48  1  0
 16 49  1  0
 17 50  1  0
 18 51  1  0
 21 52  1  0
 21 53  1  0
 22 54  1  0
 22 55  1  0
 24 56  1  0
 24 57  1  0
 25 58  1  0
 25 59  1  0
 29 60  1  0
 30 61  1  0
 31 62  1  0
 32 63  1  0
 33 64  1  0
 34 65  1  1
 35 66  1  0
 35 67  1  0
 36 68  1  0
 36 69  1  0
M  CHG  3   7  -1  14  -1  15  -1
M  END
>  <UniqueID>  (76) 
68

>  <SMILES>  (76) 
COc1c(CC[N-]C(=O)c2ccc([O-])[n-]2)cccc1OCCOCCN=C(c1ccccc1)[C@H]1CCOC1=O

>  <Energy>  (76) 
114.49093942847617

>  <Genealogy>  (76) 
COc1c(CC[N-]C(=O)c2ccc([O-])[n-]2)cccc1OCCOCCN=C(c1ccccc1)C1CCOC1=O (protonated)
COc1c(CC[N-]C(=O)c2ccc([O-])[n-]2)cccc1OCCOCCN=C(c1ccccc1)[C@H]1CCOC1=O (chirality)
COc1c(CC[N-]C(=O)c2ccc([O-])[n-]2)cccc1OCCOCCN=C(c1ccccc1)[C@H]1CCOC1=O (3D coordinates assigned)
COc1c(CC[N-]C(=O)c2ccc([O-])[n-]2)cccc1OCCOCCN=C(c1ccccc1)[C@H]1CCOC1=O (nonaromatic ring conformer: 114.49093942847617 kcal/mol)

>  <smiles>  (76) 
COc1c(CCNC(=O)c2ccc(O)[nH]2)cccc1OCCOCCN=C(c1ccccc1)C1CCOC1=O

>  <score_type>  (76) 
oracle

>  <origin>  (76) 
adg

>  <m_score__min__energy>  (76) 
-17.34

>  <m_primary>  (76) 
energy

$$$$
76:0
     RDKit          3D

 46 48  0  0  0  0  0  0  0  0999 V2000
   56.8350   29.0370   42.8790 O   0  0  0  0  0  0  0  0  0  0  0  0
   56.5320   29.6680   43.9280 C   0  0  0  0  0  0  0  0  0  0  0  0
   56.5490   31.1620   43.9260 C   0  0  0  0  0  0  0  0  0  0  0  0
   57.5420   31.6570   44.9410 C   0  0  0  0  0  0  0  0  0  0  0  0
   58.6630   30.8780   45.2690 C   0  0  0  0  0  0  0  0  0  0  0  0
   59.5600   31.3100   46.2520 C   0  0  0  0  0  0  0  0  0  0  0  0
   59.3420   32.5200   46.9150 C   0  0  0  0  0  0  0  0  0  0  0  0
   58.2270   33.3000   46.5970 C   0  0  0  0  0  0  0  0  0  0  0  0
   57.3250   32.8690   45.6200 C   0  0  0  0  0  0  0  0  0  0  0  0
   56.1940   28.9660   45.1300 N   0  0  0  0  0  0  0  0  0  0  0  0
   56.8930   27.8270   45.6520 C   0  0  0  0  0  0  0  0  0  0  0  0
   58.2910   27.8320   45.8030 C   0  0  0  0  0  0  0  0  0  0  0  0
   58.9500   26.7400   46.3910 C   0  0  0  0  0  0  0  0  0  0  0  0
   60.4340   26.7920   46.6450 C   0  0  0  0  0  0  0  0  0  0  0  0
   60.7880   27.9520   47.4790 N   0  0  0  0  0  0  0  0  0  0  0  0
   60.0480   27.9870   48.7530 C   0  0  0  0  0  0  0  0  0  0  0  0
   59.9000   29.4020   49.2490 C   0  0  0  0  0  0  0  0  0  0  0  0
   58.6340   29.9170   49.5780 C   0  0  0  0  0  0  0  0  0  0  0  0
   58.5120   31.2180   50.0750 C   0  0  0  0  0  0  0  0  0  0  0  0
   59.6450   32.0200   50.2300 C   0  0  0  0  0  0  0  0  0  0  0  0
   59.5230   33.2810   50.7170 F   0  0  0  0  0  0  0  0  0  0  0  0
   60.9040   31.5250   49.8800 C   0  0  0  0  0  0  0  0  0  0  0  0
   61.0320   30.2250   49.3850 C   0  0  0  0  0  0  0  0  0  0  0  0
   58.2010   25.6310   46.8150 C   0  0  0  0  0  0  0  0  0  0  0  0
   56.8120   25.6260   46.6750 C   0  0  0  0  0  0  0  0  0  0  0  0
   56.1570   26.7230   46.1080 C   0  0  0  0  0  0  0  0  0  0  0  0
   54.7710   26.7140   45.9980 O   0  0  0  0  0  0  0  0  0  0  0  0
   56.8354   31.5234   42.9273 H   0  0  0  0  0  0  0  0  0  0  0  0
   55.5475   31.5389   44.1810 H   0  0  0  0  0  0  0  0  0  0  0  0
   58.8369   29.9235   44.7507 H   0  0  0  0  0  0  0  0  0  0  0  0
   60.4377   30.6962   46.5030 H   0  0  0  0  0  0  0  0  0  0  0  0
   60.0480   32.8589   47.6874 H   0  0  0  0  0  0  0  0  0  0  0  0
   58.0588   34.2549   47.1165 H   0  0  0  0  0  0  0  0  0  0  0  0
   56.4421   33.4803   45.3815 H   0  0  0  0  0  0  0  0  0  0  0  0
   58.8736   28.6988   45.4576 H   0  0  0  0  0  0  0  0  0  0  0  0
   60.7428   25.8709   47.1609 H   0  0  0  0  0  0  0  0  0  0  0  0
   60.9510   26.8854   45.6786 H   0  0  0  0  0  0  0  0  0  0  0  0
   60.5230   28.8100   46.9380 H   0  0  0  0  0  0  0  0  0  0  0  0
   59.0491   27.5519   48.6016 H   0  0  0  0  0  0  0  0  0  0  0  0
   60.6090   27.4085   49.5018 H   0  0  0  0  0  0  0  0  0  0  0  0
   57.7369   29.2946   49.4440 H   0  0  0  0  0  0  0  0  0  0  0  0
   57.5207   31.6112   50.3448 H   0  0  0  0  0  0  0  0  0  0  0  0
   61.7952   32.1596   49.9944 H   0  0  0  0  0  0  0  0  0  0  0  0
   62.0235   29.8432   49.1001 H   0  0  0  0  0  0  0  0  0  0  0  0
   58.7103   24.7630   47.2591 H   0  0  0  0  0  0  0  0  0  0  0  0
   56.2306   24.7552   47.0123 H   0  0  0  0  0  0  0  0  0  0  0  0
  1  2  2  0
  2  3  1  0
  3  4  1  0
  4  5  2  0
  5  6  1  0
  6  7  2  0
  7  8  1  0
  8  9  2  0
  2 10  1  0
 10 11  1  0
 11 12  2  0
 12 13  1  0
 13 14  1  0
 14 15  1  0
 15 16  1  0
 16 17  1  0
 17 18  2  0
 18 19  1  0
 19 20  2  0
 20 21  1  0
 20 22  1  0
 22 23  2  0
 13 24  2  0
 24 25  1  0
 25 26  2  0
 26 27  1  0
  9  4  1  0
 26 11  1  0
 23 17  1  0
  3 28  1  0
  3 29  1  0
  5 30  1  0
  6 31  1  0
  7 32  1  0
  8 33  1  0
  9 34  1  0
 12 35  1  0
 14 36  1  0
 14 37  1  0
 15 38  1  0
 16 39  1  0
 16 40  1  0
 18 41  1  0
 19 42  1  0
 22 43  1  0
 23 44  1  0
 24 45  1  0
 25 46  1  0
M  CHG  2  10  -1  27  -1
M  END
>  <UniqueID>  (77) 
69

>  <SMILES>  (77) 
O=C(Cc1ccccc1)[N-]c1cc(CNCc2ccc(F)cc2)ccc1[O-]

>  <Energy>  (77) 
44.89668433547843

>  <Genealogy>  (77) 
O=C(Cc1ccccc1)[N-]c1cc(CNCc2ccc(F)cc2)ccc1[O-] (protonated)
O=C(Cc1ccccc1)[N-]c1cc(CNCc2ccc(F)cc2)ccc1[O-] (3D coordinates assigned)
O=C(Cc1ccccc1)[N-]c1cc(CNCc2ccc(F)cc2)ccc1[O-] (optimized conformer: 44.89668433547843 kcal/mol)

>  <smiles>  (77) 
O=C(Cc1ccccc1)Nc1cc(CNCc2ccc(F)cc2)ccc1O

>  <score_type>  (77) 
oracle

>  <origin>  (77) 
adg

>  <m_score__min__energy>  (77) 
-14.130000000000001

>  <m_primary>  (77) 
energy

$$$$
77:0
     RDKit          3D

 35 37  0  0  0  0  0  0  0  0999 V2000
   56.8540   24.7690   44.6410 C   0  0  0  0  0  0  0  0  0  0  0  0
   56.1480   25.7330   45.9580 S   0  0  0  0  0  0  0  0  0  0  0  0
   54.6930   25.9760   45.6700 O   0  0  0  0  0  0  0  0  0  0  0  0
   56.2760   24.9920   47.2600 O   0  0  0  0  0  0  0  0  0  0  0  0
   56.9850   27.2670   46.0750 C   0  0  0  0  0  0  0  0  0  0  0  0
   56.8080   28.2740   45.1960 N   0  0  0  0  0  0  0  0  0  0  0  0
   57.6400   29.2430   45.6330 C   0  0  0  0  0  0  0  0  0  0  0  0
   57.7170   30.5750   44.9970 C   0  0  0  0  0  0  0  0  0  0  0  0
   57.6460   30.6860   43.5990 C   0  0  0  0  0  0  0  0  0  0  0  0
   57.7010   31.9400   42.9850 C   0  0  0  0  0  0  0  0  0  0  0  0
   57.8140   33.0960   43.7620 C   0  0  0  0  0  0  0  0  0  0  0  0
   57.8640   32.9990   45.1550 C   0  0  0  0  0  0  0  0  0  0  0  0
   57.8080   31.7460   45.7720 C   0  0  0  0  0  0  0  0  0  0  0  0
   58.3140   28.7920   46.7640 C   0  0  0  0  0  0  0  0  0  0  0  0
   59.3990   29.4600   47.5140 C   0  0  0  0  0  0  0  0  0  0  0  0
   60.4340   30.1340   46.8410 C   0  0  0  0  0  0  0  0  0  0  0  0
   61.4610   30.7490   47.5620 C   0  0  0  0  0  0  0  0  0  0  0  0
   61.4730   30.6850   48.9580 C   0  0  0  0  0  0  0  0  0  0  0  0
   60.4590   30.0000   49.6340 C   0  0  0  0  0  0  0  0  0  0  0  0
   59.4290   29.3850   48.9170 C   0  0  0  0  0  0  0  0  0  0  0  0
   57.8820   27.5480   47.0360 N   0  0  0  0  0  0  0  0  0  0  0  0
   57.4534   23.9506   45.0663 H   0  0  0  0  0  0  0  0  0  0  0  0
   56.0481   24.3494   44.0210 H   0  0  0  0  0  0  0  0  0  0  0  0
   57.4973   25.4107   44.0210 H   0  0  0  0  0  0  0  0  0  0  0  0
   57.5464   29.7800   42.9832 H   0  0  0  0  0  0  0  0  0  0  0  0
   57.6553   32.0173   41.8887 H   0  0  0  0  0  0  0  0  0  0  0  0
   57.8636   34.0821   43.2771 H   0  0  0  0  0  0  0  0  0  0  0  0
   57.9475   33.9095   45.7666 H   0  0  0  0  0  0  0  0  0  0  0  0
   57.8352   31.6749   46.8694 H   0  0  0  0  0  0  0  0  0  0  0  0
   60.4350   30.1772   45.7418 H   0  0  0  0  0  0  0  0  0  0  0  0
   62.2612   31.2843   47.0299 H   0  0  0  0  0  0  0  0  0  0  0  0
   62.2797   31.1732   49.5245 H   0  0  0  0  0  0  0  0  0  0  0  0
   60.4719   29.9450   50.7325 H   0  0  0  0  0  0  0  0  0  0  0  0
   58.6383   28.8398   49.4532 H   0  0  0  0  0  0  0  0  0  0  0  0
   58.2050   26.9140   47.8010 H   0  0  0  0  0  0  0  0  0  0  0  0
  1  2  1  0
  2  3  2  0
  2  4  2  0
  2  5  1  0
  5  6  2  0
  6  7  1  0
  7  8  1  0
  8  9  2  0
  9 10  1  0
 10 11  2  0
 11 12  1  0
 12 13  2  0
  7 14  2  0
 14 15  1  0
 15 16  2  0
 16 17  1  0
 17 18  2  0
 18 19  1  0
 19 20  2  0
 14 21  1  0
 21  5  1  0
 13  8  1  0
 20 15  1  0
  1 22  1  0
  1 23  1  0
  1 24  1  0
  9 25  1  0
 10 26  1  0
 11 27  1  0
 12 28  1  0
 13 29  1  0
 16 30  1  0
 17 31  1  0
 18 32  1  0
 19 33  1  0
 20 34  1  0
 21 35  1  0
M  END
>  <UniqueID>  (78) 
70

>  <SMILES>  (78) 
CS(=O)(=O)c1nc(-c2ccccc2)c(-c2ccccc2)[nH]1

>  <Energy>  (78) 
71.15005950797925

>  <Genealogy>  (78) 
CS(=O)(=O)c1nc(-c2ccccc2)c(-c2ccccc2)[nH]1 (3D coordinates assigned)
CS(=O)(=O)c1nc(-c2ccccc2)c(-c2ccccc2)[nH]1 (optimized conformer: 71.15005950797925 kcal/mol)

>  <smiles>  (78) 
CS(=O)(=O)c1nc(-c2ccccc2)c(-c2ccccc2)[nH]1

>  <score_type>  (78) 
oracle

>  <origin>  (78) 
adg

>  <m_score__min__energy>  (78) 
-7.8099999999999996

>  <m_primary>  (78) 
energy

$$$$
78:0
     RDKit          3D

 52 55  0  0  0  0  0  0  0  0999 V2000
   58.0609   28.9349   47.8180 H   0  0  0  0  0  0  0  0  0  0  0  0
   58.8790   29.3410   48.4310 C   0  0  0  0  0  0  0  0  0  0  0  0
   60.1580   29.4740   47.8880 C   0  0  0  0  0  0  0  0  0  0  0  0
   60.3467   29.1781   46.8455 H   0  0  0  0  0  0  0  0  0  0  0  0
   61.1980   29.9830   48.6690 C   0  0  0  0  0  0  0  0  0  0  0  0
   62.2025   30.0907   48.2338 H   0  0  0  0  0  0  0  0  0  0  0  0
   60.9760   30.3580   50.0010 C   0  0  0  0  0  0  0  0  0  0  0  0
   62.0920   30.8650   50.7470 N   0  0  0  0  0  0  0  0  0  0  0  0
   62.8670   32.4050   50.5610 S   0  0  0  0  0  0  0  0  0  0  0  0
   64.3550   32.2390   50.7050 O   0  0  0  0  0  0  0  0  0  0  0  0
   62.3550   33.3740   51.5900 O   0  0  0  0  0  0  0  0  0  0  0  0
   62.4930   33.0150   48.9540 C   0  0  0  0  0  0  0  0  0  0  0  0
   63.4610   33.0090   47.9410 C   0  0  0  0  0  0  0  0  0  0  0  0
   64.4841   32.6692   48.1597 H   0  0  0  0  0  0  0  0  0  0  0  0
   63.1270   33.4340   46.6550 C   0  0  0  0  0  0  0  0  0  0  0  0
   63.8873   33.4251   45.8601 H   0  0  0  0  0  0  0  0  0  0  0  0
   61.8300   33.8710   46.3730 C   0  0  0  0  0  0  0  0  0  0  0  0
   61.5729   34.1956   45.3539 H   0  0  0  0  0  0  0  0  0  0  0  0
   60.8500   33.8990   47.3830 C   0  0  0  0  0  0  0  0  0  0  0  0
   59.4860   34.4070   47.0810 C   0  0  0  0  0  0  0  0  0  0  0  0
   59.2700   35.6470   47.1150 O   0  0  0  0  0  0  0  0  0  0  0  0
   58.3790   33.5330   46.8180 N   0  0  0  0  0  0  0  0  0  0  0  0
   58.1910   32.7100   45.6580 C   0  0  0  0  0  0  0  0  0  0  0  0
   57.9710   33.3290   44.4220 C   0  0  0  0  0  0  0  0  0  0  0  0
   57.9477   34.4268   44.3566 H   0  0  0  0  0  0  0  0  0  0  0  0
   57.7810   32.5610   43.2720 C   0  0  0  0  0  0  0  0  0  0  0  0
   57.5917   33.0541   42.3071 H   0  0  0  0  0  0  0  0  0  0  0  0
   57.8310   31.1670   43.3450 C   0  0  0  0  0  0  0  0  0  0  0  0
   57.6746   30.5642   42.4382 H   0  0  0  0  0  0  0  0  0  0  0  0
   58.0800   30.5340   44.5710 C   0  0  0  0  0  0  0  0  0  0  0  0
   58.1640   28.7780   44.6570 S   0  0  0  0  0  0  0  0  0  0  0  0
   59.5780   28.3420   44.9190 O   0  0  0  0  0  0  0  0  0  0  0  0
   57.7290   28.1840   43.3460 O   0  0  0  0  0  0  0  0  0  0  0  0
   57.1110   28.2000   45.9070 N   0  0  0  0  0  0  0  0  0  0  0  0
   56.6540   26.9880   45.9640 C   0  0  0  0  0  0  0  0  0  0  0  0
   55.3470   26.6640   46.0030 N   0  0  0  0  0  0  0  0  0  0  0  0
   55.2990   25.3660   46.0910 O   0  0  0  0  0  0  0  0  0  0  0  0
   56.5070   24.8480   46.1030 C   0  0  0  0  0  0  0  0  0  0  0  0
   56.7990   23.3900   46.2200 C   0  0  0  0  0  0  0  0  0  0  0  0
   56.8548   23.1114   47.2827 H   0  0  0  0  0  0  0  0  0  0  0  0
   55.9981   22.8153   45.7318 H   0  0  0  0  0  0  0  0  0  0  0  0
   57.7594   23.1681   45.7318 H   0  0  0  0  0  0  0  0  0  0  0  0
   57.4390   25.8600   46.0230 C   0  0  0  0  0  0  0  0  0  0  0  0
   58.5363   25.7846   46.0097 H   0  0  0  0  0  0  0  0  0  0  0  0
   58.2590   31.3060   45.7270 C   0  0  0  0  0  0  0  0  0  0  0  0
   58.4532   30.8131   46.6910 H   0  0  0  0  0  0  0  0  0  0  0  0
   61.2040   33.4870   48.6810 C   0  0  0  0  0  0  0  0  0  0  0  0
   60.4599   33.5364   49.4896 H   0  0  0  0  0  0  0  0  0  0  0  0
   59.6760   30.2340   50.5410 C   0  0  0  0  0  0  0  0  0  0  0  0
   59.3850   30.6200   51.8060 F   0  0  0  0  0  0  0  0  0  0  0  0
   58.6380   29.7230   49.7510 C   0  0  0  0  0  0  0  0  0  0  0  0
   57.6275   29.6224   50.1738 H   0  0  0  0  0  0  0  0  0  0  0  0
  1  2  1  0
  2  3  2  0
  3  4  1  0
  3  5  1  0
  5  6  1  0
  5  7  2  0
  7  8  1  0
  8  9  1  0
  9 10  2  0
  9 11  2  0
  9 12  1  0
 12 13  2  0
 13 14  1  0
 13 15  1  0
 15 16  1  0
 15 17  2  0
 17 18  1  0
 17 19  1  0
 19 20  1  0
 20 21  2  0
 20 22  1  0
 22 23  1  0
 23 24  2  0
 24 25  1  0
 24 26  1  0
 26 27  1  0
 26 28  2  0
 28 29  1  0
 28 30  1  0
 30 31  1  0
 31 32  2  0
 31 33  2  0
 31 34  1  0
 34 35  2  0
 35 36  1  0
 36 37  1  0
 37 38  1  0
 38 39  1  0
 39 40  1  0
 39 41  1  0
 39 42  1  0
 38 43  2  0
 43 44  1  0
 30 45  2  0
 45 46  1  0
 19 47  2  0
 47 48  1  0
  7 49  1  0
 49 50  1  0
 49 51  2  0
 51 52  1  0
 51  2  1  0
 47 12  1  0
 45 23  1  0
 43 35  1  0
M  CHG  3   8  -1  22  -1  36  -1
M  END
>  <UniqueID>  (79) 
71

>  <SMILES>  (79) 
Cc1c/c(=N/S(=O)(=O)c2cccc([N-]C(=O)c3cccc(S(=O)(=O)[N-]c4ccccc4F)c3)c2)[n-]o1

>  <Energy>  (79) 
94.55503731711443

>  <Genealogy>  (79) 
Cc1cc(=NS(=O)(=O)c2cccc([N-]C(=O)c3cccc(S(=O)(=O)[N-]c4ccccc4F)c3)c2)[n-]o1 (protonated)
Cc1c/c(=N/S(=O)(=O)c2cccc([N-]C(=O)c3cccc(S(=O)(=O)[N-]c4ccccc4F)c3)c2)[n-]o1 (cis-trans isomerization)
Cc1c/c(=N/S(=O)(=O)c2cccc([N-]C(=O)c3cccc(S(=O)(=O)[N-]c4ccccc4F)c3)c2)[n-]o1 (3D coordinates assigned)
Cc1c/c(=N/S(=O)(=O)c2cccc([N-]C(=O)c3cccc(S(=O)(=O)[N-]c4ccccc4F)c3)c2)[n-]o1 (optimized conformer: 94.55503731711443 kcal/mol)

>  <smiles>  (79) 
Cc1cc(=NS(=O)(=O)c2cccc(NC(=O)c3cccc(S(=O)(=O)Nc4ccccc4F)c3)c2)[nH]o1

>  <score_type>  (79) 
oracle

>  <origin>  (79) 
adg

>  <m_score__min__energy>  (79) 
-14.880000000000001

>  <m_primary>  (79) 
energy

$$$$
79:0
     RDKit          3D

 50 52  0  0  1  0  0  0  0  0999 V2000
   56.3610   23.8600   46.0540 C   0  0  0  0  0  0  0  0  0  0  0  0
   57.1790   25.0410   45.7520 N   0  0  0  0  0  0  0  0  0  0  0  0
   56.6350   26.3470   45.7500 C   0  0  0  0  0  0  0  0  0  0  0  0
   55.3860   26.4110   46.0310 O   0  0  0  0  0  0  0  0  0  0  0  0
   57.3670   27.5610   45.4640 C   0  0  0  0  0  0  0  0  0  0  0  0
   58.7650   27.4650   45.4320 C   0  0  0  0  0  0  0  0  0  0  0  0
   59.5410   28.5720   45.1680 C   0  0  0  0  0  0  0  0  0  0  0  0
   58.9970   29.8160   44.9220 C   0  0  0  0  0  0  0  0  0  0  0  0
   57.6260   29.9160   44.9510 C   0  0  0  0  0  0  0  0  0  0  0  0
   57.0140   31.1800   44.7050 N   0  0  0  0  0  0  0  0  0  0  0  0
   57.6380   32.1980   45.2010 C   0  0  0  0  0  0  0  0  0  0  0  0
   58.2160   32.1570   46.4360 N   0  0  0  0  0  0  0  0  0  0  0  0
   58.8570   33.2410   46.9120 C   0  0  0  0  0  0  0  0  0  0  0  0
   59.4540   33.1770   48.2070 N   0  0  0  0  0  0  0  0  0  0  0  0
   59.5200   32.0110   49.0300 C   0  0  0  0  0  0  0  0  0  0  0  0
   59.1820   30.8280   48.7500 O   0  0  0  0  0  0  0  0  0  0  0  0
   60.0490   32.4590   50.2450 O   0  0  0  0  0  0  0  0  0  0  0  0
   59.7040   33.8320   50.3330 C   0  0  0  0  0  0  0  0  0  0  0  0
   60.0960   34.2710   48.9150 C   0  0  1  0  0  0  0  0  0  0  0  0
   61.6270   34.1640   48.8580 C   0  0  1  0  0  0  0  0  0  0  0  0
   62.1540   34.1860   50.2770 C   0  0  0  0  0  0  0  0  0  0  0  0
   61.9640   32.9060   48.3120 O   0  0  0  0  0  0  0  0  0  0  0  0
   62.9190   32.6680   47.3630 C   0  0  0  0  0  0  0  0  0  0  0  0
   63.3880   33.8280   46.5430 C   0  0  0  0  0  0  0  0  0  0  0  0
   63.4210   31.5530   47.1420 O   0  0  0  0  0  0  0  0  0  0  0  0
   58.9510   34.4080   46.1830 C   0  0  0  0  0  0  0  0  0  0  0  0
   58.3570   34.4380   44.9240 C   0  0  0  0  0  0  0  0  0  0  0  0
   57.7120   33.3280   44.4580 N   0  0  0  0  0  0  0  0  0  0  0  0
   56.8440   28.7890   45.2210 C   0  0  0  0  0  0  0  0  0  0  0  0
   55.5160   28.9770   45.2300 F   0  0  0  0  0  0  0  0  0  0  0  0
   56.2782   23.7404   47.1443 H   0  0  0  0  0  0  0  0  0  0  0  0
   55.3576   23.9887   45.6220 H   0  0  0  0  0  0  0  0  0  0  0  0
   56.8343   22.9659   45.6220 H   0  0  0  0  0  0  0  0  0  0  0  0
   58.1740   24.8610   45.5410 H   0  0  0  0  0  0  0  0  0  0  0  0
   59.2479   26.4947   45.6198 H   0  0  0  0  0  0  0  0  0  0  0  0
   60.6352   28.4602   45.1527 H   0  0  0  0  0  0  0  0  0  0  0  0
   59.6322   30.6892   44.7120 H   0  0  0  0  0  0  0  0  0  0  0  0
   58.6309   33.9758   50.5272 H   0  0  0  0  0  0  0  0  0  0  0  0
   60.1858   34.3888   51.1502 H   0  0  0  0  0  0  0  0  0  0  0  0
   59.8249   35.2741   48.5539 H   0  0  0  0  0  0  0  0  0  0  0  0
   62.0451   34.9863   48.2588 H   0  0  0  0  0  0  0  0  0  0  0  0
   61.3104   34.1508   50.9820 H   0  0  0  0  0  0  0  0  0  0  0  0
   62.8047   33.3142   50.4400 H   0  0  0  0  0  0  0  0  0  0  0  0
   62.7298   35.1090   50.4400 H   0  0  0  0  0  0  0  0  0  0  0  0
   63.7160   34.6393   47.2094 H   0  0  0  0  0  0  0  0  0  0  0  0
   64.2291   33.5122   45.9083 H   0  0  0  0  0  0  0  0  0  0  0  0
   62.5638   34.1855   45.9083 H   0  0  0  0  0  0  0  0  0  0  0  0
   59.4782   35.2866   46.5832 H   0  0  0  0  0  0  0  0  0  0  0  0
   58.4069   35.3489   44.3093 H   0  0  0  0  0  0  0  0  0  0  0  0
   57.2930   33.4060   43.5240 H   0  0  0  0  0  0  0  0  0  0  0  0
  1  2  1  0
  2  3  1  0
  3  4  2  0
  3  5  1  0
  5  6  2  0
  6  7  1  0
  7  8  2  0
  8  9  1  0
  9 10  1  0
 10 11  2  0
 11 12  1  0
 12 13  2  0
 13 14  1  0
 14 15  1  0
 15 16  2  0
 15 17  1  0
 17 18  1  0
 18 19  1  0
 19 20  1  0
 20 21  1  0
 20 22  1  0
 22 23  1  0
 23 24  1  0
 23 25  2  0
 13 26  1  0
 26 27  2  0
 27 28  1  0
  9 29  2  0
 29 30  1  0
 29  5  1  0
 28 11  1  0
 19 14  1  0
  1 31  1  0
  1 32  1  0
  1 33  1  0
  2 34  1  0
  6 35  1  0
  7 36  1  0
  8 37  1  0
 18 38  1  0
 18 39  1  0
 19 40  1  6
 20 41  1  6
 21 42  1  0
 21 43  1  0
 21 44  1  0
 24 45  1  0
 24 46  1  0
 24 47  1  0
 26 48  1  0
 27 49  1  0
 28 50  1  0
M  END
>  <smiles>  (80) 
CNC(=O)c1cccc(N=c2nc(N3C(=O)OCC3C(C)OC(C)=O)cc[nH]2)c1F

>  <score_type>  (80) 
oracle

>  <origin>  (80) 
adg

>  <m_score__min__energy>  (80) 
-8.8800000000000008

>  <m_primary>  (80) 
energy

$$$$
80:0
     RDKit          3D

 50 52  0  0  0  0  0  0  0  0999 V2000
   60.7440   28.5210   45.3990 C   0  0  0  0  0  0  0  0  0  0  0  0
   60.2420   29.9130   45.7690 C   0  0  0  0  0  0  0  0  0  0  0  0
   58.9870   29.8450   46.5270 N   0  0  0  0  0  0  0  0  0  0  0  0
   58.5560   30.9710   47.3550 C   0  0  0  0  0  0  0  0  0  0  0  0
   58.5210   32.2330   46.5420 C   0  0  0  0  0  0  0  0  0  0  0  0
   57.7670   32.2980   45.3590 C   0  0  0  0  0  0  0  0  0  0  0  0
   57.7830   33.4580   44.5750 C   0  0  0  0  0  0  0  0  0  0  0  0
   58.5480   34.5580   44.9690 C   0  0  0  0  0  0  0  0  0  0  0  0
   59.3010   34.5010   46.1450 C   0  0  0  0  0  0  0  0  0  0  0  0
   59.2890   33.3430   46.9290 C   0  0  0  0  0  0  0  0  0  0  0  0
   58.1870   28.6560   46.4860 C   0  0  0  0  0  0  0  0  0  0  0  0
   58.2460   27.8300   47.4340 O   0  0  0  0  0  0  0  0  0  0  0  0
   57.2660   28.3890   45.3280 C   0  0  0  0  0  0  0  0  0  0  0  0
   55.9830   27.7560   45.6140 N   0  0  0  0  0  0  0  0  0  0  0  0
   55.7970   26.3860   45.9920 C   0  0  0  0  0  0  0  0  0  0  0  0
   54.6270   25.9160   45.9940 O   0  0  0  0  0  0  0  0  0  0  0  0
   56.9040   25.5590   46.3920 N   0  0  0  0  0  0  0  0  0  0  0  0
   56.7610   24.1250   46.6380 C   0  0  0  0  0  0  0  0  0  0  0  0
   56.8760   23.3570   45.3450 C   0  0  0  0  0  0  0  0  0  0  0  0
   57.7330   22.2470   45.2410 C   0  0  0  0  0  0  0  0  0  0  0  0
   57.7890   21.5030   44.0590 C   0  0  0  0  0  0  0  0  0  0  0  0
   56.9720   21.8460   42.9780 C   0  0  0  0  0  0  0  0  0  0  0  0
   56.1250   22.9550   43.0670 C   0  0  0  0  0  0  0  0  0  0  0  0
   56.0860   23.7180   44.2390 C   0  0  0  0  0  0  0  0  0  0  0  0
   57.9670   27.7470   44.1430 C   0  0  0  0  0  0  0  0  0  0  0  0
   57.3890   29.1480   44.0160 C   0  0  0  0  0  0  0  0  0  0  0  0
   60.9500   27.9497   46.3162 H   0  0  0  0  0  0  0  0  0  0  0  0
   59.9771   28.0000   44.8070 H   0  0  0  0  0  0  0  0  0  0  0  0
   61.6669   28.6094   44.8070 H   0  0  0  0  0  0  0  0  0  0  0  0
   61.0037   30.4170   46.3820 H   0  0  0  0  0  0  0  0  0  0  0  0
   60.0560   30.4724   44.8403 H   0  0  0  0  0  0  0  0  0  0  0  0
   57.5502   30.7663   47.7506 H   0  0  0  0  0  0  0  0  0  0  0  0
   59.2683   31.0989   48.1834 H   0  0  0  0  0  0  0  0  0  0  0  0
   57.1615   31.4342   45.0471 H   0  0  0  0  0  0  0  0  0  0  0  0
   57.1925   33.5030   43.6480 H   0  0  0  0  0  0  0  0  0  0  0  0
   58.5579   35.4696   44.3535 H   0  0  0  0  0  0  0  0  0  0  0  0
   59.9036   35.3677   46.4542 H   0  0  0  0  0  0  0  0  0  0  0  0
   59.8840   33.3015   47.8532 H   0  0  0  0  0  0  0  0  0  0  0  0
   57.8500   25.9830   46.5160 H   0  0  0  0  0  0  0  0  0  0  0  0
   57.5518   23.7947   47.3276 H   0  0  0  0  0  0  0  0  0  0  0  0
   55.7716   23.9351   47.0797 H   0  0  0  0  0  0  0  0  0  0  0  0
   58.3638   21.9622   46.0959 H   0  0  0  0  0  0  0  0  0  0  0  0
   58.4760   20.6476   43.9795 H   0  0  0  0  0  0  0  0  0  0  0  0
   56.9953   21.2438   42.0578 H   0  0  0  0  0  0  0  0  0  0  0  0
   55.4876   23.2283   42.2132 H   0  0  0  0  0  0  0  0  0  0  0  0
   55.4353   24.6031   44.2956 H   0  0  0  0  0  0  0  0  0  0  0  0
   59.0572   27.6015   44.1618 H   0  0  0  0  0  0  0  0  0  0  0  0
   57.8506   26.8045   43.5879 H   0  0  0  0  0  0  0  0  0  0  0  0
   58.0609   30.0159   43.9434 H   0  0  0  0  0  0  0  0  0  0  0  0
   56.6814   29.6389   43.3316 H   0  0  0  0  0  0  0  0  0  0  0  0
  1  2  1  0
  2  3  1  0
  3  4  1  0
  4  5  1  0
  5  6  2  0
  6  7  1  0
  7  8  2  0
  8  9  1  0
  9 10  2  0
  3 11  1  0
 11 12  2  0
 11 13  1  0
 13 14  1  0
 14 15  1  0
 15 16  2  0
 15 17  1  0
 17 18  1  0
 18 19  1  0
 19 20  2  0
 20 21  1  0
 21 22  2  0
 22 23  1  0
 23 24  2  0
 13 25  1  0
 25 26  1  0
 10  5  1  0
 26 13  1  0
 24 19  1  0
  1 27  1  0
  1 28  1  0
  1 29  1  0
  2 30  1  0
  2 31  1  0
  4 32  1  0
  4 33  1  0
  6 34  1  0
  7 35  1  0
  8 36  1  0
  9 37  1  0
 10 38  1  0
 17 39  1  0
 18 40  1  0
 18 41  1  0
 20 42  1  0
 21 43  1  0
 22 44  1  0
 23 45  1  0
 24 46  1  0
 25 47  1  0
 25 48  1  0
 26 49  1  0
 26 50  1  0
M  CHG  1  14  -1
M  END
>  <UniqueID>  (81) 
72

>  <SMILES>  (81) 
CCN(Cc1ccccc1)C(=O)C1([N-]C(=O)NCc2ccccc2)CC1

>  <Energy>  (81) 
313.0023628101452

>  <Genealogy>  (81) 
CCN(Cc1ccccc1)C(=O)C1([N-]C(=O)NCc2ccccc2)CC1 (protonated)
CCN(Cc1ccccc1)C(=O)C1([N-]C(=O)NCc2ccccc2)CC1 (3D coordinates assigned)
CCN(Cc1ccccc1)C(=O)C1([N-]C(=O)NCc2ccccc2)CC1 (nonaromatic ring conformer: 313.0023628101452 kcal/mol)

>  <smiles>  (81) 
CCN(Cc1ccccc1)C(=O)C1(NC(=O)NCc2ccccc2)CC1

>  <score_type>  (81) 
oracle

>  <origin>  (81) 
adg

>  <m_score__min__energy>  (81) 
-10.43

>  <m_primary>  (81) 
energy

$$$$
81:0
     RDKit          3D

 50 53  0  0  0  0  0  0  0  0999 V2000
   58.9620   29.7150   48.8560 C   0  0  0  0  0  0  0  0  0  0  0  0
   60.0450   30.6420   48.3850 C   0  0  0  0  0  0  0  0  0  0  0  0
   61.3320   30.5550   48.9260 C   0  0  0  0  0  0  0  0  0  0  0  0
   62.3350   31.4180   48.4930 C   0  0  0  0  0  0  0  0  0  0  0  0
   62.0620   32.4050   47.5340 C   0  0  0  0  0  0  0  0  0  0  0  0
   63.1680   33.3140   47.0590 C   0  0  0  0  0  0  0  0  0  0  0  0
   60.7620   32.5060   46.9880 C   0  0  0  0  0  0  0  0  0  0  0  0
   60.4960   33.5030   45.9900 N   0  0  0  0  0  0  0  0  0  0  0  0
   58.9240   34.0980   45.5510 S   0  0  0  0  0  0  0  0  0  0  0  0
   58.0760   34.2710   46.7790 O   0  0  0  0  0  0  0  0  0  0  0  0
   59.0750   35.4390   44.8850 O   0  0  0  0  0  0  0  0  0  0  0  0
   58.1770   32.9820   44.4110 C   0  0  0  0  0  0  0  0  0  0  0  0
   58.4740   33.0900   43.0470 C   0  0  0  0  0  0  0  0  0  0  0  0
   57.9220   32.1920   42.1330 C   0  0  0  0  0  0  0  0  0  0  0  0
   57.0800   31.1690   42.5750 C   0  0  0  0  0  0  0  0  0  0  0  0
   56.7830   31.0360   43.9440 C   0  0  0  0  0  0  0  0  0  0  0  0
   55.9440   29.9130   44.4150 C   0  0  0  0  0  0  0  0  0  0  0  0
   54.9680   29.5130   43.7200 O   0  0  0  0  0  0  0  0  0  0  0  0
   56.2580   29.2720   45.6230 O   0  0  0  0  0  0  0  0  0  0  0  0
   57.2760   28.3150   45.7860 C   0  0  0  0  0  0  0  0  0  0  0  0
   58.6380   28.6730   45.7840 C   0  0  0  0  0  0  0  0  0  0  0  0
   59.6300   27.6910   45.8950 C   0  0  0  0  0  0  0  0  0  0  0  0
   59.2800   26.3440   46.0110 C   0  0  0  0  0  0  0  0  0  0  0  0
   57.9290   25.9700   46.0100 C   0  0  0  0  0  0  0  0  0  0  0  0
   57.5480   24.6260   46.1110 C   0  0  0  0  0  0  0  0  0  0  0  0
   56.1940   24.2840   46.0970 C   0  0  0  0  0  0  0  0  0  0  0  0
   55.2280   25.2910   45.9840 C   0  0  0  0  0  0  0  0  0  0  0  0
   54.0030   24.9960   45.9700 O   0  0  0  0  0  0  0  0  0  0  0  0
   55.6120   26.5930   45.8880 N   0  0  0  0  0  0  0  0  0  0  0  0
   56.9240   26.9600   45.8960 C   0  0  0  0  0  0  0  0  0  0  0  0
   57.3250   31.9600   44.8570 C   0  0  0  0  0  0  0  0  0  0  0  0
   59.7590   31.6280   47.4310 C   0  0  0  0  0  0  0  0  0  0  0  0
   58.9447   29.7002   49.9558 H   0  0  0  0  0  0  0  0  0  0  0  0
   57.9899   30.0651   48.4787 H   0  0  0  0  0  0  0  0  0  0  0  0
   59.1580   28.7005   48.4787 H   0  0  0  0  0  0  0  0  0  0  0  0
   61.5525   29.8017   49.6967 H   0  0  0  0  0  0  0  0  0  0  0  0
   63.3502   31.3252   48.9063 H   0  0  0  0  0  0  0  0  0  0  0  0
   63.6892   33.7423   47.9279 H   0  0  0  0  0  0  0  0  0  0  0  0
   63.8810   32.7374   46.4514 H   0  0  0  0  0  0  0  0  0  0  0  0
   62.7404   34.1252   46.4514 H   0  0  0  0  0  0  0  0  0  0  0  0
   59.1457   33.8866   42.6944 H   0  0  0  0  0  0  0  0  0  0  0  0
   58.1505   32.2899   41.0615 H   0  0  0  0  0  0  0  0  0  0  0  0
   56.6472   30.4642   41.8498 H   0  0  0  0  0  0  0  0  0  0  0  0
   58.9245   29.7313   45.6946 H   0  0  0  0  0  0  0  0  0  0  0  0
   60.6908   27.9821   45.8908 H   0  0  0  0  0  0  0  0  0  0  0  0
   60.0635   25.5774   46.1030 H   0  0  0  0  0  0  0  0  0  0  0  0
   58.3137   23.8414   46.2012 H   0  0  0  0  0  0  0  0  0  0  0  0
   55.8885   23.2301   46.1743 H   0  0  0  0  0  0  0  0  0  0  0  0
   57.0793   31.8806   45.9263 H   0  0  0  0  0  0  0  0  0  0  0  0
   58.7402   31.7151   47.0256 H   0  0  0  0  0  0  0  0  0  0  0  0
  1  2  1  0
  2  3  2  0
  3  4  1  0
  4  5  2  0
  5  6  1  0
  5  7  1  0
  7  8  1  0
  8  9  1  0
  9 10  2  0
  9 11  2  0
  9 12  1  0
 12 13  2  0
 13 14  1  0
 14 15  2  0
 15 16  1  0
 16 17  1  0
 17 18  2  0
 17 19  1  0
 19 20  1  0
 20 21  2  0
 21 22  1  0
 22 23  2  0
 23 24  1  0
 24 25  1  0
 25 26  2  0
 26 27  1  0
 27 28  2  0
 27 29  1  0
 29 30  1  0
 16 31  2  0
  7 32  2  0
 32  2  1  0
 31 12  1  0
 30 20  1  0
 30 24  2  0
  1 33  1  0
  1 34  1  0
  1 35  1  0
  3 36  1  0
  4 37  1  0
  6 38  1  0
  6 39  1  0
  6 40  1  0
 13 41  1  0
 14 42  1  0
 15 43  1  0
 21 44  1  0
 22 45  1  0
 23 46  1  0
 25 47  1  0
 26 48  1  0
 31 49  1  0
 32 50  1  0
M  CHG  2   8  -1  29  -1
M  END
>  <UniqueID>  (82) 
73

>  <SMILES>  (82) 
Cc1ccc(C)c([N-]S(=O)(=O)c2cccc(C(=O)Oc3cccc4ccc(=O)[n-]c34)c2)c1

>  <Energy>  (82) 
66.14557680351427

>  <Genealogy>  (82) 
Cc1ccc(C)c([N-]S(=O)(=O)c2cccc(C(=O)Oc3cccc4ccc(=O)[n-]c34)c2)c1 (protonated)
Cc1ccc(C)c([N-]S(=O)(=O)c2cccc(C(=O)Oc3cccc4ccc(=O)[n-]c34)c2)c1 (3D coordinates assigned)
Cc1ccc(C)c([N-]S(=O)(=O)c2cccc(C(=O)Oc3cccc4ccc(=O)[n-]c34)c2)c1 (optimized conformer: 66.14557680351427 kcal/mol)

>  <smiles>  (82) 
Cc1ccc(C)c(NS(=O)(=O)c2cccc(C(=O)Oc3cccc4ccc(=O)[nH]c34)c2)c1

>  <score_type>  (82) 
oracle

>  <origin>  (82) 
adg

>  <m_score__min__energy>  (82) 
-14.16

>  <m_primary>  (82) 
energy

$$$$
82:0
     RDKit          3D

 57 59  0  0  1  0  0  0  0  0999 V2000
   58.4920   31.5230   50.1430 C   0  0  0  0  0  0  0  0  0  0  0  0
   59.2340   31.3970   51.4600 C   0  0  0  0  0  0  0  0  0  0  0  0
   60.2590   30.2960   51.3030 C   0  0  0  0  0  0  0  0  0  0  0  0
   60.4320   30.0140   49.8920 N   0  0  0  0  0  0  0  0  0  0  0  0
   60.4790   28.6150   49.5430 C   0  0  0  0  0  0  0  0  0  0  0  0
   60.3590   27.8240   50.5210 O   0  0  0  0  0  0  0  0  0  0  0  0
   60.6470   28.1710   48.2170 N   0  0  0  0  0  0  0  0  0  0  0  0
   60.6980   26.7820   47.8100 C   0  0  0  0  0  0  0  0  0  0  0  0
   59.6430   26.5430   46.7970 C   0  0  0  0  0  0  0  0  0  0  0  0
   59.3570   25.3120   46.2530 C   0  0  0  0  0  0  0  0  0  0  0  0
   58.3630   25.1110   45.3060 C   0  0  0  0  0  0  0  0  0  0  0  0
   57.6450   26.2470   44.9150 C   0  0  0  0  0  0  0  0  0  0  0  0
   57.9120   27.4880   45.4450 C   0  0  0  0  0  0  0  0  0  0  0  0
   57.1710   28.6940   45.0460 C   0  0  0  0  0  0  0  0  0  0  0  0
   57.7480   29.9020   44.8070 C   0  0  0  0  0  0  0  0  0  0  0  0
   56.7450   30.7630   44.4660 C   0  0  0  0  0  0  0  0  0  0  0  0
   56.8990   32.0000   44.1680 N   0  0  0  0  0  0  0  0  0  0  0  0
   57.9470   32.8190   44.6890 C   0  0  0  0  0  0  0  0  0  0  0  0
   58.6990   33.4980   43.9590 O   0  0  0  0  0  0  0  0  0  0  0  0
   58.0840   32.8070   46.1880 C   0  0  0  0  0  0  0  0  0  0  0  0
   59.5200   32.8020   46.5490 C   0  0  0  0  0  0  0  0  0  0  0  0
   60.2220   33.9770   46.3570 C   0  0  0  0  0  0  0  0  0  0  0  0
   61.5170   34.0360   46.6630 N   0  0  0  0  0  0  0  0  0  0  0  0
   62.2200   32.9940   47.1680 C   0  0  0  0  0  0  0  0  0  0  0  0
   63.6640   33.1640   47.4770 C   0  0  0  0  0  0  0  0  0  0  0  0
   61.5350   31.8150   47.3670 C   0  0  0  0  0  0  0  0  0  0  0  0
   60.1760   31.7040   47.0590 C   0  0  0  0  0  0  0  0  0  0  0  0
   59.5390   30.6310   47.2360 O   0  0  0  0  0  0  0  0  0  0  0  0
   55.5720   30.0980   44.4930 N   0  0  0  0  0  0  0  0  0  0  0  0
   55.8500   28.8400   44.8480 N   0  0  0  0  0  0  0  0  0  0  0  0
   58.9090   27.6320   46.3820 C   0  0  0  0  0  0  0  0  0  0  0  0
   57.4249   31.7042   50.3392 H   0  0  0  0  0  0  0  0  0  0  0  0
   58.9069   32.3636   49.5674 H   0  0  0  0  0  0  0  0  0  0  0  0
   58.6061   30.5926   49.5674 H   0  0  0  0  0  0  0  0  0  0  0  0
   59.7362   32.3458   51.7000 H   0  0  0  0  0  0  0  0  0  0  0  0
   58.5354   31.1613   52.2763 H   0  0  0  0  0  0  0  0  0  0  0  0
   61.2175   30.6193   51.7352 H   0  0  0  0  0  0  0  0  0  0  0  0
   59.9164   29.3904   51.8250 H   0  0  0  0  0  0  0  0  0  0  0  0
   60.5200   30.7430   49.1540 H   0  0  0  0  0  0  0  0  0  0  0  0
   60.7410   28.9340   47.4820 H   0  0  0  0  0  0  0  0  0  0  0  0
   61.6842   26.5596   47.3765 H   0  0  0  0  0  0  0  0  0  0  0  0
   60.5346   26.1306   48.6812 H   0  0  0  0  0  0  0  0  0  0  0  0
   59.9456   24.4441   46.5853 H   0  0  0  0  0  0  0  0  0  0  0  0
   58.1515   24.1163   44.8868 H   0  0  0  0  0  0  0  0  0  0  0  0
   56.8470   26.1449   44.1649 H   0  0  0  0  0  0  0  0  0  0  0  0
   58.8197   30.1402   44.8755 H   0  0  0  0  0  0  0  0  0  0  0  0
   57.6028   33.7026   46.6080 H   0  0  0  0  0  0  0  0  0  0  0  0
   57.5990   31.9074   46.5948 H   0  0  0  0  0  0  0  0  0  0  0  0
   59.7115   34.8630   45.9517 H   0  0  0  0  0  0  0  0  0  0  0  0
   61.9990   34.9580   46.4950 H   0  0  0  0  0  0  0  0  0  0  0  0
   63.8061   33.1807   48.5677 H   0  0  0  0  0  0  0  0  0  0  0  0
   64.2323   32.3266   47.0460 H   0  0  0  0  0  0  0  0  0  0  0  0
   64.0222   34.1105   47.0460 H   0  0  0  0  0  0  0  0  0  0  0  0
   62.0680   30.9441   47.7762 H   0  0  0  0  0  0  0  0  0  0  0  0
   54.6390   30.5190   44.2730 H   0  0  0  0  0  0  0  0  0  0  0  0
   55.1440   28.0770   44.9590 H   0  0  0  0  0  0  0  0  0  0  0  0
   59.1218   28.6255   46.8034 H   0  0  0  0  0  0  0  0  0  0  0  0
  1  2  1  0
  2  3  1  0
  3  4  1  0
  4  5  1  0
  5  6  2  0
  5  7  1  0
  7  8  1  0
  8  9  1  0
  9 10  2  0
 10 11  1  0
 11 12  2  0
 12 13  1  0
 13 14  1  0
 14 15  2  0
 15 16  1  0
 16 17  2  0
 17 18  1  0
 18 19  2  0
 18 20  1  0
 20 21  1  0
 21 22  2  0
 22 23  1  0
 23 24  1  0
 24 25  1  0
 24 26  2  0
 26 27  1  0
 27 28  2  0
 16 29  1  0
 29 30  1  0
 13 31  2  0
 31  9  1  0
 30 14  1  0
 27 21  1  0
  1 32  1  0
  1 33  1  0
  1 34  1  0
  2 35  1  0
  2 36  1  0
  3 37  1  0
  3 38  1  0
  4 39  1  0
  7 40  1  0
  8 41  1  0
  8 42  1  0
 10 43  1  0
 11 44  1  0
 12 45  1  0
 15 46  1  0
 20 47  1  0
 20 48  1  0
 22 49  1  0
 23 50  1  0
 25 51  1  0
 25 52  1  0
 25 53  1  0
 26 54  1  0
 29 55  1  0
 30 56  1  0
 31 57  1  0
M  END
>  <smiles>  (83) 
CCCNC(=O)NCc1cccc(-c2cc(=NC(=O)Cc3c[nH]c(C)cc3=O)[nH][nH]2)c1

>  <score_type>  (83) 
oracle

>  <origin>  (83) 
adg

>  <m_score__min__energy>  (83) 
-9.8499999999999996

>  <m_primary>  (83) 
energy

$$$$
83:0
     RDKit          3D

 51 55  0  0  1  0  0  0  0  0999 V2000
   53.0770   23.3410   44.7880 N   0  0  0  0  0  0  0  0  0  0  0  0
   54.3250   22.9790   44.9540 C   0  0  0  0  0  0  0  0  0  0  0  0
   55.3280   23.6750   44.2740 C   0  0  0  0  0  0  0  0  0  0  0  0
   56.6460   23.2750   44.4650 C   0  0  0  0  0  0  0  0  0  0  0  0
   57.6950   23.9160   43.8270 O   0  0  0  0  0  0  0  0  0  0  0  0
   57.7780   25.2920   43.8920 C   0  0  0  0  0  0  0  0  0  0  0  0
   57.7040   25.9970   42.7220 C   0  0  0  0  0  0  0  0  0  0  0  0
   57.7740   27.3770   42.6470 C   0  0  0  0  0  0  0  0  0  0  0  0
   57.9290   28.0680   43.8500 C   0  0  0  0  0  0  0  0  0  0  0  0
   57.9970   29.4880   43.7520 N   0  0  0  0  0  0  0  0  0  0  0  0
   56.9790   30.3430   44.2690 C   0  0  0  0  0  0  0  0  0  0  0  0
   55.9740   29.8430   44.8360 O   0  0  0  0  0  0  0  0  0  0  0  0
   57.1700   31.7460   44.1060 N   0  0  0  0  0  0  0  0  0  0  0  0
   57.7710   32.4690   44.9770 C   0  0  0  0  0  0  0  0  0  0  0  0
   58.5260   33.5580   44.5980 C   0  0  0  0  0  0  0  0  0  0  0  0
   59.1340   34.2760   45.6080 C   0  0  0  0  0  0  0  0  0  0  0  0
   58.9810   33.9060   46.9300 C   0  0  0  0  0  0  0  0  0  0  0  0
   59.6220   34.6600   48.0380 C   0  0  0  0  0  0  0  0  0  0  0  0
   59.6860   33.9900   49.4100 C   0  0  0  0  0  0  0  0  0  0  0  0
   60.9270   34.2130   48.5940 C   0  0  0  0  0  0  0  0  0  0  0  0
   58.2170   32.8090   47.2760 C   0  0  0  0  0  0  0  0  0  0  0  0
   57.6380   32.1310   46.2680 N   0  0  0  0  0  0  0  0  0  0  0  0
   58.0070   27.3910   45.0510 C   0  0  0  0  0  0  0  0  0  0  0  0
   58.1620   28.1150   46.2240 C   0  0  0  0  0  0  0  0  0  0  0  0
   58.2430   27.4180   47.4300 C   0  0  0  0  0  0  0  0  0  0  0  0
   58.1660   26.0270   47.4420 C   0  0  0  0  0  0  0  0  0  0  0  0
   58.0110   25.3320   46.2600 C   0  0  0  0  0  0  0  0  0  0  0  0
   57.9310   26.0060   45.0600 C   0  0  0  0  0  0  0  0  0  0  0  0
   56.9420   22.2370   45.2890 N   0  0  0  0  0  0  0  0  0  0  0  0
   55.9390   21.5880   45.9290 C   0  0  0  0  0  0  0  0  0  0  0  0
   54.6530   21.9490   45.7660 N   0  0  0  0  0  0  0  0  0  0  0  0
   52.5800   23.5810   45.6890 H   0  0  0  0  0  0  0  0  0  0  0  0
   55.0821   24.5146   43.6072 H   0  0  0  0  0  0  0  0  0  0  0  0
   57.5816   25.4335   41.7853 H   0  0  0  0  0  0  0  0  0  0  0  0
   57.7104   27.9050   41.6841 H   0  0  0  0  0  0  0  0  0  0  0  0
   58.8600   29.8690   43.2680 H   0  0  0  0  0  0  0  0  0  0  0  0
   58.6387   33.8414   43.5411 H   0  0  0  0  0  0  0  0  0  0  0  0
   59.7479   35.1536   45.3570 H   0  0  0  0  0  0  0  0  0  0  0  0
   59.2489   35.6134   47.6358 H   0  0  0  0  0  0  0  0  0  0  0  0
   59.5103   34.5791   50.3222 H   0  0  0  0  0  0  0  0  0  0  0  0
   59.2031   33.1222   49.8830 H   0  0  0  0  0  0  0  0  0  0  0  0
   61.6667   34.9598   48.9184 H   0  0  0  0  0  0  0  0  0  0  0  0
   61.7353   33.5617   48.2301 H   0  0  0  0  0  0  0  0  0  0  0  0
   58.0879   32.5040   48.3250 H   0  0  0  0  0  0  0  0  0  0  0  0
   57.0570   31.2960   46.5330 H   0  0  0  0  0  0  0  0  0  0  0  0
   58.2197   29.2133   46.2039 H   0  0  0  0  0  0  0  0  0  0  0  0
   58.3680   27.9684   48.3741 H   0  0  0  0  0  0  0  0  0  0  0  0
   58.2289   25.4818   48.3953 H   0  0  0  0  0  0  0  0  0  0  0  0
   57.9509   24.2337   46.2753 H   0  0  0  0  0  0  0  0  0  0  0  0
   57.9430   21.9670   45.4070 H   0  0  0  0  0  0  0  0  0  0  0  0
   56.1815   20.7478   46.5963 H   0  0  0  0  0  0  0  0  0  0  0  0
  1  2  2  3
  2  3  1  0
  3  4  2  0
  4  5  1  0
  5  6  1  0
  6  7  2  0
  7  8  1  0
  8  9  2  0
  9 10  1  0
 10 11  1  0
 11 12  2  0
 11 13  1  0
 13 14  2  0
 14 15  1  0
 15 16  2  0
 16 17  1  0
 17 18  1  0
 18 19  1  0
 19 20  1  0
 17 21  2  0
 21 22  1  0
  9 23  1  0
 23 24  2  0
 24 25  1  0
 25 26  2  0
 26 27  1  0
 27 28  2  0
  4 29  1  0
 29 30  1  0
 30 31  2  0
 31  2  1  0
 28  6  1  0
 22 14  1  0
 28 23  1  0
 20 18  1  0
  1 32  1  0
  3 33  1  0
  7 34  1  0
  8 35  1  0
 10 36  1  0
 15 37  1  0
 16 38  1  0
 18 39  1  0
 19 40  1  0
 19 41  1  0
 20 42  1  0
 20 43  1  0
 21 44  1  0
 22 45  1  0
 24 46  1  0
 25 47  1  0
 26 48  1  0
 27 49  1  0
 29 50  1  0
 30 51  1  0
M  END
>  <smiles>  (84) 
N=c1cc(Oc2ccc(NC(=O)N=c3ccc(C4CC4)c[nH]3)c3ccccc23)[nH]cn1

>  <score_type>  (84) 
oracle

>  <origin>  (84) 
adg

>  <m_score__min__energy>  (84) 
-9.0999999999999996

>  <m_primary>  (84) 
energy

$$$$
84:0
     RDKit          3D

 52 55  0  0  0  0  0  0  0  0999 V2000
   55.6356   21.5453   42.3059 H   0  0  0  0  0  0  0  0  0  0  0  0
   56.3510   21.7200   43.1230 C   0  0  0  0  0  0  0  0  0  0  0  0
   55.9700   22.1970   44.3370 N   0  0  0  0  0  0  0  0  0  0  0  0
   57.0270   22.3280   45.1680 C   0  0  0  0  0  0  0  0  0  0  0  0
   56.9430   22.7620   46.3870 N   0  0  0  0  0  0  0  0  0  0  0  0
   56.2290   24.2840   46.8160 S   0  0  0  0  0  0  0  0  0  0  0  0
   54.9850   24.4850   45.9970 O   0  0  0  0  0  0  0  0  0  0  0  0
   55.8380   24.2850   48.2680 O   0  0  0  0  0  0  0  0  0  0  0  0
   57.3710   25.5860   46.4930 C   0  0  0  0  0  0  0  0  0  0  0  0
   58.7380   25.3060   46.3690 C   0  0  0  0  0  0  0  0  0  0  0  0
   59.0999   24.2740   46.4878 H   0  0  0  0  0  0  0  0  0  0  0  0
   59.6420   26.3340   46.0950 C   0  0  0  0  0  0  0  0  0  0  0  0
   60.7145   26.1092   45.9992 H   0  0  0  0  0  0  0  0  0  0  0  0
   59.1900   27.6470   45.9420 C   0  0  0  0  0  0  0  0  0  0  0  0
   59.9086   28.4551   45.7406 H   0  0  0  0  0  0  0  0  0  0  0  0
   57.8190   27.9370   46.0450 C   0  0  0  0  0  0  0  0  0  0  0  0
   57.3130   29.2750   45.9230 N   0  0  0  0  0  0  0  0  0  0  0  0
   56.4520   29.7660   44.8860 C   0  0  0  0  0  0  0  0  0  0  0  0
   55.2560   29.3740   44.8190 O   0  0  0  0  0  0  0  0  0  0  0  0
   56.9710   30.7520   43.9080 C   0  0  0  0  0  0  0  0  0  0  0  0
   56.6240   30.6130   42.5520 C   0  0  0  0  0  0  0  0  0  0  0  0
   56.0192   29.7522   42.2307 H   0  0  0  0  0  0  0  0  0  0  0  0
   57.0390   31.5560   41.6090 C   0  0  0  0  0  0  0  0  0  0  0  0
   56.7549   31.4378   40.5529 H   0  0  0  0  0  0  0  0  0  0  0  0
   57.8120   32.6460   42.0030 C   0  0  0  0  0  0  0  0  0  0  0  0
   58.1295   33.3917   41.2593 H   0  0  0  0  0  0  0  0  0  0  0  0
   58.1840   32.7930   43.3400 C   0  0  0  0  0  0  0  0  0  0  0  0
   58.8066   33.6481   43.6419 H   0  0  0  0  0  0  0  0  0  0  0  0
   57.7700   31.8580   44.3040 C   0  0  0  0  0  0  0  0  0  0  0  0
   58.2360   31.9800   45.6570 N   0  0  0  0  0  0  0  0  0  0  0  0
   58.4240   31.1060   46.1980 H   0  0  0  0  0  0  0  0  0  0  0  0
   58.3110   33.2350   46.3490 C   0  0  0  0  0  0  0  0  0  0  0  0
   58.0480   34.3140   45.7520 O   0  0  0  0  0  0  0  0  0  0  0  0
   58.6240   33.2620   47.8130 C   0  0  0  0  0  0  0  0  0  0  0  0
   58.0792   34.0914   48.2876 H   0  0  0  0  0  0  0  0  0  0  0  0
   58.3171   32.3084   48.2674 H   0  0  0  0  0  0  0  0  0  0  0  0
   60.1010   33.4550   48.0150 C   0  0  0  0  0  0  0  0  0  0  0  0
   60.5960   33.9350   49.2410 C   0  0  0  0  0  0  0  0  0  0  0  0
   59.9032   34.1371   50.0712 H   0  0  0  0  0  0  0  0  0  0  0  0
   61.9680   34.1560   49.4070 C   0  0  0  0  0  0  0  0  0  0  0  0
   62.3512   34.5284   50.3685 H   0  0  0  0  0  0  0  0  0  0  0  0
   62.8520   33.9050   48.3550 C   0  0  0  0  0  0  0  0  0  0  0  0
   63.9302   34.0756   48.4904 H   0  0  0  0  0  0  0  0  0  0  0  0
   62.3670   33.4370   47.1300 C   0  0  0  0  0  0  0  0  0  0  0  0
   63.0635   33.2417   46.3013 H   0  0  0  0  0  0  0  0  0  0  0  0
   60.9960   33.2170   46.9580 C   0  0  0  0  0  0  0  0  0  0  0  0
   60.6168   32.8559   45.9906 H   0  0  0  0  0  0  0  0  0  0  0  0
   56.9180   26.9040   46.3360 C   0  0  0  0  0  0  0  0  0  0  0  0
   55.8464   27.1287   46.4422 H   0  0  0  0  0  0  0  0  0  0  0  0
   58.4670   21.8620   44.4430 S   0  0  0  0  0  0  0  0  0  0  0  0
   57.7130   21.4690   42.9900 C   0  0  0  0  0  0  0  0  0  0  0  0
   58.2117   21.0804   42.0898 H   0  0  0  0  0  0  0  0  0  0  0  0
  1  2  1  0
  2  3  1  0
  3  4  1  0
  4  5  2  0
  5  6  1  0
  6  7  2  0
  6  8  2  0
  6  9  1  0
  9 10  2  0
 10 11  1  0
 10 12  1  0
 12 13  1  0
 12 14  2  0
 14 15  1  0
 14 16  1  0
 16 17  1  0
 17 18  1  0
 18 19  2  0
 18 20  1  0
 20 21  2  0
 21 22  1  0
 21 23  1  0
 23 24  1  0
 23 25  2  0
 25 26  1  0
 25 27  1  0
 27 28  1  0
 27 29  2  0
 29 30  1  0
 30 31  1  0
 30 32  1  0
 32 33  2  0
 32 34  1  0
 34 35  1  0
 34 36  1  0
 34 37  1  0
 37 38  2  0
 38 39  1  0
 38 40  1  0
 40 41  1  0
 40 42  2  0
 42 43  1  0
 42 44  1  0
 44 45  1  0
 44 46  2  0
 46 47  1  0
 16 48  2  0
 48 49  1  0
  4 50  1  0
 50 51  1  0
 51 52  1  0
 51  2  2  0
 48  9  1  0
 29 20  1  0
 46 37  1  0
M  CHG  2   3  -1  17  -1
M  END
>  <UniqueID>  (85) 
74

>  <SMILES>  (85) 
O=C(Cc1ccccc1)Nc1ccccc1C(=O)[N-]c1cccc(S(=O)(=O)/N=c2\[n-]ccs2)c1

>  <Energy>  (85) 
98.26436130908661

>  <Genealogy>  (85) 
O=C(Cc1ccccc1)Nc1ccccc1C(=O)[N-]c1cccc(S(=O)(=O)N=c2[n-]ccs2)c1 (protonated)
O=C(Cc1ccccc1)Nc1ccccc1C(=O)[N-]c1cccc(S(=O)(=O)/N=c2\[n-]ccs2)c1 (cis-trans isomerization)
O=C(Cc1ccccc1)Nc1ccccc1C(=O)[N-]c1cccc(S(=O)(=O)/N=c2\[n-]ccs2)c1 (3D coordinates assigned)
O=C(Cc1ccccc1)Nc1ccccc1C(=O)[N-]c1cccc(S(=O)(=O)/N=c2\[n-]ccs2)c1 (optimized conformer: 98.26436130908661 kcal/mol)

>  <smiles>  (85) 
O=C(Cc1ccccc1)Nc1ccccc1C(=O)Nc1cccc(S(=O)(=O)N=c2[nH]ccs2)c1

>  <score_type>  (85) 
oracle

>  <origin>  (85) 
adg

>  <m_score__min__energy>  (85) 
-13.220000000000001

>  <m_primary>  (85) 
energy

$$$$
85:0
     RDKit          3D

 47 50  0  0  0  0  0  0  0  0999 V2000
   58.8820   32.4610   49.7540 C   0  0  0  0  0  0  0  0  0  0  0  0
   58.0570   32.7160   48.6220 O   0  0  0  0  0  0  0  0  0  0  0  0
   58.4670   33.4370   47.4890 C   0  0  0  0  0  0  0  0  0  0  0  0
   59.2670   34.5910   47.5790 C   0  0  0  0  0  0  0  0  0  0  0  0
   59.6560   35.2680   46.4190 C   0  0  0  0  0  0  0  0  0  0  0  0
   59.2490   34.8060   45.1660 C   0  0  0  0  0  0  0  0  0  0  0  0
   58.4360   33.6670   45.0630 C   0  0  0  0  0  0  0  0  0  0  0  0
   58.0330   33.1430   43.7160 C   0  0  0  0  0  0  0  0  0  0  0  0
   58.4880   31.7990   43.5840 O   0  0  0  0  0  0  0  0  0  0  0  0
   57.8270   30.6820   44.1150 C   0  0  0  0  0  0  0  0  0  0  0  0
   56.4200   30.5020   43.9940 C   0  0  0  0  0  0  0  0  0  0  0  0
   55.7920   29.3730   44.5490 C   0  0  0  0  0  0  0  0  0  0  0  0
   56.5910   28.4460   45.2120 C   0  0  0  0  0  0  0  0  0  0  0  0
   56.2750   27.2730   45.8600 C   0  0  0  0  0  0  0  0  0  0  0  0
   55.0100   26.7160   45.9970 O   0  0  0  0  0  0  0  0  0  0  0  0
   57.4610   26.7540   46.3540 C   0  0  0  0  0  0  0  0  0  0  0  0
   58.4840   27.5780   46.0240 N   0  0  0  0  0  0  0  0  0  0  0  0
   60.1550   27.3420   46.4310 S   0  0  0  0  0  0  0  0  0  0  0  0
   60.9940   28.1520   45.4830 O   0  0  0  0  0  0  0  0  0  0  0  0
   60.5010   25.8880   46.2770 O   0  0  0  0  0  0  0  0  0  0  0  0
   60.4700   27.8360   48.1000 C   0  0  0  0  0  0  0  0  0  0  0  0
   60.5240   26.8620   49.1120 C   0  0  0  0  0  0  0  0  0  0  0  0
   60.7640   27.2290   50.4380 C   0  0  0  0  0  0  0  0  0  0  0  0
   60.9620   28.5710   50.7670 C   0  0  0  0  0  0  0  0  0  0  0  0
   60.9270   29.5470   49.7700 C   0  0  0  0  0  0  0  0  0  0  0  0
   60.6860   29.1910   48.4370 C   0  0  0  0  0  0  0  0  0  0  0  0
   60.6880   30.5920   47.1260 Br  0  0  0  0  0  0  0  0  0  0  0  0
   57.9480   28.6040   45.3300 C   0  0  0  0  0  0  0  0  0  0  0  0
   58.5980   29.7170   44.7930 C   0  0  0  0  0  0  0  0  0  0  0  0
   58.0610   32.9790   46.2290 C   0  0  0  0  0  0  0  0  0  0  0  0
   58.3067   32.6388   50.6745 H   0  0  0  0  0  0  0  0  0  0  0  0
   59.2231   31.4155   49.7310 H   0  0  0  0  0  0  0  0  0  0  0  0
   59.7536   33.1317   49.7310 H   0  0  0  0  0  0  0  0  0  0  0  0
   59.5871   34.9614   48.5641 H   0  0  0  0  0  0  0  0  0  0  0  0
   60.2847   36.1675   46.4940 H   0  0  0  0  0  0  0  0  0  0  0  0
   59.5667   35.3367   44.2564 H   0  0  0  0  0  0  0  0  0  0  0  0
   56.9374   33.1720   43.6220 H   0  0  0  0  0  0  0  0  0  0  0  0
   58.4805   33.7652   42.9269 H   0  0  0  0  0  0  0  0  0  0  0  0
   55.8185   31.2532   43.4613 H   0  0  0  0  0  0  0  0  0  0  0  0
   54.7052   29.2272   44.4621 H   0  0  0  0  0  0  0  0  0  0  0  0
   57.5567   25.8187   46.9251 H   0  0  0  0  0  0  0  0  0  0  0  0
   60.3760   25.8021   48.8575 H   0  0  0  0  0  0  0  0  0  0  0  0
   60.7970   26.4599   51.2237 H   0  0  0  0  0  0  0  0  0  0  0  0
   61.1457   28.8594   51.8125 H   0  0  0  0  0  0  0  0  0  0  0  0
   61.0897   30.6027   50.0328 H   0  0  0  0  0  0  0  0  0  0  0  0
   59.6864   29.8376   44.8968 H   0  0  0  0  0  0  0  0  0  0  0  0
   57.4429   32.0724   46.1518 H   0  0  0  0  0  0  0  0  0  0  0  0
  1  2  1  0
  2  3  1  0
  3  4  2  0
  4  5  1  0
  5  6  2  0
  6  7  1  0
  7  8  1  0
  8  9  1  0
  9 10  1  0
 10 11  2  0
 11 12  1  0
 12 13  2  0
 13 14  1  0
 14 15  1  0
 14 16  2  0
 16 17  1  0
 17 18  1  0
 18 19  2  0
 18 20  2  0
 18 21  1  0
 21 22  2  0
 22 23  1  0
 23 24  2  0
 24 25  1  0
 25 26  2  0
 26 27  1  0
 17 28  1  0
 28 29  2  0
  7 30  2  0
 30  3  1  0
 29 10  1  0
 28 13  1  0
 26 21  1  0
  1 31  1  0
  1 32  1  0
  1 33  1  0
  4 34  1  0
  5 35  1  0
  6 36  1  0
  8 37  1  0
  8 38  1  0
 11 39  1  0
 12 40  1  0
 16 41  1  0
 22 42  1  0
 23 43  1  0
 24 44  1  0
 25 45  1  0
 29 46  1  0
 30 47  1  0
M  CHG  1  15  -1
M  END
>  <UniqueID>  (86) 
75

>  <SMILES>  (86) 
COc1cccc(COc2ccc3c([O-])cn(S(=O)(=O)c4ccccc4Br)c3c2)c1

>  <Energy>  (86) 
89.16991602974034

>  <Genealogy>  (86) 
COc1cccc(COc2ccc3c([O-])cn(S(=O)(=O)c4ccccc4Br)c3c2)c1 (protonated)
COc1cccc(COc2ccc3c([O-])cn(S(=O)(=O)c4ccccc4Br)c3c2)c1 (3D coordinates assigned)
COc1cccc(COc2ccc3c([O-])cn(S(=O)(=O)c4ccccc4Br)c3c2)c1 (optimized conformer: 89.16991602974034 kcal/mol)

>  <smiles>  (86) 
COc1cccc(COc2ccc3c(O)cn(S(=O)(=O)c4ccccc4Br)c3c2)c1

>  <score_type>  (86) 
oracle

>  <origin>  (86) 
adg

>  <m_score__min__energy>  (86) 
-12.59

>  <m_primary>  (86) 
energy

$$$$
86:0
     RDKit          3D

 22 23  0  0  0  0  0  0  0  0999 V2000
   56.4092   28.4715   46.3511 H   0  0  0  0  0  0  0  0  0  0  0  0
   56.9800   29.0010   45.5740 C   0  0  0  0  0  0  0  0  0  0  0  0
   56.5820   30.0810   44.9430 O   0  0  0  0  0  0  0  0  0  0  0  0
   57.5160   30.4380   44.0870 C   0  0  0  0  0  0  0  0  0  0  0  0
   57.4170   31.6080   43.1970 C   0  0  0  0  0  0  0  0  0  0  0  0
   57.1230   31.4430   41.9840 O   0  0  0  0  0  0  0  0  0  0  0  0
   57.5430   32.9410   43.7080 N   0  0  0  0  0  0  0  0  0  0  0  0
   57.9520   33.2910   44.8960 C   0  0  0  0  0  0  0  0  0  0  0  0
   58.9730   34.2440   44.9980 C   0  0  0  0  0  0  0  0  0  0  0  0
   59.4129   34.6817   44.0897 H   0  0  0  0  0  0  0  0  0  0  0  0
   59.4300   34.6360   46.2570 C   0  0  0  0  0  0  0  0  0  0  0  0
   60.2248   35.3915   46.3445 H   0  0  0  0  0  0  0  0  0  0  0  0
   58.8770   34.0680   47.4030 C   0  0  0  0  0  0  0  0  0  0  0  0
   59.3130   34.4390   48.6320 F   0  0  0  0  0  0  0  0  0  0  0  0
   57.8770   33.1030   47.2720 C   0  0  0  0  0  0  0  0  0  0  0  0
   57.4395   32.6429   48.1703 H   0  0  0  0  0  0  0  0  0  0  0  0
   57.4400   32.7280   46.0370 N   0  0  0  0  0  0  0  0  0  0  0  0
   56.7230   31.9710   45.9950 H   0  0  0  0  0  0  0  0  0  0  0  0
   58.5780   29.5550   44.1490 C   0  0  0  0  0  0  0  0  0  0  0  0
   59.5051   29.5824   43.5576 H   0  0  0  0  0  0  0  0  0  0  0  0
   58.2260   28.6340   45.1100 C   0  0  0  0  0  0  0  0  0  0  0  0
   59.2600   27.1400   45.6870 Br  0  0  0  0  0  0  0  0  0  0  0  0
  1  2  1  0
  2  3  1  0
  3  4  1  0
  4  5  1  0
  5  6  2  0
  5  7  1  0
  7  8  2  0
  8  9  1  0
  9 10  1  0
  9 11  2  0
 11 12  1  0
 11 13  1  0
 13 14  1  0
 13 15  2  0
 15 16  1  0
 15 17  1  0
 17 18  1  0
  4 19  2  0
 19 20  1  0
 19 21  1  0
 21 22  1  0
 21  2  2  0
 17  8  1  0
M  END
>  <UniqueID>  (87) 
76

>  <SMILES>  (87) 
O=C(/N=c1/ccc(F)c[nH]1)c1cc(Br)co1

>  <Energy>  (87) 
56.925441364831755

>  <Genealogy>  (87) 
O=C(/N=c1/ccc(F)c[nH]1)c1cc(Br)co1 (cis-trans isomerization)
O=C(/N=c1/ccc(F)c[nH]1)c1cc(Br)co1 (3D coordinates assigned)
O=C(/N=c1/ccc(F)c[nH]1)c1cc(Br)co1 (optimized conformer: 56.925441364831755 kcal/mol)

>  <smiles>  (87) 
O=C(N=c1ccc(F)c[nH]1)c1cc(Br)co1

>  <score_type>  (87) 
oracle

>  <origin>  (87) 
adg

>  <m_score__min__energy>  (87) 
-6.0300000000000002

>  <m_primary>  (87) 
energy

$$$$
87:0
     RDKit          3D

 46 48  0  0  0  0  0  0  0  0999 V2000
   57.0250   34.2350   44.8790 C   0  0  0  0  0  0  0  0  0  0  0  0
   57.6930   34.4500   46.1180 O   0  0  0  0  0  0  0  0  0  0  0  0
   58.9530   33.9240   46.4430 C   0  0  0  0  0  0  0  0  0  0  0  0
   60.0690   34.7540   46.6750 C   0  0  0  0  0  0  0  0  0  0  0  0
   61.3040   34.1970   47.0050 C   0  0  0  0  0  0  0  0  0  0  0  0
   61.4420   32.8120   47.1100 C   0  0  0  0  0  0  0  0  0  0  0  0
   62.9910   32.1170   47.5540 Cl  0  0  0  0  0  0  0  0  0  0  0  0
   60.3460   31.9800   46.8690 C   0  0  0  0  0  0  0  0  0  0  0  0
   59.0920   32.5280   46.5410 C   0  0  0  0  0  0  0  0  0  0  0  0
   57.9380   31.7100   46.2910 N   0  0  0  0  0  0  0  0  0  0  0  0
   57.5330   30.8680   44.8260 S   0  0  0  0  0  0  0  0  0  0  0  0
   58.3240   31.3980   43.6620 O   0  0  0  0  0  0  0  0  0  0  0  0
   56.0790   31.1100   44.5340 O   0  0  0  0  0  0  0  0  0  0  0  0
   57.8070   29.1360   45.0220 C   0  0  0  0  0  0  0  0  0  0  0  0
   59.0170   28.5610   44.6110 C   0  0  0  0  0  0  0  0  0  0  0  0
   59.2290   27.1890   44.7590 C   0  0  0  0  0  0  0  0  0  0  0  0
   58.2300   26.3780   45.3050 C   0  0  0  0  0  0  0  0  0  0  0  0
   57.0060   26.9360   45.7140 C   0  0  0  0  0  0  0  0  0  0  0  0
   55.9280   26.0760   46.2530 C   0  0  0  0  0  0  0  0  0  0  0  0
   54.7250   26.3050   45.9540 O   0  0  0  0  0  0  0  0  0  0  0  0
   56.2500   24.9910   47.1330 N   0  0  0  0  0  0  0  0  0  0  0  0
   56.0990   23.5830   46.7780 C   0  0  0  0  0  0  0  0  0  0  0  0
   55.5390   23.4280   45.3610 C   0  0  0  0  0  0  0  0  0  0  0  0
   56.4210   22.5580   44.5170 C   0  0  0  0  0  0  0  0  0  0  0  0
   57.7750   22.3630   44.6940 C   0  0  0  0  0  0  0  0  0  0  0  0
   58.1520   21.4790   43.7060 C   0  0  0  0  0  0  0  0  0  0  0  0
   57.0060   21.1830   42.9970 C   0  0  0  0  0  0  0  0  0  0  0  0
   55.9890   21.8410   43.5040 O   0  0  0  0  0  0  0  0  0  0  0  0
   56.8090   28.3220   45.5730 C   0  0  0  0  0  0  0  0  0  0  0  0
   55.9940   33.9032   45.0711 H   0  0  0  0  0  0  0  0  0  0  0  0
   57.0073   35.1728   44.3044 H   0  0  0  0  0  0  0  0  0  0  0  0
   57.5577   33.4629   44.3044 H   0  0  0  0  0  0  0  0  0  0  0  0
   59.9649   35.8462   46.5953 H   0  0  0  0  0  0  0  0  0  0  0  0
   62.1710   34.8502   47.1829 H   0  0  0  0  0  0  0  0  0  0  0  0
   60.4641   30.8884   46.9361 H   0  0  0  0  0  0  0  0  0  0  0  0
   59.8024   29.1927   44.1703 H   0  0  0  0  0  0  0  0  0  0  0  0
   60.1851   26.7449   44.4450 H   0  0  0  0  0  0  0  0  0  0  0  0
   58.4024   25.2972   45.4153 H   0  0  0  0  0  0  0  0  0  0  0  0
   57.0817   23.0917   46.8315 H   0  0  0  0  0  0  0  0  0  0  0  0
   55.3952   23.1184   47.4843 H   0  0  0  0  0  0  0  0  0  0  0  0
   54.5386   22.9743   45.4191 H   0  0  0  0  0  0  0  0  0  0  0  0
   55.4892   24.4242   44.8973 H   0  0  0  0  0  0  0  0  0  0  0  0
   58.4184   22.8173   45.4619 H   0  0  0  0  0  0  0  0  0  0  0  0
   59.1633   21.0881   43.5201 H   0  0  0  0  0  0  0  0  0  0  0  0
   56.9524   20.4992   42.1370 H   0  0  0  0  0  0  0  0  0  0  0  0
   55.8597   28.7718   45.8994 H   0  0  0  0  0  0  0  0  0  0  0  0
  1  2  1  0
  2  3  1  0
  3  4  2  0
  4  5  1  0
  5  6  2  0
  6  7  1  0
  6  8  1  0
  8  9  2  0
  9 10  1  0
 10 11  1  0
 11 12  2  0
 11 13  2  0
 11 14  1  0
 14 15  2  0
 15 16  1  0
 16 17  2  0
 17 18  1  0
 18 19  1  0
 19 20  2  0
 19 21  1  0
 21 22  1  0
 22 23  1  0
 23 24  1  0
 24 25  2  0
 25 26  1  0
 26 27  2  0
 27 28  1  0
 18 29  2  0
  9  3  1  0
 29 14  1  0
 28 24  1  0
  1 30  1  0
  1 31  1  0
  1 32  1  0
  4 33  1  0
  5 34  1  0
  8 35  1  0
 15 36  1  0
 16 37  1  0
 17 38  1  0
 22 39  1  0
 22 40  1  0
 23 41  1  0
 23 42  1  0
 25 43  1  0
 26 44  1  0
 27 45  1  0
 29 46  1  0
M  CHG  2  10  -1  21  -1
M  END
>  <UniqueID>  (88) 
77

>  <SMILES>  (88) 
COc1ccc(Cl)cc1[N-]S(=O)(=O)c1cccc(C(=O)[N-]CCc2ccco2)c1

>  <Energy>  (88) 
70.86427553299856

>  <Genealogy>  (88) 
COc1ccc(Cl)cc1[N-]S(=O)(=O)c1cccc(C(=O)[N-]CCc2ccco2)c1 (protonated)
COc1ccc(Cl)cc1[N-]S(=O)(=O)c1cccc(C(=O)[N-]CCc2ccco2)c1 (3D coordinates assigned)
COc1ccc(Cl)cc1[N-]S(=O)(=O)c1cccc(C(=O)[N-]CCc2ccco2)c1 (optimized conformer: 70.86427553299856 kcal/mol)

>  <smiles>  (88) 
COc1ccc(Cl)cc1NS(=O)(=O)c1cccc(C(=O)NCCc2ccco2)c1

>  <score_type>  (88) 
oracle

>  <origin>  (88) 
adg

>  <m_score__min__energy>  (88) 
-12.52

>  <m_primary>  (88) 
energy

$$$$
88:0
     RDKit          3D

 52 54  0  0  0  0  0  0  0  0999 V2000
   58.6610   30.1250   50.6440 C   0  0  0  0  0  0  0  0  0  0  0  0
   58.6510   29.3310   49.3410 C   0  0  0  0  0  0  0  0  0  0  0  0
   60.0220   29.0820   48.8590 N   0  0  0  0  0  0  0  0  0  0  0  0
   60.2370   28.1340   47.7570 C   0  0  0  0  0  0  0  0  0  0  0  0
   58.9150   27.7340   47.1630 C   0  0  0  0  0  0  0  0  0  0  0  0
   58.2650   28.5850   46.2550 C   0  0  0  0  0  0  0  0  0  0  0  0
   57.0130   28.2390   45.7370 C   0  0  0  0  0  0  0  0  0  0  0  0
   56.3970   27.0460   46.1310 C   0  0  0  0  0  0  0  0  0  0  0  0
   55.1530   26.7050   45.6180 O   0  0  0  0  0  0  0  0  0  0  0  0
   57.0340   26.1990   47.0440 C   0  0  0  0  0  0  0  0  0  0  0  0
   58.2860   26.5430   47.5630 C   0  0  0  0  0  0  0  0  0  0  0  0
   61.1650   29.7680   49.4230 C   0  0  0  0  0  0  0  0  0  0  0  0
   61.9780   29.1260   50.1440 O   0  0  0  0  0  0  0  0  0  0  0  0
   61.4140   31.2040   49.1930 C   0  0  0  0  0  0  0  0  0  0  0  0
   62.6440   31.8320   49.2860 C   0  0  0  0  0  0  0  0  0  0  0  0
   62.4140   33.1580   48.9840 C   0  0  0  0  0  0  0  0  0  0  0  0
   61.0590   33.2540   48.7390 C   0  0  0  0  0  0  0  0  0  0  0  0
   60.3250   34.4890   48.3310 C   0  0  0  0  0  0  0  0  0  0  0  0
   60.3070   34.6230   46.5530 S   0  0  0  0  0  0  0  0  0  0  0  0
   60.0030   36.0390   46.1510 O   0  0  0  0  0  0  0  0  0  0  0  0
   61.6530   34.2430   46.0000 O   0  0  0  0  0  0  0  0  0  0  0  0
   59.0770   33.5440   45.9040 C   0  0  0  0  0  0  0  0  0  0  0  0
   58.7570   32.3560   46.5740 C   0  0  0  0  0  0  0  0  0  0  0  0
   57.7840   31.4970   46.0540 C   0  0  0  0  0  0  0  0  0  0  0  0
   57.1240   31.8100   44.8590 C   0  0  0  0  0  0  0  0  0  0  0  0
   56.1510   30.9190   44.3800 O   0  0  0  0  0  0  0  0  0  0  0  0
   56.2920   30.1340   43.2020 C   0  0  0  0  0  0  0  0  0  0  0  0
   57.4570   32.9990   44.1810 C   0  0  0  0  0  0  0  0  0  0  0  0
   58.4310   33.8570   44.7010 C   0  0  0  0  0  0  0  0  0  0  0  0
   60.4910   32.0800   48.8740 O   0  0  0  0  0  0  0  0  0  0  0  0
   58.6523   29.4303   51.4968 H   0  0  0  0  0  0  0  0  0  0  0  0
   59.5671   30.7473   50.6873 H   0  0  0  0  0  0  0  0  0  0  0  0
   57.7709   30.7699   50.6873 H   0  0  0  0  0  0  0  0  0  0  0  0
   58.1499   28.3668   49.5120 H   0  0  0  0  0  0  0  0  0  0  0  0
   58.1147   29.9166   48.5798 H   0  0  0  0  0  0  0  0  0  0  0  0
   60.8565   28.6093   46.9822 H   0  0  0  0  0  0  0  0  0  0  0  0
   60.7472   27.2390   48.1426 H   0  0  0  0  0  0  0  0  0  0  0  0
   58.7425   29.5278   45.9498 H   0  0  0  0  0  0  0  0  0  0  0  0
   56.5120   28.9052   45.0192 H   0  0  0  0  0  0  0  0  0  0  0  0
   56.5495   25.2614   47.3540 H   0  0  0  0  0  0  0  0  0  0  0  0
   58.7803   25.8787   48.2871 H   0  0  0  0  0  0  0  0  0  0  0  0
   63.6069   31.3688   49.5471 H   0  0  0  0  0  0  0  0  0  0  0  0
   63.1556   33.9696   48.9463 H   0  0  0  0  0  0  0  0  0  0  0  0
   59.2913   34.4391   48.7037 H   0  0  0  0  0  0  0  0  0  0  0  0
   60.8308   35.3686   48.7559 H   0  0  0  0  0  0  0  0  0  0  0  0
   59.2723   32.0985   47.5111 H   0  0  0  0  0  0  0  0  0  0  0  0
   57.5349   30.5680   46.5877 H   0  0  0  0  0  0  0  0  0  0  0  0
   56.4802   29.0864   43.4798 H   0  0  0  0  0  0  0  0  0  0  0  0
   55.3684   30.1955   42.6077 H   0  0  0  0  0  0  0  0  0  0  0  0
   57.1364   30.5131   42.6077 H   0  0  0  0  0  0  0  0  0  0  0  0
   56.9490   33.2534   43.2391 H   0  0  0  0  0  0  0  0  0  0  0  0
   58.6909   34.7809   44.1636 H   0  0  0  0  0  0  0  0  0  0  0  0
  1  2  1  0
  2  3  1  0
  3  4  1  0
  4  5  1  0
  5  6  2  0
  6  7  1  0
  7  8  2  0
  8  9  1  0
  8 10  1  0
 10 11  2  0
  3 12  1  0
 12 13  2  0
 12 14  1  0
 14 15  2  0
 15 16  1  0
 16 17  2  0
 17 18  1  0
 18 19  1  0
 19 20  2  0
 19 21  2  0
 19 22  1  0
 22 23  2  0
 23 24  1  0
 24 25  2  0
 25 26  1  0
 26 27  1  0
 25 28  1  0
 28 29  2  0
 17 30  1  0
 11  5  1  0
 30 14  1  0
 29 22  1  0
  1 31  1  0
  1 32  1  0
  1 33  1  0
  2 34  1  0
  2 35  1  0
  4 36  1  0
  4 37  1  0
  6 38  1  0
  7 39  1  0
 10 40  1  0
 11 41  1  0
 15 42  1  0
 16 43  1  0
 18 44  1  0
 18 45  1  0
 23 46  1  0
 24 47  1  0
 27 48  1  0
 27 49  1  0
 27 50  1  0
 28 51  1  0
 29 52  1  0
M  CHG  1   9  -1
M  END
>  <UniqueID>  (89) 
78

>  <SMILES>  (89) 
CCN(Cc1ccc([O-])cc1)C(=O)c1ccc(CS(=O)(=O)c2ccc(OC)cc2)o1

>  <Energy>  (89) 
72.37574116598522

>  <Genealogy>  (89) 
CCN(Cc1ccc([O-])cc1)C(=O)c1ccc(CS(=O)(=O)c2ccc(OC)cc2)o1 (protonated)
CCN(Cc1ccc([O-])cc1)C(=O)c1ccc(CS(=O)(=O)c2ccc(OC)cc2)o1 (3D coordinates assigned)
CCN(Cc1ccc([O-])cc1)C(=O)c1ccc(CS(=O)(=O)c2ccc(OC)cc2)o1 (optimized conformer: 72.37574116598522 kcal/mol)

>  <smiles>  (89) 
CCN(Cc1ccc(O)cc1)C(=O)c1ccc(CS(=O)(=O)c2ccc(OC)cc2)o1

>  <score_type>  (89) 
oracle

>  <origin>  (89) 
adg

>  <m_score__min__energy>  (89) 
-11.69

>  <m_primary>  (89) 
energy

$$$$
89:0
     RDKit          3D

 45 47  0  0  0  0  0  0  0  0999 V2000
   60.6490   30.5500   48.8950 N   0  0  0  0  0  0  0  0  0  0  0  0
   59.5930   29.5800   47.9290 S   0  0  0  0  0  0  0  0  0  0  0  0
   60.3740   28.4330   47.3520 O   0  0  0  0  0  0  0  0  0  0  0  0
   58.5020   29.0530   48.8180 O   0  0  0  0  0  0  0  0  0  0  0  0
   58.9160   30.5570   46.6170 C   0  0  0  0  0  0  0  0  0  0  0  0
   58.3700   31.8110   46.9350 C   0  0  0  0  0  0  0  0  0  0  0  0
   57.7870   32.6060   45.9470 C   0  0  0  0  0  0  0  0  0  0  0  0
   57.7390   32.1570   44.6280 C   0  0  0  0  0  0  0  0  0  0  0  0
   58.2880   30.9190   44.2920 C   0  0  0  0  0  0  0  0  0  0  0  0
   58.9000   30.1200   45.2690 C   0  0  0  0  0  0  0  0  0  0  0  0
   59.6200   28.5550   44.7420 S   0  0  0  0  0  0  0  0  0  0  0  0
   58.2640   27.5750   45.3860 C   0  0  0  0  0  0  0  0  0  0  0  0
   56.9180   27.8440   45.2420 C   0  0  0  0  0  0  0  0  0  0  0  0
   56.2640   26.8190   45.8970 C   0  0  0  0  0  0  0  0  0  0  0  0
   54.8830   26.7110   46.0160 O   0  0  0  0  0  0  0  0  0  0  0  0
   57.1390   25.9310   46.4140 N   0  0  0  0  0  0  0  0  0  0  0  0
   56.8090   24.7570   47.2220 C   0  0  0  0  0  0  0  0  0  0  0  0
   56.4730   23.5690   46.3070 C   0  0  0  0  0  0  0  0  0  0  0  0
   57.3310   23.4790   45.1060 N   0  0  0  0  0  0  0  0  0  0  0  0
   56.7950   24.1590   43.9070 C   0  0  0  0  0  0  0  0  0  0  0  0
   55.9810   23.2170   42.9850 C   0  0  0  0  0  0  0  0  0  0  0  0
   56.0520   21.8570   43.3680 O   0  0  0  0  0  0  0  0  0  0  0  0
   57.3970   21.4960   43.5740 C   0  0  0  0  0  0  0  0  0  0  0  0
   57.9250   22.1460   44.8600 C   0  0  0  0  0  0  0  0  0  0  0  0
   58.3660   26.3990   46.1040 C   0  0  0  0  0  0  0  0  0  0  0  0
   59.5670   25.7870   46.4590 O   0  0  0  0  0  0  0  0  0  0  0  0
   60.0880   31.3560   49.2490 H   0  0  0  0  0  0  0  0  0  0  0  0
   58.4021   32.1707   47.9740 H   0  0  0  0  0  0  0  0  0  0  0  0
   57.3651   33.5875   46.2092 H   0  0  0  0  0  0  0  0  0  0  0  0
   57.2683   32.7787   43.8522 H   0  0  0  0  0  0  0  0  0  0  0  0
   58.2404   30.5663   43.2512 H   0  0  0  0  0  0  0  0  0  0  0  0
   56.4620   28.6957   44.7161 H   0  0  0  0  0  0  0  0  0  0  0  0
   57.6696   24.4970   47.8558 H   0  0  0  0  0  0  0  0  0  0  0  0
   55.9375   24.9855   47.8531 H   0  0  0  0  0  0  0  0  0  0  0  0
   56.5892   22.6413   46.8865 H   0  0  0  0  0  0  0  0  0  0  0  0
   55.4421   23.7185   45.9536 H   0  0  0  0  0  0  0  0  0  0  0  0
   56.1401   24.9801   44.2340 H   0  0  0  0  0  0  0  0  0  0  0  0
   57.6548   24.5234   43.3256 H   0  0  0  0  0  0  0  0  0  0  0  0
   54.9271   23.5313   43.0084 H   0  0  0  0  0  0  0  0  0  0  0  0
   56.4154   23.2937   41.9773 H   0  0  0  0  0  0  0  0  0  0  0  0
   57.4709   20.4020   43.6621 H   0  0  0  0  0  0  0  0  0  0  0  0
   57.9984   21.8436   42.7211 H   0  0  0  0  0  0  0  0  0  0  0  0
   57.6857   21.4907   45.7105 H   0  0  0  0  0  0  0  0  0  0  0  0
   59.0108   22.2797   44.7456 H   0  0  0  0  0  0  0  0  0  0  0  0
   60.3600   26.3190   46.7920 H   0  0  0  0  0  0  0  0  0  0  0  0
  1  2  1  0
  2  3  2  0
  2  4  2  0
  2  5  1  0
  5  6  2  0
  6  7  1  0
  7  8  2  0
  8  9  1  0
  9 10  2  0
 10 11  1  0
 11 12  1  0
 12 13  1  0
 13 14  2  0
 14 15  1  0
 14 16  1  0
 16 17  1  0
 17 18  1  0
 18 19  1  0
 19 20  1  0
 20 21  1  0
 21 22  1  0
 22 23  1  0
 23 24  1  0
 16 25  1  0
 25 26  1  0
 10  5  1  0
 25 12  2  0
 24 19  1  0
  1 27  1  0
  6 28  1  0
  7 29  1  0
  8 30  1  0
  9 31  1  0
 13 32  1  0
 17 33  1  0
 17 34  1  0
 18 35  1  0
 18 36  1  0
 20 37  1  0
 20 38  1  0
 21 39  1  0
 21 40  1  0
 23 41  1  0
 23 42  1  0
 24 43  1  0
 24 44  1  0
 26 45  1  0
M  CHG  2   1  -1  15  -1
M  END
>  <UniqueID>  (90) 
79

>  <SMILES>  (90) 
[NH-]S(=O)(=O)c1ccccc1Sc1cc([O-])n(CCN2CCOCC2)c1O

>  <Energy>  (90) 
85.5109302882641

>  <Genealogy>  (90) 
[NH-]S(=O)(=O)c1ccccc1Sc1cc([O-])n(CCN2CCOCC2)c1O (protonated)
[NH-]S(=O)(=O)c1ccccc1Sc1cc([O-])n(CCN2CCOCC2)c1O (3D coordinates assigned)
[NH-]S(=O)(=O)c1ccccc1Sc1cc([O-])n(CCN2CCOCC2)c1O (nonaromatic ring conformer: 85.5109302882641 kcal/mol)

>  <smiles>  (90) 
NS(=O)(=O)c1ccccc1Sc1cc(O)n(CCN2CCOCC2)c1O

>  <score_type>  (90) 
oracle

>  <origin>  (90) 
adg

>  <m_score__min__energy>  (90) 
-13.029999999999999

>  <m_primary>  (90) 
energy

$$$$
90:0
     RDKit          3D

 43 45  0  0  0  0  0  0  0  0999 V2000
   55.2289   26.8779   45.6314 H   0  0  0  0  0  0  0  0  0  0  0  0
   56.0570   26.3080   46.0780 C   0  0  0  0  0  0  0  0  0  0  0  0
   55.8740   25.1030   46.6820 N   0  0  0  0  0  0  0  0  0  0  0  0
   57.0340   24.6000   47.1550 C   0  0  0  0  0  0  0  0  0  0  0  0
   57.0960   23.4580   47.7700 N   0  0  0  0  0  0  0  0  0  0  0  0
   55.9280   22.7070   48.2150 C   0  0  0  0  0  0  0  0  0  0  0  0
   55.9005   22.6893   49.3145 H   0  0  0  0  0  0  0  0  0  0  0  0
   55.0154   23.1880   47.8331 H   0  0  0  0  0  0  0  0  0  0  0  0
   55.9869   21.6771   47.8331 H   0  0  0  0  0  0  0  0  0  0  0  0
   58.3390   25.6270   46.8500 S   0  0  0  0  0  0  0  0  0  0  0  0
   57.3740   26.7660   46.0680 C   0  0  0  0  0  0  0  0  0  0  0  0
   57.8630   28.0350   45.5040 C   0  0  0  0  0  0  0  0  0  0  0  0
   59.0450   28.3980   45.7520 O   0  0  0  0  0  0  0  0  0  0  0  0
   57.0280   28.8350   44.6500 N   0  0  0  0  0  0  0  0  0  0  0  0
   56.2460   28.3660   44.1400 H   0  0  0  0  0  0  0  0  0  0  0  0
   57.3020   30.2110   44.3360 C   0  0  0  0  0  0  0  0  0  0  0  0
   57.2280   30.6450   43.0040 C   0  0  0  0  0  0  0  0  0  0  0  0
   56.9723   29.9289   42.2091 H   0  0  0  0  0  0  0  0  0  0  0  0
   57.4770   31.9810   42.6810 C   0  0  0  0  0  0  0  0  0  0  0  0
   57.4163   32.3132   41.6341 H   0  0  0  0  0  0  0  0  0  0  0  0
   57.8030   32.8960   43.6850 C   0  0  0  0  0  0  0  0  0  0  0  0
   57.9977   33.9471   43.4255 H   0  0  0  0  0  0  0  0  0  0  0  0
   57.8830   32.4820   45.0190 C   0  0  0  0  0  0  0  0  0  0  0  0
   58.2130   33.4500   46.0270 N   0  0  0  0  0  0  0  0  0  0  0  0
   59.4930   34.0700   46.2240 C   0  0  0  0  0  0  0  0  0  0  0  0
   59.6300   35.2810   45.9030 O   0  0  0  0  0  0  0  0  0  0  0  0
   60.6620   33.3230   46.7480 C   0  0  0  0  0  0  0  0  0  0  0  0
   61.9530   33.8620   46.6260 C   0  0  0  0  0  0  0  0  0  0  0  0
   62.0956   34.8335   46.1301 H   0  0  0  0  0  0  0  0  0  0  0  0
   63.0570   33.1710   47.1310 C   0  0  0  0  0  0  0  0  0  0  0  0
   64.0646   33.6016   47.0346 H   0  0  0  0  0  0  0  0  0  0  0  0
   62.8850   31.9350   47.7580 C   0  0  0  0  0  0  0  0  0  0  0  0
   63.7584   31.4003   48.1596 H   0  0  0  0  0  0  0  0  0  0  0  0
   61.6100   31.3720   47.8790 C   0  0  0  0  0  0  0  0  0  0  0  0
   61.4870   30.1340   48.5260 O   0  0  0  0  0  0  0  0  0  0  0  0
   60.3730   29.2590   48.3810 C   0  0  0  0  0  0  0  0  0  0  0  0
   60.0031   28.9685   49.3754 H   0  0  0  0  0  0  0  0  0  0  0  0
   59.5729   29.7726   47.8278 H   0  0  0  0  0  0  0  0  0  0  0  0
   60.6825   28.3600   47.8278 H   0  0  0  0  0  0  0  0  0  0  0  0
   60.4990   32.0650   47.3560 C   0  0  0  0  0  0  0  0  0  0  0  0
   59.4962   31.6181   47.4240 H   0  0  0  0  0  0  0  0  0  0  0  0
   57.5970   31.1450   45.3450 C   0  0  0  0  0  0  0  0  0  0  0  0
   57.6040   30.8267   46.3979 H   0  0  0  0  0  0  0  0  0  0  0  0
  1  2  1  0
  2  3  1  0
  3  4  1  0
  4  5  2  0
  5  6  1  0
  6  7  1  0
  6  8  1  0
  6  9  1  0
  4 10  1  0
 10 11  1  0
 11 12  1  0
 12 13  2  0
 12 14  1  0
 14 15  1  0
 14 16  1  0
 16 17  2  0
 17 18  1  0
 17 19  1  0
 19 20  1  0
 19 21  2  0
 21 22  1  0
 21 23  1  0
 23 24  1  0
 24 25  1  0
 25 26  2  0
 25 27  1  0
 27 28  2  0
 28 29  1  0
 28 30  1  0
 30 31  1  0
 30 32  2  0
 32 33  1  0
 32 34  1  0
 34 35  1  0
 35 36  1  0
 36 37  1  0
 36 38  1  0
 36 39  1  0
 34 40  2  0
 40 41  1  0
 23 42  2  0
 42 43  1  0
 11  2  2  0
 42 16  1  0
 40 27  1  0
M  CHG  2   3  -1  24  -1
M  END
>  <UniqueID>  (91) 
80

>  <SMILES>  (91) 
C/N=c1/[n-]cc(C(=O)Nc2cccc([N-]C(=O)c3cccc(OC)c3)c2)s1

>  <Energy>  (91) 
82.43440610233667

>  <Genealogy>  (91) 
CN=c1[n-]cc(C(=O)Nc2cccc([N-]C(=O)c3cccc(OC)c3)c2)s1 (protonated)
C/N=c1/[n-]cc(C(=O)Nc2cccc([N-]C(=O)c3cccc(OC)c3)c2)s1 (cis-trans isomerization)
C/N=c1/[n-]cc(C(=O)Nc2cccc([N-]C(=O)c3cccc(OC)c3)c2)s1 (3D coordinates assigned)
C/N=c1/[n-]cc(C(=O)Nc2cccc([N-]C(=O)c3cccc(OC)c3)c2)s1 (optimized conformer: 82.43440610233667 kcal/mol)

>  <smiles>  (91) 
CN=c1[nH]cc(C(=O)Nc2cccc(NC(=O)c3cccc(OC)c3)c2)s1

>  <score_type>  (91) 
oracle

>  <origin>  (91) 
adg

>  <m_score__min__energy>  (91) 
-10.720000000000001

>  <m_primary>  (91) 
energy

$$$$
91:0
     RDKit          3D

 47 49  0  0  0  0  0  0  0  0999 V2000
   62.6920   33.0600   47.5740 C   0  0  0  0  0  0  0  0  0  0  0  0
   61.9940   33.0040   48.9320 C   0  0  0  0  0  0  0  0  0  0  0  0
   60.5330   32.9190   48.7890 N   0  0  0  0  0  0  0  0  0  0  0  0
   59.7540   34.1450   48.5680 C   0  0  0  0  0  0  0  0  0  0  0  0
   59.0650   34.0920   47.2320 C   0  0  0  0  0  0  0  0  0  0  0  0
   59.6570   34.6930   46.1100 C   0  0  0  0  0  0  0  0  0  0  0  0
   59.0160   34.6480   44.8680 C   0  0  0  0  0  0  0  0  0  0  0  0
   57.7720   34.0260   44.7440 C   0  0  0  0  0  0  0  0  0  0  0  0
   57.1690   33.4410   45.8600 C   0  0  0  0  0  0  0  0  0  0  0  0
   57.8120   33.4710   47.1010 C   0  0  0  0  0  0  0  0  0  0  0  0
   59.8470   31.6990   49.1310 C   0  0  0  0  0  0  0  0  0  0  0  0
   60.1330   30.5050   48.4570 C   0  0  0  0  0  0  0  0  0  0  0  0
   59.4420   29.3280   48.7960 C   0  0  0  0  0  0  0  0  0  0  0  0
   59.7250   28.0280   48.1450 C   0  0  0  0  0  0  0  0  0  0  0  0
   60.5710   27.2610   48.6780 O   0  0  0  0  0  0  0  0  0  0  0  0
   59.0920   27.5990   46.9290 N   0  0  0  0  0  0  0  0  0  0  0  0
   58.3430   28.4050   46.0090 C   0  0  0  0  0  0  0  0  0  0  0  0
   58.9420   29.5840   45.5410 C   0  0  0  0  0  0  0  0  0  0  0  0
   58.2400   30.4580   44.7120 C   0  0  0  0  0  0  0  0  0  0  0  0
   56.9350   30.1560   44.3270 C   0  0  0  0  0  0  0  0  0  0  0  0
   56.3330   28.9720   44.7580 C   0  0  0  0  0  0  0  0  0  0  0  0
   57.0300   28.0710   45.5830 C   0  0  0  0  0  0  0  0  0  0  0  0
   56.3860   26.7810   45.9150 C   0  0  0  0  0  0  0  0  0  0  0  0
   55.1330   26.6920   46.0110 O   0  0  0  0  0  0  0  0  0  0  0  0
   57.1640   25.6600   46.1800 O   0  0  0  0  0  0  0  0  0  0  0  0
   58.5170   29.3680   49.7950 N   0  0  0  0  0  0  0  0  0  0  0  0
   58.2200   30.5110   50.4640 C   0  0  0  0  0  0  0  0  0  0  0  0
   57.3520   30.4960   51.3760 O   0  0  0  0  0  0  0  0  0  0  0  0
   58.8780   31.6990   50.1430 C   0  0  0  0  0  0  0  0  0  0  0  0
   63.7783   33.1472   47.7234 H   0  0  0  0  0  0  0  0  0  0  0  0
   62.4719   32.1413   47.0105 H   0  0  0  0  0  0  0  0  0  0  0  0
   62.3283   33.9319   47.0105 H   0  0  0  0  0  0  0  0  0  0  0  0
   62.3507   32.1194   49.4800 H   0  0  0  0  0  0  0  0  0  0  0  0
   62.2320   33.9285   49.4785 H   0  0  0  0  0  0  0  0  0  0  0  0
   58.9991   34.2433   49.3620 H   0  0  0  0  0  0  0  0  0  0  0  0
   60.4343   35.0092   48.5857 H   0  0  0  0  0  0  0  0  0  0  0  0
   60.6279   35.2008   46.2081 H   0  0  0  0  0  0  0  0  0  0  0  0
   59.4925   35.1033   43.9873 H   0  0  0  0  0  0  0  0  0  0  0  0
   57.2668   33.9967   43.7673 H   0  0  0  0  0  0  0  0  0  0  0  0
   56.1866   32.9559   45.7622 H   0  0  0  0  0  0  0  0  0  0  0  0
   57.3354   33.0071   47.9771 H   0  0  0  0  0  0  0  0  0  0  0  0
   60.8959   30.4879   47.6648 H   0  0  0  0  0  0  0  0  0  0  0  0
   59.9762   29.8214   45.8310 H   0  0  0  0  0  0  0  0  0  0  0  0
   58.7161   31.3858   44.3619 H   0  0  0  0  0  0  0  0  0  0  0  0
   56.3781   30.8518   43.6823 H   0  0  0  0  0  0  0  0  0  0  0  0
   55.3027   28.7416   44.4490 H   0  0  0  0  0  0  0  0  0  0  0  0
   58.6378   32.6283   50.6803 H   0  0  0  0  0  0  0  0  0  0  0  0
  1  2  1  0
  2  3  1  0
  3  4  1  0
  4  5  1  0
  5  6  2  0
  6  7  1  0
  7  8  2  0
  8  9  1  0
  9 10  2  0
  3 11  1  0
 11 12  1  0
 12 13  2  0
 13 14  1  0
 14 15  2  0
 14 16  1  0
 16 17  1  0
 17 18  2  0
 18 19  1  0
 19 20  2  0
 20 21  1  0
 21 22  2  0
 22 23  1  0
 23 24  2  0
 23 25  1  0
 13 26  1  0
 26 27  1  0
 27 28  2  0
 27 29  1  0
 10  5  1  0
 29 11  2  0
 22 17  1  0
  1 30  1  0
  1 31  1  0
  1 32  1  0
  2 33  1  0
  2 34  1  0
  4 35  1  0
  4 36  1  0
  6 37  1  0
  7 38  1  0
  8 39  1  0
  9 40  1  0
 10 41  1  0
 12 42  1  0
 18 43  1  0
 19 44  1  0
 20 45  1  0
 21 46  1  0
 29 47  1  0
M  CHG  3  16  -1  25  -1  26  -1
M  END
>  <UniqueID>  (92) 
81

>  <SMILES>  (92) 
CCN(Cc1ccccc1)c1cc(C(=O)[N-]c2ccccc2C(=O)[O-])[n-]c(=O)c1

>  <Energy>  (92) 
61.39190788080061

>  <Genealogy>  (92) 
CCN(Cc1ccccc1)c1cc(C(=O)[N-]c2ccccc2C(=O)[O-])[n-]c(=O)c1 (protonated)
CCN(Cc1ccccc1)c1cc(C(=O)[N-]c2ccccc2C(=O)[O-])[n-]c(=O)c1 (3D coordinates assigned)
CCN(Cc1ccccc1)c1cc(C(=O)[N-]c2ccccc2C(=O)[O-])[n-]c(=O)c1 (optimized conformer: 61.39190788080061 kcal/mol)

>  <smiles>  (92) 
CCN(Cc1ccccc1)c1cc(C(=O)Nc2ccccc2C(=O)O)[nH]c(=O)c1

>  <score_type>  (92) 
oracle

>  <origin>  (92) 
adg

>  <m_score__min__energy>  (92) 
-15.609999999999999

>  <m_primary>  (92) 
energy

$$$$
92:0
     RDKit          3D

 53 55  0  0  0  0  0  0  0  0999 V2000
   58.9410   34.6050   53.8740 C   0  0  0  0  0  0  0  0  0  0  0  0
   59.9350   33.8520   53.1860 O   0  0  0  0  0  0  0  0  0  0  0  0
   59.8020   33.3730   51.8750 C   0  0  0  0  0  0  0  0  0  0  0  0
   58.6320   32.7440   51.4160 C   0  0  0  0  0  0  0  0  0  0  0  0
   58.5430   32.2970   50.0950 C   0  0  0  0  0  0  0  0  0  0  0  0
   59.6070   32.4980   49.1910 C   0  0  0  0  0  0  0  0  0  0  0  0
   59.5260   31.9650   47.7620 C   0  0  1  0  0  0  0  0  0  0  0  0
   58.5900   30.8410   47.6550 N   0  0  0  0  0  0  0  0  0  0  0  0
   58.9800   29.4930   47.9480 C   0  0  0  0  0  0  0  0  0  0  0  0
   60.0760   29.2580   48.5260 O   0  0  0  0  0  0  0  0  0  0  0  0
   58.1390   28.4150   47.5150 N   0  0  0  0  0  0  0  0  0  0  0  0
   58.5720   27.1940   46.8910 C   0  0  0  0  0  0  0  0  0  0  0  0
   59.8840   26.7170   47.0820 C   0  0  0  0  0  0  0  0  0  0  0  0
   60.3150   25.5520   46.4500 C   0  0  0  0  0  0  0  0  0  0  0  0
   59.4430   24.8420   45.6260 C   0  0  0  0  0  0  0  0  0  0  0  0
   58.1310   25.2830   45.4480 C   0  0  0  0  0  0  0  0  0  0  0  0
   57.6700   26.4520   46.0870 C   0  0  0  0  0  0  0  0  0  0  0  0
   56.2630   26.8810   45.8740 C   0  0  0  0  0  0  0  0  0  0  0  0
   55.3180   26.0740   46.0980 O   0  0  0  0  0  0  0  0  0  0  0  0
   55.9670   28.2120   45.4390 N   0  0  0  0  0  0  0  0  0  0  0  0
   57.0530   29.1700   44.4890 S   0  0  0  0  0  0  0  0  0  0  0  0
   57.4060   30.4070   45.2680 O   0  0  0  0  0  0  0  0  0  0  0  0
   58.3100   28.3940   44.2230 O   0  0  0  0  0  0  0  0  0  0  0  0
   56.2830   29.6590   42.9570 C   0  0  0  0  0  0  0  0  0  0  0  0
   56.7200   30.9170   42.5900 F   0  0  0  0  0  0  0  0  0  0  0  0
   56.6080   28.7550   41.9650 F   0  0  0  0  0  0  0  0  0  0  0  0
   54.9120   29.6880   43.1210 F   0  0  0  0  0  0  0  0  0  0  0  0
   59.1020   33.0270   46.7670 C   0  0  0  0  0  0  0  0  0  0  0  0
   57.7840   33.0520   46.2680 C   0  0  0  0  0  0  0  0  0  0  0  0
   57.4040   34.0160   45.3300 C   0  0  0  0  0  0  0  0  0  0  0  0
   58.3340   34.9530   44.8710 C   0  0  0  0  0  0  0  0  0  0  0  0
   59.6480   34.9290   45.3500 C   0  0  0  0  0  0  0  0  0  0  0  0
   60.0320   33.9700   46.2910 C   0  0  0  0  0  0  0  0  0  0  0  0
   60.7940   33.0780   49.6780 C   0  0  0  0  0  0  0  0  0  0  0  0
   60.8800   33.5260   50.9980 C   0  0  0  0  0  0  0  0  0  0  0  0
   59.0844   34.4963   54.9592 H   0  0  0  0  0  0  0  0  0  0  0  0
   59.0278   35.6660   53.5971 H   0  0  0  0  0  0  0  0  0  0  0  0
   57.9431   34.2342   53.5971 H   0  0  0  0  0  0  0  0  0  0  0  0
   57.7821   32.6029   52.1000 H   0  0  0  0  0  0  0  0  0  0  0  0
   57.6320   31.7821   49.7560 H   0  0  0  0  0  0  0  0  0  0  0  0
   60.5455   31.6312   47.5189 H   0  0  0  0  0  0  0  0  0  0  0  0
   57.6970   30.9800   47.1310 H   0  0  0  0  0  0  0  0  0  0  0  0
   60.5746   27.2694   47.7361 H   0  0  0  0  0  0  0  0  0  0  0  0
   61.3436   25.1926   46.6014 H   0  0  0  0  0  0  0  0  0  0  0  0
   59.7900   23.9319   45.1148 H   0  0  0  0  0  0  0  0  0  0  0  0
   57.4485   24.7118   44.8015 H   0  0  0  0  0  0  0  0  0  0  0  0
   57.0515   32.3098   46.6182 H   0  0  0  0  0  0  0  0  0  0  0  0
   56.3711   34.0373   44.9523 H   0  0  0  0  0  0  0  0  0  0  0  0
   58.0323   35.7101   44.1323 H   0  0  0  0  0  0  0  0  0  0  0  0
   60.3794   35.6654   44.9857 H   0  0  0  0  0  0  0  0  0  0  0  0
   61.0674   33.9520   46.6620 H   0  0  0  0  0  0  0  0  0  0  0  0
   61.6632   33.1794   49.0115 H   0  0  0  0  0  0  0  0  0  0  0  0
   61.8055   34.0042   51.3513 H   0  0  0  0  0  0  0  0  0  0  0  0
  1  2  1  0
  2  3  1  0
  3  4  2  0
  4  5  1  0
  5  6  2  0
  6  7  1  0
  7  8  1  0
  8  9  1  0
  9 10  2  0
  9 11  1  0
 11 12  1  0
 12 13  2  0
 13 14  1  0
 14 15  2  0
 15 16  1  0
 16 17  2  0
 17 18  1  0
 18 19  2  0
 18 20  1  0
 20 21  1  0
 21 22  2  0
 21 23  2  0
 21 24  1  0
 24 25  1  0
 24 26  1  0
 24 27  1  0
  7 28  1  0
 28 29  2  0
 29 30  1  0
 30 31  2  0
 31 32  1  0
 32 33  2  0
  6 34  1  0
 34 35  2  0
 35  3  1  0
 17 12  1  0
 33 28  1  0
  1 36  1  0
  1 37  1  0
  1 38  1  0
  4 39  1  0
  5 40  1  0
  7 41  1  6
  8 42  1  0
 13 43  1  0
 14 44  1  0
 15 45  1  0
 16 46  1  0
 29 47  1  0
 30 48  1  0
 31 49  1  0
 32 50  1  0
 33 51  1  0
 34 52  1  0
 35 53  1  0
M  CHG  2  11  -1  20  -1
M  END
>  <UniqueID>  (93) 
82

>  <SMILES>  (93) 
COc1ccc([C@@H](NC(=O)[N-]c2ccccc2C(=O)[N-]S(=O)(=O)C(F)(F)F)c2ccccc2)cc1

>  <Energy>  (93) 
61.49738931276204

>  <Genealogy>  (93) 
COc1ccc(C(NC(=O)[N-]c2ccccc2C(=O)[N-]S(=O)(=O)C(F)(F)F)c2ccccc2)cc1 (protonated)
COc1ccc([C@@H](NC(=O)[N-]c2ccccc2C(=O)[N-]S(=O)(=O)C(F)(F)F)c2ccccc2)cc1 (chirality)
COc1ccc([C@@H](NC(=O)[N-]c2ccccc2C(=O)[N-]S(=O)(=O)C(F)(F)F)c2ccccc2)cc1 (3D coordinates assigned)
COc1ccc([C@@H](NC(=O)[N-]c2ccccc2C(=O)[N-]S(=O)(=O)C(F)(F)F)c2ccccc2)cc1 (optimized conformer: 61.49738931276204 kcal/mol)

>  <smiles>  (93) 
COc1ccc(C(NC(=O)Nc2ccccc2C(=O)NS(=O)(=O)C(F)(F)F)c2ccccc2)cc1

>  <score_type>  (93) 
oracle

>  <origin>  (93) 
adg

>  <m_score__min__energy>  (93) 
-12.460000000000001

>  <m_primary>  (93) 
energy

$$$$
93:0
     RDKit          3D

 46 48  0  0  0  0  0  0  0  0999 V2000
   55.1750   26.3870   45.9910 N   0  0  0  0  0  0  0  0  0  0  0  0
   56.8830   26.6600   45.9970 S   0  0  0  0  0  0  0  0  0  0  0  0
   57.3770   26.6270   47.4150 O   0  0  0  0  0  0  0  0  0  0  0  0
   57.5490   25.5660   45.2090 O   0  0  0  0  0  0  0  0  0  0  0  0
   57.2720   28.2260   45.2790 C   0  0  0  0  0  0  0  0  0  0  0  0
   56.2630   28.9840   44.6660 C   0  0  0  0  0  0  0  0  0  0  0  0
   56.5580   30.2250   44.0970 C   0  0  0  0  0  0  0  0  0  0  0  0
   57.8610   30.7210   44.1390 C   0  0  0  0  0  0  0  0  0  0  0  0
   58.8760   29.9750   44.7430 C   0  0  0  0  0  0  0  0  0  0  0  0
   58.5920   28.7210   45.3120 C   0  0  0  0  0  0  0  0  0  0  0  0
   59.6180   27.9740   45.9850 N   0  0  0  0  0  0  0  0  0  0  0  0
   60.0800   28.2040   47.3210 C   0  0  0  0  0  0  0  0  0  0  0  0
   60.0030   27.2610   48.1530 O   0  0  0  0  0  0  0  0  0  0  0  0
   60.7110   29.4850   47.7270 C   0  0  0  0  0  0  0  0  0  0  0  0
   60.7790   29.8600   49.0820 C   0  0  0  0  0  0  0  0  0  0  0  0
   61.3080   31.1020   49.4470 C   0  0  0  0  0  0  0  0  0  0  0  0
   61.7680   31.9900   48.4680 C   0  0  0  0  0  0  0  0  0  0  0  0
   62.3810   33.5800   48.9140 S   0  0  0  0  0  0  0  0  0  0  0  0
   63.4100   34.0380   47.9170 O   0  0  0  0  0  0  0  0  0  0  0  0
   63.0280   33.4810   50.2670 O   0  0  0  0  0  0  0  0  0  0  0  0
   61.0720   34.7270   48.9980 N   0  0  0  0  0  0  0  0  0  0  0  0
   59.7670   34.0660   48.9320 C   0  0  0  0  0  0  0  0  0  0  0  0
   59.2170   34.0920   47.5320 C   0  0  0  0  0  0  0  0  0  0  0  0
   58.0470   33.3810   47.2110 C   0  0  0  0  0  0  0  0  0  0  0  0
   57.5260   33.4330   45.9170 C   0  0  0  0  0  0  0  0  0  0  0  0
   58.1660   34.1920   44.9330 C   0  0  0  0  0  0  0  0  0  0  0  0
   59.3250   34.9060   45.2450 C   0  0  0  0  0  0  0  0  0  0  0  0
   59.8510   34.8560   46.5390 C   0  0  0  0  0  0  0  0  0  0  0  0
   61.7040   31.6220   47.1190 C   0  0  0  0  0  0  0  0  0  0  0  0
   61.1830   30.3780   46.7500 C   0  0  0  0  0  0  0  0  0  0  0  0
   54.7540   27.0730   46.6580 H   0  0  0  0  0  0  0  0  0  0  0  0
   55.2333   28.5986   44.6333 H   0  0  0  0  0  0  0  0  0  0  0  0
   55.7620   30.8118   43.6153 H   0  0  0  0  0  0  0  0  0  0  0  0
   58.0898   31.7014   43.6957 H   0  0  0  0  0  0  0  0  0  0  0  0
   59.9020   30.3704   44.7736 H   0  0  0  0  0  0  0  0  0  0  0  0
   60.4138   29.1719   49.8586 H   0  0  0  0  0  0  0  0  0  0  0  0
   61.3628   31.3825   50.5092 H   0  0  0  0  0  0  0  0  0  0  0  0
   59.8771   33.0204   49.2554 H   0  0  0  0  0  0  0  0  0  0  0  0
   59.0695   34.6032   49.5915 H   0  0  0  0  0  0  0  0  0  0  0  0
   57.5407   32.7819   47.9821 H   0  0  0  0  0  0  0  0  0  0  0  0
   56.6101   32.8756   45.6712 H   0  0  0  0  0  0  0  0  0  0  0  0
   57.7566   34.2269   43.9126 H   0  0  0  0  0  0  0  0  0  0  0  0
   59.8243   35.5082   44.4717 H   0  0  0  0  0  0  0  0  0  0  0  0
   60.7655   35.4175   46.7805 H   0  0  0  0  0  0  0  0  0  0  0  0
   62.0655   32.3151   46.3451 H   0  0  0  0  0  0  0  0  0  0  0  0
   61.1423   30.0964   45.6874 H   0  0  0  0  0  0  0  0  0  0  0  0
  1  2  1  0
  2  3  2  0
  2  4  2  0
  2  5  1  0
  5  6  2  0
  6  7  1  0
  7  8  2  0
  8  9  1  0
  9 10  2  0
 10 11  1  0
 11 12  1  0
 12 13  2  0
 12 14  1  0
 14 15  2  0
 15 16  1  0
 16 17  2  0
 17 18  1  0
 18 19  2  0
 18 20  2  0
 18 21  1  0
 21 22  1  0
 22 23  1  0
 23 24  2  0
 24 25  1  0
 25 26  2  0
 26 27  1  0
 27 28  2  0
 17 29  1  0
 29 30  2  0
 10  5  1  0
 30 14  1  0
 28 23  1  0
  1 31  1  0
  6 32  1  0
  7 33  1  0
  8 34  1  0
  9 35  1  0
 15 36  1  0
 16 37  1  0
 22 38  1  0
 22 39  1  0
 24 40  1  0
 25 41  1  0
 26 42  1  0
 27 43  1  0
 28 44  1  0
 29 45  1  0
 30 46  1  0
M  CHG  3   1  -1  11  -1  21  -1
M  END
>  <UniqueID>  (94) 
83

>  <SMILES>  (94) 
[NH-]S(=O)(=O)c1ccccc1[N-]C(=O)c1ccc(S(=O)(=O)[N-]Cc2ccccc2)cc1

>  <Energy>  (94) 
51.04099447633708

>  <Genealogy>  (94) 
[NH-]S(=O)(=O)c1ccccc1[N-]C(=O)c1ccc(S(=O)(=O)[N-]Cc2ccccc2)cc1 (protonated)
[NH-]S(=O)(=O)c1ccccc1[N-]C(=O)c1ccc(S(=O)(=O)[N-]Cc2ccccc2)cc1 (3D coordinates assigned)
[NH-]S(=O)(=O)c1ccccc1[N-]C(=O)c1ccc(S(=O)(=O)[N-]Cc2ccccc2)cc1 (optimized conformer: 51.04099447633708 kcal/mol)

>  <smiles>  (94) 
NS(=O)(=O)c1ccccc1NC(=O)c1ccc(S(=O)(=O)NCc2ccccc2)cc1

>  <score_type>  (94) 
oracle

>  <origin>  (94) 
adg

>  <m_score__min__energy>  (94) 
-15.25

>  <m_primary>  (94) 
energy

$$$$
