0:0
     RDKit          3D

 49 52  0  0  0  0  0  0  0  0999 V2000
   57.1524   30.3193   55.4236 H   0  0  0  0  0  0  0  0  0  0  0  0
   56.0740   30.4640   55.2620 C   0  0  0  0  0  0  0  0  0  0  0  0
   55.4112   30.6606   56.1176 H   0  0  0  0  0  0  0  0  0  0  0  0
   55.5690   30.4010   54.0260 C   0  0  0  0  0  0  0  0  0  0  0  0
   56.2730   30.2250   52.8320 C   0  0  0  0  0  0  0  0  0  0  0  0
   57.7360   29.9600   52.6680 C   0  0  0  0  0  0  0  0  0  0  0  0
   58.2420   28.9830   53.2950 O   0  0  0  0  0  0  0  0  0  0  0  0
   58.5820   30.6960   51.7460 N   0  0  0  0  0  0  0  0  0  0  0  0
   59.4600   30.9190   52.2730 H   0  0  0  0  0  0  0  0  0  0  0  0
   58.0110   32.0110   51.3310 C   0  0  0  0  0  0  0  0  0  0  0  0
   56.9361   32.0109   51.5648 H   0  0  0  0  0  0  0  0  0  0  0  0
   58.5634   32.7866   51.8817 H   0  0  0  0  0  0  0  0  0  0  0  0
   58.1810   32.3210   49.8320 C   0  0  0  0  0  0  0  0  0  0  0  0
   57.3960   31.8008   49.2636 H   0  0  0  0  0  0  0  0  0  0  0  0
   58.1009   33.4078   49.6824 H   0  0  0  0  0  0  0  0  0  0  0  0
   59.4960   31.8730   49.3600 N   0  0  0  0  0  0  0  0  0  0  0  0
   60.3100   32.7260   48.5510 C   0  0  0  0  0  0  0  0  0  0  0  0
   61.3850   33.1850   49.0260 O   0  0  0  0  0  0  0  0  0  0  0  0
   59.8820   33.1340   47.1600 C   0  0  0  0  0  0  0  0  0  0  0  0
   59.7373   32.1330   46.7275 H   0  0  0  0  0  0  0  0  0  0  0  0
   58.7650   34.1860   47.1700 C   0  0  0  0  0  0  0  0  0  0  0  0
   57.8651   33.8902   46.6108 H   0  0  0  0  0  0  0  0  0  0  0  0
   58.2908   34.4842   48.1167 H   0  0  0  0  0  0  0  0  0  0  0  0
   59.6680   35.1560   46.4240 C   0  0  0  0  0  0  0  0  0  0  0  0
   59.3142   35.4109   45.4141 H   0  0  0  0  0  0  0  0  0  0  0  0
   59.8320   36.1715   46.8136 H   0  0  0  0  0  0  0  0  0  0  0  0
   60.8000   34.1320   46.4460 C   0  0  0  0  0  0  0  0  0  0  0  0
   61.1295   33.8052   45.4487 H   0  0  0  0  0  0  0  0  0  0  0  0
   61.7791   34.3931   46.8741 H   0  0  0  0  0  0  0  0  0  0  0  0
   60.0050   30.5520   49.7350 C   0  0  0  0  0  0  0  0  0  0  0  0
   60.1755   29.9578   48.8252 H   0  0  0  0  0  0  0  0  0  0  0  0
   60.9479   30.6770   50.2876 H   0  0  0  0  0  0  0  0  0  0  0  0
   58.9970   29.8250   50.6310 C   0  0  0  0  0  0  0  0  0  0  0  0
   58.1133   29.5518   50.0357 H   0  0  0  0  0  0  0  0  0  0  0  0
   59.4699   28.9202   51.0406 H   0  0  0  0  0  0  0  0  0  0  0  0
   55.3230   30.3120   51.8210 C   0  0  0  0  0  0  0  0  0  0  0  0
   55.5081   30.2307   50.7397 H   0  0  0  0  0  0  0  0  0  0  0  0
   54.1020   30.5200   52.4330 C   0  0  0  0  0  0  0  0  0  0  0  0
   52.9430   30.7040   51.7770 C   0  0  0  0  0  0  0  0  0  0  0  0
   52.8089   30.1998   50.8086 H   0  0  0  0  0  0  0  0  0  0  0  0
   51.8450   31.5410   52.2810 C   0  0  0  0  0  0  0  0  0  0  0  0
   51.5510   31.6670   53.5870 N   0  0  0  0  0  0  0  0  0  0  0  0
   50.5320   32.5500   53.5930 C   0  0  0  0  0  0  0  0  0  0  0  0
   49.9740   32.9290   54.6580 O   0  0  0  0  0  0  0  0  0  0  0  0
   50.1670   33.0030   52.3720 N   0  0  0  0  0  0  0  0  0  0  0  0
   51.0170   32.3650   51.5560 C   0  0  0  0  0  0  0  0  0  0  0  0
   51.0720   32.5820   50.1890 O   0  0  0  0  0  0  0  0  0  0  0  0
   54.2560   30.5710   53.7740 N   0  0  0  0  0  0  0  0  0  0  0  0
   53.5190   30.7790   54.4850 H   0  0  0  0  0  0  0  0  0  0  0  0
  1  2  1  0
  2  3  1  0
  2  4  2  0
  4  5  1  0
  5  6  1  0
  6  7  2  0
  6  8  1  0
  8  9  1  0
  8 10  1  0
 10 11  1  0
 10 12  1  0
 10 13  1  0
 13 14  1  0
 13 15  1  0
 13 16  1  0
 16 17  1  0
 17 18  2  0
 17 19  1  0
 19 20  1  0
 19 21  1  0
 21 22  1  0
 21 23  1  0
 21 24  1  0
 24 25  1  0
 24 26  1  0
 24 27  1  0
 27 28  1  0
 27 29  1  0
 16 30  1  0
 30 31  1  0
 30 32  1  0
 30 33  1  0
 33 34  1  0
 33 35  1  0
  5 36  2  0
 36 37  1  0
 36 38  1  0
 38 39  2  0
 39 40  1  0
 39 41  1  0
 41 42  1  0
 42 43  1  0
 43 44  2  0
 43 45  1  0
 45 46  1  0
 46 47  1  0
 38 48  1  0
 48 49  1  0
 48  4  1  0
 33  8  1  0
 46 41  2  0
 27 19  1  0
M  CHG  4   8   1  42  -1  45  -1  47  -1
M  END
>  <UniqueID>  (1) 
1

>  <SMILES>  (1) 
C=c1[nH]/c(=C\c2[n-]c(=O)[n-]c2[O-])cc1C(=O)[NH+]1CCN(C(=O)C2CCC2)CC1

>  <Energy>  (1) 
190.85117983788047

>  <Genealogy>  (1) 
C=c1[nH]c(=Cc2[n-]c(=O)[n-]c2[O-])cc1C(=O)[NH+]1CCN(C(=O)C2CCC2)CC1 (protonated)
C=c1[nH]/c(=C\c2[n-]c(=O)[n-]c2[O-])cc1C(=O)[NH+]1CCN(C(=O)C2CCC2)CC1 (cis-trans isomerization)
C=c1[nH]/c(=C\c2[n-]c(=O)[n-]c2[O-])cc1C(=O)[NH+]1CCN(C(=O)C2CCC2)CC1 (3D coordinates assigned)
C=c1[nH]/c(=C\c2[n-]c(=O)[n-]c2[O-])cc1C(=O)[NH+]1CCN(C(=O)C2CCC2)CC1 (nonaromatic ring conformer: 190.85117983788047 kcal/mol)

>  <smiles>  (1) 
C=c1[nH]c(=Cc2[nH]c(=O)[nH]c2O)cc1C(=O)N1CCN(C(=O)C2CCC2)CC1

>  <score_type>  (1) 
oracle

>  <origin>  (1) 
adg

>  <m_score__min__energy>  (1) 
-16.68

>  <m_primary>  (1) 
energy

$$$$
1:0
     RDKit          3D

 44 46  0  0  0  0  0  0  0  0999 V2000
   55.6510   26.8930   45.9980 O   0  0  0  0  0  0  0  0  0  0  0  0
   56.8720   26.6590   45.7900 C   0  0  0  0  0  0  0  0  0  0  0  0
   57.5300   25.4950   46.4590 C   0  0  0  0  0  0  0  0  0  0  0  0
   57.5320   24.3110   45.5330 C   0  0  0  0  0  0  0  0  0  0  0  0
   58.5720   23.3680   45.5850 C   0  0  0  0  0  0  0  0  0  0  0  0
   58.5920   22.2900   44.6940 C   0  0  0  0  0  0  0  0  0  0  0  0
   57.5810   22.1520   43.7390 C   0  0  0  0  0  0  0  0  0  0  0  0
   56.5480   23.0910   43.6730 C   0  0  0  0  0  0  0  0  0  0  0  0
   56.5230   24.1700   44.5630 C   0  0  0  0  0  0  0  0  0  0  0  0
   57.6390   27.5020   44.9240 N   0  0  0  0  0  0  0  0  0  0  0  0
   57.5830   28.9360   44.9080 C   0  0  0  0  0  0  0  0  0  0  0  0
   56.3670   29.6370   44.8280 C   0  0  0  0  0  0  0  0  0  0  0  0
   55.1520   28.9640   44.7800 O   0  0  0  0  0  0  0  0  0  0  0  0
   56.3710   30.9950   44.8290 N   0  0  0  0  0  0  0  0  0  0  0  0
   57.5300   31.6940   44.9210 C   0  0  0  0  0  0  0  0  0  0  0  0
   57.4950   33.4850   44.9000 S   0  0  0  0  0  0  0  0  0  0  0  0
   57.7760   33.6660   46.6970 C   0  0  0  0  0  0  0  0  0  0  0  0
   59.2310   33.8640   47.0040 C   0  0  0  0  0  0  0  0  0  0  0  0
   59.6140   34.9600   47.4950 O   0  0  0  0  0  0  0  0  0  0  0  0
   60.1790   32.8310   46.6930 N   0  0  0  0  0  0  0  0  0  0  0  0
   61.5160   32.7750   47.2250 C   0  0  0  0  0  0  0  0  0  0  0  0
   62.4900   33.7250   46.8600 C   0  0  0  0  0  0  0  0  0  0  0  0
   63.7730   33.6700   47.4130 C   0  0  0  0  0  0  0  0  0  0  0  0
   64.0940   32.6760   48.3390 C   0  0  0  0  0  0  0  0  0  0  0  0
   63.1310   31.7400   48.7220 C   0  0  0  0  0  0  0  0  0  0  0  0
   61.8450   31.7910   48.1730 C   0  0  0  0  0  0  0  0  0  0  0  0
   60.9230   30.8710   48.5580 F   0  0  0  0  0  0  0  0  0  0  0  0
   58.7130   31.0380   45.0420 N   0  0  0  0  0  0  0  0  0  0  0  0
   58.7620   29.6800   45.0450 C   0  0  0  0  0  0  0  0  0  0  0  0
   59.8740   29.1000   45.1620 O   0  0  0  0  0  0  0  0  0  0  0  0
   58.5663   25.7594   46.7162 H   0  0  0  0  0  0  0  0  0  0  0  0
   56.9750   25.2401   47.3739 H   0  0  0  0  0  0  0  0  0  0  0  0
   59.3741   23.4779   46.3297 H   0  0  0  0  0  0  0  0  0  0  0  0
   59.4043   21.5501   44.7450 H   0  0  0  0  0  0  0  0  0  0  0  0
   57.5983   21.3038   43.0388 H   0  0  0  0  0  0  0  0  0  0  0  0
   55.7535   22.9815   42.9202 H   0  0  0  0  0  0  0  0  0  0  0  0
   55.7118   24.9105   44.5041 H   0  0  0  0  0  0  0  0  0  0  0  0
   57.2111   34.5364   47.0621 H   0  0  0  0  0  0  0  0  0  0  0  0
   57.4381   32.7456   47.1957 H   0  0  0  0  0  0  0  0  0  0  0  0
   59.8850   32.0940   46.0130 H   0  0  0  0  0  0  0  0  0  0  0  0
   62.2398   34.5144   46.1360 H   0  0  0  0  0  0  0  0  0  0  0  0
   64.5305   34.4111   47.1179 H   0  0  0  0  0  0  0  0  0  0  0  0
   65.1062   32.6300   48.7673 H   0  0  0  0  0  0  0  0  0  0  0  0
   63.3839   30.9613   49.4566 H   0  0  0  0  0  0  0  0  0  0  0  0
  1  2  2  0
  2  3  1  0
  3  4  1  0
  4  5  2  0
  5  6  1  0
  6  7  2  0
  7  8  1  0
  8  9  2  0
  2 10  1  0
 10 11  1  0
 11 12  2  0
 12 13  1  0
 12 14  1  0
 14 15  1  0
 15 16  1  0
 16 17  1  0
 17 18  1  0
 18 19  2  0
 18 20  1  0
 20 21  1  0
 21 22  2  0
 22 23  1  0
 23 24  2  0
 24 25  1  0
 25 26  2  0
 26 27  1  0
 15 28  2  0
 28 29  1  0
 29 30  2  0
  9  4  1  0
 29 11  1  0
 26 21  1  0
  3 31  1  0
  3 32  1  0
  5 33  1  0
  6 34  1  0
  7 35  1  0
  8 36  1  0
  9 37  1  0
 17 38  1  0
 17 39  1  0
 20 40  1  0
 22 41  1  0
 23 42  1  0
 24 43  1  0
 25 44  1  0
M  CHG  3  10  -1  13  -1  14  -1
M  END
>  <UniqueID>  (2) 
2

>  <SMILES>  (2) 
O=C(Cc1ccccc1)[N-]c1c([O-])[n-]c(SCC(=O)Nc2ccccc2F)nc1=O

>  <Energy>  (2) 
49.367994178089134

>  <Genealogy>  (2) 
O=C(Cc1ccccc1)[N-]c1c([O-])[n-]c(SCC(=O)Nc2ccccc2F)nc1=O (protonated)
O=C(Cc1ccccc1)[N-]c1c([O-])[n-]c(SCC(=O)Nc2ccccc2F)nc1=O (3D coordinates assigned)
O=C(Cc1ccccc1)[N-]c1c([O-])[n-]c(SCC(=O)Nc2ccccc2F)nc1=O (optimized conformer: 49.367994178089134 kcal/mol)

>  <smiles>  (2) 
O=C(CSc1nc(=O)c(NC(=O)Cc2ccccc2)c(O)[nH]1)Nc1ccccc1F

>  <score_type>  (2) 
oracle

>  <origin>  (2) 
adg

>  <m_score__min__energy>  (2) 
-15.67

>  <m_primary>  (2) 
energy

$$$$
2:0
     RDKit          3D

 57 59  0  0  0  0  0  0  0  0999 V2000
   59.5980   35.0320   45.8090 C   0  0  0  0  0  0  0  0  0  0  0  0
   58.5930   34.4480   45.1500 C   0  0  0  0  0  0  0  0  0  0  0  0
   57.4730   33.7320   45.8730 C   0  0  0  0  0  0  0  0  0  0  0  0
   57.4960   32.2710   45.6590 N   0  0  0  0  0  0  0  0  0  0  0  0
   56.6640   31.8210   44.5130 C   0  0  0  0  0  0  0  0  0  0  0  0
   57.5060   31.1960   43.3880 C   0  0  0  0  0  0  0  0  0  0  0  0
   58.3170   30.0500   43.8710 N   0  0  0  0  0  0  0  0  0  0  0  0
   57.5880   28.7670   43.7360 C   0  0  0  0  0  0  0  0  0  0  0  0
   56.5980   28.5820   44.8610 C   0  0  0  0  0  0  0  0  0  0  0  0
   55.5320   29.2510   44.8680 O   0  0  0  0  0  0  0  0  0  0  0  0
   56.8680   27.7070   45.9640 N   0  0  0  0  0  0  0  0  0  0  0  0
   58.1290   27.5430   46.6250 C   0  0  0  0  0  0  0  0  0  0  0  0
   59.0300   26.5310   46.2500 C   0  0  0  0  0  0  0  0  0  0  0  0
   60.2330   26.3700   46.9420 C   0  0  0  0  0  0  0  0  0  0  0  0
   60.5400   27.2040   48.0210 C   0  0  0  0  0  0  0  0  0  0  0  0
   59.6420   28.2030   48.4130 C   0  0  0  0  0  0  0  0  0  0  0  0
   60.0160   29.2300   49.7960 S   0  0  0  0  0  0  0  0  0  0  0  0
   61.0450   28.5580   50.6640 O   0  0  0  0  0  0  0  0  0  0  0  0
   58.7640   29.4260   50.6060 O   0  0  0  0  0  0  0  0  0  0  0  0
   60.6090   30.7780   49.2480 N   0  0  0  0  0  0  0  0  0  0  0  0
   59.5220   31.7800   49.3070 C   0  0  0  0  0  0  0  0  0  0  0  0
   59.8520   33.0620   48.5100 C   0  0  0  0  0  0  0  0  0  0  0  0
   61.3510   33.1780   48.2270 C   0  0  0  0  0  0  0  0  0  0  0  0
   61.8630   31.9450   47.4640 C   0  0  0  0  0  0  0  0  0  0  0  0
   61.1370   30.6520   47.8800 C   0  0  0  0  0  0  0  0  0  0  0  0
   58.4320   28.3600   47.7200 C   0  0  0  0  0  0  0  0  0  0  0  0
   58.8510   30.2430   45.2470 C   0  0  0  0  0  0  0  0  0  0  0  0
   58.8660   31.7160   45.6740 C   0  0  0  0  0  0  0  0  0  0  0  0
   60.3965   35.5443   45.2523 H   0  0  0  0  0  0  0  0  0  0  0  0
   59.6268   35.0004   46.9082 H   0  0  0  0  0  0  0  0  0  0  0  0
   58.5794   34.4889   44.0508 H   0  0  0  0  0  0  0  0  0  0  0  0
   57.5667   33.9309   46.9508 H   0  0  0  0  0  0  0  0  0  0  0  0
   56.5225   34.1110   45.4694 H   0  0  0  0  0  0  0  0  0  0  0  0
   55.9428   31.0722   44.8724 H   0  0  0  0  0  0  0  0  0  0  0  0
   56.1551   32.7045   44.1002 H   0  0  0  0  0  0  0  0  0  0  0  0
   56.8316   30.8439   42.5935 H   0  0  0  0  0  0  0  0  0  0  0  0
   58.1959   31.9660   43.0123 H   0  0  0  0  0  0  0  0  0  0  0  0
   57.0480   28.7600   42.7777 H   0  0  0  0  0  0  0  0  0  0  0  0
   58.3181   27.9451   43.7750 H   0  0  0  0  0  0  0  0  0  0  0  0
   58.7872   25.8642   45.4095 H   0  0  0  0  0  0  0  0  0  0  0  0
   60.9405   25.5849   46.6369 H   0  0  0  0  0  0  0  0  0  0  0  0
   61.4887   27.0748   48.5626 H   0  0  0  0  0  0  0  0  0  0  0  0
   58.6072   31.3324   48.8913 H   0  0  0  0  0  0  0  0  0  0  0  0
   59.3904   32.0672   50.3606 H   0  0  0  0  0  0  0  0  0  0  0  0
   59.3089   33.0378   47.5537 H   0  0  0  0  0  0  0  0  0  0  0  0
   59.5471   33.9303   49.1126 H   0  0  0  0  0  0  0  0  0  0  0  0
   61.5345   34.0779   47.6216 H   0  0  0  0  0  0  0  0  0  0  0  0
   61.8854   33.2443   49.1862 H   0  0  0  0  0  0  0  0  0  0  0  0
   61.7072   32.1065   46.3871 H   0  0  0  0  0  0  0  0  0  0  0  0
   62.9295   31.8220   47.7038 H   0  0  0  0  0  0  0  0  0  0  0  0
   60.3045   30.4643   47.1859 H   0  0  0  0  0  0  0  0  0  0  0  0
   61.8509   29.8158   47.8485 H   0  0  0  0  0  0  0  0  0  0  0  0
   57.7160   29.1313   48.0400 H   0  0  0  0  0  0  0  0  0  0  0  0
   58.2219   29.6787   45.9511 H   0  0  0  0  0  0  0  0  0  0  0  0
   59.8908   29.8842   45.2536 H   0  0  0  0  0  0  0  0  0  0  0  0
   59.2776   31.7943   46.6911 H   0  0  0  0  0  0  0  0  0  0  0  0
   59.4894   32.2855   44.9689 H   0  0  0  0  0  0  0  0  0  0  0  0
  1  2  2  0
  2  3  1  0
  3  4  1  0
  4  5  1  0
  5  6  1  0
  6  7  1  0
  7  8  1  0
  8  9  1  0
  9 10  2  0
  9 11  1  0
 11 12  1  0
 12 13  2  0
 13 14  1  0
 14 15  2  0
 15 16  1  0
 16 17  1  0
 17 18  2  0
 17 19  2  0
 17 20  1  0
 20 21  1  0
 21 22  1  0
 22 23  1  0
 23 24  1  0
 24 25  1  0
 16 26  2  0
  7 27  1  0
 27 28  1  0
 28  4  1  0
 26 12  1  0
 25 20  1  0
  1 29  1  0
  1 30  1  0
  2 31  1  0
  3 32  1  0
  3 33  1  0
  5 34  1  0
  5 35  1  0
  6 36  1  0
  6 37  1  0
  8 38  1  0
  8 39  1  0
 13 40  1  0
 14 41  1  0
 15 42  1  0
 21 43  1  0
 21 44  1  0
 22 45  1  0
 22 46  1  0
 23 47  1  0
 23 48  1  0
 24 49  1  0
 24 50  1  0
 25 51  1  0
 25 52  1  0
 26 53  1  0
 27 54  1  0
 27 55  1  0
 28 56  1  0
 28 57  1  0
M  CHG  1  11  -1
M  END
>  <UniqueID>  (3) 
3

>  <SMILES>  (3) 
C=CCN1CCN(CC(=O)[N-]c2cccc(S(=O)(=O)N3CCCCC3)c2)CC1

>  <Energy>  (3) 
79.0956338672073

>  <Genealogy>  (3) 
C=CCN1CCN(CC(=O)[N-]c2cccc(S(=O)(=O)N3CCCCC3)c2)CC1 (protonated)
C=CCN1CCN(CC(=O)[N-]c2cccc(S(=O)(=O)N3CCCCC3)c2)CC1 (3D coordinates assigned)
C=CCN1CCN(CC(=O)[N-]c2cccc(S(=O)(=O)N3CCCCC3)c2)CC1 (nonaromatic ring conformer: 79.0956338672073 kcal/mol)

>  <smiles>  (3) 
C=CCN1CCN(CC(=O)Nc2cccc(S(=O)(=O)N3CCCCC3)c2)CC1

>  <score_type>  (3) 
oracle

>  <origin>  (3) 
adg

>  <m_score__min__energy>  (3) 
-11.449999999999999

>  <m_primary>  (3) 
energy

$$$$
3:0
     RDKit          3D

 26 28  0  0  0  0  0  0  0  0999 V2000
   57.2320   22.9470   47.4780 O   0  0  0  0  0  0  0  0  0  0  0  0
   57.3020   24.1080   46.9990 C   0  0  0  0  0  0  0  0  0  0  0  0
   58.5140   24.6710   46.7590 N   0  0  0  0  0  0  0  0  0  0  0  0
   58.6110   25.9200   46.2360 C   0  0  0  0  0  0  0  0  0  0  0  0
   57.4570   26.6390   45.9110 C   0  0  0  0  0  0  0  0  0  0  0  0
   57.5820   27.9960   45.3330 C   0  0  0  0  0  0  0  0  0  0  0  0
   57.0250   29.0490   45.8590 N   0  0  0  0  0  0  0  0  0  0  0  0
   57.5070   30.3550   45.6720 N   0  0  0  0  0  0  0  0  0  0  0  0
   56.9130   31.2340   44.8720 N   0  0  0  0  0  0  0  0  0  0  0  0
   57.6800   32.3460   44.8690 C   0  0  0  0  0  0  0  0  0  0  0  0
   57.4130   33.3830   44.2080 O   0  0  0  0  0  0  0  0  0  0  0  0
   58.7710   32.1660   45.6880 C   0  0  0  0  0  0  0  0  0  0  0  0
   59.8290   33.0010   46.0330 C   0  0  0  0  0  0  0  0  0  0  0  0
   60.7690   32.5110   46.9570 C   0  0  0  0  0  0  0  0  0  0  0  0
   62.2460   33.6040   47.4760 Br  0  0  0  0  0  0  0  0  0  0  0  0
   60.6100   31.2260   47.5240 C   0  0  0  0  0  0  0  0  0  0  0  0
   59.5230   30.4040   47.1620 C   0  0  0  0  0  0  0  0  0  0  0  0
   59.2750   28.7500   48.0930 Br  0  0  0  0  0  0  0  0  0  0  0  0
   58.6270   30.9030   46.2010 C   0  0  0  0  0  0  0  0  0  0  0  0
   56.2130   26.0540   46.2090 C   0  0  0  0  0  0  0  0  0  0  0  0
   55.1400   26.6850   46.0240 O   0  0  0  0  0  0  0  0  0  0  0  0
   56.1650   24.8010   46.7320 N   0  0  0  0  0  0  0  0  0  0  0  0
   59.6014   26.3680   46.0673 H   0  0  0  0  0  0  0  0  0  0  0  0
   58.1742   28.1210   44.4145 H   0  0  0  0  0  0  0  0  0  0  0  0
   59.9266   34.0071   45.5991 H   0  0  0  0  0  0  0  0  0  0  0  0
   61.3444   30.8622   48.2577 H   0  0  0  0  0  0  0  0  0  0  0  0
  1  2  2  0
  2  3  1  0
  3  4  1  0
  4  5  2  0
  5  6  1  0
  6  7  2  3
  7  8  1  0
  8  9  1  0
  9 10  1  0
 10 11  2  0
 10 12  1  0
 12 13  2  0
 13 14  1  0
 14 15  1  0
 14 16  2  0
 16 17  1  0
 17 18  1  0
 17 19  2  0
  5 20  1  0
 20 21  2  0
 20 22  1  0
 22  2  1  0
 19  8  1  0
 19 12  1  0
  4 23  1  0
  6 24  1  0
 13 25  1  0
 16 26  1  0
M  CHG  3   3  -1   9  -1  22  -1
M  END
>  <UniqueID>  (4) 
4

>  <SMILES>  (4) 
O=c1[n-]cc(C=Nn2[n-]c(=O)c3cc(Br)cc(Br)c32)c(=O)[n-]1

>  <Energy>  (4) 
88.4924341132232

>  <Genealogy>  (4) 
O=c1[n-]cc(C=Nn2[n-]c(=O)c3cc(Br)cc(Br)c32)c(=O)[n-]1 (protonated)
O=c1[n-]cc(C=Nn2[n-]c(=O)c3cc(Br)cc(Br)c32)c(=O)[n-]1 (3D coordinates assigned)
O=c1[n-]cc(C=Nn2[n-]c(=O)c3cc(Br)cc(Br)c32)c(=O)[n-]1 (optimized conformer: 88.4924341132232 kcal/mol)

>  <smiles>  (4) 
O=c1[nH]cc(C=Nn2[nH]c(=O)c3cc(Br)cc(Br)c32)c(=O)[nH]1

>  <score_type>  (4) 
oracle

>  <origin>  (4) 
adg

>  <m_score__min__energy>  (4) 
-12.890000000000001

>  <m_primary>  (4) 
energy

$$$$
4:0
     RDKit          3D

 46 48  0  0  0  0  0  0  0  0999 V2000
   59.1425   31.3398   47.6545 H   0  0  0  0  0  0  0  0  0  0  0  0
   58.5090   31.1570   46.7740 C   0  0  0  0  0  0  0  0  0  0  0  0
   58.1860   29.8480   46.4090 C   0  0  0  0  0  0  0  0  0  0  0  0
   58.5485   29.0069   47.0182 H   0  0  0  0  0  0  0  0  0  0  0  0
   57.4010   29.5960   45.2690 C   0  0  0  0  0  0  0  0  0  0  0  0
   57.0580   28.2090   44.8800 C   0  0  0  0  0  0  0  0  0  0  0  0
   57.6280   27.6710   43.8900 O   0  0  0  0  0  0  0  0  0  0  0  0
   56.0770   27.4740   45.6210 N   0  0  0  0  0  0  0  0  0  0  0  0
   56.3900   26.3340   46.4750 C   0  0  0  0  0  0  0  0  0  0  0  0
   55.5506   26.1556   47.1632 H   0  0  0  0  0  0  0  0  0  0  0  0
   57.3052   26.5554   47.0437 H   0  0  0  0  0  0  0  0  0  0  0  0
   56.6200   25.0970   45.6400 C   0  0  0  0  0  0  0  0  0  0  0  0
   56.7510   23.8170   46.2330 C   0  0  0  0  0  0  0  0  0  0  0  0
   56.6310   23.6130   47.7210 C   0  0  0  0  0  0  0  0  0  0  0  0
   57.1211   24.4462   48.2460 H   0  0  0  0  0  0  0  0  0  0  0  0
   55.5680   23.5773   48.0017 H   0  0  0  0  0  0  0  0  0  0  0  0
   57.1163   22.6666   48.0017 H   0  0  0  0  0  0  0  0  0  0  0  0
   56.9810   22.7100   45.4030 C   0  0  0  0  0  0  0  0  0  0  0  0
   57.0749   21.7058   45.8421 H   0  0  0  0  0  0  0  0  0  0  0  0
   57.0910   22.8780   44.0240 C   0  0  0  0  0  0  0  0  0  0  0  0
   57.2741   22.0111   43.3721 H   0  0  0  0  0  0  0  0  0  0  0  0
   56.9670   24.1530   43.4790 C   0  0  0  0  0  0  0  0  0  0  0  0
   57.0548   24.2944   42.3917 H   0  0  0  0  0  0  0  0  0  0  0  0
   56.7380   25.2240   44.2840 N   0  0  0  0  0  0  0  0  0  0  0  0
   56.6540   26.1650   43.8370 H   0  0  0  0  0  0  0  0  0  0  0  0
   56.9570   30.6860   44.4980 C   0  0  0  0  0  0  0  0  0  0  0  0
   56.3511   30.5061   43.5977 H   0  0  0  0  0  0  0  0  0  0  0  0
   57.2790   31.9950   44.8660 C   0  0  0  0  0  0  0  0  0  0  0  0
   56.9414   32.8368   44.2436 H   0  0  0  0  0  0  0  0  0  0  0  0
   58.0280   32.2410   46.0210 C   0  0  0  0  0  0  0  0  0  0  0  0
   58.3940   33.5890   46.3450 N   0  0  0  0  0  0  0  0  0  0  0  0
   59.5170   33.9940   46.8690 C   0  0  0  0  0  0  0  0  0  0  0  0
   60.7500   34.0290   46.0150 C   0  0  0  0  0  0  0  0  0  0  0  0
   60.8390   35.0195   45.5449 H   0  0  0  0  0  0  0  0  0  0  0  0
   60.6733   33.2524   45.2398 H   0  0  0  0  0  0  0  0  0  0  0  0
   61.9700   33.7660   46.8570 C   0  0  0  0  0  0  0  0  0  0  0  0
   63.0800   33.9920   46.4010 O   0  0  0  0  0  0  0  0  0  0  0  0
   61.8270   33.1550   48.2290 C   0  0  0  0  0  0  0  0  0  0  0  0
   62.7886   33.2434   48.7558 H   0  0  0  0  0  0  0  0  0  0  0  0
   61.5318   32.1037   48.0958 H   0  0  0  0  0  0  0  0  0  0  0  0
   60.7330   33.8440   49.0770 C   0  0  0  0  0  0  0  0  0  0  0  0
   61.2208   34.5850   49.7274 H   0  0  0  0  0  0  0  0  0  0  0  0
   60.2246   33.0433   49.6341 H   0  0  0  0  0  0  0  0  0  0  0  0
   59.6390   34.5670   48.2630 C   0  0  0  0  0  0  0  0  0  0  0  0
   59.8944   35.6344   48.1898 H   0  0  0  0  0  0  0  0  0  0  0  0
   58.6771   34.4295   48.7785 H   0  0  0  0  0  0  0  0  0  0  0  0
  1  2  1  0
  2  3  2  0
  3  4  1  0
  3  5  1  0
  5  6  1  0
  6  7  2  0
  6  8  1  0
  8  9  1  0
  9 10  1  0
  9 11  1  0
  9 12  1  0
 12 13  2  0
 13 14  1  0
 14 15  1  0
 14 16  1  0
 14 17  1  0
 13 18  1  0
 18 19  1  0
 18 20  2  0
 20 21  1  0
 20 22  1  0
 22 23  1  0
 22 24  2  0
 24 25  1  0
  5 26  2  0
 26 27  1  0
 26 28  1  0
 28 29  1  0
 28 30  2  0
 30 31  1  0
 31 32  2  0
 32 33  1  0
 33 34  1  0
 33 35  1  0
 33 36  1  0
 36 37  2  0
 36 38  1  0
 38 39  1  0
 38 40  1  0
 38 41  1  0
 41 42  1  0
 41 43  1  0
 41 44  1  0
 44 45  1  0
 44 46  1  0
 30  2  1  0
 44 32  1  0
 24 12  1  0
M  CHG  2   8  -1  24   1
M  END
>  <UniqueID>  (5) 
5

>  <SMILES>  (5) 
Cc1ccc[nH+]c1C[N-]C(=O)c1ccc(/N=C2\CCCC(=O)C2)cc1

>  <Energy>  (5) 
58.183015838627334

>  <Genealogy>  (5) 
Cc1ccc[nH+]c1C[N-]C(=O)c1ccc(N=C2CCCC(=O)C2)cc1 (protonated)
Cc1ccc[nH+]c1C[N-]C(=O)c1ccc(/N=C2\CCCC(=O)C2)cc1 (cis-trans isomerization)
Cc1ccc[nH+]c1C[N-]C(=O)c1ccc(/N=C2\CCCC(=O)C2)cc1 (3D coordinates assigned)
Cc1ccc[nH+]c1C[N-]C(=O)c1ccc(/N=C2\CCCC(=O)C2)cc1 (nonaromatic ring conformer: 58.183015838627334 kcal/mol)

>  <smiles>  (5) 
Cc1cccnc1CNC(=O)c1ccc(N=C2CCCC(=O)C2)cc1

>  <score_type>  (5) 
oracle

>  <origin>  (5) 
adg

>  <m_score__min__energy>  (5) 
-8.9100000000000001

>  <m_primary>  (5) 
energy

$$$$
5:0
     RDKit          3D

 62 66  0  0  0  0  0  0  0  0999 V2000
   57.3450   31.5230   54.5150 N   0  0  0  0  0  0  0  0  0  0  0  0
   57.8360   31.8970   53.3710 C   0  0  0  0  0  0  0  0  0  0  0  0
   58.2800   33.1430   53.1320 N   0  0  0  0  0  0  0  0  0  0  0  0
   58.7210   33.1500   51.8710 C   0  0  0  0  0  0  0  0  0  0  0  0
   59.2630   34.1600   51.1710 N   0  0  0  0  0  0  0  0  0  0  0  0
   59.6630   33.9760   49.8930 C   0  0  0  0  0  0  0  0  0  0  0  0
   59.5430   32.7780   49.2480 C   0  0  0  0  0  0  0  0  0  0  0  0
   59.9380   32.4560   47.9100 C   0  0  0  0  0  0  0  0  0  0  0  0
   61.0480   31.7950   47.8090 O   0  0  0  0  0  0  0  0  0  0  0  0
   59.2930   32.7480   46.6610 C   0  0  0  0  0  0  0  0  0  0  0  0
   58.7730   31.8630   45.7640 C   0  0  0  0  0  0  0  0  0  0  0  0
   58.1460   32.2580   44.5770 C   0  0  0  0  0  0  0  0  0  0  0  0
   57.6430   31.3510   43.6330 N   0  0  0  0  0  0  0  0  0  0  0  0
   56.7420   29.9320   43.9150 S   0  0  0  0  0  0  0  0  0  0  0  0
   56.3680   29.3160   42.5630 O   0  0  0  0  0  0  0  0  0  0  0  0
   55.4450   30.2250   44.6230 O   0  0  0  0  0  0  0  0  0  0  0  0
   57.6860   28.7560   44.7640 C   0  0  0  0  0  0  0  0  0  0  0  0
   59.0740   28.8910   44.6920 C   0  0  0  0  0  0  0  0  0  0  0  0
   59.8990   27.9800   45.3350 C   0  0  0  0  0  0  0  0  0  0  0  0
   59.3990   26.9210   46.0590 C   0  0  0  0  0  0  0  0  0  0  0  0
   58.0380   26.7790   46.1350 C   0  0  0  0  0  0  0  0  0  0  0  0
   57.2160   27.7020   45.4850 C   0  0  0  0  0  0  0  0  0  0  0  0
   55.8930   27.5120   45.6150 F   0  0  0  0  0  0  0  0  0  0  0  0
   58.0370   33.6140   44.2830 C   0  0  0  0  0  0  0  0  0  0  0  0
   58.5540   34.5250   45.1750 C   0  0  0  0  0  0  0  0  0  0  0  0
   59.1630   34.1020   46.3290 C   0  0  0  0  0  0  0  0  0  0  0  0
   59.6460   35.0690   47.1570 F   0  0  0  0  0  0  0  0  0  0  0  0
   58.9730   31.7370   49.9980 C   0  0  0  0  0  0  0  0  0  0  0  0
   58.7960   30.1460   49.2570 Cl  0  0  0  0  0  0  0  0  0  0  0  0
   58.5640   31.9190   51.2990 C   0  0  0  0  0  0  0  0  0  0  0  0
   58.0010   31.1270   52.2530 N   0  0  0  0  0  0  0  0  0  0  0  0
   57.6610   29.7430   52.1370 C   0  0  0  0  0  0  0  0  0  0  0  0
   56.4010   29.2820   52.8000 C   0  0  0  0  0  0  0  0  0  0  0  0
   55.3410   30.2050   52.8580 N   0  0  0  0  0  0  0  0  0  0  0  0
   55.0740   30.8470   51.6400 C   0  0  0  0  0  0  0  0  0  0  0  0
   53.6310   30.4150   51.2590 C   0  0  0  0  0  0  0  0  0  0  0  0
   52.8400   31.0230   52.2000 O   0  0  0  0  0  0  0  0  0  0  0  0
   52.9430   30.3840   53.4260 C   0  0  0  0  0  0  0  0  0  0  0  0
   54.3400   30.0480   53.8220 C   0  0  0  0  0  0  0  0  0  0  0  0
   56.3980   31.0970   54.5120 H   0  0  0  0  0  0  0  0  0  0  0  0
   58.2890   33.9660   53.7890 H   0  0  0  0  0  0  0  0  0  0  0  0
   60.1031   34.8256   49.3504 H   0  0  0  0  0  0  0  0  0  0  0  0
   58.8499   30.7879   45.9836 H   0  0  0  0  0  0  0  0  0  0  0  0
   57.8530   31.5850   42.6110 H   0  0  0  0  0  0  0  0  0  0  0  0
   59.5148   29.7230   44.1232 H   0  0  0  0  0  0  0  0  0  0  0  0
   60.9892   28.1079   45.2641 H   0  0  0  0  0  0  0  0  0  0  0  0
   60.0717   26.2103   46.5613 H   0  0  0  0  0  0  0  0  0  0  0  0
   57.5974   25.9461   46.7025 H   0  0  0  0  0  0  0  0  0  0  0  0
   57.5478   33.9503   43.3569 H   0  0  0  0  0  0  0  0  0  0  0  0
   58.4784   35.6013   44.9610 H   0  0  0  0  0  0  0  0  0  0  0  0
   57.5714   29.5147   51.0647 H   0  0  0  0  0  0  0  0  0  0  0  0
   58.4660   29.2119   52.6661 H   0  0  0  0  0  0  0  0  0  0  0  0
   56.0422   28.3969   52.2541 H   0  0  0  0  0  0  0  0  0  0  0  0
   56.6785   29.0958   53.8480 H   0  0  0  0  0  0  0  0  0  0  0  0
   55.1309   31.9391   51.7591 H   0  0  0  0  0  0  0  0  0  0  0  0
   55.8033   30.5741   50.8631 H   0  0  0  0  0  0  0  0  0  0  0  0
   53.3732   30.7636   50.2480 H   0  0  0  0  0  0  0  0  0  0  0  0
   53.5072   29.3221   51.2460 H   0  0  0  0  0  0  0  0  0  0  0  0
   52.5147   31.0427   54.1959 H   0  0  0  0  0  0  0  0  0  0  0  0
   52.4018   29.4308   53.3332 H   0  0  0  0  0  0  0  0  0  0  0  0
   54.6029   30.6883   54.6770 H   0  0  0  0  0  0  0  0  0  0  0  0
   54.3195   28.9682   54.0307 H   0  0  0  0  0  0  0  0  0  0  0  0
  1  2  2  3
  2  3  1  0
  3  4  1  0
  4  5  2  0
  5  6  1  0
  6  7  2  0
  7  8  1  0
  8  9  2  0
  8 10  1  0
 10 11  2  0
 11 12  1  0
 12 13  1  0
 13 14  1  0
 14 15  2  0
 14 16  2  0
 14 17  1  0
 17 18  2  0
 18 19  1  0
 19 20  2  0
 20 21  1  0
 21 22  2  0
 22 23  1  0
 12 24  2  0
 24 25  1  0
 25 26  2  0
 26 27  1  0
  7 28  1  0
 28 29  1  0
 28 30  2  0
 30 31  1  0
 31 32  1  0
 32 33  1  0
 33 34  1  0
 34 35  1  0
 35 36  1  0
 36 37  1  0
 37 38  1  0
 38 39  1  0
 31  2  1  0
 39 34  1  0
 30  4  1  0
 26 10  1  0
 22 17  1  0
  1 40  1  0
  3 41  1  0
  6 42  1  0
 11 43  1  0
 13 44  1  0
 18 45  1  0
 19 46  1  0
 20 47  1  0
 21 48  1  0
 24 49  1  0
 25 50  1  0
 32 51  1  0
 32 52  1  0
 33 53  1  0
 33 54  1  0
 35 55  1  0
 35 56  1  0
 36 57  1  0
 36 58  1  0
 38 59  1  0
 38 60  1  0
 39 61  1  0
 39 62  1  0
M  END
>  <smiles>  (6) 
N=c1[nH]c2ncc(C(=O)c3cc(NS(=O)(=O)c4ccccc4F)ccc3F)c(Cl)c2n1CCN1CCOCC1

>  <score_type>  (6) 
oracle

>  <origin>  (6) 
adg

>  <m_score__min__energy>  (6) 
-10.609999999999999

>  <m_primary>  (6) 
energy

$$$$
6:0
     RDKit          3D

 30 31  0  0  0  0  0  0  0  0999 V2000
   58.0860   32.5900   43.4840 C   0  0  0  0  0  0  0  0  0  0  0  0
   57.8370   31.2900   44.1900 C   0  0  0  0  0  0  0  0  0  0  0  0
   58.4050   31.0480   45.4480 C   0  0  0  0  0  0  0  0  0  0  0  0
   58.1420   29.8520   46.1230 C   0  0  0  0  0  0  0  0  0  0  0  0
   57.3060   28.8820   45.5520 C   0  0  0  0  0  0  0  0  0  0  0  0
   57.0390   27.6650   46.2740 N   0  0  0  0  0  0  0  0  0  0  0  0
   57.7350   26.4290   46.0400 C   0  0  0  0  0  0  0  0  0  0  0  0
   57.0250   25.2320   45.7760 C   0  0  0  0  0  0  0  0  0  0  0  0
   55.5480   25.2040   45.6150 C   0  0  0  0  0  0  0  0  0  0  0  0
   54.7610   26.3280   46.0060 N   0  0  0  0  0  0  0  0  0  0  0  0
   54.9690   24.1860   45.1530 O   0  0  0  0  0  0  0  0  0  0  0  0
   57.7510   24.0370   45.6280 C   0  0  0  0  0  0  0  0  0  0  0  0
   59.1420   24.0450   45.7370 C   0  0  0  0  0  0  0  0  0  0  0  0
   59.8570   22.8620   45.5780 O   0  0  0  0  0  0  0  0  0  0  0  0
   59.7970   25.2060   45.9960 N   0  0  0  0  0  0  0  0  0  0  0  0
   59.1370   26.3820   46.1560 C   0  0  0  0  0  0  0  0  0  0  0  0
   59.7930   27.4230   46.4250 O   0  0  0  0  0  0  0  0  0  0  0  0
   56.7110   29.1400   44.3030 C   0  0  0  0  0  0  0  0  0  0  0  0
   56.9740   30.3360   43.6290 C   0  0  0  0  0  0  0  0  0  0  0  0
   58.2387   33.3871   44.2265 H   0  0  0  0  0  0  0  0  0  0  0  0
   58.9831   32.4991   42.8539 H   0  0  0  0  0  0  0  0  0  0  0  0
   57.2188   32.8370   42.8539 H   0  0  0  0  0  0  0  0  0  0  0  0
   59.0609   31.8026   45.9067 H   0  0  0  0  0  0  0  0  0  0  0  0
   58.5943   29.6708   47.1092 H   0  0  0  0  0  0  0  0  0  0  0  0
   56.2950   27.6710   47.0090 H   0  0  0  0  0  0  0  0  0  0  0  0
   53.7290   26.3410   45.8510 H   0  0  0  0  0  0  0  0  0  0  0  0
   57.2215   23.0943   45.4259 H   0  0  0  0  0  0  0  0  0  0  0  0
   60.6480   22.8140   44.9490 H   0  0  0  0  0  0  0  0  0  0  0  0
   56.0354   28.3966   43.8548 H   0  0  0  0  0  0  0  0  0  0  0  0
   56.5024   30.5303   42.6544 H   0  0  0  0  0  0  0  0  0  0  0  0
  1  2  1  0
  2  3  2  0
  3  4  1  0
  4  5  2  0
  5  6  1  0
  6  7  1  0
  7  8  2  0
  8  9  1  0
  9 10  1  0
  9 11  2  0
  8 12  1  0
 12 13  2  0
 13 14  1  0
 13 15  1  0
 15 16  1  0
 16 17  2  0
  5 18  1  0
 18 19  2  0
 19  2  1  0
 16  7  1  0
  1 20  1  0
  1 21  1  0
  1 22  1  0
  3 23  1  0
  4 24  1  0
  6 25  1  0
 10 26  1  0
 12 27  1  0
 14 28  1  0
 18 29  1  0
 19 30  1  0
M  CHG  2  10  -1  15  -1
M  END
>  <UniqueID>  (7) 
6

>  <SMILES>  (7) 
Cc1ccc(Nc2c(C([NH-])=O)cc(O)[n-]c2=O)cc1

>  <Energy>  (7) 
40.02838277589998

>  <Genealogy>  (7) 
Cc1ccc(Nc2c(C([NH-])=O)cc(O)[n-]c2=O)cc1 (protonated)
Cc1ccc(Nc2c(C([NH-])=O)cc(O)[n-]c2=O)cc1 (3D coordinates assigned)
Cc1ccc(Nc2c(C([NH-])=O)cc(O)[n-]c2=O)cc1 (optimized conformer: 40.02838277589998 kcal/mol)

>  <smiles>  (7) 
Cc1ccc(Nc2c(C(N)=O)cc(O)[nH]c2=O)cc1

>  <score_type>  (7) 
oracle

>  <origin>  (7) 
adg

>  <m_score__min__energy>  (7) 
-10.98

>  <m_primary>  (7) 
energy

$$$$
7:0
     RDKit          3D

 60 63  0  0  0  0  0  0  0  0999 V2000
   60.6070   28.8930   50.0000 C   0  0  0  0  0  0  0  0  0  0  0  0
   60.1340   29.5620   48.7390 C   0  0  0  0  0  0  0  0  0  0  0  0
   60.0510   28.8180   47.5520 C   0  0  0  0  0  0  0  0  0  0  0  0
   59.5220   29.3940   46.3870 C   0  0  0  0  0  0  0  0  0  0  0  0
   59.3650   28.5650   45.1780 C   0  0  0  0  0  0  0  0  0  0  0  0
   60.3100   28.5530   44.3440 O   0  0  0  0  0  0  0  0  0  0  0  0
   58.2090   27.7190   44.9620 N   0  0  0  0  0  0  0  0  0  0  0  0
   58.4340   26.3510   44.4830 C   0  0  0  0  0  0  0  0  0  0  0  0
   56.8300   28.1810   45.2110 C   0  0  0  0  0  0  0  0  0  0  0  0
   56.5210   29.4680   44.4960 C   0  0  0  0  0  0  0  0  0  0  0  0
   55.4700   30.0960   44.7930 O   0  0  0  0  0  0  0  0  0  0  0  0
   57.4200   30.0000   43.5130 N   0  0  0  0  0  0  0  0  0  0  0  0
   57.0430   31.1450   42.6880 C   0  0  0  0  0  0  0  0  0  0  0  0
   58.1380   32.2130   42.7000 C   0  0  0  0  0  0  0  0  0  0  0  0
   58.1490   32.9460   44.0130 C   0  0  0  0  0  0  0  0  0  0  0  0
   59.1880   33.8400   44.3210 C   0  0  0  0  0  0  0  0  0  0  0  0
   59.1750   34.5410   45.5310 C   0  0  0  0  0  0  0  0  0  0  0  0
   58.1220   34.3590   46.4360 C   0  0  0  0  0  0  0  0  0  0  0  0
   57.0830   33.4760   46.1330 C   0  0  0  0  0  0  0  0  0  0  0  0
   57.0930   32.7750   44.9240 C   0  0  0  0  0  0  0  0  0  0  0  0
   59.1230   30.7370   46.3960 C   0  0  0  0  0  0  0  0  0  0  0  0
   59.1810   31.4770   47.5780 C   0  0  0  0  0  0  0  0  0  0  0  0
   59.6610   30.8890   48.7580 C   0  0  0  0  0  0  0  0  0  0  0  0
   59.6610   31.6390   49.9770 N   0  0  0  0  0  0  0  0  0  0  0  0
   60.3550   33.2220   50.0520 S   0  0  0  0  0  0  0  0  0  0  0  0
   59.3370   34.2300   49.6020 O   0  0  0  0  0  0  0  0  0  0  0  0
   60.7640   33.5430   51.4610 O   0  0  0  0  0  0  0  0  0  0  0  0
   61.7460   33.2820   48.9780 C   0  0  0  0  0  0  0  0  0  0  0  0
   61.6230   33.6550   47.6220 C   0  0  0  0  0  0  0  0  0  0  0  0
   62.7650   33.7090   46.7860 C   0  0  0  0  0  0  0  0  0  0  0  0
   64.0390   33.3950   47.2960 C   0  0  0  0  0  0  0  0  0  0  0  0
   64.1170   33.0360   48.6370 C   0  0  0  0  0  0  0  0  0  0  0  0
   65.1940   32.7020   49.3580 N   0  0  0  0  0  0  0  0  0  0  0  0
   64.7220   32.4730   50.5590 O   0  0  0  0  0  0  0  0  0  0  0  0
   63.4270   32.6290   50.6700 N   0  0  0  0  0  0  0  0  0  0  0  0
   63.0270   32.9880   49.4410 C   0  0  0  0  0  0  0  0  0  0  0  0
   60.2203   29.4400   50.8725 H   0  0  0  0  0  0  0  0  0  0  0  0
   60.2400   27.8563   50.0249 H   0  0  0  0  0  0  0  0  0  0  0  0
   61.7067   28.8933   50.0249 H   0  0  0  0  0  0  0  0  0  0  0  0
   60.4031   27.7760   47.5348 H   0  0  0  0  0  0  0  0  0  0  0  0
   58.5452   25.6748   45.3435 H   0  0  0  0  0  0  0  0  0  0  0  0
   57.5765   26.0304   43.8731 H   0  0  0  0  0  0  0  0  0  0  0  0
   59.3490   26.3219   43.8731 H   0  0  0  0  0  0  0  0  0  0  0  0
   56.1296   27.4068   44.8644 H   0  0  0  0  0  0  0  0  0  0  0  0
   56.7259   28.3627   46.2909 H   0  0  0  0  0  0  0  0  0  0  0  0
   58.3490   29.5370   43.3740 H   0  0  0  0  0  0  0  0  0  0  0  0
   56.8823   30.8060   41.6539 H   0  0  0  0  0  0  0  0  0  0  0  0
   56.1209   31.5836   43.0972 H   0  0  0  0  0  0  0  0  0  0  0  0
   59.1148   31.7308   42.5471 H   0  0  0  0  0  0  0  0  0  0  0  0
   57.9387   32.9339   41.8934 H   0  0  0  0  0  0  0  0  0  0  0  0
   60.0133   33.9889   43.6091 H   0  0  0  0  0  0  0  0  0  0  0  0
   59.9928   35.2361   45.7721 H   0  0  0  0  0  0  0  0  0  0  0  0
   58.1131   34.9121   47.3868 H   0  0  0  0  0  0  0  0  0  0  0  0
   56.2574   33.3325   46.8456 H   0  0  0  0  0  0  0  0  0  0  0  0
   56.2699   32.0858   44.6844 H   0  0  0  0  0  0  0  0  0  0  0  0
   58.7634   31.2091   45.4698 H   0  0  0  0  0  0  0  0  0  0  0  0
   58.8490   32.5257   47.5844 H   0  0  0  0  0  0  0  0  0  0  0  0
   60.6335   33.9054   47.2119 H   0  0  0  0  0  0  0  0  0  0  0  0
   62.6556   33.9984   45.7304 H   0  0  0  0  0  0  0  0  0  0  0  0
   64.9357   33.4321   46.6599 H   0  0  0  0  0  0  0  0  0  0  0  0
  1  2  1  0
  2  3  2  0
  3  4  1  0
  4  5  1  0
  5  6  2  0
  5  7  1  0
  7  8  1  0
  7  9  1  0
  9 10  1  0
 10 11  2  0
 10 12  1  0
 12 13  1  0
 13 14  1  0
 14 15  1  0
 15 16  2  0
 16 17  1  0
 17 18  2  0
 18 19  1  0
 19 20  2  0
  4 21  2  0
 21 22  1  0
 22 23  2  0
 23 24  1  0
 24 25  1  0
 25 26  2  0
 25 27  2  0
 25 28  1  0
 28 29  2  0
 29 30  1  0
 30 31  2  0
 31 32  1  0
 32 33  2  0
 33 34  1  0
 34 35  1  0
 35 36  2  0
 23  2  1  0
 36 28  1  0
 20 15  1  0
 36 32  1  0
  1 37  1  0
  1 38  1  0
  1 39  1  0
  3 40  1  0
  8 41  1  0
  8 42  1  0
  8 43  1  0
  9 44  1  0
  9 45  1  0
 12 46  1  0
 13 47  1  0
 13 48  1  0
 14 49  1  0
 14 50  1  0
 16 51  1  0
 17 52  1  0
 18 53  1  0
 19 54  1  0
 20 55  1  0
 21 56  1  0
 22 57  1  0
 29 58  1  0
 30 59  1  0
 31 60  1  0
M  CHG  1  24  -1
M  END
>  <UniqueID>  (8) 
7

>  <SMILES>  (8) 
Cc1cc(C(=O)N(C)CC(=O)NCCc2ccccc2)ccc1[N-]S(=O)(=O)c1cccc2nonc12

>  <Energy>  (8) 
105.27267497821575

>  <Genealogy>  (8) 
Cc1cc(C(=O)N(C)CC(=O)NCCc2ccccc2)ccc1[N-]S(=O)(=O)c1cccc2nonc12 (protonated)
Cc1cc(C(=O)N(C)CC(=O)NCCc2ccccc2)ccc1[N-]S(=O)(=O)c1cccc2nonc12 (3D coordinates assigned)
Cc1cc(C(=O)N(C)CC(=O)NCCc2ccccc2)ccc1[N-]S(=O)(=O)c1cccc2nonc12 (optimized conformer: 105.27267497821575 kcal/mol)

>  <smiles>  (8) 
Cc1cc(C(=O)N(C)CC(=O)NCCc2ccccc2)ccc1NS(=O)(=O)c1cccc2nonc12

>  <score_type>  (8) 
oracle

>  <origin>  (8) 
adg

>  <m_score__min__energy>  (8) 
-12.17

>  <m_primary>  (8) 
energy

$$$$
8:0
     RDKit          3D

 54 57  0  0  0  0  0  0  0  0999 V2000
   54.3990   26.7130   45.0690 H   0  0  0  0  0  0  0  0  0  0  0  0
   54.7190   26.1830   45.8670 O   0  0  0  0  0  0  0  0  0  0  0  0
   56.0190   26.3270   46.3430 C   0  0  0  0  0  0  0  0  0  0  0  0
   56.5360   25.5990   47.3470 N   0  0  0  0  0  0  0  0  0  0  0  0
   57.8070   26.0470   47.4140 C   0  0  0  0  0  0  0  0  0  0  0  0
   58.6410   25.6000   48.2430 O   0  0  0  0  0  0  0  0  0  0  0  0
   58.1190   27.0070   46.5150 N   0  0  0  0  0  0  0  0  0  0  0  0
   56.9640   27.2010   45.8550 C   0  0  0  0  0  0  0  0  0  0  0  0
   56.8360   28.0750   44.6810 C   0  0  0  0  0  0  0  0  0  0  0  0
   56.4504   27.6194   43.7570 H   0  0  0  0  0  0  0  0  0  0  0  0
   57.1490   29.3860   44.6350 C   0  0  0  0  0  0  0  0  0  0  0  0
   57.7760   30.0370   45.6820 C   0  0  0  0  0  0  0  0  0  0  0  0
   58.0401   29.6037   46.6579 H   0  0  0  0  0  0  0  0  0  0  0  0
   58.0070   31.3320   45.2700 C   0  0  0  0  0  0  0  0  0  0  0  0
   58.6720   32.3460   46.1110 C   0  0  0  0  0  0  0  0  0  0  0  0
   58.7940   33.5160   45.6590 O   0  0  0  0  0  0  0  0  0  0  0  0
   59.2310   32.0120   47.3990 N   0  0  0  0  0  0  0  0  0  0  0  0
   59.8640   30.7110   47.6330 C   0  0  0  0  0  0  0  0  0  0  0  0
   59.5300   30.3080   48.6005 H   0  0  0  0  0  0  0  0  0  0  0  0
   59.5811   30.0127   46.8316 H   0  0  0  0  0  0  0  0  0  0  0  0
   61.3830   30.8870   47.6490 C   0  0  0  0  0  0  0  0  0  0  0  0
   61.8514   29.9596   48.0102 H   0  0  0  0  0  0  0  0  0  0  0  0
   61.7267   31.1118   46.6285 H   0  0  0  0  0  0  0  0  0  0  0  0
   61.7620   31.9990   48.5360 N   0  0  0  0  0  0  0  0  0  0  0  0
   63.0210   31.9590   49.2330 C   0  0  0  0  0  0  0  0  0  0  0  0
   63.2240   31.0300   50.2680 C   0  0  0  0  0  0  0  0  0  0  0  0
   62.4191   30.3326   50.5432 H   0  0  0  0  0  0  0  0  0  0  0  0
   64.4450   30.9880   50.9500 C   0  0  0  0  0  0  0  0  0  0  0  0
   64.5964   30.2601   51.7607 H   0  0  0  0  0  0  0  0  0  0  0  0
   65.4720   31.8690   50.6030 C   0  0  0  0  0  0  0  0  0  0  0  0
   66.6560   31.8230   51.2610 F   0  0  0  0  0  0  0  0  0  0  0  0
   65.2810   32.7910   49.5710 C   0  0  0  0  0  0  0  0  0  0  0  0
   66.0915   33.4818   49.2956 H   0  0  0  0  0  0  0  0  0  0  0  0
   64.0620   32.8380   48.8870 C   0  0  0  0  0  0  0  0  0  0  0  0
   63.9172   33.5658   48.0750 H   0  0  0  0  0  0  0  0  0  0  0  0
   61.0630   33.2850   48.3880 C   0  0  0  0  0  0  0  0  0  0  0  0
   61.3232   33.9392   49.2331 H   0  0  0  0  0  0  0  0  0  0  0  0
   61.3705   33.7535   47.4414 H   0  0  0  0  0  0  0  0  0  0  0  0
   59.5500   33.0650   48.3670 C   0  0  0  0  0  0  0  0  0  0  0  0
   59.2082   32.7612   49.3675 H   0  0  0  0  0  0  0  0  0  0  0  0
   59.0442   33.9983   48.0788 H   0  0  0  0  0  0  0  0  0  0  0  0
   57.5360   31.5220   44.0130 N   0  0  0  0  0  0  0  0  0  0  0  0
   57.7080   32.7270   43.1830 C   0  0  0  0  0  0  0  0  0  0  0  0
   58.4554   33.3850   43.6504 H   0  0  0  0  0  0  0  0  0  0  0  0
   56.7416   33.2466   43.1051 H   0  0  0  0  0  0  0  0  0  0  0  0
   58.1720   32.3530   41.8030 C   0  0  0  0  0  0  0  0  0  0  0  0
   59.1445   31.8541   41.6792 H   0  0  0  0  0  0  0  0  0  0  0  0
   57.4300   32.6130   40.7250 C   0  0  0  0  0  0  0  0  0  0  0  0
   57.7927   32.3289   39.7261 H   0  0  0  0  0  0  0  0  0  0  0  0
   56.4556   33.1115   40.8351 H   0  0  0  0  0  0  0  0  0  0  0  0
   56.9750   30.3450   43.6240 C   0  0  0  0  0  0  0  0  0  0  0  0
   56.2740   30.2010   42.4870 C   0  0  0  0  0  0  0  0  0  0  0  0
   56.2129   31.0325   41.7695 H   0  0  0  0  0  0  0  0  0  0  0  0
   55.7611   29.2516   42.2736 H   0  0  0  0  0  0  0  0  0  0  0  0
  1  2  1  0
  2  3  1  0
  3  4  1  0
  4  5  1  0
  5  6  2  0
  5  7  1  0
  7  8  1  0
  8  9  1  0
  9 10  1  0
  9 11  2  0
 11 12  1  0
 12 13  1  0
 12 14  2  0
 14 15  1  0
 15 16  2  0
 15 17  1  0
 17 18  1  0
 18 19  1  0
 18 20  1  0
 18 21  1  0
 21 22  1  0
 21 23  1  0
 21 24  1  0
 24 25  1  0
 25 26  2  0
 26 27  1  0
 26 28  1  0
 28 29  1  0
 28 30  2  0
 30 31  1  0
 30 32  1  0
 32 33  1  0
 32 34  2  0
 34 35  1  0
 24 36  1  0
 36 37  1  0
 36 38  1  0
 36 39  1  0
 39 40  1  0
 39 41  1  0
 14 42  1  0
 42 43  1  0
 43 44  1  0
 43 45  1  0
 43 46  1  0
 46 47  1  0
 46 48  2  0
 48 49  1  0
 48 50  1  0
 42 51  1  0
 51 52  2  0
 52 53  1  0
 52 54  1  0
  8  3  2  0
 51 11  1  0
 39 17  1  0
 34 25  1  0
M  CHG  2   4  -1   7  -1
M  END
>  <UniqueID>  (9) 
8

>  <SMILES>  (9) 
C=CCn1c(C(=O)N2CCN(c3ccc(F)cc3)CC2)c/c(=C/c2[n-]c(=O)[n-]c2O)c1=C

>  <Energy>  (9) 
132.9746462313437

>  <Genealogy>  (9) 
C=CCn1c(C(=O)N2CCN(c3ccc(F)cc3)CC2)cc(=Cc2[n-]c(=O)[n-]c2O)c1=C (protonated)
C=CCn1c(C(=O)N2CCN(c3ccc(F)cc3)CC2)c/c(=C/c2[n-]c(=O)[n-]c2O)c1=C (cis-trans isomerization)
C=CCn1c(C(=O)N2CCN(c3ccc(F)cc3)CC2)c/c(=C/c2[n-]c(=O)[n-]c2O)c1=C (3D coordinates assigned)
C=CCn1c(C(=O)N2CCN(c3ccc(F)cc3)CC2)c/c(=C/c2[n-]c(=O)[n-]c2O)c1=C (nonaromatic ring conformer: 132.9746462313437 kcal/mol)

>  <smiles>  (9) 
C=CCn1c(C(=O)N2CCN(c3ccc(F)cc3)CC2)cc(=Cc2[nH]c(=O)[nH]c2O)c1=C

>  <score_type>  (9) 
oracle

>  <origin>  (9) 
adg

>  <m_score__min__energy>  (9) 
-12.970000000000001

>  <m_primary>  (9) 
energy

$$$$
9:0
     RDKit          3D

 90 96  0  0  0  0  0  0  0  0999 V2000
   59.6360   36.0690   44.8280 O   0  0  0  0  0  0  0  0  0  0  0  0
   59.1060   35.1990   45.5700 C   0  0  0  0  0  0  0  0  0  0  0  0
   57.9570   34.4650   45.1290 N   0  0  0  0  0  0  0  0  0  0  0  0
   57.9060   33.0740   44.7800 C   0  0  0  0  0  0  0  0  0  0  0  0
   57.7690   32.1320   45.8050 C   0  0  0  0  0  0  0  0  0  0  0  0
   57.7210   30.7670   45.5120 C   0  0  0  0  0  0  0  0  0  0  0  0
   57.8030   30.3230   44.1840 C   0  0  0  0  0  0  0  0  0  0  0  0
   57.7630   28.8520   43.8720 C   0  0  0  0  0  0  0  0  0  0  0  0
   57.1610   28.0710   45.0080 C   0  0  0  0  0  0  0  0  0  0  0  0
   55.9290   28.2000   45.2550 O   0  0  0  0  0  0  0  0  0  0  0  0
   57.9820   27.3010   45.9050 N   0  0  0  0  0  0  0  0  0  0  0  0
   59.1120   26.4990   45.4280 C   0  0  0  0  0  0  0  0  0  0  0  0
   60.4420   27.0780   45.9470 C   0  0  0  0  0  0  0  0  0  0  0  0
   60.2980   27.8610   47.2830 C   0  0  0  0  0  0  0  0  0  0  0  0
   60.1800   29.3820   47.0170 C   0  0  0  0  0  0  0  0  0  0  0  0
   59.6790   30.1500   48.2150 C   0  0  0  0  0  0  0  0  0  0  0  0
   58.8020   31.0360   48.0240 O   0  0  0  0  0  0  0  0  0  0  0  0
   60.1420   29.8800   49.5590 N   0  0  0  0  0  0  0  0  0  0  0  0
   59.3690   30.3730   50.7190 C   0  0  0  0  0  0  0  0  0  0  0  0
   60.2220   31.3370   51.5610 C   0  0  0  0  0  0  0  0  0  0  0  0
   61.5850   30.7530   51.7580 C   0  0  0  0  0  0  0  0  0  0  0  0
   62.1340   29.7740   50.9490 C   0  0  0  0  0  0  0  0  0  0  0  0
   63.4090   29.5000   51.3060 N   0  0  0  0  0  0  0  0  0  0  0  0
   63.6750   30.3360   52.3310 C   0  0  0  0  0  0  0  0  0  0  0  0
   64.8760   30.4620   53.0270 C   0  0  0  0  0  0  0  0  0  0  0  0
   64.9450   31.4290   54.0500 C   0  0  0  0  0  0  0  0  0  0  0  0
   63.8280   32.2410   54.3480 C   0  0  0  0  0  0  0  0  0  0  0  0
   62.6270   32.0940   53.6290 C   0  0  0  0  0  0  0  0  0  0  0  0
   62.5870   31.1240   52.6280 C   0  0  0  0  0  0  0  0  0  0  0  0
   61.3810   29.1210   49.8290 C   0  0  0  0  0  0  0  0  0  0  0  0
   59.1120   27.3060   48.1130 C   0  0  0  0  0  0  0  0  0  0  0  0
   57.7780   27.4310   47.3540 C   0  0  0  0  0  0  0  0  0  0  0  0
   57.8950   31.2670   43.1500 C   0  0  0  0  0  0  0  0  0  0  0  0
   57.9410   32.6340   43.4440 C   0  0  0  0  0  0  0  0  0  0  0  0
   59.7270   34.8640   46.9000 C   0  0  1  0  0  0  0  0  0  0  0  0
   58.7400   34.0850   47.7850 C   0  0  0  0  0  0  0  0  0  0  0  0
   59.3340   33.7300   49.1670 C   0  0  0  0  0  0  0  0  0  0  0  0
   60.8570   33.9180   49.2490 C   0  0  0  0  0  0  0  0  0  0  0  0
   61.5000   33.4930   47.9960 N   0  0  0  0  0  0  0  0  0  0  0  0
   62.6590   32.6300   47.9830 C   0  0  0  0  0  0  0  0  0  0  0  0
   62.5690   31.4870   47.4560 O   0  0  0  0  0  0  0  0  0  0  0  0
   63.9870   33.0770   48.5580 C   0  0  0  0  0  0  0  0  0  0  0  0
   63.8440   33.9460   49.8090 C   0  0  0  0  0  0  0  0  0  0  0  0
   64.5910   32.9020   50.6270 C   0  0  0  0  0  0  0  0  0  0  0  0
   64.7240   32.0230   49.3930 C   0  0  0  0  0  0  0  0  0  0  0  0
   61.0230   34.0500   46.7180 C   0  0  0  0  0  0  0  0  0  0  0  0
   57.6985   32.4687   46.8498 H   0  0  0  0  0  0  0  0  0  0  0  0
   57.6183   30.0360   46.3275 H   0  0  0  0  0  0  0  0  0  0  0  0
   57.1578   28.6935   42.9672 H   0  0  0  0  0  0  0  0  0  0  0  0
   58.7937   28.5010   43.7157 H   0  0  0  0  0  0  0  0  0  0  0  0
   59.0011   25.4662   45.7899 H   0  0  0  0  0  0  0  0  0  0  0  0
   59.1215   26.5166   44.3282 H   0  0  0  0  0  0  0  0  0  0  0  0
   61.1456   26.2473   46.1043 H   0  0  0  0  0  0  0  0  0  0  0  0
   60.8015   27.7914   45.1908 H   0  0  0  0  0  0  0  0  0  0  0  0
   61.2071   27.7144   47.8847 H   0  0  0  0  0  0  0  0  0  0  0  0
   61.1726   29.7684   46.7423 H   0  0  0  0  0  0  0  0  0  0  0  0
   59.4487   29.5198   46.2069 H   0  0  0  0  0  0  0  0  0  0  0  0
   58.4733   30.9009   50.3598 H   0  0  0  0  0  0  0  0  0  0  0  0
   59.0774   29.5159   51.3438 H   0  0  0  0  0  0  0  0  0  0  0  0
   60.3081   32.3017   51.0395 H   0  0  0  0  0  0  0  0  0  0  0  0
   59.7438   31.4911   52.5395 H   0  0  0  0  0  0  0  0  0  0  0  0
   64.0560   28.8080   50.8670 H   0  0  0  0  0  0  0  0  0  0  0  0
   65.7416   29.8275   52.7858 H   0  0  0  0  0  0  0  0  0  0  0  0
   65.8768   31.5526   54.6214 H   0  0  0  0  0  0  0  0  0  0  0  0
   63.8974   32.9933   55.1475 H   0  0  0  0  0  0  0  0  0  0  0  0
   61.7510   32.7220   53.8489 H   0  0  0  0  0  0  0  0  0  0  0  0
   62.0073   29.1081   48.9248 H   0  0  0  0  0  0  0  0  0  0  0  0
   61.1244   28.0896   50.1125 H   0  0  0  0  0  0  0  0  0  0  0  0
   59.2979   26.2448   48.3349 H   0  0  0  0  0  0  0  0  0  0  0  0
   59.0362   27.8948   49.0390 H   0  0  0  0  0  0  0  0  0  0  0  0
   57.0953   26.6381   47.6936 H   0  0  0  0  0  0  0  0  0  0  0  0
   57.3496   28.4230   47.5598 H   0  0  0  0  0  0  0  0  0  0  0  0
   57.9311   30.9307   42.1033 H   0  0  0  0  0  0  0  0  0  0  0  0
   58.0048   33.3680   42.6272 H   0  0  0  0  0  0  0  0  0  0  0  0
   59.9764   35.8128   47.3975 H   0  0  0  0  0  0  0  0  0  0  0  0
   57.8406   34.7001   47.9355 H   0  0  0  0  0  0  0  0  0  0  0  0
   58.5046   33.1414   47.2710 H   0  0  0  0  0  0  0  0  0  0  0  0
   58.8629   34.3743   49.9239 H   0  0  0  0  0  0  0  0  0  0  0  0
   59.1310   32.6630   49.3408 H   0  0  0  0  0  0  0  0  0  0  0  0
   61.0809   34.9800   49.4280 H   0  0  0  0  0  0  0  0  0  0  0  0
   61.2461   33.3025   50.0735 H   0  0  0  0  0  0  0  0  0  0  0  0
   64.4460   33.4655   47.6369 H   0  0  0  0  0  0  0  0  0  0  0  0
   64.3590   34.9157   49.7424 H   0  0  0  0  0  0  0  0  0  0  0  0
   62.8522   34.2969   50.1303 H   0  0  0  0  0  0  0  0  0  0  0  0
   65.5512   33.2533   51.0328 H   0  0  0  0  0  0  0  0  0  0  0  0
   64.1486   32.4995   51.5502 H   0  0  0  0  0  0  0  0  0  0  0  0
   65.7630   31.8471   49.0775 H   0  0  0  0  0  0  0  0  0  0  0  0
   64.3694   30.9819   49.4118 H   0  0  0  0  0  0  0  0  0  0  0  0
   61.8014   34.7070   46.3027 H   0  0  0  0  0  0  0  0  0  0  0  0
   60.8097   33.2128   46.0371 H   0  0  0  0  0  0  0  0  0  0  0  0
  1  2  2  0
  2  3  1  0
  3  4  1  0
  4  5  2  0
  5  6  1  0
  6  7  2  0
  7  8  1  0
  8  9  1  0
  9 10  2  0
  9 11  1  0
 11 12  1  0
 12 13  1  0
 13 14  1  0
 14 15  1  0
 15 16  1  0
 16 17  2  0
 16 18  1  0
 18 19  1  0
 19 20  1  0
 20 21  1  0
 21 22  2  0
 22 23  1  0
 23 24  1  0
 24 25  2  0
 25 26  1  0
 26 27  2  0
 27 28  1  0
 28 29  2  0
 22 30  1  0
 14 31  1  0
 31 32  1  0
  7 33  1  0
 33 34  2  0
  2 35  1  0
 35 36  1  0
 36 37  1  0
 37 38  1  0
 38 39  1  0
 39 40  1  0
 40 41  2  0
 40 42  1  0
 42 43  1  0
 43 44  1  0
 44 45  1  0
 39 46  1  0
 34  4  1  0
 46 35  1  0
 32 11  1  0
 45 42  1  0
 30 18  1  0
 29 21  1  0
 29 24  1  0
  5 47  1  0
  6 48  1  0
  8 49  1  0
  8 50  1  0
 12 51  1  0
 12 52  1  0
 13 53  1  0
 13 54  1  0
 14 55  1  0
 15 56  1  0
 15 57  1  0
 19 58  1  0
 19 59  1  0
 20 60  1  0
 20 61  1  0
 23 62  1  0
 25 63  1  0
 26 64  1  0
 27 65  1  0
 28 66  1  0
 30 67  1  0
 30 68  1  0
 31 69  1  0
 31 70  1  0
 32 71  1  0
 32 72  1  0
 33 73  1  0
 34 74  1  0
 35 75  1  1
 36 76  1  0
 36 77  1  0
 37 78  1  0
 37 79  1  0
 38 80  1  0
 38 81  1  0
 42 82  1  0
 43 83  1  0
 43 84  1  0
 44 85  1  0
 44 86  1  0
 45 87  1  0
 45 88  1  0
 46 89  1  0
 46 90  1  0
M  CHG  1   3  -1
M  END
>  <UniqueID>  (10) 
9

>  <SMILES>  (10) 
O=C([N-]c1ccc(CC(=O)N2CCC(CC(=O)N3CCc4c([nH]c5ccccc45)C3)CC2)cc1)[C@H]1CCCN(C(=O)C2CCC2)C1

>  <Energy>  (10) 
203.7634607211879

>  <Genealogy>  (10) 
O=C([N-]c1ccc(CC(=O)N2CCC(CC(=O)N3CCc4c([nH]c5ccccc45)C3)CC2)cc1)C1CCCN(C(=O)C2CCC2)C1 (protonated)
O=C([N-]c1ccc(CC(=O)N2CCC(CC(=O)N3CCc4c([nH]c5ccccc45)C3)CC2)cc1)[C@H]1CCCN(C(=O)C2CCC2)C1 (chirality)
O=C([N-]c1ccc(CC(=O)N2CCC(CC(=O)N3CCc4c([nH]c5ccccc45)C3)CC2)cc1)[C@H]1CCCN(C(=O)C2CCC2)C1 (3D coordinates assigned)
O=C([N-]c1ccc(CC(=O)N2CCC(CC(=O)N3CCc4c([nH]c5ccccc45)C3)CC2)cc1)[C@H]1CCCN(C(=O)C2CCC2)C1 (nonaromatic ring conformer: 203.7634607211879 kcal/mol)

>  <smiles>  (10) 
O=C(Nc1ccc(CC(=O)N2CCC(CC(=O)N3CCc4c([nH]c5ccccc45)C3)CC2)cc1)C1CCCN(C(=O)C2CCC2)C1

>  <score_type>  (10) 
oracle

>  <origin>  (10) 
adg

>  <m_score__min__energy>  (10) 
-12.550000000000001

>  <m_primary>  (10) 
energy

$$$$
10:0
     RDKit          3D

 42 44  0  0  0  0  0  0  0  0999 V2000
   67.7240   33.8490   51.0300 C   0  0  0  0  0  0  0  0  0  0  0  0
   67.1380   33.0300   50.0230 O   0  0  0  0  0  0  0  0  0  0  0  0
   65.8440   32.4920   50.0950 C   0  0  0  0  0  0  0  0  0  0  0  0
   65.5270   31.4000   50.9250 C   0  0  0  0  0  0  0  0  0  0  0  0
   64.2270   30.8890   50.9460 C   0  0  0  0  0  0  0  0  0  0  0  0
   63.2330   31.4640   50.1520 C   0  0  0  0  0  0  0  0  0  0  0  0
   63.5240   32.5690   49.3390 C   0  0  0  0  0  0  0  0  0  0  0  0
   62.4880   33.1300   48.5160 N   0  0  0  0  0  0  0  0  0  0  0  0
   62.6140   33.3620   47.1060 C   0  0  0  0  0  0  0  0  0  0  0  0
   63.7310   33.2470   46.5340 O   0  0  0  0  0  0  0  0  0  0  0  0
   61.4600   33.7550   46.3580 N   0  0  0  0  0  0  0  0  0  0  0  0
   60.0980   33.7330   46.8850 C   0  0  1  0  0  0  0  0  0  0  0  0
   59.3270   34.9830   46.4090 C   0  0  0  0  0  0  0  0  0  0  0  0
   58.3370   34.5250   45.3220 C   0  0  0  0  0  0  0  0  0  0  0  0
   58.3660   33.0480   45.4190 C   0  0  0  0  0  0  0  0  0  0  0  0
   57.5410   32.1530   44.7350 C   0  0  0  0  0  0  0  0  0  0  0  0
   57.7080   30.7730   44.9520 C   0  0  0  0  0  0  0  0  0  0  0  0
   56.6750   29.6160   44.1210 S   0  0  0  0  0  0  0  0  0  0  0  0
   55.5270   28.9640   45.2360 N   0  0  0  0  0  0  0  0  0  0  0  0
   57.5120   28.5030   43.5530 O   0  0  0  0  0  0  0  0  0  0  0  0
   55.9480   30.2960   42.9960 O   0  0  0  0  0  0  0  0  0  0  0  0
   58.6890   30.3220   45.8580 C   0  0  0  0  0  0  0  0  0  0  0  0
   59.5080   31.2410   46.5300 C   0  0  0  0  0  0  0  0  0  0  0  0
   59.3330   32.6060   46.2880 C   0  0  0  0  0  0  0  0  0  0  0  0
   64.8410   33.0650   49.3030 C   0  0  0  0  0  0  0  0  0  0  0  0
   67.4482   33.4635   52.0226 H   0  0  0  0  0  0  0  0  0  0  0  0
   68.8187   33.8354   50.9226 H   0  0  0  0  0  0  0  0  0  0  0  0
   67.3578   34.8807   50.9226 H   0  0  0  0  0  0  0  0  0  0  0  0
   66.3046   30.9481   51.5584 H   0  0  0  0  0  0  0  0  0  0  0  0
   63.9857   30.0307   51.5903 H   0  0  0  0  0  0  0  0  0  0  0  0
   62.2149   31.0476   50.1642 H   0  0  0  0  0  0  0  0  0  0  0  0
   61.6210   33.4790   48.9830 H   0  0  0  0  0  0  0  0  0  0  0  0
   60.1811   33.6646   47.9797 H   0  0  0  0  0  0  0  0  0  0  0  0
   58.7799   35.4311   47.2515 H   0  0  0  0  0  0  0  0  0  0  0  0
   60.0196   35.7392   46.0109 H   0  0  0  0  0  0  0  0  0  0  0  0
   57.3270   34.9114   45.5236 H   0  0  0  0  0  0  0  0  0  0  0  0
   58.6053   34.8913   44.3201 H   0  0  0  0  0  0  0  0  0  0  0  0
   56.7734   32.5207   44.0382 H   0  0  0  0  0  0  0  0  0  0  0  0
   54.5960   29.3620   44.9820 H   0  0  0  0  0  0  0  0  0  0  0  0
   58.8128   29.2441   46.0389 H   0  0  0  0  0  0  0  0  0  0  0  0
   60.2760   30.8927   47.2364 H   0  0  0  0  0  0  0  0  0  0  0  0
   65.0851   33.9123   48.6453 H   0  0  0  0  0  0  0  0  0  0  0  0
  1  2  1  0
  2  3  1  0
  3  4  2  0
  4  5  1  0
  5  6  2  0
  6  7  1  0
  7  8  1  0
  8  9  1  0
  9 10  2  0
  9 11  1  0
 11 12  1  0
 12 13  1  0
 13 14  1  0
 14 15  1  0
 15 16  2  0
 16 17  1  0
 17 18  1  0
 18 19  1  0
 18 20  2  0
 18 21  2  0
 17 22  2  0
 22 23  1  0
 23 24  2  0
  7 25  2  0
 25  3  1  0
 24 12  1  0
 24 15  1  0
  1 26  1  0
  1 27  1  0
  1 28  1  0
  4 29  1  0
  5 30  1  0
  6 31  1  0
  8 32  1  0
 12 33  1  1
 13 34  1  0
 13 35  1  0
 14 36  1  0
 14 37  1  0
 16 38  1  0
 19 39  1  0
 22 40  1  0
 23 41  1  0
 25 42  1  0
M  CHG  2  11  -1  19  -1
M  END
>  <UniqueID>  (11) 
10

>  <SMILES>  (11) 
COc1cccc(NC(=O)[N-][C@H]2CCc3cc(S([NH-])(=O)=O)ccc32)c1

>  <Energy>  (11) 
52.43212437589228

>  <Genealogy>  (11) 
COc1cccc(NC(=O)[N-]C2CCc3cc(S([NH-])(=O)=O)ccc32)c1 (protonated)
COc1cccc(NC(=O)[N-][C@H]2CCc3cc(S([NH-])(=O)=O)ccc32)c1 (chirality)
COc1cccc(NC(=O)[N-][C@H]2CCc3cc(S([NH-])(=O)=O)ccc32)c1 (3D coordinates assigned)
COc1cccc(NC(=O)[N-][C@H]2CCc3cc(S([NH-])(=O)=O)ccc32)c1 (nonaromatic ring conformer: 52.43212437589228 kcal/mol)

>  <smiles>  (11) 
COc1cccc(NC(=O)NC2CCc3cc(S(N)(=O)=O)ccc32)c1

>  <score_type>  (11) 
oracle

>  <origin>  (11) 
adg

>  <m_score__min__energy>  (11) 
-12.09

>  <m_primary>  (11) 
energy

$$$$
11:0
     RDKit          3D

 51 54  0  0  1  0  0  0  0  0999 V2000
   56.4480   25.0500   47.1530 C   0  0  0  0  0  0  0  0  0  0  0  0
   56.2190   25.8370   46.1250 C   0  0  0  0  0  0  0  0  0  0  0  0
   55.0710   26.6270   46.0250 O   0  0  0  0  0  0  0  0  0  0  0  0
   57.1870   25.9320   44.9980 C   0  0  0  0  0  0  0  0  0  0  0  0
   58.1090   27.0350   45.1700 N   0  0  0  0  0  0  0  0  0  0  0  0
   59.3610   26.7140   45.5750 C   0  0  0  0  0  0  0  0  0  0  0  0
   59.6840   25.5330   45.7820 O   0  0  0  0  0  0  0  0  0  0  0  0
   60.2460   27.7140   45.7460 N   0  0  0  0  0  0  0  0  0  0  0  0
   59.8730   28.9870   45.5150 C   0  0  0  0  0  0  0  0  0  0  0  0
   60.7620   29.9040   45.6950 N   0  0  0  0  0  0  0  0  0  0  0  0
   61.1870   30.2700   47.0070 C   0  0  0  0  0  0  0  0  0  0  0  0
   60.6500   29.5970   48.0870 C   0  0  0  0  0  0  0  0  0  0  0  0
   61.0680   29.9600   49.3540 C   0  0  0  0  0  0  0  0  0  0  0  0
   61.9990   30.9680   49.5220 C   0  0  0  0  0  0  0  0  0  0  0  0
   62.5400   31.6450   48.4350 C   0  0  0  0  0  0  0  0  0  0  0  0
   63.4470   32.6220   48.6730 F   0  0  0  0  0  0  0  0  0  0  0  0
   62.1170   31.2760   47.1840 C   0  0  0  0  0  0  0  0  0  0  0  0
   58.6440   29.3430   45.1150 N   0  0  0  0  0  0  0  0  0  0  0  0
   58.2320   30.7010   44.8640 C   0  0  0  0  0  0  0  0  0  0  0  0
   58.6030   31.6550   45.9150 C   0  0  0  0  0  0  0  0  0  0  0  0
   58.3010   31.4350   47.2420 C   0  0  0  0  0  0  0  0  0  0  0  0
   58.6610   32.3470   48.2150 C   0  0  0  0  0  0  0  0  0  0  0  0
   59.3300   33.5130   47.9220 C   0  0  0  0  0  0  0  0  0  0  0  0
   59.6940   34.4600   48.9950 C   0  0  0  0  0  0  0  0  0  0  0  0
   60.9220   34.2680   49.8010 C   0  0  0  0  0  0  0  0  0  0  0  0
   59.6150   33.8730   50.3980 C   0  0  0  0  0  0  0  0  0  0  0  0
   59.6370   33.7440   46.5990 C   0  0  0  0  0  0  0  0  0  0  0  0
   59.2780   32.8290   45.6170 C   0  0  0  0  0  0  0  0  0  0  0  0
   57.7560   28.3250   44.9440 C   0  0  0  0  0  0  0  0  0  0  0  0
   56.5730   28.5160   44.5730 O   0  0  0  0  0  0  0  0  0  0  0  0
   57.3663   24.4455   47.1891 H   0  0  0  0  0  0  0  0  0  0  0  0
   55.7213   24.9961   47.9770 H   0  0  0  0  0  0  0  0  0  0  0  0
   55.1280   27.4940   45.5420 H   0  0  0  0  0  0  0  0  0  0  0  0
   57.7602   24.9948   44.9415 H   0  0  0  0  0  0  0  0  0  0  0  0
   56.6174   26.1047   44.0729 H   0  0  0  0  0  0  0  0  0  0  0  0
   61.2060   27.4410   46.0590 H   0  0  0  0  0  0  0  0  0  0  0  0
   59.9109   28.7951   47.9433 H   0  0  0  0  0  0  0  0  0  0  0  0
   60.6571   29.4434   50.2339 H   0  0  0  0  0  0  0  0  0  0  0  0
   62.3189   31.2405   50.5386 H   0  0  0  0  0  0  0  0  0  0  0  0
   62.5267   31.7918   46.3030 H   0  0  0  0  0  0  0  0  0  0  0  0
   58.6939   31.0313   43.9219 H   0  0  0  0  0  0  0  0  0  0  0  0
   57.1327   30.6915   44.8249 H   0  0  0  0  0  0  0  0  0  0  0  0
   57.7649   30.5188   47.5305 H   0  0  0  0  0  0  0  0  0  0  0  0
   58.4033   32.1331   49.2628 H   0  0  0  0  0  0  0  0  0  0  0  0
   59.2973   35.3246   48.4427 H   0  0  0  0  0  0  0  0  0  0  0  0
   61.6471   33.4922   49.5138 H   0  0  0  0  0  0  0  0  0  0  0  0
   61.7432   34.9275   50.1183 H   0  0  0  0  0  0  0  0  0  0  0  0
   59.3705   32.8099   50.5398 H   0  0  0  0  0  0  0  0  0  0  0  0
   59.0684   34.1174   51.3208 H   0  0  0  0  0  0  0  0  0  0  0  0
   60.1721   34.6628   46.3171 H   0  0  0  0  0  0  0  0  0  0  0  0
   59.5376   33.0428   44.5696 H   0  0  0  0  0  0  0  0  0  0  0  0
  1  2  2  0
  2  3  1  0
  2  4  1  0
  4  5  1  0
  5  6  1  0
  6  7  2  0
  6  8  1  0
  8  9  1  0
  9 10  2  0
 10 11  1  0
 11 12  2  0
 12 13  1  0
 13 14  2  0
 14 15  1  0
 15 16  1  0
 15 17  2  0
  9 18  1  0
 18 19  1  0
 19 20  1  0
 20 21  2  0
 21 22  1  0
 22 23  2  0
 23 24  1  0
 24 25  1  0
 25 26  1  0
 23 27  1  0
 27 28  2  0
 18 29  1  0
 29 30  2  0
 29  5  1  0
 17 11  1  0
 28 20  1  0
 26 24  1  0
  1 31  1  0
  1 32  1  0
  3 33  1  0
  4 34  1  0
  4 35  1  0
  8 36  1  0
 12 37  1  0
 13 38  1  0
 14 39  1  0
 17 40  1  0
 19 41  1  0
 19 42  1  0
 21 43  1  0
 22 44  1  0
 24 45  1  0
 25 46  1  0
 25 47  1  0
 26 48  1  0
 26 49  1  0
 27 50  1  0
 28 51  1  0
M  END
>  <smiles>  (12) 
C=C(O)Cn1c(=O)[nH]c(=Nc2cccc(F)c2)n(Cc2ccc(C3CC3)cc2)c1=O

>  <score_type>  (12) 
oracle

>  <origin>  (12) 
adg

>  <m_score__min__energy>  (12) 
-8.8499999999999996

>  <m_primary>  (12) 
energy

$$$$
12:0
     RDKit          3D

 68 71  0  0  0  0  0  0  0  0999 V2000
   65.3900   31.7760   50.7570 C   0  0  0  0  0  0  0  0  0  0  0  0
   64.7360   33.0770   50.3950 C   0  0  0  0  0  0  0  0  0  0  0  0
   65.1990   34.1400   50.8870 O   0  0  0  0  0  0  0  0  0  0  0  0
   63.6440   33.1280   49.4510 N   0  0  0  0  0  0  0  0  0  0  0  0
   62.8140   34.3360   49.3420 C   0  0  0  0  0  0  0  0  0  0  0  0
   61.3290   33.9470   49.2590 C   0  0  0  0  0  0  0  0  0  0  0  0
   61.1040   32.8440   48.3120 N   0  0  0  0  0  0  0  0  0  0  0  0
   59.7630   32.2950   48.1830 C   0  0  0  0  0  0  0  0  0  0  0  0
   58.8610   32.6280   49.0000 O   0  0  0  0  0  0  0  0  0  0  0  0
   59.4080   31.3730   47.0920 C   0  0  0  0  0  0  0  0  0  0  0  0
   58.8790   31.8670   45.8900 C   0  0  0  0  0  0  0  0  0  0  0  0
   58.5190   30.9830   44.8680 C   0  0  0  0  0  0  0  0  0  0  0  0
   58.7010   29.6080   45.0330 C   0  0  0  0  0  0  0  0  0  0  0  0
   59.2460   29.1050   46.2270 C   0  0  0  0  0  0  0  0  0  0  0  0
   59.4590   27.6230   46.4050 C   0  0  0  0  0  0  0  0  0  0  0  0
   58.1660   26.8660   46.3890 C   0  0  0  0  0  0  0  0  0  0  0  0
   57.8570   25.7260   47.1260 C   0  0  0  0  0  0  0  0  0  0  0  0
   56.5680   25.3110   47.0180 N   0  0  0  0  0  0  0  0  0  0  0  0
   55.8550   26.1080   46.1890 C   0  0  0  0  0  0  0  0  0  0  0  0
   54.5890   25.9590   45.9420 N   0  0  0  0  0  0  0  0  0  0  0  0
   53.9670   24.7460   45.4890 C   0  0  0  0  0  0  0  0  0  0  0  0
   52.7100   24.6740   45.4530 O   0  0  0  0  0  0  0  0  0  0  0  0
   54.7620   23.6450   45.0320 N   0  0  0  0  0  0  0  0  0  0  0  0
   55.4400   22.6850   45.8570 C   0  0  0  0  0  0  0  0  0  0  0  0
   54.8520   22.2690   47.0710 C   0  0  0  0  0  0  0  0  0  0  0  0
   55.5040   21.3770   47.9140 C   0  0  0  0  0  0  0  0  0  0  0  0
   56.7610   20.8930   47.5720 C   0  0  0  0  0  0  0  0  0  0  0  0
   57.3670   21.2890   46.3780 C   0  0  0  0  0  0  0  0  0  0  0  0
   56.7330   22.1960   45.4850 C   0  0  0  0  0  0  0  0  0  0  0  0
   57.3950   22.5730   44.1260 C   0  0  0  0  0  0  0  0  0  0  0  0
   57.3950   24.1030   43.8630 C   0  0  0  0  0  0  0  0  0  0  0  0
   58.8690   22.1110   44.1390 C   0  0  0  0  0  0  0  0  0  0  0  0
   56.6490   21.9160   42.9340 C   0  0  0  0  0  0  0  0  0  0  0  0
   56.7800   27.3670   45.5660 S   0  0  0  0  0  0  0  0  0  0  0  0
   59.5800   29.9930   47.2630 C   0  0  0  0  0  0  0  0  0  0  0  0
   62.2460   32.2830   47.5750 C   0  0  0  0  0  0  0  0  0  0  0  0
   63.4030   31.9980   48.5390 C   0  0  0  0  0  0  0  0  0  0  0  0
   65.4374   31.6816   51.8519 H   0  0  0  0  0  0  0  0  0  0  0  0
   64.8035   30.9429   50.3422 H   0  0  0  0  0  0  0  0  0  0  0  0
   66.4085   31.7497   50.3422 H   0  0  0  0  0  0  0  0  0  0  0  0
   62.9757   34.9702   50.2261 H   0  0  0  0  0  0  0  0  0  0  0  0
   63.0948   34.8865   48.4320 H   0  0  0  0  0  0  0  0  0  0  0  0
   60.9867   33.6348   50.2567 H   0  0  0  0  0  0  0  0  0  0  0  0
   60.7662   34.8226   48.9032 H   0  0  0  0  0  0  0  0  0  0  0  0
   58.7474   32.9503   45.7515 H   0  0  0  0  0  0  0  0  0  0  0  0
   58.0915   31.3714   43.9319 H   0  0  0  0  0  0  0  0  0  0  0  0
   58.4169   28.9166   44.2260 H   0  0  0  0  0  0  0  0  0  0  0  0
   60.0966   27.2548   45.5877 H   0  0  0  0  0  0  0  0  0  0  0  0
   59.9355   27.4625   47.3834 H   0  0  0  0  0  0  0  0  0  0  0  0
   58.5986   25.2023   47.7471 H   0  0  0  0  0  0  0  0  0  0  0  0
   53.8624   22.6569   47.3542 H   0  0  0  0  0  0  0  0  0  0  0  0
   55.0258   21.0545   48.8506 H   0  0  0  0  0  0  0  0  0  0  0  0
   57.2808   20.1950   48.2448 H   0  0  0  0  0  0  0  0  0  0  0  0
   58.3594   20.8895   46.1218 H   0  0  0  0  0  0  0  0  0  0  0  0
   58.4321   24.4644   43.8009 H   0  0  0  0  0  0  0  0  0  0  0  0
   56.8765   24.3122   42.9157 H   0  0  0  0  0  0  0  0  0  0  0  0
   56.8765   24.6165   44.6860 H   0  0  0  0  0  0  0  0  0  0  0  0
   59.2105   22.0040   45.1791 H   0  0  0  0  0  0  0  0  0  0  0  0
   58.9544   21.1430   43.6236 H   0  0  0  0  0  0  0  0  0  0  0  0
   59.4917   22.8571   43.6236 H   0  0  0  0  0  0  0  0  0  0  0  0
   55.8750   21.2344   43.3166 H   0  0  0  0  0  0  0  0  0  0  0  0
   56.1780   22.6980   42.3203 H   0  0  0  0  0  0  0  0  0  0  0  0
   57.3652   21.3500   42.3203 H   0  0  0  0  0  0  0  0  0  0  0  0
   59.9779   29.6036   48.2117 H   0  0  0  0  0  0  0  0  0  0  0  0
   61.9396   31.3462   47.0866 H   0  0  0  0  0  0  0  0  0  0  0  0
   62.5778   33.0078   46.8170 H   0  0  0  0  0  0  0  0  0  0  0  0
   63.1593   31.1056   49.1341 H   0  0  0  0  0  0  0  0  0  0  0  0
   64.3138   31.8385   47.9432 H   0  0  0  0  0  0  0  0  0  0  0  0
  1  2  1  0
  2  3  2  0
  2  4  1  0
  4  5  1  0
  5  6  1  0
  6  7  1  0
  7  8  1  0
  8  9  2  0
  8 10  1  0
 10 11  2  0
 11 12  1  0
 12 13  2  0
 13 14  1  0
 14 15  1  0
 15 16  1  0
 16 17  2  0
 17 18  1  0
 18 19  1  0
 19 20  2  3
 20 21  1  0
 21 22  2  0
 21 23  1  0
 23 24  1  0
 24 25  2  0
 25 26  1  0
 26 27  2  0
 27 28  1  0
 28 29  2  0
 29 30  1  0
 30 31  1  0
 30 32  1  0
 30 33  1  0
 19 34  1  0
 14 35  2  0
  7 36  1  0
 36 37  1  0
 37  4  1  0
 35 10  1  0
 34 16  1  0
 29 24  1  0
  1 38  1  0
  1 39  1  0
  1 40  1  0
  5 41  1  0
  5 42  1  0
  6 43  1  0
  6 44  1  0
 11 45  1  0
 12 46  1  0
 13 47  1  0
 15 48  1  0
 15 49  1  0
 17 50  1  0
 25 51  1  0
 26 52  1  0
 27 53  1  0
 28 54  1  0
 31 55  1  0
 31 56  1  0
 31 57  1  0
 32 58  1  0
 32 59  1  0
 32 60  1  0
 33 61  1  0
 33 62  1  0
 33 63  1  0
 35 64  1  0
 36 65  1  0
 36 66  1  0
 37 67  1  0
 37 68  1  0
M  CHG  2  18  -1  23  -1
M  END
>  <UniqueID>  (13) 
11

>  <SMILES>  (13) 
CC(=O)N1CCN(C(=O)c2cccc(Cc3c[n-]c(=NC(=O)[N-]c4ccccc4C(C)(C)C)s3)c2)CC1

>  <Energy>  (13) 
119.4359379796639

>  <Genealogy>  (13) 
CC(=O)N1CCN(C(=O)c2cccc(Cc3c[n-]c(=NC(=O)[N-]c4ccccc4C(C)(C)C)s3)c2)CC1 (protonated)
CC(=O)N1CCN(C(=O)c2cccc(Cc3c[n-]c(=NC(=O)[N-]c4ccccc4C(C)(C)C)s3)c2)CC1 (3D coordinates assigned)
CC(=O)N1CCN(C(=O)c2cccc(Cc3c[n-]c(=NC(=O)[N-]c4ccccc4C(C)(C)C)s3)c2)CC1 (nonaromatic ring conformer: 119.4359379796639 kcal/mol)

>  <smiles>  (13) 
CC(=O)N1CCN(C(=O)c2cccc(Cc3c[nH]c(=NC(=O)Nc4ccccc4C(C)(C)C)s3)c2)CC1

>  <score_type>  (13) 
oracle

>  <origin>  (13) 
adg

>  <m_score__min__energy>  (13) 
-12.369999999999999

>  <m_primary>  (13) 
energy

$$$$
13:0
     RDKit          3D

 47 49  0  0  0  0  0  0  0  0999 V2000
   57.7470   20.3330   46.0110 C   0  0  0  0  0  0  0  0  0  0  0  0
   57.4610   21.7160   45.5180 C   0  0  0  0  0  0  0  0  0  0  0  0
   56.5010   21.9360   44.5230 C   0  0  0  0  0  0  0  0  0  0  0  0
   56.2380   23.2450   44.1340 C   0  0  0  0  0  0  0  0  0  0  0  0
   55.2320   23.5130   43.0590 C   0  0  0  0  0  0  0  0  0  0  0  0
   56.9360   24.2690   44.7050 N   0  0  0  0  0  0  0  0  0  0  0  0
   57.8880   24.0340   45.6480 C   0  0  0  0  0  0  0  0  0  0  0  0
   58.8160   25.3890   46.3720 S   0  0  0  0  0  0  0  0  0  0  0  0
   57.3490   26.2080   47.0990 C   0  0  0  0  0  0  0  0  0  0  0  0
   56.4260   26.7490   46.0330 C   0  0  0  0  0  0  0  0  0  0  0  0
   55.2240   26.3690   46.0120 O   0  0  0  0  0  0  0  0  0  0  0  0
   56.8970   27.6090   44.9840 N   0  0  0  0  0  0  0  0  0  0  0  0
   57.3180   28.9680   45.1480 C   0  0  0  0  0  0  0  0  0  0  0  0
   58.2170   29.3310   46.1670 C   0  0  0  0  0  0  0  0  0  0  0  0
   58.5850   30.6680   46.3340 C   0  0  0  0  0  0  0  0  0  0  0  0
   58.0520   31.6590   45.4950 C   0  0  0  0  0  0  0  0  0  0  0  0
   58.4110   33.0360   45.6940 N   0  0  0  0  0  0  0  0  0  0  0  0
   58.7250   33.4750   47.0690 C   0  0  0  0  0  0  0  0  0  0  0  0
   59.1650   34.9370   47.1180 C   0  0  0  0  0  0  0  0  0  0  0  0
   60.0120   35.2270   46.0280 O   0  0  0  0  0  0  0  0  0  0  0  0
   59.2370   35.2550   44.8490 C   0  0  0  0  0  0  0  0  0  0  0  0
   58.6720   33.8670   44.5080 C   0  0  0  0  0  0  0  0  0  0  0  0
   57.1230   31.3010   44.5010 C   0  0  0  0  0  0  0  0  0  0  0  0
   56.7560   29.9610   44.3330 C   0  0  0  0  0  0  0  0  0  0  0  0
   58.1330   22.7650   46.0560 N   0  0  0  0  0  0  0  0  0  0  0  0
   57.7479   20.3287   47.1110 H   0  0  0  0  0  0  0  0  0  0  0  0
   56.9722   19.6447   45.6423 H   0  0  0  0  0  0  0  0  0  0  0  0
   58.7313   20.0085   45.6423 H   0  0  0  0  0  0  0  0  0  0  0  0
   55.9672   21.0931   44.0597 H   0  0  0  0  0  0  0  0  0  0  0  0
   54.2656   23.7704   43.5171 H   0  0  0  0  0  0  0  0  0  0  0  0
   55.5767   24.3507   42.4349 H   0  0  0  0  0  0  0  0  0  0  0  0
   55.1142   22.6149   42.4349 H   0  0  0  0  0  0  0  0  0  0  0  0
   56.7470   25.2510   44.4150 H   0  0  0  0  0  0  0  0  0  0  0  0
   56.7987   25.4771   47.7097 H   0  0  0  0  0  0  0  0  0  0  0  0
   57.6964   27.0522   47.7127 H   0  0  0  0  0  0  0  0  0  0  0  0
   58.6311   28.5603   46.8338 H   0  0  0  0  0  0  0  0  0  0  0  0
   59.2956   30.9455   47.1265 H   0  0  0  0  0  0  0  0  0  0  0  0
   57.8280   33.3532   47.6940 H   0  0  0  0  0  0  0  0  0  0  0  0
   59.5564   32.8580   47.4405 H   0  0  0  0  0  0  0  0  0  0  0  0
   58.2776   35.5854   47.0713 H   0  0  0  0  0  0  0  0  0  0  0  0
   59.7119   35.1163   48.0554 H   0  0  0  0  0  0  0  0  0  0  0  0
   58.4008   35.9560   44.9884 H   0  0  0  0  0  0  0  0  0  0  0  0
   59.8851   35.5750   44.0198 H   0  0  0  0  0  0  0  0  0  0  0  0
   57.7274   33.9998   43.9603 H   0  0  0  0  0  0  0  0  0  0  0  0
   59.4311   33.3457   43.9063 H   0  0  0  0  0  0  0  0  0  0  0  0
   56.6844   32.0756   43.8548 H   0  0  0  0  0  0  0  0  0  0  0  0
   56.0243   29.6859   43.5591 H   0  0  0  0  0  0  0  0  0  0  0  0
  1  2  1  0
  2  3  2  0
  3  4  1  0
  4  5  1  0
  4  6  2  0
  6  7  1  0
  7  8  1  0
  8  9  1  0
  9 10  1  0
 10 11  2  0
 10 12  1  0
 12 13  1  0
 13 14  2  0
 14 15  1  0
 15 16  2  0
 16 17  1  0
 17 18  1  0
 18 19  1  0
 19 20  1  0
 20 21  1  0
 21 22  1  0
 16 23  1  0
 23 24  2  0
  7 25  2  0
 25  2  1  0
 24 13  1  0
 22 17  1  0
  1 26  1  0
  1 27  1  0
  1 28  1  0
  3 29  1  0
  5 30  1  0
  5 31  1  0
  5 32  1  0
  6 33  1  0
  9 34  1  0
  9 35  1  0
 14 36  1  0
 15 37  1  0
 18 38  1  0
 18 39  1  0
 19 40  1  0
 19 41  1  0
 21 42  1  0
 21 43  1  0
 22 44  1  0
 22 45  1  0
 23 46  1  0
 24 47  1  0
M  CHG  2   6   1  12  -1
M  END
>  <UniqueID>  (14) 
12

>  <SMILES>  (14) 
Cc1cc(C)[nH+]c(SCC(=O)[N-]c2ccc(N3CCOCC3)cc2)n1

>  <Energy>  (14) 
56.167322388525925

>  <Genealogy>  (14) 
Cc1cc(C)[nH+]c(SCC(=O)[N-]c2ccc(N3CCOCC3)cc2)n1 (protonated)
Cc1cc(C)[nH+]c(SCC(=O)[N-]c2ccc(N3CCOCC3)cc2)n1 (3D coordinates assigned)
Cc1cc(C)[nH+]c(SCC(=O)[N-]c2ccc(N3CCOCC3)cc2)n1 (nonaromatic ring conformer: 56.167322388525925 kcal/mol)

>  <smiles>  (14) 
Cc1cc(C)nc(SCC(=O)Nc2ccc(N3CCOCC3)cc2)n1

>  <score_type>  (14) 
oracle

>  <origin>  (14) 
adg

>  <m_score__min__energy>  (14) 
-7.9699999999999998

>  <m_primary>  (14) 
energy

$$$$
14:0
     RDKit          3D

 82 85  0  0  0  0  0  0  0  0999 V2000
   58.5330   31.6710   54.4340 C   0  0  0  0  0  0  0  0  0  0  0  0
   58.7600   32.1010   53.1850 C   0  0  0  0  0  0  0  0  0  0  0  0
   58.5810   31.2530   51.9220 C   0  0  1  0  0  0  0  0  0  0  0  0
   58.7160   29.7310   52.1960 C   0  0  0  0  0  0  0  0  0  0  0  0
   57.1990   31.5710   51.2690 C   0  0  0  0  0  0  0  0  0  0  0  0
   55.9700   31.3140   52.1720 C   0  0  0  0  0  0  0  0  0  0  0  0
   55.0390   30.3230   51.6050 N   0  0  0  0  0  0  0  0  0  0  0  0
   53.7110   30.8560   51.2500 C   0  0  0  0  0  0  0  0  0  0  0  0
   52.6390   30.4260   52.2330 C   0  0  0  0  0  0  0  0  0  0  0  0
   52.8740   29.2630   52.9930 C   0  0  0  0  0  0  0  0  0  0  0  0
   51.9320   28.8010   53.9130 C   0  0  0  0  0  0  0  0  0  0  0  0
   50.7360   29.4900   54.0900 C   0  0  0  0  0  0  0  0  0  0  0  0
   50.4730   30.6350   53.3360 C   0  0  0  0  0  0  0  0  0  0  0  0
   51.4110   31.1250   52.3990 C   0  0  0  0  0  0  0  0  0  0  0  0
   51.0450   32.3410   51.6220 C   0  0  0  0  0  0  0  0  0  0  0  0
   51.0730   32.3130   50.3630 O   0  0  0  0  0  0  0  0  0  0  0  0
   50.6350   33.5150   52.2490 O   0  0  0  0  0  0  0  0  0  0  0  0
   59.6920   31.6700   50.9130 C   0  0  0  0  0  0  0  0  0  0  0  0
   59.9320   33.1380   50.9600 N   0  0  0  0  0  0  0  0  0  0  0  0
   61.0330   33.5220   51.8650 C   0  0  0  0  0  0  0  0  0  0  0  0
   62.4150   33.2270   51.2540 C   0  0  0  0  0  0  0  0  0  0  0  0
   62.4930   33.4860   49.7930 N   0  0  0  0  0  0  0  0  0  0  0  0
   62.6250   32.2490   48.9860 C   0  0  0  0  0  0  0  0  0  0  0  0
   62.6930   32.5810   47.4940 C   0  0  0  0  0  0  0  0  0  0  0  0
   61.8930   31.6640   46.7660 O   0  0  0  0  0  0  0  0  0  0  0  0
   60.5790   31.5680   47.2940 C   0  0  0  0  0  0  0  0  0  0  0  0
   59.6510   32.5290   46.5740 C   0  0  0  0  0  0  0  0  0  0  0  0
   60.1220   33.7340   46.0040 C   0  0  0  0  0  0  0  0  0  0  0  0
   59.2400   34.5920   45.3380 C   0  0  0  0  0  0  0  0  0  0  0  0
   57.8870   34.2560   45.2160 C   0  0  0  0  0  0  0  0  0  0  0  0
   57.4090   33.0710   45.7810 C   0  0  0  0  0  0  0  0  0  0  0  0
   58.2820   32.2120   46.4580 C   0  0  0  0  0  0  0  0  0  0  0  0
   60.0620   30.1510   47.1280 C   0  0  0  0  0  0  0  0  0  0  0  0
   60.2530   29.4690   45.9140 C   0  0  0  0  0  0  0  0  0  0  0  0
   59.7890   28.1580   45.7580 C   0  0  0  0  0  0  0  0  0  0  0  0
   59.1240   27.5210   46.8110 C   0  0  0  0  0  0  0  0  0  0  0  0
   58.9280   28.1860   48.0250 C   0  0  0  0  0  0  0  0  0  0  0  0
   59.4010   29.4950   48.1890 C   0  0  0  0  0  0  0  0  0  0  0  0
   61.4110   34.3680   49.3120 C   0  0  0  0  0  0  0  0  0  0  0  0
   60.0130   33.7990   49.6310 C   0  0  0  0  0  0  0  0  0  0  0  0
   58.6877   32.3495   55.2859 H   0  0  0  0  0  0  0  0  0  0  0  0
   58.1921   30.6396   54.6072 H   0  0  0  0  0  0  0  0  0  0  0  0
   59.0999   33.1394   53.0575 H   0  0  0  0  0  0  0  0  0  0  0  0
   58.7317   29.5538   53.2815 H   0  0  0  0  0  0  0  0  0  0  0  0
   57.8613   29.2010   51.7503 H   0  0  0  0  0  0  0  0  0  0  0  0
   59.6506   29.3597   51.7503 H   0  0  0  0  0  0  0  0  0  0  0  0
   57.1944   32.6329   50.9819 H   0  0  0  0  0  0  0  0  0  0  0  0
   57.0995   30.8849   50.4150 H   0  0  0  0  0  0  0  0  0  0  0  0
   56.3218   30.9471   53.1475 H   0  0  0  0  0  0  0  0  0  0  0  0
   55.4241   32.2644   52.2647 H   0  0  0  0  0  0  0  0  0  0  0  0
   54.9140   29.5400   52.2900 H   0  0  0  0  0  0  0  0  0  0  0  0
   53.7616   31.9548   51.2395 H   0  0  0  0  0  0  0  0  0  0  0  0
   53.4410   30.4579   50.2607 H   0  0  0  0  0  0  0  0  0  0  0  0
   53.8155   28.7102   52.8589 H   0  0  0  0  0  0  0  0  0  0  0  0
   52.1349   27.8921   54.4984 H   0  0  0  0  0  0  0  0  0  0  0  0
   49.9983   29.1326   54.8236 H   0  0  0  0  0  0  0  0  0  0  0  0
   49.5191   31.1652   53.4735 H   0  0  0  0  0  0  0  0  0  0  0  0
   60.6244   31.1448   51.1674 H   0  0  0  0  0  0  0  0  0  0  0  0
   59.3626   31.4012   49.8985 H   0  0  0  0  0  0  0  0  0  0  0  0
   60.9605   34.5994   52.0744 H   0  0  0  0  0  0  0  0  0  0  0  0
   60.9365   32.9288   52.7863 H   0  0  0  0  0  0  0  0  0  0  0  0
   63.1595   33.8603   51.7586 H   0  0  0  0  0  0  0  0  0  0  0  0
   62.6069   32.1537   51.3995 H   0  0  0  0  0  0  0  0  0  0  0  0
   63.5444   31.7220   49.2809 H   0  0  0  0  0  0  0  0  0  0  0  0
   61.7457   31.6133   49.1670 H   0  0  0  0  0  0  0  0  0  0  0  0
   62.3209   33.6029   47.3290 H   0  0  0  0  0  0  0  0  0  0  0  0
   63.7356   32.5091   47.1508 H   0  0  0  0  0  0  0  0  0  0  0  0
   60.6085   31.8283   48.3623 H   0  0  0  0  0  0  0  0  0  0  0  0
   61.1868   33.9982   46.0845 H   0  0  0  0  0  0  0  0  0  0  0  0
   59.6115   35.5342   44.9087 H   0  0  0  0  0  0  0  0  0  0  0  0
   57.2004   34.9243   44.6757 H   0  0  0  0  0  0  0  0  0  0  0  0
   56.3434   32.8125   45.6934 H   0  0  0  0  0  0  0  0  0  0  0  0
   57.8973   31.2825   46.9030 H   0  0  0  0  0  0  0  0  0  0  0  0
   60.7702   29.9687   45.0816 H   0  0  0  0  0  0  0  0  0  0  0  0
   59.9473   27.6282   44.8070 H   0  0  0  0  0  0  0  0  0  0  0  0
   58.7539   26.4930   46.6833 H   0  0  0  0  0  0  0  0  0  0  0  0
   58.4033   27.6825   48.8503 H   0  0  0  0  0  0  0  0  0  0  0  0
   59.2566   30.0134   49.1484 H   0  0  0  0  0  0  0  0  0  0  0  0
   61.5129   35.3505   49.7960 H   0  0  0  0  0  0  0  0  0  0  0  0
   61.5018   34.4500   48.2188 H   0  0  0  0  0  0  0  0  0  0  0  0
   59.2871   34.6252   49.6080 H   0  0  0  0  0  0  0  0  0  0  0  0
   59.7950   33.0316   48.8737 H   0  0  0  0  0  0  0  0  0  0  0  0
  1  2  2  0
  2  3  1  0
  3  4  1  1
  3  5  1  0
  5  6  1  0
  6  7  1  0
  7  8  1  0
  8  9  1  0
  9 10  2  0
 10 11  1  0
 11 12  2  0
 12 13  1  0
 13 14  2  0
 14 15  1  0
 15 16  2  0
 15 17  1  0
  3 18  1  0
 18 19  1  0
 19 20  1  0
 20 21  1  0
 21 22  1  0
 22 23  1  0
 23 24  1  0
 24 25  1  0
 25 26  1  0
 26 27  1  0
 27 28  2  0
 28 29  1  0
 29 30  2  0
 30 31  1  0
 31 32  2  0
 26 33  1  0
 33 34  2  0
 34 35  1  0
 35 36  2  0
 36 37  1  0
 37 38  2  0
 22 39  1  0
 39 40  1  0
 14  9  1  0
 40 19  1  0
 32 27  1  0
 38 33  1  0
  1 41  1  0
  1 42  1  0
  2 43  1  0
  4 44  1  0
  4 45  1  0
  4 46  1  0
  5 47  1  0
  5 48  1  0
  6 49  1  0
  6 50  1  0
  7 51  1  0
  8 52  1  0
  8 53  1  0
 10 54  1  0
 11 55  1  0
 12 56  1  0
 13 57  1  0
 18 58  1  0
 18 59  1  0
 20 60  1  0
 20 61  1  0
 21 62  1  0
 21 63  1  0
 23 64  1  0
 23 65  1  0
 24 66  1  0
 24 67  1  0
 26 68  1  0
 28 69  1  0
 29 70  1  0
 30 71  1  0
 31 72  1  0
 32 73  1  0
 34 74  1  0
 35 75  1  0
 36 76  1  0
 37 77  1  0
 38 78  1  0
 39 79  1  0
 39 80  1  0
 40 81  1  0
 40 82  1  0
M  CHG  1  17  -1
M  END
>  <UniqueID>  (15) 
13

>  <SMILES>  (15) 
C=C[C@@](C)(CCNCc1ccccc1C(=O)[O-])CN1CCN(CCOC(c2ccccc2)c2ccccc2)CC1

>  <Energy>  (15) 
110.80792228391249

>  <Genealogy>  (15) 
C=CC(C)(CCNCc1ccccc1C(=O)[O-])CN1CCN(CCOC(c2ccccc2)c2ccccc2)CC1 (protonated)
C=C[C@@](C)(CCNCc1ccccc1C(=O)[O-])CN1CCN(CCOC(c2ccccc2)c2ccccc2)CC1 (chirality)
C=C[C@@](C)(CCNCc1ccccc1C(=O)[O-])CN1CCN(CCOC(c2ccccc2)c2ccccc2)CC1 (3D coordinates assigned)
C=C[C@@](C)(CCNCc1ccccc1C(=O)[O-])CN1CCN(CCOC(c2ccccc2)c2ccccc2)CC1 (nonaromatic ring conformer: 110.80792228391249 kcal/mol)

>  <smiles>  (15) 
C=CC(C)(CCNCc1ccccc1C(=O)O)CN1CCN(CCOC(c2ccccc2)c2ccccc2)CC1

>  <score_type>  (15) 
oracle

>  <origin>  (15) 
adg

>  <m_score__min__energy>  (15) 
-13.880000000000001

>  <m_primary>  (15) 
energy

$$$$
15:0
     RDKit          3D

 48 50  0  0  0  0  0  0  0  0999 V2000
   65.9000   31.1330   50.9560 C   0  0  0  0  0  0  0  0  0  0  0  0
   65.2390   32.2130   50.1380 C   0  0  0  0  0  0  0  0  0  0  0  0
   65.9340   32.8740   49.3780 O   0  0  0  0  0  0  0  0  0  0  0  0
   63.8180   32.4920   50.2410 N   0  0  0  0  0  0  0  0  0  0  0  0
   63.0620   31.5660   49.3640 C   0  0  0  0  0  0  0  0  0  0  0  0
   61.5740   31.9310   49.3190 C   0  0  0  0  0  0  0  0  0  0  0  0
   61.4020   33.3400   48.9510 N   0  0  0  0  0  0  0  0  0  0  0  0
   60.0920   33.8590   48.6780 C   0  0  0  0  0  0  0  0  0  0  0  0
   59.6760   34.8580   49.3300 O   0  0  0  0  0  0  0  0  0  0  0  0
   59.2390   33.2690   47.6210 C   0  0  0  0  0  0  0  0  0  0  0  0
   58.8050   34.0530   46.5390 C   0  0  0  0  0  0  0  0  0  0  0  0
   58.0330   33.4880   45.5180 C   0  0  0  0  0  0  0  0  0  0  0  0
   57.6890   32.1250   45.5610 C   0  0  0  0  0  0  0  0  0  0  0  0
   56.9170   31.4980   44.5280 N   0  0  0  0  0  0  0  0  0  0  0  0
   56.7300   29.7890   44.3150 S   0  0  0  0  0  0  0  0  0  0  0  0
   55.4690   29.3410   44.9990 O   0  0  0  0  0  0  0  0  0  0  0  0
   56.6140   29.4860   42.8480 O   0  0  0  0  0  0  0  0  0  0  0  0
   58.1320   28.9440   44.9620 C   0  0  0  0  0  0  0  0  0  0  0  0
   57.9550   27.9540   45.9380 C   0  0  0  0  0  0  0  0  0  0  0  0
   59.0640   27.2830   46.4650 C   0  0  0  0  0  0  0  0  0  0  0  0
   60.3500   27.5950   46.0150 C   0  0  0  0  0  0  0  0  0  0  0  0
   60.5300   28.5810   45.0390 C   0  0  0  0  0  0  0  0  0  0  0  0
   59.4240   29.2560   44.5130 C   0  0  0  0  0  0  0  0  0  0  0  0
   58.1270   31.3450   46.6360 C   0  0  0  0  0  0  0  0  0  0  0  0
   58.8970   31.9080   47.6570 C   0  0  0  0  0  0  0  0  0  0  0  0
   62.5710   34.2170   48.8550 C   0  0  0  0  0  0  0  0  0  0  0  0
   63.5280   33.9430   50.0260 C   0  0  0  0  0  0  0  0  0  0  0  0
   65.7670   31.3503   52.0261 H   0  0  0  0  0  0  0  0  0  0  0  0
   65.4416   30.1615   50.7194 H   0  0  0  0  0  0  0  0  0  0  0  0
   66.9737   31.0992   50.7194 H   0  0  0  0  0  0  0  0  0  0  0  0
   63.5260   32.2640   51.2240 H   0  0  0  0  0  0  0  0  0  0  0  0
   63.4749   31.6196   48.3459 H   0  0  0  0  0  0  0  0  0  0  0  0
   63.1575   30.5481   49.7699 H   0  0  0  0  0  0  0  0  0  0  0  0
   61.0683   31.2981   48.5748 H   0  0  0  0  0  0  0  0  0  0  0  0
   61.1372   31.7675   50.3152 H   0  0  0  0  0  0  0  0  0  0  0  0
   59.0740   35.1187   46.4942 H   0  0  0  0  0  0  0  0  0  0  0  0
   57.6938   34.1124   44.6783 H   0  0  0  0  0  0  0  0  0  0  0  0
   56.9433   27.7042   46.2901 H   0  0  0  0  0  0  0  0  0  0  0  0
   58.9236   26.5092   47.2342 H   0  0  0  0  0  0  0  0  0  0  0  0
   61.2208   27.0651   46.4284 H   0  0  0  0  0  0  0  0  0  0  0  0
   61.5424   28.8255   44.6850 H   0  0  0  0  0  0  0  0  0  0  0  0
   59.5671   30.0321   43.7467 H   0  0  0  0  0  0  0  0  0  0  0  0
   57.8628   30.2780   46.6781 H   0  0  0  0  0  0  0  0  0  0  0  0
   59.2373   31.2809   48.4942 H   0  0  0  0  0  0  0  0  0  0  0  0
   63.0927   34.0268   47.9054 H   0  0  0  0  0  0  0  0  0  0  0  0
   62.2413   35.2657   48.8945 H   0  0  0  0  0  0  0  0  0  0  0  0
   64.4778   34.4607   49.8262 H   0  0  0  0  0  0  0  0  0  0  0  0
   63.0327   34.3094   50.9373 H   0  0  0  0  0  0  0  0  0  0  0  0
  1  2  1  0
  2  3  2  0
  2  4  1  0
  4  5  1  0
  5  6  1  0
  6  7  1  0
  7  8  1  0
  8  9  2  0
  8 10  1  0
 10 11  2  0
 11 12  1  0
 12 13  2  0
 13 14  1  0
 14 15  1  0
 15 16  2  0
 15 17  2  0
 15 18  1  0
 18 19  2  0
 19 20  1  0
 20 21  2  0
 21 22  1  0
 22 23  2  0
 13 24  1  0
 24 25  2  0
  7 26  1  0
 26 27  1  0
 27  4  1  0
 25 10  1  0
 23 18  1  0
  1 28  1  0
  1 29  1  0
  1 30  1  0
  4 31  1  0
  5 32  1  0
  5 33  1  0
  6 34  1  0
  6 35  1  0
 11 36  1  0
 12 37  1  0
 19 38  1  0
 20 39  1  0
 21 40  1  0
 22 41  1  0
 23 42  1  0
 24 43  1  0
 25 44  1  0
 26 45  1  0
 26 46  1  0
 27 47  1  0
 27 48  1  0
M  CHG  2   4   1  14  -1
M  END
>  <UniqueID>  (16) 
14

>  <SMILES>  (16) 
CC(=O)[NH+]1CCN(C(=O)c2ccc([N-]S(=O)(=O)c3ccccc3)cc2)CC1

>  <Energy>  (16) 
65.44881316255058

>  <Genealogy>  (16) 
CC(=O)[NH+]1CCN(C(=O)c2ccc([N-]S(=O)(=O)c3ccccc3)cc2)CC1 (protonated)
CC(=O)[NH+]1CCN(C(=O)c2ccc([N-]S(=O)(=O)c3ccccc3)cc2)CC1 (3D coordinates assigned)
CC(=O)[NH+]1CCN(C(=O)c2ccc([N-]S(=O)(=O)c3ccccc3)cc2)CC1 (nonaromatic ring conformer: 65.44881316255058 kcal/mol)

>  <smiles>  (16) 
CC(=O)N1CCN(C(=O)c2ccc(NS(=O)(=O)c3ccccc3)cc2)CC1

>  <score_type>  (16) 
oracle

>  <origin>  (16) 
adg

>  <m_score__min__energy>  (16) 
-8.8900000000000006

>  <m_primary>  (16) 
energy

$$$$
16:0
     RDKit          3D

 52 55  0  0  0  0  0  0  0  0999 V2000
   52.9970   28.5500   54.1510 C   0  0  0  0  0  0  0  0  0  0  0  0
   53.9860   29.1450   53.4640 C   0  0  0  0  0  0  0  0  0  0  0  0
   53.9470   30.4080   52.8520 C   0  0  0  0  0  0  0  0  0  0  0  0
   52.9170   31.2400   52.6030 C   0  0  0  0  0  0  0  0  0  0  0  0
   52.1110   31.2580   51.3720 C   0  0  0  0  0  0  0  0  0  0  0  0
   52.1820   30.3350   50.3960 N   0  0  0  0  0  0  0  0  0  0  0  0
   51.3760   30.8350   49.4340 C   0  0  0  0  0  0  0  0  0  0  0  0
   51.1670   30.2390   48.3460 O   0  0  0  0  0  0  0  0  0  0  0  0
   50.8210   32.0310   49.7270 N   0  0  0  0  0  0  0  0  0  0  0  0
   51.3070   32.2900   50.9510 C   0  0  0  0  0  0  0  0  0  0  0  0
   51.0270   33.4470   51.6670 O   0  0  0  0  0  0  0  0  0  0  0  0
   55.2500   30.6970   52.4840 C   0  0  0  0  0  0  0  0  0  0  0  0
   56.0110   29.5930   52.7990 C   0  0  0  0  0  0  0  0  0  0  0  0
   57.4520   29.4790   52.5070 C   0  0  0  0  0  0  0  0  0  0  0  0
   58.1870   28.8470   53.3140 O   0  0  0  0  0  0  0  0  0  0  0  0
   58.0370   30.0960   51.3440 N   0  0  0  0  0  0  0  0  0  0  0  0
   59.2330   29.4870   50.7430 C   0  0  0  0  0  0  0  0  0  0  0  0
   59.5850   30.1420   49.4050 C   0  0  0  0  0  0  0  0  0  0  0  0
   59.5830   31.6020   49.5460 N   0  0  0  0  0  0  0  0  0  0  0  0
   60.6070   32.3880   48.9160 C   0  0  0  0  0  0  0  0  0  0  0  0
   61.9180   32.3260   49.4120 C   0  0  0  0  0  0  0  0  0  0  0  0
   62.9410   33.0620   48.8080 C   0  0  0  0  0  0  0  0  0  0  0  0
   64.5780   32.9680   49.4330 Cl  0  0  0  0  0  0  0  0  0  0  0  0
   62.6610   33.8650   47.7000 C   0  0  0  0  0  0  0  0  0  0  0  0
   61.3570   33.9420   47.2010 C   0  0  0  0  0  0  0  0  0  0  0  0
   60.3170   33.2210   47.8110 C   0  0  0  0  0  0  0  0  0  0  0  0
   58.9220   33.3300   47.2590 C   0  0  0  0  0  0  0  0  0  0  0  0
   58.5340   32.2810   50.3140 C   0  0  0  0  0  0  0  0  0  0  0  0
   57.4380   31.3030   50.7530 C   0  0  0  0  0  0  0  0  0  0  0  0
   55.2490   28.6490   53.4020 N   0  0  0  0  0  0  0  0  0  0  0  0
   55.7280   27.4140   54.0370 C   0  0  0  0  0  0  0  0  0  0  0  0
   53.1526   27.5515   54.5855 H   0  0  0  0  0  0  0  0  0  0  0  0
   52.0315   29.0612   54.2791 H   0  0  0  0  0  0  0  0  0  0  0  0
   52.6565   31.9673   53.3861 H   0  0  0  0  0  0  0  0  0  0  0  0
   55.6092   31.6308   52.0269 H   0  0  0  0  0  0  0  0  0  0  0  0
   60.0806   29.6074   51.4337 H   0  0  0  0  0  0  0  0  0  0  0  0
   59.0235   28.4225   50.5612 H   0  0  0  0  0  0  0  0  0  0  0  0
   60.5838   29.8080   49.0873 H   0  0  0  0  0  0  0  0  0  0  0  0
   58.8376   29.8506   48.6523 H   0  0  0  0  0  0  0  0  0  0  0  0
   62.1424   31.6930   50.2832 H   0  0  0  0  0  0  0  0  0  0  0  0
   63.4676   34.4378   47.2191 H   0  0  0  0  0  0  0  0  0  0  0  0
   61.1440   34.5716   46.3245 H   0  0  0  0  0  0  0  0  0  0  0  0
   58.2025   33.3862   48.0892 H   0  0  0  0  0  0  0  0  0  0  0  0
   58.8416   34.2372   46.6421 H   0  0  0  0  0  0  0  0  0  0  0  0
   58.7017   32.4463   46.6421 H   0  0  0  0  0  0  0  0  0  0  0  0
   58.9841   32.7382   51.2075 H   0  0  0  0  0  0  0  0  0  0  0  0
   58.0761   33.0471   49.6711 H   0  0  0  0  0  0  0  0  0  0  0  0
   56.7939   31.7911   51.4993 H   0  0  0  0  0  0  0  0  0  0  0  0
   56.8438   31.0136   49.8737 H   0  0  0  0  0  0  0  0  0  0  0  0
   55.6854   27.5237   55.1307 H   0  0  0  0  0  0  0  0  0  0  0  0
   55.0913   26.5720   53.7279 H   0  0  0  0  0  0  0  0  0  0  0  0
   56.7660   27.2215   53.7279 H   0  0  0  0  0  0  0  0  0  0  0  0
  1  2  2  0
  2  3  1  0
  3  4  2  3
  4  5  1  0
  5  6  1  0
  6  7  1  0
  7  8  2  0
  7  9  1  0
  9 10  1  0
 10 11  1  0
  3 12  1  0
 12 13  2  0
 13 14  1  0
 14 15  2  0
 14 16  1  0
 16 17  1  0
 17 18  1  0
 18 19  1  0
 19 20  1  0
 20 21  2  0
 21 22  1  0
 22 23  1  0
 22 24  2  0
 24 25  1  0
 25 26  2  0
 26 27  1  0
 19 28  1  0
 28 29  1  0
 13 30  1  0
 30 31  1  0
 30  2  1  0
 10  5  2  0
 29 16  1  0
 26 20  1  0
  1 32  1  0
  1 33  1  0
  4 34  1  0
 12 35  1  0
 17 36  1  0
 17 37  1  0
 18 38  1  0
 18 39  1  0
 21 40  1  0
 24 41  1  0
 25 42  1  0
 27 43  1  0
 27 44  1  0
 27 45  1  0
 28 46  1  0
 28 47  1  0
 29 48  1  0
 29 49  1  0
 31 50  1  0
 31 51  1  0
 31 52  1  0
M  CHG  3   6  -1   9  -1  11  -1
M  END
>  <UniqueID>  (17) 
15

>  <SMILES>  (17) 
C=c1c(=Cc2[n-]c(=O)[n-]c2[O-])cc(C(=O)N2CCN(c3cc(Cl)ccc3C)CC2)n1C

>  <Energy>  (17) 
134.321631680866

>  <Genealogy>  (17) 
C=c1c(=Cc2[n-]c(=O)[n-]c2[O-])cc(C(=O)N2CCN(c3cc(Cl)ccc3C)CC2)n1C (protonated)
C=c1c(=Cc2[n-]c(=O)[n-]c2[O-])cc(C(=O)N2CCN(c3cc(Cl)ccc3C)CC2)n1C (3D coordinates assigned)
C=c1c(=Cc2[n-]c(=O)[n-]c2[O-])cc(C(=O)N2CCN(c3cc(Cl)ccc3C)CC2)n1C (nonaromatic ring conformer: 134.321631680866 kcal/mol)

>  <smiles>  (17) 
C=c1c(=Cc2[nH]c(=O)[nH]c2O)cc(C(=O)N2CCN(c3cc(Cl)ccc3C)CC2)n1C

>  <score_type>  (17) 
oracle

>  <origin>  (17) 
adg

>  <m_score__min__energy>  (17) 
-17.949999999999999

>  <m_primary>  (17) 
energy

$$$$
17:0
     RDKit          3D

 57 60  0  0  0  0  0  0  0  0999 V2000
   55.1430   29.3350   44.6590 N   0  0  0  0  0  0  0  0  0  0  0  0
   56.8490   29.5160   44.8850 S   0  0  0  0  0  0  0  0  0  0  0  0
   57.4990   29.5550   43.5280 O   0  0  0  0  0  0  0  0  0  0  0  0
   57.1140   30.8130   45.6010 O   0  0  0  0  0  0  0  0  0  0  0  0
   57.4960   28.1610   45.8370 C   0  0  0  0  0  0  0  0  0  0  0  0
   56.9610   26.8770   45.6340 C   0  0  0  0  0  0  0  0  0  0  0  0
   57.4880   25.7710   46.3100 C   0  0  0  0  0  0  0  0  0  0  0  0
   58.5500   25.9340   47.1990 C   0  0  0  0  0  0  0  0  0  0  0  0
   59.0800   27.2050   47.4290 C   0  0  0  0  0  0  0  0  0  0  0  0
   58.5550   28.3300   46.7660 C   0  0  0  0  0  0  0  0  0  0  0  0
   59.1280   29.6580   47.0720 C   0  0  0  0  0  0  0  0  0  0  0  0
   59.8460   30.3620   46.0970 C   0  0  0  0  0  0  0  0  0  0  0  0
   60.3900   31.6160   46.3850 C   0  0  0  0  0  0  0  0  0  0  0  0
   60.2130   32.2030   47.6560 C   0  0  0  0  0  0  0  0  0  0  0  0
   60.8090   33.5270   48.0330 C   0  0  0  0  0  0  0  0  0  0  0  0
   60.2690   34.5740   47.5600 O   0  0  0  0  0  0  0  0  0  0  0  0
   61.9580   33.6810   48.9100 N   0  0  1  0  0  0  0  0  0  0  0  0
   61.6020   33.4020   50.3270 C   0  0  0  0  0  0  0  0  0  0  0  0
   62.7800   32.8500   51.1510 C   0  0  0  0  0  0  0  0  0  0  0  0
   64.0940   33.5360   50.7390 C   0  0  1  0  0  0  0  0  0  0  0  0
   65.2550   33.0810   51.6520 C   0  0  0  0  0  0  0  0  0  0  0  0
   66.5410   33.7980   51.3170 C   0  0  0  0  0  0  0  0  0  0  0  0
   66.8320   35.0500   51.8870 C   0  0  0  0  0  0  0  0  0  0  0  0
   68.0380   35.6960   51.5940 C   0  0  0  0  0  0  0  0  0  0  0  0
   68.9600   35.1000   50.7300 C   0  0  0  0  0  0  0  0  0  0  0  0
   68.6790   33.8540   50.1600 C   0  0  0  0  0  0  0  0  0  0  0  0
   67.4780   33.2000   50.4560 C   0  0  0  0  0  0  0  0  0  0  0  0
   64.4020   33.2820   49.2380 C   0  0  0  0  0  0  0  0  0  0  0  0
   63.1430   32.9440   48.4140 C   0  0  0  0  0  0  0  0  0  0  0  0
   59.4750   31.4900   48.6230 C   0  0  0  0  0  0  0  0  0  0  0  0
   58.9330   30.2340   48.3320 C   0  0  0  0  0  0  0  0  0  0  0  0
   54.7020   29.3660   45.6030 H   0  0  0  0  0  0  0  0  0  0  0  0
   56.1206   26.7405   44.9375 H   0  0  0  0  0  0  0  0  0  0  0  0
   57.0636   24.7706   46.1398 H   0  0  0  0  0  0  0  0  0  0  0  0
   58.9703   25.0607   47.7193 H   0  0  0  0  0  0  0  0  0  0  0  0
   59.9150   27.3282   48.1344 H   0  0  0  0  0  0  0  0  0  0  0  0
   59.9825   29.9242   45.0971 H   0  0  0  0  0  0  0  0  0  0  0  0
   60.9622   32.1514   45.6131 H   0  0  0  0  0  0  0  0  0  0  0  0
   62.2290   34.6950   48.8670 H   0  0  0  0  0  0  0  0  0  0  0  0
   60.7871   32.6633   50.3438 H   0  0  0  0  0  0  0  0  0  0  0  0
   61.3032   34.3573   50.7832 H   0  0  0  0  0  0  0  0  0  0  0  0
   62.8671   31.7672   50.9777 H   0  0  0  0  0  0  0  0  0  0  0  0
   62.5933   33.0497   52.2165 H   0  0  0  0  0  0  0  0  0  0  0  0
   63.9793   34.6223   50.8686 H   0  0  0  0  0  0  0  0  0  0  0  0
   64.9903   33.2934   52.6983 H   0  0  0  0  0  0  0  0  0  0  0  0
   65.4120   32.0034   51.4968 H   0  0  0  0  0  0  0  0  0  0  0  0
   66.1082   35.5238   52.5664 H   0  0  0  0  0  0  0  0  0  0  0  0
   68.2605   36.6745   52.0446 H   0  0  0  0  0  0  0  0  0  0  0  0
   69.9064   35.6104   50.4981 H   0  0  0  0  0  0  0  0  0  0  0  0
   69.4041   33.3870   49.4772 H   0  0  0  0  0  0  0  0  0  0  0  0
   67.2663   32.2153   50.0139 H   0  0  0  0  0  0  0  0  0  0  0  0
   65.1070   32.4410   49.1621 H   0  0  0  0  0  0  0  0  0  0  0  0
   64.8251   34.2104   48.8270 H   0  0  0  0  0  0  0  0  0  0  0  0
   62.9481   31.8637   48.4852 H   0  0  0  0  0  0  0  0  0  0  0  0
   63.3228   33.2405   47.3701 H   0  0  0  0  0  0  0  0  0  0  0  0
   59.3234   31.9279   49.6206 H   0  0  0  0  0  0  0  0  0  0  0  0
   58.3516   29.6973   49.0962 H   0  0  0  0  0  0  0  0  0  0  0  0
  1  2  1  0
  2  3  2  0
  2  4  2  0
  2  5  1  0
  5  6  2  0
  6  7  1  0
  7  8  2  0
  8  9  1  0
  9 10  2  0
 10 11  1  0
 11 12  2  0
 12 13  1  0
 13 14  2  0
 14 15  1  0
 15 16  2  0
 15 17  1  0
 17 18  1  0
 18 19  1  0
 19 20  1  0
 20 21  1  0
 21 22  1  0
 22 23  2  0
 23 24  1  0
 24 25  2  0
 25 26  1  0
 26 27  2  0
 20 28  1  0
 28 29  1  0
 14 30  1  0
 30 31  2  0
 10  5  1  0
 31 11  1  0
 29 17  1  0
 27 22  1  0
  1 32  1  0
  6 33  1  0
  7 34  1  0
  8 35  1  0
  9 36  1  0
 12 37  1  0
 13 38  1  0
 17 39  1  1
 18 40  1  0
 18 41  1  0
 19 42  1  0
 19 43  1  0
 20 44  1  6
 21 45  1  0
 21 46  1  0
 23 47  1  0
 24 48  1  0
 25 49  1  0
 26 50  1  0
 27 51  1  0
 28 52  1  0
 28 53  1  0
 29 54  1  0
 29 55  1  0
 30 56  1  0
 31 57  1  0
M  CHG  2   1  -1  17   1
M  END
>  <UniqueID>  (18) 
16

>  <SMILES>  (18) 
[NH-]S(=O)(=O)c1ccccc1-c1ccc(C(=O)[NH+]2CCC(Cc3ccccc3)CC2)cc1

>  <Energy>  (18) 
81.91867734247685

>  <Genealogy>  (18) 
[NH-]S(=O)(=O)c1ccccc1-c1ccc(C(=O)[NH+]2CCC(Cc3ccccc3)CC2)cc1 (protonated)
[NH-]S(=O)(=O)c1ccccc1-c1ccc(C(=O)[NH+]2CCC(Cc3ccccc3)CC2)cc1 (3D coordinates assigned)
[NH-]S(=O)(=O)c1ccccc1-c1ccc(C(=O)[NH+]2CCC(Cc3ccccc3)CC2)cc1 (nonaromatic ring conformer: 81.91867734247685 kcal/mol)

>  <smiles>  (18) 
NS(=O)(=O)c1ccccc1-c1ccc(C(=O)N2CCC(Cc3ccccc3)CC2)cc1

>  <score_type>  (18) 
oracle

>  <origin>  (18) 
adg

>  <m_score__min__energy>  (18) 
-11.44

>  <m_primary>  (18) 
energy

$$$$
18:0
     RDKit          3D

 43 46  0  0  0  0  0  0  0  0999 V2000
   56.9490   30.9990   42.5430 C   0  0  0  0  0  0  0  0  0  0  0  0
   57.4770   31.3120   43.7310 C   0  0  0  0  0  0  0  0  0  0  0  0
   57.4350   32.5700   44.2120 N   0  0  0  0  0  0  0  0  0  0  0  0
   58.2040   32.6070   45.3130 C   0  0  0  0  0  0  0  0  0  0  0  0
   58.4420   33.8550   46.1080 C   0  0  0  0  0  0  0  0  0  0  0  0
   58.7500   31.3550   45.5650 C   0  0  0  0  0  0  0  0  0  0  0  0
   59.6610   31.0250   46.6840 C   0  0  0  0  0  0  0  0  0  0  0  0
   60.0040   29.8280   46.8760 O   0  0  0  0  0  0  0  0  0  0  0  0
   60.0720   32.0480   47.6000 N   0  0  0  0  0  0  0  0  0  0  0  0
   61.4150   32.3370   48.0100 C   0  0  0  0  0  0  0  0  0  0  0  0
   62.1530   33.4020   47.4560 C   0  0  0  0  0  0  0  0  0  0  0  0
   63.4540   33.6640   47.8980 C   0  0  0  0  0  0  0  0  0  0  0  0
   64.0210   32.8760   48.9020 C   0  0  0  0  0  0  0  0  0  0  0  0
   63.2740   31.8490   49.4930 C   0  0  0  0  0  0  0  0  0  0  0  0
   61.9800   31.5760   49.0440 C   0  0  0  0  0  0  0  0  0  0  0  0
   63.8420   31.1060   50.5330 O   0  0  0  0  0  0  0  0  0  0  0  0
   65.0400   31.5420   51.1820 C   0  0  0  0  0  0  0  0  0  0  0  0
   66.0100   32.1480   50.1590 C   0  0  0  0  0  0  0  0  0  0  0  0
   65.3310   33.1010   49.3380 O   0  0  0  0  0  0  0  0  0  0  0  0
   58.2470   30.4970   44.5790 C   0  0  0  0  0  0  0  0  0  0  0  0
   58.4460   29.1610   44.5390 C   0  0  0  0  0  0  0  0  0  0  0  0
   57.5970   28.1530   45.1900 C   0  0  0  0  0  0  0  0  0  0  0  0
   58.0870   26.6040   45.6530 S   0  0  0  0  0  0  0  0  0  0  0  0
   56.5200   26.1340   46.0370 C   0  0  0  0  0  0  0  0  0  0  0  0
   56.2110   25.0020   46.4900 O   0  0  0  0  0  0  0  0  0  0  0  0
   55.6120   27.1020   45.7950 N   0  0  0  0  0  0  0  0  0  0  0  0
   56.2110   28.2210   45.3060 C   0  0  0  0  0  0  0  0  0  0  0  0
   55.4800   29.3490   44.9440 O   0  0  0  0  0  0  0  0  0  0  0  0
   56.9977   29.9635   42.1751 H   0  0  0  0  0  0  0  0  0  0  0  0
   56.4660   31.7770   41.9336 H   0  0  0  0  0  0  0  0  0  0  0  0
   56.9480   33.3870   43.7780 H   0  0  0  0  0  0  0  0  0  0  0  0
   58.3972   33.6199   47.1817 H   0  0  0  0  0  0  0  0  0  0  0  0
   59.4340   34.2623   45.8629 H   0  0  0  0  0  0  0  0  0  0  0  0
   57.6695   34.5988   45.8629 H   0  0  0  0  0  0  0  0  0  0  0  0
   61.7040   34.0301   46.6725 H   0  0  0  0  0  0  0  0  0  0  0  0
   64.0300   34.4899   47.4552 H   0  0  0  0  0  0  0  0  0  0  0  0
   61.4015   30.7608   49.5031 H   0  0  0  0  0  0  0  0  0  0  0  0
   64.7879   32.3013   51.9370 H   0  0  0  0  0  0  0  0  0  0  0  0
   65.5213   30.6776   51.6628 H   0  0  0  0  0  0  0  0  0  0  0  0
   66.8331   32.6478   50.6907 H   0  0  0  0  0  0  0  0  0  0  0  0
   66.4073   31.3442   49.5217 H   0  0  0  0  0  0  0  0  0  0  0  0
   59.3158   28.7975   43.9721 H   0  0  0  0  0  0  0  0  0  0  0  0
   55.2690   30.0680   45.6250 H   0  0  0  0  0  0  0  0  0  0  0  0
  1  2  2  0
  2  3  1  0
  3  4  1  0
  4  5  1  0
  4  6  2  0
  6  7  1  0
  7  8  2  0
  7  9  1  0
  9 10  1  0
 10 11  2  0
 11 12  1  0
 12 13  2  0
 13 14  1  0
 14 15  2  0
 14 16  1  0
 16 17  1  0
 17 18  1  0
 18 19  1  0
  6 20  1  0
 20 21  2  3
 21 22  1  0
 22 23  1  0
 23 24  1  0
 24 25  2  0
 24 26  1  0
 26 27  1  0
 27 28  1  0
 20  2  1  0
 27 22  2  0
 15 10  1  0
 19 13  1  0
  1 29  1  0
  1 30  1  0
  3 31  1  0
  5 32  1  0
  5 33  1  0
  5 34  1  0
 11 35  1  0
 12 36  1  0
 15 37  1  0
 17 38  1  0
 17 39  1  0
 18 40  1  0
 18 41  1  0
 21 42  1  0
 28 43  1  0
M  CHG  2   9  -1  26  -1
M  END
>  <UniqueID>  (19) 
17

>  <SMILES>  (19) 
C=c1[nH]c(C)c(C(=O)[N-]c2ccc3c(c2)OCCO3)c1=Cc1sc(=O)[n-]c1O

>  <Energy>  (19) 
123.93962295517618

>  <Genealogy>  (19) 
C=c1[nH]c(C)c(C(=O)[N-]c2ccc3c(c2)OCCO3)c1=Cc1sc(=O)[n-]c1O (protonated)
C=c1[nH]c(C)c(C(=O)[N-]c2ccc3c(c2)OCCO3)c1=Cc1sc(=O)[n-]c1O (3D coordinates assigned)
C=c1[nH]c(C)c(C(=O)[N-]c2ccc3c(c2)OCCO3)c1=Cc1sc(=O)[n-]c1O (nonaromatic ring conformer: 123.93962295517618 kcal/mol)

>  <smiles>  (19) 
C=c1[nH]c(C)c(C(=O)Nc2ccc3c(c2)OCCO3)c1=Cc1sc(=O)[nH]c1O

>  <score_type>  (19) 
oracle

>  <origin>  (19) 
adg

>  <m_score__min__energy>  (19) 
-11.91

>  <m_primary>  (19) 
energy

$$$$
19:0
     RDKit          3D

 59 62  0  0  0  0  0  0  0  0999 V2000
   57.7850   32.3810   42.3150 C   0  0  0  0  0  0  0  0  0  0  0  0
   58.1540   32.6280   43.7550 C   0  0  0  0  0  0  0  0  0  0  0  0
   58.8310   33.8180   44.0790 C   0  0  0  0  0  0  0  0  0  0  0  0
   59.2270   34.0790   45.3900 C   0  0  0  0  0  0  0  0  0  0  0  0
   58.9580   33.1570   46.4050 C   0  0  0  0  0  0  0  0  0  0  0  0
   59.4630   33.4890   48.0670 S   0  0  0  0  0  0  0  0  0  0  0  0
   59.3250   34.9620   48.3340 O   0  0  0  0  0  0  0  0  0  0  0  0
   58.5490   32.7590   49.0110 O   0  0  0  0  0  0  0  0  0  0  0  0
   61.1120   33.0070   48.3820 N   0  0  0  0  0  0  0  0  0  0  0  0
   61.9500   34.1360   48.7830 C   0  0  0  0  0  0  0  0  0  0  0  0
   63.3780   33.7710   48.4040 C   0  0  0  0  0  0  0  0  0  0  0  0
   63.2510   32.6450   47.3870 C   0  0  0  0  0  0  0  0  0  0  0  0
   61.7560   32.4430   47.1970 C   0  0  0  0  0  0  0  0  0  0  0  0
   58.2640   31.9800   46.1020 C   0  0  0  0  0  0  0  0  0  0  0  0
   57.8480   31.6990   44.7860 C   0  0  0  0  0  0  0  0  0  0  0  0
   57.1070   30.4370   44.5400 C   0  0  0  0  0  0  0  0  0  0  0  0
   56.7430   30.1250   43.3750 O   0  0  0  0  0  0  0  0  0  0  0  0
   56.8230   29.5590   45.6400 N   0  0  0  0  0  0  0  0  0  0  0  0
   57.4330   28.2870   45.8990 C   0  0  0  0  0  0  0  0  0  0  0  0
   58.7420   28.1750   46.4010 C   0  0  0  0  0  0  0  0  0  0  0  0
   59.3040   26.9140   46.6180 C   0  0  0  0  0  0  0  0  0  0  0  0
   58.5730   25.7590   46.3290 C   0  0  0  0  0  0  0  0  0  0  0  0
   57.2750   25.8590   45.8120 C   0  0  0  0  0  0  0  0  0  0  0  0
   56.3500   24.4010   45.4510 S   0  0  0  0  0  0  0  0  0  0  0  0
   55.1410   24.3500   46.3440 O   0  0  0  0  0  0  0  0  0  0  0  0
   55.8660   24.4760   44.0300 O   0  0  0  0  0  0  0  0  0  0  0  0
   57.2900   22.9380   45.6650 N   0  0  0  0  0  0  0  0  0  0  0  0
   58.1420   22.6360   44.4990 C   0  0  0  0  0  0  0  0  0  0  0  0
   57.3840   21.9050   43.3670 C   0  0  0  0  0  0  0  0  0  0  0  0
   56.0830   21.4950   43.7400 O   0  0  0  0  0  0  0  0  0  0  0  0
   56.1350   20.8150   44.9720 C   0  0  0  0  0  0  0  0  0  0  0  0
   56.4710   21.7900   46.1120 C   0  0  0  0  0  0  0  0  0  0  0  0
   56.7170   27.1250   45.5850 C   0  0  0  0  0  0  0  0  0  0  0  0
   56.8716   31.7696   42.2702 H   0  0  0  0  0  0  0  0  0  0  0  0
   57.6074   33.3429   41.8118 H   0  0  0  0  0  0  0  0  0  0  0  0
   58.6066   31.8502   41.8118 H   0  0  0  0  0  0  0  0  0  0  0  0
   59.0504   34.5510   43.2887 H   0  0  0  0  0  0  0  0  0  0  0  0
   59.7538   35.0153   45.6265 H   0  0  0  0  0  0  0  0  0  0  0  0
   61.6376   35.0480   48.2532 H   0  0  0  0  0  0  0  0  0  0  0  0
   61.8628   34.3324   49.8618 H   0  0  0  0  0  0  0  0  0  0  0  0
   63.8910   34.6360   47.9584 H   0  0  0  0  0  0  0  0  0  0  0  0
   63.9687   33.4661   49.2804 H   0  0  0  0  0  0  0  0  0  0  0  0
   63.7253   32.9293   46.4361 H   0  0  0  0  0  0  0  0  0  0  0  0
   63.7490   31.7256   47.7286 H   0  0  0  0  0  0  0  0  0  0  0  0
   61.4130   32.9657   46.2919 H   0  0  0  0  0  0  0  0  0  0  0  0
   61.5086   31.3780   47.0761 H   0  0  0  0  0  0  0  0  0  0  0  0
   58.0397   31.2624   46.9050 H   0  0  0  0  0  0  0  0  0  0  0  0
   59.3244   29.0814   46.6232 H   0  0  0  0  0  0  0  0  0  0  0  0
   60.3254   26.8305   47.0177 H   0  0  0  0  0  0  0  0  0  0  0  0
   59.0177   24.7689   46.5078 H   0  0  0  0  0  0  0  0  0  0  0  0
   58.5386   23.5816   44.1009 H   0  0  0  0  0  0  0  0  0  0  0  0
   58.9434   21.9657   44.8432 H   0  0  0  0  0  0  0  0  0  0  0  0
   57.3026   22.5844   42.5057 H   0  0  0  0  0  0  0  0  0  0  0  0
   57.9555   20.9967   43.1254 H   0  0  0  0  0  0  0  0  0  0  0  0
   55.1582   20.3496   45.1700 H   0  0  0  0  0  0  0  0  0  0  0  0
   56.9188   20.0449   44.9202 H   0  0  0  0  0  0  0  0  0  0  0  0
   55.5306   22.1732   46.5347 H   0  0  0  0  0  0  0  0  0  0  0  0
   57.0592   21.2355   46.8580 H   0  0  0  0  0  0  0  0  0  0  0  0
   55.7073   27.2064   45.1562 H   0  0  0  0  0  0  0  0  0  0  0  0
  1  2  1  0
  2  3  2  0
  3  4  1  0
  4  5  2  0
  5  6  1  0
  6  7  2  0
  6  8  2  0
  6  9  1  0
  9 10  1  0
 10 11  1  0
 11 12  1  0
 12 13  1  0
  5 14  1  0
 14 15  2  0
 15 16  1  0
 16 17  2  0
 16 18  1  0
 18 19  1  0
 19 20  2  0
 20 21  1  0
 21 22  2  0
 22 23  1  0
 23 24  1  0
 24 25  2  0
 24 26  2  0
 24 27  1  0
 27 28  1  0
 28 29  1  0
 29 30  1  0
 30 31  1  0
 31 32  1  0
 23 33  2  0
 15  2  1  0
 33 19  1  0
 13  9  1  0
 32 27  1  0
  1 34  1  0
  1 35  1  0
  1 36  1  0
  3 37  1  0
  4 38  1  0
 10 39  1  0
 10 40  1  0
 11 41  1  0
 11 42  1  0
 12 43  1  0
 12 44  1  0
 13 45  1  0
 13 46  1  0
 14 47  1  0
 20 48  1  0
 21 49  1  0
 22 50  1  0
 28 51  1  0
 28 52  1  0
 29 53  1  0
 29 54  1  0
 31 55  1  0
 31 56  1  0
 32 57  1  0
 32 58  1  0
 33 59  1  0
M  CHG  1  18  -1
M  END
>  <UniqueID>  (20) 
18

>  <SMILES>  (20) 
Cc1ccc(S(=O)(=O)N2CCCC2)cc1C(=O)[N-]c1cccc(S(=O)(=O)N2CCOCC2)c1

>  <Energy>  (20) 
80.25792902864167

>  <Genealogy>  (20) 
Cc1ccc(S(=O)(=O)N2CCCC2)cc1C(=O)[N-]c1cccc(S(=O)(=O)N2CCOCC2)c1 (protonated)
Cc1ccc(S(=O)(=O)N2CCCC2)cc1C(=O)[N-]c1cccc(S(=O)(=O)N2CCOCC2)c1 (3D coordinates assigned)
Cc1ccc(S(=O)(=O)N2CCCC2)cc1C(=O)[N-]c1cccc(S(=O)(=O)N2CCOCC2)c1 (nonaromatic ring conformer: 80.25792902864167 kcal/mol)

>  <smiles>  (20) 
Cc1ccc(S(=O)(=O)N2CCCC2)cc1C(=O)Nc1cccc(S(=O)(=O)N2CCOCC2)c1

>  <score_type>  (20) 
oracle

>  <origin>  (20) 
adg

>  <m_score__min__energy>  (20) 
-12.6

>  <m_primary>  (20) 
energy

$$$$
20:0
     RDKit          3D

 56 59  0  0  0  0  0  0  0  0999 V2000
   54.7590   26.1590   46.0050 N   0  0  0  0  0  0  0  0  0  0  0  0
   56.3710   25.5370   46.0720 S   0  0  0  0  0  0  0  0  0  0  0  0
   56.4610   24.3000   45.2220 O   0  0  0  0  0  0  0  0  0  0  0  0
   56.7160   25.1790   47.4890 O   0  0  0  0  0  0  0  0  0  0  0  0
   57.4910   26.7630   45.4880 C   0  0  0  0  0  0  0  0  0  0  0  0
   58.0780   26.6190   44.2260 C   0  0  0  0  0  0  0  0  0  0  0  0
   58.9570   27.5920   43.7460 C   0  0  0  0  0  0  0  0  0  0  0  0
   59.2570   28.7140   44.5210 C   0  0  0  0  0  0  0  0  0  0  0  0
   58.6850   28.8720   45.7970 C   0  0  0  0  0  0  0  0  0  0  0  0
   58.9690   30.0740   46.6160 C   0  0  0  0  0  0  0  0  0  0  0  0
   58.3870   30.2280   47.7240 O   0  0  0  0  0  0  0  0  0  0  0  0
   59.8950   31.0750   46.1630 N   0  0  0  0  0  0  0  0  0  0  0  0
   59.8140   32.4480   46.5790 C   0  0  0  0  0  0  0  0  0  0  0  0
   59.3390   33.4030   45.6670 C   0  0  0  0  0  0  0  0  0  0  0  0
   59.2460   34.7470   46.0310 C   0  0  0  0  0  0  0  0  0  0  0  0
   59.6190   35.1520   47.3150 C   0  0  0  0  0  0  0  0  0  0  0  0
   60.0650   34.2100   48.2440 C   0  0  0  0  0  0  0  0  0  0  0  0
   60.1670   32.8530   47.8910 C   0  0  0  0  0  0  0  0  0  0  0  0
   60.5270   31.8640   48.9300 C   0  0  0  0  0  0  0  0  0  0  0  0
   61.6550   31.3010   48.8540 O   0  0  0  0  0  0  0  0  0  0  0  0
   59.6340   31.5420   50.0210 N   0  0  0  0  0  0  0  0  0  0  0  0
   59.9960   30.4590   50.9520 C   0  0  0  0  0  0  0  0  0  0  0  0
   58.7410   29.7610   51.4950 C   0  0  0  0  0  0  0  0  0  0  0  0
   57.7050   30.7250   51.8920 N   0  0  0  0  0  0  0  0  0  0  0  0
   56.4260   30.2470   52.3510 C   0  0  0  0  0  0  0  0  0  0  0  0
   56.3420   29.1010   53.1590 C   0  0  0  0  0  0  0  0  0  0  0  0
   55.0990   28.6350   53.5980 C   0  0  0  0  0  0  0  0  0  0  0  0
   53.9320   29.3080   53.2340 C   0  0  0  0  0  0  0  0  0  0  0  0
   54.0040   30.4500   52.4320 C   0  0  0  0  0  0  0  0  0  0  0  0
   55.2440   30.9160   51.9850 C   0  0  0  0  0  0  0  0  0  0  0  0
   57.9590   32.1630   51.7480 C   0  0  0  0  0  0  0  0  0  0  0  0
   58.5150   32.4450   50.3510 C   0  0  0  0  0  0  0  0  0  0  0  0
   57.7960   27.8870   46.2720 C   0  0  0  0  0  0  0  0  0  0  0  0
   54.7670   27.0840   46.4910 H   0  0  0  0  0  0  0  0  0  0  0  0
   57.8464   25.7372   43.6106 H   0  0  0  0  0  0  0  0  0  0  0  0
   59.4151   27.4740   42.7529 H   0  0  0  0  0  0  0  0  0  0  0  0
   59.9447   29.4792   44.1317 H   0  0  0  0  0  0  0  0  0  0  0  0
   60.7550   30.7600   45.6590 H   0  0  0  0  0  0  0  0  0  0  0  0
   59.0374   33.0895   44.6567 H   0  0  0  0  0  0  0  0  0  0  0  0
   58.8786   35.4883   45.3061 H   0  0  0  0  0  0  0  0  0  0  0  0
   59.5612   36.2144   47.5944 H   0  0  0  0  0  0  0  0  0  0  0  0
   60.3386   34.5320   49.2596 H   0  0  0  0  0  0  0  0  0  0  0  0
   60.6176   29.7218   50.4227 H   0  0  0  0  0  0  0  0  0  0  0  0
   60.5504   30.8928   51.7973 H   0  0  0  0  0  0  0  0  0  0  0  0
   58.3336   29.1033   50.7130 H   0  0  0  0  0  0  0  0  0  0  0  0
   59.0303   29.1856   52.3867 H   0  0  0  0  0  0  0  0  0  0  0  0
   57.2593   28.5672   53.4480 H   0  0  0  0  0  0  0  0  0  0  0  0
   55.0410   27.7371   54.2308 H   0  0  0  0  0  0  0  0  0  0  0  0
   52.9547   28.9392   53.5787 H   0  0  0  0  0  0  0  0  0  0  0  0
   53.0835   30.9832   52.1519 H   0  0  0  0  0  0  0  0  0  0  0  0
   55.2955   31.8090   51.3448 H   0  0  0  0  0  0  0  0  0  0  0  0
   57.0191   32.7172   51.8873 H   0  0  0  0  0  0  0  0  0  0  0  0
   58.6895   32.4840   52.5052 H   0  0  0  0  0  0  0  0  0  0  0  0
   57.7125   32.3043   49.6120 H   0  0  0  0  0  0  0  0  0  0  0  0
   58.8893   33.4792   50.3312 H   0  0  0  0  0  0  0  0  0  0  0  0
   57.3372   27.9998   47.2654 H   0  0  0  0  0  0  0  0  0  0  0  0
  1  2  1  0
  2  3  2  0
  2  4  2  0
  2  5  1  0
  5  6  2  0
  6  7  1  0
  7  8  2  0
  8  9  1  0
  9 10  1  0
 10 11  2  0
 10 12  1  0
 12 13  1  0
 13 14  2  0
 14 15  1  0
 15 16  2  0
 16 17  1  0
 17 18  2  0
 18 19  1  0
 19 20  2  0
 19 21  1  0
 21 22  1  0
 22 23  1  0
 23 24  1  0
 24 25  1  0
 25 26  2  0
 26 27  1  0
 27 28  2  0
 28 29  1  0
 29 30  2  0
 24 31  1  0
 31 32  1  0
  9 33  2  0
 33  5  1  0
 18 13  1  0
 32 21  1  0
 30 25  1  0
  1 34  1  0
  6 35  1  0
  7 36  1  0
  8 37  1  0
 12 38  1  0
 14 39  1  0
 15 40  1  0
 16 41  1  0
 17 42  1  0
 22 43  1  0
 22 44  1  0
 23 45  1  0
 23 46  1  0
 26 47  1  0
 27 48  1  0
 28 49  1  0
 29 50  1  0
 30 51  1  0
 31 52  1  0
 31 53  1  0
 32 54  1  0
 32 55  1  0
 33 56  1  0
M  CHG  1   1  -1
M  END
>  <UniqueID>  (21) 
19

>  <SMILES>  (21) 
[NH-]S(=O)(=O)c1cccc(C(=O)Nc2ccccc2C(=O)N2CCN(c3ccccc3)CC2)c1

>  <Energy>  (21) 
77.35776141640093

>  <Genealogy>  (21) 
[NH-]S(=O)(=O)c1cccc(C(=O)Nc2ccccc2C(=O)N2CCN(c3ccccc3)CC2)c1 (protonated)
[NH-]S(=O)(=O)c1cccc(C(=O)Nc2ccccc2C(=O)N2CCN(c3ccccc3)CC2)c1 (3D coordinates assigned)
[NH-]S(=O)(=O)c1cccc(C(=O)Nc2ccccc2C(=O)N2CCN(c3ccccc3)CC2)c1 (nonaromatic ring conformer: 77.35776141640093 kcal/mol)

>  <smiles>  (21) 
NS(=O)(=O)c1cccc(C(=O)Nc2ccccc2C(=O)N2CCN(c3ccccc3)CC2)c1

>  <score_type>  (21) 
oracle

>  <origin>  (21) 
adg

>  <m_score__min__energy>  (21) 
-13.16

>  <m_primary>  (21) 
energy

$$$$
21:0
     RDKit          3D

 33 34  0  0  0  0  0  0  0  0999 V2000
   60.8850   29.8200   46.1560 C   0  0  0  0  0  0  0  0  0  0  0  0
   59.9100   29.6940   47.3240 C   0  0  2  0  0  0  0  0  0  0  0  0
   59.2540   28.4290   47.2560 O   0  0  0  0  0  0  0  0  0  0  0  0
   58.6430   27.9360   46.0950 C   0  0  0  0  0  0  0  0  0  0  0  0
   58.9610   28.4110   44.9700 O   0  0  0  0  0  0  0  0  0  0  0  0
   57.6240   26.8610   46.2010 C   0  0  0  0  0  0  0  0  0  0  0  0
   57.9840   25.6170   46.7500 C   0  0  0  0  0  0  0  0  0  0  0  0
   57.0430   24.5930   46.8570 C   0  0  0  0  0  0  0  0  0  0  0  0
   55.7410   24.8130   46.4150 C   0  0  0  0  0  0  0  0  0  0  0  0
   55.3960   26.0150   45.8840 N   0  0  0  0  0  0  0  0  0  0  0  0
   56.2900   27.0340   45.7650 C   0  0  0  0  0  0  0  0  0  0  0  0
   55.9060   28.1240   45.2640 O   0  0  0  0  0  0  0  0  0  0  0  0
   58.9030   30.8070   47.2790 C   0  0  0  0  0  0  0  0  0  0  0  0
   59.0910   31.8530   47.9610 O   0  0  0  0  0  0  0  0  0  0  0  0
   57.8010   30.7280   46.3680 N   0  0  0  0  0  0  0  0  0  0  0  0
   57.6950   31.1760   45.1440 C   0  0  0  0  0  0  0  0  0  0  0  0
   57.2740   30.2950   44.1870 N   0  0  0  0  0  0  0  0  0  0  0  0
   57.1820   30.6310   42.8740 C   0  0  0  0  0  0  0  0  0  0  0  0
   57.4970   31.9210   42.4580 C   0  0  0  0  0  0  0  0  0  0  0  0
   57.3760   32.3610   40.7630 Cl  0  0  0  0  0  0  0  0  0  0  0  0
   57.8770   32.8660   43.4060 C   0  0  0  0  0  0  0  0  0  0  0  0
   57.9670   32.5210   44.7580 C   0  0  0  0  0  0  0  0  0  0  0  0
   58.2180   33.8600   45.8780 Cl  0  0  0  0  0  0  0  0  0  0  0  0
   61.9061   29.9520   46.5433 H   0  0  0  0  0  0  0  0  0  0  0  0
   60.8408   28.9087   45.5416 H   0  0  0  0  0  0  0  0  0  0  0  0
   60.6106   30.6902   45.5416 H   0  0  0  0  0  0  0  0  0  0  0  0
   60.4633   29.7649   48.2721 H   0  0  0  0  0  0  0  0  0  0  0  0
   59.0144   25.4506   47.0972 H   0  0  0  0  0  0  0  0  0  0  0  0
   57.3267   23.6209   47.2865 H   0  0  0  0  0  0  0  0  0  0  0  0
   54.9908   24.0126   46.4959 H   0  0  0  0  0  0  0  0  0  0  0  0
   57.0410   29.3130   44.4600 H   0  0  0  0  0  0  0  0  0  0  0  0
   56.8575   29.8812   42.1375 H   0  0  0  0  0  0  0  0  0  0  0  0
   58.1086   33.8935   43.0890 H   0  0  0  0  0  0  0  0  0  0  0  0
  1  2  1  0
  2  3  1  0
  3  4  1  0
  4  5  2  0
  4  6  1  0
  6  7  2  0
  7  8  1  0
  8  9  2  0
  9 10  1  0
 10 11  1  0
 11 12  2  0
  2 13  1  0
 13 14  2  0
 13 15  1  0
 15 16  2  3
 16 17  1  0
 17 18  1  0
 18 19  2  0
 19 20  1  0
 19 21  1  0
 21 22  2  0
 22 23  1  0
 11  6  1  0
 22 16  1  0
  1 24  1  0
  1 25  1  0
  1 26  1  0
  2 27  1  1
  7 28  1  0
  8 29  1  0
  9 30  1  0
 17 31  1  0
 18 32  1  0
 21 33  1  0
M  CHG  1  10  -1
M  END
>  <UniqueID>  (22) 
20

>  <SMILES>  (22) 
C[C@H](OC(=O)c1ccc[n-]c1=O)C(=O)N=c1[nH]cc(Cl)cc1Cl

>  <Energy>  (22) 
47.991086585143

>  <Genealogy>  (22) 
CC(OC(=O)c1ccc[n-]c1=O)C(=O)N=c1[nH]cc(Cl)cc1Cl (protonated)
C[C@H](OC(=O)c1ccc[n-]c1=O)C(=O)N=c1[nH]cc(Cl)cc1Cl (chirality)
C[C@H](OC(=O)c1ccc[n-]c1=O)C(=O)N=c1[nH]cc(Cl)cc1Cl (3D coordinates assigned)
C[C@H](OC(=O)c1ccc[n-]c1=O)C(=O)N=c1[nH]cc(Cl)cc1Cl (optimized conformer: 47.991086585143 kcal/mol)

>  <smiles>  (22) 
CC(OC(=O)c1ccc[nH]c1=O)C(=O)N=c1[nH]cc(Cl)cc1Cl

>  <score_type>  (22) 
oracle

>  <origin>  (22) 
adg

>  <m_score__min__energy>  (22) 
-10.050000000000001

>  <m_primary>  (22) 
energy

$$$$
22:0
     RDKit          3D

 71 75  0  0  0  0  0  0  0  0999 V2000
   57.5312   29.2257   42.7150 H   0  0  0  0  0  0  0  0  0  0  0  0
   57.7640   28.7320   43.6700 C   0  0  0  0  0  0  0  0  0  0  0  0
   57.8477   27.6362   43.7166 H   0  0  0  0  0  0  0  0  0  0  0  0
   57.9460   29.4670   44.7790 C   0  0  0  0  0  0  0  0  0  0  0  0
   58.2470   28.9930   46.0670 C   0  0  0  0  0  0  0  0  0  0  0  0
   58.2170   27.7500   46.5830 C   0  0  0  0  0  0  0  0  0  0  0  0
   59.1390   27.3813   47.0563 H   0  0  0  0  0  0  0  0  0  0  0  0
   57.0590   26.8400   46.5700 C   0  0  0  0  0  0  0  0  0  0  0  0
   57.0800   25.5640   47.0010 N   0  0  0  0  0  0  0  0  0  0  0  0
   55.8840   25.0800   46.6060 C   0  0  0  0  0  0  0  0  0  0  0  0
   55.5200   23.8980   46.8440 O   0  0  0  0  0  0  0  0  0  0  0  0
   55.1180   25.9550   45.9200 N   0  0  0  0  0  0  0  0  0  0  0  0
   55.8840   27.0580   45.8940 C   0  0  0  0  0  0  0  0  0  0  0  0
   55.5210   28.2380   45.2550 O   0  0  0  0  0  0  0  0  0  0  0  0
   58.5840   30.1050   46.8190 C   0  0  0  0  0  0  0  0  0  0  0  0
   58.9198   30.1109   47.8665 H   0  0  0  0  0  0  0  0  0  0  0  0
   58.4180   31.2040   46.0030 C   0  0  0  0  0  0  0  0  0  0  0  0
   58.6130   32.5980   46.4370 C   0  0  0  0  0  0  0  0  0  0  0  0
   57.5940   33.2770   46.7410 O   0  0  0  0  0  0  0  0  0  0  0  0
   59.9340   33.1830   46.5260 N   0  0  0  0  0  0  0  0  0  0  0  0
   61.1130   32.3350   46.7450 C   0  0  0  0  0  0  0  0  0  0  0  0
   60.9006   31.3141   46.3949 H   0  0  0  0  0  0  0  0  0  0  0  0
   61.9678   32.7436   46.1861 H   0  0  0  0  0  0  0  0  0  0  0  0
   61.4500   32.3030   48.2490 C   0  0  0  0  0  0  0  0  0  0  0  0
   61.3085   31.2796   48.6267 H   0  0  0  0  0  0  0  0  0  0  0  0
   62.4942   32.6234   48.3788 H   0  0  0  0  0  0  0  0  0  0  0  0
   60.5770   33.2260   49.0140 N   0  0  0  0  0  0  0  0  0  0  0  0
   60.9160   33.2210   50.4500 C   0  0  0  0  0  0  0  0  0  0  0  0
   60.8075   34.2368   50.8579 H   0  0  0  0  0  0  0  0  0  0  0  0
   60.2397   32.5410   50.9887 H   0  0  0  0  0  0  0  0  0  0  0  0
   62.3380   32.7600   50.6170 C   0  0  0  0  0  0  0  0  0  0  0  0
   63.4130   33.5890   50.2600 C   0  0  0  0  0  0  0  0  0  0  0  0
   63.2229   34.6175   49.9195 H   0  0  0  0  0  0  0  0  0  0  0  0
   64.7250   33.1110   50.3360 C   0  0  0  0  0  0  0  0  0  0  0  0
   65.5637   33.7645   50.0540 H   0  0  0  0  0  0  0  0  0  0  0  0
   64.9740   31.8060   50.7690 C   0  0  0  0  0  0  0  0  0  0  0  0
   66.0075   31.4324   50.8157 H   0  0  0  0  0  0  0  0  0  0  0  0
   63.9100   30.9690   51.1450 C   0  0  0  0  0  0  0  0  0  0  0  0
   64.1670   29.5780   51.5680 C   0  0  0  0  0  0  0  0  0  0  0  0
   63.2080   28.7550   51.5880 O   0  0  0  0  0  0  0  0  0  0  0  0
   65.4840   29.1440   51.9660 N   0  0  0  0  0  0  0  0  0  0  0  0
   66.6700   29.6030   51.2310 C   0  0  0  0  0  0  0  0  0  0  0  0
   66.4568   29.5797   50.1521 H   0  0  0  0  0  0  0  0  0  0  0  0
   66.9089   30.6275   51.5525 H   0  0  0  0  0  0  0  0  0  0  0  0
   67.8780   28.7010   51.5250 C   0  0  0  0  0  0  0  0  0  0  0  0
   68.6409   28.8630   50.7493 H   0  0  0  0  0  0  0  0  0  0  0  0
   68.2662   28.9619   52.5206 H   0  0  0  0  0  0  0  0  0  0  0  0
   67.5030   27.2700   51.5370 N   0  0  0  0  0  0  0  0  0  0  0  0
   67.1620   26.7820   50.1890 C   0  0  0  0  0  0  0  0  0  0  0  0
   66.5338   25.8829   50.2726 H   0  0  0  0  0  0  0  0  0  0  0  0
   66.6126   27.5638   49.6441 H   0  0  0  0  0  0  0  0  0  0  0  0
   68.0851   26.5350   49.6441 H   0  0  0  0  0  0  0  0  0  0  0  0
   66.4440   26.9390   52.5290 C   0  0  0  0  0  0  0  0  0  0  0  0
   65.7363   26.2405   52.0586 H   0  0  0  0  0  0  0  0  0  0  0  0
   66.9526   26.5051   53.4026 H   0  0  0  0  0  0  0  0  0  0  0  0
   65.6530   28.1600   53.0370 C   0  0  0  0  0  0  0  0  0  0  0  0
   64.6630   27.8305   53.3852 H   0  0  0  0  0  0  0  0  0  0  0  0
   66.2102   28.6259   53.8631 H   0  0  0  0  0  0  0  0  0  0  0  0
   62.5940   31.4500   51.0510 C   0  0  0  0  0  0  0  0  0  0  0  0
   61.7542   30.7926   51.3206 H   0  0  0  0  0  0  0  0  0  0  0  0
   60.6110   34.5860   48.4390 C   0  0  0  0  0  0  0  0  0  0  0  0
   59.9703   35.2488   49.0391 H   0  0  0  0  0  0  0  0  0  0  0  0
   61.6488   34.9505   48.4490 H   0  0  0  0  0  0  0  0  0  0  0  0
   60.1010   34.5700   46.9800 C   0  0  0  0  0  0  0  0  0  0  0  0
   59.1337   35.0909   46.9256 H   0  0  0  0  0  0  0  0  0  0  0  0
   60.8325   35.0778   46.3342 H   0  0  0  0  0  0  0  0  0  0  0  0
   58.0140   30.8230   44.7690 N   0  0  0  0  0  0  0  0  0  0  0  0
   57.7560   31.7130   43.6290 C   0  0  0  0  0  0  0  0  0  0  0  0
   57.4675   32.7081   43.9986 H   0  0  0  0  0  0  0  0  0  0  0  0
   58.6663   31.7987   43.0174 H   0  0  0  0  0  0  0  0  0  0  0  0
   56.9410   31.2986   43.0174 H   0  0  0  0  0  0  0  0  0  0  0  0
  1  2  1  0
  2  3  1  0
  2  4  2  0
  4  5  1  0
  5  6  2  0
  6  7  1  0
  6  8  1  0
  8  9  1  0
  9 10  1  0
 10 11  2  0
 10 12  1  0
 12 13  1  0
 13 14  1  0
  5 15  1  0
 15 16  1  0
 15 17  2  0
 17 18  1  0
 18 19  2  0
 18 20  1  0
 20 21  1  0
 21 22  1  0
 21 23  1  0
 21 24  1  0
 24 25  1  0
 24 26  1  0
 24 27  1  0
 27 28  1  0
 28 29  1  0
 28 30  1  0
 28 31  1  0
 31 32  2  0
 32 33  1  0
 32 34  1  0
 34 35  1  0
 34 36  2  0
 36 37  1  0
 36 38  1  0
 38 39  1  0
 39 40  2  0
 39 41  1  0
 41 42  1  0
 42 43  1  0
 42 44  1  0
 42 45  1  0
 45 46  1  0
 45 47  1  0
 45 48  1  0
 48 49  1  0
 49 50  1  0
 49 51  1  0
 49 52  1  0
 48 53  1  0
 53 54  1  0
 53 55  1  0
 53 56  1  0
 56 57  1  0
 56 58  1  0
 38 59  2  0
 59 60  1  0
 27 61  1  0
 61 62  1  0
 61 63  1  0
 61 64  1  0
 64 65  1  0
 64 66  1  0
 17 67  1  0
 67 68  1  0
 68 69  1  0
 68 70  1  0
 68 71  1  0
 67  4  1  0
 13  8  2  0
 64 20  1  0
 59 31  1  0
 56 41  1  0
M  CHG  3   9  -1  12  -1  14  -1
M  END
>  <UniqueID>  (23) 
21

>  <SMILES>  (23) 
C=c1/c(=C\c2[n-]c(=O)[n-]c2[O-])cc(C(=O)N2CCN(Cc3cccc(C(=O)N4CCN(C)CC4)c3)CC2)n1C

>  <Energy>  (23) 
170.24600757993298

>  <Genealogy>  (23) 
C=c1c(=Cc2[n-]c(=O)[n-]c2[O-])cc(C(=O)N2CCN(Cc3cccc(C(=O)N4CCN(C)CC4)c3)CC2)n1C (protonated)
C=c1/c(=C\c2[n-]c(=O)[n-]c2[O-])cc(C(=O)N2CCN(Cc3cccc(C(=O)N4CCN(C)CC4)c3)CC2)n1C (cis-trans isomerization)
C=c1/c(=C\c2[n-]c(=O)[n-]c2[O-])cc(C(=O)N2CCN(Cc3cccc(C(=O)N4CCN(C)CC4)c3)CC2)n1C (3D coordinates assigned)
C=c1/c(=C\c2[n-]c(=O)[n-]c2[O-])cc(C(=O)N2CCN(Cc3cccc(C(=O)N4CCN(C)CC4)c3)CC2)n1C (nonaromatic ring conformer: 170.24600757993298 kcal/mol)

>  <smiles>  (23) 
C=c1c(=Cc2[nH]c(=O)[nH]c2O)cc(C(=O)N2CCN(Cc3cccc(C(=O)N4CCN(C)CC4)c3)CC2)n1C

>  <score_type>  (23) 
oracle

>  <origin>  (23) 
adg

>  <m_score__min__energy>  (23) 
-17.84

>  <m_primary>  (23) 
energy

$$$$
23:0
     RDKit          3D

 42 44  0  0  0  0  0  0  0  0999 V2000
   55.3600   29.2720   44.8530 N   0  0  0  0  0  0  0  0  0  0  0  0
   57.0730   29.5160   44.8640 S   0  0  0  0  0  0  0  0  0  0  0  0
   57.5140   29.9670   43.5000 O   0  0  0  0  0  0  0  0  0  0  0  0
   57.3910   30.5810   45.8760 O   0  0  0  0  0  0  0  0  0  0  0  0
   57.9010   28.0090   45.2870 C   0  0  0  0  0  0  0  0  0  0  0  0
   57.5910   26.8410   44.5710 C   0  0  0  0  0  0  0  0  0  0  0  0
   58.1940   25.6250   44.8970 C   0  0  0  0  0  0  0  0  0  0  0  0
   59.1160   25.5590   45.9420 C   0  0  0  0  0  0  0  0  0  0  0  0
   59.4450   26.7120   46.6580 C   0  0  0  0  0  0  0  0  0  0  0  0
   58.8530   27.9440   46.3360 C   0  0  0  0  0  0  0  0  0  0  0  0
   59.2580   29.1420   47.1030 C   0  0  0  0  0  0  0  0  0  0  0  0
   58.5190   29.5440   48.2160 C   0  0  0  0  0  0  0  0  0  0  0  0
   58.9100   30.6750   48.9340 C   0  0  0  0  0  0  0  0  0  0  0  0
   58.2420   31.0250   49.9450 O   0  0  0  0  0  0  0  0  0  0  0  0
   60.0120   31.3840   48.5330 N   0  0  0  0  0  0  0  0  0  0  0  0
   60.4790   32.5720   49.2600 C   0  0  0  0  0  0  0  0  0  0  0  0
   59.4910   33.5840   49.2380 O   0  0  0  0  0  0  0  0  0  0  0  0
   59.7670   34.5380   48.2290 C   0  0  0  0  0  0  0  0  0  0  0  0
   59.1460   34.1250   46.9210 C   0  0  0  0  0  0  0  0  0  0  0  0
   59.8870   34.1850   45.7290 C   0  0  0  0  0  0  0  0  0  0  0  0
   59.2980   33.8150   44.5150 C   0  0  0  0  0  0  0  0  0  0  0  0
   57.9680   33.3870   44.4840 C   0  0  0  0  0  0  0  0  0  0  0  0
   57.3980   33.0310   43.3060 F   0  0  0  0  0  0  0  0  0  0  0  0
   57.2240   33.3300   45.6660 C   0  0  0  0  0  0  0  0  0  0  0  0
   57.8100   33.6990   46.8810 C   0  0  0  0  0  0  0  0  0  0  0  0
   60.7070   31.0000   47.4580 N   0  0  0  0  0  0  0  0  0  0  0  0
   60.3690   29.9070   46.7260 C   0  0  0  0  0  0  0  0  0  0  0  0
   61.0640   29.5900   45.7250 O   0  0  0  0  0  0  0  0  0  0  0  0
   55.1440   28.5930   45.6170 H   0  0  0  0  0  0  0  0  0  0  0  0
   56.8658   26.8850   43.7451 H   0  0  0  0  0  0  0  0  0  0  0  0
   57.9418   24.7173   44.3291 H   0  0  0  0  0  0  0  0  0  0  0  0
   59.5841   24.5982   46.2021 H   0  0  0  0  0  0  0  0  0  0  0  0
   60.1733   26.6547   47.4804 H   0  0  0  0  0  0  0  0  0  0  0  0
   57.6321   28.9720   48.5262 H   0  0  0  0  0  0  0  0  0  0  0  0
   60.6933   32.2974   50.3034 H   0  0  0  0  0  0  0  0  0  0  0  0
   61.3898   32.9522   48.7743 H   0  0  0  0  0  0  0  0  0  0  0  0
   59.3565   35.5126   48.5317 H   0  0  0  0  0  0  0  0  0  0  0  0
   60.8568   34.6071   48.0966 H   0  0  0  0  0  0  0  0  0  0  0  0
   60.9333   34.5239   45.7501 H   0  0  0  0  0  0  0  0  0  0  0  0
   59.8823   33.8610   43.5842 H   0  0  0  0  0  0  0  0  0  0  0  0
   56.1767   32.9946   45.6405 H   0  0  0  0  0  0  0  0  0  0  0  0
   57.2210   33.6550   47.8090 H   0  0  0  0  0  0  0  0  0  0  0  0
  1  2  1  0
  2  3  2  0
  2  4  2  0
  2  5  1  0
  5  6  2  0
  6  7  1  0
  7  8  2  0
  8  9  1  0
  9 10  2  0
 10 11  1  0
 11 12  2  0
 12 13  1  0
 13 14  2  0
 13 15  1  0
 15 16  1  0
 16 17  1  0
 17 18  1  0
 18 19  1  0
 19 20  2  0
 20 21  1  0
 21 22  2  0
 22 23  1  0
 22 24  1  0
 24 25  2  0
 15 26  1  0
 26 27  1  0
 27 28  2  0
 10  5  1  0
 27 11  1  0
 25 19  1  0
  1 29  1  0
  6 30  1  0
  7 31  1  0
  8 32  1  0
  9 33  1  0
 12 34  1  0
 16 35  1  0
 16 36  1  0
 18 37  1  0
 18 38  1  0
 20 39  1  0
 21 40  1  0
 24 41  1  0
 25 42  1  0
M  CHG  2   1  -1  26  -1
M  END
>  <UniqueID>  (24) 
22

>  <SMILES>  (24) 
[NH-]S(=O)(=O)c1ccccc1-c1cc(=O)n(COCc2ccc(F)cc2)[n-]c1=O

>  <Energy>  (24) 
58.41381750254521

>  <Genealogy>  (24) 
[NH-]S(=O)(=O)c1ccccc1-c1cc(=O)n(COCc2ccc(F)cc2)[n-]c1=O (protonated)
[NH-]S(=O)(=O)c1ccccc1-c1cc(=O)n(COCc2ccc(F)cc2)[n-]c1=O (3D coordinates assigned)
[NH-]S(=O)(=O)c1ccccc1-c1cc(=O)n(COCc2ccc(F)cc2)[n-]c1=O (optimized conformer: 58.41381750254521 kcal/mol)

>  <smiles>  (24) 
NS(=O)(=O)c1ccccc1-c1cc(=O)n(COCc2ccc(F)cc2)[nH]c1=O

>  <score_type>  (24) 
oracle

>  <origin>  (24) 
adg

>  <m_score__min__energy>  (24) 
-12.109999999999999

>  <m_primary>  (24) 
energy

$$$$
24:0
     RDKit          3D

 46 48  0  0  0  0  0  0  0  0999 V2000
   57.0950   27.5260   45.6050 C   0  0  0  0  0  0  0  0  0  0  0  0
   55.8760   28.2420   45.2650 N   0  0  0  0  0  0  0  0  0  0  0  0
   55.8950   29.5360   44.6630 C   0  0  0  0  0  0  0  0  0  0  0  0
   55.1820   29.7560   43.6480 O   0  0  0  0  0  0  0  0  0  0  0  0
   56.7010   30.5460   45.2030 O   0  0  0  0  0  0  0  0  0  0  0  0
   57.3950   31.5040   44.4070 C   0  0  0  0  0  0  0  0  0  0  0  0
   58.2970   32.3660   45.2610 C   0  0  0  0  0  0  0  0  0  0  0  0
   58.1270   33.7470   45.4030 C   0  0  0  0  0  0  0  0  0  0  0  0
   57.0730   34.5930   44.7630 C   0  0  0  0  0  0  0  0  0  0  0  0
   59.2710   34.3270   46.4860 S   0  0  0  0  0  0  0  0  0  0  0  0
   60.0290   32.8540   46.7780 C   0  0  0  0  0  0  0  0  0  0  0  0
   61.1960   32.6870   47.6720 C   0  0  0  0  0  0  0  0  0  0  0  0
   61.0030   32.3240   49.0160 C   0  0  0  0  0  0  0  0  0  0  0  0
   62.0990   32.1650   49.8690 C   0  0  0  0  0  0  0  0  0  0  0  0
   63.4000   32.3700   49.3920 C   0  0  0  0  0  0  0  0  0  0  0  0
   64.7770   32.1800   50.4710 S   0  0  0  0  0  0  0  0  0  0  0  0
   64.5840   33.2210   51.8360 N   0  0  0  0  0  0  0  0  0  0  0  0
   66.0460   32.5320   49.7460 O   0  0  0  0  0  0  0  0  0  0  0  0
   64.8670   30.7530   50.9350 O   0  0  0  0  0  0  0  0  0  0  0  0
   63.5960   32.7550   48.0600 C   0  0  0  0  0  0  0  0  0  0  0  0
   62.5020   32.9160   47.2060 C   0  0  0  0  0  0  0  0  0  0  0  0
   59.3780   31.8630   46.0270 C   0  0  0  0  0  0  0  0  0  0  0  0
   59.7160   30.4260   46.1170 C   0  0  0  0  0  0  0  0  0  0  0  0
   59.9950   29.6940   44.9520 C   0  0  0  0  0  0  0  0  0  0  0  0
   60.3040   28.3330   45.0320 C   0  0  0  0  0  0  0  0  0  0  0  0
   60.3420   27.6960   46.2750 C   0  0  0  0  0  0  0  0  0  0  0  0
   60.0630   28.4180   47.4390 C   0  0  0  0  0  0  0  0  0  0  0  0
   59.7480   29.7780   47.3630 C   0  0  0  0  0  0  0  0  0  0  0  0
   57.1933   27.4683   46.6991 H   0  0  0  0  0  0  0  0  0  0  0  0
   57.0521   26.5096   45.1866 H   0  0  0  0  0  0  0  0  0  0  0  0
   57.9618   28.0585   45.1866 H   0  0  0  0  0  0  0  0  0  0  0  0
   58.0047   30.9762   43.6588 H   0  0  0  0  0  0  0  0  0  0  0  0
   56.6554   32.1517   43.9137 H   0  0  0  0  0  0  0  0  0  0  0  0
   56.4684   35.0783   45.5434 H   0  0  0  0  0  0  0  0  0  0  0  0
   57.5498   35.3619   44.1374 H   0  0  0  0  0  0  0  0  0  0  0  0
   56.4254   33.9611   44.1374 H   0  0  0  0  0  0  0  0  0  0  0  0
   59.9842   32.1642   49.3987 H   0  0  0  0  0  0  0  0  0  0  0  0
   61.9392   31.8778   50.9188 H   0  0  0  0  0  0  0  0  0  0  0  0
   63.5920   33.1330   52.1500 H   0  0  0  0  0  0  0  0  0  0  0  0
   64.6149   32.9313   47.6847 H   0  0  0  0  0  0  0  0  0  0  0  0
   62.6639   33.2239   46.1624 H   0  0  0  0  0  0  0  0  0  0  0  0
   59.9704   30.1934   43.9722 H   0  0  0  0  0  0  0  0  0  0  0  0
   60.5174   27.7631   44.1157 H   0  0  0  0  0  0  0  0  0  0  0  0
   60.5914   26.6265   46.3376 H   0  0  0  0  0  0  0  0  0  0  0  0
   60.0914   27.9150   48.4169 H   0  0  0  0  0  0  0  0  0  0  0  0
   59.5248   30.3418   48.2808 H   0  0  0  0  0  0  0  0  0  0  0  0
  1  2  1  0
  2  3  1  0
  3  4  2  0
  3  5  1  0
  5  6  1  0
  6  7  1  0
  7  8  2  0
  8  9  1  0
  8 10  1  0
 10 11  1  0
 11 12  1  0
 12 13  2  0
 13 14  1  0
 14 15  2  0
 15 16  1  0
 16 17  1  0
 16 18  2  0
 16 19  2  0
 15 20  1  0
 20 21  2  0
 11 22  2  0
 22 23  1  0
 23 24  2  0
 24 25  1  0
 25 26  2  0
 26 27  1  0
 27 28  2  0
 22  7  1  0
 28 23  1  0
 21 12  1  0
  1 29  1  0
  1 30  1  0
  1 31  1  0
  6 32  1  0
  6 33  1  0
  9 34  1  0
  9 35  1  0
  9 36  1  0
 13 37  1  0
 14 38  1  0
 17 39  1  0
 20 40  1  0
 21 41  1  0
 24 42  1  0
 25 43  1  0
 26 44  1  0
 27 45  1  0
 28 46  1  0
M  CHG  2   2  -1  17  -1
M  END
>  <UniqueID>  (25) 
23

>  <SMILES>  (25) 
C[N-]C(=O)OCc1c(C)sc(-c2ccc(S([NH-])(=O)=O)cc2)c1-c1ccccc1

>  <Energy>  (25) 
76.42427631746935

>  <Genealogy>  (25) 
C[N-]C(=O)OCc1c(C)sc(-c2ccc(S([NH-])(=O)=O)cc2)c1-c1ccccc1 (protonated)
C[N-]C(=O)OCc1c(C)sc(-c2ccc(S([NH-])(=O)=O)cc2)c1-c1ccccc1 (3D coordinates assigned)
C[N-]C(=O)OCc1c(C)sc(-c2ccc(S([NH-])(=O)=O)cc2)c1-c1ccccc1 (optimized conformer: 76.42427631746935 kcal/mol)

>  <smiles>  (25) 
CNC(=O)OCc1c(C)sc(-c2ccc(S(N)(=O)=O)cc2)c1-c1ccccc1

>  <score_type>  (25) 
oracle

>  <origin>  (25) 
adg

>  <m_score__min__energy>  (25) 
-11.24

>  <m_primary>  (25) 
energy

$$$$
25:0
     RDKit          3D

 56 58  0  0  0  0  0  0  0  0999 V2000
   56.2490   20.4270   45.5380 C   0  0  0  0  0  0  0  0  0  0  0  0
   56.2920   21.7910   44.9180 C   0  0  0  0  0  0  0  0  0  0  0  0
   56.6410   21.9500   43.5700 C   0  0  0  0  0  0  0  0  0  0  0  0
   56.6370   23.2200   42.9870 C   0  0  0  0  0  0  0  0  0  0  0  0
   56.2830   24.3400   43.7440 C   0  0  0  0  0  0  0  0  0  0  0  0
   55.9300   24.1960   45.0920 C   0  0  0  0  0  0  0  0  0  0  0  0
   55.5160   25.3720   45.8810 C   0  0  0  0  0  0  0  0  0  0  0  0
   54.4030   25.9090   45.6460 O   0  0  0  0  0  0  0  0  0  0  0  0
   56.3420   25.9110   46.9200 N   0  0  0  0  0  0  0  0  0  0  0  0
   57.7230   25.5090   47.1600 C   0  0  0  0  0  0  0  0  0  0  0  0
   58.6130   25.9540   46.0010 C   0  0  0  0  0  0  0  0  0  0  0  0
   58.8920   27.4260   46.0500 C   0  0  0  0  0  0  0  0  0  0  0  0
   60.0800   27.8360   45.9300 O   0  0  0  0  0  0  0  0  0  0  0  0
   57.8250   28.3470   46.3140 N   0  0  0  0  0  0  0  0  0  0  0  0
   57.8820   29.7520   46.0100 C   0  0  0  0  0  0  0  0  0  0  0  0
   57.4160   30.2040   44.7710 C   0  0  0  0  0  0  0  0  0  0  0  0
   57.5020   31.5550   44.4360 C   0  0  0  0  0  0  0  0  0  0  0  0
   58.0640   32.4750   45.3250 C   0  0  0  0  0  0  0  0  0  0  0  0
   58.1440   34.1550   44.8090 Cl  0  0  0  0  0  0  0  0  0  0  0  0
   58.5560   32.0320   46.5720 C   0  0  0  0  0  0  0  0  0  0  0  0
   59.3180   33.1220   47.7460 S   0  0  0  0  0  0  0  0  0  0  0  0
   58.8550   34.5350   47.5360 O   0  0  0  0  0  0  0  0  0  0  0  0
   58.8890   32.7120   49.1270 O   0  0  0  0  0  0  0  0  0  0  0  0
   61.0620   33.0650   47.6550 N   0  0  0  0  0  0  0  0  0  0  0  0
   61.5320   33.7530   46.4360 C   0  0  0  0  0  0  0  0  0  0  0  0
   63.0740   33.8450   46.3780 C   0  0  0  0  0  0  0  0  0  0  0  0
   63.7410   33.0420   47.5000 C   0  0  0  0  0  0  0  0  0  0  0  0
   63.1880   33.4550   48.8720 C   0  0  0  0  0  0  0  0  0  0  0  0
   61.6610   33.6670   48.8560 C   0  0  0  0  0  0  0  0  0  0  0  0
   58.4640   30.6710   46.8990 C   0  0  0  0  0  0  0  0  0  0  0  0
   55.9160   22.9150   45.6690 C   0  0  0  0  0  0  0  0  0  0  0  0
   56.2520   20.5221   46.6339 H   0  0  0  0  0  0  0  0  0  0  0  0
   55.3340   19.9073   45.2176 H   0  0  0  0  0  0  0  0  0  0  0  0
   57.1294   19.8507   45.2176 H   0  0  0  0  0  0  0  0  0  0  0  0
   56.9191   21.0719   42.9687 H   0  0  0  0  0  0  0  0  0  0  0  0
   56.9134   23.3384   41.9289 H   0  0  0  0  0  0  0  0  0  0  0  0
   56.2815   25.3374   43.2801 H   0  0  0  0  0  0  0  0  0  0  0  0
   58.0798   25.9738   48.0909 H   0  0  0  0  0  0  0  0  0  0  0  0
   57.7673   24.4132   47.2453 H   0  0  0  0  0  0  0  0  0  0  0  0
   59.5667   25.4084   46.0540 H   0  0  0  0  0  0  0  0  0  0  0  0
   58.0859   25.7359   45.0604 H   0  0  0  0  0  0  0  0  0  0  0  0
   56.9490   27.9710   46.7470 H   0  0  0  0  0  0  0  0  0  0  0  0
   56.9794   29.4900   44.0571 H   0  0  0  0  0  0  0  0  0  0  0  0
   57.1237   31.8998   43.4623 H   0  0  0  0  0  0  0  0  0  0  0  0
   61.1765   33.1974   45.5557 H   0  0  0  0  0  0  0  0  0  0  0  0
   61.1319   34.7775   46.4497 H   0  0  0  0  0  0  0  0  0  0  0  0
   63.4167   33.4530   45.4090 H   0  0  0  0  0  0  0  0  0  0  0  0
   63.3557   34.9009   46.5030 H   0  0  0  0  0  0  0  0  0  0  0  0
   63.5470   31.9710   47.3409 H   0  0  0  0  0  0  0  0  0  0  0  0
   64.8223   33.2431   47.4816 H   0  0  0  0  0  0  0  0  0  0  0  0
   63.4266   32.6658   49.6002 H   0  0  0  0  0  0  0  0  0  0  0  0
   63.6547   34.4130   49.1448 H   0  0  0  0  0  0  0  0  0  0  0  0
   61.2228   33.1998   49.7503 H   0  0  0  0  0  0  0  0  0  0  0  0
   61.4554   34.7476   48.8484 H   0  0  0  0  0  0  0  0  0  0  0  0
   58.8532   30.3182   47.8655 H   0  0  0  0  0  0  0  0  0  0  0  0
   55.6078   22.7923   46.7178 H   0  0  0  0  0  0  0  0  0  0  0  0
  1  2  1  0
  2  3  2  0
  3  4  1  0
  4  5  2  0
  5  6  1  0
  6  7  1  0
  7  8  2  0
  7  9  1  0
  9 10  1  0
 10 11  1  0
 11 12  1  0
 12 13  2  0
 12 14  1  0
 14 15  1  0
 15 16  2  0
 16 17  1  0
 17 18  2  0
 18 19  1  0
 18 20  1  0
 20 21  1  0
 21 22  2  0
 21 23  2  0
 21 24  1  0
 24 25  1  0
 25 26  1  0
 26 27  1  0
 27 28  1  0
 28 29  1  0
 20 30  2  0
  6 31  2  0
 31  2  1  0
 30 15  1  0
 29 24  1  0
  1 32  1  0
  1 33  1  0
  1 34  1  0
  3 35  1  0
  4 36  1  0
  5 37  1  0
 10 38  1  0
 10 39  1  0
 11 40  1  0
 11 41  1  0
 14 42  1  0
 16 43  1  0
 17 44  1  0
 25 45  1  0
 25 46  1  0
 26 47  1  0
 26 48  1  0
 27 49  1  0
 27 50  1  0
 28 51  1  0
 28 52  1  0
 29 53  1  0
 29 54  1  0
 30 55  1  0
 31 56  1  0
M  CHG  1   9  -1
M  END
>  <UniqueID>  (26) 
24

>  <SMILES>  (26) 
Cc1cccc(C(=O)[N-]CCC(=O)Nc2ccc(Cl)c(S(=O)(=O)N3CCCCC3)c2)c1

>  <Energy>  (26) 
65.57957410362877

>  <Genealogy>  (26) 
Cc1cccc(C(=O)[N-]CCC(=O)Nc2ccc(Cl)c(S(=O)(=O)N3CCCCC3)c2)c1 (protonated)
Cc1cccc(C(=O)[N-]CCC(=O)Nc2ccc(Cl)c(S(=O)(=O)N3CCCCC3)c2)c1 (3D coordinates assigned)
Cc1cccc(C(=O)[N-]CCC(=O)Nc2ccc(Cl)c(S(=O)(=O)N3CCCCC3)c2)c1 (nonaromatic ring conformer: 65.57957410362877 kcal/mol)

>  <smiles>  (26) 
Cc1cccc(C(=O)NCCC(=O)Nc2ccc(Cl)c(S(=O)(=O)N3CCCCC3)c2)c1

>  <score_type>  (26) 
oracle

>  <origin>  (26) 
adg

>  <m_score__min__energy>  (26) 
-12.390000000000001

>  <m_primary>  (26) 
energy

$$$$
26:0
     RDKit          3D

 57 60  0  0  0  0  0  0  0  0999 V2000
   54.8344   29.0313   43.7267 H   0  0  0  0  0  0  0  0  0  0  0  0
   55.5800   29.8300   43.8540 C   0  0  0  0  0  0  0  0  0  0  0  0
   55.6596   30.3600   44.8146 H   0  0  0  0  0  0  0  0  0  0  0  0
   56.3880   30.1560   42.8430 C   0  0  0  0  0  0  0  0  0  0  0  0
   56.2940   29.6152   41.8898 H   0  0  0  0  0  0  0  0  0  0  0  0
   57.4240   31.2410   42.9670 C   0  0  0  0  0  0  0  0  0  0  0  0
   58.2561   31.0237   42.2812 H   0  0  0  0  0  0  0  0  0  0  0  0
   56.9555   32.2032   42.7125 H   0  0  0  0  0  0  0  0  0  0  0  0
   57.9450   31.3220   44.3490 N   0  0  0  0  0  0  0  0  0  0  0  0
   58.5610   30.2360   44.9200 C   0  0  0  0  0  0  0  0  0  0  0  0
   58.6970   29.1730   44.2500 O   0  0  0  0  0  0  0  0  0  0  0  0
   59.0370   30.3030   46.2490 C   0  0  0  0  0  0  0  0  0  0  0  0
   59.6480   29.2050   46.9210 C   0  0  0  0  0  0  0  0  0  0  0  0
   59.7880   28.0590   46.3050 N   0  0  0  0  0  0  0  0  0  0  0  0
   58.8080   27.0270   46.1150 C   0  0  0  0  0  0  0  0  0  0  0  0
   59.1820   25.6720   46.0530 C   0  0  0  0  0  0  0  0  0  0  0  0
   60.2457   25.3947   46.0943 H   0  0  0  0  0  0  0  0  0  0  0  0
   58.2060   24.6760   45.9390 C   0  0  0  0  0  0  0  0  0  0  0  0
   58.5036   23.6188   45.8777 H   0  0  0  0  0  0  0  0  0  0  0  0
   56.8540   25.0240   45.9030 C   0  0  0  0  0  0  0  0  0  0  0  0
   56.0876   24.2422   45.7960 H   0  0  0  0  0  0  0  0  0  0  0  0
   56.4740   26.3670   46.0030 C   0  0  0  0  0  0  0  0  0  0  0  0
   55.1600   26.7000   45.9900 F   0  0  0  0  0  0  0  0  0  0  0  0
   57.4480   27.3630   46.1270 C   0  0  0  0  0  0  0  0  0  0  0  0
   57.1448   28.4149   46.2344 H   0  0  0  0  0  0  0  0  0  0  0  0
   60.1160   29.3880   48.2360 C   0  0  0  0  0  0  0  0  0  0  0  0
   60.6167   28.5597   48.7586 H   0  0  0  0  0  0  0  0  0  0  0  0
   59.9480   30.6160   48.8810 C   0  0  0  0  0  0  0  0  0  0  0  0
   60.3580   30.7690   50.2580 N   0  0  0  0  0  0  0  0  0  0  0  0
   59.6320   30.3120   50.8600 H   0  0  0  0  0  0  0  0  0  0  0  0
   61.2770   30.2830   50.3990 H   0  0  0  0  0  0  0  0  0  0  0  0
   60.5050   32.1850   50.6440 C   0  0  0  0  0  0  0  0  0  0  0  0
   59.8313   32.7946   50.0239 H   0  0  0  0  0  0  0  0  0  0  0  0
   60.2522   32.2760   51.7107 H   0  0  0  0  0  0  0  0  0  0  0  0
   61.9460   32.6840   50.4510 C   0  0  0  0  0  0  0  0  0  0  0  0
   62.1041   33.5681   51.0860 H   0  0  0  0  0  0  0  0  0  0  0  0
   62.6292   31.8681   50.7295 H   0  0  0  0  0  0  0  0  0  0  0  0
   62.2250   33.0580   49.0160 C   0  0  0  0  0  0  0  0  0  0  0  0
   63.4490   32.7170   48.4190 C   0  0  0  0  0  0  0  0  0  0  0  0
   64.1961   32.1450   48.9888 H   0  0  0  0  0  0  0  0  0  0  0  0
   63.7220   33.1020   47.1020 C   0  0  0  0  0  0  0  0  0  0  0  0
   64.6814   32.8296   46.6380 H   0  0  0  0  0  0  0  0  0  0  0  0
   62.7780   33.8320   46.3750 C   0  0  0  0  0  0  0  0  0  0  0  0
   62.9942   34.1335   45.3394 H   0  0  0  0  0  0  0  0  0  0  0  0
   61.5590   34.1790   46.9640 C   0  0  0  0  0  0  0  0  0  0  0  0
   60.8156   34.7526   46.3909 H   0  0  0  0  0  0  0  0  0  0  0  0
   61.2830   33.7980   48.2810 C   0  0  0  0  0  0  0  0  0  0  0  0
   60.3251   34.0785   48.7433 H   0  0  0  0  0  0  0  0  0  0  0  0
   59.3080   31.6230   48.2300 N   0  0  0  0  0  0  0  0  0  0  0  0
   58.8680   31.5190   46.9460 C   0  0  0  0  0  0  0  0  0  0  0  0
   58.2630   32.5910   46.3430 N   0  0  0  0  0  0  0  0  0  0  0  0
   58.0750   33.8410   47.1030 C   0  0  0  0  0  0  0  0  0  0  0  0
   58.1077   33.6233   48.1807 H   0  0  0  0  0  0  0  0  0  0  0  0
   58.8767   34.5495   46.8475 H   0  0  0  0  0  0  0  0  0  0  0  0
   57.1004   34.2824   46.8475 H   0  0  0  0  0  0  0  0  0  0  0  0
   57.7770   32.4790   45.0670 C   0  0  0  0  0  0  0  0  0  0  0  0
   57.1610   33.4550   44.5430 O   0  0  0  0  0  0  0  0  0  0  0  0
  1  2  1  0
  2  3  1  0
  2  4  2  0
  4  5  1  0
  4  6  1  0
  6  7  1  0
  6  8  1  0
  6  9  1  0
  9 10  1  0
 10 11  2  0
 10 12  1  0
 12 13  1  0
 13 14  2  0
 14 15  1  0
 15 16  2  0
 16 17  1  0
 16 18  1  0
 18 19  1  0
 18 20  2  0
 20 21  1  0
 20 22  1  0
 22 23  1  0
 22 24  2  0
 24 25  1  0
 13 26  1  0
 26 27  1  0
 26 28  2  0
 28 29  1  0
 29 30  1  0
 29 31  1  0
 29 32  1  0
 32 33  1  0
 32 34  1  0
 32 35  1  0
 35 36  1  0
 35 37  1  0
 35 38  1  0
 38 39  2  0
 39 40  1  0
 39 41  1  0
 41 42  1  0
 41 43  2  0
 43 44  1  0
 43 45  1  0
 45 46  1  0
 45 47  2  0
 47 48  1  0
 28 49  1  0
 49 50  1  0
 50 51  1  0
 51 52  1  0
 52 53  1  0
 52 54  1  0
 52 55  1  0
 51 56  1  0
 56 57  2  0
 56  9  1  0
 50 12  2  0
 24 15  1  0
 47 38  1  0
M  CHG  2  29   1  49  -1
M  END
>  <UniqueID>  (27) 
25

>  <SMILES>  (27) 
C=CCn1c(=O)c2/c(=N/c3cccc(F)c3)cc([NH2+]CCc3ccccc3)[n-]c2n(C)c1=O

>  <Energy>  (27) 
83.6272954656717

>  <Genealogy>  (27) 
C=CCn1c(=O)c2c(=Nc3cccc(F)c3)cc([NH2+]CCc3ccccc3)[n-]c2n(C)c1=O (protonated)
C=CCn1c(=O)c2/c(=N/c3cccc(F)c3)cc([NH2+]CCc3ccccc3)[n-]c2n(C)c1=O (cis-trans isomerization)
C=CCn1c(=O)c2/c(=N/c3cccc(F)c3)cc([NH2+]CCc3ccccc3)[n-]c2n(C)c1=O (3D coordinates assigned)
C=CCn1c(=O)c2/c(=N/c3cccc(F)c3)cc([NH2+]CCc3ccccc3)[n-]c2n(C)c1=O (optimized conformer: 83.6272954656717 kcal/mol)

>  <smiles>  (27) 
C=CCn1c(=O)c2c(=Nc3cccc(F)c3)cc(NCCc3ccccc3)[nH]c2n(C)c1=O

>  <score_type>  (27) 
oracle

>  <origin>  (27) 
adg

>  <m_score__min__energy>  (27) 
-8.2899999999999991

>  <m_primary>  (27) 
energy

$$$$
27:0
     RDKit          3D

 50 52  0  0  0  0  0  0  0  0999 V2000
   55.1520   28.9780   44.7750 N   0  0  0  0  0  0  0  0  0  0  0  0
   56.4660   29.9840   44.2800 S   0  0  0  0  0  0  0  0  0  0  0  0
   56.4940   30.0680   42.7790 O   0  0  0  0  0  0  0  0  0  0  0  0
   56.2760   31.3680   44.8370 O   0  0  0  0  0  0  0  0  0  0  0  0
   57.9810   29.3060   44.8660 C   0  0  0  0  0  0  0  0  0  0  0  0
   59.1590   29.4670   44.1240 C   0  0  0  0  0  0  0  0  0  0  0  0
   60.3650   28.9430   44.5980 C   0  0  0  0  0  0  0  0  0  0  0  0
   60.4010   28.2520   45.8120 C   0  0  0  0  0  0  0  0  0  0  0  0
   59.2250   28.0720   46.5590 C   0  0  0  0  0  0  0  0  0  0  0  0
   59.2510   27.3590   47.8510 C   0  0  0  0  0  0  0  0  0  0  0  0
   58.9790   26.1290   47.8740 O   0  0  0  0  0  0  0  0  0  0  0  0
   59.6140   28.0020   49.0820 N   0  0  0  0  0  0  0  0  0  0  0  0
   60.6850   28.9850   49.2580 C   0  0  0  0  0  0  0  0  0  0  0  0
   60.6060   29.5470   50.6880 C   0  0  0  0  0  0  0  0  0  0  0  0
   61.4700   30.8010   50.8440 C   0  0  0  0  0  0  0  0  0  0  0  0
   61.1340   31.8150   49.8320 N   0  0  0  0  0  0  0  0  0  0  0  0
   61.5980   33.1680   50.0100 C   0  0  0  0  0  0  0  0  0  0  0  0
   62.4450   33.4300   50.9070 O   0  0  0  0  0  0  0  0  0  0  0  0
   61.0990   34.2210   49.1760 N   0  0  0  0  0  0  0  0  0  0  0  0
   59.6850   34.5510   49.0470 C   0  0  0  0  0  0  0  0  0  0  0  0
   59.2400   34.3920   47.6190 C   0  0  0  0  0  0  0  0  0  0  0  0
   59.9780   34.9880   46.5830 C   0  0  0  0  0  0  0  0  0  0  0  0
   59.5800   34.8260   45.2520 C   0  0  0  0  0  0  0  0  0  0  0  0
   58.4500   34.0630   44.9460 C   0  0  0  0  0  0  0  0  0  0  0  0
   57.7180   33.4560   45.9720 C   0  0  0  0  0  0  0  0  0  0  0  0
   58.1090   33.6190   47.3040 C   0  0  0  0  0  0  0  0  0  0  0  0
   60.2350   31.4690   48.7210 C   0  0  0  0  0  0  0  0  0  0  0  0
   60.5880   30.0820   48.1670 C   0  0  0  0  0  0  0  0  0  0  0  0
   58.0200   28.6210   46.0890 C   0  0  0  0  0  0  0  0  0  0  0  0
   54.6930   29.4530   45.5870 H   0  0  0  0  0  0  0  0  0  0  0  0
   59.1344   30.0072   43.1661 H   0  0  0  0  0  0  0  0  0  0  0  0
   61.2878   29.0749   44.0141 H   0  0  0  0  0  0  0  0  0  0  0  0
   61.3538   27.8475   46.1841 H   0  0  0  0  0  0  0  0  0  0  0  0
   61.6723   28.5159   49.1348 H   0  0  0  0  0  0  0  0  0  0  0  0
   59.5604   29.8024   50.9149 H   0  0  0  0  0  0  0  0  0  0  0  0
   60.9802   28.7803   51.3824 H   0  0  0  0  0  0  0  0  0  0  0  0
   61.3056   31.2264   51.8450 H   0  0  0  0  0  0  0  0  0  0  0  0
   62.5234   30.5140   50.7095 H   0  0  0  0  0  0  0  0  0  0  0  0
   59.0956   33.8787   49.6878 H   0  0  0  0  0  0  0  0  0  0  0  0
   59.5318   35.5957   49.3553 H   0  0  0  0  0  0  0  0  0  0  0  0
   60.8718   35.5840   46.8193 H   0  0  0  0  0  0  0  0  0  0  0  0
   60.1575   35.3000   44.4447 H   0  0  0  0  0  0  0  0  0  0  0  0
   58.1363   33.9397   43.8989 H   0  0  0  0  0  0  0  0  0  0  0  0
   56.8330   32.8492   45.7300 H   0  0  0  0  0  0  0  0  0  0  0  0
   57.5301   33.1411   48.1080 H   0  0  0  0  0  0  0  0  0  0  0  0
   59.1961   31.4624   49.0826 H   0  0  0  0  0  0  0  0  0  0  0  0
   60.3490   32.2152   47.9208 H   0  0  0  0  0  0  0  0  0  0  0  0
   59.8115   29.7876   47.4457 H   0  0  0  0  0  0  0  0  0  0  0  0
   61.5814   30.1634   47.7018 H   0  0  0  0  0  0  0  0  0  0  0  0
   57.1013   28.5128   46.6842 H   0  0  0  0  0  0  0  0  0  0  0  0
  1  2  1  0
  2  3  2  0
  2  4  2  0
  2  5  1  0
  5  6  2  0
  6  7  1  0
  7  8  2  0
  8  9  1  0
  9 10  1  0
 10 11  2  0
 10 12  1  0
 12 13  1  0
 13 14  1  0
 14 15  1  0
 15 16  1  0
 16 17  1  0
 17 18  2  0
 17 19  1  0
 19 20  1  0
 20 21  1  0
 21 22  2  0
 22 23  1  0
 23 24  2  0
 24 25  1  0
 25 26  2  0
 16 27  1  0
 27 28  1  0
  9 29  2  0
 29  5  1  0
 28 13  1  0
 26 21  1  0
  1 30  1  0
  6 31  1  0
  7 32  1  0
  8 33  1  0
 13 34  1  0
 14 35  1  0
 14 36  1  0
 15 37  1  0
 15 38  1  0
 20 39  1  0
 20 40  1  0
 22 41  1  0
 23 42  1  0
 24 43  1  0
 25 44  1  0
 26 45  1  0
 27 46  1  0
 27 47  1  0
 28 48  1  0
 28 49  1  0
 29 50  1  0
M  CHG  3   1  -1  12  -1  19  -1
M  END
>  <UniqueID>  (28) 
26

>  <SMILES>  (28) 
[NH-]S(=O)(=O)c1cccc(C(=O)[N-]C2CCN(C(=O)[N-]Cc3ccccc3)CC2)c1

>  <Energy>  (28) 
55.78775428570241

>  <Genealogy>  (28) 
[NH-]S(=O)(=O)c1cccc(C(=O)[N-]C2CCN(C(=O)[N-]Cc3ccccc3)CC2)c1 (protonated)
[NH-]S(=O)(=O)c1cccc(C(=O)[N-]C2CCN(C(=O)[N-]Cc3ccccc3)CC2)c1 (3D coordinates assigned)
[NH-]S(=O)(=O)c1cccc(C(=O)[N-]C2CCN(C(=O)[N-]Cc3ccccc3)CC2)c1 (nonaromatic ring conformer: 55.78775428570241 kcal/mol)

>  <smiles>  (28) 
NS(=O)(=O)c1cccc(C(=O)NC2CCN(C(=O)NCc3ccccc3)CC2)c1

>  <score_type>  (28) 
oracle

>  <origin>  (28) 
adg

>  <m_score__min__energy>  (28) 
-13.98

>  <m_primary>  (28) 
energy

$$$$
28:0
     RDKit          3D

 75 80  0  0  0  0  0  0  0  0999 V2000
   59.4010   26.8008   48.0148 H   0  0  0  0  0  0  0  0  0  0  0  0
   59.6670   27.5210   47.2270 C   0  0  0  0  0  0  0  0  0  0  0  0
   60.0410   28.7830   47.5650 N   0  0  0  0  0  0  0  0  0  0  0  0
   60.3760   29.7130   46.6260 C   0  0  0  0  0  0  0  0  0  0  0  0
   60.7620   31.0330   47.0450 N   0  0  0  0  0  0  0  0  0  0  0  0
   62.1370   31.4860   47.1390 C   0  0  0  0  0  0  0  0  0  0  0  0
   62.6790   31.2742   46.2055 H   0  0  0  0  0  0  0  0  0  0  0  0
   62.6869   30.9763   47.9438 H   0  0  0  0  0  0  0  0  0  0  0  0
   62.0440   32.9170   47.3620 N   0  0  0  0  0  0  0  0  0  0  0  0
   63.1790   33.7330   47.7060 C   0  0  0  0  0  0  0  0  0  0  0  0
   63.7800   34.3860   46.8090 O   0  0  0  0  0  0  0  0  0  0  0  0
   63.6940   33.7520   49.1220 C   0  0  0  0  0  0  0  0  0  0  0  0
   63.4901   34.8197   49.2908 H   0  0  0  0  0  0  0  0  0  0  0  0
   63.4910   32.5060   49.9690 C   0  0  0  0  0  0  0  0  0  0  0  0
   63.3547   32.5975   51.0567 H   0  0  0  0  0  0  0  0  0  0  0  0
   62.7866   31.6613   49.9506 H   0  0  0  0  0  0  0  0  0  0  0  0
   64.8460   32.7810   49.3510 C   0  0  0  0  0  0  0  0  0  0  0  0
   65.6926   33.0731   49.9897 H   0  0  0  0  0  0  0  0  0  0  0  0
   65.5314   32.2200   48.6987 H   0  0  0  0  0  0  0  0  0  0  0  0
   60.6610   33.3730   47.4390 C   0  0  0  0  0  0  0  0  0  0  0  0
   60.4655   34.1405   46.6756 H   0  0  0  0  0  0  0  0  0  0  0  0
   60.4335   33.8281   48.4143 H   0  0  0  0  0  0  0  0  0  0  0  0
   59.8120   32.1330   47.1790 C   0  0  0  0  0  0  0  0  0  0  0  0
   59.2292   32.2528   46.2538 H   0  0  0  0  0  0  0  0  0  0  0  0
   59.0910   31.9539   47.9902 H   0  0  0  0  0  0  0  0  0  0  0  0
   60.3620   29.3560   45.2650 C   0  0  0  0  0  0  0  0  0  0  0  0
   60.6309   30.0940   44.4949 H   0  0  0  0  0  0  0  0  0  0  0  0
   60.0030   28.0540   44.9000 C   0  0  0  0  0  0  0  0  0  0  0  0
   60.0222   27.7530   43.8421 H   0  0  0  0  0  0  0  0  0  0  0  0
   59.6180   27.1320   45.8870 C   0  0  0  0  0  0  0  0  0  0  0  0
   59.2380   25.8170   45.5870 O   0  0  0  0  0  0  0  0  0  0  0  0
   57.9490   25.2720   45.7230 C   0  0  0  0  0  0  0  0  0  0  0  0
   57.4700   25.0730   47.0230 C   0  0  0  0  0  0  0  0  0  0  0  0
   58.1274   25.2810   47.8801 H   0  0  0  0  0  0  0  0  0  0  0  0
   56.1690   24.6140   47.2490 C   0  0  0  0  0  0  0  0  0  0  0  0
   55.8024   24.4824   48.2777 H   0  0  0  0  0  0  0  0  0  0  0  0
   55.3330   24.3220   46.1640 C   0  0  0  0  0  0  0  0  0  0  0  0
   53.9990   23.8480   46.3740 N   0  0  0  0  0  0  0  0  0  0  0  0
   53.5980   22.4940   46.1360 C   0  0  0  0  0  0  0  0  0  0  0  0
   52.7250   22.2330   45.2590 O   0  0  0  0  0  0  0  0  0  0  0  0
   54.2670   21.4150   46.8030 N   0  0  0  0  0  0  0  0  0  0  0  0
   55.3000   21.5370   47.5860 C   0  0  0  0  0  0  0  0  0  0  0  0
   55.2870   21.5760   48.9700 C   0  0  0  0  0  0  0  0  0  0  0  0
   54.4156   21.6287   49.6392 H   0  0  0  0  0  0  0  0  0  0  0  0
   56.6320   21.5330   49.3160 C   0  0  0  0  0  0  0  0  0  0  0  0
   57.1910   21.4680   50.7220 C   0  0  0  0  0  0  0  0  0  0  0  0
   57.9620   20.1480   50.9300 C   0  0  0  0  0  0  0  0  0  0  0  0
   58.0747   19.9550   52.0071 H   0  0  0  0  0  0  0  0  0  0  0  0
   57.4050   19.3209   50.4656 H   0  0  0  0  0  0  0  0  0  0  0  0
   58.9560   20.2269   50.4656 H   0  0  0  0  0  0  0  0  0  0  0  0
   58.1490   22.6500   50.9550 C   0  0  0  0  0  0  0  0  0  0  0  0
   58.2784   22.8096   52.0356 H   0  0  0  0  0  0  0  0  0  0  0  0
   59.1244   22.4270   50.4979 H   0  0  0  0  0  0  0  0  0  0  0  0
   57.7289   23.5581   50.4979 H   0  0  0  0  0  0  0  0  0  0  0  0
   56.0320   21.5330   51.7400 C   0  0  0  0  0  0  0  0  0  0  0  0
   56.4395   21.5101   52.7615 H   0  0  0  0  0  0  0  0  0  0  0  0
   55.4657   22.4643   51.5919 H   0  0  0  0  0  0  0  0  0  0  0  0
   55.3651   20.6708   51.5919 H   0  0  0  0  0  0  0  0  0  0  0  0
   57.3850   21.4710   48.1940 N   0  0  0  0  0  0  0  0  0  0  0  0
   56.5760   21.4830   47.1470 N   0  0  0  0  0  0  0  0  0  0  0  0
   57.0400   21.4240   45.7860 C   0  0  0  0  0  0  0  0  0  0  0  0
   56.2130   20.9250   44.7560 C   0  0  0  0  0  0  0  0  0  0  0  0
   55.2094   20.5428   44.9940 H   0  0  0  0  0  0  0  0  0  0  0  0
   56.6680   20.9160   43.4340 C   0  0  0  0  0  0  0  0  0  0  0  0
   56.0249   20.5168   42.6359 H   0  0  0  0  0  0  0  0  0  0  0  0
   57.9360   21.4120   43.1230 C   0  0  0  0  0  0  0  0  0  0  0  0
   58.2848   21.4126   42.0798 H   0  0  0  0  0  0  0  0  0  0  0  0
   58.7630   21.9080   44.1360 C   0  0  0  0  0  0  0  0  0  0  0  0
   59.7653   22.2889   43.8903 H   0  0  0  0  0  0  0  0  0  0  0  0
   58.3160   21.9200   45.4620 C   0  0  0  0  0  0  0  0  0  0  0  0
   58.9655   22.3192   46.2549 H   0  0  0  0  0  0  0  0  0  0  0  0
   55.8170   24.4750   44.8580 C   0  0  0  0  0  0  0  0  0  0  0  0
   55.1808   24.2008   44.0035 H   0  0  0  0  0  0  0  0  0  0  0  0
   57.1060   24.9750   44.6340 C   0  0  0  0  0  0  0  0  0  0  0  0
   57.4610   25.1362   43.6054 H   0  0  0  0  0  0  0  0  0  0  0  0
  1  2  1  0
  2  3  2  0
  3  4  1  0
  4  5  1  0
  5  6  1  0
  6  7  1  0
  6  8  1  0
  6  9  1  0
  9 10  1  0
 10 11  2  0
 10 12  1  0
 12 13  1  0
 12 14  1  0
 14 15  1  0
 14 16  1  0
 14 17  1  0
 17 18  1  0
 17 19  1  0
  9 20  1  0
 20 21  1  0
 20 22  1  0
 20 23  1  0
 23 24  1  0
 23 25  1  0
  4 26  2  0
 26 27  1  0
 26 28  1  0
 28 29  1  0
 28 30  2  0
 30 31  1  0
 31 32  1  0
 32 33  2  0
 33 34  1  0
 33 35  1  0
 35 36  1  0
 35 37  2  0
 37 38  1  0
 38 39  1  0
 39 40  2  0
 39 41  1  0
 41 42  2  0
 42 43  1  0
 43 44  1  0
 43 45  2  0
 45 46  1  0
 46 47  1  0
 47 48  1  0
 47 49  1  0
 47 50  1  0
 46 51  1  0
 51 52  1  0
 51 53  1  0
 51 54  1  0
 46 55  1  0
 55 56  1  0
 55 57  1  0
 55 58  1  0
 45 59  1  0
 59 60  1  0
 60 61  1  0
 61 62  2  0
 62 63  1  0
 62 64  1  0
 64 65  1  0
 64 66  2  0
 66 67  1  0
 66 68  1  0
 68 69  1  0
 68 70  2  0
 70 71  1  0
 37 72  1  0
 72 73  1  0
 72 74  2  0
 74 75  1  0
 30  2  1  0
 74 32  1  0
 23  5  1  0
 60 42  1  0
 70 61  1  0
 17 12  1  0
M  CHG  2  38  -1  59  -1
M  END
>  <UniqueID>  (29) 
27

>  <SMILES>  (29) 
CC(C)(C)c1c/c(=N\C(=O)[N-]c2ccc(Oc3ccc(N4CCN(C(=O)C5CC5)C4)nc3)cc2)n(-c2ccccc2)[n-]1

>  <Energy>  (29) 
400.2442587456521

>  <Genealogy>  (29) 
CC(C)(C)c1cc(=NC(=O)[N-]c2ccc(Oc3ccc(N4CCN(C(=O)C5CC5)C4)nc3)cc2)n(-c2ccccc2)[n-]1 (protonated)
CC(C)(C)c1c/c(=N\C(=O)[N-]c2ccc(Oc3ccc(N4CCN(C(=O)C5CC5)C4)nc3)cc2)n(-c2ccccc2)[n-]1 (cis-trans isomerization)
CC(C)(C)c1c/c(=N\C(=O)[N-]c2ccc(Oc3ccc(N4CCN(C(=O)C5CC5)C4)nc3)cc2)n(-c2ccccc2)[n-]1 (3D coordinates assigned)
CC(C)(C)c1c/c(=N\C(=O)[N-]c2ccc(Oc3ccc(N4CCN(C(=O)C5CC5)C4)nc3)cc2)n(-c2ccccc2)[n-]1 (nonaromatic ring conformer: 400.2442587456521 kcal/mol)

>  <smiles>  (29) 
CC(C)(C)c1cc(=NC(=O)Nc2ccc(Oc3ccc(N4CCN(C(=O)C5CC5)C4)nc3)cc2)n(-c2ccccc2)[nH]1

>  <score_type>  (29) 
oracle

>  <origin>  (29) 
adg

>  <m_score__min__energy>  (29) 
-12.73

>  <m_primary>  (29) 
energy

$$$$
29:0
     RDKit          3D

 45 47  0  0  0  0  0  0  0  0999 V2000
   56.6440   33.6930   45.9850 O   0  0  0  0  0  0  0  0  0  0  0  0
   57.6150   33.2350   45.3270 C   0  0  0  0  0  0  0  0  0  0  0  0
   58.4600   34.1490   44.6170 N   0  0  0  0  0  0  0  0  0  0  0  0
   59.3300   35.1370   45.2430 C   0  0  0  0  0  0  0  0  0  0  0  0
   59.9550   34.5400   46.4710 C   0  0  0  0  0  0  0  0  0  0  0  0
   61.1740   33.8490   46.3800 C   0  0  0  0  0  0  0  0  0  0  0  0
   61.7720   33.3220   47.5300 C   0  0  0  0  0  0  0  0  0  0  0  0
   61.1630   33.4920   48.7760 C   0  0  0  0  0  0  0  0  0  0  0  0
   59.9580   34.1930   48.8770 C   0  0  0  0  0  0  0  0  0  0  0  0
   59.3570   34.7200   47.7290 C   0  0  0  0  0  0  0  0  0  0  0  0
   57.8230   31.7730   45.2810 C   0  0  0  0  0  0  0  0  0  0  0  0
   58.6910   31.1410   46.1830 C   0  0  0  0  0  0  0  0  0  0  0  0
   58.8690   29.7560   46.1400 C   0  0  0  0  0  0  0  0  0  0  0  0
   58.1770   28.9750   45.1970 C   0  0  0  0  0  0  0  0  0  0  0  0
   58.3700   27.5050   45.1650 C   0  0  0  0  0  0  0  0  0  0  0  0
   59.4150   27.0080   45.6660 O   0  0  0  0  0  0  0  0  0  0  0  0
   57.3960   26.6430   44.5550 N   0  0  0  0  0  0  0  0  0  0  0  0
   57.4550   25.1840   44.7000 C   0  0  1  0  0  0  0  0  0  0  0  0
   56.2990   24.6700   45.5780 C   0  0  0  0  0  0  0  0  0  0  0  0
   56.1690   23.1630   45.3660 C   0  0  0  0  0  0  0  0  0  0  0  0
   56.7100   22.8760   43.7080 S   0  0  0  0  0  0  0  0  0  0  0  0
   57.7760   21.8190   43.6500 O   0  0  0  0  0  0  0  0  0  0  0  0
   55.5620   22.5260   42.8020 O   0  0  0  0  0  0  0  0  0  0  0  0
   57.3610   24.4770   43.3430 C   0  0  0  0  0  0  0  0  0  0  0  0
   57.2810   29.6090   44.3180 C   0  0  0  0  0  0  0  0  0  0  0  0
   57.1040   30.9950   44.3620 C   0  0  0  0  0  0  0  0  0  0  0  0
   60.1189   35.4327   44.5358 H   0  0  0  0  0  0  0  0  0  0  0  0
   58.7407   36.0227   45.5226 H   0  0  0  0  0  0  0  0  0  0  0  0
   61.6603   33.7216   45.4016 H   0  0  0  0  0  0  0  0  0  0  0  0
   62.7223   32.7734   47.4531 H   0  0  0  0  0  0  0  0  0  0  0  0
   61.6325   33.0736   49.6785 H   0  0  0  0  0  0  0  0  0  0  0  0
   59.4823   34.3303   49.8592 H   0  0  0  0  0  0  0  0  0  0  0  0
   58.4124   35.2775   47.8119 H   0  0  0  0  0  0  0  0  0  0  0  0
   59.2349   31.7393   46.9288 H   0  0  0  0  0  0  0  0  0  0  0  0
   59.5562   29.2722   46.8497 H   0  0  0  0  0  0  0  0  0  0  0  0
   56.6750   27.0640   43.9260 H   0  0  0  0  0  0  0  0  0  0  0  0
   58.4233   24.9575   45.1702 H   0  0  0  0  0  0  0  0  0  0  0  0
   56.5141   24.8795   46.6362 H   0  0  0  0  0  0  0  0  0  0  0  0
   55.3608   25.1738   45.3023 H   0  0  0  0  0  0  0  0  0  0  0  0
   56.8051   22.6175   46.0786 H   0  0  0  0  0  0  0  0  0  0  0  0
   55.1384   22.8139   45.5270 H   0  0  0  0  0  0  0  0  0  0  0  0
   58.3555   24.3940   42.8802 H   0  0  0  0  0  0  0  0  0  0  0  0
   56.7286   25.0286   42.6319 H   0  0  0  0  0  0  0  0  0  0  0  0
   56.7148   29.0095   43.5899 H   0  0  0  0  0  0  0  0  0  0  0  0
   56.3967   31.4781   43.6718 H   0  0  0  0  0  0  0  0  0  0  0  0
  1  2  2  0
  2  3  1  0
  3  4  1  0
  4  5  1  0
  5  6  2  0
  6  7  1  0
  7  8  2  0
  8  9  1  0
  9 10  2  0
  2 11  1  0
 11 12  2  0
 12 13  1  0
 13 14  2  0
 14 15  1  0
 15 16  2  0
 15 17  1  0
 17 18  1  0
 18 19  1  0
 19 20  1  0
 20 21  1  0
 21 22  2  0
 21 23  2  0
 21 24  1  0
 14 25  1  0
 25 26  2  0
 10  5  1  0
 26 11  1  0
 24 18  1  0
  4 27  1  0
  4 28  1  0
  6 29  1  0
  7 30  1  0
  8 31  1  0
  9 32  1  0
 10 33  1  0
 12 34  1  0
 13 35  1  0
 17 36  1  0
 18 37  1  1
 19 38  1  0
 19 39  1  0
 20 40  1  0
 20 41  1  0
 24 42  1  0
 24 43  1  0
 25 44  1  0
 26 45  1  0
M  CHG  1   3  -1
M  END
>  <UniqueID>  (30) 
28

>  <SMILES>  (30) 
O=C([N-]Cc1ccccc1)c1ccc(C(=O)N[C@H]2CCS(=O)(=O)C2)cc1

>  <Energy>  (30) 
48.155911280683085

>  <Genealogy>  (30) 
O=C([N-]Cc1ccccc1)c1ccc(C(=O)NC2CCS(=O)(=O)C2)cc1 (protonated)
O=C([N-]Cc1ccccc1)c1ccc(C(=O)N[C@H]2CCS(=O)(=O)C2)cc1 (chirality)
O=C([N-]Cc1ccccc1)c1ccc(C(=O)N[C@H]2CCS(=O)(=O)C2)cc1 (3D coordinates assigned)
O=C([N-]Cc1ccccc1)c1ccc(C(=O)N[C@H]2CCS(=O)(=O)C2)cc1 (nonaromatic ring conformer: 48.155911280683085 kcal/mol)

>  <smiles>  (30) 
O=C(NCc1ccccc1)c1ccc(C(=O)NC2CCS(=O)(=O)C2)cc1

>  <score_type>  (30) 
oracle

>  <origin>  (30) 
adg

>  <m_score__min__energy>  (30) 
-9.6500000000000004

>  <m_primary>  (30) 
energy

$$$$
30:0
     RDKit          3D

 49 51  0  0  0  0  0  0  0  0999 V2000
   59.7000   34.3510   48.1770 C   0  0  0  0  0  0  0  0  0  0  0  0
   59.2380   33.9040   47.0110 C   0  0  0  0  0  0  0  0  0  0  0  0
   59.1310   34.6850   45.7850 C   0  0  0  0  0  0  0  0  0  0  0  0
   58.4660   33.9620   44.8930 C   0  0  0  0  0  0  0  0  0  0  0  0
   58.0970   32.6770   45.4960 C   0  0  0  0  0  0  0  0  0  0  0  0
   57.2390   31.3320   44.6600 S   0  0  0  0  0  0  0  0  0  0  0  0
   58.1480   29.8980   45.3960 C   0  0  2  0  0  0  0  0  0  0  0  0
   59.6710   30.0510   45.1420 C   0  0  0  0  0  0  0  0  0  0  0  0
   60.4060   28.7140   44.9630 C   0  0  0  0  0  0  0  0  0  0  0  0
   59.8740   27.6650   45.9390 C   0  0  0  0  0  0  0  0  0  0  0  0
   58.3790   27.3650   45.7130 C   0  0  0  0  0  0  0  0  0  0  0  0
   57.6120   28.4970   44.9840 C   0  0  1  0  0  0  0  0  0  0  0  0
   56.1390   28.3370   45.2470 C   0  0  0  0  0  0  0  0  0  0  0  0
   55.3400   29.2890   45.0360 O   0  0  0  0  0  0  0  0  0  0  0  0
   55.6620   27.1570   45.8040 O   0  0  0  0  0  0  0  0  0  0  0  0
   58.5970   32.6200   46.7260 C   0  0  0  0  0  0  0  0  0  0  0  0
   58.5920   31.4490   47.5580 N   0  0  0  0  0  0  0  0  0  0  0  0
   59.7730   30.9090   48.1600 C   0  0  0  0  0  0  0  0  0  0  0  0
   60.9140   31.2780   47.7700 O   0  0  0  0  0  0  0  0  0  0  0  0
   59.6480   29.9190   49.1840 N   0  0  0  0  0  0  0  0  0  0  0  0
   58.5130   29.8450   50.0960 C   0  0  0  0  0  0  0  0  0  0  0  0
   58.4160   31.1090   50.9070 C   0  0  0  0  0  0  0  0  0  0  0  0
   59.4950   32.0060   50.9660 C   0  0  0  0  0  0  0  0  0  0  0  0
   59.3830   33.1950   51.6930 C   0  0  0  0  0  0  0  0  0  0  0  0
   58.1930   33.4980   52.3610 C   0  0  0  0  0  0  0  0  0  0  0  0
   57.1130   32.6110   52.3040 C   0  0  0  0  0  0  0  0  0  0  0  0
   57.2220   31.4220   51.5780 C   0  0  0  0  0  0  0  0  0  0  0  0
   59.7402   33.6788   49.0468 H   0  0  0  0  0  0  0  0  0  0  0  0
   60.0415   35.3925   48.2705 H   0  0  0  0  0  0  0  0  0  0  0  0
   59.5316   35.6972   45.6268 H   0  0  0  0  0  0  0  0  0  0  0  0
   58.2293   34.2761   43.8657 H   0  0  0  0  0  0  0  0  0  0  0  0
   57.9570   29.9335   46.4787 H   0  0  0  0  0  0  0  0  0  0  0  0
   59.8123   30.6495   44.2299 H   0  0  0  0  0  0  0  0  0  0  0  0
   60.0978   30.5350   46.0328 H   0  0  0  0  0  0  0  0  0  0  0  0
   60.2575   28.3563   43.9334 H   0  0  0  0  0  0  0  0  0  0  0  0
   61.4760   28.8711   45.1643 H   0  0  0  0  0  0  0  0  0  0  0  0
   60.4461   26.7349   45.8060 H   0  0  0  0  0  0  0  0  0  0  0  0
   59.9884   28.0629   46.9581 H   0  0  0  0  0  0  0  0  0  0  0  0
   58.2974   26.4483   45.1105 H   0  0  0  0  0  0  0  0  0  0  0  0
   57.9216   27.2602   46.7079 H   0  0  0  0  0  0  0  0  0  0  0  0
   57.7780   28.4210   43.8993 H   0  0  0  0  0  0  0  0  0  0  0  0
   57.7190   30.8830   47.6310 H   0  0  0  0  0  0  0  0  0  0  0  0
   57.5880   29.7137   49.5153 H   0  0  0  0  0  0  0  0  0  0  0  0
   58.6533   28.9917   50.7758 H   0  0  0  0  0  0  0  0  0  0  0  0
   60.4315   31.7723   50.4384 H   0  0  0  0  0  0  0  0  0  0  0  0
   60.2321   33.8927   51.7394 H   0  0  0  0  0  0  0  0  0  0  0  0
   58.1059   34.4343   52.9317 H   0  0  0  0  0  0  0  0  0  0  0  0
   56.1774   32.8495   52.8310 H   0  0  0  0  0  0  0  0  0  0  0  0
   56.3695   30.7283   51.5317 H   0  0  0  0  0  0  0  0  0  0  0  0
  1  2  2  0
  2  3  1  0
  3  4  2  0
  4  5  1  0
  5  6  1  0
  6  7  1  0
  7  8  1  0
  8  9  1  0
  9 10  1  0
 10 11  1  0
 11 12  1  0
 12 13  1  0
 13 14  2  0
 13 15  1  0
  5 16  2  0
 16 17  1  0
 17 18  1  0
 18 19  2  0
 18 20  1  0
 20 21  1  0
 21 22  1  0
 22 23  2  0
 23 24  1  0
 24 25  2  0
 25 26  1  0
 26 27  2  0
 16  2  1  0
 27 22  1  0
 12  7  1  0
  1 28  1  0
  1 29  1  0
  3 30  1  0
  4 31  1  0
  7 32  1  1
  8 33  1  0
  8 34  1  0
  9 35  1  0
  9 36  1  0
 10 37  1  0
 10 38  1  0
 11 39  1  0
 11 40  1  0
 12 41  1  6
 17 42  1  0
 21 43  1  0
 21 44  1  0
 23 45  1  0
 24 46  1  0
 25 47  1  0
 26 48  1  0
 27 49  1  0
M  CHG  2  15  -1  20  -1
M  END
>  <UniqueID>  (31) 
29

>  <SMILES>  (31) 
C=C1C=CC(S[C@@H]2CCCC[C@H]2C(=O)[O-])=C1NC(=O)[N-]Cc1ccccc1

>  <Energy>  (31) 
75.16596953870935

>  <Genealogy>  (31) 
C=C1C=CC(SC2CCCCC2C(=O)[O-])=C1NC(=O)[N-]Cc1ccccc1 (protonated)
C=C1C=CC(S[C@@H]2CCCC[C@H]2C(=O)[O-])=C1NC(=O)[N-]Cc1ccccc1 (chirality)
C=C1C=CC(S[C@@H]2CCCC[C@H]2C(=O)[O-])=C1NC(=O)[N-]Cc1ccccc1 (3D coordinates assigned)
C=C1C=CC(S[C@@H]2CCCC[C@H]2C(=O)[O-])=C1NC(=O)[N-]Cc1ccccc1 (nonaromatic ring conformer: 75.16596953870935 kcal/mol)

>  <smiles>  (31) 
C=C1C=CC(SC2CCCCC2C(=O)O)=C1NC(=O)NCc1ccccc1

>  <score_type>  (31) 
oracle

>  <origin>  (31) 
adg

>  <m_score__min__energy>  (31) 
-13.640000000000001

>  <m_primary>  (31) 
energy

$$$$
31:0
     RDKit          3D

 53 55  0  0  0  0  0  0  0  0999 V2000
   54.3390   27.0970   46.3700 H   0  0  0  0  0  0  0  0  0  0  0  0
   55.1460   26.7820   45.8460 O   0  0  0  0  0  0  0  0  0  0  0  0
   56.0560   25.8740   46.3810 C   0  0  0  0  0  0  0  0  0  0  0  0
   55.7010   24.6740   46.8660 N   0  0  0  0  0  0  0  0  0  0  0  0
   56.8850   24.1300   47.2170 C   0  0  0  0  0  0  0  0  0  0  0  0
   56.9800   22.9780   47.7160 O   0  0  0  0  0  0  0  0  0  0  0  0
   57.9610   24.9110   46.9810 N   0  0  0  0  0  0  0  0  0  0  0  0
   57.4250   26.0340   46.4730 C   0  0  0  0  0  0  0  0  0  0  0  0
   58.2280   27.1600   45.9750 C   0  0  0  0  0  0  0  0  0  0  0  0
   58.4129   27.2022   44.8915 H   0  0  0  0  0  0  0  0  0  0  0  0
   58.7580   28.1450   46.7260 C   0  0  0  0  0  0  0  0  0  0  0  0
   58.5180   29.4780   46.4710 C   0  0  0  0  0  0  0  0  0  0  0  0
   57.9515   29.8900   45.6228 H   0  0  0  0  0  0  0  0  0  0  0  0
   59.1210   30.1960   47.4780 C   0  0  0  0  0  0  0  0  0  0  0  0
   59.0850   31.6700   47.5630 C   0  0  0  0  0  0  0  0  0  0  0  0
   58.4750   32.2140   48.5200 O   0  0  0  0  0  0  0  0  0  0  0  0
   59.7400   32.5050   46.5960 N   0  0  0  0  0  0  0  0  0  0  0  0
   59.1600   33.6800   45.9430 C   0  0  2  0  0  0  0  0  0  0  0  0
   59.6502   33.8494   44.9730 H   0  0  0  0  0  0  0  0  0  0  0  0
   59.4060   34.9150   46.8260 C   0  0  0  0  0  0  0  0  0  0  0  0
   60.0013   35.6478   46.2615 H   0  0  0  0  0  0  0  0  0  0  0  0
   58.4327   35.3433   47.1077 H   0  0  0  0  0  0  0  0  0  0  0  0
   60.0960   34.5680   47.9960 O   0  0  0  0  0  0  0  0  0  0  0  0
   60.0760   33.5770   48.0550 H   0  0  0  0  0  0  0  0  0  0  0  0
   57.6620   33.4590   45.6270 C   0  0  0  0  0  0  0  0  0  0  0  0
   57.1778   33.0303   46.5168 H   0  0  0  0  0  0  0  0  0  0  0  0
   57.2406   34.4378   45.3542 H   0  0  0  0  0  0  0  0  0  0  0  0
   57.4240   32.5310   44.4590 C   0  0  0  0  0  0  0  0  0  0  0  0
   57.9930   32.8100   43.2040 C   0  0  0  0  0  0  0  0  0  0  0  0
   58.6234   33.7021   43.0747 H   0  0  0  0  0  0  0  0  0  0  0  0
   57.7610   31.9580   42.1190 C   0  0  0  0  0  0  0  0  0  0  0  0
   58.2077   32.1821   41.1391 H   0  0  0  0  0  0  0  0  0  0  0  0
   56.9620   30.8220   42.2790 C   0  0  0  0  0  0  0  0  0  0  0  0
   56.7806   30.1525   41.4252 H   0  0  0  0  0  0  0  0  0  0  0  0
   56.3940   30.5370   43.5230 C   0  0  0  0  0  0  0  0  0  0  0  0
   55.7662   29.6424   43.6479 H   0  0  0  0  0  0  0  0  0  0  0  0
   56.6220   31.3870   44.6100 C   0  0  0  0  0  0  0  0  0  0  0  0
   56.1716   31.1591   45.5873 H   0  0  0  0  0  0  0  0  0  0  0  0
   59.7740   29.3720   48.3380 N   0  0  0  0  0  0  0  0  0  0  0  0
   60.5110   29.8280   49.5430 C   0  0  0  0  0  0  0  0  0  0  0  0
   61.0213   28.9477   49.9609 H   0  0  0  0  0  0  0  0  0  0  0  0
   59.5650   30.3280   50.6390 C   0  0  0  0  0  0  0  0  0  0  0  0
   59.9946   30.1009   51.6258 H   0  0  0  0  0  0  0  0  0  0  0  0
   59.4302   31.4151   50.5391 H   0  0  0  0  0  0  0  0  0  0  0  0
   58.5908   29.8270   50.5391 H   0  0  0  0  0  0  0  0  0  0  0  0
   61.6240   30.8280   49.2020 C   0  0  0  0  0  0  0  0  0  0  0  0
   62.0613   31.2209   50.1317 H   0  0  0  0  0  0  0  0  0  0  0  0
   62.4045   30.3218   48.6149 H   0  0  0  0  0  0  0  0  0  0  0  0
   61.2040   31.6580   48.6149 H   0  0  0  0  0  0  0  0  0  0  0  0
   59.5840   28.1030   47.8640 C   0  0  0  0  0  0  0  0  0  0  0  0
   60.2000   27.0110   48.3440 C   0  0  0  0  0  0  0  0  0  0  0  0
   60.8272   27.0845   49.2447 H   0  0  0  0  0  0  0  0  0  0  0  0
   60.0776   26.0427   47.8366 H   0  0  0  0  0  0  0  0  0  0  0  0
  1  2  1  0
  2  3  1  0
  3  4  1  0
  4  5  1  0
  5  6  2  0
  5  7  1  0
  7  8  1  0
  8  9  1  0
  9 10  1  0
  9 11  2  0
 11 12  1  0
 12 13  1  0
 12 14  2  0
 14 15  1  0
 15 16  2  0
 15 17  1  0
 17 18  1  0
 18 19  1  6
 18 20  1  0
 20 21  1  0
 20 22  1  0
 20 23  1  0
 23 24  1  0
 18 25  1  0
 25 26  1  0
 25 27  1  0
 25 28  1  0
 28 29  2  0
 29 30  1  0
 29 31  1  0
 31 32  1  0
 31 33  2  0
 33 34  1  0
 33 35  1  0
 35 36  1  0
 35 37  2  0
 37 38  1  0
 14 39  1  0
 39 40  1  0
 40 41  1  0
 40 42  1  0
 42 43  1  0
 42 44  1  0
 42 45  1  0
 40 46  1  0
 46 47  1  0
 46 48  1  0
 46 49  1  0
 39 50  1  0
 50 51  2  0
 51 52  1  0
 51 53  1  0
  8  3  2  0
 50 11  1  0
 37 28  1  0
M  CHG  3   4  -1   7  -1  17  -1
M  END
>  <UniqueID>  (32) 
30

>  <SMILES>  (32) 
C=c1/c(=C\c2[n-]c(=O)[n-]c2O)cc(C(=O)[N-][C@H](CO)Cc2ccccc2)n1C(C)C

>  <Energy>  (32) 
124.89264751967946

>  <Genealogy>  (32) 
C=c1c(=Cc2[n-]c(=O)[n-]c2O)cc(C(=O)[N-]C(CO)Cc2ccccc2)n1C(C)C (protonated)
C=c1c(=Cc2[n-]c(=O)[n-]c2O)cc(C(=O)[N-][C@H](CO)Cc2ccccc2)n1C(C)C (chirality)
C=c1/c(=C\c2[n-]c(=O)[n-]c2O)cc(C(=O)[N-][C@H](CO)Cc2ccccc2)n1C(C)C (cis-trans isomerization)
C=c1/c(=C\c2[n-]c(=O)[n-]c2O)cc(C(=O)[N-][C@H](CO)Cc2ccccc2)n1C(C)C (3D coordinates assigned)
C=c1/c(=C\c2[n-]c(=O)[n-]c2O)cc(C(=O)[N-][C@H](CO)Cc2ccccc2)n1C(C)C (optimized conformer: 124.89264751967946 kcal/mol)

>  <smiles>  (32) 
C=c1c(=Cc2[nH]c(=O)[nH]c2O)cc(C(=O)NC(CO)Cc2ccccc2)n1C(C)C

>  <score_type>  (32) 
oracle

>  <origin>  (32) 
adg

>  <m_score__min__energy>  (32) 
-14.42

>  <m_primary>  (32) 
energy

$$$$
32:0
     RDKit          3D

 39 41  0  0  0  0  0  0  0  0999 V2000
   61.4310   31.0948   46.7049 H   0  0  0  0  0  0  0  0  0  0  0  0
   61.2420   30.4710   47.5910 C   0  0  0  0  0  0  0  0  0  0  0  0
   61.8911   30.5597   48.4746 H   0  0  0  0  0  0  0  0  0  0  0  0
   60.2210   29.6030   47.5940 C   0  0  0  0  0  0  0  0  0  0  0  0
   59.9010   28.7750   48.6580 C   0  0  0  0  0  0  0  0  0  0  0  0
   60.5980   28.6760   49.9810 C   0  0  0  0  0  0  0  0  0  0  0  0
   59.8621   28.7805   50.7919 H   0  0  0  0  0  0  0  0  0  0  0  0
   61.0955   27.6982   50.0611 H   0  0  0  0  0  0  0  0  0  0  0  0
   61.3481   29.4766   50.0611 H   0  0  0  0  0  0  0  0  0  0  0  0
   58.8870   27.9490   48.2300 C   0  0  0  0  0  0  0  0  0  0  0  0
   58.3962   27.1560   48.8133 H   0  0  0  0  0  0  0  0  0  0  0  0
   58.6030   28.3100   46.9190 C   0  0  0  0  0  0  0  0  0  0  0  0
   57.7410   27.6550   46.1130 C   0  0  0  0  0  0  0  0  0  0  0  0
   57.3970   28.1679   45.2027 H   0  0  0  0  0  0  0  0  0  0  0  0
   57.2300   26.2950   46.3740 C   0  0  0  0  0  0  0  0  0  0  0  0
   55.9100   25.9090   46.3610 C   0  0  0  0  0  0  0  0  0  0  0  0
   54.8340   26.7140   46.0070 O   0  0  0  0  0  0  0  0  0  0  0  0
   55.7870   24.6260   46.7500 N   0  0  0  0  0  0  0  0  0  0  0  0
   57.0630   24.2700   47.0120 C   0  0  0  0  0  0  0  0  0  0  0  0
   57.3810   23.1250   47.4280 O   0  0  0  0  0  0  0  0  0  0  0  0
   57.9610   25.2530   46.8070 N   0  0  0  0  0  0  0  0  0  0  0  0
   58.9870   25.2190   47.0030 H   0  0  0  0  0  0  0  0  0  0  0  0
   59.3970   29.3550   46.5390 N   0  0  0  0  0  0  0  0  0  0  0  0
   59.3800   30.0830   45.2510 C   0  0  0  0  0  0  0  0  0  0  0  0
   60.4132   30.1886   44.8886 H   0  0  0  0  0  0  0  0  0  0  0  0
   58.7677   29.5066   44.5419 H   0  0  0  0  0  0  0  0  0  0  0  0
   58.7640   31.4660   45.3890 C   0  0  0  0  0  0  0  0  0  0  0  0
   59.5380   32.4910   45.9680 C   0  0  0  0  0  0  0  0  0  0  0  0
   60.5862   32.2942   46.2373 H   0  0  0  0  0  0  0  0  0  0  0  0
   58.9910   33.7530   46.2040 C   0  0  0  0  0  0  0  0  0  0  0  0
   59.6058   34.5406   46.6641 H   0  0  0  0  0  0  0  0  0  0  0  0
   57.6680   34.0170   45.8580 C   0  0  0  0  0  0  0  0  0  0  0  0
   57.2329   35.0060   46.0642 H   0  0  0  0  0  0  0  0  0  0  0  0
   56.8940   33.0280   45.2500 C   0  0  0  0  0  0  0  0  0  0  0  0
   55.8507   33.2444   44.9769 H   0  0  0  0  0  0  0  0  0  0  0  0
   57.4340   31.7580   44.9830 C   0  0  0  0  0  0  0  0  0  0  0  0
   56.5970   30.7890   44.2500 C   0  0  0  0  0  0  0  0  0  0  0  0
   55.7660   30.0730   44.8690 O   0  0  0  0  0  0  0  0  0  0  0  0
   56.6620   30.7090   42.8650 O   0  0  0  0  0  0  0  0  0  0  0  0
  1  2  1  0
  2  3  1  0
  2  4  2  0
  4  5  1  0
  5  6  1  0
  6  7  1  0
  6  8  1  0
  6  9  1  0
  5 10  2  0
 10 11  1  0
 10 12  1  0
 12 13  2  0
 13 14  1  0
 13 15  1  0
 15 16  2  0
 16 17  1  0
 16 18  1  0
 18 19  1  0
 19 20  2  0
 19 21  1  0
 21 22  1  0
 12 23  1  0
 23 24  1  0
 24 25  1  0
 24 26  1  0
 24 27  1  0
 27 28  2  0
 28 29  1  0
 28 30  1  0
 30 31  1  0
 30 32  2  0
 32 33  1  0
 32 34  1  0
 34 35  1  0
 34 36  2  0
 36 37  1  0
 37 38  2  0
 37 39  1  0
 23  4  1  0
 36 27  1  0
 21 15  1  0
M  CHG  3  17  -1  18  -1  39  -1
M  END
>  <UniqueID>  (33) 
31

>  <SMILES>  (33) 
C=c1c(C)c/c(=C\c2[nH]c(=O)[n-]c2[O-])n1Cc1ccccc1C(=O)[O-]

>  <Energy>  (33) 
114.54504807741608

>  <Genealogy>  (33) 
C=c1c(C)cc(=Cc2[nH]c(=O)[n-]c2[O-])n1Cc1ccccc1C(=O)[O-] (protonated)
C=c1c(C)c/c(=C\c2[nH]c(=O)[n-]c2[O-])n1Cc1ccccc1C(=O)[O-] (cis-trans isomerization)
C=c1c(C)c/c(=C\c2[nH]c(=O)[n-]c2[O-])n1Cc1ccccc1C(=O)[O-] (3D coordinates assigned)
C=c1c(C)c/c(=C\c2[nH]c(=O)[n-]c2[O-])n1Cc1ccccc1C(=O)[O-] (optimized conformer: 114.54504807741608 kcal/mol)

>  <smiles>  (33) 
C=c1c(C)cc(=Cc2[nH]c(=O)[nH]c2O)n1Cc1ccccc1C(=O)O

>  <score_type>  (33) 
oracle

>  <origin>  (33) 
adg

>  <m_score__min__energy>  (33) 
-15.65

>  <m_primary>  (33) 
energy

$$$$
33:0
     RDKit          3D

 51 53  0  0  0  0  0  0  0  0999 V2000
   64.6270   31.7720   51.3640 C   0  0  0  0  0  0  0  0  0  0  0  0
   64.5040   32.5620   50.0940 C   0  0  0  0  0  0  0  0  0  0  0  0
   65.5310   32.7090   49.3770 O   0  0  0  0  0  0  0  0  0  0  0  0
   63.2450   33.1500   49.6920 N   0  0  0  0  0  0  0  0  0  0  0  0
   62.0890   33.1190   50.6060 C   0  0  0  0  0  0  0  0  0  0  0  0
   60.8850   33.8640   50.0210 C   0  0  0  0  0  0  0  0  0  0  0  0
   60.6810   33.4500   48.6270 N   0  0  0  0  0  0  0  0  0  0  0  0
   59.4450   32.8250   48.2330 C   0  0  0  0  0  0  0  0  0  0  0  0
   58.8460   32.0660   49.0450 O   0  0  0  0  0  0  0  0  0  0  0  0
   58.8740   33.0300   46.8850 C   0  0  0  0  0  0  0  0  0  0  0  0
   59.2170   34.1650   46.1320 C   0  0  0  0  0  0  0  0  0  0  0  0
   58.6570   34.3700   44.8700 C   0  0  0  0  0  0  0  0  0  0  0  0
   57.7490   33.4460   44.3470 C   0  0  0  0  0  0  0  0  0  0  0  0
   57.3990   32.3030   45.0770 C   0  0  0  0  0  0  0  0  0  0  0  0
   56.4460   31.3920   44.5090 N   0  0  0  0  0  0  0  0  0  0  0  0
   56.4140   29.9680   44.6710 C   0  0  0  0  0  0  0  0  0  0  0  0
   55.3150   29.3640   44.8050 O   0  0  0  0  0  0  0  0  0  0  0  0
   57.6500   29.2420   44.6870 N   0  0  0  0  0  0  0  0  0  0  0  0
   57.7790   27.8610   45.0670 C   0  0  0  0  0  0  0  0  0  0  0  0
   57.7980   26.8310   44.1090 C   0  0  0  0  0  0  0  0  0  0  0  0
   57.9000   25.4950   44.5090 C   0  0  0  0  0  0  0  0  0  0  0  0
   57.9800   25.1670   45.8700 C   0  0  0  0  0  0  0  0  0  0  0  0
   58.0450   23.7290   46.2930 C   0  0  0  0  0  0  0  0  0  0  0  0
   57.9220   26.1880   46.8290 C   0  0  0  0  0  0  0  0  0  0  0  0
   57.8230   27.5250   46.4290 C   0  0  0  0  0  0  0  0  0  0  0  0
   57.9460   32.1120   46.3610 C   0  0  0  0  0  0  0  0  0  0  0  0
   61.8230   33.4490   47.6980 C   0  0  0  0  0  0  0  0  0  0  0  0
   63.1280   33.8470   48.4000 C   0  0  0  0  0  0  0  0  0  0  0  0
   64.5220   32.4462   52.2268 H   0  0  0  0  0  0  0  0  0  0  0  0
   63.8371   31.0072   51.3980 H   0  0  0  0  0  0  0  0  0  0  0  0
   65.6120   31.2835   51.3980 H   0  0  0  0  0  0  0  0  0  0  0  0
   61.8063   32.0717   50.7880 H   0  0  0  0  0  0  0  0  0  0  0  0
   62.3788   33.6172   51.5429 H   0  0  0  0  0  0  0  0  0  0  0  0
   59.9862   33.6264   50.6090 H   0  0  0  0  0  0  0  0  0  0  0  0
   61.0722   34.9473   50.0573 H   0  0  0  0  0  0  0  0  0  0  0  0
   59.9308   34.8963   46.5391 H   0  0  0  0  0  0  0  0  0  0  0  0
   58.9312   35.2609   44.2860 H   0  0  0  0  0  0  0  0  0  0  0  0
   57.3058   33.6173   43.3549 H   0  0  0  0  0  0  0  0  0  0  0  0
   58.4950   29.7320   44.3160 H   0  0  0  0  0  0  0  0  0  0  0  0
   57.7322   27.0780   43.0391 H   0  0  0  0  0  0  0  0  0  0  0  0
   57.9176   24.6971   43.7520 H   0  0  0  0  0  0  0  0  0  0  0  0
   58.0477   23.6697   47.3914 H   0  0  0  0  0  0  0  0  0  0  0  0
   57.1703   23.1910   45.8989 H   0  0  0  0  0  0  0  0  0  0  0  0
   58.9647   23.2721   45.8989 H   0  0  0  0  0  0  0  0  0  0  0  0
   57.9544   25.9371   47.8995 H   0  0  0  0  0  0  0  0  0  0  0  0
   57.7793   28.3196   47.1884 H   0  0  0  0  0  0  0  0  0  0  0  0
   57.6452   31.2386   46.9582 H   0  0  0  0  0  0  0  0  0  0  0  0
   61.9387   32.4394   47.2768 H   0  0  0  0  0  0  0  0  0  0  0  0
   61.6213   34.1863   46.9070 H   0  0  0  0  0  0  0  0  0  0  0  0
   63.9814   33.5744   47.7618 H   0  0  0  0  0  0  0  0  0  0  0  0
   63.1227   34.9326   48.5776 H   0  0  0  0  0  0  0  0  0  0  0  0
  1  2  1  0
  2  3  2  0
  2  4  1  0
  4  5  1  0
  5  6  1  0
  6  7  1  0
  7  8  1  0
  8  9  2  0
  8 10  1  0
 10 11  2  0
 11 12  1  0
 12 13  2  0
 13 14  1  0
 14 15  1  0
 15 16  1  0
 16 17  2  0
 16 18  1  0
 18 19  1  0
 19 20  2  0
 20 21  1  0
 21 22  2  0
 22 23  1  0
 22 24  1  0
 24 25  2  0
 14 26  2  0
  7 27  1  0
 27 28  1  0
 28  4  1  0
 26 10  1  0
 25 19  1  0
  1 29  1  0
  1 30  1  0
  1 31  1  0
  5 32  1  0
  5 33  1  0
  6 34  1  0
  6 35  1  0
 11 36  1  0
 12 37  1  0
 13 38  1  0
 18 39  1  0
 20 40  1  0
 21 41  1  0
 23 42  1  0
 23 43  1  0
 23 44  1  0
 24 45  1  0
 25 46  1  0
 26 47  1  0
 27 48  1  0
 27 49  1  0
 28 50  1  0
 28 51  1  0
M  CHG  1  15  -1
M  END
>  <UniqueID>  (34) 
32

>  <SMILES>  (34) 
CC(=O)N1CCN(C(=O)c2cccc([N-]C(=O)Nc3ccc(C)cc3)c2)CC1

>  <Energy>  (34) 
63.13317017368776

>  <Genealogy>  (34) 
CC(=O)N1CCN(C(=O)c2cccc([N-]C(=O)Nc3ccc(C)cc3)c2)CC1 (protonated)
CC(=O)N1CCN(C(=O)c2cccc([N-]C(=O)Nc3ccc(C)cc3)c2)CC1 (3D coordinates assigned)
CC(=O)N1CCN(C(=O)c2cccc([N-]C(=O)Nc3ccc(C)cc3)c2)CC1 (nonaromatic ring conformer: 63.13317017368776 kcal/mol)

>  <smiles>  (34) 
CC(=O)N1CCN(C(=O)c2cccc(NC(=O)Nc3ccc(C)cc3)c2)CC1

>  <score_type>  (34) 
oracle

>  <origin>  (34) 
adg

>  <m_score__min__energy>  (34) 
-10.449999999999999

>  <m_primary>  (34) 
energy

$$$$
34:0
     RDKit          3D

 45 46  0  0  0  0  0  0  0  0999 V2000
   57.7970   32.3380   41.2160 C   0  0  0  0  0  0  0  0  0  0  0  0
   57.0110   31.1400   42.3380 S   0  0  0  0  0  0  0  0  0  0  0  0
   57.7550   31.8540   43.8150 C   0  0  0  0  0  0  0  0  0  0  0  0
   58.4430   33.0670   43.7010 C   0  0  0  0  0  0  0  0  0  0  0  0
   58.9920   33.6780   44.8300 C   0  0  0  0  0  0  0  0  0  0  0  0
   58.8580   33.0790   46.0890 C   0  0  0  0  0  0  0  0  0  0  0  0
   59.5150   33.8610   47.5240 S   0  0  0  0  0  0  0  0  0  0  0  0
   59.0680   35.2960   47.5520 O   0  0  0  0  0  0  0  0  0  0  0  0
   58.9990   33.1740   48.7590 O   0  0  0  0  0  0  0  0  0  0  0  0
   61.2580   33.7920   47.4710 N   0  0  0  0  0  0  0  0  0  0  0  0
   61.7400   32.4460   47.1550 C   0  0  0  0  0  0  0  0  0  0  0  0
   63.1240   32.3220   47.7760 C   0  0  0  0  0  0  0  0  0  0  0  0
   63.1990   33.4230   48.8260 C   0  0  0  0  0  0  0  0  0  0  0  0
   61.8560   34.1370   48.7620 C   0  0  0  0  0  0  0  0  0  0  0  0
   58.1670   31.8680   46.2100 C   0  0  0  0  0  0  0  0  0  0  0  0
   57.6340   31.2350   45.0770 C   0  0  0  0  0  0  0  0  0  0  0  0
   56.9300   29.9510   45.2430 C   0  0  0  0  0  0  0  0  0  0  0  0
   55.7590   29.8330   44.7980 O   0  0  0  0  0  0  0  0  0  0  0  0
   57.5380   28.8380   45.9110 N   0  0  0  0  0  0  0  0  0  0  0  0
   58.9670   28.5320   45.9060 C   0  0  0  0  0  0  0  0  0  0  0  0
   59.4750   28.2440   44.4860 C   0  0  0  0  0  0  0  0  0  0  0  0
   58.5450   27.3180   43.6920 C   0  0  0  0  0  0  0  0  0  0  0  0
   57.4410   28.0280   43.1970 O   0  0  0  0  0  0  0  0  0  0  0  0
   58.3061   33.1140   41.8065 H   0  0  0  0  0  0  0  0  0  0  0  0
   58.5309   31.8194   40.5817 H   0  0  0  0  0  0  0  0  0  0  0  0
   57.0290   32.8048   40.5817 H   0  0  0  0  0  0  0  0  0  0  0  0
   58.5521   33.5425   42.7151 H   0  0  0  0  0  0  0  0  0  0  0  0
   59.5309   34.6318   44.7305 H   0  0  0  0  0  0  0  0  0  0  0  0
   61.5970   34.4620   46.7410 H   0  0  0  0  0  0  0  0  0  0  0  0
   61.0636   31.6908   47.5818 H   0  0  0  0  0  0  0  0  0  0  0  0
   61.7774   32.2834   46.0677 H   0  0  0  0  0  0  0  0  0  0  0  0
   63.2480   31.3346   48.2448 H   0  0  0  0  0  0  0  0  0  0  0  0
   63.9196   32.4214   47.0229 H   0  0  0  0  0  0  0  0  0  0  0  0
   63.3578   32.9913   49.8252 H   0  0  0  0  0  0  0  0  0  0  0  0
   64.0366   34.1107   48.6376 H   0  0  0  0  0  0  0  0  0  0  0  0
   61.2070   33.7985   49.5831 H   0  0  0  0  0  0  0  0  0  0  0  0
   61.9810   35.2253   48.8623 H   0  0  0  0  0  0  0  0  0  0  0  0
   58.0407   31.4087   47.2015 H   0  0  0  0  0  0  0  0  0  0  0  0
   59.5181   29.3914   46.3155 H   0  0  0  0  0  0  0  0  0  0  0  0
   59.1302   27.6340   46.5200 H   0  0  0  0  0  0  0  0  0  0  0  0
   59.5643   29.1980   43.9457 H   0  0  0  0  0  0  0  0  0  0  0  0
   60.4445   27.7331   44.5812 H   0  0  0  0  0  0  0  0  0  0  0  0
   59.1022   26.8836   42.8489 H   0  0  0  0  0  0  0  0  0  0  0  0
   58.1828   26.5233   44.3608 H   0  0  0  0  0  0  0  0  0  0  0  0
   56.8110   28.1440   43.9550 H   0  0  0  0  0  0  0  0  0  0  0  0
  1  2  1  0
  2  3  1  0
  3  4  2  0
  4  5  1  0
  5  6  2  0
  6  7  1  0
  7  8  2  0
  7  9  2  0
  7 10  1  0
 10 11  1  0
 11 12  1  0
 12 13  1  0
 13 14  1  0
  6 15  1  0
 15 16  2  0
 16 17  1  0
 17 18  2  0
 17 19  1  0
 19 20  1  0
 20 21  1  0
 21 22  1  0
 22 23  1  0
 16  3  1  0
 14 10  1  0
  1 24  1  0
  1 25  1  0
  1 26  1  0
  4 27  1  0
  5 28  1  0
 10 29  1  0
 11 30  1  0
 11 31  1  0
 12 32  1  0
 12 33  1  0
 13 34  1  0
 13 35  1  0
 14 36  1  0
 14 37  1  0
 15 38  1  0
 20 39  1  0
 20 40  1  0
 21 41  1  0
 21 42  1  0
 22 43  1  0
 22 44  1  0
 23 45  1  0
M  CHG  2  10   1  19  -1
M  END
>  <UniqueID>  (35) 
33

>  <SMILES>  (35) 
CSc1ccc(S(=O)(=O)[NH+]2CCCC2)cc1C(=O)[N-]CCCO

>  <Energy>  (35) 
41.45415603946938

>  <Genealogy>  (35) 
CSc1ccc(S(=O)(=O)[NH+]2CCCC2)cc1C(=O)[N-]CCCO (protonated)
CSc1ccc(S(=O)(=O)[NH+]2CCCC2)cc1C(=O)[N-]CCCO (3D coordinates assigned)
CSc1ccc(S(=O)(=O)[NH+]2CCCC2)cc1C(=O)[N-]CCCO (nonaromatic ring conformer: 41.45415603946938 kcal/mol)

>  <smiles>  (35) 
CSc1ccc(S(=O)(=O)N2CCCC2)cc1C(=O)NCCCO

>  <score_type>  (35) 
oracle

>  <origin>  (35) 
adg

>  <m_score__min__energy>  (35) 
-8.8000000000000007

>  <m_primary>  (35) 
energy

$$$$
35:0
     RDKit          3D

 54 55  0  0  1  0  0  0  0  0999 V2000
   58.9030   31.5570   49.3740 C   0  0  0  0  0  0  0  0  0  0  0  0
   59.2520   30.3620   48.5880 C   0  0  0  0  0  0  0  0  0  0  0  0
   60.6460   30.0020   48.4940 N   0  0  0  0  0  0  0  0  0  0  0  0
   61.4980   30.8850   49.2570 C   0  0  0  0  0  0  0  0  0  0  0  0
   62.3400   31.7730   48.3950 C   0  0  0  0  0  0  0  0  0  0  0  0
   60.7540   28.6530   49.0600 C   0  0  0  0  0  0  0  0  0  0  0  0
   60.2370   27.5900   48.2030 C   0  0  0  0  0  0  0  0  0  0  0  0
   60.0230   26.4550   48.7450 O   0  0  0  0  0  0  0  0  0  0  0  0
   59.9410   27.6810   46.8230 N   0  0  0  0  0  0  0  0  0  0  0  0
   58.7000   27.6320   46.4310 C   0  0  0  0  0  0  0  0  0  0  0  0
   58.2320   28.6950   45.6840 C   0  0  0  0  0  0  0  0  0  0  0  0
   56.9160   28.6290   45.2720 C   0  0  0  0  0  0  0  0  0  0  0  0
   56.3150   29.6840   44.4910 N   0  0  0  0  0  0  0  0  0  0  0  0
   56.9600   30.7660   44.2320 C   0  0  0  0  0  0  0  0  0  0  0  0
   57.4370   31.5490   45.2090 N   0  0  0  0  0  0  0  0  0  0  0  0
   58.1050   32.6680   44.8630 C   0  0  0  0  0  0  0  0  0  0  0  0
   58.6710   33.6050   45.8690 C   0  0  0  0  0  0  0  0  0  0  0  0
   59.9780   33.1520   46.4440 C   0  0  0  0  0  0  0  0  0  0  0  0
   58.8860   34.9660   45.2020 C   0  0  0  0  0  0  0  0  0  0  0  0
   57.6930   33.8330   47.0010 C   0  0  0  0  0  0  0  0  0  0  0  0
   58.2850   32.9870   43.5390 C   0  0  0  0  0  0  0  0  0  0  0  0
   57.7890   32.1740   42.5290 C   0  0  0  0  0  0  0  0  0  0  0  0
   57.1310   31.0710   42.9270 N   0  0  0  0  0  0  0  0  0  0  0  0
   56.1260   27.5600   45.5940 N   0  0  0  0  0  0  0  0  0  0  0  0
   56.6140   26.5340   46.3280 C   0  0  0  0  0  0  0  0  0  0  0  0
   55.8960   25.5330   46.6360 O   0  0  0  0  0  0  0  0  0  0  0  0
   57.8940   26.5940   46.7310 N   0  0  0  0  0  0  0  0  0  0  0  0
   58.9713   31.3231   50.4467 H   0  0  0  0  0  0  0  0  0  0  0  0
   59.6006   32.3721   49.1313 H   0  0  0  0  0  0  0  0  0  0  0  0
   57.8763   31.8686   49.1313 H   0  0  0  0  0  0  0  0  0  0  0  0
   58.7222   29.5084   49.0360 H   0  0  0  0  0  0  0  0  0  0  0  0
   58.9608   30.6136   47.5575 H   0  0  0  0  0  0  0  0  0  0  0  0
   60.8648   31.5162   49.8977 H   0  0  0  0  0  0  0  0  0  0  0  0
   62.1803   30.2557   49.8472 H   0  0  0  0  0  0  0  0  0  0  0  0
   62.9572   32.4239   49.0317 H   0  0  0  0  0  0  0  0  0  0  0  0
   62.9925   31.1559   47.7599 H   0  0  0  0  0  0  0  0  0  0  0  0
   61.6890   32.3918   47.7599 H   0  0  0  0  0  0  0  0  0  0  0  0
   61.8166   28.4480   49.2574 H   0  0  0  0  0  0  0  0  0  0  0  0
   60.1365   28.6470   49.9703 H   0  0  0  0  0  0  0  0  0  0  0  0
   58.8750   29.5507   45.4302 H   0  0  0  0  0  0  0  0  0  0  0  0
   59.9218   33.1715   47.5424 H   0  0  0  0  0  0  0  0  0  0  0  0
   60.1918   32.1273   46.1059 H   0  0  0  0  0  0  0  0  0  0  0  0
   60.7801   33.8246   46.1059 H   0  0  0  0  0  0  0  0  0  0  0  0
   59.0080   35.7383   45.9757 H   0  0  0  0  0  0  0  0  0  0  0  0
   59.7894   34.9287   44.5755 H   0  0  0  0  0  0  0  0  0  0  0  0
   58.0151   35.2090   44.5755 H   0  0  0  0  0  0  0  0  0  0  0  0
   58.2116   33.7121   47.9635 H   0  0  0  0  0  0  0  0  0  0  0  0
   57.2822   34.8510   46.9312 H   0  0  0  0  0  0  0  0  0  0  0  0
   56.8743   33.1016   46.9312 H   0  0  0  0  0  0  0  0  0  0  0  0
   58.8323   33.9037   43.2742 H   0  0  0  0  0  0  0  0  0  0  0  0
   57.9263   32.4179   41.4652 H   0  0  0  0  0  0  0  0  0  0  0  0
   56.7580   30.4580   42.1580 H   0  0  0  0  0  0  0  0  0  0  0  0
   55.1410   27.4880   45.2990 H   0  0  0  0  0  0  0  0  0  0  0  0
   58.2590   25.7920   47.2970 H   0  0  0  0  0  0  0  0  0  0  0  0
  1  2  1  0
  2  3  1  0
  3  4  1  0
  4  5  1  0
  3  6  1  0
  6  7  1  0
  7  8  2  0
  7  9  1  0
  9 10  2  0
 10 11  1  0
 11 12  2  0
 12 13  1  0
 13 14  2  0
 14 15  1  0
 15 16  2  0
 16 17  1  0
 17 18  1  0
 17 19  1  0
 17 20  1  0
 16 21  1  0
 21 22  2  0
 22 23  1  0
 12 24  1  0
 24 25  1  0
 25 26  2  0
 25 27  1  0
 27 10  1  0
 23 14  1  0
  1 28  1  0
  1 29  1  0
  1 30  1  0
  2 31  1  0
  2 32  1  0
  4 33  1  0
  4 34  1  0
  5 35  1  0
  5 36  1  0
  5 37  1  0
  6 38  1  0
  6 39  1  0
 11 40  1  0
 18 41  1  0
 18 42  1  0
 18 43  1  0
 19 44  1  0
 19 45  1  0
 19 46  1  0
 20 47  1  0
 20 48  1  0
 20 49  1  0
 21 50  1  0
 22 51  1  0
 23 52  1  0
 24 53  1  0
 27 54  1  0
M  END
>  <smiles>  (36) 
CCN(CC)CC(=O)N=c1cc(N=c2nc(C(C)(C)C)cc[nH]2)[nH]c(=O)[nH]1

>  <score_type>  (36) 
oracle

>  <origin>  (36) 
adg

>  <m_score__min__energy>  (36) 
-8.2100000000000009

>  <m_primary>  (36) 
energy

$$$$
36:0
     RDKit          3D

 56 59  0  0  0  0  0  0  0  0999 V2000
   56.5405   27.9922   44.8030 H   0  0  0  0  0  0  0  0  0  0  0  0
   57.1460   28.8770   45.0490 C   0  0  0  0  0  0  0  0  0  0  0  0
   56.6200   30.1200   44.8980 N   0  0  0  0  0  0  0  0  0  0  0  0
   57.3400   31.2310   45.1960 C   0  0  0  0  0  0  0  0  0  0  0  0
   56.8010   32.4030   45.0350 N   0  0  0  0  0  0  0  0  0  0  0  0
   57.3380   33.6550   45.5760 C   0  0  0  0  0  0  0  0  0  0  0  0
   56.5508   34.4230   45.5964 H   0  0  0  0  0  0  0  0  0  0  0  0
   58.4690   34.2020   44.6700 C   0  0  0  0  0  0  0  0  0  0  0  0
   58.3727   35.2955   44.6000 H   0  0  0  0  0  0  0  0  0  0  0  0
   58.3720   33.7343   43.6791 H   0  0  0  0  0  0  0  0  0  0  0  0
   59.8540   33.8600   45.2270 C   0  0  0  0  0  0  0  0  0  0  0  0
   60.6218   34.2420   44.5381 H   0  0  0  0  0  0  0  0  0  0  0  0
   59.9289   32.7669   45.3251 H   0  0  0  0  0  0  0  0  0  0  0  0
   60.0600   34.4640   46.5610 N   0  0  0  0  0  0  0  0  0  0  0  0
   61.4440   33.7410   47.3480 S   0  0  0  0  0  0  0  0  0  0  0  0
   61.3540   32.2440   47.2490 O   0  0  0  0  0  0  0  0  0  0  0  0
   62.6970   34.1950   46.6540 O   0  0  0  0  0  0  0  0  0  0  0  0
   61.5430   34.1990   49.0690 C   0  0  0  0  0  0  0  0  0  0  0  0
   61.3519   33.3151   49.6952 H   0  0  0  0  0  0  0  0  0  0  0  0
   62.5469   34.5924   49.2866 H   0  0  0  0  0  0  0  0  0  0  0  0
   60.7912   34.9719   49.2866 H   0  0  0  0  0  0  0  0  0  0  0  0
   58.8640   34.4550   47.4390 C   0  0  0  0  0  0  0  0  0  0  0  0
   58.3968   35.4503   47.4052 H   0  0  0  0  0  0  0  0  0  0  0  0
   59.2020   34.1943   48.4528 H   0  0  0  0  0  0  0  0  0  0  0  0
   57.8200   33.4100   47.0200 C   0  0  0  0  0  0  0  0  0  0  0  0
   56.9585   33.4697   47.7013 H   0  0  0  0  0  0  0  0  0  0  0  0
   58.2836   32.4137   47.0693 H   0  0  0  0  0  0  0  0  0  0  0  0
   58.6130   31.1020   45.6600 N   0  0  0  0  0  0  0  0  0  0  0  0
   59.1800   29.8810   45.8290 C   0  0  0  0  0  0  0  0  0  0  0  0
   60.2084   29.8030   46.2114 H   0  0  0  0  0  0  0  0  0  0  0  0
   58.4600   28.7170   45.5180 C   0  0  0  0  0  0  0  0  0  0  0  0
   59.0760   27.3780   45.7130 C   0  0  0  0  0  0  0  0  0  0  0  0
   58.3560   26.2640   45.4030 N   0  0  0  0  0  0  0  0  0  0  0  0
   58.8650   25.0130   45.5610 C   0  0  0  0  0  0  0  0  0  0  0  0
   58.1210   23.9860   45.2710 N   0  0  0  0  0  0  0  0  0  0  0  0
   56.7050   23.9890   45.0180 C   0  0  0  0  0  0  0  0  0  0  0  0
   56.2340   23.4280   43.8240 C   0  0  0  0  0  0  0  0  0  0  0  0
   56.9482   23.0215   43.0928 H   0  0  0  0  0  0  0  0  0  0  0  0
   54.8640   23.3810   43.5550 C   0  0  0  0  0  0  0  0  0  0  0  0
   54.5060   22.9510   42.6079 H   0  0  0  0  0  0  0  0  0  0  0  0
   53.9450   23.8790   44.4860 C   0  0  0  0  0  0  0  0  0  0  0  0
   52.2180   23.7960   44.1490 S   0  0  0  0  0  0  0  0  0  0  0  0
   51.6380   22.5670   44.7910 O   0  0  0  0  0  0  0  0  0  0  0  0
   51.9870   23.7180   42.6650 O   0  0  0  0  0  0  0  0  0  0  0  0
   51.4340   25.2030   44.7780 N   0  0  0  0  0  0  0  0  0  0  0  0
   52.1700   25.7800   45.2420 H   0  0  0  0  0  0  0  0  0  0  0  0
   51.0920   25.7520   43.9580 H   0  0  0  0  0  0  0  0  0  0  0  0
   54.4070   24.4060   45.7000 C   0  0  0  0  0  0  0  0  0  0  0  0
   53.6884   24.7814   46.4434 H   0  0  0  0  0  0  0  0  0  0  0  0
   55.7780   24.4560   45.9690 C   0  0  0  0  0  0  0  0  0  0  0  0
   56.1338   24.8618   46.9275 H   0  0  0  0  0  0  0  0  0  0  0  0
   60.1210   24.8590   46.0610 N   0  0  0  0  0  0  0  0  0  0  0  0
   60.8790   25.9340   46.3930 C   0  0  0  0  0  0  0  0  0  0  0  0
   61.8942   25.7889   46.7910 H   0  0  0  0  0  0  0  0  0  0  0  0
   60.3720   27.2230   46.2300 C   0  0  0  0  0  0  0  0  0  0  0  0
   60.9760   28.1014   46.5013 H   0  0  0  0  0  0  0  0  0  0  0  0
  1  2  1  0
  2  3  2  0
  3  4  1  0
  4  5  2  3
  5  6  1  0
  6  7  1  0
  6  8  1  0
  8  9  1  0
  8 10  1  0
  8 11  1  0
 11 12  1  0
 11 13  1  0
 11 14  1  0
 14 15  1  0
 15 16  2  0
 15 17  2  0
 15 18  1  0
 18 19  1  0
 18 20  1  0
 18 21  1  0
 14 22  1  0
 22 23  1  0
 22 24  1  0
 22 25  1  0
 25 26  1  0
 25 27  1  0
  4 28  1  0
 28 29  1  0
 29 30  1  0
 29 31  2  0
 31 32  1  0
 32 33  2  0
 33 34  1  0
 34 35  2  0
 35 36  1  0
 36 37  2  0
 37 38  1  0
 37 39  1  0
 39 40  1  0
 39 41  2  0
 41 42  1  0
 42 43  2  0
 42 44  2  0
 42 45  1  0
 45 46  1  0
 45 47  1  0
 41 48  1  0
 48 49  1  0
 48 50  2  0
 50 51  1  0
 34 52  1  0
 52 53  1  0
 53 54  1  0
 53 55  2  0
 55 56  1  0
 31  2  1  0
 55 32  1  0
 25  6  1  0
 50 36  1  0
M  CHG  2  28  -1  52  -1
M  END
>  <UniqueID>  (37) 
34

>  <SMILES>  (37) 
CS(=O)(=O)N1CCC(N=c2ncc(-c3cc[n-]/c(=N\c4ccc(S(N)(=O)=O)cc4)n3)c[n-]2)CC1

>  <Energy>  (37) 
71.96417609527784

>  <Genealogy>  (37) 
CS(=O)(=O)N1CCC(N=c2ncc(-c3cc[n-]c(=Nc4ccc(S(N)(=O)=O)cc4)n3)c[n-]2)CC1 (protonated)
CS(=O)(=O)N1CCC(N=c2ncc(-c3cc[n-]/c(=N\c4ccc(S(N)(=O)=O)cc4)n3)c[n-]2)CC1 (cis-trans isomerization)
CS(=O)(=O)N1CCC(N=c2ncc(-c3cc[n-]/c(=N\c4ccc(S(N)(=O)=O)cc4)n3)c[n-]2)CC1 (3D coordinates assigned)
CS(=O)(=O)N1CCC(N=c2ncc(-c3cc[n-]/c(=N\c4ccc(S(N)(=O)=O)cc4)n3)c[n-]2)CC1 (nonaromatic ring conformer: 71.96417609527784 kcal/mol)

>  <smiles>  (37) 
CS(=O)(=O)N1CCC(N=c2ncc(-c3cc[nH]c(=Nc4ccc(S(N)(=O)=O)cc4)n3)c[nH]2)CC1

>  <score_type>  (37) 
oracle

>  <origin>  (37) 
adg

>  <m_score__min__energy>  (37) 
-12.06

>  <m_primary>  (37) 
energy

$$$$
37:0
     RDKit          3D

 56 59  0  0  0  0  0  0  0  0999 V2000
   57.2710   23.1510   46.1370 C   0  0  0  0  0  0  0  0  0  0  0  0
   56.6570   24.3700   46.7530 C   0  0  0  0  0  0  0  0  0  0  0  0
   55.4050   24.4650   46.8200 O   0  0  0  0  0  0  0  0  0  0  0  0
   57.4660   25.4560   47.2230 N   0  0  0  0  0  0  0  0  0  0  0  0
   57.7300   26.6520   46.4790 C   0  0  0  0  0  0  0  0  0  0  0  0
   59.0570   27.0640   46.3050 C   0  0  0  0  0  0  0  0  0  0  0  0
   59.3480   28.2380   45.6040 C   0  0  0  0  0  0  0  0  0  0  0  0
   58.3100   29.0020   45.0540 C   0  0  0  0  0  0  0  0  0  0  0  0
   58.5790   30.1860   44.3580 C   0  0  0  0  0  0  0  0  0  0  0  0
   57.5210   30.9670   43.8580 C   0  0  0  0  0  0  0  0  0  0  0  0
   57.7720   32.2660   43.1860 C   0  0  0  0  0  0  0  0  0  0  0  0
   57.3300   32.4540   42.0180 O   0  0  0  0  0  0  0  0  0  0  0  0
   58.5360   33.3130   43.8070 N   0  0  0  0  0  0  0  0  0  0  0  0
   58.7220   33.4890   45.2170 C   0  0  0  0  0  0  0  0  0  0  0  0
   57.7860   33.0050   46.1470 C   0  0  0  0  0  0  0  0  0  0  0  0
   58.0500   33.0910   47.5170 C   0  0  0  0  0  0  0  0  0  0  0  0
   59.2550   33.6500   47.9750 C   0  0  0  0  0  0  0  0  0  0  0  0
   59.5960   33.6360   49.4100 C   0  0  0  0  0  0  0  0  0  0  0  0
   60.5460   34.3530   49.8150 O   0  0  0  0  0  0  0  0  0  0  0  0
   58.9140   32.7730   50.3400 N   0  0  0  0  0  0  0  0  0  0  0  0
   58.8620   33.1370   51.7610 C   0  0  0  0  0  0  0  0  0  0  0  0
   57.5650   32.6080   52.3880 C   0  0  0  0  0  0  0  0  0  0  0  0
   57.2940   31.1730   52.0860 N   0  0  0  0  0  0  0  0  0  0  0  0
   55.9080   30.9670   51.6300 C   0  0  0  0  0  0  0  0  0  0  0  0
   58.2670   30.5300   51.1750 C   0  0  0  0  0  0  0  0  0  0  0  0
   58.5760   31.3960   49.9470 C   0  0  0  0  0  0  0  0  0  0  0  0
   60.1430   34.2210   47.0470 C   0  0  0  0  0  0  0  0  0  0  0  0
   59.8740   34.1410   45.6780 C   0  0  0  0  0  0  0  0  0  0  0  0
   56.2060   30.4920   44.0060 C   0  0  0  0  0  0  0  0  0  0  0  0
   55.9660   29.3310   44.6670 N   0  0  0  0  0  0  0  0  0  0  0  0
   56.9700   28.5780   45.2010 C   0  0  0  0  0  0  0  0  0  0  0  0
   56.6810   27.3890   45.8970 C   0  0  0  0  0  0  0  0  0  0  0  0
   55.3710   26.9150   45.9970 O   0  0  0  0  0  0  0  0  0  0  0  0
   57.6133   22.4715   46.9315 H   0  0  0  0  0  0  0  0  0  0  0  0
   56.5232   22.6390   45.5135 H   0  0  0  0  0  0  0  0  0  0  0  0
   58.1275   23.4471   45.5135 H   0  0  0  0  0  0  0  0  0  0  0  0
   59.8759   26.4599   46.7227 H   0  0  0  0  0  0  0  0  0  0  0  0
   60.3923   28.5622   45.4841 H   0  0  0  0  0  0  0  0  0  0  0  0
   59.6196   30.5066   44.2016 H   0  0  0  0  0  0  0  0  0  0  0  0
   56.8442   32.5578   45.7963 H   0  0  0  0  0  0  0  0  0  0  0  0
   57.3100   32.7188   48.2408 H   0  0  0  0  0  0  0  0  0  0  0  0
   59.7251   32.6970   52.2821 H   0  0  0  0  0  0  0  0  0  0  0  0
   58.8897   34.2326   51.8557 H   0  0  0  0  0  0  0  0  0  0  0  0
   57.6338   32.7260   53.4795 H   0  0  0  0  0  0  0  0  0  0  0  0
   56.7381   33.1892   51.9538 H   0  0  0  0  0  0  0  0  0  0  0  0
   55.2457   30.8686   52.5027 H   0  0  0  0  0  0  0  0  0  0  0  0
   55.5898   31.8277   51.0234 H   0  0  0  0  0  0  0  0  0  0  0  0
   55.8539   30.0509   51.0234 H   0  0  0  0  0  0  0  0  0  0  0  0
   59.2022   30.3509   51.7258 H   0  0  0  0  0  0  0  0  0  0  0  0
   57.8232   29.5884   50.8194 H   0  0  0  0  0  0  0  0  0  0  0  0
   59.4267   30.9585   49.4040 H   0  0  0  0  0  0  0  0  0  0  0  0
   57.6819   31.4254   49.3069 H   0  0  0  0  0  0  0  0  0  0  0  0
   61.0514   34.7318   47.3990 H   0  0  0  0  0  0  0  0  0  0  0  0
   60.5712   34.5929   44.9571 H   0  0  0  0  0  0  0  0  0  0  0  0
   55.3670   31.0645   43.5837 H   0  0  0  0  0  0  0  0  0  0  0  0
   55.0600   26.3400   46.7710 H   0  0  0  0  0  0  0  0  0  0  0  0
  1  2  1  0
  2  3  2  0
  2  4  1  0
  4  5  1  0
  5  6  2  0
  6  7  1  0
  7  8  2  0
  8  9  1  0
  9 10  2  0
 10 11  1  0
 11 12  2  0
 11 13  1  0
 13 14  1  0
 14 15  2  0
 15 16  1  0
 16 17  2  0
 17 18  1  0
 18 19  2  0
 18 20  1  0
 20 21  1  0
 21 22  1  0
 22 23  1  0
 23 24  1  0
 23 25  1  0
 25 26  1  0
 17 27  1  0
 27 28  2  0
 10 29  1  0
 29 30  2  0
 30 31  1  0
 31 32  2  0
 32 33  1  0
 32  5  1  0
 31  8  1  0
 28 14  1  0
 26 20  1  0
  1 34  1  0
  1 35  1  0
  1 36  1  0
  6 37  1  0
  7 38  1  0
  9 39  1  0
 15 40  1  0
 16 41  1  0
 21 42  1  0
 21 43  1  0
 22 44  1  0
 22 45  1  0
 24 46  1  0
 24 47  1  0
 24 48  1  0
 25 49  1  0
 25 50  1  0
 26 51  1  0
 26 52  1  0
 27 53  1  0
 28 54  1  0
 29 55  1  0
 33 56  1  0
M  CHG  2   4  -1  13  -1
M  END
>  <UniqueID>  (38) 
35

>  <SMILES>  (38) 
CC(=O)[N-]c1ccc2cc(C(=O)[N-]c3ccc(C(=O)N4CCN(C)CC4)cc3)cnc2c1O

>  <Energy>  (38) 
86.00466889031603

>  <Genealogy>  (38) 
CC(=O)[N-]c1ccc2cc(C(=O)[N-]c3ccc(C(=O)N4CCN(C)CC4)cc3)cnc2c1O (protonated)
CC(=O)[N-]c1ccc2cc(C(=O)[N-]c3ccc(C(=O)N4CCN(C)CC4)cc3)cnc2c1O (3D coordinates assigned)
CC(=O)[N-]c1ccc2cc(C(=O)[N-]c3ccc(C(=O)N4CCN(C)CC4)cc3)cnc2c1O (nonaromatic ring conformer: 86.00466889031603 kcal/mol)

>  <smiles>  (38) 
CC(=O)Nc1ccc2cc(C(=O)Nc3ccc(C(=O)N4CCN(C)CC4)cc3)cnc2c1O

>  <score_type>  (38) 
oracle

>  <origin>  (38) 
adg

>  <m_score__min__energy>  (38) 
-14.050000000000001

>  <m_primary>  (38) 
energy

$$$$
38:0
     RDKit          3D

 61 63  0  0  0  0  0  0  0  0999 V2000
   63.4790   32.5030   48.1020 C   0  0  0  0  0  0  0  0  0  0  0  0
   62.7120   33.8290   48.0640 C   0  0  0  0  0  0  0  0  0  0  0  0
   62.2260   34.2180   49.4660 C   0  0  0  0  0  0  0  0  0  0  0  0
   61.5730   33.8450   47.0090 C   0  0  0  0  0  0  0  0  0  0  0  0
   60.1490   33.5300   47.5390 C   0  0  1  0  0  0  0  0  0  0  0  0
   59.1370   33.8990   46.5500 N   0  0  0  0  0  0  0  0  0  0  0  0
   57.7860   33.4220   46.5090 C   0  0  0  0  0  0  0  0  0  0  0  0
   57.2120   33.1210   47.5890 O   0  0  0  0  0  0  0  0  0  0  0  0
   57.1150   33.2960   45.2890 O   0  0  0  0  0  0  0  0  0  0  0  0
   57.7660   32.8840   44.0920 C   0  0  0  0  0  0  0  0  0  0  0  0
   57.6570   31.3940   43.9450 C   0  0  0  0  0  0  0  0  0  0  0  0
   56.6510   30.8390   43.1350 C   0  0  0  0  0  0  0  0  0  0  0  0
   56.5340   29.4510   43.0090 C   0  0  0  0  0  0  0  0  0  0  0  0
   57.4150   28.6090   43.6940 C   0  0  0  0  0  0  0  0  0  0  0  0
   58.4150   29.1520   44.5040 C   0  0  0  0  0  0  0  0  0  0  0  0
   58.5360   30.5390   44.6330 C   0  0  0  0  0  0  0  0  0  0  0  0
   59.9610   32.0950   47.9660 C   0  0  0  0  0  0  0  0  0  0  0  0
   59.4640   31.2740   47.1490 O   0  0  0  0  0  0  0  0  0  0  0  0
   60.4180   31.6460   49.2490 N   0  0  0  0  0  0  0  0  0  0  0  0
   59.5890   31.1580   50.3110 C   0  0  0  0  0  0  0  0  0  0  0  0
   58.4460   31.8830   50.6630 C   0  0  0  0  0  0  0  0  0  0  0  0
   57.5910   31.4180   51.6680 C   0  0  0  0  0  0  0  0  0  0  0  0
   57.8590   30.2070   52.3310 C   0  0  0  0  0  0  0  0  0  0  0  0
   56.9440   29.7030   53.3820 C   0  0  0  0  0  0  0  0  0  0  0  0
   57.3270   29.6700   54.5840 O   0  0  0  0  0  0  0  0  0  0  0  0
   55.6270   29.2460   53.0250 N   0  0  0  0  0  0  0  0  0  0  0  0
   54.6310   29.9730   52.6090 C   0  0  0  0  0  0  0  0  0  0  0  0
   53.5820   30.2680   53.4880 C   0  0  0  0  0  0  0  0  0  0  0  0
   52.5070   31.0400   53.0460 C   0  0  0  0  0  0  0  0  0  0  0  0
   52.4710   31.5060   51.7230 C   0  0  0  0  0  0  0  0  0  0  0  0
   51.3340   32.3200   51.2310 C   0  0  0  0  0  0  0  0  0  0  0  0
   51.0190   32.3050   50.0120 O   0  0  0  0  0  0  0  0  0  0  0  0
   50.6010   33.1120   52.1080 O   0  0  0  0  0  0  0  0  0  0  0  0
   53.5380   31.1840   50.8700 C   0  0  0  0  0  0  0  0  0  0  0  0
   54.5760   30.4350   51.3270 N   0  0  0  0  0  0  0  0  0  0  0  0
   58.9990   29.4700   51.9610 C   0  0  0  0  0  0  0  0  0  0  0  0
   59.8510   29.9370   50.9560 C   0  0  0  0  0  0  0  0  0  0  0  0
   63.6497   32.2080   49.1479 H   0  0  0  0  0  0  0  0  0  0  0  0
   62.8915   31.7249   47.5927 H   0  0  0  0  0  0  0  0  0  0  0  0
   64.4464   32.6243   47.5927 H   0  0  0  0  0  0  0  0  0  0  0  0
   63.4193   34.6026   47.7305 H   0  0  0  0  0  0  0  0  0  0  0  0
   62.8498   33.7187   50.2220 H   0  0  0  0  0  0  0  0  0  0  0  0
   62.3011   35.3083   49.5907 H   0  0  0  0  0  0  0  0  0  0  0  0
   61.1786   33.9059   49.5907 H   0  0  0  0  0  0  0  0  0  0  0  0
   61.5490   34.8467   46.5551 H   0  0  0  0  0  0  0  0  0  0  0  0
   61.8119   33.0359   46.3031 H   0  0  0  0  0  0  0  0  0  0  0  0
   60.0244   34.1411   48.4451 H   0  0  0  0  0  0  0  0  0  0  0  0
   57.2892   33.3725   43.2295 H   0  0  0  0  0  0  0  0  0  0  0  0
   58.8274   33.1693   44.1373 H   0  0  0  0  0  0  0  0  0  0  0  0
   55.9533   31.4987   42.5983 H   0  0  0  0  0  0  0  0  0  0  0  0
   55.7481   29.0215   42.3704 H   0  0  0  0  0  0  0  0  0  0  0  0
   57.3206   27.5175   43.5950 H   0  0  0  0  0  0  0  0  0  0  0  0
   59.1081   28.4877   45.0410 H   0  0  0  0  0  0  0  0  0  0  0  0
   59.3220   30.9630   45.2753 H   0  0  0  0  0  0  0  0  0  0  0  0
   58.2174   32.8264   50.1455 H   0  0  0  0  0  0  0  0  0  0  0  0
   56.7016   32.0045   51.9419 H   0  0  0  0  0  0  0  0  0  0  0  0
   53.6051   29.8931   54.5219 H   0  0  0  0  0  0  0  0  0  0  0  0
   51.6860   31.2838   53.7363 H   0  0  0  0  0  0  0  0  0  0  0  0
   53.5342   31.5388   49.8288 H   0  0  0  0  0  0  0  0  0  0  0  0
   59.2216   28.5188   52.4666 H   0  0  0  0  0  0  0  0  0  0  0  0
   60.7323   29.3450   50.6681 H   0  0  0  0  0  0  0  0  0  0  0  0
  1  2  1  0
  2  3  1  0
  2  4  1  0
  4  5  1  0
  5  6  1  0
  6  7  1  0
  7  8  2  0
  7  9  1  0
  9 10  1  0
 10 11  1  0
 11 12  2  0
 12 13  1  0
 13 14  2  0
 14 15  1  0
 15 16  2  0
  5 17  1  0
 17 18  2  0
 17 19  1  0
 19 20  1  0
 20 21  2  0
 21 22  1  0
 22 23  2  0
 23 24  1  0
 24 25  2  0
 24 26  1  0
 26 27  2  3
 27 28  1  0
 28 29  2  0
 29 30  1  0
 30 31  1  0
 31 32  2  0
 31 33  1  0
 30 34  2  0
 34 35  1  0
 23 36  1  0
 36 37  2  0
 16 11  1  0
 37 20  1  0
 35 27  1  0
  1 38  1  0
  1 39  1  0
  1 40  1  0
  2 41  1  0
  3 42  1  0
  3 43  1  0
  3 44  1  0
  4 45  1  0
  4 46  1  0
  5 47  1  1
 10 48  1  0
 10 49  1  0
 12 50  1  0
 13 51  1  0
 14 52  1  0
 15 53  1  0
 16 54  1  0
 21 55  1  0
 22 56  1  0
 28 57  1  0
 29 58  1  0
 34 59  1  0
 36 60  1  0
 37 61  1  0
M  CHG  4   6  -1  19  -1  33  -1  35  -1
M  END
>  <UniqueID>  (39) 
36

>  <SMILES>  (39) 
CC(C)C[C@@H]([N-]C(=O)OCc1ccccc1)C(=O)[N-]c1ccc(C(=O)N=c2ccc(C(=O)[O-])c[n-]2)cc1

>  <Energy>  (39) 
60.807539000430644

>  <Genealogy>  (39) 
CC(C)CC([N-]C(=O)OCc1ccccc1)C(=O)[N-]c1ccc(C(=O)N=c2ccc(C(=O)[O-])c[n-]2)cc1 (protonated)
CC(C)C[C@@H]([N-]C(=O)OCc1ccccc1)C(=O)[N-]c1ccc(C(=O)N=c2ccc(C(=O)[O-])c[n-]2)cc1 (chirality)
CC(C)C[C@@H]([N-]C(=O)OCc1ccccc1)C(=O)[N-]c1ccc(C(=O)N=c2ccc(C(=O)[O-])c[n-]2)cc1 (3D coordinates assigned)
CC(C)C[C@@H]([N-]C(=O)OCc1ccccc1)C(=O)[N-]c1ccc(C(=O)N=c2ccc(C(=O)[O-])c[n-]2)cc1 (optimized conformer: 60.807539000430644 kcal/mol)

>  <smiles>  (39) 
CC(C)CC(NC(=O)OCc1ccccc1)C(=O)Nc1ccc(C(=O)N=c2ccc(C(=O)O)c[nH]2)cc1

>  <score_type>  (39) 
oracle

>  <origin>  (39) 
adg

>  <m_score__min__energy>  (39) 
-15.65

>  <m_primary>  (39) 
energy

$$$$
39:0
     RDKit          3D

 55 56  0  0  0  0  0  0  0  0999 V2000
   60.7580   32.5930   47.7740 N   0  0  0  0  0  0  0  0  0  0  0  0
   60.3690   31.3590   48.4660 C   0  0  2  0  0  0  0  0  0  0  0  0
   60.5450   30.1400   47.5440 C   0  0  0  0  0  0  0  0  0  0  0  0
   59.3150   29.9030   46.7050 C   0  0  0  0  0  0  0  0  0  0  0  0
   58.5910   28.7050   46.8280 C   0  0  0  0  0  0  0  0  0  0  0  0
   57.4270   28.5070   46.0810 C   0  0  0  0  0  0  0  0  0  0  0  0
   56.9690   29.5020   45.2120 C   0  0  0  0  0  0  0  0  0  0  0  0
   55.8010   29.2950   44.4820 O   0  0  0  0  0  0  0  0  0  0  0  0
   57.6850   30.7000   45.0870 C   0  0  0  0  0  0  0  0  0  0  0  0
   58.8510   30.9010   45.8330 C   0  0  0  0  0  0  0  0  0  0  0  0
   58.9460   31.4420   48.9560 C   0  0  0  0  0  0  0  0  0  0  0  0
   58.1060   32.1570   48.3440 O   0  0  0  0  0  0  0  0  0  0  0  0
   58.5450   30.6710   50.0940 N   0  0  0  0  0  0  0  0  0  0  0  0
   59.4870   29.9450   50.9390 C   0  0  0  0  0  0  0  0  0  0  0  0
   58.9500   29.8580   52.3730 C   0  0  0  0  0  0  0  0  0  0  0  0
   57.4230   29.6900   52.4230 C   0  0  0  0  0  0  0  0  0  0  0  0
   56.9900   28.4760   53.2530 C   0  0  0  0  0  0  0  0  0  0  0  0
   55.6670   28.7380   53.8480 N   0  0  0  0  0  0  0  0  0  0  0  0
   54.9300   29.8060   53.1560 C   0  0  0  0  0  0  0  0  0  0  0  0
   53.4170   29.6760   53.3930 C   0  0  2  0  0  0  0  0  0  0  0  0
   53.0560   28.3190   53.3780 O   0  0  0  0  0  0  0  0  0  0  0  0
   52.6560   30.4350   52.3270 C   0  0  0  0  0  0  0  0  0  0  0  0
   52.6370   29.9800   50.9960 C   0  0  0  0  0  0  0  0  0  0  0  0
   51.9540   30.7000   50.0110 C   0  0  0  0  0  0  0  0  0  0  0  0
   51.2890   31.8840   50.3430 C   0  0  0  0  0  0  0  0  0  0  0  0
   50.6090   32.5930   49.3600 O   0  0  0  0  0  0  0  0  0  0  0  0
   51.3100   32.3510   51.6620 C   0  0  0  0  0  0  0  0  0  0  0  0
   50.6480   33.5280   51.9970 O   0  0  0  0  0  0  0  0  0  0  0  0
   51.9970   31.6350   52.6490 C   0  0  0  0  0  0  0  0  0  0  0  0
   59.9300   33.2330   47.7370 H   0  0  0  0  0  0  0  0  0  0  0  0
   61.0330   32.3730   46.7880 H   0  0  0  0  0  0  0  0  0  0  0  0
   61.0289   31.2377   49.3377 H   0  0  0  0  0  0  0  0  0  0  0  0
   61.4036   30.3152   46.8790 H   0  0  0  0  0  0  0  0  0  0  0  0
   60.7123   29.2523   48.1717 H   0  0  0  0  0  0  0  0  0  0  0  0
   58.9418   27.9205   47.5146 H   0  0  0  0  0  0  0  0  0  0  0  0
   56.8685   27.5642   46.1770 H   0  0  0  0  0  0  0  0  0  0  0  0
   55.7540   28.6050   43.7420 H   0  0  0  0  0  0  0  0  0  0  0  0
   57.3297   31.4833   44.4014 H   0  0  0  0  0  0  0  0  0  0  0  0
   59.4070   31.8452   45.7361 H   0  0  0  0  0  0  0  0  0  0  0  0
   59.6254   28.9293   50.5401 H   0  0  0  0  0  0  0  0  0  0  0  0
   60.4489   30.4785   50.9466 H   0  0  0  0  0  0  0  0  0  0  0  0
   59.4159   28.9954   52.8720 H   0  0  0  0  0  0  0  0  0  0  0  0
   59.1981   30.8024   52.8796 H   0  0  0  0  0  0  0  0  0  0  0  0
   56.9834   30.5953   52.8671 H   0  0  0  0  0  0  0  0  0  0  0  0
   57.0715   29.5316   51.3928 H   0  0  0  0  0  0  0  0  0  0  0  0
   56.9319   27.5895   52.6043 H   0  0  0  0  0  0  0  0  0  0  0  0
   57.7239   28.2961   54.0524 H   0  0  0  0  0  0  0  0  0  0  0  0
   55.0960   27.8640   53.7780 H   0  0  0  0  0  0  0  0  0  0  0  0
   55.2706   30.7811   53.5343 H   0  0  0  0  0  0  0  0  0  0  0  0
   55.1235   29.7217   52.0764 H   0  0  0  0  0  0  0  0  0  0  0  0
   53.1635   30.1052   54.3736 H   0  0  0  0  0  0  0  0  0  0  0  0
   53.6950   27.8470   53.9740 H   0  0  0  0  0  0  0  0  0  0  0  0
   53.1629   29.0517   50.7284 H   0  0  0  0  0  0  0  0  0  0  0  0
   51.9399   30.3343   48.9736 H   0  0  0  0  0  0  0  0  0  0  0  0
   52.0217   32.0127   53.6818 H   0  0  0  0  0  0  0  0  0  0  0  0
  1  2  1  0
  2  3  1  0
  3  4  1  0
  4  5  2  0
  5  6  1  0
  6  7  2  0
  7  8  1  0
  7  9  1  0
  9 10  2  0
  2 11  1  0
 11 12  2  0
 11 13  1  0
 13 14  1  0
 14 15  1  0
 15 16  1  0
 16 17  1  0
 17 18  1  0
 18 19  1  0
 19 20  1  0
 20 21  1  0
 20 22  1  0
 22 23  2  0
 23 24  1  0
 24 25  2  0
 25 26  1  0
 25 27  1  0
 27 28  1  0
 27 29  2  0
 10  4  1  0
 29 22  1  0
  1 30  1  0
  1 31  1  0
  2 32  1  1
  3 33  1  0
  3 34  1  0
  5 35  1  0
  6 36  1  0
  8 37  1  0
  9 38  1  0
 10 39  1  0
 14 40  1  0
 14 41  1  0
 15 42  1  0
 15 43  1  0
 16 44  1  0
 16 45  1  0
 17 46  1  0
 17 47  1  0
 18 48  1  0
 19 49  1  0
 19 50  1  0
 20 51  1  1
 21 52  1  0
 23 53  1  0
 24 54  1  0
 29 55  1  0
M  CHG  3  13  -1  26  -1  28  -1
M  END
>  <UniqueID>  (40) 
37

>  <SMILES>  (40) 
N[C@H](Cc1ccc(O)cc1)C(=O)[N-]CCCCNC[C@H](O)c1ccc([O-])c([O-])c1

>  <Energy>  (40) 
44.901830998351315

>  <Genealogy>  (40) 
NC(Cc1ccc(O)cc1)C(=O)[N-]CCCCNCC(O)c1ccc([O-])c([O-])c1 (protonated)
N[C@H](Cc1ccc(O)cc1)C(=O)[N-]CCCCNC[C@H](O)c1ccc([O-])c([O-])c1 (chirality)
N[C@H](Cc1ccc(O)cc1)C(=O)[N-]CCCCNC[C@H](O)c1ccc([O-])c([O-])c1 (3D coordinates assigned)
N[C@H](Cc1ccc(O)cc1)C(=O)[N-]CCCCNC[C@H](O)c1ccc([O-])c([O-])c1 (optimized conformer: 44.901830998351315 kcal/mol)

>  <smiles>  (40) 
NC(Cc1ccc(O)cc1)C(=O)NCCCCNCC(O)c1ccc(O)c(O)c1

>  <score_type>  (40) 
oracle

>  <origin>  (40) 
adg

>  <m_score__min__energy>  (40) 
-17.100000000000001

>  <m_primary>  (40) 
energy

$$$$
40:0
     RDKit          3D

 47 49  0  0  0  0  0  0  0  0999 V2000
   60.3150   34.9570   46.3730 C   0  0  0  0  0  0  0  0  0  0  0  0
   59.2620   33.9810   45.9140 C   0  0  0  0  0  0  0  0  0  0  0  0
   58.9280   33.9180   44.5520 C   0  0  0  0  0  0  0  0  0  0  0  0
   57.9520   33.0290   44.0990 C   0  0  0  0  0  0  0  0  0  0  0  0
   57.2770   32.1970   45.0060 C   0  0  0  0  0  0  0  0  0  0  0  0
   56.2810   31.2580   44.5740 N   0  0  0  0  0  0  0  0  0  0  0  0
   56.2650   29.8560   44.8620 C   0  0  0  0  0  0  0  0  0  0  0  0
   55.1640   29.2470   44.8620 O   0  0  0  0  0  0  0  0  0  0  0  0
   57.4950   29.1380   45.0340 N   0  0  0  0  0  0  0  0  0  0  0  0
   57.6910   27.9030   45.7410 C   0  0  0  0  0  0  0  0  0  0  0  0
   56.6290   27.0020   45.9520 C   0  0  0  0  0  0  0  0  0  0  0  0
   56.8420   25.8060   46.6400 C   0  0  0  0  0  0  0  0  0  0  0  0
   58.1080   25.5010   47.1400 C   0  0  0  0  0  0  0  0  0  0  0  0
   59.1630   26.3970   46.9640 C   0  0  0  0  0  0  0  0  0  0  0  0
   58.9680   27.6020   46.2680 C   0  0  0  0  0  0  0  0  0  0  0  0
   60.0980   28.5490   46.1210 C   0  0  0  0  0  0  0  0  0  0  0  0
   60.8060   28.4960   45.0780 O   0  0  0  0  0  0  0  0  0  0  0  0
   60.4010   29.5250   47.1380 N   0  0  0  0  0  0  0  0  0  0  0  0
   60.9250   30.8430   46.7620 C   0  0  0  0  0  0  0  0  0  0  0  0
   61.9060   31.3370   47.8300 C   0  0  0  0  0  0  0  0  0  0  0  0
   61.3240   31.2720   49.1180 O   0  0  0  0  0  0  0  0  0  0  0  0
   61.0750   29.9230   49.4620 C   0  0  0  0  0  0  0  0  0  0  0  0
   60.0180   29.3120   48.5380 C   0  0  0  0  0  0  0  0  0  0  0  0
   57.6220   32.2380   46.3600 C   0  0  0  0  0  0  0  0  0  0  0  0
   58.5970   33.1330   46.8320 C   0  0  0  0  0  0  0  0  0  0  0  0
   58.9310   33.1540   48.3010 C   0  0  0  0  0  0  0  0  0  0  0  0
   60.3395   34.9797   47.4725 H   0  0  0  0  0  0  0  0  0  0  0  0
   61.2975   34.6430   45.9907 H   0  0  0  0  0  0  0  0  0  0  0  0
   60.0764   35.9605   45.9907 H   0  0  0  0  0  0  0  0  0  0  0  0
   59.4406   34.5758   43.8346 H   0  0  0  0  0  0  0  0  0  0  0  0
   57.7108   32.9801   43.0269 H   0  0  0  0  0  0  0  0  0  0  0  0
   55.6250   27.2424   45.5721 H   0  0  0  0  0  0  0  0  0  0  0  0
   56.0095   25.1025   46.7881 H   0  0  0  0  0  0  0  0  0  0  0  0
   58.2747   24.5535   47.6734 H   0  0  0  0  0  0  0  0  0  0  0  0
   60.1556   26.1581   47.3735 H   0  0  0  0  0  0  0  0  0  0  0  0
   61.4453   30.7668   45.7959 H   0  0  0  0  0  0  0  0  0  0  0  0
   60.0905   31.5548   46.6792 H   0  0  0  0  0  0  0  0  0  0  0  0
   62.8077   30.7072   47.8099 H   0  0  0  0  0  0  0  0  0  0  0  0
   62.1642   32.3840   47.6131 H   0  0  0  0  0  0  0  0  0  0  0  0
   62.0090   29.3492   49.3704 H   0  0  0  0  0  0  0  0  0  0  0  0
   60.7026   29.8861   50.4964 H   0  0  0  0  0  0  0  0  0  0  0  0
   59.9400   28.2327   48.7354 H   0  0  0  0  0  0  0  0  0  0  0  0
   59.0473   29.7937   48.7270 H   0  0  0  0  0  0  0  0  0  0  0  0
   57.1225   31.5592   47.0669 H   0  0  0  0  0  0  0  0  0  0  0  0
   58.0031   33.0957   48.8889 H   0  0  0  0  0  0  0  0  0  0  0  0
   59.5732   32.2945   48.5433 H   0  0  0  0  0  0  0  0  0  0  0  0
   59.4605   34.0872   48.5433 H   0  0  0  0  0  0  0  0  0  0  0  0
  1  2  1  0
  2  3  2  0
  3  4  1  0
  4  5  2  0
  5  6  1  0
  6  7  1  0
  7  8  2  0
  7  9  1  0
  9 10  1  0
 10 11  2  0
 11 12  1  0
 12 13  2  0
 13 14  1  0
 14 15  2  0
 15 16  1  0
 16 17  2  0
 16 18  1  0
 18 19  1  0
 19 20  1  0
 20 21  1  0
 21 22  1  0
 22 23  1  0
  5 24  1  0
 24 25  2  0
 25 26  1  0
 25  2  1  0
 15 10  1  0
 23 18  1  0
  1 27  1  0
  1 28  1  0
  1 29  1  0
  3 30  1  0
  4 31  1  0
 11 32  1  0
 12 33  1  0
 13 34  1  0
 14 35  1  0
 19 36  1  0
 19 37  1  0
 20 38  1  0
 20 39  1  0
 22 40  1  0
 22 41  1  0
 23 42  1  0
 23 43  1  0
 24 44  1  0
 26 45  1  0
 26 46  1  0
 26 47  1  0
M  CHG  2   6  -1   9  -1
M  END
>  <UniqueID>  (41) 
38

>  <SMILES>  (41) 
Cc1ccc([N-]C(=O)[N-]c2ccccc2C(=O)N2CCOCC2)cc1C

>  <Energy>  (41) 
62.70526793978894

>  <Genealogy>  (41) 
Cc1ccc([N-]C(=O)[N-]c2ccccc2C(=O)N2CCOCC2)cc1C (protonated)
Cc1ccc([N-]C(=O)[N-]c2ccccc2C(=O)N2CCOCC2)cc1C (3D coordinates assigned)
Cc1ccc([N-]C(=O)[N-]c2ccccc2C(=O)N2CCOCC2)cc1C (nonaromatic ring conformer: 62.70526793978894 kcal/mol)

>  <smiles>  (41) 
Cc1ccc(NC(=O)Nc2ccccc2C(=O)N2CCOCC2)cc1C

>  <score_type>  (41) 
oracle

>  <origin>  (41) 
adg

>  <m_score__min__energy>  (41) 
-11.76

>  <m_primary>  (41) 
energy

$$$$
41:0
     RDKit          3D

 52 55  0  0  0  0  0  0  0  0999 V2000
   59.1150   25.4440   47.0780 O   0  0  0  0  0  0  0  0  0  0  0  0
   59.2160   26.6990   47.0420 C   0  0  0  0  0  0  0  0  0  0  0  0
   60.3330   27.3190   47.6940 N   0  0  0  0  0  0  0  0  0  0  0  0
   60.2560   28.1520   48.8600 C   0  0  0  0  0  0  0  0  0  0  0  0
   59.8110   29.4820   48.7770 C   0  0  0  0  0  0  0  0  0  0  0  0
   59.7390   30.2780   49.9290 C   0  0  0  0  0  0  0  0  0  0  0  0
   59.1990   31.9540   49.8260 S   0  0  0  0  0  0  0  0  0  0  0  0
   58.3790   32.2960   51.0390 O   0  0  0  0  0  0  0  0  0  0  0  0
   58.3220   32.0930   48.6130 O   0  0  0  0  0  0  0  0  0  0  0  0
   60.5710   33.0320   49.6820 N   0  0  0  0  0  0  0  0  0  0  0  0
   60.2090   34.3120   49.0390 C   0  0  0  0  0  0  0  0  0  0  0  0
   60.0330   34.1990   47.5110 C   0  0  0  0  0  0  0  0  0  0  0  0
   61.0120   33.2120   46.8560 C   0  0  0  0  0  0  0  0  0  0  0  0
   62.2160   32.9430   47.7520 C   0  0  0  0  0  0  0  0  0  0  0  0
   61.7580   32.3570   49.0970 C   0  0  0  0  0  0  0  0  0  0  0  0
   60.1110   29.7390   51.1680 C   0  0  0  0  0  0  0  0  0  0  0  0
   60.5790   28.4250   51.2490 C   0  0  0  0  0  0  0  0  0  0  0  0
   60.6620   27.6360   50.0990 C   0  0  0  0  0  0  0  0  0  0  0  0
   61.1330   26.3310   50.1930 O   0  0  0  0  0  0  0  0  0  0  0  0
   58.1540   27.4990   46.3790 C   0  0  0  0  0  0  0  0  0  0  0  0
   56.8630   26.9780   46.2210 C   0  0  0  0  0  0  0  0  0  0  0  0
   56.5510   25.6970   46.6610 O   0  0  0  0  0  0  0  0  0  0  0  0
   55.9040   27.7190   45.6150 N   0  0  0  0  0  0  0  0  0  0  0  0
   56.1590   28.9660   45.1450 C   0  0  0  0  0  0  0  0  0  0  0  0
   55.2360   29.5990   44.5640 O   0  0  0  0  0  0  0  0  0  0  0  0
   57.4080   29.5140   45.2830 N   0  0  0  0  0  0  0  0  0  0  0  0
   57.6830   30.8300   44.7580 C   0  0  0  0  0  0  0  0  0  0  0  0
   57.8750   31.9170   45.6290 C   0  0  0  0  0  0  0  0  0  0  0  0
   58.1440   33.1900   45.1200 C   0  0  0  0  0  0  0  0  0  0  0  0
   58.2220   33.3900   43.7390 C   0  0  0  0  0  0  0  0  0  0  0  0
   58.0290   32.3170   42.8650 C   0  0  0  0  0  0  0  0  0  0  0  0
   57.7600   31.0410   43.3710 C   0  0  0  0  0  0  0  0  0  0  0  0
   58.3980   28.8060   45.9150 C   0  0  0  0  0  0  0  0  0  0  0  0
   59.5260   29.3390   46.1120 O   0  0  0  0  0  0  0  0  0  0  0  0
   59.5176   29.9010   47.8032 H   0  0  0  0  0  0  0  0  0  0  0  0
   59.2628   34.6660   49.4742 H   0  0  0  0  0  0  0  0  0  0  0  0
   61.0368   35.0133   49.2205 H   0  0  0  0  0  0  0  0  0  0  0  0
   59.0067   33.8628   47.3020 H   0  0  0  0  0  0  0  0  0  0  0  0
   60.2395   35.1922   47.0857 H   0  0  0  0  0  0  0  0  0  0  0  0
   60.4891   32.2632   46.6652 H   0  0  0  0  0  0  0  0  0  0  0  0
   61.3729   33.6556   45.9163 H   0  0  0  0  0  0  0  0  0  0  0  0
   62.8868   32.2276   47.2538 H   0  0  0  0  0  0  0  0  0  0  0  0
   62.7450   33.8899   47.9352 H   0  0  0  0  0  0  0  0  0  0  0  0
   61.5115   31.2958   48.9451 H   0  0  0  0  0  0  0  0  0  0  0  0
   62.5868   32.5045   49.8050 H   0  0  0  0  0  0  0  0  0  0  0  0
   60.0344   30.3516   52.0784 H   0  0  0  0  0  0  0  0  0  0  0  0
   60.8831   28.0104   52.2214 H   0  0  0  0  0  0  0  0  0  0  0  0
   57.8131   31.7643   46.7166 H   0  0  0  0  0  0  0  0  0  0  0  0
   58.2946   34.0358   45.8070 H   0  0  0  0  0  0  0  0  0  0  0  0
   58.4354   34.3926   43.3399 H   0  0  0  0  0  0  0  0  0  0  0  0
   58.0887   32.4759   41.7782 H   0  0  0  0  0  0  0  0  0  0  0  0
   57.6080   30.1988   42.6799 H   0  0  0  0  0  0  0  0  0  0  0  0
  1  2  2  0
  2  3  1  0
  3  4  1  0
  4  5  2  0
  5  6  1  0
  6  7  1  0
  7  8  2  0
  7  9  2  0
  7 10  1  0
 10 11  1  0
 11 12  1  0
 12 13  1  0
 13 14  1  0
 14 15  1  0
  6 16  2  0
 16 17  1  0
 17 18  2  0
 18 19  1  0
  2 20  1  0
 20 21  2  0
 21 22  1  0
 21 23  1  0
 23 24  1  0
 24 25  2  0
 24 26  1  0
 26 27  1  0
 27 28  2  0
 28 29  1  0
 29 30  2  0
 30 31  1  0
 31 32  2  0
 26 33  1  0
 33 34  2  0
 18  4  1  0
 33 20  1  0
 15 10  1  0
 32 27  1  0
  5 35  1  0
 11 36  1  0
 11 37  1  0
 12 38  1  0
 12 39  1  0
 13 40  1  0
 13 41  1  0
 14 42  1  0
 14 43  1  0
 15 44  1  0
 15 45  1  0
 16 46  1  0
 17 47  1  0
 28 48  1  0
 29 49  1  0
 30 50  1  0
 31 51  1  0
 32 52  1  0
M  CHG  4   3  -1  19  -1  22  -1  23  -1
M  END
>  <UniqueID>  (42) 
39

>  <SMILES>  (42) 
O=C([N-]c1cc(S(=O)(=O)N2CCCCC2)ccc1[O-])c1c([O-])[n-]c(=O)n(-c2ccccc2)c1=O

>  <Energy>  (42) 
79.04879238386087

>  <Genealogy>  (42) 
O=C([N-]c1cc(S(=O)(=O)N2CCCCC2)ccc1[O-])c1c([O-])[n-]c(=O)n(-c2ccccc2)c1=O (protonated)
O=C([N-]c1cc(S(=O)(=O)N2CCCCC2)ccc1[O-])c1c([O-])[n-]c(=O)n(-c2ccccc2)c1=O (3D coordinates assigned)
O=C([N-]c1cc(S(=O)(=O)N2CCCCC2)ccc1[O-])c1c([O-])[n-]c(=O)n(-c2ccccc2)c1=O (nonaromatic ring conformer: 79.04879238386087 kcal/mol)

>  <smiles>  (42) 
O=C(Nc1cc(S(=O)(=O)N2CCCCC2)ccc1O)c1c(O)[nH]c(=O)n(-c2ccccc2)c1=O

>  <score_type>  (42) 
oracle

>  <origin>  (42) 
adg

>  <m_score__min__energy>  (42) 
-17.489999999999998

>  <m_primary>  (42) 
energy

$$$$
42:0
     RDKit          3D

 45 47  0  0  0  0  0  0  0  0999 V2000
   60.8380   34.3660   49.6530 O   0  0  0  0  0  0  0  0  0  0  0  0
   61.5140   33.7040   48.8150 C   0  0  0  0  0  0  0  0  0  0  0  0
   61.3960   34.0610   47.3740 C   0  0  0  0  0  0  0  0  0  0  0  0
   60.1680   34.3790   46.9050 C   0  0  0  0  0  0  0  0  0  0  0  0
   59.2490   33.4480   46.2170 C   0  0  0  0  0  0  0  0  0  0  0  0
   58.2160   33.9220   45.3930 C   0  0  0  0  0  0  0  0  0  0  0  0
   57.3830   33.0250   44.7190 C   0  0  0  0  0  0  0  0  0  0  0  0
   57.5790   31.6380   44.8420 C   0  0  0  0  0  0  0  0  0  0  0  0
   56.7230   30.7100   44.1500 N   0  0  0  0  0  0  0  0  0  0  0  0
   56.8940   30.4670   42.9380 O   0  0  0  0  0  0  0  0  0  0  0  0
   55.6970   30.0770   44.8140 O   0  0  0  0  0  0  0  0  0  0  0  0
   58.6340   31.1700   45.6440 C   0  0  0  0  0  0  0  0  0  0  0  0
   59.4670   32.0680   46.3170 C   0  0  0  0  0  0  0  0  0  0  0  0
   62.6020   33.9690   46.4450 C   0  0  0  0  0  0  0  0  0  0  0  0
   63.6860   32.9700   46.8740 C   0  0  0  0  0  0  0  0  0  0  0  0
   63.1240   31.5560   47.0790 C   0  0  0  0  0  0  0  0  0  0  0  0
   62.6040   31.3390   48.5100 C   0  0  0  0  0  0  0  0  0  0  0  0
   62.3880   32.6100   49.3250 C   0  0  0  0  0  0  0  0  0  0  0  0
   63.0480   32.8220   50.4860 C   0  0  0  0  0  0  0  0  0  0  0  0
   64.4620   32.4720   50.7410 C   0  0  0  0  0  0  0  0  0  0  0  0
   65.5060   33.1200   50.0590 C   0  0  0  0  0  0  0  0  0  0  0  0
   66.8370   32.8030   50.3450 C   0  0  0  0  0  0  0  0  0  0  0  0
   67.1360   31.8530   51.3260 C   0  0  0  0  0  0  0  0  0  0  0  0
   66.1050   31.2240   52.0320 C   0  0  0  0  0  0  0  0  0  0  0  0
   66.4160   30.2890   53.0160 O   0  0  0  0  0  0  0  0  0  0  0  0
   64.7690   31.5420   51.7460 C   0  0  0  0  0  0  0  0  0  0  0  0
   59.8253   35.4146   47.0471 H   0  0  0  0  0  0  0  0  0  0  0  0
   58.0615   35.0049   45.2773 H   0  0  0  0  0  0  0  0  0  0  0  0
   56.5675   33.4069   44.0872 H   0  0  0  0  0  0  0  0  0  0  0  0
   58.8055   30.0880   45.7428 H   0  0  0  0  0  0  0  0  0  0  0  0
   60.2988   31.6888   46.9289 H   0  0  0  0  0  0  0  0  0  0  0  0
   62.2418   33.6726   45.4488 H   0  0  0  0  0  0  0  0  0  0  0  0
   63.0774   34.9608   46.4647 H   0  0  0  0  0  0  0  0  0  0  0  0
   64.4619   32.9332   46.0951 H   0  0  0  0  0  0  0  0  0  0  0  0
   64.0986   33.3117   47.8347 H   0  0  0  0  0  0  0  0  0  0  0  0
   62.2951   31.3986   46.3732 H   0  0  0  0  0  0  0  0  0  0  0  0
   63.9403   30.8397   46.9042 H   0  0  0  0  0  0  0  0  0  0  0  0
   61.6421   30.8093   48.4453 H   0  0  0  0  0  0  0  0  0  0  0  0
   63.3860   30.7705   49.0347 H   0  0  0  0  0  0  0  0  0  0  0  0
   62.4878   33.2929   51.3072 H   0  0  0  0  0  0  0  0  0  0  0  0
   65.2749   33.8793   49.2974 H   0  0  0  0  0  0  0  0  0  0  0  0
   67.6503   33.3017   49.7974 H   0  0  0  0  0  0  0  0  0  0  0  0
   68.1841   31.5995   51.5432 H   0  0  0  0  0  0  0  0  0  0  0  0
   66.6360   30.5720   53.9640 H   0  0  0  0  0  0  0  0  0  0  0  0
   63.9583   31.0601   52.3121 H   0  0  0  0  0  0  0  0  0  0  0  0
  1  2  2  0
  2  3  1  0
  3  4  2  3
  4  5  1  0
  5  6  2  0
  6  7  1  0
  7  8  2  0
  8  9  1  0
  9 10  2  0
  9 11  1  0
  8 12  1  0
 12 13  2  0
  3 14  1  0
 14 15  1  0
 15 16  1  0
 16 17  1  0
 17 18  1  0
 18 19  2  3
 19 20  1  0
 20 21  2  0
 21 22  1  0
 22 23  2  0
 23 24  1  0
 24 25  1  0
 24 26  2  0
 18  2  1  0
 26 20  1  0
 13  5  1  0
  4 27  1  0
  6 28  1  0
  7 29  1  0
 12 30  1  0
 13 31  1  0
 14 32  1  0
 14 33  1  0
 15 34  1  0
 15 35  1  0
 16 36  1  0
 16 37  1  0
 17 38  1  0
 17 39  1  0
 19 40  1  0
 21 41  1  0
 22 42  1  0
 23 43  1  0
 25 44  1  0
 26 45  1  0
M  CHG  2   9   1  11  -1
M  END
>  <UniqueID>  (43) 
40

>  <SMILES>  (43) 
O=C1C(=Cc2ccc([N+](=O)[O-])cc2)CCCCC1=Cc1cccc(O)c1

>  <Energy>  (43) 
74.63515552575159

>  <Genealogy>  (43) 
O=C1C(=Cc2ccc([N+](=O)[O-])cc2)CCCCC1=Cc1cccc(O)c1 (3D coordinates assigned)
O=C1C(=Cc2ccc([N+](=O)[O-])cc2)CCCCC1=Cc1cccc(O)c1 (nonaromatic ring conformer: 74.63515552575159 kcal/mol)

>  <smiles>  (43) 
O=C1C(=Cc2ccc([N+](=O)[O-])cc2)CCCCC1=Cc1cccc(O)c1

>  <score_type>  (43) 
oracle

>  <origin>  (43) 
adg

>  <m_score__min__energy>  (43) 
-7.8399999999999999

>  <m_primary>  (43) 
energy

$$$$
43:0
     RDKit          3D

 57 60  0  0  0  0  0  0  0  0999 V2000
   59.3430   30.5090   52.3540 C   0  0  0  0  0  0  0  0  0  0  0  0
   58.1560   30.4850   51.0310 S   0  0  0  0  0  0  0  0  0  0  0  0
   58.4740   29.3870   50.0490 O   0  0  0  0  0  0  0  0  0  0  0  0
   56.7970   30.2340   51.6170 O   0  0  0  0  0  0  0  0  0  0  0  0
   58.1300   32.0200   50.2150 N   0  0  0  0  0  0  0  0  0  0  0  0
   58.9730   32.3770   49.1180 C   0  0  0  0  0  0  0  0  0  0  0  0
   60.3680   32.3560   49.2180 C   0  0  0  0  0  0  0  0  0  0  0  0
   61.1590   32.7200   48.1210 C   0  0  0  0  0  0  0  0  0  0  0  0
   60.5640   33.1280   46.9300 C   0  0  0  0  0  0  0  0  0  0  0  0
   59.1680   33.1870   46.8320 C   0  0  0  0  0  0  0  0  0  0  0  0
   58.5240   33.6810   45.6540 N   0  0  0  0  0  0  0  0  0  0  0  0
   57.9260   32.8890   44.6210 C   0  0  0  0  0  0  0  0  0  0  0  0
   57.7760   33.3960   43.4770 O   0  0  0  0  0  0  0  0  0  0  0  0
   57.5140   31.4880   44.8360 C   0  0  0  0  0  0  0  0  0  0  0  0
   58.3380   30.4430   45.2180 C   0  0  0  0  0  0  0  0  0  0  0  0
   57.5310   29.3330   45.3210 C   0  0  0  0  0  0  0  0  0  0  0  0
   57.9770   27.9610   45.7650 C   0  0  0  0  0  0  0  0  0  0  0  0
   58.5520   27.9840   47.1890 C   0  0  0  0  0  0  0  0  0  0  0  0
   59.1360   26.6040   47.5490 C   0  0  0  0  0  0  0  0  0  0  0  0
   58.3330   25.4520   47.0480 N   0  0  0  0  0  0  0  0  0  0  0  0
   59.0010   24.7140   45.9550 C   0  0  0  0  0  0  0  0  0  0  0  0
   58.0170   23.8080   45.2630 C   0  0  0  0  0  0  0  0  0  0  0  0
   57.7400   22.5400   45.7930 C   0  0  0  0  0  0  0  0  0  0  0  0
   56.8620   21.6760   45.1300 C   0  0  0  0  0  0  0  0  0  0  0  0
   56.2560   22.0700   43.9300 C   0  0  0  0  0  0  0  0  0  0  0  0
   56.5300   23.3280   43.3980 C   0  0  0  0  0  0  0  0  0  0  0  0
   57.4060   24.1970   44.0610 C   0  0  0  0  0  0  0  0  0  0  0  0
   56.9370   25.8040   46.7120 C   0  0  0  0  0  0  0  0  0  0  0  0
   56.8360   26.9170   45.6440 C   0  0  0  0  0  0  0  0  0  0  0  0
   56.2700   29.7500   44.9400 C   0  0  0  0  0  0  0  0  0  0  0  0
   55.1440   28.9400   44.8650 O   0  0  0  0  0  0  0  0  0  0  0  0
   56.2490   31.0620   44.6450 N   0  0  0  0  0  0  0  0  0  0  0  0
   58.3830   32.7680   47.9120 C   0  0  0  0  0  0  0  0  0  0  0  0
   58.8161   30.4983   53.3196 H   0  0  0  0  0  0  0  0  0  0  0  0
   59.9919   29.6238   52.2806 H   0  0  0  0  0  0  0  0  0  0  0  0
   59.9555   31.4197   52.2806 H   0  0  0  0  0  0  0  0  0  0  0  0
   60.8454   32.0526   50.1614 H   0  0  0  0  0  0  0  0  0  0  0  0
   62.2555   32.6834   48.2006 H   0  0  0  0  0  0  0  0  0  0  0  0
   61.1891   33.4034   46.0678 H   0  0  0  0  0  0  0  0  0  0  0  0
   59.4214   30.4905   45.4024 H   0  0  0  0  0  0  0  0  0  0  0  0
   58.7835   27.6528   45.0833 H   0  0  0  0  0  0  0  0  0  0  0  0
   59.3473   28.7417   47.2476 H   0  0  0  0  0  0  0  0  0  0  0  0
   57.7470   28.2292   47.8974 H   0  0  0  0  0  0  0  0  0  0  0  0
   60.1460   26.5338   47.1189 H   0  0  0  0  0  0  0  0  0  0  0  0
   59.1353   26.5366   48.6469 H   0  0  0  0  0  0  0  0  0  0  0  0
   59.4081   25.4317   45.2276 H   0  0  0  0  0  0  0  0  0  0  0  0
   59.8143   24.1055   46.3771 H   0  0  0  0  0  0  0  0  0  0  0  0
   58.2147   22.2234   46.7334 H   0  0  0  0  0  0  0  0  0  0  0  0
   56.6466   20.6835   45.5525 H   0  0  0  0  0  0  0  0  0  0  0  0
   55.5665   21.3887   43.4099 H   0  0  0  0  0  0  0  0  0  0  0  0
   56.0573   23.6397   42.4549 H   0  0  0  0  0  0  0  0  0  0  0  0
   57.6162   25.1900   43.6371 H   0  0  0  0  0  0  0  0  0  0  0  0
   56.4307   24.9050   46.3306 H   0  0  0  0  0  0  0  0  0  0  0  0
   56.4631   26.1836   47.6292 H   0  0  0  0  0  0  0  0  0  0  0  0
   56.8849   26.4548   44.6470 H   0  0  0  0  0  0  0  0  0  0  0  0
   55.8829   27.4438   45.7990 H   0  0  0  0  0  0  0  0  0  0  0  0
   57.2879   32.7459   47.8110 H   0  0  0  0  0  0  0  0  0  0  0  0
  1  2  1  0
  2  3  2  0
  2  4  2  0
  2  5  1  0
  5  6  1  0
  6  7  2  0
  7  8  1  0
  8  9  2  0
  9 10  1  0
 10 11  1  0
 11 12  1  0
 12 13  2  0
 12 14  1  0
 14 15  2  0
 15 16  1  0
 16 17  1  0
 17 18  1  0
 18 19  1  0
 19 20  1  0
 20 21  1  0
 21 22  1  0
 22 23  2  0
 23 24  1  0
 24 25  2  0
 25 26  1  0
 26 27  2  0
 20 28  1  0
 28 29  1  0
 16 30  2  0
 30 31  1  0
 30 32  1  0
 10 33  2  0
 33  6  1  0
 32 14  1  0
 29 17  1  0
 27 22  1  0
  1 34  1  0
  1 35  1  0
  1 36  1  0
  7 37  1  0
  8 38  1  0
  9 39  1  0
 15 40  1  0
 17 41  1  0
 18 42  1  0
 18 43  1  0
 19 44  1  0
 19 45  1  0
 21 46  1  0
 21 47  1  0
 23 48  1  0
 24 49  1  0
 25 50  1  0
 26 51  1  0
 27 52  1  0
 28 53  1  0
 28 54  1  0
 29 55  1  0
 29 56  1  0
 33 57  1  0
M  CHG  4   5  -1  11  -1  31  -1  32  -1
M  END
>  <UniqueID>  (44) 
41

>  <SMILES>  (44) 
CS(=O)(=O)[N-]c1cccc([N-]C(=O)c2cc(C3CCN(Cc4ccccc4)CC3)c([O-])[n-]2)c1

>  <Energy>  (44) 
100.18153218427935

>  <Genealogy>  (44) 
CS(=O)(=O)[N-]c1cccc([N-]C(=O)c2cc(C3CCN(Cc4ccccc4)CC3)c([O-])[n-]2)c1 (protonated)
CS(=O)(=O)[N-]c1cccc([N-]C(=O)c2cc(C3CCN(Cc4ccccc4)CC3)c([O-])[n-]2)c1 (3D coordinates assigned)
CS(=O)(=O)[N-]c1cccc([N-]C(=O)c2cc(C3CCN(Cc4ccccc4)CC3)c([O-])[n-]2)c1 (nonaromatic ring conformer: 100.18153218427935 kcal/mol)

>  <smiles>  (44) 
CS(=O)(=O)Nc1cccc(NC(=O)c2cc(C3CCN(Cc4ccccc4)CC3)c(O)[nH]2)c1

>  <score_type>  (44) 
oracle

>  <origin>  (44) 
adg

>  <m_score__min__energy>  (44) 
-18.09

>  <m_primary>  (44) 
energy

$$$$
44:0
     RDKit          3D

 35 37  0  0  0  0  0  0  0  0999 V2000
   63.7920   33.0720   48.2330 C   0  0  0  0  0  0  0  0  0  0  0  0
   62.6290   33.6310   48.8330 O   0  0  0  0  0  0  0  0  0  0  0  0
   61.3530   33.6150   48.2510 C   0  0  0  0  0  0  0  0  0  0  0  0
   60.1970   33.2070   48.9660 C   0  0  0  0  0  0  0  0  0  0  0  0
   58.9390   33.2080   48.3420 C   0  0  0  0  0  0  0  0  0  0  0  0
   58.8590   33.6160   47.0120 C   0  0  0  0  0  0  0  0  0  0  0  0
   59.9690   34.0080   46.3080 C   0  0  0  0  0  0  0  0  0  0  0  0
   61.2290   34.0200   46.9090 C   0  0  0  0  0  0  0  0  0  0  0  0
   59.6340   34.4150   44.9070 C   0  0  0  0  0  0  0  0  0  0  0  0
   58.1200   34.0810   44.7640 C   0  0  1  0  0  0  0  0  0  0  0  0
   57.8290   32.9720   43.7260 C   0  0  0  0  0  0  0  0  0  0  0  0
   57.7120   31.5850   44.3220 C   0  0  0  0  0  0  0  0  0  0  0  0
   58.8290   30.9640   44.9090 C   0  0  0  0  0  0  0  0  0  0  0  0
   58.7110   29.6950   45.4840 C   0  0  0  0  0  0  0  0  0  0  0  0
   57.4810   29.0320   45.4740 C   0  0  0  0  0  0  0  0  0  0  0  0
   56.3680   29.6340   44.8810 C   0  0  0  0  0  0  0  0  0  0  0  0
   55.1470   28.9720   44.8660 O   0  0  0  0  0  0  0  0  0  0  0  0
   56.4820   30.9020   44.3030 C   0  0  0  0  0  0  0  0  0  0  0  0
   57.7070   33.6860   46.1490 C   0  0  0  0  0  0  0  0  0  0  0  0
   56.5220   33.4600   46.5120 O   0  0  0  0  0  0  0  0  0  0  0  0
   64.4858   32.7385   49.0188 H   0  0  0  0  0  0  0  0  0  0  0  0
   63.5055   32.2132   47.6082 H   0  0  0  0  0  0  0  0  0  0  0  0
   64.2837   33.8322   47.6082 H   0  0  0  0  0  0  0  0  0  0  0  0
   60.2869   32.8882   50.0149 H   0  0  0  0  0  0  0  0  0  0  0  0
   58.0383   32.8942   48.8900 H   0  0  0  0  0  0  0  0  0  0  0  0
   62.1140   34.3421   46.3406 H   0  0  0  0  0  0  0  0  0  0  0  0
   59.8118   35.4905   44.7601 H   0  0  0  0  0  0  0  0  0  0  0  0
   60.2522   33.8975   44.1586 H   0  0  0  0  0  0  0  0  0  0  0  0
   57.5504   34.9390   44.3775 H   0  0  0  0  0  0  0  0  0  0  0  0
   56.8822   33.2119   43.2200 H   0  0  0  0  0  0  0  0  0  0  0  0
   58.6851   32.9502   43.0356 H   0  0  0  0  0  0  0  0  0  0  0  0
   59.8007   31.4794   44.9158 H   0  0  0  0  0  0  0  0  0  0  0  0
   59.5882   29.2176   45.9452 H   0  0  0  0  0  0  0  0  0  0  0  0
   57.3889   28.0365   45.9328 H   0  0  0  0  0  0  0  0  0  0  0  0
   55.6049   31.3684   43.8306 H   0  0  0  0  0  0  0  0  0  0  0  0
  1  2  1  0
  2  3  1  0
  3  4  2  0
  4  5  1  0
  5  6  2  0
  6  7  1  0
  7  8  2  0
  7  9  1  0
  9 10  1  0
 10 11  1  0
 11 12  1  0
 12 13  2  0
 13 14  1  0
 14 15  2  0
 15 16  1  0
 16 17  1  0
 16 18  2  0
 10 19  1  0
 19 20  2  0
  8  3  1  0
 18 12  1  0
 19  6  1  0
  1 21  1  0
  1 22  1  0
  1 23  1  0
  4 24  1  0
  5 25  1  0
  8 26  1  0
  9 27  1  0
  9 28  1  0
 10 29  1  6
 11 30  1  0
 11 31  1  0
 13 32  1  0
 14 33  1  0
 15 34  1  0
 18 35  1  0
M  CHG  1  17  -1
M  END
>  <UniqueID>  (45) 
42

>  <SMILES>  (45) 
COc1ccc2c(c1)C[C@@H](Cc1cccc([O-])c1)C2=O

>  <Energy>  (45) 
49.33207317035045

>  <Genealogy>  (45) 
COc1ccc2c(c1)CC(Cc1cccc([O-])c1)C2=O (protonated)
COc1ccc2c(c1)C[C@@H](Cc1cccc([O-])c1)C2=O (chirality)
COc1ccc2c(c1)C[C@@H](Cc1cccc([O-])c1)C2=O (3D coordinates assigned)
COc1ccc2c(c1)C[C@@H](Cc1cccc([O-])c1)C2=O (nonaromatic ring conformer: 49.33207317035045 kcal/mol)

>  <smiles>  (45) 
COc1ccc2c(c1)CC(Cc1cccc(O)c1)C2=O

>  <score_type>  (45) 
oracle

>  <origin>  (45) 
adg

>  <m_score__min__energy>  (45) 
-11.449999999999999

>  <m_primary>  (45) 
energy

$$$$
45:0
     RDKit          3D

 83 87  0  0  0  0  0  0  0  0999 V2000
   58.5500   29.2300   53.0840 C   0  0  0  0  0  0  0  0  0  0  0  0
   58.9010   30.4250   52.3040 N   0  0  0  0  0  0  0  0  0  0  0  0
   60.2660   30.2960   51.7350 C   0  0  0  0  0  0  0  0  0  0  0  0
   60.4790   31.1050   50.4360 C   0  0  0  0  0  0  0  0  0  0  0  0
   59.5650   32.2530   50.3580 N   0  0  0  0  0  0  0  0  0  0  0  0
   60.0090   33.5410   49.8820 C   0  0  0  0  0  0  0  0  0  0  0  0
   59.3620   34.5750   50.2070 O   0  0  0  0  0  0  0  0  0  0  0  0
   61.1620   33.6880   48.9600 C   0  0  0  0  0  0  0  0  0  0  0  0
   62.4500   33.8490   49.5050 C   0  0  0  0  0  0  0  0  0  0  0  0
   63.5780   33.8180   48.6830 C   0  0  0  0  0  0  0  0  0  0  0  0
   63.4410   33.6010   47.3140 C   0  0  0  0  0  0  0  0  0  0  0  0
   62.1720   33.4500   46.7540 C   0  0  0  0  0  0  0  0  0  0  0  0
   61.0270   33.5160   47.5560 C   0  0  0  0  0  0  0  0  0  0  0  0
   59.7510   33.3480   46.9220 N   0  0  0  0  0  0  0  0  0  0  0  0
   58.9740   32.1440   46.8990 C   0  0  0  0  0  0  0  0  0  0  0  0
   57.7190   32.2440   46.9330 O   0  0  0  0  0  0  0  0  0  0  0  0
   59.5900   30.7640   46.9620 C   0  0  2  0  0  0  0  0  0  0  0  0
   59.6790   30.1920   45.5310 C   0  0  0  0  0  0  0  0  0  0  0  0
   58.3510   30.2110   44.8160 C   0  0  0  0  0  0  0  0  0  0  0  0
   57.3120   29.3560   45.2250 C   0  0  0  0  0  0  0  0  0  0  0  0
   56.1050   29.3260   44.5210 C   0  0  0  0  0  0  0  0  0  0  0  0
   55.9240   30.1510   43.4070 C   0  0  0  0  0  0  0  0  0  0  0  0
   56.9490   31.0100   43.0000 C   0  0  0  0  0  0  0  0  0  0  0  0
   58.1590   31.0410   43.7000 C   0  0  0  0  0  0  0  0  0  0  0  0
   58.8080   29.8660   47.8150 N   0  0  0  0  0  0  0  0  0  0  0  0
   59.2940   28.5980   48.2740 C   0  0  0  0  0  0  0  0  0  0  0  0
   59.9020   28.5220   49.3760 O   0  0  0  0  0  0  0  0  0  0  0  0
   59.1450   27.3870   47.4390 C   0  0  0  0  0  0  0  0  0  0  0  0
   60.2790   26.7690   46.8830 C   0  0  0  0  0  0  0  0  0  0  0  0
   60.1400   25.6820   46.0190 C   0  0  0  0  0  0  0  0  0  0  0  0
   58.8710   25.2010   45.6960 C   0  0  0  0  0  0  0  0  0  0  0  0
   57.7290   25.7970   46.2490 C   0  0  0  0  0  0  0  0  0  0  0  0
   56.1240   25.2080   45.8050 S   0  0  0  0  0  0  0  0  0  0  0  0
   56.1180   24.8420   44.3480 O   0  0  0  0  0  0  0  0  0  0  0  0
   55.1180   26.3070   46.0080 O   0  0  0  0  0  0  0  0  0  0  0  0
   55.6490   23.8250   46.7660 N   0  0  0  0  0  0  0  0  0  0  0  0
   56.3800   23.8140   48.0490 C   0  0  0  0  0  0  0  0  0  0  0  0
   56.3210   22.4260   48.6940 C   0  0  0  0  0  0  0  0  0  0  0  0
   57.0050   21.4120   47.8570 N   0  0  0  0  0  0  0  0  0  0  0  0
   56.4770   20.0680   48.1370 C   0  0  0  0  0  0  0  0  0  0  0  0
   56.9740   21.7150   46.4050 C   0  0  0  0  0  0  0  0  0  0  0  0
   55.7460   22.5550   46.0070 C   0  0  0  0  0  0  0  0  0  0  0  0
   57.8710   26.8760   47.1340 C   0  0  0  0  0  0  0  0  0  0  0  0
   58.1430   32.0670   50.6730 C   0  0  0  0  0  0  0  0  0  0  0  0
   57.8880   30.6840   51.2700 C   0  0  0  0  0  0  0  0  0  0  0  0
   58.6176   29.4600   54.1576 H   0  0  0  0  0  0  0  0  0  0  0  0
   57.5231   28.9209   52.8391 H   0  0  0  0  0  0  0  0  0  0  0  0
   59.2466   28.4147   52.8391 H   0  0  0  0  0  0  0  0  0  0  0  0
   60.9892   30.6480   52.4853 H   0  0  0  0  0  0  0  0  0  0  0  0
   60.4075   29.2356   51.4789 H   0  0  0  0  0  0  0  0  0  0  0  0
   61.5158   31.4716   50.4097 H   0  0  0  0  0  0  0  0  0  0  0  0
   60.2745   30.4436   49.5812 H   0  0  0  0  0  0  0  0  0  0  0  0
   62.5687   34.0006   50.5880 H   0  0  0  0  0  0  0  0  0  0  0  0
   64.5777   33.9654   49.1177 H   0  0  0  0  0  0  0  0  0  0  0  0
   64.3340   33.5486   46.6738 H   0  0  0  0  0  0  0  0  0  0  0  0
   62.0706   33.2775   45.6724 H   0  0  0  0  0  0  0  0  0  0  0  0
   60.5951   30.8451   47.4015 H   0  0  0  0  0  0  0  0  0  0  0  0
   60.3980   30.7933   44.9552 H   0  0  0  0  0  0  0  0  0  0  0  0
   60.0000   29.1429   45.6105 H   0  0  0  0  0  0  0  0  0  0  0  0
   57.4499   28.7079   46.1030 H   0  0  0  0  0  0  0  0  0  0  0  0
   55.2970   28.6529   44.8436 H   0  0  0  0  0  0  0  0  0  0  0  0
   54.9753   30.1242   42.8509 H   0  0  0  0  0  0  0  0  0  0  0  0
   56.8033   31.6631   42.1270 H   0  0  0  0  0  0  0  0  0  0  0  0
   58.9630   31.7178   43.3753 H   0  0  0  0  0  0  0  0  0  0  0  0
   61.2826   27.1449   47.1308 H   0  0  0  0  0  0  0  0  0  0  0  0
   61.0333   25.2032   45.5916 H   0  0  0  0  0  0  0  0  0  0  0  0
   58.7661   24.3514   45.0052 H   0  0  0  0  0  0  0  0  0  0  0  0
   57.4310   24.0837   47.8681 H   0  0  0  0  0  0  0  0  0  0  0  0
   55.9112   24.5403   48.7293 H   0  0  0  0  0  0  0  0  0  0  0  0
   56.8108   22.4674   49.6781 H   0  0  0  0  0  0  0  0  0  0  0  0
   55.2649   22.1359   48.7959 H   0  0  0  0  0  0  0  0  0  0  0  0
   56.4176   19.9167   49.2249 H   0  0  0  0  0  0  0  0  0  0  0  0
   55.4733   19.9695   47.6977 H   0  0  0  0  0  0  0  0  0  0  0  0
   57.1452   19.3127   47.6977 H   0  0  0  0  0  0  0  0  0  0  0  0
   57.8844   22.2731   46.1410 H   0  0  0  0  0  0  0  0  0  0  0  0
   56.9163   20.7590   45.8639 H   0  0  0  0  0  0  0  0  0  0  0  0
   55.8137   22.7906   44.9347 H   0  0  0  0  0  0  0  0  0  0  0  0
   54.8493   21.9614   46.2381 H   0  0  0  0  0  0  0  0  0  0  0  0
   56.9785   27.3261   47.5931 H   0  0  0  0  0  0  0  0  0  0  0  0
   57.8323   32.8340   51.3977 H   0  0  0  0  0  0  0  0  0  0  0  0
   57.5642   32.1577   49.7420 H   0  0  0  0  0  0  0  0  0  0  0  0
   56.8842   30.6535   51.7188 H   0  0  0  0  0  0  0  0  0  0  0  0
   57.9500   29.9179   50.4831 H   0  0  0  0  0  0  0  0  0  0  0  0
  1  2  1  0
  2  3  1  0
  3  4  1  0
  4  5  1  0
  5  6  1  0
  6  7  2  0
  6  8  1  0
  8  9  2  0
  9 10  1  0
 10 11  2  0
 11 12  1  0
 12 13  2  0
 13 14  1  0
 14 15  1  0
 15 16  2  0
 15 17  1  0
 17 18  1  0
 18 19  1  0
 19 20  2  0
 20 21  1  0
 21 22  2  0
 22 23  1  0
 23 24  2  0
 17 25  1  0
 25 26  1  0
 26 27  2  0
 26 28  1  0
 28 29  2  0
 29 30  1  0
 30 31  2  0
 31 32  1  0
 32 33  1  0
 33 34  2  0
 33 35  2  0
 33 36  1  0
 36 37  1  0
 37 38  1  0
 38 39  1  0
 39 40  1  0
 39 41  1  0
 41 42  1  0
 32 43  2  0
  5 44  1  0
 44 45  1  0
 45  2  1  0
 13  8  1  0
 24 19  1  0
 43 28  1  0
 42 36  1  0
  1 46  1  0
  1 47  1  0
  1 48  1  0
  3 49  1  0
  3 50  1  0
  4 51  1  0
  4 52  1  0
  9 53  1  0
 10 54  1  0
 11 55  1  0
 12 56  1  0
 17 57  1  1
 18 58  1  0
 18 59  1  0
 20 60  1  0
 21 61  1  0
 22 62  1  0
 23 63  1  0
 24 64  1  0
 29 65  1  0
 30 66  1  0
 31 67  1  0
 37 68  1  0
 37 69  1  0
 38 70  1  0
 38 71  1  0
 40 72  1  0
 40 73  1  0
 40 74  1  0
 41 75  1  0
 41 76  1  0
 42 77  1  0
 42 78  1  0
 43 79  1  0
 44 80  1  0
 44 81  1  0
 45 82  1  0
 45 83  1  0
M  CHG  2  14  -1  25  -1
M  END
>  <UniqueID>  (46) 
43

>  <SMILES>  (46) 
CN1CCN(C(=O)c2ccccc2[N-]C(=O)[C@H](Cc2ccccc2)[N-]C(=O)c2cccc(S(=O)(=O)N3CCN(C)CC3)c2)CC1

>  <Energy>  (46) 
108.73350877337003

>  <Genealogy>  (46) 
CN1CCN(C(=O)c2ccccc2[N-]C(=O)C(Cc2ccccc2)[N-]C(=O)c2cccc(S(=O)(=O)N3CCN(C)CC3)c2)CC1 (protonated)
CN1CCN(C(=O)c2ccccc2[N-]C(=O)[C@H](Cc2ccccc2)[N-]C(=O)c2cccc(S(=O)(=O)N3CCN(C)CC3)c2)CC1 (chirality)
CN1CCN(C(=O)c2ccccc2[N-]C(=O)[C@H](Cc2ccccc2)[N-]C(=O)c2cccc(S(=O)(=O)N3CCN(C)CC3)c2)CC1 (3D coordinates assigned)
CN1CCN(C(=O)c2ccccc2[N-]C(=O)[C@H](Cc2ccccc2)[N-]C(=O)c2cccc(S(=O)(=O)N3CCN(C)CC3)c2)CC1 (nonaromatic ring conformer: 108.73350877337003 kcal/mol)

>  <smiles>  (46) 
CN1CCN(C(=O)c2ccccc2NC(=O)C(Cc2ccccc2)NC(=O)c2cccc(S(=O)(=O)N3CCN(C)CC3)c2)CC1

>  <score_type>  (46) 
oracle

>  <origin>  (46) 
adg

>  <m_score__min__energy>  (46) 
-13.17

>  <m_primary>  (46) 
energy

$$$$
46:0
     RDKit          3D

 64 68  0  0  1  0  0  0  0  0999 V2000
   58.6380   34.5290   52.3750 N   0  0  0  0  0  0  0  0  0  0  0  0
   58.8480   33.5080   51.4090 C   0  0  0  0  0  0  0  0  0  0  0  0
   58.1640   32.4680   51.3800 O   0  0  0  0  0  0  0  0  0  0  0  0
   59.8960   33.6670   50.4100 C   0  0  0  0  0  0  0  0  0  0  0  0
   59.5640   34.0270   49.1210 C   0  0  0  0  0  0  0  0  0  0  0  0
   60.5880   34.1680   48.2080 C   0  0  0  0  0  0  0  0  0  0  0  0
   60.2410   34.5390   46.8780 N   0  0  0  0  0  0  0  0  0  0  0  0
   59.5250   33.7690   46.1620 C   0  0  0  0  0  0  0  0  0  0  0  0
   59.2380   34.1890   44.9000 N   0  0  0  0  0  0  0  0  0  0  0  0
   58.4880   33.3860   44.1440 C   0  0  0  0  0  0  0  0  0  0  0  0
   57.9930   32.1720   44.5570 C   0  0  0  0  0  0  0  0  0  0  0  0
   57.0170   31.1600   43.5570 Cl  0  0  0  0  0  0  0  0  0  0  0  0
   58.2970   31.7680   45.8350 C   0  0  0  0  0  0  0  0  0  0  0  0
   57.9210   30.6660   46.3640 N   0  0  0  0  0  0  0  0  0  0  0  0
   58.6370   29.4560   46.2080 C   0  0  0  0  0  0  0  0  0  0  0  0
   58.2920   28.6220   45.1330 C   0  0  0  0  0  0  0  0  0  0  0  0
   58.9810   27.4290   44.9100 C   0  0  0  0  0  0  0  0  0  0  0  0
   60.0060   27.0750   45.7560 C   0  0  0  0  0  0  0  0  0  0  0  0
   60.3550   27.8920   46.8200 C   0  0  0  0  0  0  0  0  0  0  0  0
   59.6820   29.0940   47.0680 C   0  0  0  0  0  0  0  0  0  0  0  0
   60.1390   30.1160   48.4060 S   0  0  0  0  0  0  0  0  0  0  0  0
   58.8260   30.8920   49.1610 N   0  0  0  0  0  0  0  0  0  0  0  0
   61.1210   31.1640   47.9220 O   0  0  0  0  0  0  0  0  0  0  0  0
   60.8850   29.2830   49.4020 O   0  0  0  0  0  0  0  0  0  0  0  0
   59.0560   32.5860   46.5950 N   0  0  0  0  0  0  0  0  0  0  0  0
   61.9270   33.9540   48.5600 C   0  0  0  0  0  0  0  0  0  0  0  0
   62.2570   33.5970   49.8420 C   0  0  0  0  0  0  0  0  0  0  0  0
   63.6210   33.3880   50.1820 N   0  0  0  0  0  0  0  0  0  0  0  0
   64.3730   32.4310   49.4150 C   0  0  0  0  0  0  0  0  0  0  0  0
   65.8600   32.7190   49.6920 C   0  0  0  0  0  0  0  0  0  0  0  0
   66.0960   32.4410   51.0710 N   0  0  0  0  0  0  0  0  0  0  0  0
   67.4790   32.6420   51.3890 C   0  0  0  0  0  0  0  0  0  0  0  0
   68.3330   33.5110   50.5490 C   0  0  0  0  0  0  0  0  0  0  0  0
   67.8680   34.0130   51.8790 C   0  0  0  0  0  0  0  0  0  0  0  0
   65.2000   33.1040   51.9660 C   0  0  0  0  0  0  0  0  0  0  0  0
   64.2900   34.0890   51.2610 C   0  0  0  0  0  0  0  0  0  0  0  0
   61.2210   33.4610   50.7450 C   0  0  0  0  0  0  0  0  0  0  0  0
   59.1160   34.5180   53.3230 H   0  0  0  0  0  0  0  0  0  0  0  0
   57.9910   35.3380   52.1700 H   0  0  0  0  0  0  0  0  0  0  0  0
   58.5167   34.1962   48.8304 H   0  0  0  0  0  0  0  0  0  0  0  0
   59.5890   35.1040   44.5330 H   0  0  0  0  0  0  0  0  0  0  0  0
   58.2498   33.7171   43.1224 H   0  0  0  0  0  0  0  0  0  0  0  0
   57.4712   28.9113   44.4603 H   0  0  0  0  0  0  0  0  0  0  0  0
   58.7071   26.7785   44.0663 H   0  0  0  0  0  0  0  0  0  0  0  0
   60.5533   26.1359   45.5869 H   0  0  0  0  0  0  0  0  0  0  0  0
   61.1784   27.5893   47.4836 H   0  0  0  0  0  0  0  0  0  0  0  0
   59.2120   31.6990   49.7110 H   0  0  0  0  0  0  0  0  0  0  0  0
   58.2080   31.3090   48.4300 H   0  0  0  0  0  0  0  0  0  0  0  0
   59.3130   32.3160   47.5810 H   0  0  0  0  0  0  0  0  0  0  0  0
   62.7174   34.0729   47.8043 H   0  0  0  0  0  0  0  0  0  0  0  0
   64.1191   31.4081   49.7299 H   0  0  0  0  0  0  0  0  0  0  0  0
   64.1452   32.5144   48.3421 H   0  0  0  0  0  0  0  0  0  0  0  0
   66.4918   32.0734   49.0643 H   0  0  0  0  0  0  0  0  0  0  0  0
   66.1041   33.7658   49.4584 H   0  0  0  0  0  0  0  0  0  0  0  0
   67.5781   31.6055   51.7437 H   0  0  0  0  0  0  0  0  0  0  0  0
   69.3929   33.2574   50.3994 H   0  0  0  0  0  0  0  0  0  0  0  0
   68.2740   33.8876   49.5172 H   0  0  0  0  0  0  0  0  0  0  0  0
   68.5816   34.1213   52.7091 H   0  0  0  0  0  0  0  0  0  0  0  0
   67.3249   34.9009   52.2349 H   0  0  0  0  0  0  0  0  0  0  0  0
   64.5784   32.3468   52.4663 H   0  0  0  0  0  0  0  0  0  0  0  0
   65.8090   33.6712   52.6853 H   0  0  0  0  0  0  0  0  0  0  0  0
   63.5455   34.4821   51.9690 H   0  0  0  0  0  0  0  0  0  0  0  0
   64.8741   34.9325   50.8644 H   0  0  0  0  0  0  0  0  0  0  0  0
   61.4617   33.1753   51.7796 H   0  0  0  0  0  0  0  0  0  0  0  0
  1  2  1  0
  2  3  2  0
  2  4  1  0
  4  5  2  0
  5  6  1  0
  6  7  1  0
  7  8  2  0
  8  9  1  0
  9 10  1  0
 10 11  2  0
 11 12  1  0
 11 13  1  0
 13 14  2  0
 14 15  1  0
 15 16  2  0
 16 17  1  0
 17 18  2  0
 18 19  1  0
 19 20  2  0
 20 21  1  0
 21 22  1  0
 21 23  2  0
 21 24  2  0
 13 25  1  0
  6 26  2  0
 26 27  1  0
 27 28  1  0
 28 29  1  0
 29 30  1  0
 30 31  1  0
 31 32  1  0
 32 33  1  0
 33 34  1  0
 31 35  1  0
 35 36  1  0
 27 37  2  0
 37  4  1  0
 25  8  1  0
 36 28  1  0
 20 15  1  0
 34 32  1  0
  1 38  1  0
  1 39  1  0
  5 40  1  0
  9 41  1  0
 10 42  1  0
 16 43  1  0
 17 44  1  0
 18 45  1  0
 19 46  1  0
 22 47  1  0
 22 48  1  0
 25 49  1  0
 26 50  1  0
 29 51  1  0
 29 52  1  0
 30 53  1  0
 30 54  1  0
 32 55  1  0
 33 56  1  0
 33 57  1  0
 34 58  1  0
 34 59  1  0
 35 60  1  0
 35 61  1  0
 36 62  1  0
 36 63  1  0
 37 64  1  0
M  END
>  <smiles>  (47) 
NC(=O)c1cc(N=c2[nH]cc(Cl)c(=Nc3ccccc3S(N)(=O)=O)[nH]2)cc(N2CCN(C3CC3)CC2)c1

>  <score_type>  (47) 
oracle

>  <origin>  (47) 
adg

>  <m_score__min__energy>  (47) 
-10.41

>  <m_primary>  (47) 
energy

$$$$
47:0
     RDKit          3D

 45 48  0  0  0  0  0  0  0  0999 V2000
   56.1970   29.9600   55.0070 C   0  0  0  0  0  0  0  0  0  0  0  0
   55.7270   30.2180   53.7840 C   0  0  0  0  0  0  0  0  0  0  0  0
   54.4140   30.3550   53.5130 N   0  0  0  0  0  0  0  0  0  0  0  0
   54.3190   30.6830   52.2050 C   0  0  0  0  0  0  0  0  0  0  0  0
   53.1750   30.8870   51.5360 C   0  0  0  0  0  0  0  0  0  0  0  0
   52.0220   31.6270   52.0780 C   0  0  0  0  0  0  0  0  0  0  0  0
   51.6740   31.6010   53.3760 N   0  0  0  0  0  0  0  0  0  0  0  0
   50.5350   32.3270   53.4100 C   0  0  0  0  0  0  0  0  0  0  0  0
   49.9020   32.5450   54.4760 O   0  0  0  0  0  0  0  0  0  0  0  0
   50.1230   32.7920   52.2120 N   0  0  0  0  0  0  0  0  0  0  0  0
   51.0670   32.3290   51.3760 C   0  0  0  0  0  0  0  0  0  0  0  0
   51.0280   32.5060   49.9990 O   0  0  0  0  0  0  0  0  0  0  0  0
   55.5780   30.7390   51.6300 C   0  0  0  0  0  0  0  0  0  0  0  0
   56.4770   30.4320   52.6330 C   0  0  0  0  0  0  0  0  0  0  0  0
   57.9430   30.3830   52.4690 C   0  0  0  0  0  0  0  0  0  0  0  0
   58.6100   29.5810   53.1780 O   0  0  0  0  0  0  0  0  0  0  0  0
   58.6220   31.2520   51.5470 N   0  0  0  0  0  0  0  0  0  0  0  0
   58.2530   32.6770   51.4960 C   0  0  0  0  0  0  0  0  0  0  0  0
   59.2410   33.4790   50.6470 C   0  0  0  0  0  0  0  0  0  0  0  0
   59.5040   32.7600   49.3930 N   0  0  0  0  0  0  0  0  0  0  0  0
   59.4420   33.4250   48.1170 C   0  0  0  0  0  0  0  0  0  0  0  0
   58.2550   33.4510   47.3650 C   0  0  0  0  0  0  0  0  0  0  0  0
   58.2410   34.0870   46.1220 C   0  0  0  0  0  0  0  0  0  0  0  0
   59.4050   34.6810   45.6320 C   0  0  0  0  0  0  0  0  0  0  0  0
   60.5730   34.6230   46.3940 C   0  0  0  0  0  0  0  0  0  0  0  0
   60.5670   33.9990   47.6020 N   0  0  0  0  0  0  0  0  0  0  0  0
   59.8950   31.3430   49.4380 C   0  0  0  0  0  0  0  0  0  0  0  0
   59.8320   30.7780   50.8640 C   0  0  0  0  0  0  0  0  0  0  0  0
   57.2801   29.8583   55.1698 H   0  0  0  0  0  0  0  0  0  0  0  0
   55.5010   29.8492   55.8516 H   0  0  0  0  0  0  0  0  0  0  0  0
   53.6320   30.2070   54.1890 H   0  0  0  0  0  0  0  0  0  0  0  0
   53.0921   30.4762   50.5190 H   0  0  0  0  0  0  0  0  0  0  0  0
   55.8148   30.9800   50.5832 H   0  0  0  0  0  0  0  0  0  0  0  0
   57.2476   32.7710   51.0598 H   0  0  0  0  0  0  0  0  0  0  0  0
   58.2727   33.0768   52.5206 H   0  0  0  0  0  0  0  0  0  0  0  0
   58.8128   34.4666   50.4207 H   0  0  0  0  0  0  0  0  0  0  0  0
   60.1824   33.6063   51.2015 H   0  0  0  0  0  0  0  0  0  0  0  0
   57.3431   32.9736   47.7530 H   0  0  0  0  0  0  0  0  0  0  0  0
   57.3144   34.1198   45.5302 H   0  0  0  0  0  0  0  0  0  0  0  0
   59.4020   35.1891   44.6564 H   0  0  0  0  0  0  0  0  0  0  0  0
   61.4987   35.0823   46.0171 H   0  0  0  0  0  0  0  0  0  0  0  0
   59.2138   30.7653   48.7959 H   0  0  0  0  0  0  0  0  0  0  0  0
   60.9339   31.2641   49.0851 H   0  0  0  0  0  0  0  0  0  0  0  0
   59.8161   29.6791   50.8185 H   0  0  0  0  0  0  0  0  0  0  0  0
   60.7155   31.1193   51.4234 H   0  0  0  0  0  0  0  0  0  0  0  0
  1  2  2  0
  2  3  1  0
  3  4  1  0
  4  5  2  3
  5  6  1  0
  6  7  1  0
  7  8  1  0
  8  9  2  0
  8 10  1  0
 10 11  1  0
 11 12  1  0
  4 13  1  0
 13 14  2  0
 14 15  1  0
 15 16  2  0
 15 17  1  0
 17 18  1  0
 18 19  1  0
 19 20  1  0
 20 21  1  0
 21 22  2  0
 22 23  1  0
 23 24  2  0
 24 25  1  0
 25 26  2  0
 20 27  1  0
 27 28  1  0
 14  2  1  0
 28 17  1  0
 11  6  2  0
 26 21  1  0
  1 29  1  0
  1 30  1  0
  3 31  1  0
  5 32  1  0
 13 33  1  0
 18 34  1  0
 18 35  1  0
 19 36  1  0
 19 37  1  0
 22 38  1  0
 23 39  1  0
 24 40  1  0
 25 41  1  0
 27 42  1  0
 27 43  1  0
 28 44  1  0
 28 45  1  0
M  CHG  3   7  -1  10  -1  12  -1
M  END
>  <UniqueID>  (48) 
44

>  <SMILES>  (48) 
C=c1[nH]c(=Cc2[n-]c(=O)[n-]c2[O-])cc1C(=O)N1CCN(c2ccccn2)CC1

>  <Energy>  (48) 
119.17128656755666

>  <Genealogy>  (48) 
C=c1[nH]c(=Cc2[n-]c(=O)[n-]c2[O-])cc1C(=O)N1CCN(c2ccccn2)CC1 (protonated)
C=c1[nH]c(=Cc2[n-]c(=O)[n-]c2[O-])cc1C(=O)N1CCN(c2ccccn2)CC1 (3D coordinates assigned)
C=c1[nH]c(=Cc2[n-]c(=O)[n-]c2[O-])cc1C(=O)N1CCN(c2ccccn2)CC1 (nonaromatic ring conformer: 119.17128656755666 kcal/mol)

>  <smiles>  (48) 
C=c1[nH]c(=Cc2[nH]c(=O)[nH]c2O)cc1C(=O)N1CCN(c2ccccn2)CC1

>  <score_type>  (48) 
oracle

>  <origin>  (48) 
adg

>  <m_score__min__energy>  (48) 
-17.649999999999999

>  <m_primary>  (48) 
energy

$$$$
48:0
     RDKit          3D

 33 34  0  0  0  0  0  0  0  0999 V2000
   56.7356   25.1290   46.5487 H   0  0  0  0  0  0  0  0  0  0  0  0
   56.1470   25.9040   46.0360 C   0  0  0  0  0  0  0  0  0  0  0  0
   55.1451   25.6673   45.6484 H   0  0  0  0  0  0  0  0  0  0  0  0
   56.6490   27.1330   45.8840 C   0  0  0  0  0  0  0  0  0  0  0  0
   55.9070   28.0770   45.2480 N   0  0  0  0  0  0  0  0  0  0  0  0
   56.3570   29.3450   45.0560 C   0  0  0  0  0  0  0  0  0  0  0  0
   55.5930   30.1770   44.4980 O   0  0  0  0  0  0  0  0  0  0  0  0
   57.6500   29.7010   45.5180 C   0  0  0  0  0  0  0  0  0  0  0  0
   58.2030   30.9220   45.3780 C   0  0  0  0  0  0  0  0  0  0  0  0
   57.7630   31.5900   44.6229 H   0  0  0  0  0  0  0  0  0  0  0  0
   59.3480   31.4390   46.1510 C   0  0  0  0  0  0  0  0  0  0  0  0
   59.6530   32.7650   46.4430 C   0  0  0  0  0  0  0  0  0  0  0  0
   58.9620   34.0400   45.9750 C   0  0  0  0  0  0  0  0  0  0  0  0
   57.4340   33.9380   46.1660 C   0  0  0  0  0  0  0  0  0  0  0  0
   57.1990   33.9223   47.2405 H   0  0  0  0  0  0  0  0  0  0  0  0
   56.9471   34.8056   45.6968 H   0  0  0  0  0  0  0  0  0  0  0  0
   57.0667   33.0133   45.6968 H   0  0  0  0  0  0  0  0  0  0  0  0
   59.5120   35.2450   46.7600 C   0  0  0  0  0  0  0  0  0  0  0  0
   59.4234   35.0509   47.8391 H   0  0  0  0  0  0  0  0  0  0  0  0
   60.5698   35.3995   46.5008 H   0  0  0  0  0  0  0  0  0  0  0  0
   58.9357   36.1454   46.5008 H   0  0  0  0  0  0  0  0  0  0  0  0
   59.2490   34.2550   44.4730 C   0  0  0  0  0  0  0  0  0  0  0  0
   60.1245   34.9108   44.3572 H   0  0  0  0  0  0  0  0  0  0  0  0
   59.4520   33.2848   43.9959 H   0  0  0  0  0  0  0  0  0  0  0  0
   58.3750   34.7225   43.9959 H   0  0  0  0  0  0  0  0  0  0  0  0
   60.6890   32.7540   47.2570 O   0  0  0  0  0  0  0  0  0  0  0  0
   61.0210   31.5020   47.4740 C   0  0  0  0  0  0  0  0  0  0  0  0
   61.8561   31.1870   48.1169 H   0  0  0  0  0  0  0  0  0  0  0  0
   60.2150   30.6530   46.8140 N   0  0  0  0  0  0  0  0  0  0  0  0
   60.2400   29.6090   46.8410 H   0  0  0  0  0  0  0  0  0  0  0  0
   58.3740   28.7530   46.1730 N   0  0  0  0  0  0  0  0  0  0  0  0
   57.9210   27.4880   46.3680 C   0  0  0  0  0  0  0  0  0  0  0  0
   58.6470   26.6570   46.9780 O   0  0  0  0  0  0  0  0  0  0  0  0
  1  2  1  0
  2  3  1  0
  2  4  2  0
  4  5  1  0
  5  6  1  0
  6  7  2  0
  6  8  1  0
  8  9  2  0
  9 10  1  0
  9 11  1  0
 11 12  2  0
 12 13  1  0
 13 14  1  0
 14 15  1  0
 14 16  1  0
 14 17  1  0
 13 18  1  0
 18 19  1  0
 18 20  1  0
 18 21  1  0
 13 22  1  0
 22 23  1  0
 22 24  1  0
 22 25  1  0
 12 26  1  0
 26 27  1  0
 27 28  1  0
 27 29  2  0
 29 30  1  0
  8 31  1  0
 31 32  1  0
 32 33  2  0
 32  4  1  0
 29 11  1  0
M  CHG  3   5  -1  29   1  31  -1
M  END
>  <UniqueID>  (49) 
45

>  <SMILES>  (49) 
C=c1[n-]c(=O)/c(=C\c2[nH+]coc2C(C)(C)C)[n-]c1=O

>  <Energy>  (49) 
74.84631448705666

>  <Genealogy>  (49) 
C=c1[n-]c(=O)c(=Cc2[nH+]coc2C(C)(C)C)[n-]c1=O (protonated)
C=c1[n-]c(=O)/c(=C\c2[nH+]coc2C(C)(C)C)[n-]c1=O (cis-trans isomerization)
C=c1[n-]c(=O)/c(=C\c2[nH+]coc2C(C)(C)C)[n-]c1=O (3D coordinates assigned)
C=c1[n-]c(=O)/c(=C\c2[nH+]coc2C(C)(C)C)[n-]c1=O (optimized conformer: 74.84631448705666 kcal/mol)

>  <smiles>  (49) 
C=c1[nH]c(=O)c(=Cc2ncoc2C(C)(C)C)[nH]c1=O

>  <score_type>  (49) 
oracle

>  <origin>  (49) 
adg

>  <m_score__min__energy>  (49) 
-9.2200000000000006

>  <m_primary>  (49) 
energy

$$$$
49:0
     RDKit          3D

 37 39  0  0  0  0  0  0  0  0999 V2000
   53.8370   28.5930   54.1170 C   0  0  0  0  0  0  0  0  0  0  0  0
   54.4710   29.3870   53.2370 C   0  0  0  0  0  0  0  0  0  0  0  0
   53.8680   30.2880   52.3490 C   0  0  0  0  0  0  0  0  0  0  0  0
   52.5450   30.5270   52.2090 C   0  0  0  0  0  0  0  0  0  0  0  0
   51.8630   30.8870   50.9460 C   0  0  0  0  0  0  0  0  0  0  0  0
   51.7660   30.1110   49.8510 N   0  0  0  0  0  0  0  0  0  0  0  0
   51.0240   30.8540   49.0010 C   0  0  0  0  0  0  0  0  0  0  0  0
   50.7170   30.4600   47.8470 O   0  0  0  0  0  0  0  0  0  0  0  0
   50.6340   32.0510   49.4880 N   0  0  0  0  0  0  0  0  0  0  0  0
   51.1690   32.0530   50.7200 C   0  0  0  0  0  0  0  0  0  0  0  0
   51.0260   33.1010   51.6210 O   0  0  0  0  0  0  0  0  0  0  0  0
   54.9100   30.9040   51.6660 C   0  0  0  0  0  0  0  0  0  0  0  0
   56.0840   30.3730   52.1600 C   0  0  0  0  0  0  0  0  0  0  0  0
   57.4240   30.8160   51.7290 C   0  0  0  0  0  0  0  0  0  0  0  0
   58.0900   31.5760   52.4830 O   0  0  0  0  0  0  0  0  0  0  0  0
   57.9960   30.3430   50.5000 N   0  0  0  0  0  0  0  0  0  0  0  0
   59.2830   30.8180   50.0040 C   0  0  0  0  0  0  0  0  0  0  0  0
   59.5580   30.2420   48.6510 C   0  0  0  0  0  0  0  0  0  0  0  0
   60.6370   30.5440   47.8460 C   0  0  0  0  0  0  0  0  0  0  0  0
   60.4840   29.7660   46.7170 C   0  0  0  0  0  0  0  0  0  0  0  0
   59.3250   29.0410   46.9050 C   0  0  0  0  0  0  0  0  0  0  0  0
   58.7960   29.3460   48.0680 O   0  0  0  0  0  0  0  0  0  0  0  0
   55.8210   29.4280   53.0930 N   0  0  0  0  0  0  0  0  0  0  0  0
   56.8010   28.5800   53.7820 C   0  0  0  0  0  0  0  0  0  0  0  0
   54.4158   27.9214   54.7681 H   0  0  0  0  0  0  0  0  0  0  0  0
   52.7394   28.6148   54.1860 H   0  0  0  0  0  0  0  0  0  0  0  0
   51.9215   30.4470   53.1117 H   0  0  0  0  0  0  0  0  0  0  0  0
   54.8166   31.6691   50.8812 H   0  0  0  0  0  0  0  0  0  0  0  0
   57.5060   29.5940   49.9620 H   0  0  0  0  0  0  0  0  0  0  0  0
   59.2634   31.9156   49.9348 H   0  0  0  0  0  0  0  0  0  0  0  0
   60.0752   30.5003   50.6979 H   0  0  0  0  0  0  0  0  0  0  0  0
   61.4484   31.2553   48.0594 H   0  0  0  0  0  0  0  0  0  0  0  0
   61.1513   29.7307   45.8432 H   0  0  0  0  0  0  0  0  0  0  0  0
   58.9074   28.3174   46.1894 H   0  0  0  0  0  0  0  0  0  0  0  0
   56.6777   28.6867   54.8698 H   0  0  0  0  0  0  0  0  0  0  0  0
   56.6422   27.5297   53.4963 H   0  0  0  0  0  0  0  0  0  0  0  0
   57.8176   28.8880   53.4963 H   0  0  0  0  0  0  0  0  0  0  0  0
  1  2  2  0
  2  3  1  0
  3  4  2  3
  4  5  1  0
  5  6  1  0
  6  7  1  0
  7  8  2  0
  7  9  1  0
  9 10  1  0
 10 11  1  0
  3 12  1  0
 12 13  2  0
 13 14  1  0
 14 15  2  0
 14 16  1  0
 16 17  1  0
 17 18  1  0
 18 19  2  0
 19 20  1  0
 20 21  2  0
 21 22  1  0
 13 23  1  0
 23 24  1  0
 23  2  1  0
 10  5  2  0
 22 18  1  0
  1 25  1  0
  1 26  1  0
  4 27  1  0
 12 28  1  0
 16 29  1  0
 17 30  1  0
 17 31  1  0
 19 32  1  0
 20 33  1  0
 21 34  1  0
 24 35  1  0
 24 36  1  0
 24 37  1  0
M  CHG  3   6  -1   9  -1  11  -1
M  END
>  <UniqueID>  (50) 
46

>  <SMILES>  (50) 
C=c1c(=Cc2[n-]c(=O)[n-]c2[O-])cc(C(=O)NCc2ccco2)n1C

>  <Energy>  (50) 
128.67268772751004

>  <Genealogy>  (50) 
C=c1c(=Cc2[n-]c(=O)[n-]c2[O-])cc(C(=O)NCc2ccco2)n1C (protonated)
C=c1c(=Cc2[n-]c(=O)[n-]c2[O-])cc(C(=O)NCc2ccco2)n1C (3D coordinates assigned)
C=c1c(=Cc2[n-]c(=O)[n-]c2[O-])cc(C(=O)NCc2ccco2)n1C (optimized conformer: 128.67268772751004 kcal/mol)

>  <smiles>  (50) 
C=c1c(=Cc2[nH]c(=O)[nH]c2O)cc(C(=O)NCc2ccco2)n1C

>  <score_type>  (50) 
oracle

>  <origin>  (50) 
adg

>  <m_score__min__energy>  (50) 
-16.73

>  <m_primary>  (50) 
energy

$$$$
50:0
     RDKit          3D

 44 45  0  0  0  0  0  0  0  0999 V2000
   63.2890   31.7590   47.4250 C   0  0  0  0  0  0  0  0  0  0  0  0
   63.0090   33.5160   47.4860 S   0  0  0  0  0  0  0  0  0  0  0  0
   63.4790   34.1230   46.1930 O   0  0  0  0  0  0  0  0  0  0  0  0
   63.7770   34.1350   48.6200 O   0  0  0  0  0  0  0  0  0  0  0  0
   61.3150   33.8460   47.6710 N   0  0  0  0  0  0  0  0  0  0  0  0
   60.2680   33.3810   46.8090 C   0  0  0  0  0  0  0  0  0  0  0  0
   59.6860   34.2030   45.8270 C   0  0  0  0  0  0  0  0  0  0  0  0
   58.6530   33.7150   45.0200 C   0  0  0  0  0  0  0  0  0  0  0  0
   58.1920   32.3990   45.1770 C   0  0  0  0  0  0  0  0  0  0  0  0
   57.0490   31.8820   44.3450 C   0  0  0  0  0  0  0  0  0  0  0  0
   57.4640   30.6930   43.6050 N   0  0  0  0  0  0  0  0  0  0  0  0
   56.7850   29.4370   43.7320 C   0  0  0  0  0  0  0  0  0  0  0  0
   55.6880   29.3800   44.3530 O   0  0  0  0  0  0  0  0  0  0  0  0
   57.4020   28.2190   43.1600 C   0  0  0  0  0  0  0  0  0  0  0  0
   58.0500   27.2750   43.8560 C   0  0  0  0  0  0  0  0  0  0  0  0
   58.6490   27.4870   45.1880 C   0  0  0  0  0  0  0  0  0  0  0  0
   59.7640   28.3340   45.3020 C   0  0  0  0  0  0  0  0  0  0  0  0
   60.3350   28.5880   46.5500 C   0  0  0  0  0  0  0  0  0  0  0  0
   59.7940   28.0050   47.6980 C   0  0  0  0  0  0  0  0  0  0  0  0
   58.6800   27.1640   47.6000 C   0  0  0  0  0  0  0  0  0  0  0  0
   58.0990   26.8960   46.3490 C   0  0  0  0  0  0  0  0  0  0  0  0
   56.7110   25.8020   46.2520 S   0  0  0  0  0  0  0  0  0  0  0  0
   55.2640   26.7130   45.9910 N   0  0  0  0  0  0  0  0  0  0  0  0
   56.8840   24.8360   45.1120 O   0  0  0  0  0  0  0  0  0  0  0  0
   56.5940   25.0260   47.5330 O   0  0  0  0  0  0  0  0  0  0  0  0
   58.7770   31.5780   46.1520 C   0  0  0  0  0  0  0  0  0  0  0  0
   59.8090   32.0650   46.9590 C   0  0  0  0  0  0  0  0  0  0  0  0
   60.3600   31.2550   47.8990 F   0  0  0  0  0  0  0  0  0  0  0  0
   63.3523   31.3620   48.4489 H   0  0  0  0  0  0  0  0  0  0  0  0
   62.4569   31.2733   46.8942 H   0  0  0  0  0  0  0  0  0  0  0  0
   64.2308   31.5560   46.8942 H   0  0  0  0  0  0  0  0  0  0  0  0
   60.0449   35.2342   45.6931 H   0  0  0  0  0  0  0  0  0  0  0  0
   58.1996   34.3663   44.2583 H   0  0  0  0  0  0  0  0  0  0  0  0
   56.2066   31.6247   45.0040 H   0  0  0  0  0  0  0  0  0  0  0  0
   56.7420   32.6610   43.6316 H   0  0  0  0  0  0  0  0  0  0  0  0
   58.3180   30.7550   43.0050 H   0  0  0  0  0  0  0  0  0  0  0  0
   57.3218   28.0770   42.0722 H   0  0  0  0  0  0  0  0  0  0  0  0
   58.1415   26.2760   43.4047 H   0  0  0  0  0  0  0  0  0  0  0  0
   60.1900   28.8003   44.4014 H   0  0  0  0  0  0  0  0  0  0  0  0
   61.2116   29.2477   46.6294 H   0  0  0  0  0  0  0  0  0  0  0  0
   60.2444   28.2073   48.6809 H   0  0  0  0  0  0  0  0  0  0  0  0
   58.2564   26.7098   48.5079 H   0  0  0  0  0  0  0  0  0  0  0  0
   55.5090   27.4920   45.3400 H   0  0  0  0  0  0  0  0  0  0  0  0
   58.4217   30.5452   46.2823 H   0  0  0  0  0  0  0  0  0  0  0  0
  1  2  1  0
  2  3  2  0
  2  4  2  0
  2  5  1  0
  5  6  1  0
  6  7  2  0
  7  8  1  0
  8  9  2  0
  9 10  1  0
 10 11  1  0
 11 12  1  0
 12 13  2  0
 12 14  1  0
 14 15  2  3
 15 16  1  0
 16 17  2  0
 17 18  1  0
 18 19  2  0
 19 20  1  0
 20 21  2  0
 21 22  1  0
 22 23  1  0
 22 24  2  0
 22 25  2  0
  9 26  1  0
 26 27  2  0
 27 28  1  0
 27  6  1  0
 21 16  1  0
  1 29  1  0
  1 30  1  0
  1 31  1  0
  7 32  1  0
  8 33  1  0
 10 34  1  0
 10 35  1  0
 11 36  1  0
 14 37  1  0
 15 38  1  0
 17 39  1  0
 18 40  1  0
 19 41  1  0
 20 42  1  0
 23 43  1  0
 26 44  1  0
M  CHG  2   5  -1  23  -1
M  END
>  <UniqueID>  (51) 
47

>  <SMILES>  (51) 
CS(=O)(=O)[N-]c1ccc(CNC(=O)C=Cc2ccccc2S([NH-])(=O)=O)cc1F

>  <Energy>  (51) 
48.86644084876333

>  <Genealogy>  (51) 
CS(=O)(=O)[N-]c1ccc(CNC(=O)C=Cc2ccccc2S([NH-])(=O)=O)cc1F (protonated)
CS(=O)(=O)[N-]c1ccc(CNC(=O)C=Cc2ccccc2S([NH-])(=O)=O)cc1F (3D coordinates assigned)
CS(=O)(=O)[N-]c1ccc(CNC(=O)C=Cc2ccccc2S([NH-])(=O)=O)cc1F (optimized conformer: 48.86644084876333 kcal/mol)

>  <smiles>  (51) 
CS(=O)(=O)Nc1ccc(CNC(=O)C=Cc2ccccc2S(N)(=O)=O)cc1F

>  <score_type>  (51) 
oracle

>  <origin>  (51) 
adg

>  <m_score__min__energy>  (51) 
-13.17

>  <m_primary>  (51) 
energy

$$$$
51:0
     RDKit          3D

 64 67  0  0  0  0  0  0  0  0999 V2000
   56.7000   23.4550   44.9020 C   0  0  0  0  0  0  0  0  0  0  0  0
   57.0530   24.1370   46.5000 S   0  0  0  0  0  0  0  0  0  0  0  0
   57.0200   23.0280   47.5160 O   0  0  0  0  0  0  0  0  0  0  0  0
   56.0250   25.1710   46.8420 O   0  0  0  0  0  0  0  0  0  0  0  0
   58.6280   24.8560   46.4630 N   0  0  0  0  0  0  0  0  0  0  0  0
   58.8980   26.2440   46.7000 C   0  0  0  0  0  0  0  0  0  0  0  0
   58.6550   27.2270   45.7300 C   0  0  0  0  0  0  0  0  0  0  0  0
   58.9060   28.5730   46.0050 C   0  0  0  0  0  0  0  0  0  0  0  0
   59.3940   28.9650   47.2650 C   0  0  0  0  0  0  0  0  0  0  0  0
   59.6320   30.4010   47.5590 C   0  0  0  0  0  0  0  0  0  0  0  0
   58.7850   31.0410   48.2340 O   0  0  0  0  0  0  0  0  0  0  0  0
   60.8030   31.0780   47.0790 N   0  0  0  0  0  0  0  0  0  0  0  0
   61.1500   32.4420   47.5000 C   0  0  2  0  0  0  0  0  0  0  0  0
   60.7940   33.4490   46.3840 C   0  0  0  0  0  0  0  0  0  0  0  0
   59.3520   33.3490   45.9410 C   0  0  0  0  0  0  0  0  0  0  0  0
   58.4230   34.3350   46.3130 C   0  0  0  0  0  0  0  0  0  0  0  0
   57.0790   34.2000   45.9630 C   0  0  0  0  0  0  0  0  0  0  0  0
   56.6480   33.0890   45.2300 C   0  0  0  0  0  0  0  0  0  0  0  0
   57.5670   32.1050   44.8520 C   0  0  0  0  0  0  0  0  0  0  0  0
   56.9790   30.5660   43.8850 Br  0  0  0  0  0  0  0  0  0  0  0  0
   58.9160   32.2380   45.2010 C   0  0  0  0  0  0  0  0  0  0  0  0
   62.6000   32.5640   47.9170 C   0  0  0  0  0  0  0  0  0  0  0  0
   63.4700   32.7700   47.0310 O   0  0  0  0  0  0  0  0  0  0  0  0
   63.0190   32.4230   49.2850 N   0  0  0  0  0  0  0  0  0  0  0  0
   64.1690   31.5830   49.6160 C   0  0  0  0  0  0  0  0  0  0  0  0
   65.3590   32.4670   49.9920 C   0  0  0  0  0  0  0  0  0  0  0  0
   64.9620   33.4930   50.9740 N   0  0  0  0  0  0  0  0  0  0  0  0
   65.9100   33.9830   51.9510 C   0  0  0  0  0  0  0  0  0  0  0  0
   65.7050   35.0830   52.5350 O   0  0  0  0  0  0  0  0  0  0  0  0
   67.1620   33.2260   52.2840 C   0  0  0  0  0  0  0  0  0  0  0  0
   68.4030   34.0910   52.4480 C   0  0  0  0  0  0  0  0  0  0  0  0
   68.2310   33.2400   51.2020 C   0  0  0  0  0  0  0  0  0  0  0  0
   63.7640   34.2950   50.6770 C   0  0  0  0  0  0  0  0  0  0  0  0
   62.5880   33.3930   50.3000 C   0  0  0  0  0  0  0  0  0  0  0  0
   59.6310   27.9730   48.2350 C   0  0  0  0  0  0  0  0  0  0  0  0
   59.3950   26.6270   47.9460 C   0  0  0  0  0  0  0  0  0  0  0  0
   56.1973   22.4838   45.0207 H   0  0  0  0  0  0  0  0  0  0  0  0
   56.0442   24.1419   44.3469 H   0  0  0  0  0  0  0  0  0  0  0  0
   57.6395   23.3162   44.3469 H   0  0  0  0  0  0  0  0  0  0  0  0
   58.2634   26.9355   44.7443 H   0  0  0  0  0  0  0  0  0  0  0  0
   58.7208   29.3322   45.2309 H   0  0  0  0  0  0  0  0  0  0  0  0
   61.3200   30.6690   46.2710 H   0  0  0  0  0  0  0  0  0  0  0  0
   60.5525   32.6804   48.3922 H   0  0  0  0  0  0  0  0  0  0  0  0
   60.9766   34.4671   46.7583 H   0  0  0  0  0  0  0  0  0  0  0  0
   61.4243   33.2143   45.5136 H   0  0  0  0  0  0  0  0  0  0  0  0
   58.7560   35.2158   46.8817 H   0  0  0  0  0  0  0  0  0  0  0  0
   56.3548   34.9709   46.2649 H   0  0  0  0  0  0  0  0  0  0  0  0
   55.5885   32.9897   44.9516 H   0  0  0  0  0  0  0  0  0  0  0  0
   59.6388   31.4678   44.8938 H   0  0  0  0  0  0  0  0  0  0  0  0
   63.9142   30.9316   50.4650 H   0  0  0  0  0  0  0  0  0  0  0  0
   64.4334   30.9659   48.7446 H   0  0  0  0  0  0  0  0  0  0  0  0
   66.1508   31.8394   50.4269 H   0  0  0  0  0  0  0  0  0  0  0  0
   65.7234   32.9709   49.0846 H   0  0  0  0  0  0  0  0  0  0  0  0
   66.6681   32.4445   52.8801 H   0  0  0  0  0  0  0  0  0  0  0  0
   68.3227   35.1860   52.3814 H   0  0  0  0  0  0  0  0  0  0  0  0
   69.1824   34.1947   53.2173 H   0  0  0  0  0  0  0  0  0  0  0  0
   68.0263   33.7189   50.2331 H   0  0  0  0  0  0  0  0  0  0  0  0
   68.8345   32.4724   50.6955 H   0  0  0  0  0  0  0  0  0  0  0  0
   63.4956   34.8854   51.5655 H   0  0  0  0  0  0  0  0  0  0  0  0
   63.9853   34.9597   49.8289 H   0  0  0  0  0  0  0  0  0  0  0  0
   62.2365   32.8565   51.1937 H   0  0  0  0  0  0  0  0  0  0  0  0
   61.7704   34.0075   49.8952 H   0  0  0  0  0  0  0  0  0  0  0  0
   60.0051   28.2601   49.2288 H   0  0  0  0  0  0  0  0  0  0  0  0
   59.6030   25.8616   48.7082 H   0  0  0  0  0  0  0  0  0  0  0  0
  1  2  1  0
  2  3  2  0
  2  4  2  0
  2  5  1  0
  5  6  1  0
  6  7  2  0
  7  8  1  0
  8  9  2  0
  9 10  1  0
 10 11  2  0
 10 12  1  0
 12 13  1  0
 13 14  1  0
 14 15  1  0
 15 16  2  0
 16 17  1  0
 17 18  2  0
 18 19  1  0
 19 20  1  0
 19 21  2  0
 13 22  1  0
 22 23  2  0
 22 24  1  0
 24 25  1  0
 25 26  1  0
 26 27  1  0
 27 28  1  0
 28 29  2  0
 28 30  1  0
 30 31  1  0
 31 32  1  0
 27 33  1  0
 33 34  1  0
  9 35  1  0
 35 36  2  0
 36  6  1  0
 21 15  1  0
 34 24  1  0
 32 30  1  0
  1 37  1  0
  1 38  1  0
  1 39  1  0
  7 40  1  0
  8 41  1  0
 12 42  1  0
 13 43  1  1
 14 44  1  0
 14 45  1  0
 16 46  1  0
 17 47  1  0
 18 48  1  0
 21 49  1  0
 25 50  1  0
 25 51  1  0
 26 52  1  0
 26 53  1  0
 30 54  1  0
 31 55  1  0
 31 56  1  0
 32 57  1  0
 32 58  1  0
 33 59  1  0
 33 60  1  0
 34 61  1  0
 34 62  1  0
 35 63  1  0
 36 64  1  0
M  CHG  1   5  -1
M  END
>  <UniqueID>  (52) 
48

>  <SMILES>  (52) 
CS(=O)(=O)[N-]c1ccc(C(=O)N[C@H](Cc2cccc(Br)c2)C(=O)N2CCN(C(=O)C3CC3)CC2)cc1

>  <Energy>  (52) 
331.0015877027695

>  <Genealogy>  (52) 
CS(=O)(=O)[N-]c1ccc(C(=O)NC(Cc2cccc(Br)c2)C(=O)N2CCN(C(=O)C3CC3)CC2)cc1 (protonated)
CS(=O)(=O)[N-]c1ccc(C(=O)N[C@H](Cc2cccc(Br)c2)C(=O)N2CCN(C(=O)C3CC3)CC2)cc1 (chirality)
CS(=O)(=O)[N-]c1ccc(C(=O)N[C@H](Cc2cccc(Br)c2)C(=O)N2CCN(C(=O)C3CC3)CC2)cc1 (3D coordinates assigned)
CS(=O)(=O)[N-]c1ccc(C(=O)N[C@H](Cc2cccc(Br)c2)C(=O)N2CCN(C(=O)C3CC3)CC2)cc1 (nonaromatic ring conformer: 331.0015877027695 kcal/mol)

>  <smiles>  (52) 
CS(=O)(=O)Nc1ccc(C(=O)NC(Cc2cccc(Br)c2)C(=O)N2CCN(C(=O)C3CC3)CC2)cc1

>  <score_type>  (52) 
oracle

>  <origin>  (52) 
adg

>  <m_score__min__energy>  (52) 
-11.31

>  <m_primary>  (52) 
energy

$$$$
52:0
     RDKit          3D

 61 64  0  0  0  0  0  0  0  0999 V2000
   54.5946   29.0956   44.7175 H   0  0  0  0  0  0  0  0  0  0  0  0
   55.6640   29.3420   44.7930 C   0  0  0  0  0  0  0  0  0  0  0  0
   56.1720   30.5860   44.8320 N   0  0  0  0  0  0  0  0  0  0  0  0
   57.4940   30.5060   44.9190 N   0  0  0  0  0  0  0  0  0  0  0  0
   58.3180   31.7060   45.1450 C   0  0  0  0  0  0  0  0  0  0  0  0
   59.3783   31.4157   45.1825 H   0  0  0  0  0  0  0  0  0  0  0  0
   58.1280   32.6850   43.9790 C   0  0  0  0  0  0  0  0  0  0  0  0
   58.4933   32.2226   43.0501 H   0  0  0  0  0  0  0  0  0  0  0  0
   57.0597   32.9262   43.8763 H   0  0  0  0  0  0  0  0  0  0  0  0
   58.9140   33.9700   44.2510 C   0  0  0  0  0  0  0  0  0  0  0  0
   59.9857   33.7247   44.2878 H   0  0  0  0  0  0  0  0  0  0  0  0
   58.6831   34.6760   43.4397 H   0  0  0  0  0  0  0  0  0  0  0  0
   58.5340   34.6190   45.5260 N   0  0  0  0  0  0  0  0  0  0  0  0
   59.6400   35.3360   46.2010 C   0  0  0  0  0  0  0  0  0  0  0  0
   60.2405   35.8485   45.4350 H   0  0  0  0  0  0  0  0  0  0  0  0
   59.1815   36.0380   46.9130 H   0  0  0  0  0  0  0  0  0  0  0  0
   60.5560   34.4280   47.0000 C   0  0  0  0  0  0  0  0  0  0  0  0
   61.6330   33.7860   46.3670 C   0  0  0  0  0  0  0  0  0  0  0  0
   61.7844   33.9125   45.2848 H   0  0  0  0  0  0  0  0  0  0  0  0
   62.5100   32.9910   47.0990 C   0  0  0  0  0  0  0  0  0  0  0  0
   63.3622   32.5086   46.5980 H   0  0  0  0  0  0  0  0  0  0  0  0
   62.3100   32.8050   48.4670 C   0  0  0  0  0  0  0  0  0  0  0  0
   63.0154   32.1835   49.0381 H   0  0  0  0  0  0  0  0  0  0  0  0
   61.2130   33.4040   49.1310 C   0  0  0  0  0  0  0  0  0  0  0  0
   60.9890   33.1920   50.5540 N   0  0  0  0  0  0  0  0  0  0  0  0
   59.6550   33.3780   51.1420 C   0  0  0  0  0  0  0  0  0  0  0  0
   59.7331   33.3671   52.2392 H   0  0  0  0  0  0  0  0  0  0  0  0
   59.2407   34.3426   50.8135 H   0  0  0  0  0  0  0  0  0  0  0  0
   58.9927   32.5635   50.8135 H   0  0  0  0  0  0  0  0  0  0  0  0
   62.0980   32.7920   51.4340 C   0  0  0  0  0  0  0  0  0  0  0  0
   61.7908   32.9028   52.4844 H   0  0  0  0  0  0  0  0  0  0  0  0
   62.3615   31.7422   51.2378 H   0  0  0  0  0  0  0  0  0  0  0  0
   62.9709   33.4319   51.2378 H   0  0  0  0  0  0  0  0  0  0  0  0
   60.3370   34.2110   48.3700 C   0  0  0  0  0  0  0  0  0  0  0  0
   59.4689   34.6770   48.8592 H   0  0  0  0  0  0  0  0  0  0  0  0
   57.6270   33.8570   46.4160 C   0  0  0  0  0  0  0  0  0  0  0  0
   57.6756   34.2959   47.4235 H   0  0  0  0  0  0  0  0  0  0  0  0
   56.6167   33.9212   45.9858 H   0  0  0  0  0  0  0  0  0  0  0  0
   57.9890   32.3610   46.5150 C   0  0  0  0  0  0  0  0  0  0  0  0
   58.8678   32.2589   47.1687 H   0  0  0  0  0  0  0  0  0  0  0  0
   57.1055   31.8423   46.9154 H   0  0  0  0  0  0  0  0  0  0  0  0
   57.8320   29.1860   44.9070 C   0  0  0  0  0  0  0  0  0  0  0  0
   59.0250   28.6550   44.9190 N   0  0  0  0  0  0  0  0  0  0  0  0
   60.1860   29.0340   45.6630 C   0  0  0  0  0  0  0  0  0  0  0  0
   61.2570   29.2790   45.0420 O   0  0  0  0  0  0  0  0  0  0  0  0
   60.1920   28.9850   47.1520 C   0  0  0  0  0  0  0  0  0  0  0  0
   60.0660   30.2030   47.8560 C   0  0  0  0  0  0  0  0  0  0  0  0
   59.9304   31.1404   47.2967 H   0  0  0  0  0  0  0  0  0  0  0  0
   60.1110   30.2350   49.2500 C   0  0  0  0  0  0  0  0  0  0  0  0
   60.0035   31.1923   49.7810 H   0  0  0  0  0  0  0  0  0  0  0  0
   60.2920   29.0560   49.9710 C   0  0  0  0  0  0  0  0  0  0  0  0
   60.3490   29.0869   51.0691 H   0  0  0  0  0  0  0  0  0  0  0  0
   60.4010   27.8370   49.3020 C   0  0  0  0  0  0  0  0  0  0  0  0
   60.5395   26.9112   49.8797 H   0  0  0  0  0  0  0  0  0  0  0  0
   60.3360   27.7760   47.8960 C   0  0  0  0  0  0  0  0  0  0  0  0
   60.4010   26.4190   47.2400 C   0  0  0  0  0  0  0  0  0  0  0  0
   60.4384   25.6388   48.0145 H   0  0  0  0  0  0  0  0  0  0  0  0
   59.5089   26.2714   46.6136 H   0  0  0  0  0  0  0  0  0  0  0  0
   61.3031   26.3574   46.6136 H   0  0  0  0  0  0  0  0  0  0  0  0
   56.6870   28.4240   44.8620 C   0  0  0  0  0  0  0  0  0  0  0  0
   56.6073   27.3270   44.8777 H   0  0  0  0  0  0  0  0  0  0  0  0
  1  2  1  0
  2  3  1  0
  3  4  1  0
  4  5  1  0
  5  6  1  0
  5  7  1  0
  7  8  1  0
  7  9  1  0
  7 10  1  0
 10 11  1  0
 10 12  1  0
 10 13  1  0
 13 14  1  0
 14 15  1  0
 14 16  1  0
 14 17  1  0
 17 18  2  0
 18 19  1  0
 18 20  1  0
 20 21  1  0
 20 22  2  0
 22 23  1  0
 22 24  1  0
 24 25  1  0
 25 26  1  0
 26 27  1  0
 26 28  1  0
 26 29  1  0
 25 30  1  0
 30 31  1  0
 30 32  1  0
 30 33  1  0
 24 34  2  0
 34 35  1  0
 13 36  1  0
 36 37  1  0
 36 38  1  0
 36 39  1  0
 39 40  1  0
 39 41  1  0
  4 42  1  0
 42 43  2  0
 43 44  1  0
 44 45  2  0
 44 46  1  0
 46 47  2  0
 47 48  1  0
 47 49  1  0
 49 50  1  0
 49 51  2  0
 51 52  1  0
 51 53  1  0
 53 54  1  0
 53 55  2  0
 55 56  1  0
 56 57  1  0
 56 58  1  0
 56 59  1  0
 42 60  1  0
 60 61  1  0
 60  2  2  0
 39  5  1  0
 55 46  1  0
 34 17  1  0
M  CHG  1   3  -1
M  END
>  <UniqueID>  (53) 
49

>  <SMILES>  (53) 
Cc1ccccc1C(=O)/N=c1/cc[n-]n1C1CCN(Cc2cccc(N(C)C)c2)CC1

>  <Energy>  (53) 
123.39218266580119

>  <Genealogy>  (53) 
Cc1ccccc1C(=O)N=c1cc[n-]n1C1CCN(Cc2cccc(N(C)C)c2)CC1 (protonated)
Cc1ccccc1C(=O)/N=c1/cc[n-]n1C1CCN(Cc2cccc(N(C)C)c2)CC1 (cis-trans isomerization)
Cc1ccccc1C(=O)/N=c1/cc[n-]n1C1CCN(Cc2cccc(N(C)C)c2)CC1 (3D coordinates assigned)
Cc1ccccc1C(=O)/N=c1/cc[n-]n1C1CCN(Cc2cccc(N(C)C)c2)CC1 (nonaromatic ring conformer: 123.39218266580119 kcal/mol)

>  <smiles>  (53) 
Cc1ccccc1C(=O)N=c1cc[nH]n1C1CCN(Cc2cccc(N(C)C)c2)CC1

>  <score_type>  (53) 
oracle

>  <origin>  (53) 
adg

>  <m_score__min__energy>  (53) 
-10.300000000000001

>  <m_primary>  (53) 
energy

$$$$
53:0
     RDKit          3D

 55 58  0  0  0  0  0  0  0  0999 V2000
   60.4990   29.9650   50.0240 C   0  0  0  0  0  0  0  0  0  0  0  0
   59.7550   30.2790   48.9600 C   0  0  0  0  0  0  0  0  0  0  0  0
   59.1200   29.3580   48.2560 O   0  0  0  0  0  0  0  0  0  0  0  0
   58.5620   29.9280   47.2120 C   0  0  0  0  0  0  0  0  0  0  0  0
   57.7880   29.2470   46.1570 C   0  0  0  0  0  0  0  0  0  0  0  0
   57.0460   29.9630   45.4270 O   0  0  0  0  0  0  0  0  0  0  0  0
   57.8570   27.8210   45.9040 N   0  0  0  0  0  0  0  0  0  0  0  0
   57.9720   26.8860   47.0440 C   0  0  0  0  0  0  0  0  0  0  0  0
   58.0400   25.3910   46.6550 C   0  0  0  0  0  0  0  0  0  0  0  0
   57.0830   25.0170   45.4880 C   0  0  0  0  0  0  0  0  0  0  0  0
   55.6330   25.3540   45.8590 C   0  0  0  0  0  0  0  0  0  0  0  0
   55.2120   26.7190   45.9780 N   0  0  0  0  0  0  0  0  0  0  0  0
   54.7790   24.4360   46.0280 O   0  0  0  0  0  0  0  0  0  0  0  0
   57.1540   23.5550   45.1240 N   0  0  0  0  0  0  0  0  0  0  0  0
   58.4170   22.8690   45.4930 C   0  0  0  0  0  0  0  0  0  0  0  0
   58.1990   21.3490   45.5740 C   0  0  0  0  0  0  0  0  0  0  0  0
   57.0620   20.8640   44.6600 C   0  0  0  0  0  0  0  0  0  0  0  0
   56.9890   21.7170   43.3940 C   0  0  0  0  0  0  0  0  0  0  0  0
   56.7480   23.2030   43.7350 C   0  0  0  0  0  0  0  0  0  0  0  0
   57.5480   25.8990   44.2950 C   0  0  0  0  0  0  0  0  0  0  0  0
   57.4230   27.3980   44.5560 C   0  0  0  0  0  0  0  0  0  0  0  0
   58.8450   31.2830   47.2150 C   0  0  0  0  0  0  0  0  0  0  0  0
   59.5870   31.5320   48.3530 C   0  0  0  0  0  0  0  0  0  0  0  0
   60.0220   32.7650   48.6860 C   0  0  0  0  0  0  0  0  0  0  0  0
   61.2610   33.3970   48.2030 C   0  0  0  0  0  0  0  0  0  0  0  0
   61.7100   33.3320   46.9320 N   0  0  0  0  0  0  0  0  0  0  0  0
   62.9600   33.8380   47.0180 C   0  0  0  0  0  0  0  0  0  0  0  0
   63.7170   33.9500   46.0170 O   0  0  0  0  0  0  0  0  0  0  0  0
   63.3430   34.1920   48.2650 N   0  0  0  0  0  0  0  0  0  0  0  0
   62.2600   33.8990   49.0040 C   0  0  0  0  0  0  0  0  0  0  0  0
   62.1930   34.0860   50.3860 O   0  0  0  0  0  0  0  0  0  0  0  0
   61.0143   30.7566   50.5877 H   0  0  0  0  0  0  0  0  0  0  0  0
   60.5964   28.9148   50.3365 H   0  0  0  0  0  0  0  0  0  0  0  0
   58.8873   27.1364   47.6004 H   0  0  0  0  0  0  0  0  0  0  0  0
   57.0543   27.0090   47.6379 H   0  0  0  0  0  0  0  0  0  0  0  0
   59.0706   25.1555   46.3510 H   0  0  0  0  0  0  0  0  0  0  0  0
   57.7253   24.8100   47.5344 H   0  0  0  0  0  0  0  0  0  0  0  0
   54.6450   27.0520   46.7840 H   0  0  0  0  0  0  0  0  0  0  0  0
   59.1821   23.0852   44.7328 H   0  0  0  0  0  0  0  0  0  0  0  0
   58.7468   23.2346   46.4767 H   0  0  0  0  0  0  0  0  0  0  0  0
   59.1296   20.8435   45.2767 H   0  0  0  0  0  0  0  0  0  0  0  0
   57.9187   21.1079   46.6100 H   0  0  0  0  0  0  0  0  0  0  0  0
   57.2453   19.8162   44.3799 H   0  0  0  0  0  0  0  0  0  0  0  0
   56.1090   20.9517   45.2023 H   0  0  0  0  0  0  0  0  0  0  0  0
   57.9370   21.6243   42.8438 H   0  0  0  0  0  0  0  0  0  0  0  0
   56.1483   21.3596   42.7813 H   0  0  0  0  0  0  0  0  0  0  0  0
   57.3265   23.8219   43.0333 H   0  0  0  0  0  0  0  0  0  0  0  0
   55.6670   23.3884   43.6514 H   0  0  0  0  0  0  0  0  0  0  0  0
   58.6030   25.6698   44.0839 H   0  0  0  0  0  0  0  0  0  0  0  0
   56.8899   25.6642   43.4454 H   0  0  0  0  0  0  0  0  0  0  0  0
   58.0378   27.9289   43.8142 H   0  0  0  0  0  0  0  0  0  0  0  0
   56.3531   27.6420   44.4796 H   0  0  0  0  0  0  0  0  0  0  0  0
   58.5382   32.0192   46.4574 H   0  0  0  0  0  0  0  0  0  0  0  0
   59.3970   33.3485   49.3781 H   0  0  0  0  0  0  0  0  0  0  0  0
   62.4520   33.3450   51.0240 H   0  0  0  0  0  0  0  0  0  0  0  0
  1  2  2  0
  2  3  1  0
  3  4  1  0
  4  5  1  0
  5  6  2  0
  5  7  1  0
  7  8  1  0
  8  9  1  0
  9 10  1  0
 10 11  1  0
 11 12  1  0
 11 13  2  0
 10 14  1  0
 14 15  1  0
 15 16  1  0
 16 17  1  0
 17 18  1  0
 18 19  1  0
 10 20  1  0
 20 21  1  0
  4 22  2  0
 22 23  1  0
 23 24  2  3
 24 25  1  0
 25 26  1  0
 26 27  1  0
 27 28  2  0
 27 29  1  0
 29 30  1  0
 30 31  1  0
 23  2  1  0
 30 25  2  0
 21  7  1  0
 19 14  1  0
  1 32  1  0
  1 33  1  0
  8 34  1  0
  8 35  1  0
  9 36  1  0
  9 37  1  0
 12 38  1  0
 15 39  1  0
 15 40  1  0
 16 41  1  0
 16 42  1  0
 17 43  1  0
 17 44  1  0
 18 45  1  0
 18 46  1  0
 19 47  1  0
 19 48  1  0
 20 49  1  0
 20 50  1  0
 21 51  1  0
 21 52  1  0
 22 53  1  0
 24 54  1  0
 31 55  1  0
M  CHG  3  12  -1  26  -1  29  -1
M  END
>  <UniqueID>  (54) 
50

>  <SMILES>  (54) 
C=c1oc(C(=O)N2CCC(C([NH-])=O)(N3CCCCC3)CC2)cc1=Cc1[n-]c(=O)[n-]c1O

>  <Energy>  (54) 
149.28607223491954

>  <Genealogy>  (54) 
C=c1oc(C(=O)N2CCC(C([NH-])=O)(N3CCCCC3)CC2)cc1=Cc1[n-]c(=O)[n-]c1O (protonated)
C=c1oc(C(=O)N2CCC(C([NH-])=O)(N3CCCCC3)CC2)cc1=Cc1[n-]c(=O)[n-]c1O (3D coordinates assigned)
C=c1oc(C(=O)N2CCC(C([NH-])=O)(N3CCCCC3)CC2)cc1=Cc1[n-]c(=O)[n-]c1O (nonaromatic ring conformer: 149.28607223491954 kcal/mol)

>  <smiles>  (54) 
C=c1oc(C(=O)N2CCC(C(N)=O)(N3CCCCC3)CC2)cc1=Cc1[nH]c(=O)[nH]c1O

>  <score_type>  (54) 
oracle

>  <origin>  (54) 
adg

>  <m_score__min__energy>  (54) 
-13.57

>  <m_primary>  (54) 
energy

$$$$
54:0
     RDKit          3D

 34 35  0  0  0  0  0  0  0  0999 V2000
   56.0070   24.0180   46.7800 C   0  0  0  0  0  0  0  0  0  0  0  0
   56.5270   25.1730   46.3660 C   0  0  0  0  0  0  0  0  0  0  0  0
   58.1750   25.4890   46.2450 S   0  0  0  0  0  0  0  0  0  0  0  0
   57.9570   27.0700   45.6770 C   0  0  0  0  0  0  0  0  0  0  0  0
   58.9150   27.9670   45.3900 C   0  0  0  0  0  0  0  0  0  0  0  0
   58.7730   29.4260   45.5810 C   0  0  0  0  0  0  0  0  0  0  0  0
   58.8310   30.0140   46.8570 C   0  0  0  0  0  0  0  0  0  0  0  0
   58.7280   31.4000   47.0010 C   0  0  0  0  0  0  0  0  0  0  0  0
   58.5810   32.2180   45.8740 C   0  0  0  0  0  0  0  0  0  0  0  0
   58.4760   33.9660   46.0670 S   0  0  0  0  0  0  0  0  0  0  0  0
   57.6370   34.5600   44.9700 O   0  0  0  0  0  0  0  0  0  0  0  0
   57.8230   34.2740   47.3850 O   0  0  0  0  0  0  0  0  0  0  0  0
   60.0640   34.6710   46.0420 N   0  0  0  0  0  0  0  0  0  0  0  0
   61.0550   33.6740   46.4430 C   0  0  0  0  0  0  0  0  0  0  0  0
   61.2750   33.7460   47.9520 C   0  0  0  0  0  0  0  0  0  0  0  0
   60.3580   34.6250   48.5450 O   0  0  0  0  0  0  0  0  0  0  0  0
   58.5590   31.6390   44.5980 C   0  0  0  0  0  0  0  0  0  0  0  0
   58.6620   30.2530   44.4520 C   0  0  0  0  0  0  0  0  0  0  0  0
   56.5790   27.3040   45.6140 C   0  0  0  0  0  0  0  0  0  0  0  0
   56.0800   28.3990   45.2390 O   0  0  0  0  0  0  0  0  0  0  0  0
   55.8020   26.2520   45.9900 N   0  0  0  0  0  0  0  0  0  0  0  0
   54.4260   26.2940   45.9890 O   0  0  0  0  0  0  0  0  0  0  0  0
   54.9153   23.8929   46.8302 H   0  0  0  0  0  0  0  0  0  0  0  0
   56.6695   23.1897   47.0716 H   0  0  0  0  0  0  0  0  0  0  0  0
   59.8670   27.5914   44.9867 H   0  0  0  0  0  0  0  0  0  0  0  0
   58.9581   29.3795   47.7465 H   0  0  0  0  0  0  0  0  0  0  0  0
   58.7625   31.8505   48.0039 H   0  0  0  0  0  0  0  0  0  0  0  0
   60.6940   32.6705   46.1735 H   0  0  0  0  0  0  0  0  0  0  0  0
   62.0048   33.8757   45.9261 H   0  0  0  0  0  0  0  0  0  0  0  0
   61.1449   32.7428   48.3842 H   0  0  0  0  0  0  0  0  0  0  0  0
   62.2934   34.1150   48.1437 H   0  0  0  0  0  0  0  0  0  0  0  0
   59.8040   34.9960   47.8100 H   0  0  0  0  0  0  0  0  0  0  0  0
   58.4603   32.2779   43.7080 H   0  0  0  0  0  0  0  0  0  0  0  0
   58.6561   29.8073   43.4464 H   0  0  0  0  0  0  0  0  0  0  0  0
  1  2  2  0
  2  3  1  0
  3  4  1  0
  4  5  2  3
  5  6  1  0
  6  7  2  0
  7  8  1  0
  8  9  2  0
  9 10  1  0
 10 11  2  0
 10 12  2  0
 10 13  1  0
 13 14  1  0
 14 15  1  0
 15 16  1  0
  9 17  1  0
 17 18  2  0
  4 19  1  0
 19 20  2  0
 19 21  1  0
 21 22  1  0
 21  2  1  0
 18  6  1  0
  1 23  1  0
  1 24  1  0
  5 25  1  0
  7 26  1  0
  8 27  1  0
 14 28  1  0
 14 29  1  0
 15 30  1  0
 15 31  1  0
 16 32  1  0
 17 33  1  0
 18 34  1  0
M  CHG  2  13  -1  22  -1
M  END
>  <UniqueID>  (55) 
51

>  <SMILES>  (55) 
C=c1sc(=Cc2ccc(S(=O)(=O)[N-]CCO)cc2)c(=O)n1[O-]

>  <Energy>  (55) 
67.45536400504402

>  <Genealogy>  (55) 
C=c1sc(=Cc2ccc(S(=O)(=O)[N-]CCO)cc2)c(=O)n1[O-] (protonated)
C=c1sc(=Cc2ccc(S(=O)(=O)[N-]CCO)cc2)c(=O)n1[O-] (3D coordinates assigned)
C=c1sc(=Cc2ccc(S(=O)(=O)[N-]CCO)cc2)c(=O)n1[O-] (optimized conformer: 67.45536400504402 kcal/mol)

>  <smiles>  (55) 
C=c1sc(=Cc2ccc(S(=O)(=O)NCCO)cc2)c(=O)n1O

>  <score_type>  (55) 
oracle

>  <origin>  (55) 
adg

>  <m_score__min__energy>  (55) 
-11.5

>  <m_primary>  (55) 
energy

$$$$
55:0
     RDKit          3D

 61 64  0  0  1  0  0  0  0  0999 V2000
   55.4380   24.5880   45.5250 C   0  0  0  0  0  0  0  0  0  0  0  0
   55.2770   25.9120   46.0280 O   0  0  0  0  0  0  0  0  0  0  0  0
   56.2270   26.9190   45.8300 C   0  0  0  0  0  0  0  0  0  0  0  0
   57.5410   26.7490   46.2320 C   0  0  0  0  0  0  0  0  0  0  0  0
   58.4800   27.7590   46.0300 C   0  0  0  0  0  0  0  0  0  0  0  0
   59.7700   27.5000   46.4640 O   0  0  0  0  0  0  0  0  0  0  0  0
   60.3040   28.3810   47.4040 C   0  0  0  0  0  0  0  0  0  0  0  0
   60.6160   29.6930   47.1050 C   0  0  0  0  0  0  0  0  0  0  0  0
   61.1370   30.4710   48.1030 C   0  0  0  0  0  0  0  0  0  0  0  0
   61.3590   29.9880   49.3960 C   0  0  0  0  0  0  0  0  0  0  0  0
   62.0220   31.0620   50.5770 S   0  0  0  0  0  0  0  0  0  0  0  0
   62.6950   30.3360   51.7050 O   0  0  0  0  0  0  0  0  0  0  0  0
   63.0840   31.9050   49.9040 O   0  0  0  0  0  0  0  0  0  0  0  0
   60.8810   32.1370   51.2650 N   0  0  0  0  0  0  0  0  0  0  0  0
   60.4630   33.0770   50.2730 C   0  0  0  0  0  0  0  0  0  0  0  0
   59.4140   34.0400   50.7260 C   0  0  0  0  0  0  0  0  0  0  0  0
   58.4430   33.4970   51.6330 N   0  0  0  0  0  0  0  0  0  0  0  0
   58.4940   34.1130   52.9460 C   0  0  0  0  0  0  0  0  0  0  0  0
   58.4560   32.0530   51.7220 C   0  0  0  0  0  0  0  0  0  0  0  0
   59.8300   31.5060   52.0030 C   0  0  0  0  0  0  0  0  0  0  0  0
   61.0480   28.6820   49.6910 C   0  0  0  0  0  0  0  0  0  0  0  0
   60.5170   27.8840   48.6740 C   0  0  0  0  0  0  0  0  0  0  0  0
   58.1270   28.9050   45.4470 N   0  0  0  0  0  0  0  0  0  0  0  0
   56.8490   29.0620   45.0600 C   0  0  0  0  0  0  0  0  0  0  0  0
   56.5120   30.1570   44.5030 N   0  0  0  0  0  0  0  0  0  0  0  0
   57.2810   31.3540   44.4980 C   0  0  0  0  0  0  0  0  0  0  0  0
   57.7960   31.8520   43.4720 O   0  0  0  0  0  0  0  0  0  0  0  0
   57.4510   31.9960   45.7710 N   0  0  0  0  0  0  0  0  0  0  0  0
   58.2000   33.2040   45.9110 C   0  0  0  0  0  0  0  0  0  0  0  0
   58.5520   33.5480   47.2110 C   0  0  0  0  0  0  0  0  0  0  0  0
   59.2690   34.6910   47.4240 C   0  0  0  0  0  0  0  0  0  0  0  0
   59.6570   35.5220   46.3740 C   0  0  0  0  0  0  0  0  0  0  0  0
   59.2840   35.1400   45.0970 C   0  0  0  0  0  0  0  0  0  0  0  0
   58.5590   33.9900   44.8450 C   0  0  0  0  0  0  0  0  0  0  0  0
   55.9230   28.0920   45.2480 N   0  0  0  0  0  0  0  0  0  0  0  0
   55.5236   23.8841   46.3660 H   0  0  0  0  0  0  0  0  0  0  0  0
   54.5657   24.3207   44.9104 H   0  0  0  0  0  0  0  0  0  0  0  0
   56.3489   24.5375   44.9104 H   0  0  0  0  0  0  0  0  0  0  0  0
   57.8464   25.8090   46.7148 H   0  0  0  0  0  0  0  0  0  0  0  0
   60.4509   30.0997   46.0964 H   0  0  0  0  0  0  0  0  0  0  0  0
   61.3911   31.5176   47.8790 H   0  0  0  0  0  0  0  0  0  0  0  0
   61.3439   33.6545   49.9558 H   0  0  0  0  0  0  0  0  0  0  0  0
   60.0137   32.4894   49.4589 H   0  0  0  0  0  0  0  0  0  0  0  0
   59.9161   34.8808   51.2269 H   0  0  0  0  0  0  0  0  0  0  0  0
   58.8594   34.3373   49.8238 H   0  0  0  0  0  0  0  0  0  0  0  0
   58.4295   33.3335   53.7195 H   0  0  0  0  0  0  0  0  0  0  0  0
   59.4407   34.6621   53.0569 H   0  0  0  0  0  0  0  0  0  0  0  0
   57.6505   34.8103   53.0569 H   0  0  0  0  0  0  0  0  0  0  0  0
   57.7802   31.7433   52.5328 H   0  0  0  0  0  0  0  0  0  0  0  0
   58.1297   31.6549   50.7499 H   0  0  0  0  0  0  0  0  0  0  0  0
   60.0382   31.6339   53.0755 H   0  0  0  0  0  0  0  0  0  0  0  0
   59.8173   30.4513   51.6907 H   0  0  0  0  0  0  0  0  0  0  0  0
   61.2126   28.2761   50.7000 H   0  0  0  0  0  0  0  0  0  0  0  0
   60.2630   26.8359   48.8905 H   0  0  0  0  0  0  0  0  0  0  0  0
   58.8190   29.6630   45.2930 H   0  0  0  0  0  0  0  0  0  0  0  0
   57.0310   31.6020   46.6520 H   0  0  0  0  0  0  0  0  0  0  0  0
   58.2573   32.9088   48.0563 H   0  0  0  0  0  0  0  0  0  0  0  0
   59.5480   34.9633   48.4526 H   0  0  0  0  0  0  0  0  0  0  0  0
   60.2344   36.4411   46.5526 H   0  0  0  0  0  0  0  0  0  0  0  0
   59.5760   35.7767   44.2488 H   0  0  0  0  0  0  0  0  0  0  0  0
   58.2777   33.7128   43.8183 H   0  0  0  0  0  0  0  0  0  0  0  0
  1  2  1  0
  2  3  1  0
  3  4  1  0
  4  5  2  0
  5  6  1  0
  6  7  1  0
  7  8  2  0
  8  9  1  0
  9 10  2  0
 10 11  1  0
 11 12  2  0
 11 13  2  0
 11 14  1  0
 14 15  1  0
 15 16  1  0
 16 17  1  0
 17 18  1  0
 17 19  1  0
 19 20  1  0
 10 21  1  0
 21 22  2  0
  5 23  1  0
 23 24  1  0
 24 25  2  0
 25 26  1  0
 26 27  2  0
 26 28  1  0
 28 29  1  0
 29 30  2  0
 30 31  1  0
 31 32  2  0
 32 33  1  0
 33 34  2  0
 24 35  1  0
 35  3  2  0
 22  7  1  0
 34 29  1  0
 20 14  1  0
  1 36  1  0
  1 37  1  0
  1 38  1  0
  4 39  1  0
  8 40  1  0
  9 41  1  0
 15 42  1  0
 15 43  1  0
 16 44  1  0
 16 45  1  0
 18 46  1  0
 18 47  1  0
 18 48  1  0
 19 49  1  0
 19 50  1  0
 20 51  1  0
 20 52  1  0
 21 53  1  0
 22 54  1  0
 23 55  1  0
 28 56  1  0
 30 57  1  0
 31 58  1  0
 32 59  1  0
 33 60  1  0
 34 61  1  0
M  END
>  <smiles>  (56) 
COc1cc(Oc2ccc(S(=O)(=O)N3CCN(C)CC3)cc2)[nH]c(=NC(=O)Nc2ccccc2)n1

>  <score_type>  (56) 
oracle

>  <origin>  (56) 
adg

>  <m_score__min__energy>  (56) 
-9.4100000000000001

>  <m_primary>  (56) 
energy

$$$$
56:0
     RDKit          3D

 54 56  0  0  0  0  0  0  0  0999 V2000
   58.6150   34.1320   45.8360 C   0  0  0  0  0  0  0  0  0  0  0  0
   57.3120   33.5560   45.2840 C   0  0  0  0  0  0  0  0  0  0  0  0
   57.5480   32.4820   44.2040 C   0  0  0  0  0  0  0  0  0  0  0  0
   56.7110   31.2080   44.4070 C   0  0  0  0  0  0  0  0  0  0  0  0
   57.3550   30.2390   45.3680 C   0  0  0  0  0  0  0  0  0  0  0  0
   58.5590   30.5830   46.0040 C   0  0  0  0  0  0  0  0  0  0  0  0
   59.1980   29.6790   46.8690 C   0  0  0  0  0  0  0  0  0  0  0  0
   60.4380   30.0370   47.5060 N   0  0  0  0  0  0  0  0  0  0  0  0
   61.5440   30.6070   46.7240 C   0  0  0  0  0  0  0  0  0  0  0  0
   61.9780   31.9420   47.3410 C   0  0  0  0  0  0  0  0  0  0  0  0
   62.0390   31.8620   48.8090 N   0  0  0  0  0  0  0  0  0  0  0  0
   62.3290   33.0590   49.5560 C   0  0  0  0  0  0  0  0  0  0  0  0
   63.1000   33.9260   49.0600 O   0  0  0  0  0  0  0  0  0  0  0  0
   61.7410   33.2900   50.9230 C   0  0  0  0  0  0  0  0  0  0  0  0
   60.3500   32.7200   51.0220 C   0  0  0  0  0  0  0  0  0  0  0  0
   59.9780   31.9600   52.1430 C   0  0  0  0  0  0  0  0  0  0  0  0
   58.6980   31.4020   52.2240 C   0  0  0  0  0  0  0  0  0  0  0  0
   57.7800   31.5940   51.1810 C   0  0  0  0  0  0  0  0  0  0  0  0
   56.5030   31.0440   51.2500 O   0  0  0  0  0  0  0  0  0  0  0  0
   58.1500   32.3420   50.0590 C   0  0  0  0  0  0  0  0  0  0  0  0
   59.4300   32.9000   49.9750 C   0  0  0  0  0  0  0  0  0  0  0  0
   61.8550   30.5630   49.4730 C   0  0  0  0  0  0  0  0  0  0  0  0
   60.5700   29.9000   48.9660 C   0  0  0  0  0  0  0  0  0  0  0  0
   58.6080   28.4290   47.1120 C   0  0  0  0  0  0  0  0  0  0  0  0
   57.4100   28.0810   46.4850 C   0  0  0  0  0  0  0  0  0  0  0  0
   56.7840   28.9760   45.6120 C   0  0  0  0  0  0  0  0  0  0  0  0
   55.5960   28.6020   44.9920 O   0  0  0  0  0  0  0  0  0  0  0  0
   58.5850   34.1187   46.9355 H   0  0  0  0  0  0  0  0  0  0  0  0
   59.4622   33.5245   45.4850 H   0  0  0  0  0  0  0  0  0  0  0  0
   58.7359   35.1674   45.4850 H   0  0  0  0  0  0  0  0  0  0  0  0
   56.7479   33.1037   46.1130 H   0  0  0  0  0  0  0  0  0  0  0  0
   56.7552   34.3814   44.8163 H   0  0  0  0  0  0  0  0  0  0  0  0
   57.2933   32.9126   43.2243 H   0  0  0  0  0  0  0  0  0  0  0  0
   58.6054   32.1862   44.2699 H   0  0  0  0  0  0  0  0  0  0  0  0
   55.7248   31.4933   44.8020 H   0  0  0  0  0  0  0  0  0  0  0  0
   56.6269   30.7051   43.4323 H   0  0  0  0  0  0  0  0  0  0  0  0
   59.0067   31.5713   45.8228 H   0  0  0  0  0  0  0  0  0  0  0  0
   62.3936   29.9083   46.7290 H   0  0  0  0  0  0  0  0  0  0  0  0
   61.2104   30.7749   45.6894 H   0  0  0  0  0  0  0  0  0  0  0  0
   62.9736   32.2072   46.9556 H   0  0  0  0  0  0  0  0  0  0  0  0
   61.2362   32.7066   47.0671 H   0  0  0  0  0  0  0  0  0  0  0  0
   62.3813   32.8061   51.6753 H   0  0  0  0  0  0  0  0  0  0  0  0
   61.6861   34.3744   51.0995 H   0  0  0  0  0  0  0  0  0  0  0  0
   60.6965   31.8029   52.9609 H   0  0  0  0  0  0  0  0  0  0  0  0
   58.4109   30.8118   53.1068 H   0  0  0  0  0  0  0  0  0  0  0  0
   55.6800   31.5840   51.0080 H   0  0  0  0  0  0  0  0  0  0  0  0
   57.4319   32.4922   49.2394 H   0  0  0  0  0  0  0  0  0  0  0  0
   59.7173   33.4815   49.0866 H   0  0  0  0  0  0  0  0  0  0  0  0
   62.7141   29.9134   49.2495 H   0  0  0  0  0  0  0  0  0  0  0  0
   61.7806   30.7171   50.5596 H   0  0  0  0  0  0  0  0  0  0  0  0
   60.5918   28.8312   49.2252 H   0  0  0  0  0  0  0  0  0  0  0  0
   59.7116   30.3979   49.4407 H   0  0  0  0  0  0  0  0  0  0  0  0
   59.0918   27.7199   47.7998 H   0  0  0  0  0  0  0  0  0  0  0  0
   56.9564   27.0978   46.6788 H   0  0  0  0  0  0  0  0  0  0  0  0
  1  2  1  0
  2  3  1  0
  3  4  1  0
  4  5  1  0
  5  6  2  0
  6  7  1  0
  7  8  1  0
  8  9  1  0
  9 10  1  0
 10 11  1  0
 11 12  1  0
 12 13  2  0
 12 14  1  0
 14 15  1  0
 15 16  2  0
 16 17  1  0
 17 18  2  0
 18 19  1  0
 18 20  1  0
 20 21  2  0
 11 22  1  0
 22 23  1  0
  7 24  2  0
 24 25  1  0
 25 26  2  0
 26 27  1  0
 26  5  1  0
 23  8  1  0
 21 15  1  0
  1 28  1  0
  1 29  1  0
  1 30  1  0
  2 31  1  0
  2 32  1  0
  3 33  1  0
  3 34  1  0
  4 35  1  0
  4 36  1  0
  6 37  1  0
  9 38  1  0
  9 39  1  0
 10 40  1  0
 10 41  1  0
 14 42  1  0
 14 43  1  0
 16 44  1  0
 17 45  1  0
 19 46  1  0
 20 47  1  0
 21 48  1  0
 22 49  1  0
 22 50  1  0
 23 51  1  0
 23 52  1  0
 24 53  1  0
 25 54  1  0
M  CHG  1  27  -1
M  END
>  <UniqueID>  (57) 
52

>  <SMILES>  (57) 
CCCCc1cc(N2CCN(C(=O)Cc3ccc(O)cc3)CC2)ccc1[O-]

>  <Energy>  (57) 
55.76366116897314

>  <Genealogy>  (57) 
CCCCc1cc(N2CCN(C(=O)Cc3ccc(O)cc3)CC2)ccc1[O-] (protonated)
CCCCc1cc(N2CCN(C(=O)Cc3ccc(O)cc3)CC2)ccc1[O-] (3D coordinates assigned)
CCCCc1cc(N2CCN(C(=O)Cc3ccc(O)cc3)CC2)ccc1[O-] (nonaromatic ring conformer: 55.76366116897314 kcal/mol)

>  <smiles>  (57) 
CCCCc1cc(N2CCN(C(=O)Cc3ccc(O)cc3)CC2)ccc1O

>  <score_type>  (57) 
oracle

>  <origin>  (57) 
adg

>  <m_score__min__energy>  (57) 
-9.8699999999999992

>  <m_primary>  (57) 
energy

$$$$
57:0
     RDKit          3D

 53 57  0  0  0  0  0  0  0  0999 V2000
   66.7900   32.8630   52.3290 C   0  0  0  0  0  0  0  0  0  0  0  0
   66.4220   32.4060   50.6490 S   0  0  0  0  0  0  0  0  0  0  0  0
   67.3720   33.1050   49.7180 O   0  0  0  0  0  0  0  0  0  0  0  0
   66.5870   30.9220   50.4830 O   0  0  0  0  0  0  0  0  0  0  0  0
   64.7670   32.8680   50.2690 C   0  0  0  0  0  0  0  0  0  0  0  0
   63.9290   33.3980   51.2770 C   0  0  0  0  0  0  0  0  0  0  0  0
   62.6110   33.7830   50.9780 C   0  0  0  0  0  0  0  0  0  0  0  0
   62.1630   33.6310   49.6670 C   0  0  0  0  0  0  0  0  0  0  0  0
   62.9710   33.1260   48.6890 C   0  0  0  0  0  0  0  0  0  0  0  0
   64.2830   32.7360   48.9520 C   0  0  0  0  0  0  0  0  0  0  0  0
   62.3070   33.0730   47.4410 N   0  0  0  0  0  0  0  0  0  0  0  0
   61.1050   33.5350   47.6360 C   0  0  0  0  0  0  0  0  0  0  0  0
   60.1110   33.6390   46.5400 C   0  0  0  0  0  0  0  0  0  0  0  0
   59.7760   34.8920   45.9980 C   0  0  0  0  0  0  0  0  0  0  0  0
   58.8390   34.9910   44.9680 C   0  0  0  0  0  0  0  0  0  0  0  0
   58.2220   33.8440   44.4650 C   0  0  0  0  0  0  0  0  0  0  0  0
   58.5390   32.5780   44.9890 C   0  0  0  0  0  0  0  0  0  0  0  0
   57.8760   31.3580   44.4620 C   0  0  0  0  0  0  0  0  0  0  0  0
   57.3840   31.3210   43.1490 C   0  0  0  0  0  0  0  0  0  0  0  0
   56.7660   30.1650   42.6730 C   0  0  0  0  0  0  0  0  0  0  0  0
   56.6350   29.0780   43.4780 N   0  0  0  0  0  0  0  0  0  0  0  0
   57.0920   29.0710   44.7610 C   0  0  0  0  0  0  0  0  0  0  0  0
   56.9120   27.9080   45.5280 O   0  0  0  0  0  0  0  0  0  0  0  0
   57.8660   27.3520   46.4330 C   0  0  0  0  0  0  0  0  0  0  0  0
   59.1300   26.9210   45.6760 C   0  0  0  0  0  0  0  0  0  0  0  0
   60.3960   26.7380   46.5020 C   0  0  0  0  0  0  0  0  0  0  0  0
   60.2220   27.9820   45.6500 C   0  0  0  0  0  0  0  0  0  0  0  0
   57.7280   30.2190   45.2700 C   0  0  0  0  0  0  0  0  0  0  0  0
   59.4870   32.4860   46.0260 C   0  0  0  0  0  0  0  0  0  0  0  0
   60.8450   33.9530   49.0680 C   0  0  0  0  0  0  0  0  0  0  0  0
   66.2517   32.1946   53.0171 H   0  0  0  0  0  0  0  0  0  0  0  0
   67.8724   32.7751   52.5042 H   0  0  0  0  0  0  0  0  0  0  0  0
   66.4733   33.9018   52.5042 H   0  0  0  0  0  0  0  0  0  0  0  0
   64.3114   33.5097   52.3023 H   0  0  0  0  0  0  0  0  0  0  0  0
   61.9513   34.1929   51.7569 H   0  0  0  0  0  0  0  0  0  0  0  0
   64.9239   32.3357   48.1526 H   0  0  0  0  0  0  0  0  0  0  0  0
   60.2559   35.8015   46.3885 H   0  0  0  0  0  0  0  0  0  0  0  0
   58.5857   35.9768   44.5509 H   0  0  0  0  0  0  0  0  0  0  0  0
   57.4837   33.9310   43.6542 H   0  0  0  0  0  0  0  0  0  0  0  0
   57.4853   32.2010   42.4968 H   0  0  0  0  0  0  0  0  0  0  0  0
   56.3832   30.1329   41.6423 H   0  0  0  0  0  0  0  0  0  0  0  0
   56.1660   28.2240   43.1000 H   0  0  0  0  0  0  0  0  0  0  0  0
   58.1341   28.1070   47.1867 H   0  0  0  0  0  0  0  0  0  0  0  0
   57.4242   26.4715   46.9223 H   0  0  0  0  0  0  0  0  0  0  0  0
   58.6038   26.2989   44.9370 H   0  0  0  0  0  0  0  0  0  0  0  0
   60.3524   26.8123   47.5986 H   0  0  0  0  0  0  0  0  0  0  0  0
   61.1631   25.9541   46.5852 H   0  0  0  0  0  0  0  0  0  0  0  0
   60.0523   28.9574   46.1295 H   0  0  0  0  0  0  0  0  0  0  0  0
   60.8109   28.4720   44.8607 H   0  0  0  0  0  0  0  0  0  0  0  0
   58.1095   30.2239   46.3017 H   0  0  0  0  0  0  0  0  0  0  0  0
   59.7437   31.4999   46.4403 H   0  0  0  0  0  0  0  0  0  0  0  0
   60.6112   35.0251   49.1454 H   0  0  0  0  0  0  0  0  0  0  0  0
   59.9839   33.4640   49.5468 H   0  0  0  0  0  0  0  0  0  0  0  0
  1  2  1  0
  2  3  2  0
  2  4  2  0
  2  5  1  0
  5  6  2  0
  6  7  1  0
  7  8  2  0
  8  9  1  0
  9 10  2  0
  9 11  1  0
 11 12  2  0
 12 13  1  0
 13 14  2  0
 14 15  1  0
 15 16  2  0
 16 17  1  0
 17 18  1  0
 18 19  2  0
 19 20  1  0
 20 21  2  0
 21 22  1  0
 22 23  1  0
 23 24  1  0
 24 25  1  0
 25 26  1  0
 26 27  1  0
 22 28  2  0
 17 29  2  0
 12 30  1  0
 10  5  1  0
 29 13  1  0
 30  8  1  0
 28 18  1  0
 27 25  1  0
  1 31  1  0
  1 32  1  0
  1 33  1  0
  6 34  1  0
  7 35  1  0
 10 36  1  0
 14 37  1  0
 15 38  1  0
 16 39  1  0
 19 40  1  0
 20 41  1  0
 21 42  1  0
 24 43  1  0
 24 44  1  0
 25 45  1  0
 26 46  1  0
 26 47  1  0
 27 48  1  0
 27 49  1  0
 28 50  1  0
 29 51  1  0
 30 52  1  0
 30 53  1  0
M  CHG  1  21   1
M  END
>  <UniqueID>  (58) 
53

>  <SMILES>  (58) 
CS(=O)(=O)c1ccc2c(c1)N=C(c1cccc(-c3cc[nH+]c(OCC4CC4)c3)c1)C2

>  <Energy>  (58) 
344.8074303354091

>  <Genealogy>  (58) 
CS(=O)(=O)c1ccc2c(c1)N=C(c1cccc(-c3cc[nH+]c(OCC4CC4)c3)c1)C2 (protonated)
CS(=O)(=O)c1ccc2c(c1)N=C(c1cccc(-c3cc[nH+]c(OCC4CC4)c3)c1)C2 (3D coordinates assigned)
CS(=O)(=O)c1ccc2c(c1)N=C(c1cccc(-c3cc[nH+]c(OCC4CC4)c3)c1)C2 (nonaromatic ring conformer: 344.8074303354091 kcal/mol)

>  <smiles>  (58) 
CS(=O)(=O)c1ccc2c(c1)N=C(c1cccc(-c3ccnc(OCC4CC4)c3)c1)C2

>  <score_type>  (58) 
oracle

>  <origin>  (58) 
adg

>  <m_score__min__energy>  (58) 
-8.4000000000000004

>  <m_primary>  (58) 
energy

$$$$
58:0
     RDKit          3D

 35 36  0  0  0  0  0  0  0  0999 V2000
   57.7180   32.3300   41.2560 C   0  0  0  0  0  0  0  0  0  0  0  0
   57.7910   32.1830   42.7540 C   0  0  0  0  0  0  0  0  0  0  0  0
   58.4670   33.1630   43.4990 C   0  0  0  0  0  0  0  0  0  0  0  0
   58.5630   33.0600   44.8870 C   0  0  0  0  0  0  0  0  0  0  0  0
   57.9760   31.9850   45.5500 C   0  0  0  0  0  0  0  0  0  0  0  0
   57.2870   31.0010   44.8340 C   0  0  0  0  0  0  0  0  0  0  0  0
   56.6870   29.9200   45.5600 N   0  0  0  0  0  0  0  0  0  0  0  0
   57.2930   28.8210   45.9050 C   0  0  0  0  0  0  0  0  0  0  0  0
   57.1360   27.5150   45.1620 C   0  0  0  0  0  0  0  0  0  0  0  0
   56.3860   26.5200   46.0190 C   0  0  0  0  0  0  0  0  0  0  0  0
   55.1650   26.5170   46.0010 O   0  0  0  0  0  0  0  0  0  0  0  0
   57.1020   25.5290   46.9020 C   0  0  0  0  0  0  0  0  0  0  0  0
   58.6010   25.8280   47.0030 C   0  0  0  0  0  0  0  0  0  0  0  0
   59.2400   25.9880   45.6210 C   0  0  0  0  0  0  0  0  0  0  0  0
   58.4940   26.9830   44.7670 C   0  0  0  0  0  0  0  0  0  0  0  0
   59.0110   27.3780   43.7330 O   0  0  0  0  0  0  0  0  0  0  0  0
   57.2270   31.0630   43.4190 C   0  0  0  0  0  0  0  0  0  0  0  0
   56.5280   29.9760   42.6340 C   0  0  0  0  0  0  0  0  0  0  0  0
   57.2417   33.2891   41.0045 H   0  0  0  0  0  0  0  0  0  0  0  0
   58.7339   32.3036   40.8350 H   0  0  0  0  0  0  0  0  0  0  0  0
   57.1251   31.5046   40.8350 H   0  0  0  0  0  0  0  0  0  0  0  0
   58.9251   34.0198   42.9833 H   0  0  0  0  0  0  0  0  0  0  0  0
   59.1032   33.8291   45.4587 H   0  0  0  0  0  0  0  0  0  0  0  0
   58.0549   31.9094   46.6446 H   0  0  0  0  0  0  0  0  0  0  0  0
   57.9542   28.8443   46.7838 H   0  0  0  0  0  0  0  0  0  0  0  0
   56.5528   27.6825   44.2445 H   0  0  0  0  0  0  0  0  0  0  0  0
   56.6632   25.5696   47.9099 H   0  0  0  0  0  0  0  0  0  0  0  0
   56.9842   24.5302   46.4565 H   0  0  0  0  0  0  0  0  0  0  0  0
   58.7414   26.7596   47.5708 H   0  0  0  0  0  0  0  0  0  0  0  0
   59.0866   24.9810   47.5097 H   0  0  0  0  0  0  0  0  0  0  0  0
   60.2766   26.3341   45.7466 H   0  0  0  0  0  0  0  0  0  0  0  0
   59.2058   25.0119   45.1150 H   0  0  0  0  0  0  0  0  0  0  0  0
   56.0673   29.2596   43.3300 H   0  0  0  0  0  0  0  0  0  0  0  0
   55.7487   30.4246   42.0005 H   0  0  0  0  0  0  0  0  0  0  0  0
   57.2595   29.4531   42.0005 H   0  0  0  0  0  0  0  0  0  0  0  0
  1  2  1  0
  2  3  2  0
  3  4  1  0
  4  5  2  0
  5  6  1  0
  6  7  1  0
  7  8  2  3
  8  9  1  0
  9 10  1  0
 10 11  2  0
 10 12  1  0
 12 13  1  0
 13 14  1  0
 14 15  1  0
 15 16  2  0
  6 17  2  0
 17 18  1  0
 17  2  1  0
 15  9  1  0
  1 19  1  0
  1 20  1  0
  1 21  1  0
  3 22  1  0
  4 23  1  0
  5 24  1  0
  8 25  1  0
  9 26  1  0
 12 27  1  0
 12 28  1  0
 13 29  1  0
 13 30  1  0
 14 31  1  0
 14 32  1  0
 18 33  1  0
 18 34  1  0
 18 35  1  0
M  END
>  <UniqueID>  (59) 
54

>  <SMILES>  (59) 
Cc1cccc(N=CC2C(=O)CCCC2=O)c1C

>  <Energy>  (59) 
40.53889830411834

>  <Genealogy>  (59) 
Cc1cccc(N=CC2C(=O)CCCC2=O)c1C (3D coordinates assigned)
Cc1cccc(N=CC2C(=O)CCCC2=O)c1C (nonaromatic ring conformer: 40.53889830411834 kcal/mol)

>  <smiles>  (59) 
Cc1cccc(N=CC2C(=O)CCCC2=O)c1C

>  <score_type>  (59) 
oracle

>  <origin>  (59) 
adg

>  <m_score__min__energy>  (59) 
-7.54

>  <m_primary>  (59) 
energy

$$$$
59:0
     RDKit          3D

 80 84  0  0  0  0  0  0  0  0999 V2000
   57.8280   25.9100   43.3880 C   0  0  0  0  0  0  0  0  0  0  0  0
   58.0820   27.1290   43.8850 C   0  0  0  0  0  0  0  0  0  0  0  0
   57.3860   28.2060   43.4970 N   0  0  0  0  0  0  0  0  0  0  0  0
   57.8490   29.2710   44.1780 C   0  0  0  0  0  0  0  0  0  0  0  0
   57.2770   30.5230   43.9900 C   0  0  0  0  0  0  0  0  0  0  0  0
   57.5630   31.7000   44.6620 C   0  0  0  0  0  0  0  0  0  0  0  0
   58.5920   31.9710   45.5710 C   0  0  0  0  0  0  0  0  0  0  0  0
   58.6640   33.3130   46.0950 N   0  0  0  0  0  0  0  0  0  0  0  0
   57.5990   34.2750   45.7900 C   0  0  0  0  0  0  0  0  0  0  0  0
   59.8180   33.7300   46.8980 C   0  0  0  0  0  0  0  0  0  0  0  0
   59.5890   33.4060   48.3510 C   0  0  0  0  0  0  0  0  0  0  0  0
   58.5830   32.4940   48.7160 C   0  0  0  0  0  0  0  0  0  0  0  0
   58.3420   32.2160   50.0640 C   0  0  0  0  0  0  0  0  0  0  0  0
   59.0970   32.8460   51.0570 C   0  0  0  0  0  0  0  0  0  0  0  0
   60.0970   33.7560   50.7020 C   0  0  0  0  0  0  0  0  0  0  0  0
   60.3440   34.0370   49.3530 C   0  0  0  0  0  0  0  0  0  0  0  0
   59.6380   31.1070   45.9130 C   0  0  0  0  0  0  0  0  0  0  0  0
   59.8300   29.7520   45.6280 C   0  0  0  0  0  0  0  0  0  0  0  0
   60.9610   29.2910   45.9380 O   0  0  0  0  0  0  0  0  0  0  0  0
   58.9040   28.8930   45.0050 C   0  0  0  0  0  0  0  0  0  0  0  0
   59.0040   27.4830   44.8720 C   0  0  0  0  0  0  0  0  0  0  0  0
   59.6980   26.5850   45.6200 C   0  0  0  0  0  0  0  0  0  0  0  0
   59.2820   26.0540   46.9720 C   0  0  0  0  0  0  0  0  0  0  0  0
   59.2310   27.1710   48.0320 C   0  0  0  0  0  0  0  0  0  0  0  0
   60.4620   27.1880   48.9580 C   0  0  0  0  0  0  0  0  0  0  0  0
   60.1910   27.8970   50.2310 N   0  0  0  0  0  0  0  0  0  0  0  0
   61.3370   27.7820   51.1740 C   0  0  0  0  0  0  0  0  0  0  0  0
   61.5100   29.0300   52.0540 C   0  0  0  0  0  0  0  0  0  0  0  0
   61.7390   30.2580   51.2430 N   0  0  0  0  0  0  0  0  0  0  0  0
   63.1930   30.4800   51.0230 C   0  0  0  0  0  0  0  0  0  0  0  0
   63.5660   31.9680   50.8510 C   0  0  0  0  0  0  0  0  0  0  0  0
   63.4810   32.4130   49.4110 C   0  0  0  0  0  0  0  0  0  0  0  0
   63.5820   33.7770   49.0900 C   0  0  0  0  0  0  0  0  0  0  0  0
   63.4710   34.1980   47.7620 C   0  0  0  0  0  0  0  0  0  0  0  0
   63.2590   33.2630   46.7460 C   0  0  0  0  0  0  0  0  0  0  0  0
   63.1630   31.9030   47.0550 C   0  0  0  0  0  0  0  0  0  0  0  0
   63.2700   31.4780   48.3820 C   0  0  0  0  0  0  0  0  0  0  0  0
   60.9890   30.2430   49.9530 C   0  0  0  0  0  0  0  0  0  0  0  0
   59.7800   29.3000   49.9880 C   0  0  0  0  0  0  0  0  0  0  0  0
   58.4167   25.0445   43.7262 H   0  0  0  0  0  0  0  0  0  0  0  0
   57.0309   25.7753   42.6420 H   0  0  0  0  0  0  0  0  0  0  0  0
   56.6150   28.2150   42.7910 H   0  0  0  0  0  0  0  0  0  0  0  0
   56.5019   30.5876   43.2121 H   0  0  0  0  0  0  0  0  0  0  0  0
   56.8855   32.5406   44.4514 H   0  0  0  0  0  0  0  0  0  0  0  0
   57.1729   34.6599   46.7282 H   0  0  0  0  0  0  0  0  0  0  0  0
   58.0149   35.1097   45.2066 H   0  0  0  0  0  0  0  0  0  0  0  0
   56.8108   33.7767   45.2066 H   0  0  0  0  0  0  0  0  0  0  0  0
   60.7156   33.2008   46.5454 H   0  0  0  0  0  0  0  0  0  0  0  0
   59.9543   34.8163   46.7910 H   0  0  0  0  0  0  0  0  0  0  0  0
   57.9840   31.9979   47.9381 H   0  0  0  0  0  0  0  0  0  0  0  0
   57.5559   31.4994   50.3443 H   0  0  0  0  0  0  0  0  0  0  0  0
   58.9045   32.6259   52.1174 H   0  0  0  0  0  0  0  0  0  0  0  0
   60.6908   34.2521   51.4839 H   0  0  0  0  0  0  0  0  0  0  0  0
   61.1314   34.7538   49.0772 H   0  0  0  0  0  0  0  0  0  0  0  0
   60.4420   31.5705   46.5036 H   0  0  0  0  0  0  0  0  0  0  0  0
   60.6458   26.2121   45.2045 H   0  0  0  0  0  0  0  0  0  0  0  0
   58.2841   25.5995   46.8848 H   0  0  0  0  0  0  0  0  0  0  0  0
   60.0270   25.3109   47.2925 H   0  0  0  0  0  0  0  0  0  0  0  0
   59.1691   28.1402   47.5154 H   0  0  0  0  0  0  0  0  0  0  0  0
   58.3505   26.9814   48.6635 H   0  0  0  0  0  0  0  0  0  0  0  0
   60.7505   26.1508   49.1839 H   0  0  0  0  0  0  0  0  0  0  0  0
   61.2705   27.7223   48.4376 H   0  0  0  0  0  0  0  0  0  0  0  0
   61.1698   26.9122   51.8263 H   0  0  0  0  0  0  0  0  0  0  0  0
   62.2514   27.6706   50.5728 H   0  0  0  0  0  0  0  0  0  0  0  0
   60.6007   29.1676   52.6576 H   0  0  0  0  0  0  0  0  0  0  0  0
   62.3923   28.8755   52.6925 H   0  0  0  0  0  0  0  0  0  0  0  0
   61.3770   31.0570   51.8150 H   0  0  0  0  0  0  0  0  0  0  0  0
   63.7418   30.0806   51.8887 H   0  0  0  0  0  0  0  0  0  0  0  0
   63.4623   29.9672   50.0879 H   0  0  0  0  0  0  0  0  0  0  0  0
   62.8758   32.5783   51.4520 H   0  0  0  0  0  0  0  0  0  0  0  0
   64.6065   32.0966   51.1840 H   0  0  0  0  0  0  0  0  0  0  0  0
   63.7491   34.5165   49.8870 H   0  0  0  0  0  0  0  0  0  0  0  0
   63.5507   35.2673   47.5164 H   0  0  0  0  0  0  0  0  0  0  0  0
   63.1675   33.5971   45.7020 H   0  0  0  0  0  0  0  0  0  0  0  0
   63.0032   31.1670   46.2532 H   0  0  0  0  0  0  0  0  0  0  0  0
   63.1888   30.4077   48.6226 H   0  0  0  0  0  0  0  0  0  0  0  0
   60.6354   31.2623   49.7386 H   0  0  0  0  0  0  0  0  0  0  0  0
   61.6737   29.8801   49.1723 H   0  0  0  0  0  0  0  0  0  0  0  0
   59.1019   29.6182   50.7936 H   0  0  0  0  0  0  0  0  0  0  0  0
   59.2774   29.3476   49.0107 H   0  0  0  0  0  0  0  0  0  0  0  0
  1  2  2  0
  2  3  1  0
  3  4  1  0
  4  5  1  0
  5  6  2  0
  6  7  1  0
  7  8  1  0
  8  9  1  0
  8 10  1  0
 10 11  1  0
 11 12  2  0
 12 13  1  0
 13 14  2  0
 14 15  1  0
 15 16  2  0
  7 17  2  0
 17 18  1  0
 18 19  2  0
 18 20  1  0
 20 21  1  0
 21 22  2  3
 22 23  1  0
 23 24  1  0
 24 25  1  0
 25 26  1  0
 26 27  1  0
 27 28  1  0
 28 29  1  0
 29 30  1  0
 30 31  1  0
 31 32  1  0
 32 33  2  0
 33 34  1  0
 34 35  2  0
 35 36  1  0
 36 37  2  0
 29 38  1  0
 38 39  1  0
 21  2  1  0
 39 26  1  0
 20  4  2  0
 37 32  1  0
 16 11  1  0
  1 40  1  0
  1 41  1  0
  3 42  1  0
  5 43  1  0
  6 44  1  0
  9 45  1  0
  9 46  1  0
  9 47  1  0
 10 48  1  0
 10 49  1  0
 12 50  1  0
 13 51  1  0
 14 52  1  0
 15 53  1  0
 16 54  1  0
 17 55  1  0
 22 56  1  0
 23 57  1  0
 23 58  1  0
 24 59  1  0
 24 60  1  0
 25 61  1  0
 25 62  1  0
 27 63  1  0
 27 64  1  0
 28 65  1  0
 28 66  1  0
 29 67  1  0
 30 68  1  0
 30 69  1  0
 31 70  1  0
 31 71  1  0
 33 72  1  0
 34 73  1  0
 35 74  1  0
 36 75  1  0
 37 76  1  0
 38 77  1  0
 38 78  1  0
 39 79  1  0
 39 80  1  0
M  CHG  1  29   1
M  END
>  <UniqueID>  (60) 
55

>  <SMILES>  (60) 
C=c1[nH]c2ccc(N(C)Cc3ccccc3)cc(=O)c2c1=CCCCN1CC[NH+](CCc2ccccc2)CC1

>  <Energy>  (60) 
160.97007709638115

>  <Genealogy>  (60) 
C=c1[nH]c2ccc(N(C)Cc3ccccc3)cc(=O)c2c1=CCCCN1CC[NH+](CCc2ccccc2)CC1 (protonated)
C=c1[nH]c2ccc(N(C)Cc3ccccc3)cc(=O)c2c1=CCCCN1CC[NH+](CCc2ccccc2)CC1 (3D coordinates assigned)
C=c1[nH]c2ccc(N(C)Cc3ccccc3)cc(=O)c2c1=CCCCN1CC[NH+](CCc2ccccc2)CC1 (nonaromatic ring conformer: 160.97007709638115 kcal/mol)

>  <smiles>  (60) 
C=c1[nH]c2ccc(N(C)Cc3ccccc3)cc(=O)c2c1=CCCCN1CCN(CCc2ccccc2)CC1

>  <score_type>  (60) 
oracle

>  <origin>  (60) 
adg

>  <m_score__min__energy>  (60) 
-8.7799999999999994

>  <m_primary>  (60) 
energy

$$$$
60:0
     RDKit          3D

 45 47  0  0  0  0  0  0  0  0999 V2000
   55.7770   24.7890   46.0970 H   0  0  0  0  0  0  0  0  0  0  0  0
   56.7300   30.0890   44.9120 N   0  0  0  0  0  0  0  0  0  0  0  0
   56.9260   28.9660   45.5410 C   0  0  0  0  0  0  0  0  0  0  0  0
   57.4060   26.6520   46.8860 N   0  0  0  0  0  0  0  0  0  0  0  0
   58.2880   27.6810   46.9730 C   0  0  0  0  0  0  0  0  0  0  0  0
   59.4480   27.5710   47.7470 O   0  0  0  0  0  0  0  0  0  0  0  0
   59.7070   28.3760   48.8960 C   0  0  0  0  0  0  0  0  0  0  0  0
   58.7517   28.7120   49.3255 H   0  0  0  0  0  0  0  0  0  0  0  0
   60.2637   27.7772   49.6319 H   0  0  0  0  0  0  0  0  0  0  0  0
   60.5320   29.5780   48.5220 C   0  0  0  0  0  0  0  0  0  0  0  0
   61.1590   30.3520   49.5120 C   0  0  0  0  0  0  0  0  0  0  0  0
   61.0326   30.0908   50.5730 H   0  0  0  0  0  0  0  0  0  0  0  0
   61.9430   31.4530   49.1550 C   0  0  0  0  0  0  0  0  0  0  0  0
   62.4373   32.0497   49.9358 H   0  0  0  0  0  0  0  0  0  0  0  0
   62.1020   31.8000   47.8050 C   0  0  0  0  0  0  0  0  0  0  0  0
   62.9770   32.9570   47.4210 C   0  0  0  0  0  0  0  0  0  0  0  0
   63.3509   33.4514   48.3297 H   0  0  0  0  0  0  0  0  0  0  0  0
   63.8271   32.5921   46.8259 H   0  0  0  0  0  0  0  0  0  0  0  0
   62.3944   33.6756   46.8259 H   0  0  0  0  0  0  0  0  0  0  0  0
   61.4920   31.0160   46.8150 C   0  0  0  0  0  0  0  0  0  0  0  0
   61.6301   31.2691   45.7534 H   0  0  0  0  0  0  0  0  0  0  0  0
   60.7090   29.9140   47.1720 C   0  0  0  0  0  0  0  0  0  0  0  0
   60.2293   29.3073   46.3898 H   0  0  0  0  0  0  0  0  0  0  0  0
   58.0420   28.8320   46.3010 N   0  0  0  0  0  0  0  0  0  0  0  0
   56.2870   26.7690   46.1280 C   0  0  0  0  0  0  0  0  0  0  0  0
   55.4550   25.7820   46.0460 N   0  0  0  0  0  0  0  0  0  0  0  0
   57.7390   30.8470   44.1760 C   0  0  0  0  0  0  0  0  0  0  0  0
   58.7242   30.6935   44.6406 H   0  0  0  0  0  0  0  0  0  0  0  0
   57.7682   30.5014   43.1321 H   0  0  0  0  0  0  0  0  0  0  0  0
   57.3850   32.3340   44.2110 C   0  0  0  0  0  0  0  0  0  0  0  0
   57.6672   32.7956   43.2533 H   0  0  0  0  0  0  0  0  0  0  0  0
   56.3028   32.4375   44.3785 H   0  0  0  0  0  0  0  0  0  0  0  0
   58.1180   33.0260   45.3290 C   0  0  0  0  0  0  0  0  0  0  0  0
   58.0870   32.4980   46.6310 C   0  0  0  0  0  0  0  0  0  0  0  0
   57.5042   31.5887   46.8398 H   0  0  0  0  0  0  0  0  0  0  0  0
   58.7940   33.1240   47.6620 C   0  0  0  0  0  0  0  0  0  0  0  0
   58.7614   32.7100   48.6806 H   0  0  0  0  0  0  0  0  0  0  0  0
   59.5420   34.2750   47.4000 C   0  0  0  0  0  0  0  0  0  0  0  0
   60.0955   34.7680   48.2128 H   0  0  0  0  0  0  0  0  0  0  0  0
   59.5870   34.8000   46.1050 C   0  0  0  0  0  0  0  0  0  0  0  0
   60.1776   35.7049   45.8992 H   0  0  0  0  0  0  0  0  0  0  0  0
   58.8820   34.1760   45.0710 C   0  0  0  0  0  0  0  0  0  0  0  0
   58.9259   34.5873   44.0518 H   0  0  0  0  0  0  0  0  0  0  0  0
   56.0430   27.9250   45.4530 N   0  0  0  0  0  0  0  0  0  0  0  0
   55.1740   27.9940   44.8760 H   0  0  0  0  0  0  0  0  0  0  0  0
  1  2  1  0
  2  3  2  0
  3  4  1  0
  4  5  2  0
  5  6  1  0
  6  7  1  0
  7  8  1  0
  7  9  1  0
  7 10  1  0
 10 11  2  0
 11 12  1  0
 11 13  1  0
 13 14  1  0
 13 15  2  0
 15 16  1  0
 16 17  1  0
 16 18  1  0
 16 19  1  0
 15 20  1  0
 20 21  1  0
 20 22  2  0
 22 23  1  0
  5 24  1  0
 24 25  1  0
 25 26  2  0
 26 27  1  0
 27 28  1  0
 27 29  1  0
 27 30  1  0
 30 31  1  0
 30 32  1  0
 30 33  1  0
 33 34  2  0
 34 35  1  0
 34 36  1  0
 36 37  1  0
 36 38  2  0
 38 39  1  0
 38 40  1  0
 40 41  1  0
 40 42  2  0
 42 43  1  0
 25 44  1  0
 44 45  1  0
 44  3  1  0
 22 10  1  0
 42 33  1  0
M  CHG  1  24  -1
M  END
>  <UniqueID>  (61) 
56

>  <SMILES>  (61) 
[H]/N=c1\nc(OCc2ccc(C)cc2)[n-]/c(=N/CCc2ccccc2)[nH]1

>  <Energy>  (61) 
42.48258934455756

>  <Genealogy>  (61) 
Cc1ccc(COc2nc(=N)[nH]c(=NCCc3ccccc3)[n-]2)cc1 (protonated)
[H]/N=c1\nc(OCc2ccc(C)cc2)[n-]/c(=N/CCc2ccccc2)[nH]1 (cis-trans isomerization)
[H]/N=c1\nc(OCc2ccc(C)cc2)[n-]/c(=N/CCc2ccccc2)[nH]1 (3D coordinates assigned)
[H]/N=c1\nc(OCc2ccc(C)cc2)[n-]/c(=N/CCc2ccccc2)[nH]1 (optimized conformer: 42.48258934455756 kcal/mol)

>  <smiles>  (61) 
Cc1ccc(COc2nc(=N)[nH]c(=NCCc3ccccc3)[nH]2)cc1

>  <score_type>  (61) 
oracle

>  <origin>  (61) 
adg

>  <m_score__min__energy>  (61) 
-9.8300000000000001

>  <m_primary>  (61) 
energy

$$$$
61:0
     RDKit          3D

 62 65  0  0  0  0  0  0  0  0999 V2000
   56.3250   30.5300   43.1060 O   0  0  0  0  0  0  0  0  0  0  0  0
   56.9010   30.4700   44.2310 C   0  0  0  0  0  0  0  0  0  0  0  0
   57.9060   29.3720   44.4870 C   0  0  0  0  0  0  0  0  0  0  0  0
   58.1010   29.1820   45.9150 N   0  0  0  0  0  0  0  0  0  0  0  0
   59.3940   28.8750   46.4630 C   0  0  0  0  0  0  0  0  0  0  0  0
   60.3440   28.5710   45.6910 O   0  0  0  0  0  0  0  0  0  0  0  0
   59.6170   28.8830   47.9260 C   0  0  0  0  0  0  0  0  0  0  0  0
   60.7610   28.2760   48.4720 C   0  0  0  0  0  0  0  0  0  0  0  0
   60.9700   28.2740   49.8540 C   0  0  0  0  0  0  0  0  0  0  0  0
   60.0340   28.8560   50.7070 C   0  0  0  0  0  0  0  0  0  0  0  0
   58.8840   29.4650   50.1840 C   0  0  0  0  0  0  0  0  0  0  0  0
   57.9480   30.0530   51.0960 N   0  0  0  0  0  0  0  0  0  0  0  0
   57.5890   31.7460   51.2300 S   0  0  0  0  0  0  0  0  0  0  0  0
   56.3000   31.9150   51.9840 O   0  0  0  0  0  0  0  0  0  0  0  0
   57.4180   32.3470   49.8660 O   0  0  0  0  0  0  0  0  0  0  0  0
   58.8840   32.5490   52.1190 C   0  0  0  0  0  0  0  0  0  0  0  0
   60.2160   32.1110   52.0140 C   0  0  0  0  0  0  0  0  0  0  0  0
   61.2190   32.7370   52.7610 C   0  0  0  0  0  0  0  0  0  0  0  0
   60.8970   33.8010   53.6130 C   0  0  0  0  0  0  0  0  0  0  0  0
   61.8700   34.4020   54.3400 F   0  0  0  0  0  0  0  0  0  0  0  0
   59.5760   34.2450   53.7130 C   0  0  0  0  0  0  0  0  0  0  0  0
   58.5720   33.6180   52.9690 C   0  0  0  0  0  0  0  0  0  0  0  0
   58.6900   29.4840   48.7930 C   0  0  0  0  0  0  0  0  0  0  0  0
   56.6770   31.5200   45.1820 N   0  0  0  0  0  0  0  0  0  0  0  0
   57.5910   32.5830   45.4790 C   0  0  0  0  0  0  0  0  0  0  0  0
   57.7870   33.6480   44.5820 C   0  0  0  0  0  0  0  0  0  0  0  0
   58.7030   34.6590   44.8800 C   0  0  0  0  0  0  0  0  0  0  0  0
   59.4330   34.6150   46.0710 C   0  0  0  0  0  0  0  0  0  0  0  0
   59.2560   33.5490   46.9660 C   0  0  0  0  0  0  0  0  0  0  0  0
   60.1640   33.4800   48.4730 S   0  0  0  0  0  0  0  0  0  0  0  0
   59.5360   34.3910   49.4890 O   0  0  0  0  0  0  0  0  0  0  0  0
   60.1100   32.0690   48.9890 O   0  0  0  0  0  0  0  0  0  0  0  0
   61.8210   33.9530   48.1760 N   0  0  0  0  0  0  0  0  0  0  0  0
   62.6400   33.9000   49.4060 C   0  0  0  0  0  0  0  0  0  0  0  0
   63.4880   32.6200   49.5010 C   0  0  0  0  0  0  0  0  0  0  0  0
   62.8140   31.5430   48.8940 O   0  0  0  0  0  0  0  0  0  0  0  0
   62.7540   31.7270   47.4920 C   0  0  0  0  0  0  0  0  0  0  0  0
   62.4150   33.1780   47.0720 C   0  0  0  0  0  0  0  0  0  0  0  0
   58.3490   32.5260   46.6570 C   0  0  0  0  0  0  0  0  0  0  0  0
   57.5384   28.4346   44.0441 H   0  0  0  0  0  0  0  0  0  0  0  0
   58.8663   29.6560   44.0318 H   0  0  0  0  0  0  0  0  0  0  0  0
   57.2810   29.2440   46.5600 H   0  0  0  0  0  0  0  0  0  0  0  0
   61.4966   27.7994   47.8074 H   0  0  0  0  0  0  0  0  0  0  0  0
   61.8770   27.8112   50.2701 H   0  0  0  0  0  0  0  0  0  0  0  0
   60.1979   28.8376   51.7946 H   0  0  0  0  0  0  0  0  0  0  0  0
   60.4692   31.2759   51.3443 H   0  0  0  0  0  0  0  0  0  0  0  0
   62.2609   32.3937   52.6794 H   0  0  0  0  0  0  0  0  0  0  0  0
   59.3263   35.0865   54.3760 H   0  0  0  0  0  0  0  0  0  0  0  0
   57.5317   33.9659   53.0515 H   0  0  0  0  0  0  0  0  0  0  0  0
   57.7990   29.9768   48.3767 H   0  0  0  0  0  0  0  0  0  0  0  0
   57.2167   33.6849   43.6421 H   0  0  0  0  0  0  0  0  0  0  0  0
   58.8503   35.4914   44.1762 H   0  0  0  0  0  0  0  0  0  0  0  0
   60.1475   35.4174   46.3071 H   0  0  0  0  0  0  0  0  0  0  0  0
   63.3134   34.7697   49.4180 H   0  0  0  0  0  0  0  0  0  0  0  0
   61.9514   33.9063   50.2637 H   0  0  0  0  0  0  0  0  0  0  0  0
   64.4485   32.7819   48.9898 H   0  0  0  0  0  0  0  0  0  0  0  0
   63.6615   32.3827   50.5610 H   0  0  0  0  0  0  0  0  0  0  0  0
   63.7316   31.4603   47.0640 H   0  0  0  0  0  0  0  0  0  0  0  0
   61.9440   31.0845   47.1164 H   0  0  0  0  0  0  0  0  0  0  0  0
   63.3392   33.6774   46.7458 H   0  0  0  0  0  0  0  0  0  0  0  0
   61.6769   33.1301   46.2578 H   0  0  0  0  0  0  0  0  0  0  0  0
   58.2313   31.6738   47.3425 H   0  0  0  0  0  0  0  0  0  0  0  0
  1  2  2  0
  2  3  1  0
  3  4  1  0
  4  5  1  0
  5  6  2  0
  5  7  1  0
  7  8  2  0
  8  9  1  0
  9 10  2  0
 10 11  1  0
 11 12  1  0
 12 13  1  0
 13 14  2  0
 13 15  2  0
 13 16  1  0
 16 17  2  0
 17 18  1  0
 18 19  2  0
 19 20  1  0
 19 21  1  0
 21 22  2  0
 11 23  2  0
  2 24  1  0
 24 25  1  0
 25 26  2  0
 26 27  1  0
 27 28  2  0
 28 29  1  0
 29 30  1  0
 30 31  2  0
 30 32  2  0
 30 33  1  0
 33 34  1  0
 34 35  1  0
 35 36  1  0
 36 37  1  0
 37 38  1  0
 29 39  2  0
 23  7  1  0
 39 25  1  0
 22 16  1  0
 38 33  1  0
  3 40  1  0
  3 41  1  0
  4 42  1  0
  8 43  1  0
  9 44  1  0
 10 45  1  0
 17 46  1  0
 18 47  1  0
 21 48  1  0
 22 49  1  0
 23 50  1  0
 26 51  1  0
 27 52  1  0
 28 53  1  0
 34 54  1  0
 34 55  1  0
 35 56  1  0
 35 57  1  0
 37 58  1  0
 37 59  1  0
 38 60  1  0
 38 61  1  0
 39 62  1  0
M  CHG  2  12  -1  24  -1
M  END
>  <UniqueID>  (62) 
57

>  <SMILES>  (62) 
O=C(CNC(=O)c1cccc([N-]S(=O)(=O)c2ccc(F)cc2)c1)[N-]c1cccc(S(=O)(=O)N2CCOCC2)c1

>  <Energy>  (62) 
85.62744997267887

>  <Genealogy>  (62) 
O=C(CNC(=O)c1cccc([N-]S(=O)(=O)c2ccc(F)cc2)c1)[N-]c1cccc(S(=O)(=O)N2CCOCC2)c1 (protonated)
O=C(CNC(=O)c1cccc([N-]S(=O)(=O)c2ccc(F)cc2)c1)[N-]c1cccc(S(=O)(=O)N2CCOCC2)c1 (3D coordinates assigned)
O=C(CNC(=O)c1cccc([N-]S(=O)(=O)c2ccc(F)cc2)c1)[N-]c1cccc(S(=O)(=O)N2CCOCC2)c1 (nonaromatic ring conformer: 85.62744997267887 kcal/mol)

>  <smiles>  (62) 
O=C(CNC(=O)c1cccc(NS(=O)(=O)c2ccc(F)cc2)c1)Nc1cccc(S(=O)(=O)N2CCOCC2)c1

>  <score_type>  (62) 
oracle

>  <origin>  (62) 
adg

>  <m_score__min__energy>  (62) 
-14.029999999999999

>  <m_primary>  (62) 
energy

$$$$
62:0
     RDKit          3D

 40 41  0  0  0  0  0  0  0  0999 V2000
   63.1210   31.7710   47.1350 N   0  0  0  0  0  0  0  0  0  0  0  0
   62.6920   33.4450   47.1650 S   0  0  0  0  0  0  0  0  0  0  0  0
   63.1500   34.0650   48.4550 O   0  0  0  0  0  0  0  0  0  0  0  0
   63.3760   34.1460   46.0250 O   0  0  0  0  0  0  0  0  0  0  0  0
   60.9350   33.6050   47.0190 C   0  0  0  0  0  0  0  0  0  0  0  0
   60.4020   34.3960   45.9870 C   0  0  0  0  0  0  0  0  0  0  0  0
   59.0200   34.5480   45.8520 C   0  0  0  0  0  0  0  0  0  0  0  0
   58.1560   33.9080   46.7380 C   0  0  0  0  0  0  0  0  0  0  0  0
   58.6690   33.1140   47.7640 C   0  0  0  0  0  0  0  0  0  0  0  0
   60.0590   32.9670   47.9270 C   0  0  0  0  0  0  0  0  0  0  0  0
   60.5720   32.0790   48.9930 C   0  0  0  0  0  0  0  0  0  0  0  0
   60.2360   30.7890   49.1440 C   0  0  0  0  0  0  0  0  0  0  0  0
   60.0580   29.8150   48.0450 C   0  0  0  0  0  0  0  0  0  0  0  0
   59.4820   28.7130   48.2470 O   0  0  0  0  0  0  0  0  0  0  0  0
   60.5960   30.1130   46.7490 N   0  0  0  0  0  0  0  0  0  0  0  0
   60.4110   29.2310   45.5970 C   0  0  0  0  0  0  0  0  0  0  0  0
   58.9490   29.2240   45.1330 C   0  0  0  0  0  0  0  0  0  0  0  0
   58.2380   27.9700   45.5720 C   0  0  0  0  0  0  0  0  0  0  0  0
   58.9730   26.8220   45.9120 C   0  0  0  0  0  0  0  0  0  0  0  0
   58.3140   25.6480   46.2880 C   0  0  0  0  0  0  0  0  0  0  0  0
   56.9170   25.6100   46.3180 C   0  0  0  0  0  0  0  0  0  0  0  0
   56.1770   26.7440   45.9710 C   0  0  0  0  0  0  0  0  0  0  0  0
   54.7890   26.7030   45.9950 O   0  0  0  0  0  0  0  0  0  0  0  0
   56.8340   27.9200   45.5960 C   0  0  0  0  0  0  0  0  0  0  0  0
   64.1640   31.7250   47.0920 H   0  0  0  0  0  0  0  0  0  0  0  0
   61.0781   34.8992   45.2802 H   0  0  0  0  0  0  0  0  0  0  0  0
   58.6130   35.1743   45.0445 H   0  0  0  0  0  0  0  0  0  0  0  0
   57.0682   34.0289   46.6284 H   0  0  0  0  0  0  0  0  0  0  0  0
   57.9815   32.5988   48.4510 H   0  0  0  0  0  0  0  0  0  0  0  0
   61.2817   32.5082   49.7156 H   0  0  0  0  0  0  0  0  0  0  0  0
   60.0799   30.4253   50.1703 H   0  0  0  0  0  0  0  0  0  0  0  0
   61.1610   30.9830   46.6210 H   0  0  0  0  0  0  0  0  0  0  0  0
   61.0479   29.5810   44.7712 H   0  0  0  0  0  0  0  0  0  0  0  0
   60.6873   28.2083   45.8933 H   0  0  0  0  0  0  0  0  0  0  0  0
   58.4335   30.0962   45.5615 H   0  0  0  0  0  0  0  0  0  0  0  0
   58.9348   29.2628   44.0338 H   0  0  0  0  0  0  0  0  0  0  0  0
   60.0723   26.8471   45.8822 H   0  0  0  0  0  0  0  0  0  0  0  0
   58.8946   24.7543   46.5602 H   0  0  0  0  0  0  0  0  0  0  0  0
   56.3991   24.6862   46.6152 H   0  0  0  0  0  0  0  0  0  0  0  0
   56.2494   28.8095   45.3187 H   0  0  0  0  0  0  0  0  0  0  0  0
  1  2  1  0
  2  3  2  0
  2  4  2  0
  2  5  1  0
  5  6  2  0
  6  7  1  0
  7  8  2  0
  8  9  1  0
  9 10  2  0
 10 11  1  0
 11 12  2  3
 12 13  1  0
 13 14  2  0
 13 15  1  0
 15 16  1  0
 16 17  1  0
 17 18  1  0
 18 19  2  0
 19 20  1  0
 20 21  2  0
 21 22  1  0
 22 23  1  0
 22 24  2  0
 10  5  1  0
 24 18  1  0
  1 25  1  0
  6 26  1  0
  7 27  1  0
  8 28  1  0
  9 29  1  0
 11 30  1  0
 12 31  1  0
 15 32  1  0
 16 33  1  0
 16 34  1  0
 17 35  1  0
 17 36  1  0
 19 37  1  0
 20 38  1  0
 21 39  1  0
 24 40  1  0
M  CHG  2   1  -1  23  -1
M  END
>  <UniqueID>  (63) 
58

>  <SMILES>  (63) 
[NH-]S(=O)(=O)c1ccccc1C=CC(=O)NCCc1cccc([O-])c1

>  <Energy>  (63) 
43.47508931876113

>  <Genealogy>  (63) 
[NH-]S(=O)(=O)c1ccccc1C=CC(=O)NCCc1cccc([O-])c1 (protonated)
[NH-]S(=O)(=O)c1ccccc1C=CC(=O)NCCc1cccc([O-])c1 (3D coordinates assigned)
[NH-]S(=O)(=O)c1ccccc1C=CC(=O)NCCc1cccc([O-])c1 (optimized conformer: 43.47508931876113 kcal/mol)

>  <smiles>  (63) 
NS(=O)(=O)c1ccccc1C=CC(=O)NCCc1cccc(O)c1

>  <score_type>  (63) 
oracle

>  <origin>  (63) 
adg

>  <m_score__min__energy>  (63) 
-14.9

>  <m_primary>  (63) 
energy

$$$$
63:0
     RDKit          3D

 23 24  0  0  0  0  0  0  0  0999 V2000
   54.7700   27.0970   45.9920 H   0  0  0  0  0  0  0  0  0  0  0  0
   54.4190   26.1480   45.9890 O   0  0  0  0  0  0  0  0  0  0  0  0
   55.1440   25.0960   45.4350 C   0  0  0  0  0  0  0  0  0  0  0  0
   54.6670   24.4000   44.3680 N   0  0  0  0  0  0  0  0  0  0  0  0
   55.5290   23.4330   43.9900 C   0  0  0  0  0  0  0  0  0  0  0  0
   55.3070   22.6560   43.0270 O   0  0  0  0  0  0  0  0  0  0  0  0
   56.9080   23.3850   44.9480 S   0  0  0  0  0  0  0  0  0  0  0  0
   56.3980   24.6830   45.8970 C   0  0  0  0  0  0  0  0  0  0  0  0
   57.1120   25.1920   47.0850 C   0  0  0  0  0  0  0  0  0  0  0  0
   57.2880   24.2960   48.1990 C   0  0  0  0  0  0  0  0  0  0  0  0
   57.4280   23.5750   49.0940 N   0  0  0  0  0  0  0  0  0  0  0  0
   57.6820   26.4100   47.1380 C   0  0  0  0  0  0  0  0  0  0  0  0
   58.2629   26.6586   48.0384 H   0  0  0  0  0  0  0  0  0  0  0  0
   57.5890   27.4420   46.0800 C   0  0  0  0  0  0  0  0  0  0  0  0
   56.3850   27.9670   45.7150 N   0  0  0  0  0  0  0  0  0  0  0  0
   56.2760   28.9390   44.7710 C   0  0  0  0  0  0  0  0  0  0  0  0
   55.1410   29.3850   44.4590 O   0  0  0  0  0  0  0  0  0  0  0  0
   57.4240   29.4430   44.1520 C   0  0  0  0  0  0  0  0  0  0  0  0
   57.3443   30.2270   43.3845 H   0  0  0  0  0  0  0  0  0  0  0  0
   58.6720   28.9390   44.5200 C   0  0  0  0  0  0  0  0  0  0  0  0
   59.5845   29.3282   44.0448 H   0  0  0  0  0  0  0  0  0  0  0  0
   58.7620   27.9400   45.4920 C   0  0  0  0  0  0  0  0  0  0  0  0
   59.7439   27.5469   45.7941 H   0  0  0  0  0  0  0  0  0  0  0  0
  1  2  1  0
  2  3  1  0
  3  4  1  0
  4  5  1  0
  5  6  2  0
  5  7  1  0
  7  8  1  0
  8  9  1  0
  9 10  1  0
 10 11  3  0
  9 12  2  0
 12 13  1  0
 12 14  1  0
 14 15  1  0
 15 16  1  0
 16 17  2  0
 16 18  1  0
 18 19  1  0
 18 20  2  0
 20 21  1  0
 20 22  1  0
 22 23  1  0
  8  3  2  0
 22 14  2  0
M  CHG  2   4  -1  15  -1
M  END
>  <UniqueID>  (64) 
59

>  <SMILES>  (64) 
N#C/C(=C/c1cccc(=O)[n-]1)c1sc(=O)[n-]c1O

>  <Energy>  (64) 
63.12993437515672

>  <Genealogy>  (64) 
N#CC(=Cc1cccc(=O)[n-]1)c1sc(=O)[n-]c1O (protonated)
N#C/C(=C/c1cccc(=O)[n-]1)c1sc(=O)[n-]c1O (cis-trans isomerization)
N#C/C(=C/c1cccc(=O)[n-]1)c1sc(=O)[n-]c1O (3D coordinates assigned)
N#C/C(=C/c1cccc(=O)[n-]1)c1sc(=O)[n-]c1O (optimized conformer: 63.12993437515672 kcal/mol)

>  <smiles>  (64) 
N#CC(=Cc1cccc(=O)[nH]1)c1sc(=O)[nH]c1O

>  <score_type>  (64) 
oracle

>  <origin>  (64) 
adg

>  <m_score__min__energy>  (64) 
-10.880000000000001

>  <m_primary>  (64) 
energy

$$$$
64:0
     RDKit          3D

 52 55  0  0  0  0  0  0  0  0999 V2000
   56.6710   30.9260   53.6270 C   0  0  0  0  0  0  0  0  0  0  0  0
   57.3190   30.8500   52.2780 C   0  0  0  0  0  0  0  0  0  0  0  0
   56.6550   30.3690   51.3190 O   0  0  0  0  0  0  0  0  0  0  0  0
   58.6660   31.3200   52.0500 N   0  0  0  0  0  0  0  0  0  0  0  0
   59.3940   32.0930   53.0700 C   0  0  0  0  0  0  0  0  0  0  0  0
   60.2390   33.1970   52.4170 C   0  0  0  0  0  0  0  0  0  0  0  0
   60.9640   32.7080   51.2360 N   0  0  0  0  0  0  0  0  0  0  0  0
   61.9410   33.5630   50.6140 C   0  0  0  0  0  0  0  0  0  0  0  0
   62.7040   34.2580   51.3390 O   0  0  0  0  0  0  0  0  0  0  0  0
   62.0540   33.6610   49.1410 C   0  0  0  0  0  0  0  0  0  0  0  0
   63.2010   33.1920   48.4780 C   0  0  0  0  0  0  0  0  0  0  0  0
   63.2940   33.2690   47.0860 C   0  0  0  0  0  0  0  0  0  0  0  0
   62.2430   33.8050   46.3400 C   0  0  0  0  0  0  0  0  0  0  0  0
   61.0890   34.2770   46.9840 C   0  0  0  0  0  0  0  0  0  0  0  0
   59.9360   34.8080   46.1780 C   0  0  0  0  0  0  0  0  0  0  0  0
   58.9150   33.7350   45.9760 C   0  0  0  0  0  0  0  0  0  0  0  0
   58.3880   32.9150   46.9700 C   0  0  0  0  0  0  0  0  0  0  0  0
   57.5360   31.9550   46.5210 N   0  0  0  0  0  0  0  0  0  0  0  0
   57.3880   32.0140   45.1770 C   0  0  0  0  0  0  0  0  0  0  0  0
   56.6540   31.1920   44.4890 N   0  0  0  0  0  0  0  0  0  0  0  0
   56.4570   29.8030   44.7900 C   0  0  0  0  0  0  0  0  0  0  0  0
   55.2800   29.3570   44.8380 O   0  0  0  0  0  0  0  0  0  0  0  0
   57.5850   28.8970   45.1040 C   0  0  0  0  0  0  0  0  0  0  0  0
   57.4350   27.6530   45.7410 C   0  0  0  0  0  0  0  0  0  0  0  0
   58.6290   26.9630   45.9030 C   0  0  0  0  0  0  0  0  0  0  0  0
   59.8620   27.8920   45.2390 S   0  0  0  0  0  0  0  0  0  0  0  0
   58.9000   29.1760   44.7420 C   0  0  0  0  0  0  0  0  0  0  0  0
   58.3180   33.2290   44.4840 S   0  0  0  0  0  0  0  0  0  0  0  0
   60.9930   34.1870   48.3830 C   0  0  0  0  0  0  0  0  0  0  0  0
   60.8310   31.3060   50.8240 C   0  0  0  0  0  0  0  0  0  0  0  0
   59.3540   30.9020   50.8170 C   0  0  0  0  0  0  0  0  0  0  0  0
   57.4397   30.8358   54.4086 H   0  0  0  0  0  0  0  0  0  0  0  0
   56.1534   31.8910   53.7313 H   0  0  0  0  0  0  0  0  0  0  0  0
   55.9442   30.1069   53.7313 H   0  0  0  0  0  0  0  0  0  0  0  0
   58.6701   32.5527   53.7589 H   0  0  0  0  0  0  0  0  0  0  0  0
   60.0638   31.4129   53.6166 H   0  0  0  0  0  0  0  0  0  0  0  0
   59.5749   34.0188   52.1112 H   0  0  0  0  0  0  0  0  0  0  0  0
   60.9806   33.5388   53.1541 H   0  0  0  0  0  0  0  0  0  0  0  0
   64.0305   32.7617   49.0584 H   0  0  0  0  0  0  0  0  0  0  0  0
   64.1986   32.9060   46.5762 H   0  0  0  0  0  0  0  0  0  0  0  0
   62.3196   33.8576   45.2439 H   0  0  0  0  0  0  0  0  0  0  0  0
   59.4761   35.6521   46.7127 H   0  0  0  0  0  0  0  0  0  0  0  0
   60.3054   35.1435   45.1977 H   0  0  0  0  0  0  0  0  0  0  0  0
   58.6407   33.0342   48.0339 H   0  0  0  0  0  0  0  0  0  0  0  0
   56.4636   27.2630   46.0792 H   0  0  0  0  0  0  0  0  0  0  0  0
   58.7472   25.9800   46.3823 H   0  0  0  0  0  0  0  0  0  0  0  0
   59.2484   30.0801   44.2211 H   0  0  0  0  0  0  0  0  0  0  0  0
   60.0794   34.5312   48.8898 H   0  0  0  0  0  0  0  0  0  0  0  0
   61.2478   31.1818   49.8136 H   0  0  0  0  0  0  0  0  0  0  0  0
   61.3776   30.6670   51.5332 H   0  0  0  0  0  0  0  0  0  0  0  0
   58.8597   31.3752   49.9557 H   0  0  0  0  0  0  0  0  0  0  0  0
   59.3002   29.8053   50.7509 H   0  0  0  0  0  0  0  0  0  0  0  0
  1  2  1  0
  2  3  2  0
  2  4  1  0
  4  5  1  0
  5  6  1  0
  6  7  1  0
  7  8  1  0
  8  9  2  0
  8 10  1  0
 10 11  2  0
 11 12  1  0
 12 13  2  0
 13 14  1  0
 14 15  1  0
 15 16  1  0
 16 17  2  0
 17 18  1  0
 18 19  1  0
 19 20  2  3
 20 21  1  0
 21 22  2  0
 21 23  1  0
 23 24  1  0
 24 25  2  0
 25 26  1  0
 26 27  1  0
 19 28  1  0
 14 29  2  0
  7 30  1  0
 30 31  1  0
 31  4  1  0
 29 10  1  0
 28 16  1  0
 27 23  2  0
  1 32  1  0
  1 33  1  0
  1 34  1  0
  5 35  1  0
  5 36  1  0
  6 37  1  0
  6 38  1  0
 11 39  1  0
 12 40  1  0
 13 41  1  0
 15 42  1  0
 15 43  1  0
 17 44  1  0
 24 45  1  0
 25 46  1  0
 27 47  1  0
 29 48  1  0
 30 49  1  0
 30 50  1  0
 31 51  1  0
 31 52  1  0
M  CHG  1  18  -1
M  END
>  <UniqueID>  (65) 
60

>  <SMILES>  (65) 
CC(=O)N1CCN(C(=O)c2cccc(Cc3c[n-]c(=NC(=O)c4ccsc4)s3)c2)CC1

>  <Energy>  (65) 
119.47168832608364

>  <Genealogy>  (65) 
CC(=O)N1CCN(C(=O)c2cccc(Cc3c[n-]c(=NC(=O)c4ccsc4)s3)c2)CC1 (protonated)
CC(=O)N1CCN(C(=O)c2cccc(Cc3c[n-]c(=NC(=O)c4ccsc4)s3)c2)CC1 (3D coordinates assigned)
CC(=O)N1CCN(C(=O)c2cccc(Cc3c[n-]c(=NC(=O)c4ccsc4)s3)c2)CC1 (nonaromatic ring conformer: 119.47168832608364 kcal/mol)

>  <smiles>  (65) 
CC(=O)N1CCN(C(=O)c2cccc(Cc3c[nH]c(=NC(=O)c4ccsc4)s3)c2)CC1

>  <score_type>  (65) 
oracle

>  <origin>  (65) 
adg

>  <m_score__min__energy>  (65) 
-11.91

>  <m_primary>  (65) 
energy

$$$$
65:0
     RDKit          3D

 28 29  0  0  0  0  0  0  0  0999 V2000
   57.9236   34.7477   44.8148 H   0  0  0  0  0  0  0  0  0  0  0  0
   58.6310   34.0170   45.2340 C   0  0  0  0  0  0  0  0  0  0  0  0
   59.3340   34.3920   46.4820 C   0  0  0  0  0  0  0  0  0  0  0  0
   58.8690   35.3460   47.1610 O   0  0  0  0  0  0  0  0  0  0  0  0
   60.4980   33.6320   47.0010 C   0  0  0  0  0  0  0  0  0  0  0  0
   61.7710   33.8490   46.4400 C   0  0  0  0  0  0  0  0  0  0  0  0
   61.8878   34.5655   45.6136 H   0  0  0  0  0  0  0  0  0  0  0  0
   62.8870   33.1620   46.9240 C   0  0  0  0  0  0  0  0  0  0  0  0
   63.8782   33.3447   46.4834 H   0  0  0  0  0  0  0  0  0  0  0  0
   62.7460   32.2450   47.9650 C   0  0  0  0  0  0  0  0  0  0  0  0
   63.6259   31.7048   48.3443 H   0  0  0  0  0  0  0  0  0  0  0  0
   61.4900   32.0120   48.5260 C   0  0  0  0  0  0  0  0  0  0  0  0
   61.3841   31.2876   49.3470 H   0  0  0  0  0  0  0  0  0  0  0  0
   60.3640   32.6940   48.0510 C   0  0  0  0  0  0  0  0  0  0  0  0
   58.8210   32.3990   48.8480 Cl  0  0  0  0  0  0  0  0  0  0  0  0
   58.7850   32.8590   44.5710 C   0  0  0  0  0  0  0  0  0  0  0  0
   59.5967   32.8008   43.8309 H   0  0  0  0  0  0  0  0  0  0  0  0
   57.9460   31.6570   44.7610 C   0  0  0  0  0  0  0  0  0  0  0  0
   58.2030   30.7450   45.8010 C   0  0  0  0  0  0  0  0  0  0  0  0
   59.0460   30.9177   46.4862 H   0  0  0  0  0  0  0  0  0  0  0  0
   57.3900   29.6200   45.9660 C   0  0  0  0  0  0  0  0  0  0  0  0
   57.5829   28.9189   46.7914 H   0  0  0  0  0  0  0  0  0  0  0  0
   56.3320   29.3850   45.0830 C   0  0  0  0  0  0  0  0  0  0  0  0
   55.5220   28.2690   45.2520 O   0  0  0  0  0  0  0  0  0  0  0  0
   56.0930   30.2700   44.0280 C   0  0  0  0  0  0  0  0  0  0  0  0
   55.2658   30.0794   43.3284 H   0  0  0  0  0  0  0  0  0  0  0  0
   56.9030   31.3970   43.8600 C   0  0  0  0  0  0  0  0  0  0  0  0
   56.7218   32.0820   43.0186 H   0  0  0  0  0  0  0  0  0  0  0  0
  1  2  1  0
  2  3  1  0
  3  4  2  0
  3  5  1  0
  5  6  2  0
  6  7  1  0
  6  8  1  0
  8  9  1  0
  8 10  2  0
 10 11  1  0
 10 12  1  0
 12 13  1  0
 12 14  2  0
 14 15  1  0
  2 16  2  0
 16 17  1  0
 16 18  1  0
 18 19  2  0
 19 20  1  0
 19 21  1  0
 21 22  1  0
 21 23  2  0
 23 24  1  0
 23 25  1  0
 25 26  1  0
 25 27  2  0
 27 28  1  0
 14  5  1  0
 27 18  1  0
M  CHG  1  24  -1
M  END
>  <UniqueID>  (66) 
61

>  <SMILES>  (66) 
O=C(/C=C\c1ccc([O-])cc1)c1ccccc1Cl

>  <Energy>  (66) 
40.840959077473755

>  <Genealogy>  (66) 
O=C(C=Cc1ccc([O-])cc1)c1ccccc1Cl (protonated)
O=C(/C=C\c1ccc([O-])cc1)c1ccccc1Cl (cis-trans isomerization)
O=C(/C=C\c1ccc([O-])cc1)c1ccccc1Cl (3D coordinates assigned)
O=C(/C=C\c1ccc([O-])cc1)c1ccccc1Cl (optimized conformer: 40.840959077473755 kcal/mol)

>  <smiles>  (66) 
O=C(C=Cc1ccc(O)cc1)c1ccccc1Cl

>  <score_type>  (66) 
oracle

>  <origin>  (66) 
adg

>  <m_score__min__energy>  (66) 
-10.289999999999999

>  <m_primary>  (66) 
energy

$$$$
66:0
     RDKit          3D

 48 50  0  0  0  0  0  0  0  0999 V2000
   57.0140   28.5460   45.1710 C   0  0  0  0  0  0  0  0  0  0  0  0
   58.0140   29.6010   44.9690 N   0  0  0  0  0  0  0  0  0  0  0  0
   59.4350   29.2520   44.8600 C   0  0  0  0  0  0  0  0  0  0  0  0
   57.5690   30.9700   44.8530 C   0  0  0  0  0  0  0  0  0  0  0  0
   56.3360   31.2200   44.7710 O   0  0  0  0  0  0  0  0  0  0  0  0
   58.5380   32.1320   44.8700 C   0  0  0  0  0  0  0  0  0  0  0  0
   57.9180   33.3550   45.4470 N   0  0  0  0  0  0  0  0  0  0  0  0
   58.6590   34.5920   45.0580 C   0  0  0  0  0  0  0  0  0  0  0  0
   59.6170   35.1220   46.1450 C   0  0  0  0  0  0  0  0  0  0  0  0
   60.1030   34.0260   46.9870 N   0  0  0  0  0  0  0  0  0  0  0  0
   61.5060   33.7040   47.0300 C   0  0  0  0  0  0  0  0  0  0  0  0
   62.2090   33.8390   45.9920 O   0  0  0  0  0  0  0  0  0  0  0  0
   62.1350   33.1900   48.2620 C   0  0  0  0  0  0  0  0  0  0  0  0
   63.0190   33.9920   49.0200 C   0  0  0  0  0  0  0  0  0  0  0  0
   63.6080   33.4950   50.2050 C   0  0  0  0  0  0  0  0  0  0  0  0
   63.3160   32.1960   50.6590 C   0  0  0  0  0  0  0  0  0  0  0  0
   62.4330   31.4320   49.9000 C   0  0  0  0  0  0  0  0  0  0  0  0
   61.8560   31.9120   48.7560 C   0  0  0  0  0  0  0  0  0  0  0  0
   61.0270   31.0080   48.2820 O   0  0  0  0  0  0  0  0  0  0  0  0
   61.0980   29.9850   49.1150 C   0  0  0  0  0  0  0  0  0  0  0  0
   60.4170   28.9350   48.9770 O   0  0  0  0  0  0  0  0  0  0  0  0
   61.9690   30.1900   50.1340 N   0  0  0  0  0  0  0  0  0  0  0  0
   62.2340   29.3290   51.2820 C   0  0  0  0  0  0  0  0  0  0  0  0
   59.1230   33.1420   47.6270 C   0  0  0  0  0  0  0  0  0  0  0  0
   57.7620   33.2370   46.9150 C   0  0  0  0  0  0  0  0  0  0  0  0
   56.8624   28.3860   46.2487 H   0  0  0  0  0  0  0  0  0  0  0  0
   56.0632   28.8485   44.7079 H   0  0  0  0  0  0  0  0  0  0  0  0
   57.3669   27.6127   44.7079 H   0  0  0  0  0  0  0  0  0  0  0  0
   59.8649   29.1464   45.8670 H   0  0  0  0  0  0  0  0  0  0  0  0
   59.5385   28.3018   44.3156 H   0  0  0  0  0  0  0  0  0  0  0  0
   59.9669   30.0462   44.3156 H   0  0  0  0  0  0  0  0  0  0  0  0
   59.4144   31.8569   45.4751 H   0  0  0  0  0  0  0  0  0  0  0  0
   58.8296   32.3514   43.8323 H   0  0  0  0  0  0  0  0  0  0  0  0
   56.9480   33.4390   45.0610 H   0  0  0  0  0  0  0  0  0  0  0  0
   59.2485   34.3719   44.1558 H   0  0  0  0  0  0  0  0  0  0  0  0
   57.9039   35.3746   44.8925 H   0  0  0  0  0  0  0  0  0  0  0  0
   60.4743   35.6136   45.6620 H   0  0  0  0  0  0  0  0  0  0  0  0
   59.0722   35.8385   46.7773 H   0  0  0  0  0  0  0  0  0  0  0  0
   63.2508   35.0135   48.6840 H   0  0  0  0  0  0  0  0  0  0  0  0
   64.3008   34.1296   50.7771 H   0  0  0  0  0  0  0  0  0  0  0  0
   63.7684   31.7984   51.5795 H   0  0  0  0  0  0  0  0  0  0  0  0
   62.0606   29.8924   52.2107 H   0  0  0  0  0  0  0  0  0  0  0  0
   61.5622   28.4586   51.2503 H   0  0  0  0  0  0  0  0  0  0  0  0
   63.2790   28.9870   51.2503 H   0  0  0  0  0  0  0  0  0  0  0  0
   59.4853   32.1046   47.5775 H   0  0  0  0  0  0  0  0  0  0  0  0
   58.9974   33.4514   48.6751 H   0  0  0  0  0  0  0  0  0  0  0  0
   57.1784   32.3321   47.1397 H   0  0  0  0  0  0  0  0  0  0  0  0
   57.2475   34.1388   47.2784 H   0  0  0  0  0  0  0  0  0  0  0  0
  1  2  1  0
  2  3  1  0
  2  4  1  0
  4  5  2  0
  4  6  1  0
  6  7  1  0
  7  8  1  0
  8  9  1  0
  9 10  1  0
 10 11  1  0
 11 12  2  0
 11 13  1  0
 13 14  2  0
 14 15  1  0
 15 16  2  0
 16 17  1  0
 17 18  2  0
 18 19  1  0
 19 20  1  0
 20 21  2  0
 20 22  1  0
 22 23  1  0
 10 24  1  0
 24 25  1  0
 25  7  1  0
 18 13  1  0
 22 17  1  0
  1 26  1  0
  1 27  1  0
  1 28  1  0
  3 29  1  0
  3 30  1  0
  3 31  1  0
  6 32  1  0
  6 33  1  0
  7 34  1  0
  8 35  1  0
  8 36  1  0
  9 37  1  0
  9 38  1  0
 14 39  1  0
 15 40  1  0
 16 41  1  0
 23 42  1  0
 23 43  1  0
 23 44  1  0
 24 45  1  0
 24 46  1  0
 25 47  1  0
 25 48  1  0
M  CHG  1   7   1
M  END
>  <UniqueID>  (67) 
62

>  <SMILES>  (67) 
CN(C)C(=O)C[NH+]1CCN(C(=O)c2cccc3c2oc(=O)n3C)CC1

>  <Energy>  (67) 
101.55878026172873

>  <Genealogy>  (67) 
CN(C)C(=O)C[NH+]1CCN(C(=O)c2cccc3c2oc(=O)n3C)CC1 (protonated)
CN(C)C(=O)C[NH+]1CCN(C(=O)c2cccc3c2oc(=O)n3C)CC1 (3D coordinates assigned)
CN(C)C(=O)C[NH+]1CCN(C(=O)c2cccc3c2oc(=O)n3C)CC1 (nonaromatic ring conformer: 101.55878026172873 kcal/mol)

>  <smiles>  (67) 
CN(C)C(=O)CN1CCN(C(=O)c2cccc3c2oc(=O)n3C)CC1

>  <score_type>  (67) 
oracle

>  <origin>  (67) 
adg

>  <m_score__min__energy>  (67) 
-5.8099999999999996

>  <m_primary>  (67) 
energy

$$$$
67:0
     RDKit          3D

 55 58  0  0  0  0  0  0  0  0999 V2000
   53.8190   28.7100   54.2450 C   0  0  0  0  0  0  0  0  0  0  0  0
   54.4490   29.4260   53.2990 C   0  0  0  0  0  0  0  0  0  0  0  0
   53.9300   30.5320   52.6090 C   0  0  0  0  0  0  0  0  0  0  0  0
   52.6720   31.0110   52.5210 C   0  0  0  0  0  0  0  0  0  0  0  0
   51.8910   31.1510   51.2810 C   0  0  0  0  0  0  0  0  0  0  0  0
   51.8900   30.2650   50.2680 N   0  0  0  0  0  0  0  0  0  0  0  0
   51.1550   30.8810   49.3160 C   0  0  0  0  0  0  0  0  0  0  0  0
   50.9140   30.3530   48.2000 O   0  0  0  0  0  0  0  0  0  0  0  0
   50.7140   32.1130   49.6490 N   0  0  0  0  0  0  0  0  0  0  0  0
   51.2000   32.2720   50.8910 C   0  0  0  0  0  0  0  0  0  0  0  0
   51.0200   33.4220   51.6490 O   0  0  0  0  0  0  0  0  0  0  0  0
   54.9990   31.1210   51.9610 C   0  0  0  0  0  0  0  0  0  0  0  0
   56.1090   30.3340   52.2070 C   0  0  0  0  0  0  0  0  0  0  0  0
   57.4750   30.6510   51.7190 C   0  0  0  0  0  0  0  0  0  0  0  0
   58.0340   29.8960   50.8790 O   0  0  0  0  0  0  0  0  0  0  0  0
   58.1820   31.7970   52.2190 N   0  0  0  0  0  0  0  0  0  0  0  0
   59.5920   32.0350   51.9170 C   0  0  0  0  0  0  0  0  0  0  0  0
   59.7500   32.4750   50.4870 C   0  0  0  0  0  0  0  0  0  0  0  0
   60.0810   31.5460   49.4840 C   0  0  0  0  0  0  0  0  0  0  0  0
   60.2620   31.9710   48.1650 C   0  0  0  0  0  0  0  0  0  0  0  0
   60.1190   33.3230   47.8370 C   0  0  0  0  0  0  0  0  0  0  0  0
   59.7960   34.2530   48.8300 C   0  0  0  0  0  0  0  0  0  0  0  0
   59.6130   33.8320   50.1510 C   0  0  0  0  0  0  0  0  0  0  0  0
   55.7700   29.2860   53.0010 N   0  0  0  0  0  0  0  0  0  0  0  0
   56.6840   28.2420   53.4960 C   0  0  0  0  0  0  0  0  0  0  0  0
   57.7080   28.8260   54.4370 C   0  0  0  0  0  0  0  0  0  0  0  0
   57.3510   29.1410   55.6050 O   0  0  0  0  0  0  0  0  0  0  0  0
   59.0870   29.0010   54.0420 N   0  0  0  0  0  0  0  0  0  0  0  0
   59.8680   30.0960   54.6290 C   0  0  0  0  0  0  0  0  0  0  0  0
   61.3620   29.7570   54.6060 C   0  0  0  0  0  0  0  0  0  0  0  0
   61.7670   29.3670   53.3090 O   0  0  0  0  0  0  0  0  0  0  0  0
   61.1300   28.1520   52.9610 C   0  0  0  0  0  0  0  0  0  0  0  0
   59.6150   28.3450   52.8400 C   0  0  0  0  0  0  0  0  0  0  0  0
   54.3277   27.8582   54.7201 H   0  0  0  0  0  0  0  0  0  0  0  0
   52.7944   28.9755   54.5446 H   0  0  0  0  0  0  0  0  0  0  0  0
   52.1875   31.3243   53.4575 H   0  0  0  0  0  0  0  0  0  0  0  0
   54.9720   32.0431   51.3618 H   0  0  0  0  0  0  0  0  0  0  0  0
   57.6800   32.5040   52.8030 H   0  0  0  0  0  0  0  0  0  0  0  0
   59.9789   32.8199   52.5835 H   0  0  0  0  0  0  0  0  0  0  0  0
   60.1542   31.1019   52.0696 H   0  0  0  0  0  0  0  0  0  0  0  0
   60.1977   30.4822   49.7385 H   0  0  0  0  0  0  0  0  0  0  0  0
   60.5175   31.2406   47.3832 H   0  0  0  0  0  0  0  0  0  0  0  0
   60.2606   33.6548   46.7978 H   0  0  0  0  0  0  0  0  0  0  0  0
   59.6858   35.3166   48.5719 H   0  0  0  0  0  0  0  0  0  0  0  0
   59.3608   34.5665   50.9301 H   0  0  0  0  0  0  0  0  0  0  0  0
   56.1012   27.4758   54.0282 H   0  0  0  0  0  0  0  0  0  0  0  0
   57.2085   27.7977   52.6372 H   0  0  0  0  0  0  0  0  0  0  0  0
   59.6958   31.0153   54.0500 H   0  0  0  0  0  0  0  0  0  0  0  0
   59.5507   30.2420   55.6721 H   0  0  0  0  0  0  0  0  0  0  0  0
   61.9378   30.6426   54.9128 H   0  0  0  0  0  0  0  0  0  0  0  0
   61.5456   28.9228   55.2991 H   0  0  0  0  0  0  0  0  0  0  0  0
   61.5265   27.8005   51.9970 H   0  0  0  0  0  0  0  0  0  0  0  0
   61.3284   27.4121   53.7504 H   0  0  0  0  0  0  0  0  0  0  0  0
   59.3979   28.9695   51.9609 H   0  0  0  0  0  0  0  0  0  0  0  0
   59.1367   27.3605   52.7306 H   0  0  0  0  0  0  0  0  0  0  0  0
  1  2  2  0
  2  3  1  0
  3  4  2  3
  4  5  1  0
  5  6  1  0
  6  7  1  0
  7  8  2  0
  7  9  1  0
  9 10  1  0
 10 11  1  0
  3 12  1  0
 12 13  2  0
 13 14  1  0
 14 15  2  0
 14 16  1  0
 16 17  1  0
 17 18  1  0
 18 19  2  0
 19 20  1  0
 20 21  2  0
 21 22  1  0
 22 23  2  0
 13 24  1  0
 24 25  1  0
 25 26  1  0
 26 27  2  0
 26 28  1  0
 28 29  1  0
 29 30  1  0
 30 31  1  0
 31 32  1  0
 32 33  1  0
 24  2  1  0
 33 28  1  0
 10  5  2  0
 23 18  1  0
  1 34  1  0
  1 35  1  0
  4 36  1  0
 12 37  1  0
 16 38  1  0
 17 39  1  0
 17 40  1  0
 19 41  1  0
 20 42  1  0
 21 43  1  0
 22 44  1  0
 23 45  1  0
 25 46  1  0
 25 47  1  0
 29 48  1  0
 29 49  1  0
 30 50  1  0
 30 51  1  0
 32 52  1  0
 32 53  1  0
 33 54  1  0
 33 55  1  0
M  CHG  3   6  -1   9  -1  11  -1
M  END
>  <UniqueID>  (68) 
63

>  <SMILES>  (68) 
C=c1c(=Cc2[n-]c(=O)[n-]c2[O-])cc(C(=O)NCc2ccccc2)n1CC(=O)N1CCOCC1

>  <Energy>  (68) 
128.90983198004312

>  <Genealogy>  (68) 
C=c1c(=Cc2[n-]c(=O)[n-]c2[O-])cc(C(=O)NCc2ccccc2)n1CC(=O)N1CCOCC1 (protonated)
C=c1c(=Cc2[n-]c(=O)[n-]c2[O-])cc(C(=O)NCc2ccccc2)n1CC(=O)N1CCOCC1 (3D coordinates assigned)
C=c1c(=Cc2[n-]c(=O)[n-]c2[O-])cc(C(=O)NCc2ccccc2)n1CC(=O)N1CCOCC1 (nonaromatic ring conformer: 128.90983198004312 kcal/mol)

>  <smiles>  (68) 
C=c1c(=Cc2[nH]c(=O)[nH]c2O)cc(C(=O)NCc2ccccc2)n1CC(=O)N1CCOCC1

>  <score_type>  (68) 
oracle

>  <origin>  (68) 
adg

>  <m_score__min__energy>  (68) 
-17.34

>  <m_primary>  (68) 
energy

$$$$
68:0
     RDKit          3D

 58 61  0  0  0  0  0  0  0  0999 V2000
   55.4492   28.7328   44.4268 H   0  0  0  0  0  0  0  0  0  0  0  0
   56.2590   29.3870   44.7820 C   0  0  0  0  0  0  0  0  0  0  0  0
   56.2290   30.7170   44.5030 N   0  0  0  0  0  0  0  0  0  0  0  0
   57.2230   31.5630   44.8960 C   0  0  0  0  0  0  0  0  0  0  0  0
   57.1270   32.8460   44.6940 N   0  0  0  0  0  0  0  0  0  0  0  0
   57.4990   33.8730   45.6710 C   0  0  0  0  0  0  0  0  0  0  0  0
   57.4614   33.4381   46.6807 H   0  0  0  0  0  0  0  0  0  0  0  0
   56.7912   34.7104   45.5828 H   0  0  0  0  0  0  0  0  0  0  0  0
   58.8870   34.3930   45.4120 C   0  0  0  0  0  0  0  0  0  0  0  0
   59.3800   34.3070   44.2570 O   0  0  0  0  0  0  0  0  0  0  0  0
   59.6310   35.0050   46.4710 N   0  0  0  0  0  0  0  0  0  0  0  0
   59.9040   34.3760   47.7530 C   0  0  0  0  0  0  0  0  0  0  0  0
   60.1996   35.1410   48.4860 H   0  0  0  0  0  0  0  0  0  0  0  0
   59.0033   33.8618   48.1196 H   0  0  0  0  0  0  0  0  0  0  0  0
   61.0220   33.3890   47.5720 C   0  0  0  0  0  0  0  0  0  0  0  0
   60.8200   32.0250   47.8350 C   0  0  0  0  0  0  0  0  0  0  0  0
   59.8199   31.6625   48.1149 H   0  0  0  0  0  0  0  0  0  0  0  0
   61.8880   31.1250   47.7420 C   0  0  0  0  0  0  0  0  0  0  0  0
   61.7232   30.0551   47.9375 H   0  0  0  0  0  0  0  0  0  0  0  0
   63.1640   31.5840   47.4010 C   0  0  0  0  0  0  0  0  0  0  0  0
   64.0018   30.8749   47.3286 H   0  0  0  0  0  0  0  0  0  0  0  0
   63.3760   32.9430   47.1520 C   0  0  0  0  0  0  0  0  0  0  0  0
   64.3812   33.3037   46.8884 H   0  0  0  0  0  0  0  0  0  0  0  0
   62.3100   33.8440   47.2380 C   0  0  0  0  0  0  0  0  0  0  0  0
   62.4797   34.9133   47.0435 H   0  0  0  0  0  0  0  0  0  0  0  0
   58.3230   31.0560   45.5950 C   0  0  0  0  0  0  0  0  0  0  0  0
   59.1524   31.7194   45.8813 H   0  0  0  0  0  0  0  0  0  0  0  0
   58.3590   29.7010   45.9260 C   0  0  0  0  0  0  0  0  0  0  0  0
   59.2038   29.3004   46.5055 H   0  0  0  0  0  0  0  0  0  0  0  0
   57.3210   28.8480   45.5220 C   0  0  0  0  0  0  0  0  0  0  0  0
   57.3160   27.4350   45.9500 C   0  0  0  0  0  0  0  0  0  0  0  0
   56.1320   26.7650   45.9810 N   0  0  0  0  0  0  0  0  0  0  0  0
   56.0380   25.4610   46.3610 C   0  0  0  0  0  0  0  0  0  0  0  0
   54.8900   24.8490   46.3650 N   0  0  0  0  0  0  0  0  0  0  0  0
   54.1460   24.4630   45.1650 C   0  0  0  0  0  0  0  0  0  0  0  0
   53.1149   24.2076   45.4508 H   0  0  0  0  0  0  0  0  0  0  0  0
   54.1602   25.3101   44.4634 H   0  0  0  0  0  0  0  0  0  0  0  0
   54.7880   23.2470   44.4670 C   0  0  0  0  0  0  0  0  0  0  0  0
   53.9793   22.6910   43.9700 H   0  0  0  0  0  0  0  0  0  0  0  0
   55.4620   22.3020   45.4750 C   0  0  0  0  0  0  0  0  0  0  0  0
   56.2019   22.8686   46.0594 H   0  0  0  0  0  0  0  0  0  0  0  0
   54.6870   21.8838   46.1341 H   0  0  0  0  0  0  0  0  0  0  0  0
   56.1750   21.1350   44.7530 C   0  0  0  0  0  0  0  0  0  0  0  0
   57.1992   21.0543   45.1460 H   0  0  0  0  0  0  0  0  0  0  0  0
   55.5868   20.2250   44.9427 H   0  0  0  0  0  0  0  0  0  0  0  0
   56.2440   21.3070   43.3460 O   0  0  0  0  0  0  0  0  0  0  0  0
   56.7920   22.5750   43.0400 C   0  0  0  0  0  0  0  0  0  0  0  0
   57.7244   22.7103   43.6078 H   0  0  0  0  0  0  0  0  0  0  0  0
   56.9890   22.6197   41.9587 H   0  0  0  0  0  0  0  0  0  0  0  0
   55.8100   23.7050   43.4070 C   0  0  0  0  0  0  0  0  0  0  0  0
   56.3796   24.5576   43.8053 H   0  0  0  0  0  0  0  0  0  0  0  0
   55.2591   23.9905   42.4987 H   0  0  0  0  0  0  0  0  0  0  0  0
   57.1930   24.7690   46.7410 C   0  0  0  0  0  0  0  0  0  0  0  0
   57.1322   23.7158   47.0525 H   0  0  0  0  0  0  0  0  0  0  0  0
   58.4230   25.4280   46.7210 C   0  0  0  0  0  0  0  0  0  0  0  0
   59.3375   24.8938   47.0182 H   0  0  0  0  0  0  0  0  0  0  0  0
   58.4940   26.7650   46.3240 C   0  0  0  0  0  0  0  0  0  0  0  0
   59.6910   27.4050   46.3440 F   0  0  0  0  0  0  0  0  0  0  0  0
  1  2  1  0
  2  3  1  0
  3  4  1  0
  4  5  2  0
  5  6  1  0
  6  7  1  0
  6  8  1  0
  6  9  1  0
  9 10  2  0
  9 11  1  0
 11 12  1  0
 12 13  1  0
 12 14  1  0
 12 15  1  0
 15 16  2  0
 16 17  1  0
 16 18  1  0
 18 19  1  0
 18 20  2  0
 20 21  1  0
 20 22  1  0
 22 23  1  0
 22 24  2  0
 24 25  1  0
  4 26  1  0
 26 27  1  0
 26 28  2  0
 28 29  1  0
 28 30  1  0
 30 31  1  0
 31 32  1  0
 32 33  1  0
 33 34  2  0
 34 35  1  0
 35 36  1  0
 35 37  1  0
 35 38  1  0
 38 39  1  0
 38 40  1  0
 40 41  1  0
 40 42  1  0
 40 43  1  0
 43 44  1  0
 43 45  1  0
 43 46  1  0
 46 47  1  0
 47 48  1  0
 47 49  1  0
 47 50  1  0
 50 51  1  0
 50 52  1  0
 33 53  1  0
 53 54  1  0
 53 55  2  0
 55 56  1  0
 55 57  1  0
 57 58  1  0
 30  2  2  0
 57 31  2  0
 24 15  1  0
 50 38  1  0
M  CHG  3   3  -1  11  -1  32  -1
M  END
>  <UniqueID>  (69) 
64

>  <SMILES>  (69) 
O=C(C/N=c1/ccc(-c2[n-]/c(=N\CC3CCOCC3)ccc2F)c[n-]1)[N-]Cc1ccccc1

>  <Energy>  (69) 
66.054211499489

>  <Genealogy>  (69) 
O=C(CN=c1ccc(-c2[n-]c(=NCC3CCOCC3)ccc2F)c[n-]1)[N-]Cc1ccccc1 (protonated)
O=C(C/N=c1/ccc(-c2[n-]/c(=N\CC3CCOCC3)ccc2F)c[n-]1)[N-]Cc1ccccc1 (cis-trans isomerization)
O=C(C/N=c1/ccc(-c2[n-]/c(=N\CC3CCOCC3)ccc2F)c[n-]1)[N-]Cc1ccccc1 (3D coordinates assigned)
O=C(C/N=c1/ccc(-c2[n-]/c(=N\CC3CCOCC3)ccc2F)c[n-]1)[N-]Cc1ccccc1 (nonaromatic ring conformer: 66.054211499489 kcal/mol)

>  <smiles>  (69) 
O=C(CN=c1ccc(-c2[nH]c(=NCC3CCOCC3)ccc2F)c[nH]1)NCc1ccccc1

>  <score_type>  (69) 
oracle

>  <origin>  (69) 
adg

>  <m_score__min__energy>  (69) 
-14.26

>  <m_primary>  (69) 
energy

$$$$
69:0
     RDKit          3D

 51 53  0  0  0  0  0  0  0  0999 V2000
   59.4220   29.3350   53.3970 C   0  0  0  0  0  0  0  0  0  0  0  0
   58.8290   29.7000   51.7570 S   0  0  0  0  0  0  0  0  0  0  0  0
   59.4320   28.7210   50.7890 O   0  0  0  0  0  0  0  0  0  0  0  0
   57.3360   29.5280   51.7510 O   0  0  0  0  0  0  0  0  0  0  0  0
   59.2080   31.3470   51.2880 N   0  0  0  0  0  0  0  0  0  0  0  0
   60.5460   31.4740   50.6860 C   0  0  0  0  0  0  0  0  0  0  0  0
   60.6200   30.8740   49.2720 C   0  0  0  0  0  0  0  0  0  0  0  0
   59.3630   31.1620   48.3970 C   0  0  0  0  0  0  0  0  0  0  0  0
   59.7650   31.4560   46.9080 C   0  0  0  0  0  0  0  0  0  0  0  0
   58.6590   31.1060   45.8790 C   0  0  0  0  0  0  0  0  0  0  0  0
   58.3440   29.6000   45.8880 C   0  0  0  0  0  0  0  0  0  0  0  0
   59.5640   28.8080   46.1160 N   0  0  0  0  0  0  0  0  0  0  0  0
   59.5160   27.6190   46.9310 C   0  0  0  0  0  0  0  0  0  0  0  0
   60.4520   27.3830   47.7420 O   0  0  0  0  0  0  0  0  0  0  0  0
   58.3720   26.6830   46.8620 C   0  0  0  0  0  0  0  0  0  0  0  0
   58.5520   25.3270   47.1770 C   0  0  0  0  0  0  0  0  0  0  0  0
   57.4760   24.4350   47.1150 C   0  0  0  0  0  0  0  0  0  0  0  0
   57.6750   23.0990   47.4440 O   0  0  0  0  0  0  0  0  0  0  0  0
   56.2060   24.8900   46.7220 C   0  0  0  0  0  0  0  0  0  0  0  0
   55.1190   24.0190   46.6530 O   0  0  0  0  0  0  0  0  0  0  0  0
   56.0270   26.2390   46.3930 C   0  0  0  0  0  0  0  0  0  0  0  0
   54.7770   26.6990   45.9940 O   0  0  0  0  0  0  0  0  0  0  0  0
   57.1040   27.1300   46.4590 C   0  0  0  0  0  0  0  0  0  0  0  0
   60.8570   29.3990   45.7500 C   0  0  0  0  0  0  0  0  0  0  0  0
   61.0840   30.7240   46.5050 C   0  0  0  0  0  0  0  0  0  0  0  0
   58.5250   32.2940   49.0290 C   0  0  0  0  0  0  0  0  0  0  0  0
   58.1250   31.9570   50.4790 C   0  0  0  0  0  0  0  0  0  0  0  0
   58.7311   29.7603   54.1398 H   0  0  0  0  0  0  0  0  0  0  0  0
   59.4797   28.2448   53.5318 H   0  0  0  0  0  0  0  0  0  0  0  0
   60.4213   29.7746   53.5318 H   0  0  0  0  0  0  0  0  0  0  0  0
   60.8066   32.5412   50.6295 H   0  0  0  0  0  0  0  0  0  0  0  0
   61.2502   30.9163   51.3208 H   0  0  0  0  0  0  0  0  0  0  0  0
   61.4999   31.2944   48.7631 H   0  0  0  0  0  0  0  0  0  0  0  0
   60.6825   29.7823   49.3914 H   0  0  0  0  0  0  0  0  0  0  0  0
   58.7285   30.2639   48.3695 H   0  0  0  0  0  0  0  0  0  0  0  0
   59.9188   32.5447   46.8751 H   0  0  0  0  0  0  0  0  0  0  0  0
   57.7455   31.6647   46.1307 H   0  0  0  0  0  0  0  0  0  0  0  0
   59.0184   31.3797   44.8761 H   0  0  0  0  0  0  0  0  0  0  0  0
   57.6222   29.3881   46.6905 H   0  0  0  0  0  0  0  0  0  0  0  0
   57.9240   29.3236   44.9096 H   0  0  0  0  0  0  0  0  0  0  0  0
   59.5464   24.9630   47.4748 H   0  0  0  0  0  0  0  0  0  0  0  0
   55.2040   23.0350   46.8810 H   0  0  0  0  0  0  0  0  0  0  0  0
   56.9560   28.1871   46.1934 H   0  0  0  0  0  0  0  0  0  0  0  0
   61.6617   28.6945   46.0071 H   0  0  0  0  0  0  0  0  0  0  0  0
   60.8592   29.6031   44.6691 H   0  0  0  0  0  0  0  0  0  0  0  0
   61.6538   30.5077   47.4207 H   0  0  0  0  0  0  0  0  0  0  0  0
   61.6245   31.3936   45.8198 H   0  0  0  0  0  0  0  0  0  0  0  0
   59.1172   33.2210   49.0276 H   0  0  0  0  0  0  0  0  0  0  0  0
   57.6063   32.4161   48.4365 H   0  0  0  0  0  0  0  0  0  0  0  0
   57.8086   32.8872   50.9735 H   0  0  0  0  0  0  0  0  0  0  0  0
   57.3208   31.2091   50.4167 H   0  0  0  0  0  0  0  0  0  0  0  0
  1  2  1  0
  2  3  2  0
  2  4  2  0
  2  5  1  0
  5  6  1  0
  6  7  1  0
  7  8  1  0
  8  9  1  0
  9 10  1  0
 10 11  1  0
 11 12  1  0
 12 13  1  0
 13 14  2  0
 13 15  1  0
 15 16  2  0
 16 17  1  0
 17 18  1  0
 17 19  2  0
 19 20  1  0
 19 21  1  0
 21 22  1  0
 21 23  2  0
 12 24  1  0
 24 25  1  0
  8 26  1  0
 26 27  1  0
 27  5  1  0
 25  9  1  0
 23 15  1  0
  1 28  1  0
  1 29  1  0
  1 30  1  0
  6 31  1  0
  6 32  1  0
  7 33  1  0
  7 34  1  0
  8 35  1  0
  9 36  1  0
 10 37  1  0
 10 38  1  0
 11 39  1  0
 11 40  1  0
 16 41  1  0
 20 42  1  0
 23 43  1  0
 24 44  1  0
 24 45  1  0
 25 46  1  0
 25 47  1  0
 26 48  1  0
 26 49  1  0
 27 50  1  0
 27 51  1  0
M  CHG  2  18  -1  22  -1
M  END
>  <UniqueID>  (70) 
65

>  <SMILES>  (70) 
CS(=O)(=O)N1CCC(C2CCN(C(=O)c3cc([O-])c(O)c([O-])c3)CC2)CC1

>  <Energy>  (70) 
66.22414515053228

>  <Genealogy>  (70) 
CS(=O)(=O)N1CCC(C2CCN(C(=O)c3cc([O-])c(O)c([O-])c3)CC2)CC1 (protonated)
CS(=O)(=O)N1CCC(C2CCN(C(=O)c3cc([O-])c(O)c([O-])c3)CC2)CC1 (3D coordinates assigned)
CS(=O)(=O)N1CCC(C2CCN(C(=O)c3cc([O-])c(O)c([O-])c3)CC2)CC1 (nonaromatic ring conformer: 66.22414515053228 kcal/mol)

>  <smiles>  (70) 
CS(=O)(=O)N1CCC(C2CCN(C(=O)c3cc(O)c(O)c(O)c3)CC2)CC1

>  <score_type>  (70) 
oracle

>  <origin>  (70) 
adg

>  <m_score__min__energy>  (70) 
-12.91

>  <m_primary>  (70) 
energy

$$$$
70:0
     RDKit          3D

 64 67  0  0  0  0  0  0  0  0999 V2000
   57.7930   27.3120   43.9590 C   0  0  0  0  0  0  0  0  0  0  0  0
   57.7600   28.1600   45.2360 C   0  0  2  0  0  0  0  0  0  0  0  0
   56.7760   27.5680   46.1490 N   0  0  0  0  0  0  0  0  0  0  0  0
   56.0810   26.3430   45.8700 C   0  0  0  0  0  0  0  0  0  0  0  0
   54.8290   26.3120   45.9850 O   0  0  0  0  0  0  0  0  0  0  0  0
   56.8260   25.1340   45.4230 C   0  0  0  0  0  0  0  0  0  0  0  0
   56.3100   24.3650   44.3600 C   0  0  0  0  0  0  0  0  0  0  0  0
   56.9430   23.1880   43.9540 C   0  0  0  0  0  0  0  0  0  0  0  0
   58.0940   22.7540   44.6050 C   0  0  0  0  0  0  0  0  0  0  0  0
   58.6250   23.4990   45.6590 C   0  0  0  0  0  0  0  0  0  0  0  0
   58.0150   24.6930   46.0650 C   0  0  0  0  0  0  0  0  0  0  0  0
   58.6100   25.4280   47.1450 N   0  0  0  0  0  0  0  0  0  0  0  0
   59.8000   26.2070   46.9660 C   0  0  0  0  0  0  0  0  0  0  0  0
   60.5940   25.9280   46.0250 O   0  0  0  0  0  0  0  0  0  0  0  0
   60.0940   27.3530   47.8590 C   0  0  0  0  0  0  0  0  0  0  0  0
   60.3890   27.1420   49.2160 C   0  0  0  0  0  0  0  0  0  0  0  0
   60.7380   28.2170   50.0370 C   0  0  0  0  0  0  0  0  0  0  0  0
   60.8320   29.5060   49.5110 C   0  0  0  0  0  0  0  0  0  0  0  0
   60.5590   29.7390   48.1530 C   0  0  0  0  0  0  0  0  0  0  0  0
   60.7380   31.0860   47.5630 C   0  0  0  0  0  0  0  0  0  0  0  0
   61.6960   31.3090   46.7740 O   0  0  0  0  0  0  0  0  0  0  0  0
   59.8400   32.1460   47.9180 N   0  0  0  0  0  0  0  0  0  0  0  0
   59.1150   32.9910   47.0140 C   0  0  0  0  0  0  0  0  0  0  0  0
   57.7660   32.7060   46.7590 C   0  0  0  0  0  0  0  0  0  0  0  0
   57.0320   33.4930   45.8680 C   0  0  0  0  0  0  0  0  0  0  0  0
   57.6490   34.5540   45.2000 C   0  0  0  0  0  0  0  0  0  0  0  0
   59.0020   34.8290   45.4240 C   0  0  0  0  0  0  0  0  0  0  0  0
   59.6050   35.8410   44.7500 F   0  0  0  0  0  0  0  0  0  0  0  0
   59.7380   34.0490   46.3260 C   0  0  0  0  0  0  0  0  0  0  0  0
   60.1620   28.6590   47.3420 C   0  0  0  0  0  0  0  0  0  0  0  0
   57.4350   29.6520   44.9110 C   0  0  0  0  0  0  0  0  0  0  0  0
   56.0770   29.7840   44.1490 C   0  0  0  0  0  0  0  0  0  0  0  0
   56.2650   30.0790   42.6540 C   0  0  0  0  0  0  0  0  0  0  0  0
   57.0310   31.3970   42.4290 C   0  0  0  0  0  0  0  0  0  0  0  0
   58.0930   31.6750   43.5110 C   0  0  0  0  0  0  0  0  0  0  0  0
   58.5850   30.3770   44.1580 C   0  0  0  0  0  0  0  0  0  0  0  0
   57.8345   26.2461   44.2276 H   0  0  0  0  0  0  0  0  0  0  0  0
   56.8866   27.5058   43.3666 H   0  0  0  0  0  0  0  0  0  0  0  0
   58.6816   27.5757   43.3666 H   0  0  0  0  0  0  0  0  0  0  0  0
   58.7484   28.1610   45.7187 H   0  0  0  0  0  0  0  0  0  0  0  0
   55.3970   24.6963   43.8436 H   0  0  0  0  0  0  0  0  0  0  0  0
   56.5311   22.6031   43.1184 H   0  0  0  0  0  0  0  0  0  0  0  0
   58.5859   21.8225   44.2884 H   0  0  0  0  0  0  0  0  0  0  0  0
   59.5299   23.1458   46.1751 H   0  0  0  0  0  0  0  0  0  0  0  0
   58.2370   25.2830   48.1100 H   0  0  0  0  0  0  0  0  0  0  0  0
   60.3450   26.1255   49.6342 H   0  0  0  0  0  0  0  0  0  0  0  0
   60.9400   28.0463   51.1047 H   0  0  0  0  0  0  0  0  0  0  0  0
   61.1212   30.3435   50.1628 H   0  0  0  0  0  0  0  0  0  0  0  0
   57.2822   31.8569   47.2640 H   0  0  0  0  0  0  0  0  0  0  0  0
   55.9678   33.2773   45.6922 H   0  0  0  0  0  0  0  0  0  0  0  0
   57.0707   35.1728   44.4981 H   0  0  0  0  0  0  0  0  0  0  0  0
   60.8033   34.2638   46.4964 H   0  0  0  0  0  0  0  0  0  0  0  0
   59.9012   28.8393   46.2887 H   0  0  0  0  0  0  0  0  0  0  0  0
   57.3347   30.1648   45.8790 H   0  0  0  0  0  0  0  0  0  0  0  0
   55.5206   28.8410   44.2548 H   0  0  0  0  0  0  0  0  0  0  0  0
   55.5289   30.6301   44.5892 H   0  0  0  0  0  0  0  0  0  0  0  0
   56.8306   29.2544   42.1956 H   0  0  0  0  0  0  0  0  0  0  0  0
   55.2704   30.1757   42.1942 H   0  0  0  0  0  0  0  0  0  0  0  0
   57.5328   31.3471   41.4514 H   0  0  0  0  0  0  0  0  0  0  0  0
   56.2959   32.2140   42.4752 H   0  0  0  0  0  0  0  0  0  0  0  0
   58.9477   32.1910   43.0493 H   0  0  0  0  0  0  0  0  0  0  0  0
   57.6356   32.2995   44.2925 H   0  0  0  0  0  0  0  0  0  0  0  0
   58.9760   29.7115   43.3743 H   0  0  0  0  0  0  0  0  0  0  0  0
   59.3727   30.6270   44.8839 H   0  0  0  0  0  0  0  0  0  0  0  0
  1  2  1  0
  2  3  1  0
  3  4  1  0
  4  5  2  0
  4  6  1  0
  6  7  2  0
  7  8  1  0
  8  9  2  0
  9 10  1  0
 10 11  2  0
 11 12  1  0
 12 13  1  0
 13 14  2  0
 13 15  1  0
 15 16  2  0
 16 17  1  0
 17 18  2  0
 18 19  1  0
 19 20  1  0
 20 21  2  0
 20 22  1  0
 22 23  1  0
 23 24  2  0
 24 25  1  0
 25 26  2  0
 26 27  1  0
 27 28  1  0
 27 29  2  0
 19 30  2  0
  2 31  1  0
 31 32  1  0
 32 33  1  0
 33 34  1  0
 34 35  1  0
 35 36  1  0
 11  6  1  0
 30 15  1  0
 36 31  1  0
 29 23  1  0
  1 37  1  0
  1 38  1  0
  1 39  1  0
  2 40  1  1
  7 41  1  0
  8 42  1  0
  9 43  1  0
 10 44  1  0
 12 45  1  0
 16 46  1  0
 17 47  1  0
 18 48  1  0
 24 49  1  0
 25 50  1  0
 26 51  1  0
 29 52  1  0
 30 53  1  0
 31 54  1  0
 32 55  1  0
 32 56  1  0
 33 57  1  0
 33 58  1  0
 34 59  1  0
 34 60  1  0
 35 61  1  0
 35 62  1  0
 36 63  1  0
 36 64  1  0
M  CHG  2   3  -1  22  -1
M  END
>  <UniqueID>  (71) 
66

>  <SMILES>  (71) 
C[C@H]([N-]C(=O)c1ccccc1NC(=O)c1cccc(C(=O)[N-]c2cccc(F)c2)c1)C1CCCCC1

>  <Energy>  (71) 
83.12773272752368

>  <Genealogy>  (71) 
CC([N-]C(=O)c1ccccc1NC(=O)c1cccc(C(=O)[N-]c2cccc(F)c2)c1)C1CCCCC1 (protonated)
C[C@H]([N-]C(=O)c1ccccc1NC(=O)c1cccc(C(=O)[N-]c2cccc(F)c2)c1)C1CCCCC1 (chirality)
C[C@H]([N-]C(=O)c1ccccc1NC(=O)c1cccc(C(=O)[N-]c2cccc(F)c2)c1)C1CCCCC1 (3D coordinates assigned)
C[C@H]([N-]C(=O)c1ccccc1NC(=O)c1cccc(C(=O)[N-]c2cccc(F)c2)c1)C1CCCCC1 (nonaromatic ring conformer: 83.12773272752368 kcal/mol)

>  <smiles>  (71) 
CC(NC(=O)c1ccccc1NC(=O)c1cccc(C(=O)Nc2cccc(F)c2)c1)C1CCCCC1

>  <score_type>  (71) 
oracle

>  <origin>  (71) 
adg

>  <m_score__min__energy>  (71) 
-13.470000000000001

>  <m_primary>  (71) 
energy

$$$$
71:0
     RDKit          3D

 52 55  0  0  0  0  0  0  0  0999 V2000
   53.9520   28.5120   54.1100 C   0  0  0  0  0  0  0  0  0  0  0  0
   54.4760   29.2650   53.1290 C   0  0  0  0  0  0  0  0  0  0  0  0
   53.8110   30.2690   52.4080 C   0  0  0  0  0  0  0  0  0  0  0  0
   52.5010   30.5700   52.3120 C   0  0  0  0  0  0  0  0  0  0  0  0
   51.7840   30.8780   51.0620 C   0  0  0  0  0  0  0  0  0  0  0  0
   51.7830   30.0960   49.9660 N   0  0  0  0  0  0  0  0  0  0  0  0
   51.1240   30.8420   49.0540 C   0  0  0  0  0  0  0  0  0  0  0  0
   50.9050   30.4400   47.8810 O   0  0  0  0  0  0  0  0  0  0  0  0
   50.7300   32.0570   49.4910 N   0  0  0  0  0  0  0  0  0  0  0  0
   51.1700   32.0680   50.7600 C   0  0  0  0  0  0  0  0  0  0  0  0
   51.0180   33.1470   51.6210 O   0  0  0  0  0  0  0  0  0  0  0  0
   54.7890   30.9680   51.7270 C   0  0  0  0  0  0  0  0  0  0  0  0
   55.9850   30.3290   51.9730 C   0  0  0  0  0  0  0  0  0  0  0  0
   57.2780   30.7770   51.4190 C   0  0  0  0  0  0  0  0  0  0  0  0
   57.9730   29.9490   50.7690 O   0  0  0  0  0  0  0  0  0  0  0  0
   57.7780   32.1090   51.6440 N   0  0  0  0  0  0  0  0  0  0  0  0
   58.8080   32.6760   50.7640 C   0  0  0  0  0  0  0  0  0  0  0  0
   60.1680   32.6330   51.4660 C   0  0  0  0  0  0  0  0  0  0  0  0
   60.0460   33.1770   52.8660 C   0  0  0  0  0  0  0  0  0  0  0  0
   60.9130   33.9060   53.3190 O   0  0  0  0  0  0  0  0  0  0  0  0
   58.8940   32.7390   53.7360 C   0  0  0  0  0  0  0  0  0  0  0  0
   57.5860   32.7760   52.9400 C   0  0  0  0  0  0  0  0  0  0  0  0
   55.8010   29.2800   52.8160 N   0  0  0  0  0  0  0  0  0  0  0  0
   56.8700   28.4890   53.4480 C   0  0  0  0  0  0  0  0  0  0  0  0
   57.9370   29.4110   54.0430 C   0  0  0  0  0  0  0  0  0  0  0  0
   59.2340   28.8350   53.8960 O   0  0  0  0  0  0  0  0  0  0  0  0
   60.3350   29.5380   53.3890 C   0  0  0  0  0  0  0  0  0  0  0  0
   61.0010   30.3070   54.1340 O   0  0  0  0  0  0  0  0  0  0  0  0
   60.7380   29.3960   51.9510 C   0  0  0  0  0  0  0  0  0  0  0  0
   60.4310   28.0210   51.3750 C   0  0  0  0  0  0  0  0  0  0  0  0
   61.8750   28.4280   51.6410 C   0  0  0  0  0  0  0  0  0  0  0  0
   54.5697   27.7503   54.6083 H   0  0  0  0  0  0  0  0  0  0  0  0
   52.9052   28.6570   54.4151 H   0  0  0  0  0  0  0  0  0  0  0  0
   51.9181   30.5872   53.2447 H   0  0  0  0  0  0  0  0  0  0  0  0
   54.6412   31.8641   51.1065 H   0  0  0  0  0  0  0  0  0  0  0  0
   58.8577   32.0899   49.8345 H   0  0  0  0  0  0  0  0  0  0  0  0
   58.5522   33.7198   50.5296 H   0  0  0  0  0  0  0  0  0  0  0  0
   60.5221   31.5925   51.5096 H   0  0  0  0  0  0  0  0  0  0  0  0
   60.8838   33.2488   50.9018 H   0  0  0  0  0  0  0  0  0  0  0  0
   59.0752   31.7133   54.0896 H   0  0  0  0  0  0  0  0  0  0  0  0
   58.8117   33.4229   54.5936 H   0  0  0  0  0  0  0  0  0  0  0  0
   56.7984   32.2568   53.5058 H   0  0  0  0  0  0  0  0  0  0  0  0
   57.2902   33.8221   52.7720 H   0  0  0  0  0  0  0  0  0  0  0  0
   56.4380   27.8708   54.2488 H   0  0  0  0  0  0  0  0  0  0  0  0
   57.3375   27.8485   52.6857 H   0  0  0  0  0  0  0  0  0  0  0  0
   57.9099   30.3794   53.5220 H   0  0  0  0  0  0  0  0  0  0  0  0
   57.7292   29.5505   55.1141 H   0  0  0  0  0  0  0  0  0  0  0  0
   60.5385   30.4427   51.6777 H   0  0  0  0  0  0  0  0  0  0  0  0
   59.9507   27.2565   52.0033 H   0  0  0  0  0  0  0  0  0  0  0  0
   59.8763   27.6510   50.5001 H   0  0  0  0  0  0  0  0  0  0  0  0
   62.4369   27.9582   52.4617 H   0  0  0  0  0  0  0  0  0  0  0  0
   62.7943   28.4743   51.0387 H   0  0  0  0  0  0  0  0  0  0  0  0
  1  2  2  0
  2  3  1  0
  3  4  2  3
  4  5  1  0
  5  6  1  0
  6  7  1  0
  7  8  2  0
  7  9  1  0
  9 10  1  0
 10 11  1  0
  3 12  1  0
 12 13  2  0
 13 14  1  0
 14 15  2  0
 14 16  1  0
 16 17  1  0
 17 18  1  0
 18 19  1  0
 19 20  2  0
 19 21  1  0
 21 22  1  0
 13 23  1  0
 23 24  1  0
 24 25  1  0
 25 26  1  0
 26 27  1  0
 27 28  2  0
 27 29  1  0
 29 30  1  0
 30 31  1  0
 23  2  1  0
 31 29  1  0
 10  5  2  0
 22 16  1  0
  1 32  1  0
  1 33  1  0
  4 34  1  0
 12 35  1  0
 17 36  1  0
 17 37  1  0
 18 38  1  0
 18 39  1  0
 21 40  1  0
 21 41  1  0
 22 42  1  0
 22 43  1  0
 24 44  1  0
 24 45  1  0
 25 46  1  0
 25 47  1  0
 29 48  1  0
 30 49  1  0
 30 50  1  0
 31 51  1  0
 31 52  1  0
M  CHG  3   6  -1   9  -1  11  -1
M  END
>  <UniqueID>  (72) 
67

>  <SMILES>  (72) 
C=c1c(=Cc2[n-]c(=O)[n-]c2[O-])cc(C(=O)N2CCC(=O)CC2)n1CCOC(=O)C1CC1

>  <Energy>  (72) 
387.16780736256345

>  <Genealogy>  (72) 
C=c1c(=Cc2[n-]c(=O)[n-]c2[O-])cc(C(=O)N2CCC(=O)CC2)n1CCOC(=O)C1CC1 (protonated)
C=c1c(=Cc2[n-]c(=O)[n-]c2[O-])cc(C(=O)N2CCC(=O)CC2)n1CCOC(=O)C1CC1 (3D coordinates assigned)
C=c1c(=Cc2[n-]c(=O)[n-]c2[O-])cc(C(=O)N2CCC(=O)CC2)n1CCOC(=O)C1CC1 (nonaromatic ring conformer: 387.16780736256345 kcal/mol)

>  <smiles>  (72) 
C=c1c(=Cc2[nH]c(=O)[nH]c2O)cc(C(=O)N2CCC(=O)CC2)n1CCOC(=O)C1CC1

>  <score_type>  (72) 
oracle

>  <origin>  (72) 
adg

>  <m_score__min__energy>  (72) 
-15.970000000000001

>  <m_primary>  (72) 
energy

$$$$
72:0
     RDKit          3D

 47 50  0  0  0  0  0  0  0  0999 V2000
   55.9070   27.7090   45.5880 O   0  0  0  0  0  0  0  0  0  0  0  0
   56.9320   28.4200   45.4100 C   0  0  0  0  0  0  0  0  0  0  0  0
   58.2670   27.7320   45.2840 C   0  0  0  0  0  0  0  0  0  0  0  0
   58.4970   26.4530   46.5740 S   0  0  0  0  0  0  0  0  0  0  0  0
   58.0290   25.0850   45.5150 C   0  0  0  0  0  0  0  0  0  0  0  0
   58.6160   23.8620   45.5840 N   0  0  0  0  0  0  0  0  0  0  0  0
   57.9500   23.1640   44.6480 C   0  0  0  0  0  0  0  0  0  0  0  0
   58.1540   21.8400   44.2670 C   0  0  0  0  0  0  0  0  0  0  0  0
   57.3390   21.3200   43.2450 C   0  0  0  0  0  0  0  0  0  0  0  0
   56.3520   22.1310   42.6360 C   0  0  0  0  0  0  0  0  0  0  0  0
   56.1790   23.4700   43.0390 C   0  0  0  0  0  0  0  0  0  0  0  0
   57.0060   23.9500   44.0490 C   0  0  0  0  0  0  0  0  0  0  0  0
   57.0460   25.1740   44.5850 N   0  0  0  0  0  0  0  0  0  0  0  0
   56.7750   29.8460   45.3690 N   0  0  0  0  0  0  0  0  0  0  0  0
   57.5000   30.8020   44.5820 C   0  0  0  0  0  0  0  0  0  0  0  0
   57.7770   30.5590   43.3780 O   0  0  0  0  0  0  0  0  0  0  0  0
   57.9020   32.0950   45.1930 C   0  0  0  0  0  0  0  0  0  0  0  0
   57.3750   33.2940   44.6760 C   0  0  0  0  0  0  0  0  0  0  0  0
   57.7340   34.5270   45.2260 C   0  0  0  0  0  0  0  0  0  0  0  0
   58.6290   34.5820   46.2930 C   0  0  0  0  0  0  0  0  0  0  0  0
   59.1610   33.4060   46.8220 C   0  0  0  0  0  0  0  0  0  0  0  0
   58.8030   32.1580   46.2840 C   0  0  0  0  0  0  0  0  0  0  0  0
   59.3160   30.9630   46.8940 N   0  0  0  0  0  0  0  0  0  0  0  0
   58.8930   30.6370   48.2580 C   0  0  0  0  0  0  0  0  0  0  0  0
   59.1310   29.1480   48.5380 C   0  0  0  0  0  0  0  0  0  0  0  0
   60.4560   28.7800   48.2050 O   0  0  0  0  0  0  0  0  0  0  0  0
   60.6460   28.9130   46.8080 C   0  0  0  0  0  0  0  0  0  0  0  0
   60.5660   30.3850   46.3950 C   0  0  0  0  0  0  0  0  0  0  0  0
   58.3300   27.2553   44.2947 H   0  0  0  0  0  0  0  0  0  0  0  0
   59.0551   28.4892   45.4088 H   0  0  0  0  0  0  0  0  0  0  0  0
   58.9260   21.2220   44.7487 H   0  0  0  0  0  0  0  0  0  0  0  0
   57.4696   20.2780   42.9177 H   0  0  0  0  0  0  0  0  0  0  0  0
   55.7153   21.7130   41.8423 H   0  0  0  0  0  0  0  0  0  0  0  0
   55.4178   24.1122   42.5719 H   0  0  0  0  0  0  0  0  0  0  0  0
   56.4580   26.0040   44.3430 H   0  0  0  0  0  0  0  0  0  0  0  0
   56.6730   33.2595   43.8298 H   0  0  0  0  0  0  0  0  0  0  0  0
   57.3098   35.4556   44.8164 H   0  0  0  0  0  0  0  0  0  0  0  0
   58.9164   35.5547   46.7188 H   0  0  0  0  0  0  0  0  0  0  0  0
   59.8652   33.4558   47.6656 H   0  0  0  0  0  0  0  0  0  0  0  0
   59.4724   31.2395   48.9731 H   0  0  0  0  0  0  0  0  0  0  0  0
   57.8210   30.8585   48.3668 H   0  0  0  0  0  0  0  0  0  0  0  0
   58.9593   28.9499   49.6063 H   0  0  0  0  0  0  0  0  0  0  0  0
   58.4358   28.5579   47.9228 H   0  0  0  0  0  0  0  0  0  0  0  0
   61.6347   28.5141   46.5373 H   0  0  0  0  0  0  0  0  0  0  0  0
   59.8560   28.3531   46.2861 H   0  0  0  0  0  0  0  0  0  0  0  0
   61.4195   30.9327   46.8212 H   0  0  0  0  0  0  0  0  0  0  0  0
   60.5938   30.4609   45.2980 H   0  0  0  0  0  0  0  0  0  0  0  0
  1  2  2  0
  2  3  1  0
  3  4  1  0
  4  5  1  0
  5  6  2  0
  6  7  1  0
  7  8  2  0
  8  9  1  0
  9 10  2  0
 10 11  1  0
 11 12  2  0
 12 13  1  0
  2 14  1  0
 14 15  1  0
 15 16  2  0
 15 17  1  0
 17 18  2  0
 18 19  1  0
 19 20  2  0
 20 21  1  0
 21 22  2  0
 22 23  1  0
 23 24  1  0
 24 25  1  0
 25 26  1  0
 26 27  1  0
 27 28  1  0
 13  5  1  0
 22 17  1  0
 28 23  1  0
 12  7  1  0
  3 29  1  0
  3 30  1  0
  8 31  1  0
  9 32  1  0
 10 33  1  0
 11 34  1  0
 13 35  1  0
 18 36  1  0
 19 37  1  0
 20 38  1  0
 21 39  1  0
 24 40  1  0
 24 41  1  0
 25 42  1  0
 25 43  1  0
 27 44  1  0
 27 45  1  0
 28 46  1  0
 28 47  1  0
M  CHG  1  14  -1
M  END
>  <UniqueID>  (73) 
68

>  <SMILES>  (73) 
O=C(CSc1nc2ccccc2[nH]1)[N-]C(=O)c1ccccc1N1CCOCC1

>  <Energy>  (73) 
92.66434228123484

>  <Genealogy>  (73) 
O=C(CSc1nc2ccccc2[nH]1)[N-]C(=O)c1ccccc1N1CCOCC1 (protonated)
O=C(CSc1nc2ccccc2[nH]1)[N-]C(=O)c1ccccc1N1CCOCC1 (3D coordinates assigned)
O=C(CSc1nc2ccccc2[nH]1)[N-]C(=O)c1ccccc1N1CCOCC1 (nonaromatic ring conformer: 92.66434228123484 kcal/mol)

>  <smiles>  (73) 
O=C(CSc1nc2ccccc2[nH]1)NC(=O)c1ccccc1N1CCOCC1

>  <score_type>  (73) 
oracle

>  <origin>  (73) 
adg

>  <m_score__min__energy>  (73) 
-11.289999999999999

>  <m_primary>  (73) 
energy

$$$$
73:0
     RDKit          3D

 42 45  0  0  0  0  0  0  0  0999 V2000
   59.4380   29.3700   50.2390 O   0  0  0  0  0  0  0  0  0  0  0  0
   59.3040   29.7460   49.0390 C   0  0  0  0  0  0  0  0  0  0  0  0
   58.8740   30.9810   48.7080 N   0  0  0  0  0  0  0  0  0  0  0  0
   58.7310   31.3820   47.4370 C   0  0  0  0  0  0  0  0  0  0  0  0
   58.2510   32.7610   47.0780 C   0  0  0  0  0  0  0  0  0  0  0  0
   58.9010   33.2310   45.8700 N   0  0  0  0  0  0  0  0  0  0  0  0
   57.8440   33.4660   44.9030 C   0  0  0  0  0  0  0  0  0  0  0  0
   57.4230   32.1980   44.2450 C   0  0  0  0  0  0  0  0  0  0  0  0
   57.4910   31.8370   42.9150 C   0  0  0  0  0  0  0  0  0  0  0  0
   56.9810   30.5650   42.7890 C   0  0  0  0  0  0  0  0  0  0  0  0
   56.6140   30.1900   44.0760 C   0  0  0  0  0  0  0  0  0  0  0  0
   56.8950   31.1770   44.8730 O   0  0  0  0  0  0  0  0  0  0  0  0
   59.6200   34.4610   46.0820 C   0  0  0  0  0  0  0  0  0  0  0  0
   60.8730   34.1650   46.7760 C   0  0  0  0  0  0  0  0  0  0  0  0
   62.1070   33.8350   46.3840 C   0  0  0  0  0  0  0  0  0  0  0  0
   63.0730   33.6210   47.2900 C   0  0  0  0  0  0  0  0  0  0  0  0
   62.7180   33.7590   48.6170 C   0  0  0  0  0  0  0  0  0  0  0  0
   60.9660   34.2070   48.6110 S   0  0  0  0  0  0  0  0  0  0  0  0
   59.0360   30.4950   46.4600 N   0  0  0  0  0  0  0  0  0  0  0  0
   59.4690   29.2500   46.7230 C   0  0  0  0  0  0  0  0  0  0  0  0
   59.7820   28.3430   45.7290 C   0  0  0  0  0  0  0  0  0  0  0  0
   60.2280   27.0630   45.9910 C   0  0  0  0  0  0  0  0  0  0  0  0
   60.3690   26.6680   47.3200 C   0  0  0  0  0  0  0  0  0  0  0  0
   60.0560   27.5750   48.3160 C   0  0  0  0  0  0  0  0  0  0  0  0
   59.6140   28.8470   48.0330 C   0  0  0  0  0  0  0  0  0  0  0  0
   57.1634   32.7340   46.9158 H   0  0  0  0  0  0  0  0  0  0  0  0
   58.4968   33.4470   47.9020 H   0  0  0  0  0  0  0  0  0  0  0  0
   56.9781   33.9073   45.4183 H   0  0  0  0  0  0  0  0  0  0  0  0
   58.2254   34.1492   44.1298 H   0  0  0  0  0  0  0  0  0  0  0  0
   57.8847   32.4583   42.0971 H   0  0  0  0  0  0  0  0  0  0  0  0
   56.8845   29.9723   41.8674 H   0  0  0  0  0  0  0  0  0  0  0  0
   56.1656   29.2289   44.3679 H   0  0  0  0  0  0  0  0  0  0  0  0
   59.8377   34.9330   45.1126 H   0  0  0  0  0  0  0  0  0  0  0  0
   59.0117   35.1479   46.6888 H   0  0  0  0  0  0  0  0  0  0  0  0
   62.3322   33.7382   45.3117 H   0  0  0  0  0  0  0  0  0  0  0  0
   64.0961   33.3493   46.9907 H   0  0  0  0  0  0  0  0  0  0  0  0
   63.3662   33.6244   49.4955 H   0  0  0  0  0  0  0  0  0  0  0  0
   58.9490   30.7370   45.4360 H   0  0  0  0  0  0  0  0  0  0  0  0
   59.6707   28.6552   44.6801 H   0  0  0  0  0  0  0  0  0  0  0  0
   60.4665   26.3710   45.1699 H   0  0  0  0  0  0  0  0  0  0  0  0
   60.7216   25.6568   47.5713 H   0  0  0  0  0  0  0  0  0  0  0  0
   60.1638   27.2700   49.3674 H   0  0  0  0  0  0  0  0  0  0  0  0
  1  2  2  0
  2  3  1  0
  3  4  2  0
  4  5  1  0
  5  6  1  0
  6  7  1  0
  7  8  1  0
  8  9  2  0
  9 10  1  0
 10 11  2  0
 11 12  1  0
  6 13  1  0
 13 14  1  0
 14 15  2  0
 15 16  1  0
 16 17  2  0
 17 18  1  0
  4 19  1  0
 19 20  1  0
 20 21  2  0
 21 22  1  0
 22 23  2  0
 23 24  1  0
 24 25  2  0
 25  2  1  0
 12  8  1  0
 18 14  1  0
 25 20  1  0
  5 26  1  0
  5 27  1  0
  7 28  1  0
  7 29  1  0
  9 30  1  0
 10 31  1  0
 11 32  1  0
 13 33  1  0
 13 34  1  0
 15 35  1  0
 16 36  1  0
 17 37  1  0
 19 38  1  0
 21 39  1  0
 22 40  1  0
 23 41  1  0
 24 42  1  0
M  END
>  <smiles>  (74) 
O=c1nc(CN(Cc2ccco2)Cc2cccs2)[nH]c2ccccc12

>  <score_type>  (74) 
oracle

>  <origin>  (74) 
adg

>  <m_score__min__energy>  (74) 
-7.3499999999999996

>  <m_primary>  (74) 
energy

$$$$
74:0
     RDKit          3D

 49 51  0  0  0  0  0  0  0  0999 V2000
   58.1760   29.7480   50.7250 O   0  0  0  0  0  0  0  0  0  0  0  0
   58.7870   30.2190   49.7290 C   0  0  0  0  0  0  0  0  0  0  0  0
   59.8240   31.2810   49.9490 C   0  0  0  0  0  0  0  0  0  0  0  0
   60.2620   31.8240   48.6570 N   0  0  0  0  0  0  0  0  0  0  0  0
   60.1580   33.2910   48.6110 C   0  0  0  0  0  0  0  0  0  0  0  0
   59.5860   33.7810   47.2990 C   0  0  0  0  0  0  0  0  0  0  0  0
   60.1590   34.8940   46.6590 C   0  0  0  0  0  0  0  0  0  0  0  0
   59.6250   35.3750   45.4620 C   0  0  0  0  0  0  0  0  0  0  0  0
   58.5120   34.7530   44.8930 C   0  0  0  0  0  0  0  0  0  0  0  0
   57.9300   33.6500   45.5220 C   0  0  0  0  0  0  0  0  0  0  0  0
   58.4590   33.1600   46.7240 C   0  0  0  0  0  0  0  0  0  0  0  0
   57.8700   32.0590   47.3480 O   0  0  0  0  0  0  0  0  0  0  0  0
   58.5130   29.6750   48.4300 N   0  0  0  0  0  0  0  0  0  0  0  0
   59.2230   28.6080   47.7820 C   0  0  0  0  0  0  0  0  0  0  0  0
   59.7080   27.5170   48.5250 C   0  0  0  0  0  0  0  0  0  0  0  0
   60.4400   26.5060   47.9010 C   0  0  0  0  0  0  0  0  0  0  0  0
   60.7110   26.5800   46.5350 C   0  0  0  0  0  0  0  0  0  0  0  0
   60.2620   27.6720   45.7910 C   0  0  0  0  0  0  0  0  0  0  0  0
   59.5300   28.7010   46.4070 C   0  0  0  0  0  0  0  0  0  0  0  0
   59.0490   29.8410   45.5920 C   0  0  0  0  0  0  0  0  0  0  0  0
   59.6390   30.9520   45.6910 O   0  0  0  0  0  0  0  0  0  0  0  0
   57.9250   29.7100   44.6970 N   0  0  0  0  0  0  0  0  0  0  0  0
   57.5530   28.4110   44.1260 C   0  0  0  0  0  0  0  0  0  0  0  0
   57.0200   28.6060   42.7040 C   0  0  0  0  0  0  0  0  0  0  0  0
   55.9900   29.5760   42.6820 O   0  0  0  0  0  0  0  0  0  0  0  0
   56.5170   30.8410   43.0380 C   0  0  0  0  0  0  0  0  0  0  0  0
   57.0110   30.8380   44.4870 C   0  0  0  0  0  0  0  0  0  0  0  0
   59.3947   32.0899   50.5584 H   0  0  0  0  0  0  0  0  0  0  0  0
   60.6878   30.8426   50.4702 H   0  0  0  0  0  0  0  0  0  0  0  0
   59.6710   31.4120   47.8960 H   0  0  0  0  0  0  0  0  0  0  0  0
   59.5043   33.6259   49.4299 H   0  0  0  0  0  0  0  0  0  0  0  0
   61.1717   33.7054   48.7140 H   0  0  0  0  0  0  0  0  0  0  0  0
   61.0343   35.3894   47.1045 H   0  0  0  0  0  0  0  0  0  0  0  0
   60.0815   36.2447   44.9668 H   0  0  0  0  0  0  0  0  0  0  0  0
   58.0933   35.1318   43.9490 H   0  0  0  0  0  0  0  0  0  0  0  0
   57.0521   33.1635   45.0718 H   0  0  0  0  0  0  0  0  0  0  0  0
   58.3950   31.2160   47.5440 H   0  0  0  0  0  0  0  0  0  0  0  0
   59.5090   27.4602   49.6054 H   0  0  0  0  0  0  0  0  0  0  0  0
   60.8038   25.6494   48.4874 H   0  0  0  0  0  0  0  0  0  0  0  0
   61.2793   25.7767   46.0434 H   0  0  0  0  0  0  0  0  0  0  0  0
   60.4827   27.7275   44.7148 H   0  0  0  0  0  0  0  0  0  0  0  0
   58.4370   27.7569   44.0987 H   0  0  0  0  0  0  0  0  0  0  0  0
   56.7715   27.9500   44.7479 H   0  0  0  0  0  0  0  0  0  0  0  0
   57.8422   28.9382   42.0531 H   0  0  0  0  0  0  0  0  0  0  0  0
   56.6111   27.6494   42.3465 H   0  0  0  0  0  0  0  0  0  0  0  0
   57.3581   31.0815   42.3711 H   0  0  0  0  0  0  0  0  0  0  0  0
   55.7213   31.5940   42.9392 H   0  0  0  0  0  0  0  0  0  0  0  0
   57.5395   31.7801   44.6948 H   0  0  0  0  0  0  0  0  0  0  0  0
   56.1500   30.7394   45.1645 H   0  0  0  0  0  0  0  0  0  0  0  0
  1  2  2  0
  2  3  1  0
  3  4  1  0
  4  5  1  0
  5  6  1  0
  6  7  2  0
  7  8  1  0
  8  9  2  0
  9 10  1  0
 10 11  2  0
 11 12  1  0
  2 13  1  0
 13 14  1  0
 14 15  2  0
 15 16  1  0
 16 17  2  0
 17 18  1  0
 18 19  2  0
 19 20  1  0
 20 21  2  0
 20 22  1  0
 22 23  1  0
 23 24  1  0
 24 25  1  0
 25 26  1  0
 26 27  1  0
 11  6  1  0
 19 14  1  0
 27 22  1  0
  3 28  1  0
  3 29  1  0
  4 30  1  0
  5 31  1  0
  5 32  1  0
  7 33  1  0
  8 34  1  0
  9 35  1  0
 10 36  1  0
 12 37  1  0
 15 38  1  0
 16 39  1  0
 17 40  1  0
 18 41  1  0
 23 42  1  0
 23 43  1  0
 24 44  1  0
 24 45  1  0
 26 46  1  0
 26 47  1  0
 27 48  1  0
 27 49  1  0
M  CHG  1  13  -1
M  END
>  <UniqueID>  (75) 
69

>  <SMILES>  (75) 
O=C(CNCc1ccccc1O)[N-]c1ccccc1C(=O)N1CCOCC1

>  <Energy>  (75) 
61.68041677749038

>  <Genealogy>  (75) 
O=C(CNCc1ccccc1O)[N-]c1ccccc1C(=O)N1CCOCC1 (protonated)
O=C(CNCc1ccccc1O)[N-]c1ccccc1C(=O)N1CCOCC1 (3D coordinates assigned)
O=C(CNCc1ccccc1O)[N-]c1ccccc1C(=O)N1CCOCC1 (nonaromatic ring conformer: 61.68041677749038 kcal/mol)

>  <smiles>  (75) 
O=C(CNCc1ccccc1O)Nc1ccccc1C(=O)N1CCOCC1

>  <score_type>  (75) 
oracle

>  <origin>  (75) 
adg

>  <m_score__min__energy>  (75) 
-10.44

>  <m_primary>  (75) 
energy

$$$$
75:0
     RDKit          3D

 34 36  0  0  0  0  0  0  0  0999 V2000
   64.9360   33.4070   49.7620 C   0  0  0  0  0  0  0  0  0  0  0  0
   63.6930   33.4380   48.9240 C   0  0  0  0  0  0  0  0  0  0  0  0
   63.7510   33.1220   47.5590 C   0  0  0  0  0  0  0  0  0  0  0  0
   62.5870   33.1140   46.7850 C   0  0  0  0  0  0  0  0  0  0  0  0
   61.3410   33.4110   47.3670 C   0  0  0  0  0  0  0  0  0  0  0  0
   60.1150   33.3940   46.5380 C   0  0  0  0  0  0  0  0  0  0  0  0
   59.5070   32.2570   46.1380 N   0  0  0  0  0  0  0  0  0  0  0  0
   58.3760   32.4910   45.4170 C   0  0  0  0  0  0  0  0  0  0  0  0
   57.5520   31.3920   44.8760 C   0  0  0  0  0  0  0  0  0  0  0  0
   56.3190   31.5730   44.6960 O   0  0  0  0  0  0  0  0  0  0  0  0
   58.1290   30.1380   44.4810 N   0  0  0  0  0  0  0  0  0  0  0  0
   57.8530   28.8590   45.0670 C   0  0  0  0  0  0  0  0  0  0  0  0
   58.9240   28.0310   45.4280 C   0  0  0  0  0  0  0  0  0  0  0  0
   58.6850   26.7780   46.0000 C   0  0  0  0  0  0  0  0  0  0  0  0
   57.3730   26.3360   46.1980 C   0  0  0  0  0  0  0  0  0  0  0  0
   56.2980   27.1430   45.8130 C   0  0  0  0  0  0  0  0  0  0  0  0
   54.9950   26.7000   45.9980 O   0  0  0  0  0  0  0  0  0  0  0  0
   56.5360   28.3970   45.2390 C   0  0  0  0  0  0  0  0  0  0  0  0
   58.0800   33.8390   45.2180 C   0  0  0  0  0  0  0  0  0  0  0  0
   59.2680   34.7430   45.9900 S   0  0  0  0  0  0  0  0  0  0  0  0
   61.2840   33.7090   48.7400 C   0  0  0  0  0  0  0  0  0  0  0  0
   62.4500   33.7160   49.5120 C   0  0  0  0  0  0  0  0  0  0  0  0
   64.6605   33.4139   50.8269 H   0  0  0  0  0  0  0  0  0  0  0  0
   65.5073   32.4943   49.5369 H   0  0  0  0  0  0  0  0  0  0  0  0
   65.5521   34.2901   49.5369 H   0  0  0  0  0  0  0  0  0  0  0  0
   64.7181   32.8790   47.0946 H   0  0  0  0  0  0  0  0  0  0  0  0
   62.6456   32.8738   45.7132 H   0  0  0  0  0  0  0  0  0  0  0  0
   59.9575   28.3684   45.2606 H   0  0  0  0  0  0  0  0  0  0  0  0
   59.5302   26.1387   46.2948 H   0  0  0  0  0  0  0  0  0  0  0  0
   57.1868   25.3536   46.6566 H   0  0  0  0  0  0  0  0  0  0  0  0
   55.6896   29.0236   44.9212 H   0  0  0  0  0  0  0  0  0  0  0  0
   57.2228   34.2389   44.6565 H   0  0  0  0  0  0  0  0  0  0  0  0
   60.3161   33.9381   49.2098 H   0  0  0  0  0  0  0  0  0  0  0  0
   62.3922   33.9409   50.5872 H   0  0  0  0  0  0  0  0  0  0  0  0
  1  2  1  0
  2  3  2  0
  3  4  1  0
  4  5  2  0
  5  6  1  0
  6  7  2  0
  7  8  1  0
  8  9  1  0
  9 10  2  0
  9 11  1  0
 11 12  1  0
 12 13  2  0
 13 14  1  0
 14 15  2  0
 15 16  1  0
 16 17  1  0
 16 18  2  0
  8 19  2  0
 19 20  1  0
  5 21  1  0
 21 22  2  0
 22  2  1  0
 20  6  1  0
 18 12  1  0
  1 23  1  0
  1 24  1  0
  1 25  1  0
  3 26  1  0
  4 27  1  0
 13 28  1  0
 14 29  1  0
 15 30  1  0
 18 31  1  0
 19 32  1  0
 21 33  1  0
 22 34  1  0
M  CHG  2  11  -1  17  -1
M  END
>  <UniqueID>  (76) 
70

>  <SMILES>  (76) 
Cc1ccc(-c2nc(C(=O)[N-]c3cccc([O-])c3)cs2)cc1

>  <Energy>  (76) 
70.37126862058847

>  <Genealogy>  (76) 
Cc1ccc(-c2nc(C(=O)[N-]c3cccc([O-])c3)cs2)cc1 (protonated)
Cc1ccc(-c2nc(C(=O)[N-]c3cccc([O-])c3)cs2)cc1 (3D coordinates assigned)
Cc1ccc(-c2nc(C(=O)[N-]c3cccc([O-])c3)cs2)cc1 (optimized conformer: 70.37126862058847 kcal/mol)

>  <smiles>  (76) 
Cc1ccc(-c2nc(C(=O)Nc3cccc(O)c3)cs2)cc1

>  <score_type>  (76) 
oracle

>  <origin>  (76) 
adg

>  <m_score__min__energy>  (76) 
-12.960000000000001

>  <m_primary>  (76) 
energy

$$$$
76:0
     RDKit          3D

 65 68  0  0  0  0  0  0  0  0999 V2000
   58.6102   25.9659   44.7757 H   0  0  0  0  0  0  0  0  0  0  0  0
   58.0530   26.9050   44.6430 C   0  0  0  0  0  0  0  0  0  0  0  0
   57.7960   27.7080   43.1850 S   0  0  0  0  0  0  0  0  0  0  0  0
   56.9130   28.9540   43.9050 C   0  0  0  0  0  0  0  0  0  0  0  0
   56.4150   29.9990   43.3070 N   0  0  0  0  0  0  0  0  0  0  0  0
   57.0700   31.2540   43.0580 C   0  0  0  0  0  0  0  0  0  0  0  0
   57.1140   31.7330   41.8900 O   0  0  0  0  0  0  0  0  0  0  0  0
   57.6740   32.0050   44.1840 C   0  0  0  0  0  0  0  0  0  0  0  0
   57.4320   33.3830   44.3360 C   0  0  0  0  0  0  0  0  0  0  0  0
   56.7444   33.8965   43.6478 H   0  0  0  0  0  0  0  0  0  0  0  0
   58.0600   34.1030   45.3560 C   0  0  0  0  0  0  0  0  0  0  0  0
   57.8608   35.1791   45.4669 H   0  0  0  0  0  0  0  0  0  0  0  0
   58.9420   33.4640   46.2390 C   0  0  0  0  0  0  0  0  0  0  0  0
   59.6370   34.2490   47.2850 C   0  0  0  0  0  0  0  0  0  0  0  0
   59.1340   35.3500   47.6460 O   0  0  0  0  0  0  0  0  0  0  0  0
   60.8950   33.8150   47.8520 N   0  0  0  0  0  0  0  0  0  0  0  0
   61.3980   34.5000   49.0560 C   0  0  0  0  0  0  0  0  0  0  0  0
   61.9198   35.4179   48.7475 H   0  0  0  0  0  0  0  0  0  0  0  0
   60.5340   34.7227   49.6993 H   0  0  0  0  0  0  0  0  0  0  0  0
   62.3770   33.6230   49.8710 C   0  0  0  0  0  0  0  0  0  0  0  0
   63.1872   34.2647   50.2475 H   0  0  0  0  0  0  0  0  0  0  0  0
   61.7958   33.1615   50.6829 H   0  0  0  0  0  0  0  0  0  0  0  0
   62.9800   32.5190   49.0880 N   0  0  0  0  0  0  0  0  0  0  0  0
   64.2430   32.0750   49.6990 C   0  0  0  0  0  0  0  0  0  0  0  0
   64.1515   32.1072   50.7947 H   0  0  0  0  0  0  0  0  0  0  0  0
   64.4629   31.0457   49.3795 H   0  0  0  0  0  0  0  0  0  0  0  0
   65.0587   32.7403   49.3795 H   0  0  0  0  0  0  0  0  0  0  0  0
   63.1990   32.9120   47.6890 C   0  0  0  0  0  0  0  0  0  0  0  0
   63.7365   33.8710   47.6524 H   0  0  0  0  0  0  0  0  0  0  0  0
   63.7999   32.1493   47.1720 H   0  0  0  0  0  0  0  0  0  0  0  0
   61.8390   33.0570   47.0100 C   0  0  0  0  0  0  0  0  0  0  0  0
   61.9706   33.5860   46.0546 H   0  0  0  0  0  0  0  0  0  0  0  0
   61.4253   32.0511   46.8456 H   0  0  0  0  0  0  0  0  0  0  0  0
   59.1480   32.0840   46.1200 C   0  0  0  0  0  0  0  0  0  0  0  0
   59.7954   31.5639   46.8414 H   0  0  0  0  0  0  0  0  0  0  0  0
   58.5360   31.3630   45.0900 C   0  0  0  0  0  0  0  0  0  0  0  0
   58.7306   30.2852   44.9879 H   0  0  0  0  0  0  0  0  0  0  0  0
   56.8120   28.7810   45.2380 N   0  0  0  0  0  0  0  0  0  0  0  0
   57.4340   27.6420   45.6520 C   0  0  0  0  0  0  0  0  0  0  0  0
   57.4650   27.2450   47.1000 C   0  0  0  0  0  0  0  0  0  0  0  0
   57.1250   26.2032   47.1947 H   0  0  0  0  0  0  0  0  0  0  0  0
   56.8025   27.9193   47.6624 H   0  0  0  0  0  0  0  0  0  0  0  0
   58.8620   27.3620   47.6640 C   0  0  0  0  0  0  0  0  0  0  0  0
   59.5480   26.3090   47.7850 O   0  0  0  0  0  0  0  0  0  0  0  0
   59.4170   28.6240   48.1170 N   0  0  0  0  0  0  0  0  0  0  0  0
   60.8300   28.6360   48.5060 C   0  0  0  0  0  0  0  0  0  0  0  0
   61.4158   28.1229   47.7291 H   0  0  0  0  0  0  0  0  0  0  0  0
   60.9178   28.1249   49.4761 H   0  0  0  0  0  0  0  0  0  0  0  0
   61.3680   30.0500   48.6720 C   0  0  0  0  0  0  0  0  0  0  0  0
   61.4297   30.5255   47.6820 H   0  0  0  0  0  0  0  0  0  0  0  0
   62.3600   29.9843   49.1429 H   0  0  0  0  0  0  0  0  0  0  0  0
   60.5070   30.8650   49.5370 N   0  0  0  0  0  0  0  0  0  0  0  0
   60.9320   31.8260   49.5250 H   0  0  0  0  0  0  0  0  0  0  0  0
   60.5450   30.4380   50.9330 C   0  0  0  0  0  0  0  0  0  0  0  0
   59.5170   30.0280   51.4540 O   0  0  0  0  0  0  0  0  0  0  0  0
   61.7800   30.5070   51.7950 C   0  0  0  0  0  0  0  0  0  0  0  0
   61.4883   30.4907   52.8555 H   0  0  0  0  0  0  0  0  0  0  0  0
   62.4265   29.6436   51.5792 H   0  0  0  0  0  0  0  0  0  0  0  0
   62.3263   31.4371   51.5792 H   0  0  0  0  0  0  0  0  0  0  0  0
   59.1480   31.0340   48.9790 C   0  0  0  0  0  0  0  0  0  0  0  0
   59.1911   31.8374   48.2289 H   0  0  0  0  0  0  0  0  0  0  0  0
   58.5016   31.2528   49.8417 H   0  0  0  0  0  0  0  0  0  0  0  0
   58.5240   29.7860   48.3000 C   0  0  0  0  0  0  0  0  0  0  0  0
   58.1629   30.0906   47.3066 H   0  0  0  0  0  0  0  0  0  0  0  0
   57.7348   29.4436   48.9855 H   0  0  0  0  0  0  0  0  0  0  0  0
  1  2  1  0
  2  3  1  0
  3  4  1  0
  4  5  2  0
  5  6  1  0
  6  7  2  0
  6  8  1  0
  8  9  2  0
  9 10  1  0
  9 11  1  0
 11 12  1  0
 11 13  2  0
 13 14  1  0
 14 15  2  0
 14 16  1  0
 16 17  1  0
 17 18  1  0
 17 19  1  0
 17 20  1  0
 20 21  1  0
 20 22  1  0
 20 23  1  0
 23 24  1  0
 24 25  1  0
 24 26  1  0
 24 27  1  0
 23 28  1  0
 28 29  1  0
 28 30  1  0
 28 31  1  0
 31 32  1  0
 31 33  1  0
 13 34  1  0
 34 35  1  0
 34 36  2  0
 36 37  1  0
  4 38  1  0
 38 39  1  0
 39 40  1  0
 40 41  1  0
 40 42  1  0
 40 43  1  0
 43 44  2  0
 43 45  1  0
 45 46  1  0
 46 47  1  0
 46 48  1  0
 46 49  1  0
 49 50  1  0
 49 51  1  0
 49 52  1  0
 52 53  1  0
 52 54  1  0
 54 55  2  0
 54 56  1  0
 56 57  1  0
 56 58  1  0
 56 59  1  0
 52 60  1  0
 60 61  1  0
 60 62  1  0
 60 63  1  0
 63 64  1  0
 63 65  1  0
 39  2  2  0
 63 45  1  0
 36  8  1  0
 31 16  1  0
M  CHG  2  38  -1  52   1
M  END
>  <UniqueID>  (77) 
71

>  <SMILES>  (77) 
CC(=O)[NH+]1CCN(C(=O)Cc2cs/c(=N\C(=O)c3ccc(C(=O)N4CCN(C)CC4)cc3)[n-]2)CC1

>  <Energy>  (77) 
123.85586337850086

>  <Genealogy>  (77) 
CC(=O)[NH+]1CCN(C(=O)Cc2csc(=NC(=O)c3ccc(C(=O)N4CCN(C)CC4)cc3)[n-]2)CC1 (protonated)
CC(=O)[NH+]1CCN(C(=O)Cc2cs/c(=N\C(=O)c3ccc(C(=O)N4CCN(C)CC4)cc3)[n-]2)CC1 (cis-trans isomerization)
CC(=O)[NH+]1CCN(C(=O)Cc2cs/c(=N\C(=O)c3ccc(C(=O)N4CCN(C)CC4)cc3)[n-]2)CC1 (3D coordinates assigned)
CC(=O)[NH+]1CCN(C(=O)Cc2cs/c(=N\C(=O)c3ccc(C(=O)N4CCN(C)CC4)cc3)[n-]2)CC1 (nonaromatic ring conformer: 123.85586337850086 kcal/mol)

>  <smiles>  (77) 
CC(=O)N1CCN(C(=O)Cc2csc(=NC(=O)c3ccc(C(=O)N4CCN(C)CC4)cc3)[nH]2)CC1

>  <score_type>  (77) 
oracle

>  <origin>  (77) 
adg

>  <m_score__min__energy>  (77) 
-10.91

>  <m_primary>  (77) 
energy

$$$$
77:0
     RDKit          3D

 38 40  0  0  0  0  0  0  0  0999 V2000
   55.1470   28.1570   45.3960 H   0  0  0  0  0  0  0  0  0  0  0  0
   55.1490   28.9860   44.8120 O   0  0  0  0  0  0  0  0  0  0  0  0
   56.2910   29.7700   44.6960 C   0  0  0  0  0  0  0  0  0  0  0  0
   56.2230   31.1170   44.5360 N   0  0  0  0  0  0  0  0  0  0  0  0
   57.4580   31.6570   44.4110 C   0  0  0  0  0  0  0  0  0  0  0  0
   57.6770   32.9210   44.2060 N   0  0  0  0  0  0  0  0  0  0  0  0
   58.8620   33.6330   44.6820 C   0  0  0  0  0  0  0  0  0  0  0  0
   59.7489   33.2606   44.1485 H   0  0  0  0  0  0  0  0  0  0  0  0
   58.7356   34.7092   44.4925 H   0  0  0  0  0  0  0  0  0  0  0  0
   59.0410   33.4100   46.1650 C   0  0  0  0  0  0  0  0  0  0  0  0
   57.9660   32.9420   46.9420 C   0  0  0  0  0  0  0  0  0  0  0  0
   57.0051   32.7055   46.4617 H   0  0  0  0  0  0  0  0  0  0  0  0
   58.1140   32.7760   48.3240 C   0  0  0  0  0  0  0  0  0  0  0  0
   57.2711   32.4045   48.9253 H   0  0  0  0  0  0  0  0  0  0  0  0
   59.3300   33.0810   48.9420 C   0  0  0  0  0  0  0  0  0  0  0  0
   59.4419   32.9541   50.0289 H   0  0  0  0  0  0  0  0  0  0  0  0
   60.4030   33.5470   48.1790 C   0  0  0  0  0  0  0  0  0  0  0  0
   61.3611   33.7806   48.6663 H   0  0  0  0  0  0  0  0  0  0  0  0
   60.2640   33.7180   46.7960 C   0  0  0  0  0  0  0  0  0  0  0  0
   61.3420   34.1950   46.0570 O   0  0  0  0  0  0  0  0  0  0  0  0
   58.6730   30.5010   44.4890 S   0  0  0  0  0  0  0  0  0  0  0  0
   57.5780   29.2390   44.7100 C   0  0  0  0  0  0  0  0  0  0  0  0
   57.9260   27.7840   44.6760 C   0  0  0  0  0  0  0  0  0  0  0  0
   58.9923   27.6663   44.4329 H   0  0  0  0  0  0  0  0  0  0  0  0
   57.3207   27.2769   43.9102 H   0  0  0  0  0  0  0  0  0  0  0  0
   57.6490   27.1810   46.0160 C   0  0  0  0  0  0  0  0  0  0  0  0
   57.4990   27.9220   47.0240 O   0  0  0  0  0  0  0  0  0  0  0  0
   57.5650   25.7580   46.1500 N   0  0  0  0  0  0  0  0  0  0  0  0
   56.5910   24.9720   45.7750 C   0  0  0  0  0  0  0  0  0  0  0  0
   56.9100   23.7020   45.4040 N   0  0  0  0  0  0  0  0  0  0  0  0
   55.9810   22.8070   44.9800 C   0  0  0  0  0  0  0  0  0  0  0  0
   56.2883   21.7903   44.6938 H   0  0  0  0  0  0  0  0  0  0  0  0
   54.6410   23.1740   44.9070 C   0  0  0  0  0  0  0  0  0  0  0  0
   53.8839   22.4509   44.5695 H   0  0  0  0  0  0  0  0  0  0  0  0
   54.2690   24.4670   45.2660 C   0  0  0  0  0  0  0  0  0  0  0  0
   53.2127   24.7689   45.2104 H   0  0  0  0  0  0  0  0  0  0  0  0
   55.2340   25.3830   45.6970 C   0  0  0  0  0  0  0  0  0  0  0  0
   54.8250   26.6730   46.0070 O   0  0  0  0  0  0  0  0  0  0  0  0
  1  2  1  0
  2  3  1  0
  3  4  1  0
  4  5  1  0
  5  6  2  3
  6  7  1  0
  7  8  1  0
  7  9  1  0
  7 10  1  0
 10 11  2  0
 11 12  1  0
 11 13  1  0
 13 14  1  0
 13 15  2  0
 15 16  1  0
 15 17  1  0
 17 18  1  0
 17 19  2  0
 19 20  1  0
  5 21  1  0
 21 22  1  0
 22 23  1  0
 23 24  1  0
 23 25  1  0
 23 26  1  0
 26 27  2  0
 26 28  1  0
 28 29  2  0
 29 30  1  0
 30 31  1  0
 31 32  1  0
 31 33  2  0
 33 34  1  0
 33 35  1  0
 35 36  1  0
 35 37  2  0
 37 38  1  0
 22  3  2  0
 37 29  1  0
 19 10  1  0
M  CHG  4   4  -1  20  -1  30  -1  38  -1
M  END
>  <UniqueID>  (78) 
72

>  <SMILES>  (78) 
O=C(Cc1sc(=NCc2ccccc2[O-])[n-]c1O)/N=c1/[n-]cccc1[O-]

>  <Energy>  (78) 
78.66197430068895

>  <Genealogy>  (78) 
O=C(Cc1sc(=NCc2ccccc2[O-])[n-]c1O)N=c1[n-]cccc1[O-] (protonated)
O=C(Cc1sc(=NCc2ccccc2[O-])[n-]c1O)/N=c1/[n-]cccc1[O-] (cis-trans isomerization)
O=C(Cc1sc(=NCc2ccccc2[O-])[n-]c1O)/N=c1/[n-]cccc1[O-] (3D coordinates assigned)
O=C(Cc1sc(=NCc2ccccc2[O-])[n-]c1O)/N=c1/[n-]cccc1[O-] (optimized conformer: 78.66197430068895 kcal/mol)

>  <smiles>  (78) 
O=C(Cc1sc(=NCc2ccccc2O)[nH]c1O)N=c1[nH]cccc1O

>  <score_type>  (78) 
oracle

>  <origin>  (78) 
adg

>  <m_score__min__energy>  (78) 
-16.649999999999999

>  <m_primary>  (78) 
energy

$$$$
78:0
     RDKit          3D

 51 54  0  0  0  0  0  0  0  0999 V2000
   54.3150   27.7783   54.5179 H   0  0  0  0  0  0  0  0  0  0  0  0
   53.9090   28.7040   54.0840 C   0  0  0  0  0  0  0  0  0  0  0  0
   52.9010   29.0457   54.3619 H   0  0  0  0  0  0  0  0  0  0  0  0
   54.6440   29.4170   53.2150 C   0  0  0  0  0  0  0  0  0  0  0  0
   54.2700   30.6110   52.5790 C   0  0  0  0  0  0  0  0  0  0  0  0
   53.0740   31.2230   52.4730 C   0  0  0  0  0  0  0  0  0  0  0  0
   52.7233   31.7945   53.3450 H   0  0  0  0  0  0  0  0  0  0  0  0
   52.1950   31.1930   51.2900 C   0  0  0  0  0  0  0  0  0  0  0  0
   52.2630   30.2760   50.3070 N   0  0  0  0  0  0  0  0  0  0  0  0
   51.3920   30.7410   49.3850 C   0  0  0  0  0  0  0  0  0  0  0  0
   51.1590   30.1380   48.3050 O   0  0  0  0  0  0  0  0  0  0  0  0
   50.7960   31.9100   49.7080 N   0  0  0  0  0  0  0  0  0  0  0  0
   51.3260   32.1870   50.9100 C   0  0  0  0  0  0  0  0  0  0  0  0
   51.0240   33.3270   51.6460 O   0  0  0  0  0  0  0  0  0  0  0  0
   55.4230   31.1200   52.0050 C   0  0  0  0  0  0  0  0  0  0  0  0
   55.5204   32.0757   51.4692 H   0  0  0  0  0  0  0  0  0  0  0  0
   56.4270   30.2000   52.2330 C   0  0  0  0  0  0  0  0  0  0  0  0
   57.8550   30.3910   51.7870 C   0  0  0  0  0  0  0  0  0  0  0  0
   58.4807   30.5721   52.6734 H   0  0  0  0  0  0  0  0  0  0  0  0
   58.1646   29.4798   51.2543 H   0  0  0  0  0  0  0  0  0  0  0  0
   58.0110   31.5540   50.8380 C   0  0  0  0  0  0  0  0  0  0  0  0
   57.7070   32.7180   51.2260 O   0  0  0  0  0  0  0  0  0  0  0  0
   58.5090   31.3650   49.4970 N   0  0  0  0  0  0  0  0  0  0  0  0
   58.2050   32.3870   48.4790 C   0  0  0  0  0  0  0  0  0  0  0  0
   57.1139   32.5089   48.4117 H   0  0  0  0  0  0  0  0  0  0  0  0
   58.6900   33.3265   48.7824 H   0  0  0  0  0  0  0  0  0  0  0  0
   58.7470   31.9950   47.0980 C   0  0  0  0  0  0  0  0  0  0  0  0
   58.2622   32.6109   46.3262 H   0  0  0  0  0  0  0  0  0  0  0  0
   59.8342   32.1603   47.0721 H   0  0  0  0  0  0  0  0  0  0  0  0
   58.4630   30.5760   46.8410 N   0  0  0  0  0  0  0  0  0  0  0  0
   57.8890   30.1330   45.5940 C   0  0  0  0  0  0  0  0  0  0  0  0
   56.9650   30.9140   44.9660 N   0  0  0  0  0  0  0  0  0  0  0  0
   56.4120   30.5610   43.7740 C   0  0  0  0  0  0  0  0  0  0  0  0
   55.6629   31.2133   43.3014 H   0  0  0  0  0  0  0  0  0  0  0  0
   56.7940   29.3720   43.1500 C   0  0  0  0  0  0  0  0  0  0  0  0
   56.3489   29.0807   42.1872 H   0  0  0  0  0  0  0  0  0  0  0  0
   57.7480   28.5570   43.7630 C   0  0  0  0  0  0  0  0  0  0  0  0
   58.0624   27.6195   43.2810 H   0  0  0  0  0  0  0  0  0  0  0  0
   58.3030   28.9330   44.9890 C   0  0  0  0  0  0  0  0  0  0  0  0
   59.0564   28.2965   45.4761 H   0  0  0  0  0  0  0  0  0  0  0  0
   58.8330   29.5680   47.8480 C   0  0  0  0  0  0  0  0  0  0  0  0
   57.9461   28.9648   48.0921 H   0  0  0  0  0  0  0  0  0  0  0  0
   59.6320   28.9390   47.4284 H   0  0  0  0  0  0  0  0  0  0  0  0
   59.3600   30.2210   49.1320 C   0  0  0  0  0  0  0  0  0  0  0  0
   59.3489   29.4831   49.9477 H   0  0  0  0  0  0  0  0  0  0  0  0
   60.3884   30.5733   48.9638 H   0  0  0  0  0  0  0  0  0  0  0  0
   55.9540   29.1580   52.9590 N   0  0  0  0  0  0  0  0  0  0  0  0
   56.7400   28.0420   53.4980 C   0  0  0  0  0  0  0  0  0  0  0  0
   56.7171   28.0746   54.5973 H   0  0  0  0  0  0  0  0  0  0  0  0
   56.3117   27.0903   53.1504 H   0  0  0  0  0  0  0  0  0  0  0  0
   57.7803   28.1246   53.1504 H   0  0  0  0  0  0  0  0  0  0  0  0
  1  2  1  0
  2  3  1  0
  2  4  2  0
  4  5  1  0
  5  6  2  0
  6  7  1  0
  6  8  1  0
  8  9  1  0
  9 10  1  0
 10 11  2  0
 10 12  1  0
 12 13  1  0
 13 14  1  0
  5 15  1  0
 15 16  1  0
 15 17  2  0
 17 18  1  0
 18 19  1  0
 18 20  1  0
 18 21  1  0
 21 22  2  0
 21 23  1  0
 23 24  1  0
 24 25  1  0
 24 26  1  0
 24 27  1  0
 27 28  1  0
 27 29  1  0
 27 30  1  0
 30 31  1  0
 31 32  2  0
 32 33  1  0
 33 34  1  0
 33 35  2  0
 35 36  1  0
 35 37  1  0
 37 38  1  0
 37 39  2  0
 39 40  1  0
 30 41  1  0
 41 42  1  0
 41 43  1  0
 41 44  1  0
 44 45  1  0
 44 46  1  0
 17 47  1  0
 47 48  1  0
 48 49  1  0
 48 50  1  0
 48 51  1  0
 47  4  1  0
 13  8  2  0
 44 23  1  0
 39 31  1  0
M  CHG  3   9  -1  12  -1  14  -1
M  END
>  <UniqueID>  (79) 
73

>  <SMILES>  (79) 
C=c1/c(=C\c2[n-]c(=O)[n-]c2[O-])cc(CC(=O)N2CCN(c3ccccn3)CC2)n1C

>  <Energy>  (79) 
129.21606404924503

>  <Genealogy>  (79) 
C=c1c(=Cc2[n-]c(=O)[n-]c2[O-])cc(CC(=O)N2CCN(c3ccccn3)CC2)n1C (protonated)
C=c1/c(=C\c2[n-]c(=O)[n-]c2[O-])cc(CC(=O)N2CCN(c3ccccn3)CC2)n1C (cis-trans isomerization)
C=c1/c(=C\c2[n-]c(=O)[n-]c2[O-])cc(CC(=O)N2CCN(c3ccccn3)CC2)n1C (3D coordinates assigned)
C=c1/c(=C\c2[n-]c(=O)[n-]c2[O-])cc(CC(=O)N2CCN(c3ccccn3)CC2)n1C (nonaromatic ring conformer: 129.21606404924503 kcal/mol)

>  <smiles>  (79) 
C=c1c(=Cc2[nH]c(=O)[nH]c2O)cc(CC(=O)N2CCN(c3ccccn3)CC2)n1C

>  <score_type>  (79) 
oracle

>  <origin>  (79) 
adg

>  <m_score__min__energy>  (79) 
-18.620000000000001

>  <m_primary>  (79) 
energy

$$$$
79:0
     RDKit          3D

 46 49  0  0  0  0  0  0  0  0999 V2000
   58.6018   30.9215   42.4483 H   0  0  0  0  0  0  0  0  0  0  0  0
   58.0110   31.3010   43.2950 C   0  0  0  0  0  0  0  0  0  0  0  0
   57.5120   30.3460   44.3010 C   0  0  0  0  0  0  0  0  0  0  0  0
   56.4050   30.5750   44.8570 O   0  0  0  0  0  0  0  0  0  0  0  0
   58.2710   29.1850   44.6830 N   0  0  0  0  0  0  0  0  0  0  0  0
   57.5950   27.9040   44.9030 C   0  0  0  0  0  0  0  0  0  0  0  0
   56.5151   28.0205   44.7294 H   0  0  0  0  0  0  0  0  0  0  0  0
   57.9886   27.1477   44.2080 H   0  0  0  0  0  0  0  0  0  0  0  0
   57.8400   27.4630   46.3480 C   0  0  0  0  0  0  0  0  0  0  0  0
   57.3517   28.1832   47.0209 H   0  0  0  0  0  0  0  0  0  0  0  0
   57.4249   26.4500   46.4554 H   0  0  0  0  0  0  0  0  0  0  0  0
   59.2850   27.3890   46.7020 N   0  0  0  0  0  0  0  0  0  0  0  0
   59.5220   27.8630   48.0820 C   0  0  0  0  0  0  0  0  0  0  0  0
   58.6097   27.7109   48.6774 H   0  0  0  0  0  0  0  0  0  0  0  0
   60.3588   27.2931   48.5121 H   0  0  0  0  0  0  0  0  0  0  0  0
   59.8770   29.3180   48.0900 C   0  0  0  0  0  0  0  0  0  0  0  0
   58.9360   30.2460   48.4110 N   0  0  0  0  0  0  0  0  0  0  0  0
   59.2290   31.5720   48.4390 C   0  0  0  0  0  0  0  0  0  0  0  0
   58.3240   32.3980   48.7380 O   0  0  0  0  0  0  0  0  0  0  0  0
   60.5320   32.0040   48.1360 C   0  0  0  0  0  0  0  0  0  0  0  0
   60.9010   33.3620   48.1470 C   0  0  0  0  0  0  0  0  0  0  0  0
   60.1573   34.1325   48.3984 H   0  0  0  0  0  0  0  0  0  0  0  0
   62.2140   33.7310   47.8380 C   0  0  0  0  0  0  0  0  0  0  0  0
   62.5009   34.7929   47.8458 H   0  0  0  0  0  0  0  0  0  0  0  0
   63.1640   32.7550   47.5190 C   0  0  0  0  0  0  0  0  0  0  0  0
   64.1960   33.0514   47.2801 H   0  0  0  0  0  0  0  0  0  0  0  0
   62.8050   31.4030   47.5030 C   0  0  0  0  0  0  0  0  0  0  0  0
   63.5538   30.6380   47.2498 H   0  0  0  0  0  0  0  0  0  0  0  0
   61.4940   31.0240   47.8090 C   0  0  0  0  0  0  0  0  0  0  0  0
   61.1440   29.7110   47.7940 N   0  0  0  0  0  0  0  0  0  0  0  0
   60.2010   28.0270   45.7210 C   0  0  0  0  0  0  0  0  0  0  0  0
   61.1612   28.2303   46.2176 H   0  0  0  0  0  0  0  0  0  0  0  0
   60.3171   27.3321   44.8763 H   0  0  0  0  0  0  0  0  0  0  0  0
   59.6490   29.3470   45.1610 C   0  0  0  0  0  0  0  0  0  0  0  0
   59.6665   30.1087   45.9544 H   0  0  0  0  0  0  0  0  0  0  0  0
   60.2780   29.6561   44.3132 H   0  0  0  0  0  0  0  0  0  0  0  0
   57.7690   32.6130   43.3780 C   0  0  0  0  0  0  0  0  0  0  0  0
   57.2562   33.1104   42.5416 H   0  0  0  0  0  0  0  0  0  0  0  0
   58.1630   33.4180   44.5470 C   0  0  0  0  0  0  0  0  0  0  0  0
   57.3870   33.4810   46.0430 S   0  0  0  0  0  0  0  0  0  0  0  0
   58.4370   34.5870   46.7520 C   0  0  0  0  0  0  0  0  0  0  0  0
   58.3655   34.9783   47.7776 H   0  0  0  0  0  0  0  0  0  0  0  0
   59.4100   34.9210   45.8190 C   0  0  0  0  0  0  0  0  0  0  0  0
   60.2223   35.6332   46.0263 H   0  0  0  0  0  0  0  0  0  0  0  0
   59.2610   34.2670   44.5900 C   0  0  0  0  0  0  0  0  0  0  0  0
   59.9464   34.4115   43.7418 H   0  0  0  0  0  0  0  0  0  0  0  0
  1  2  1  0
  2  3  1  0
  3  4  2  0
  3  5  1  0
  5  6  1  0
  6  7  1  0
  6  8  1  0
  6  9  1  0
  9 10  1  0
  9 11  1  0
  9 12  1  0
 12 13  1  0
 13 14  1  0
 13 15  1  0
 13 16  1  0
 16 17  2  0
 17 18  1  0
 18 19  2  0
 18 20  1  0
 20 21  2  0
 21 22  1  0
 21 23  1  0
 23 24  1  0
 23 25  2  0
 25 26  1  0
 25 27  1  0
 27 28  1  0
 27 29  2  0
 29 30  1  0
 12 31  1  0
 31 32  1  0
 31 33  1  0
 31 34  1  0
 34 35  1  0
 34 36  1  0
  2 37  2  0
 37 38  1  0
 37 39  1  0
 39 40  1  0
 40 41  1  0
 41 42  1  0
 41 43  2  0
 43 44  1  0
 43 45  1  0
 45 46  1  0
 34  5  1  0
 45 39  2  0
 30 16  1  0
 29 20  1  0
M  CHG  1  30  -1
M  END
>  <UniqueID>  (80) 
74

>  <SMILES>  (80) 
O=C(/C=C/c1cccs1)N1CCN(Cc2nc(=O)c3ccccc3[n-]2)CC1

>  <Energy>  (80) 
91.2703065292486

>  <Genealogy>  (80) 
O=C(C=Cc1cccs1)N1CCN(Cc2nc(=O)c3ccccc3[n-]2)CC1 (protonated)
O=C(/C=C/c1cccs1)N1CCN(Cc2nc(=O)c3ccccc3[n-]2)CC1 (cis-trans isomerization)
O=C(/C=C/c1cccs1)N1CCN(Cc2nc(=O)c3ccccc3[n-]2)CC1 (3D coordinates assigned)
O=C(/C=C/c1cccs1)N1CCN(Cc2nc(=O)c3ccccc3[n-]2)CC1 (nonaromatic ring conformer: 91.2703065292486 kcal/mol)

>  <smiles>  (80) 
O=C(C=Cc1cccs1)N1CCN(Cc2nc(=O)c3ccccc3[nH]2)CC1

>  <score_type>  (80) 
oracle

>  <origin>  (80) 
adg

>  <m_score__min__energy>  (80) 
-10.75

>  <m_primary>  (80) 
energy

$$$$
80:0
     RDKit          3D

 55 58  0  0  0  0  0  0  0  0999 V2000
   56.1397   31.9695   44.6546 H   0  0  0  0  0  0  0  0  0  0  0  0
   55.9060   30.9120   44.4620 C   0  0  0  0  0  0  0  0  0  0  0  0
   54.9177   30.6297   44.0701 H   0  0  0  0  0  0  0  0  0  0  0  0
   56.8220   29.9710   44.7040 C   0  0  0  0  0  0  0  0  0  0  0  0
   58.1130   30.1770   45.1680 C   0  0  0  0  0  0  0  0  0  0  0  0
   58.7260   31.4700   45.5410 C   0  0  0  0  0  0  0  0  0  0  0  0
   58.8890   32.3440   44.6460 O   0  0  0  0  0  0  0  0  0  0  0  0
   59.1290   31.7520   46.8950 N   0  0  0  0  0  0  0  0  0  0  0  0
   59.1850   33.1440   47.3530 C   0  0  0  0  0  0  0  0  0  0  0  0
   59.8596   33.7139   46.6972 H   0  0  0  0  0  0  0  0  0  0  0  0
   58.1718   33.5709   47.3181 H   0  0  0  0  0  0  0  0  0  0  0  0
   59.7030   33.2150   48.7930 C   0  0  0  0  0  0  0  0  0  0  0  0
   59.9016   34.2657   49.0512 H   0  0  0  0  0  0  0  0  0  0  0  0
   58.9382   32.7891   49.4590 H   0  0  0  0  0  0  0  0  0  0  0  0
   60.9530   32.4330   48.9540 N   0  0  0  0  0  0  0  0  0  0  0  0
   62.1670   33.0060   48.2890 C   0  0  0  0  0  0  0  0  0  0  0  0
   61.8287   33.2724   47.2768 H   0  0  0  0  0  0  0  0  0  0  0  0
   62.7280   34.2810   48.9640 C   0  0  0  0  0  0  0  0  0  0  0  0
   63.5534   34.6755   48.3532 H   0  0  0  0  0  0  0  0  0  0  0  0
   61.9143   35.0169   49.0433 H   0  0  0  0  0  0  0  0  0  0  0  0
   63.2540   33.9820   50.3880 C   0  0  0  0  0  0  0  0  0  0  0  0
   64.2305   34.4731   50.5119 H   0  0  0  0  0  0  0  0  0  0  0  0
   62.5101   34.3648   51.1022 H   0  0  0  0  0  0  0  0  0  0  0  0
   63.4100   32.5950   50.6380 O   0  0  0  0  0  0  0  0  0  0  0  0
   64.1400   31.9910   49.5890 C   0  0  0  0  0  0  0  0  0  0  0  0
   65.0641   32.5630   49.4190 H   0  0  0  0  0  0  0  0  0  0  0  0
   64.3731   30.9554   49.8775 H   0  0  0  0  0  0  0  0  0  0  0  0
   63.3180   31.9620   48.2830 C   0  0  0  0  0  0  0  0  0  0  0  0
   63.9881   32.1787   47.4380 H   0  0  0  0  0  0  0  0  0  0  0  0
   62.8666   30.9631   48.1908 H   0  0  0  0  0  0  0  0  0  0  0  0
   60.7550   30.9920   48.5990 C   0  0  0  0  0  0  0  0  0  0  0  0
   61.5976   30.6785   47.9651 H   0  0  0  0  0  0  0  0  0  0  0  0
   60.6973   30.4470   49.5528 H   0  0  0  0  0  0  0  0  0  0  0  0
   59.4470   30.6770   47.8450 C   0  0  0  0  0  0  0  0  0  0  0  0
   59.5646   29.7314   47.2955 H   0  0  0  0  0  0  0  0  0  0  0  0
   58.6276   30.5925   48.5740 H   0  0  0  0  0  0  0  0  0  0  0  0
   58.7050   28.9190   45.2570 C   0  0  0  0  0  0  0  0  0  0  0  0
   60.0530   28.6310   45.8600 C   0  0  0  0  0  0  0  0  0  0  0  0
   59.9750   28.6477   46.9571 H   0  0  0  0  0  0  0  0  0  0  0  0
   60.3971   27.6391   45.5319 H   0  0  0  0  0  0  0  0  0  0  0  0
   60.7724   29.3957   45.5319 H   0  0  0  0  0  0  0  0  0  0  0  0
   57.7440   28.0050   44.8060 C   0  0  0  0  0  0  0  0  0  0  0  0
   57.8440   26.6680   44.6890 C   0  0  0  0  0  0  0  0  0  0  0  0
   58.3341   26.2710   43.7878 H   0  0  0  0  0  0  0  0  0  0  0  0
   57.3450   25.6950   45.6800 C   0  0  0  0  0  0  0  0  0  0  0  0
   56.0260   25.7580   46.1530 C   0  0  0  0  0  0  0  0  0  0  0  0
   55.1440   26.7190   45.6710 O   0  0  0  0  0  0  0  0  0  0  0  0
   55.6010   24.8740   47.0930 N   0  0  0  0  0  0  0  0  0  0  0  0
   56.4400   23.9330   47.6000 C   0  0  0  0  0  0  0  0  0  0  0  0
   56.0230   23.1220   48.4660 O   0  0  0  0  0  0  0  0  0  0  0  0
   57.7280   23.8710   47.1750 N   0  0  0  0  0  0  0  0  0  0  0  0
   58.2010   24.7330   46.2370 C   0  0  0  0  0  0  0  0  0  0  0  0
   59.4030   24.6520   45.8710 O   0  0  0  0  0  0  0  0  0  0  0  0
   56.6050   28.6600   44.4920 N   0  0  0  0  0  0  0  0  0  0  0  0
   55.7220   28.2310   44.1330 H   0  0  0  0  0  0  0  0  0  0  0  0
  1  2  1  0
  2  3  1  0
  2  4  2  0
  4  5  1  0
  5  6  1  0
  6  7  2  0
  6  8  1  0
  8  9  1  0
  9 10  1  0
  9 11  1  0
  9 12  1  0
 12 13  1  0
 12 14  1  0
 12 15  1  0
 15 16  1  0
 16 17  1  0
 16 18  1  0
 18 19  1  0
 18 20  1  0
 18 21  1  0
 21 22  1  0
 21 23  1  0
 21 24  1  0
 24 25  1  0
 25 26  1  0
 25 27  1  0
 25 28  1  0
 28 29  1  0
 28 30  1  0
 15 31  1  0
 31 32  1  0
 31 33  1  0
 31 34  1  0
 34 35  1  0
 34 36  1  0
  5 37  2  0
 37 38  1  0
 38 39  1  0
 38 40  1  0
 38 41  1  0
 37 42  1  0
 42 43  2  0
 43 44  1  0
 43 45  1  0
 45 46  2  0
 46 47  1  0
 46 48  1  0
 48 49  1  0
 49 50  2  0
 49 51  1  0
 51 52  1  0
 52 53  2  0
 42 54  1  0
 54 55  1  0
 54  4  1  0
 34  8  1  0
 52 45  1  0
 28 16  1  0
M  CHG  3  47  -1  48  -1  51  -1
M  END
>  <UniqueID>  (81) 
75

>  <SMILES>  (81) 
C=c1[nH]/c(=C/c2c([O-])[n-]c(=O)[n-]c2=O)c(C)c1C(=O)N1CCN(C2CCOCC2)CC1

>  <Energy>  (81) 
124.07870529737393

>  <Genealogy>  (81) 
C=c1[nH]c(=Cc2c([O-])[n-]c(=O)[n-]c2=O)c(C)c1C(=O)N1CCN(C2CCOCC2)CC1 (protonated)
C=c1[nH]/c(=C/c2c([O-])[n-]c(=O)[n-]c2=O)c(C)c1C(=O)N1CCN(C2CCOCC2)CC1 (cis-trans isomerization)
C=c1[nH]/c(=C/c2c([O-])[n-]c(=O)[n-]c2=O)c(C)c1C(=O)N1CCN(C2CCOCC2)CC1 (3D coordinates assigned)
C=c1[nH]/c(=C/c2c([O-])[n-]c(=O)[n-]c2=O)c(C)c1C(=O)N1CCN(C2CCOCC2)CC1 (nonaromatic ring conformer: 124.07870529737393 kcal/mol)

>  <smiles>  (81) 
C=c1[nH]c(=Cc2c(O)[nH]c(=O)[nH]c2=O)c(C)c1C(=O)N1CCN(C2CCOCC2)CC1

>  <score_type>  (81) 
oracle

>  <origin>  (81) 
adg

>  <m_score__min__energy>  (81) 
-16.219999999999999

>  <m_primary>  (81) 
energy

$$$$
81:0
     RDKit          3D

 34 36  0  0  0  0  0  0  0  0999 V2000
   59.5590   33.6100   44.4590 H   0  0  0  0  0  0  0  0  0  0  0  0
   58.5810   33.3820   44.3270 O   0  0  0  0  0  0  0  0  0  0  0  0
   58.1050   32.0850   44.5040 C   0  0  0  0  0  0  0  0  0  0  0  0
   57.0410   31.5970   43.7080 C   0  0  0  0  0  0  0  0  0  0  0  0
   56.5878   32.2461   42.9443 H   0  0  0  0  0  0  0  0  0  0  0  0
   56.5600   30.2890   43.8870 C   0  0  0  0  0  0  0  0  0  0  0  0
   55.7346   29.9005   43.2723 H   0  0  0  0  0  0  0  0  0  0  0  0
   57.1590   29.4980   44.8660 C   0  0  0  0  0  0  0  0  0  0  0  0
   58.1930   29.9630   45.6370 C   0  0  0  0  0  0  0  0  0  0  0  0
   58.6930   31.2610   45.4810 C   0  0  0  0  0  0  0  0  0  0  0  0
   59.5222   31.6264   46.1046 H   0  0  0  0  0  0  0  0  0  0  0  0
   58.5590   28.9320   46.4850 C   0  0  0  0  0  0  0  0  0  0  0  0
   59.5320   28.9760   47.4030 C   0  0  0  0  0  0  0  0  0  0  0  0
   60.1290   29.8914   47.5283 H   0  0  0  0  0  0  0  0  0  0  0  0
   59.7347   28.0968   48.0322 H   0  0  0  0  0  0  0  0  0  0  0  0
   57.6960   27.8620   46.1790 C   0  0  0  0  0  0  0  0  0  0  0  0
   57.7200   26.6430   46.7570 C   0  0  0  0  0  0  0  0  0  0  0  0
   58.4089   26.4983   47.6023 H   0  0  0  0  0  0  0  0  0  0  0  0
   56.8960   25.4860   46.3470 C   0  0  0  0  0  0  0  0  0  0  0  0
   57.3560   24.2300   46.1620 N   0  0  0  0  0  0  0  0  0  0  0  0
   56.3040   23.5100   45.7140 C   0  0  0  0  0  0  0  0  0  0  0  0
   56.3910   22.0590   45.3710 C   0  0  0  0  0  0  0  0  0  0  0  0
   56.4266   21.4650   46.2962 H   0  0  0  0  0  0  0  0  0  0  0  0
   55.5087   21.7679   44.7821 H   0  0  0  0  0  0  0  0  0  0  0  0
   57.3018   21.8754   44.7821 H   0  0  0  0  0  0  0  0  0  0  0  0
   55.1700   24.3000   45.6070 C   0  0  0  0  0  0  0  0  0  0  0  0
   53.8350   23.9020   45.0640 C   0  0  0  0  0  0  0  0  0  0  0  0
   53.1467   23.6968   45.8971 H   0  0  0  0  0  0  0  0  0  0  0  0
   53.4315   24.7189   44.4477 H   0  0  0  0  0  0  0  0  0  0  0  0
   53.9447   22.9975   44.4477 H   0  0  0  0  0  0  0  0  0  0  0  0
   55.5650   25.5600   45.9880 C   0  0  0  0  0  0  0  0  0  0  0  0
   54.7720   26.7020   45.9980 O   0  0  0  0  0  0  0  0  0  0  0  0
   56.8490   28.2280   45.1790 N   0  0  0  0  0  0  0  0  0  0  0  0
   56.1240   27.6560   44.6950 H   0  0  0  0  0  0  0  0  0  0  0  0
  1  2  1  0
  2  3  1  0
  3  4  2  0
  4  5  1  0
  4  6  1  0
  6  7  1  0
  6  8  2  0
  8  9  1  0
  9 10  2  0
 10 11  1  0
  9 12  1  0
 12 13  2  0
 13 14  1  0
 13 15  1  0
 12 16  1  0
 16 17  2  0
 17 18  1  0
 17 19  1  0
 19 20  1  0
 20 21  1  0
 21 22  1  0
 22 23  1  0
 22 24  1  0
 22 25  1  0
 21 26  2  0
 26 27  1  0
 27 28  1  0
 27 29  1  0
 27 30  1  0
 26 31  1  0
 31 32  1  0
 16 33  1  0
 33 34  1  0
 10  3  1  0
 31 19  2  0
 33  8  1  0
M  CHG  2  20  -1  32  -1
M  END
>  <UniqueID>  (82) 
76

>  <SMILES>  (82) 
C=c1/c(=C/c2[n-]c(C)c(C)c2[O-])[nH]c2ccc(O)cc12

>  <Energy>  (82) 
100.07383159637702

>  <Genealogy>  (82) 
C=c1c(=Cc2[n-]c(C)c(C)c2[O-])[nH]c2ccc(O)cc12 (protonated)
C=c1/c(=C/c2[n-]c(C)c(C)c2[O-])[nH]c2ccc(O)cc12 (cis-trans isomerization)
C=c1/c(=C/c2[n-]c(C)c(C)c2[O-])[nH]c2ccc(O)cc12 (3D coordinates assigned)
C=c1/c(=C/c2[n-]c(C)c(C)c2[O-])[nH]c2ccc(O)cc12 (optimized conformer: 100.07383159637702 kcal/mol)

>  <smiles>  (82) 
C=c1c(=Cc2[nH]c(C)c(C)c2O)[nH]c2ccc(O)cc12

>  <score_type>  (82) 
oracle

>  <origin>  (82) 
adg

>  <m_score__min__energy>  (82) 
-11.65

>  <m_primary>  (82) 
energy

$$$$
82:0
     RDKit          3D

 76 80  0  0  0  0  0  0  0  0999 V2000
   59.7410   31.9180   50.2190 O   0  0  0  0  0  0  0  0  0  0  0  0
   60.5190   31.6910   49.2500 C   0  0  0  0  0  0  0  0  0  0  0  0
   61.4780   30.6790   49.3660 O   0  0  0  0  0  0  0  0  0  0  0  0
   61.9120   30.1760   50.6280 C   0  0  0  0  0  0  0  0  0  0  0  0
   60.9300   29.1780   51.1720 C   0  0  0  0  0  0  0  0  0  0  0  0
   60.8860   28.0230   50.6640 O   0  0  0  0  0  0  0  0  0  0  0  0
   60.0480   29.5060   52.2670 N   0  0  0  0  0  0  0  0  0  0  0  0
   58.8990   28.6340   52.5380 C   0  0  0  0  0  0  0  0  0  0  0  0
   58.0140   29.2100   53.6540 C   0  0  0  0  0  0  0  0  0  0  0  0
   57.8280   30.6690   53.5170 N   0  0  0  0  0  0  0  0  0  0  0  0
   56.7850   31.0780   52.1700 S   0  0  0  0  0  0  0  0  0  0  0  0
   56.7390   32.5730   52.0190 O   0  0  0  0  0  0  0  0  0  0  0  0
   57.3270   30.4900   50.8960 O   0  0  0  0  0  0  0  0  0  0  0  0
   55.1440   30.5010   52.4530 C   0  0  0  0  0  0  0  0  0  0  0  0
   54.8430   29.7180   53.5780 C   0  0  0  0  0  0  0  0  0  0  0  0
   53.5320   29.2840   53.8010 C   0  0  0  0  0  0  0  0  0  0  0  0
   52.5170   29.6320   52.9030 C   0  0  0  0  0  0  0  0  0  0  0  0
   52.8110   30.4170   51.7850 C   0  0  0  0  0  0  0  0  0  0  0  0
   54.1210   30.8520   51.5600 C   0  0  0  0  0  0  0  0  0  0  0  0
   59.0950   31.4410   53.4740 C   0  0  0  0  0  0  0  0  0  0  0  0
   60.3480   30.5840   53.2180 C   0  0  0  0  0  0  0  0  0  0  0  0
   60.4050   32.5040   48.0080 C   0  0  0  0  0  0  0  0  0  0  0  0
   59.2760   32.3290   47.1800 C   0  0  0  0  0  0  0  0  0  0  0  0
   59.1170   33.0770   46.0070 C   0  0  0  0  0  0  0  0  0  0  0  0
   57.7080   32.8230   44.9730 S   0  0  0  0  0  0  0  0  0  0  0  0
   56.6350   33.8090   45.3450 O   0  0  0  0  0  0  0  0  0  0  0  0
   58.0950   33.0760   43.5410 O   0  0  0  0  0  0  0  0  0  0  0  0
   57.0760   31.2020   45.1240 N   0  0  0  0  0  0  0  0  0  0  0  0
   56.3140   30.8300   43.9240 C   0  0  0  0  0  0  0  0  0  0  0  0
   55.7570   29.3990   44.0750 C   0  0  0  0  0  0  0  0  0  0  0  0
   56.2290   28.7620   45.2490 O   0  0  0  0  0  0  0  0  0  0  0  0
   57.6430   28.7910   45.2770 C   0  0  0  0  0  0  0  0  0  0  0  0
   58.1700   30.2400   45.3450 C   0  0  0  0  0  0  0  0  0  0  0  0
   60.0830   34.0220   45.6550 C   0  0  0  0  0  0  0  0  0  0  0  0
   61.2080   34.2070   46.4570 C   0  0  0  0  0  0  0  0  0  0  0  0
   61.3830   33.4550   47.6270 C   0  0  0  0  0  0  0  0  0  0  0  0
   62.5750   33.6620   48.3990 N   0  0  0  0  0  0  0  0  0  0  0  0
   62.4940   34.3100   49.7080 C   0  0  0  0  0  0  0  0  0  0  0  0
   62.9670   33.3230   50.7800 C   0  0  0  0  0  0  0  0  0  0  0  0
   64.2490   32.8110   50.4580 O   0  0  0  0  0  0  0  0  0  0  0  0
   64.1850   32.0460   49.2670 C   0  0  0  0  0  0  0  0  0  0  0  0
   63.7970   32.9270   48.0740 C   0  0  0  0  0  0  0  0  0  0  0  0
   62.8903   29.6885   50.5046 H   0  0  0  0  0  0  0  0  0  0  0  0
   61.9884   31.0158   51.3343 H   0  0  0  0  0  0  0  0  0  0  0  0
   58.3001   28.5345   51.6207 H   0  0  0  0  0  0  0  0  0  0  0  0
   59.2758   27.6534   52.8641 H   0  0  0  0  0  0  0  0  0  0  0  0
   57.0293   28.7214   53.6139 H   0  0  0  0  0  0  0  0  0  0  0  0
   58.5141   29.0206   54.6153 H   0  0  0  0  0  0  0  0  0  0  0  0
   55.6395   29.4450   54.2858 H   0  0  0  0  0  0  0  0  0  0  0  0
   53.2990   28.6689   54.6827 H   0  0  0  0  0  0  0  0  0  0  0  0
   51.4870   29.2874   53.0772 H   0  0  0  0  0  0  0  0  0  0  0  0
   52.0117   30.6930   51.0815 H   0  0  0  0  0  0  0  0  0  0  0  0
   54.3497   31.4712   50.6801 H   0  0  0  0  0  0  0  0  0  0  0  0
   59.0172   32.1871   52.6695 H   0  0  0  0  0  0  0  0  0  0  0  0
   59.2213   31.8966   54.4672 H   0  0  0  0  0  0  0  0  0  0  0  0
   61.1438   31.2208   52.8042 H   0  0  0  0  0  0  0  0  0  0  0  0
   60.6750   30.1386   54.1692 H   0  0  0  0  0  0  0  0  0  0  0  0
   58.5082   31.5929   47.4605 H   0  0  0  0  0  0  0  0  0  0  0  0
   55.4791   31.5336   43.7900 H   0  0  0  0  0  0  0  0  0  0  0  0
   56.9784   30.8683   43.0482 H   0  0  0  0  0  0  0  0  0  0  0  0
   54.6589   29.4488   44.1161 H   0  0  0  0  0  0  0  0  0  0  0  0
   56.0991   28.8106   43.2108 H   0  0  0  0  0  0  0  0  0  0  0  0
   57.9958   28.2390   46.1606 H   0  0  0  0  0  0  0  0  0  0  0  0
   58.0194   28.3263   44.3538 H   0  0  0  0  0  0  0  0  0  0  0  0
   58.6123   30.4174   46.3364 H   0  0  0  0  0  0  0  0  0  0  0  0
   58.9274   30.3785   44.5594 H   0  0  0  0  0  0  0  0  0  0  0  0
   59.9558   34.6222   44.7420 H   0  0  0  0  0  0  0  0  0  0  0  0
   61.9659   34.9504   46.1689 H   0  0  0  0  0  0  0  0  0  0  0  0
   63.1366   35.2027   49.7186 H   0  0  0  0  0  0  0  0  0  0  0  0
   61.4559   34.6118   49.9110 H   0  0  0  0  0  0  0  0  0  0  0  0
   63.0175   33.8398   51.7497 H   0  0  0  0  0  0  0  0  0  0  0  0
   62.2542   32.4867   50.8303 H   0  0  0  0  0  0  0  0  0  0  0  0
   65.1691   31.5933   49.0759 H   0  0  0  0  0  0  0  0  0  0  0  0
   63.4212   31.2641   49.3909 H   0  0  0  0  0  0  0  0  0  0  0  0
   64.6090   33.6380   47.8617 H   0  0  0  0  0  0  0  0  0  0  0  0
   63.6261   32.2972   47.1884 H   0  0  0  0  0  0  0  0  0  0  0  0
  1  2  2  0
  2  3  1  0
  3  4  1  0
  4  5  1  0
  5  6  2  0
  5  7  1  0
  7  8  1  0
  8  9  1  0
  9 10  1  0
 10 11  1  0
 11 12  2  0
 11 13  2  0
 11 14  1  0
 14 15  2  0
 15 16  1  0
 16 17  2  0
 17 18  1  0
 18 19  2  0
 10 20  1  0
 20 21  1  0
  2 22  1  0
 22 23  2  0
 23 24  1  0
 24 25  1  0
 25 26  2  0
 25 27  2  0
 25 28  1  0
 28 29  1  0
 29 30  1  0
 30 31  1  0
 31 32  1  0
 32 33  1  0
 24 34  2  0
 34 35  1  0
 35 36  2  0
 36 37  1  0
 37 38  1  0
 38 39  1  0
 39 40  1  0
 40 41  1  0
 41 42  1  0
 21  7  1  0
 36 22  1  0
 42 37  1  0
 19 14  1  0
 33 28  1  0
  4 43  1  0
  4 44  1  0
  8 45  1  0
  8 46  1  0
  9 47  1  0
  9 48  1  0
 15 49  1  0
 16 50  1  0
 17 51  1  0
 18 52  1  0
 19 53  1  0
 20 54  1  0
 20 55  1  0
 21 56  1  0
 21 57  1  0
 23 58  1  0
 29 59  1  0
 29 60  1  0
 30 61  1  0
 30 62  1  0
 32 63  1  0
 32 64  1  0
 33 65  1  0
 33 66  1  0
 34 67  1  0
 35 68  1  0
 38 69  1  0
 38 70  1  0
 39 71  1  0
 39 72  1  0
 41 73  1  0
 41 74  1  0
 42 75  1  0
 42 76  1  0
M  END
>  <UniqueID>  (83) 
77

>  <SMILES>  (83) 
O=C(OCC(=O)N1CCN(S(=O)(=O)c2ccccc2)CC1)c1cc(S(=O)(=O)N2CCOCC2)ccc1N1CCOCC1

>  <Energy>  (83) 
100.79560823601366

>  <Genealogy>  (83) 
O=C(OCC(=O)N1CCN(S(=O)(=O)c2ccccc2)CC1)c1cc(S(=O)(=O)N2CCOCC2)ccc1N1CCOCC1 (3D coordinates assigned)
O=C(OCC(=O)N1CCN(S(=O)(=O)c2ccccc2)CC1)c1cc(S(=O)(=O)N2CCOCC2)ccc1N1CCOCC1 (nonaromatic ring conformer: 100.79560823601366 kcal/mol)

>  <smiles>  (83) 
O=C(OCC(=O)N1CCN(S(=O)(=O)c2ccccc2)CC1)c1cc(S(=O)(=O)N2CCOCC2)ccc1N1CCOCC1

>  <score_type>  (83) 
oracle

>  <origin>  (83) 
adg

>  <m_score__min__energy>  (83) 
-10.74

>  <m_primary>  (83) 
energy

$$$$
83:0
     RDKit          3D

 58 61  0  0  0  0  0  0  0  0999 V2000
   55.5950   29.6230   44.8970 N   0  0  0  0  0  0  0  0  0  0  0  0
   57.2940   29.7010   45.1960 S   0  0  0  0  0  0  0  0  0  0  0  0
   58.0410   29.1750   44.0030 O   0  0  0  0  0  0  0  0  0  0  0  0
   57.6290   28.8490   46.3890 O   0  0  0  0  0  0  0  0  0  0  0  0
   57.7620   31.3710   45.4990 C   0  0  0  0  0  0  0  0  0  0  0  0
   56.9530   32.4250   45.0570 C   0  0  0  0  0  0  0  0  0  0  0  0
   57.3390   33.7480   45.2870 C   0  0  0  0  0  0  0  0  0  0  0  0
   58.5380   34.0250   45.9490 C   0  0  0  0  0  0  0  0  0  0  0  0
   59.3660   32.9780   46.3830 C   0  0  0  0  0  0  0  0  0  0  0  0
   60.6460   33.2600   47.0720 C   0  0  0  0  0  0  0  0  0  0  0  0
   61.8570   33.4430   46.3800 C   0  0  0  0  0  0  0  0  0  0  0  0
   62.9360   33.7380   47.2030 C   0  0  0  0  0  0  0  0  0  0  0  0
   62.3910   33.7890   48.7900 S   0  0  0  0  0  0  0  0  0  0  0  0
   60.7880   33.4220   48.4530 C   0  0  0  0  0  0  0  0  0  0  0  0
   59.7210   33.4370   49.4640 C   0  0  0  0  0  0  0  0  0  0  0  0
   59.2860   34.5500   49.8660 O   0  0  0  0  0  0  0  0  0  0  0  0
   59.1100   32.2150   49.9280 N   0  0  0  0  0  0  0  0  0  0  0  0
   58.1420   32.2890   51.0380 C   0  0  0  0  0  0  0  0  0  0  0  0
   58.5500   31.4380   52.2560 C   0  0  0  0  0  0  0  0  0  0  0  0
   59.8300   30.6050   52.0260 C   0  0  0  0  0  0  0  0  0  0  0  0
   59.6210   29.4230   51.1520 N   0  0  0  0  0  0  0  0  0  0  0  0
   60.9160   28.8540   50.7100 C   0  0  0  0  0  0  0  0  0  0  0  0
   61.8960   29.9670   50.3060 C   0  0  0  0  0  0  0  0  0  0  0  0
   63.1310   30.0140   51.2160 C   0  0  0  0  0  0  0  0  0  0  0  0
   63.8050   31.3090   51.1240 N   0  0  0  0  0  0  0  0  0  0  0  0
   65.0130   31.5600   50.5980 C   0  0  0  0  0  0  0  0  0  0  0  0
   65.2700   32.9040   50.7530 C   0  0  0  0  0  0  0  0  0  0  0  0
   64.2290   33.4940   51.3770 N   0  0  0  0  0  0  0  0  0  0  0  0
   63.3540   32.4910   51.5900 C   0  0  0  0  0  0  0  0  0  0  0  0
   58.7570   29.7440   49.9890 C   0  0  0  0  0  0  0  0  0  0  0  0
   59.3030   30.9530   49.1930 C   0  0  0  0  0  0  0  0  0  0  0  0
   58.9650   31.6490   46.1600 C   0  0  0  0  0  0  0  0  0  0  0  0
   55.1370   29.3820   45.8060 H   0  0  0  0  0  0  0  0  0  0  0  0
   56.0125   32.2112   44.5281 H   0  0  0  0  0  0  0  0  0  0  0  0
   56.6973   34.5738   44.9460 H   0  0  0  0  0  0  0  0  0  0  0  0
   58.8344   35.0686   46.1309 H   0  0  0  0  0  0  0  0  0  0  0  0
   61.9416   33.3600   45.2864 H   0  0  0  0  0  0  0  0  0  0  0  0
   63.9709   33.9090   46.8716 H   0  0  0  0  0  0  0  0  0  0  0  0
   58.0557   33.3381   51.3574 H   0  0  0  0  0  0  0  0  0  0  0  0
   57.1865   31.8908   50.6659 H   0  0  0  0  0  0  0  0  0  0  0  0
   58.7214   32.1110   53.1090 H   0  0  0  0  0  0  0  0  0  0  0  0
   57.7313   30.7274   52.4425 H   0  0  0  0  0  0  0  0  0  0  0  0
   60.5873   31.2526   51.5599 H   0  0  0  0  0  0  0  0  0  0  0  0
   60.1499   30.2273   53.0083 H   0  0  0  0  0  0  0  0  0  0  0  0
   61.3531   28.2712   51.5342 H   0  0  0  0  0  0  0  0  0  0  0  0
   60.7366   28.2101   49.8363 H   0  0  0  0  0  0  0  0  0  0  0  0
   62.2254   29.7900   49.2715 H   0  0  0  0  0  0  0  0  0  0  0  0
   61.3708   30.9288   50.4013 H   0  0  0  0  0  0  0  0  0  0  0  0
   62.8168   29.8458   52.2567 H   0  0  0  0  0  0  0  0  0  0  0  0
   63.8330   29.2314   50.8923 H   0  0  0  0  0  0  0  0  0  0  0  0
   65.6800   30.8232   50.1265 H   0  0  0  0  0  0  0  0  0  0  0  0
   66.1836   33.4178   50.4194 H   0  0  0  0  0  0  0  0  0  0  0  0
   62.3819   32.6221   52.0878 H   0  0  0  0  0  0  0  0  0  0  0  0
   58.7131   28.8688   49.3241 H   0  0  0  0  0  0  0  0  0  0  0  0
   57.7556   30.0018   50.3640 H   0  0  0  0  0  0  0  0  0  0  0  0
   60.3779   30.8057   49.0119 H   0  0  0  0  0  0  0  0  0  0  0  0
   58.7513   31.0187   48.2436 H   0  0  0  0  0  0  0  0  0  0  0  0
   59.6009   30.8214   46.5073 H   0  0  0  0  0  0  0  0  0  0  0  0
  1  2  1  0
  2  3  2  0
  2  4  2  0
  2  5  1  0
  5  6  2  0
  6  7  1  0
  7  8  2  0
  8  9  1  0
  9 10  1  0
 10 11  1  0
 11 12  2  0
 12 13  1  0
 13 14  1  0
 14 15  1  0
 15 16  2  0
 15 17  1  0
 17 18  1  0
 18 19  1  0
 19 20  1  0
 20 21  1  0
 21 22  1  0
 22 23  1  0
 23 24  1  0
 24 25  1  0
 25 26  1  0
 26 27  2  0
 27 28  1  0
 28 29  2  0
 21 30  1  0
 30 31  1  0
  9 32  2  0
 32  5  1  0
 14 10  2  0
 31 17  1  0
 29 25  1  0
  1 33  1  0
  6 34  1  0
  7 35  1  0
  8 36  1  0
 11 37  1  0
 12 38  1  0
 18 39  1  0
 18 40  1  0
 19 41  1  0
 19 42  1  0
 20 43  1  0
 20 44  1  0
 22 45  1  0
 22 46  1  0
 23 47  1  0
 23 48  1  0
 24 49  1  0
 24 50  1  0
 26 51  1  0
 27 52  1  0
 29 53  1  0
 30 54  1  0
 30 55  1  0
 31 56  1  0
 31 57  1  0
 32 58  1  0
M  CHG  1   1  -1
M  END
>  <UniqueID>  (84) 
78

>  <SMILES>  (84) 
[NH-]S(=O)(=O)c1cccc(-c2ccsc2C(=O)N2CCCN(CCCn3ccnc3)CC2)c1

>  <Energy>  (84) 
131.0602586424917

>  <Genealogy>  (84) 
[NH-]S(=O)(=O)c1cccc(-c2ccsc2C(=O)N2CCCN(CCCn3ccnc3)CC2)c1 (protonated)
[NH-]S(=O)(=O)c1cccc(-c2ccsc2C(=O)N2CCCN(CCCn3ccnc3)CC2)c1 (3D coordinates assigned)
[NH-]S(=O)(=O)c1cccc(-c2ccsc2C(=O)N2CCCN(CCCn3ccnc3)CC2)c1 (nonaromatic ring conformer: 131.0602586424917 kcal/mol)

>  <smiles>  (84) 
NS(=O)(=O)c1cccc(-c2ccsc2C(=O)N2CCCN(CCCn3ccnc3)CC2)c1

>  <score_type>  (84) 
oracle

>  <origin>  (84) 
adg

>  <m_score__min__energy>  (84) 
-9.5700000000000003

>  <m_primary>  (84) 
energy

$$$$
84:0
     RDKit          3D

 56 59  0  0  0  0  0  0  0  0999 V2000
   64.0880   32.9440   46.3080 O   0  0  0  0  0  0  0  0  0  0  0  0
   63.4820   33.1700   47.3910 C   0  0  0  0  0  0  0  0  0  0  0  0
   62.0170   33.5030   47.3720 C   0  0  0  0  0  0  0  0  0  0  0  0
   61.6390   34.2310   48.6010 N   0  0  0  0  0  0  0  0  0  0  0  0
   60.2200   34.6490   48.6260 C   0  0  0  0  0  0  0  0  0  0  0  0
   59.6000   34.8750   47.2590 C   0  0  0  0  0  0  0  0  0  0  0  0
   59.6650   36.0140   46.7250 O   0  0  0  0  0  0  0  0  0  0  0  0
   58.8560   33.8000   46.5530 C   0  0  0  0  0  0  0  0  0  0  0  0
   58.7480   32.5050   47.0930 C   0  0  0  0  0  0  0  0  0  0  0  0
   58.0190   31.5170   46.4230 C   0  0  0  0  0  0  0  0  0  0  0  0
   57.3910   31.7970   45.2030 C   0  0  0  0  0  0  0  0  0  0  0  0
   56.6170   30.7630   44.5760 N   0  0  0  0  0  0  0  0  0  0  0  0
   56.6110   29.3680   44.9140 C   0  0  0  0  0  0  0  0  0  0  0  0
   55.5230   28.7320   44.9590 O   0  0  0  0  0  0  0  0  0  0  0  0
   57.8900   28.6610   45.1630 C   0  0  0  0  0  0  0  0  0  0  0  0
   59.1120   29.2380   44.7690 C   0  0  0  0  0  0  0  0  0  0  0  0
   60.3170   28.5740   45.0070 C   0  0  0  0  0  0  0  0  0  0  0  0
   60.3200   27.3270   45.6340 C   0  0  0  0  0  0  0  0  0  0  0  0
   59.1130   26.7320   46.0290 C   0  0  0  0  0  0  0  0  0  0  0  0
   59.1230   25.4050   46.7400 C   0  0  0  0  0  0  0  0  0  0  0  0
   58.4500   24.3820   45.9240 N   0  0  0  0  0  0  0  0  0  0  0  0
   57.1020   24.4940   45.7110 C   0  0  0  0  0  0  0  0  0  0  0  0
   56.4150   23.5390   44.9580 C   0  0  0  0  0  0  0  0  0  0  0  0
   54.5380   23.7070   44.6700 Br  0  0  0  0  0  0  0  0  0  0  0  0
   57.1160   22.4620   44.4210 C   0  0  0  0  0  0  0  0  0  0  0  0
   58.4860   22.3430   44.6510 C   0  0  0  0  0  0  0  0  0  0  0  0
   59.1440   23.3120   45.4130 C   0  0  0  0  0  0  0  0  0  0  0  0
   60.3840   23.1870   45.6190 O   0  0  0  0  0  0  0  0  0  0  0  0
   57.9030   27.4030   45.7950 C   0  0  0  0  0  0  0  0  0  0  0  0
   57.4740   33.0950   44.6740 C   0  0  0  0  0  0  0  0  0  0  0  0
   58.2040   34.0830   45.3400 C   0  0  0  0  0  0  0  0  0  0  0  0
   62.0640   33.5150   49.8180 C   0  0  0  0  0  0  0  0  0  0  0  0
   63.5900   33.5040   49.8920 C   0  0  0  0  0  0  0  0  0  0  0  0
   64.1730   33.0320   48.6370 N   0  0  0  0  0  0  0  0  0  0  0  0
   61.7995   34.1323   46.4964 H   0  0  0  0  0  0  0  0  0  0  0  0
   61.4390   32.5686   47.3184 H   0  0  0  0  0  0  0  0  0  0  0  0
   59.6416   33.8667   49.1392 H   0  0  0  0  0  0  0  0  0  0  0  0
   60.1915   35.6191   49.1437 H   0  0  0  0  0  0  0  0  0  0  0  0
   59.2399   32.2682   48.0480 H   0  0  0  0  0  0  0  0  0  0  0  0
   57.9382   30.5102   46.8587 H   0  0  0  0  0  0  0  0  0  0  0  0
   59.1177   30.2185   44.2703 H   0  0  0  0  0  0  0  0  0  0  0  0
   61.2671   29.0352   44.6993 H   0  0  0  0  0  0  0  0  0  0  0  0
   61.2726   26.8090   45.8190 H   0  0  0  0  0  0  0  0  0  0  0  0
   60.1638   25.0981   46.9204 H   0  0  0  0  0  0  0  0  0  0  0  0
   58.5887   25.5078   47.6960 H   0  0  0  0  0  0  0  0  0  0  0  0
   56.5535   25.3465   46.1381 H   0  0  0  0  0  0  0  0  0  0  0  0
   56.5904   21.7075   43.8172 H   0  0  0  0  0  0  0  0  0  0  0  0
   59.0452   21.4918   44.2353 H   0  0  0  0  0  0  0  0  0  0  0  0
   56.9550   26.9414   46.1085 H   0  0  0  0  0  0  0  0  0  0  0  0
   56.9618   33.3353   43.7306 H   0  0  0  0  0  0  0  0  0  0  0  0
   58.2693   35.0935   44.9104 H   0  0  0  0  0  0  0  0  0  0  0  0
   61.6570   34.0237   50.7043 H   0  0  0  0  0  0  0  0  0  0  0  0
   61.6897   32.4811   49.7863 H   0  0  0  0  0  0  0  0  0  0  0  0
   63.9476   34.5246   50.0931 H   0  0  0  0  0  0  0  0  0  0  0  0
   63.8964   32.8218   50.6987 H   0  0  0  0  0  0  0  0  0  0  0  0
   65.1850   32.7730   48.6290 H   0  0  0  0  0  0  0  0  0  0  0  0
  1  2  2  0
  2  3  1  0
  3  4  1  0
  4  5  1  0
  5  6  1  0
  6  7  2  0
  6  8  1  0
  8  9  2  0
  9 10  1  0
 10 11  2  0
 11 12  1  0
 12 13  1  0
 13 14  2  0
 13 15  1  0
 15 16  2  0
 16 17  1  0
 17 18  2  0
 18 19  1  0
 19 20  1  0
 20 21  1  0
 21 22  1  0
 22 23  2  0
 23 24  1  0
 23 25  1  0
 25 26  2  0
 26 27  1  0
 27 28  2  0
 19 29  2  0
 11 30  1  0
 30 31  2  0
  4 32  1  0
 32 33  1  0
 33 34  1  0
 34  2  1  0
 31  8  1  0
 29 15  1  0
 27 21  1  0
  3 35  1  0
  3 36  1  0
  5 37  1  0
  5 38  1  0
  9 39  1  0
 10 40  1  0
 16 41  1  0
 17 42  1  0
 18 43  1  0
 20 44  1  0
 20 45  1  0
 22 46  1  0
 25 47  1  0
 26 48  1  0
 29 49  1  0
 30 50  1  0
 31 51  1  0
 32 52  1  0
 32 53  1  0
 33 54  1  0
 33 55  1  0
 34 56  1  0
M  CHG  1  12  -1
M  END
>  <UniqueID>  (85) 
79

>  <SMILES>  (85) 
O=C1CN(CC(=O)c2ccc([N-]C(=O)c3cccc(Cn4cc(Br)ccc4=O)c3)cc2)CCN1

>  <Energy>  (85) 
73.11818681011854

>  <Genealogy>  (85) 
O=C1CN(CC(=O)c2ccc([N-]C(=O)c3cccc(Cn4cc(Br)ccc4=O)c3)cc2)CCN1 (protonated)
O=C1CN(CC(=O)c2ccc([N-]C(=O)c3cccc(Cn4cc(Br)ccc4=O)c3)cc2)CCN1 (3D coordinates assigned)
O=C1CN(CC(=O)c2ccc([N-]C(=O)c3cccc(Cn4cc(Br)ccc4=O)c3)cc2)CCN1 (nonaromatic ring conformer: 73.11818681011854 kcal/mol)

>  <smiles>  (85) 
O=C1CN(CC(=O)c2ccc(NC(=O)c3cccc(Cn4cc(Br)ccc4=O)c3)cc2)CCN1

>  <score_type>  (85) 
oracle

>  <origin>  (85) 
adg

>  <m_score__min__energy>  (85) 
-12.460000000000001

>  <m_primary>  (85) 
energy

$$$$
85:0
     RDKit          3D

 44 47  0  0  0  0  0  0  0  0999 V2000
   58.7575   32.9255   54.9660 H   0  0  0  0  0  0  0  0  0  0  0  0
   59.3170   32.9880   54.0210 C   0  0  0  0  0  0  0  0  0  0  0  0
   60.4930   33.7380   53.9530 C   0  0  0  0  0  0  0  0  0  0  0  0
   60.8556   34.2713   54.8441 H   0  0  0  0  0  0  0  0  0  0  0  0
   61.2100   33.8130   52.7570 C   0  0  0  0  0  0  0  0  0  0  0  0
   62.1322   34.4109   52.7103 H   0  0  0  0  0  0  0  0  0  0  0  0
   60.7610   33.1280   51.6080 C   0  0  0  0  0  0  0  0  0  0  0  0
   61.5140   33.2080   50.2830 C   0  0  1  0  0  0  0  0  0  0  0  0
   61.4740   34.2723   50.0077 H   0  0  0  0  0  0  0  0  0  0  0  0
   62.9900   32.8430   50.3670 C   0  0  0  0  0  0  0  0  0  0  0  0
   63.5500   32.2250   51.5100 C   0  0  0  0  0  0  0  0  0  0  0  0
   62.8998   31.9586   52.3563 H   0  0  0  0  0  0  0  0  0  0  0  0
   64.9160   31.9490   51.5780 C   0  0  0  0  0  0  0  0  0  0  0  0
   65.3331   31.4621   52.4718 H   0  0  0  0  0  0  0  0  0  0  0  0
   65.7530   32.2880   50.5180 C   0  0  0  0  0  0  0  0  0  0  0  0
   66.8310   32.0779   50.5786 H   0  0  0  0  0  0  0  0  0  0  0  0
   65.2230   32.8940   49.3800 C   0  0  0  0  0  0  0  0  0  0  0  0
   65.8905   33.1734   48.5515 H   0  0  0  0  0  0  0  0  0  0  0  0
   63.8500   33.1510   49.2800 C   0  0  0  0  0  0  0  0  0  0  0  0
   63.3840   33.7880   48.0810 N   0  0  0  0  0  0  0  0  0  0  0  0
   62.1210   33.6010   47.4300 C   0  0  0  0  0  0  0  0  0  0  0  0
   61.8290   34.3470   46.4590 O   0  0  0  0  0  0  0  0  0  0  0  0
   61.1680   32.5480   47.8530 C   0  0  0  0  0  0  0  0  0  0  0  0
   60.5290   31.8070   46.9830 N   0  0  0  0  0  0  0  0  0  0  0  0
   60.7940   30.8000   46.8980 H   0  0  0  0  0  0  0  0  0  0  0  0
   59.5230   32.2810   46.0660 C   0  0  0  0  0  0  0  0  0  0  0  0
   59.6340   33.4290   45.5520 O   0  0  0  0  0  0  0  0  0  0  0  0
   58.3930   31.4080   45.6660 C   0  0  0  0  0  0  0  0  0  0  0  0
   58.2410   30.1240   46.2250 C   0  0  0  0  0  0  0  0  0  0  0  0
   58.9707   29.7599   46.9632 H   0  0  0  0  0  0  0  0  0  0  0  0
   57.1690   29.3090   45.8480 C   0  0  0  0  0  0  0  0  0  0  0  0
   57.0603   28.3066   46.2877 H   0  0  0  0  0  0  0  0  0  0  0  0
   56.2350   29.7660   44.9130 C   0  0  0  0  0  0  0  0  0  0  0  0
   55.1720   28.9540   44.5380 O   0  0  0  0  0  0  0  0  0  0  0  0
   56.3720   31.0400   44.3560 C   0  0  0  0  0  0  0  0  0  0  0  0
   55.6373   31.4000   43.6208 H   0  0  0  0  0  0  0  0  0  0  0  0
   57.4420   31.8580   44.7320 C   0  0  0  0  0  0  0  0  0  0  0  0
   57.5410   32.8620   44.2937 H   0  0  0  0  0  0  0  0  0  0  0  0
   60.8630   32.3970   49.2500 N   0  0  0  0  0  0  0  0  0  0  0  0
   60.1260   31.7070   49.5160 H   0  0  0  0  0  0  0  0  0  0  0  0
   59.5640   32.3900   51.6860 C   0  0  0  0  0  0  0  0  0  0  0  0
   59.1863   31.8670   50.7950 H   0  0  0  0  0  0  0  0  0  0  0  0
   58.8520   32.3170   52.8870 C   0  0  0  0  0  0  0  0  0  0  0  0
   57.9233   31.7298   52.9393 H   0  0  0  0  0  0  0  0  0  0  0  0
  1  2  1  0
  2  3  2  0
  3  4  1  0
  3  5  1  0
  5  6  1  0
  5  7  2  0
  7  8  1  0
  8  9  1  6
  8 10  1  0
 10 11  2  0
 11 12  1  0
 11 13  1  0
 13 14  1  0
 13 15  2  0
 15 16  1  0
 15 17  1  0
 17 18  1  0
 17 19  2  0
 19 20  1  0
 20 21  1  0
 21 22  2  0
 21 23  1  0
 23 24  2  0
 24 25  1  0
 24 26  1  0
 26 27  2  0
 26 28  1  0
 28 29  2  0
 29 30  1  0
 29 31  1  0
 31 32  1  0
 31 33  2  0
 33 34  1  0
 33 35  1  0
 35 36  1  0
 35 37  2  0
 37 38  1  0
 23 39  1  0
 39 40  1  0
  7 41  1  0
 41 42  1  0
 41 43  2  0
 43 44  1  0
 43  2  1  0
 39  8  1  0
 19 10  1  0
 37 28  1  0
M  CHG  3  20  -1  24   1  34  -1
M  END
>  <UniqueID>  (86) 
80

>  <SMILES>  (86) 
O=C1[N-]c2ccccc2[C@H](c2ccccc2)N/C1=[NH+]/C(=O)c1ccc([O-])cc1

>  <Energy>  (86) 
72.45091365814373

>  <Genealogy>  (86) 
O=C1[N-]c2ccccc2C(c2ccccc2)NC1=[NH+]C(=O)c1ccc([O-])cc1 (protonated)
O=C1[N-]c2ccccc2[C@H](c2ccccc2)NC1=[NH+]C(=O)c1ccc([O-])cc1 (chirality)
O=C1[N-]c2ccccc2[C@H](c2ccccc2)N/C1=[NH+]/C(=O)c1ccc([O-])cc1 (cis-trans isomerization)
O=C1[N-]c2ccccc2[C@H](c2ccccc2)N/C1=[NH+]/C(=O)c1ccc([O-])cc1 (3D coordinates assigned)
O=C1[N-]c2ccccc2[C@H](c2ccccc2)N/C1=[NH+]/C(=O)c1ccc([O-])cc1 (nonaromatic ring conformer: 72.45091365814373 kcal/mol)

>  <smiles>  (86) 
O=C1Nc2ccccc2C(c2ccccc2)NC1=NC(=O)c1ccc(O)cc1

>  <score_type>  (86) 
oracle

>  <origin>  (86) 
adg

>  <m_score__min__energy>  (86) 
-8.2300000000000004

>  <m_primary>  (86) 
energy

$$$$
86:0
     RDKit          3D

 35 36  0  0  0  0  0  0  0  0999 V2000
   57.7870   35.2416   46.1796 H   0  0  0  0  0  0  0  0  0  0  0  0
   57.8920   34.1940   45.8610 C   0  0  0  0  0  0  0  0  0  0  0  0
   58.1370   33.1990   46.8080 C   0  0  0  0  0  0  0  0  0  0  0  0
   58.2289   33.4646   47.8715 H   0  0  0  0  0  0  0  0  0  0  0  0
   58.2660   31.8660   46.4090 C   0  0  0  0  0  0  0  0  0  0  0  0
   58.5200   30.9210   47.3490 F   0  0  0  0  0  0  0  0  0  0  0  0
   58.1390   31.5130   45.0500 C   0  0  0  0  0  0  0  0  0  0  0  0
   58.3140   30.0710   44.6370 C   0  0  0  0  0  0  0  0  0  0  0  0
   58.9648   29.5618   45.3631 H   0  0  0  0  0  0  0  0  0  0  0  0
   58.7687   30.0377   43.6359 H   0  0  0  0  0  0  0  0  0  0  0  0
   56.9880   29.3800   44.5930 C   0  0  0  0  0  0  0  0  0  0  0  0
   56.2060   29.6070   43.6290 O   0  0  0  0  0  0  0  0  0  0  0  0
   56.6160   28.5040   45.6690 N   0  0  0  0  0  0  0  0  0  0  0  0
   56.5010   27.2090   45.6330 C   0  0  0  0  0  0  0  0  0  0  0  0
   55.4220   26.5730   46.1350 N   0  0  0  0  0  0  0  0  0  0  0  0
   55.4800   25.2490   46.0010 N   0  0  0  0  0  0  0  0  0  0  0  0
   56.6130   24.8090   45.4000 C   0  0  0  0  0  0  0  0  0  0  0  0
   56.8880   23.3550   45.0670 C   0  0  0  0  0  0  0  0  0  0  0  0
   56.0780   22.4410   46.0070 C   0  0  0  0  0  0  0  0  0  0  0  0
   56.3048   22.6970   47.0525 H   0  0  0  0  0  0  0  0  0  0  0  0
   55.0033   22.5825   45.8197 H   0  0  0  0  0  0  0  0  0  0  0  0
   56.3477   21.3911   45.8197 H   0  0  0  0  0  0  0  0  0  0  0  0
   56.4870   23.0490   43.6090 C   0  0  0  0  0  0  0  0  0  0  0  0
   55.6125   22.3817   43.6016 H   0  0  0  0  0  0  0  0  0  0  0  0
   56.2364   23.9876   43.0929 H   0  0  0  0  0  0  0  0  0  0  0  0
   57.3261   22.5596   43.0929 H   0  0  0  0  0  0  0  0  0  0  0  0
   58.3920   23.0760   45.2460 C   0  0  0  0  0  0  0  0  0  0  0  0
   58.6316   23.0316   46.3187 H   0  0  0  0  0  0  0  0  0  0  0  0
   58.6455   22.1155   44.7736 H   0  0  0  0  0  0  0  0  0  0  0  0
   58.9731   23.8817   44.7736 H   0  0  0  0  0  0  0  0  0  0  0  0
   57.6030   26.1120   44.9750 S   0  0  0  0  0  0  0  0  0  0  0  0
   57.9060   32.5320   44.0960 C   0  0  0  0  0  0  0  0  0  0  0  0
   57.7730   32.1860   42.3740 Cl  0  0  0  0  0  0  0  0  0  0  0  0
   57.7800   33.8620   44.5110 C   0  0  0  0  0  0  0  0  0  0  0  0
   57.5914   34.6509   43.7680 H   0  0  0  0  0  0  0  0  0  0  0  0
  1  2  1  0
  2  3  2  0
  3  4  1  0
  3  5  1  0
  5  6  1  0
  5  7  2  0
  7  8  1  0
  8  9  1  0
  8 10  1  0
  8 11  1  0
 11 12  2  0
 11 13  1  0
 13 14  2  0
 14 15  1  0
 15 16  1  0
 16 17  2  0
 17 18  1  0
 18 19  1  0
 19 20  1  0
 19 21  1  0
 19 22  1  0
 18 23  1  0
 23 24  1  0
 23 25  1  0
 23 26  1  0
 18 27  1  0
 27 28  1  0
 27 29  1  0
 27 30  1  0
 17 31  1  0
  7 32  1  0
 32 33  1  0
 32 34  2  0
 34 35  1  0
 34  2  1  0
 31 14  1  0
M  CHG  1  15  -1
M  END
>  <UniqueID>  (87) 
81

>  <SMILES>  (87) 
CC(C)(C)c1n[n-]/c(=N/C(=O)Cc2c(F)cccc2Cl)s1

>  <Energy>  (87) 
68.26515427549583

>  <Genealogy>  (87) 
CC(C)(C)c1n[n-]c(=NC(=O)Cc2c(F)cccc2Cl)s1 (protonated)
CC(C)(C)c1n[n-]/c(=N/C(=O)Cc2c(F)cccc2Cl)s1 (cis-trans isomerization)
CC(C)(C)c1n[n-]/c(=N/C(=O)Cc2c(F)cccc2Cl)s1 (3D coordinates assigned)
CC(C)(C)c1n[n-]/c(=N/C(=O)Cc2c(F)cccc2Cl)s1 (optimized conformer: 68.26515427549583 kcal/mol)

>  <smiles>  (87) 
CC(C)(C)c1n[nH]c(=NC(=O)Cc2c(F)cccc2Cl)s1

>  <score_type>  (87) 
oracle

>  <origin>  (87) 
adg

>  <m_score__min__energy>  (87) 
-10.34

>  <m_primary>  (87) 
energy

$$$$
87:0
     RDKit          3D

 60 63  0  0  0  0  0  0  0  0999 V2000
   57.7910   27.8450   43.4410 C   0  0  0  0  0  0  0  0  0  0  0  0
   58.2930   28.0740   44.8410 C   0  0  0  0  0  0  0  0  0  0  0  0
   59.2680   27.2040   45.3570 C   0  0  0  0  0  0  0  0  0  0  0  0
   59.8180   27.4220   46.6250 C   0  0  0  0  0  0  0  0  0  0  0  0
   59.4050   28.5140   47.3890 C   0  0  0  0  0  0  0  0  0  0  0  0
   60.1160   28.8020   48.9690 Cl  0  0  0  0  0  0  0  0  0  0  0  0
   58.4170   29.3730   46.9010 C   0  0  0  0  0  0  0  0  0  0  0  0
   57.8270   29.1430   45.6490 C   0  0  0  0  0  0  0  0  0  0  0  0
   56.7890   30.0350   45.2180 N   0  0  0  0  0  0  0  0  0  0  0  0
   56.9980   31.1660   44.3610 C   0  0  0  0  0  0  0  0  0  0  0  0
   57.0360   31.0170   43.1070 O   0  0  0  0  0  0  0  0  0  0  0  0
   57.2030   32.5300   44.9700 C   0  0  0  0  0  0  0  0  0  0  0  0
   57.7870   32.4130   46.3980 C   0  0  0  0  0  0  0  0  0  0  0  0
   59.3050   32.6300   46.3990 C   0  0  0  0  0  0  0  0  0  0  0  0
   59.6890   33.9760   45.8950 N   0  0  0  0  0  0  0  0  0  0  0  0
   59.9070   34.9290   47.0050 C   0  0  0  0  0  0  0  0  0  0  0  0
   60.4570   34.2230   48.2180 C   0  0  0  0  0  0  0  0  0  0  0  0
   61.8440   34.1130   48.3990 C   0  0  0  0  0  0  0  0  0  0  0  0
   62.3580   33.4820   49.5350 C   0  0  0  0  0  0  0  0  0  0  0  0
   61.4930   32.9560   50.4980 C   0  0  0  0  0  0  0  0  0  0  0  0
   60.1000   33.0530   50.3280 C   0  0  0  0  0  0  0  0  0  0  0  0
   59.1910   32.5510   51.3200 N   0  0  0  0  0  0  0  0  0  0  0  0
   58.2330   31.5070   51.0660 C   0  0  0  0  0  0  0  0  0  0  0  0
   58.1420   31.0090   49.9130 O   0  0  0  0  0  0  0  0  0  0  0  0
   57.3300   31.0100   52.1350 C   0  0  0  0  0  0  0  0  0  0  0  0
   57.8030   30.7430   53.4360 C   0  0  0  0  0  0  0  0  0  0  0  0
   56.9300   30.2940   54.4300 C   0  0  0  0  0  0  0  0  0  0  0  0
   55.5740   30.1100   54.1440 C   0  0  0  0  0  0  0  0  0  0  0  0
   54.4800   29.5510   55.3960 Cl  0  0  0  0  0  0  0  0  0  0  0  0
   55.0910   30.3820   52.8610 C   0  0  0  0  0  0  0  0  0  0  0  0
   55.9610   30.8320   51.8640 C   0  0  0  0  0  0  0  0  0  0  0  0
   59.5910   33.7050   49.1950 C   0  0  0  0  0  0  0  0  0  0  0  0
   58.7500   34.5320   44.8820 C   0  0  0  0  0  0  0  0  0  0  0  0
   58.0680   33.4330   44.0590 C   0  0  0  0  0  0  0  0  0  0  0  0
   56.7908   27.3888   43.4801 H   0  0  0  0  0  0  0  0  0  0  0  0
   57.7348   28.8066   42.9097 H   0  0  0  0  0  0  0  0  0  0  0  0
   58.4804   27.1723   42.9097 H   0  0  0  0  0  0  0  0  0  0  0  0
   59.6021   26.3435   44.7587 H   0  0  0  0  0  0  0  0  0  0  0  0
   60.5774   26.7312   47.0202 H   0  0  0  0  0  0  0  0  0  0  0  0
   58.0991   30.2368   47.5034 H   0  0  0  0  0  0  0  0  0  0  0  0
   56.2203   33.0168   45.0557 H   0  0  0  0  0  0  0  0  0  0  0  0
   57.3163   33.1714   47.0408 H   0  0  0  0  0  0  0  0  0  0  0  0
   57.5809   31.4005   46.7754 H   0  0  0  0  0  0  0  0  0  0  0  0
   59.6763   32.5198   47.4286 H   0  0  0  0  0  0  0  0  0  0  0  0
   59.7497   31.8820   45.7261 H   0  0  0  0  0  0  0  0  0  0  0  0
   60.6214   35.7007   46.6824 H   0  0  0  0  0  0  0  0  0  0  0  0
   58.9426   35.3863   47.2709 H   0  0  0  0  0  0  0  0  0  0  0  0
   62.5295   34.5250   47.6438 H   0  0  0  0  0  0  0  0  0  0  0  0
   63.4464   33.3992   49.6714 H   0  0  0  0  0  0  0  0  0  0  0  0
   61.9029   32.4642   51.3925 H   0  0  0  0  0  0  0  0  0  0  0  0
   59.1900   33.0380   52.2450 H   0  0  0  0  0  0  0  0  0  0  0  0
   58.8678   30.8894   53.6703 H   0  0  0  0  0  0  0  0  0  0  0  0
   57.3107   30.0847   55.4406 H   0  0  0  0  0  0  0  0  0  0  0  0
   54.0236   30.2416   52.6354 H   0  0  0  0  0  0  0  0  0  0  0  0
   55.5718   31.0490   50.8583 H   0  0  0  0  0  0  0  0  0  0  0  0
   58.5033   33.8116   49.0705 H   0  0  0  0  0  0  0  0  0  0  0  0
   57.9766   35.1180   45.4000 H   0  0  0  0  0  0  0  0  0  0  0  0
   59.3320   35.1592   44.1907 H   0  0  0  0  0  0  0  0  0  0  0  0
   57.4262   33.8979   43.2961 H   0  0  0  0  0  0  0  0  0  0  0  0
   58.8423   32.8161   43.5794 H   0  0  0  0  0  0  0  0  0  0  0  0
  1  2  1  0
  2  3  2  0
  3  4  1  0
  4  5  2  0
  5  6  1  0
  5  7  1  0
  7  8  2  0
  8  9  1  0
  9 10  1  0
 10 11  2  0
 10 12  1  0
 12 13  1  0
 13 14  1  0
 14 15  1  0
 15 16  1  0
 16 17  1  0
 17 18  2  0
 18 19  1  0
 19 20  2  0
 20 21  1  0
 21 22  1  0
 22 23  1  0
 23 24  2  0
 23 25  1  0
 25 26  2  0
 26 27  1  0
 27 28  2  0
 28 29  1  0
 28 30  1  0
 30 31  2  0
 21 32  2  0
 15 33  1  0
 33 34  1  0
  8  2  1  0
 34 12  1  0
 32 17  1  0
 31 25  1  0
  1 35  1  0
  1 36  1  0
  1 37  1  0
  3 38  1  0
  4 39  1  0
  7 40  1  0
 12 41  1  0
 13 42  1  0
 13 43  1  0
 14 44  1  0
 14 45  1  0
 16 46  1  0
 16 47  1  0
 18 48  1  0
 19 49  1  0
 20 50  1  0
 22 51  1  0
 26 52  1  0
 27 53  1  0
 30 54  1  0
 31 55  1  0
 32 56  1  0
 33 57  1  0
 33 58  1  0
 34 59  1  0
 34 60  1  0
M  CHG  1   9  -1
M  END
>  <UniqueID>  (88) 
82

>  <SMILES>  (88) 
Cc1ccc(Cl)cc1[N-]C(=O)C1CCN(Cc2cccc(NC(=O)c3ccc(Cl)cc3)c2)CC1

>  <Energy>  (88) 
85.26175888458283

>  <Genealogy>  (88) 
Cc1ccc(Cl)cc1[N-]C(=O)C1CCN(Cc2cccc(NC(=O)c3ccc(Cl)cc3)c2)CC1 (protonated)
Cc1ccc(Cl)cc1[N-]C(=O)C1CCN(Cc2cccc(NC(=O)c3ccc(Cl)cc3)c2)CC1 (3D coordinates assigned)
Cc1ccc(Cl)cc1[N-]C(=O)C1CCN(Cc2cccc(NC(=O)c3ccc(Cl)cc3)c2)CC1 (nonaromatic ring conformer: 85.26175888458283 kcal/mol)

>  <smiles>  (88) 
Cc1ccc(Cl)cc1NC(=O)C1CCN(Cc2cccc(NC(=O)c3ccc(Cl)cc3)c2)CC1

>  <score_type>  (88) 
oracle

>  <origin>  (88) 
adg

>  <m_score__min__energy>  (88) 
-11.66

>  <m_primary>  (88) 
energy

$$$$
88:0
     RDKit          3D

 53 56  0  0  0  0  0  0  0  0999 V2000
   60.4790   26.4080   46.3110 C   0  0  0  0  0  0  0  0  0  0  0  0
   59.0030   26.2430   46.5070 C   0  0  0  0  0  0  0  0  0  0  0  0
   58.3370   25.0340   46.5210 C   0  0  0  0  0  0  0  0  0  0  0  0
   57.0040   25.3780   46.6690 C   0  0  0  0  0  0  0  0  0  0  0  0
   55.8490   24.4610   46.7010 C   0  0  0  0  0  0  0  0  0  0  0  0
   54.7960   24.8000   46.0980 O   0  0  0  0  0  0  0  0  0  0  0  0
   55.8820   23.1890   47.4570 C   0  0  0  0  0  0  0  0  0  0  0  0
   54.8320   22.7870   48.0240 O   0  0  0  0  0  0  0  0  0  0  0  0
   57.0580   22.3720   47.5470 N   0  0  0  0  0  0  0  0  0  0  0  0
   57.3970   21.2240   46.7070 C   0  0  0  0  0  0  0  0  0  0  0  0
   58.1940   21.6740   45.4800 C   0  0  0  0  0  0  0  0  0  0  0  0
   57.2960   22.0330   44.3360 C   0  0  0  0  0  0  0  0  0  0  0  0
   56.6720   21.1500   43.4870 C   0  0  0  0  0  0  0  0  0  0  0  0
   55.9110   21.8430   42.6230 N   0  0  0  0  0  0  0  0  0  0  0  0
   56.0980   23.1310   42.9800 C   0  0  0  0  0  0  0  0  0  0  0  0
   56.9320   23.2890   44.0290 N   0  0  0  0  0  0  0  0  0  0  0  0
   56.8850   26.7190   46.7350 N   0  0  0  0  0  0  0  0  0  0  0  0
   58.1000   27.2390   46.6550 N   0  0  0  0  0  0  0  0  0  0  0  0
   58.3430   28.6560   46.6860 C   0  0  0  0  0  0  0  0  0  0  0  0
   58.9320   29.2640   47.8060 C   0  0  0  0  0  0  0  0  0  0  0  0
   59.1450   30.6450   47.8310 C   0  0  0  0  0  0  0  0  0  0  0  0
   58.7640   31.4440   46.7390 C   0  0  0  0  0  0  0  0  0  0  0  0
   58.9770   32.8680   46.7590 N   0  0  0  0  0  0  0  0  0  0  0  0
   59.5150   33.5100   47.9630 C   0  0  0  0  0  0  0  0  0  0  0  0
   60.3770   34.7140   47.5730 C   0  0  0  0  0  0  0  0  0  0  0  0
   59.6500   35.6220   46.6750 N   0  0  0  0  0  0  0  0  0  0  0  0
   59.2440   34.9270   45.4450 C   0  0  0  0  0  0  0  0  0  0  0  0
   58.3410   33.7270   45.7550 C   0  0  0  0  0  0  0  0  0  0  0  0
   58.1530   30.8370   45.6300 C   0  0  0  0  0  0  0  0  0  0  0  0
   57.9390   29.4560   45.6080 C   0  0  0  0  0  0  0  0  0  0  0  0
   60.9751   26.4635   47.2912 H   0  0  0  0  0  0  0  0  0  0  0  0
   60.8726   25.5483   45.7489 H   0  0  0  0  0  0  0  0  0  0  0  0
   60.6731   27.3334   45.7489 H   0  0  0  0  0  0  0  0  0  0  0  0
   58.7678   24.0256   46.4342 H   0  0  0  0  0  0  0  0  0  0  0  0
   58.0014   20.5142   47.2909 H   0  0  0  0  0  0  0  0  0  0  0  0
   56.4670   20.7428   46.3701 H   0  0  0  0  0  0  0  0  0  0  0  0
   58.7966   22.5538   45.7496 H   0  0  0  0  0  0  0  0  0  0  0  0
   58.8353   20.8385   45.1629 H   0  0  0  0  0  0  0  0  0  0  0  0
   56.7782   20.0554   43.5110 H   0  0  0  0  0  0  0  0  0  0  0  0
   55.6153   23.9739   42.4637 H   0  0  0  0  0  0  0  0  0  0  0  0
   59.2277   28.6496   48.6692 H   0  0  0  0  0  0  0  0  0  0  0  0
   59.6138   31.1097   48.7109 H   0  0  0  0  0  0  0  0  0  0  0  0
   58.6831   33.8480   48.5984 H   0  0  0  0  0  0  0  0  0  0  0  0
   60.1337   32.7856   48.5130 H   0  0  0  0  0  0  0  0  0  0  0  0
   60.6606   35.2618   48.4838 H   0  0  0  0  0  0  0  0  0  0  0  0
   61.2700   34.3460   47.0465 H   0  0  0  0  0  0  0  0  0  0  0  0
   58.7950   35.9730   47.1660 H   0  0  0  0  0  0  0  0  0  0  0  0
   58.6966   35.6302   44.8002 H   0  0  0  0  0  0  0  0  0  0  0  0
   60.1490   34.5590   44.9394 H   0  0  0  0  0  0  0  0  0  0  0  0
   57.3763   34.0872   46.1419 H   0  0  0  0  0  0  0  0  0  0  0  0
   58.1802   33.1481   44.8336 H   0  0  0  0  0  0  0  0  0  0  0  0
   57.8408   31.4522   44.7732 H   0  0  0  0  0  0  0  0  0  0  0  0
   57.4498   28.9933   44.7382 H   0  0  0  0  0  0  0  0  0  0  0  0
  1  2  1  0
  2  3  2  0
  3  4  1  0
  4  5  1  0
  5  6  2  0
  5  7  1  0
  7  8  2  0
  7  9  1  0
  9 10  1  0
 10 11  1  0
 11 12  1  0
 12 13  2  0
 13 14  1  0
 14 15  1  0
 15 16  2  0
  4 17  2  0
 17 18  1  0
 18 19  1  0
 19 20  2  0
 20 21  1  0
 21 22  2  0
 22 23  1  0
 23 24  1  0
 24 25  1  0
 25 26  1  0
 26 27  1  0
 27 28  1  0
 22 29  1  0
 29 30  2  0
 18  2  1  0
 30 19  1  0
 16 12  1  0
 28 23  1  0
  1 31  1  0
  1 32  1  0
  1 33  1  0
  3 34  1  0
 10 35  1  0
 10 36  1  0
 11 37  1  0
 11 38  1  0
 13 39  1  0
 15 40  1  0
 20 41  1  0
 21 42  1  0
 24 43  1  0
 24 44  1  0
 25 45  1  0
 25 46  1  0
 26 47  1  0
 27 48  1  0
 27 49  1  0
 28 50  1  0
 28 51  1  0
 29 52  1  0
 30 53  1  0
M  CHG  2   9  -1  14  -1
M  END
>  <UniqueID>  (89) 
83

>  <SMILES>  (89) 
Cc1cc(C(=O)C(=O)[N-]CCc2c[n-]cn2)nn1-c1ccc(N2CCNCC2)cc1

>  <Energy>  (89) 
121.23296412489614

>  <Genealogy>  (89) 
Cc1cc(C(=O)C(=O)[N-]CCc2c[n-]cn2)nn1-c1ccc(N2CCNCC2)cc1 (protonated)
Cc1cc(C(=O)C(=O)[N-]CCc2c[n-]cn2)nn1-c1ccc(N2CCNCC2)cc1 (3D coordinates assigned)
Cc1cc(C(=O)C(=O)[N-]CCc2c[n-]cn2)nn1-c1ccc(N2CCNCC2)cc1 (nonaromatic ring conformer: 121.23296412489614 kcal/mol)

>  <smiles>  (89) 
Cc1cc(C(=O)C(=O)NCCc2c[nH]cn2)nn1-c1ccc(N2CCNCC2)cc1

>  <score_type>  (89) 
oracle

>  <origin>  (89) 
adg

>  <m_score__min__energy>  (89) 
-12.550000000000001

>  <m_primary>  (89) 
energy

$$$$
89:0
     RDKit          3D

 63 67  0  0  0  0  0  0  0  0999 V2000
   58.4690   27.1700   44.1710 C   0  0  0  0  0  0  0  0  0  0  0  0
   58.4470   27.8230   45.3460 C   0  0  0  0  0  0  0  0  0  0  0  0
   58.7640   29.1950   45.3300 C   0  0  0  0  0  0  0  0  0  0  0  0
   59.0310   29.8830   46.5110 C   0  0  0  0  0  0  0  0  0  0  0  0
   59.0170   29.2130   47.7360 C   0  0  0  0  0  0  0  0  0  0  0  0
   59.3230   29.9600   49.0090 C   0  0  0  0  0  0  0  0  0  0  0  0
   60.7860   29.8750   49.3480 C   0  0  0  0  0  0  0  0  0  0  0  0
   61.2350   28.8320   49.9010 O   0  0  0  0  0  0  0  0  0  0  0  0
   61.6850   30.9560   49.0310 N   0  0  0  0  0  0  0  0  0  0  0  0
   61.6330   31.6110   47.7200 C   0  0  0  0  0  0  0  0  0  0  0  0
   61.7810   33.1070   47.8760 C   0  0  0  0  0  0  0  0  0  0  0  0
   61.2440   33.9750   46.9920 C   0  0  0  0  0  0  0  0  0  0  0  0
   59.8330   33.9660   46.5490 C   0  0  0  0  0  0  0  0  0  0  0  0
   59.5210   34.4020   45.2510 C   0  0  0  0  0  0  0  0  0  0  0  0
   58.1980   34.3760   44.7980 C   0  0  0  0  0  0  0  0  0  0  0  0
   57.1820   33.8960   45.6280 C   0  0  0  0  0  0  0  0  0  0  0  0
   57.4880   33.4320   46.9100 C   0  0  0  0  0  0  0  0  0  0  0  0
   58.8090   33.4560   47.3680 C   0  0  0  0  0  0  0  0  0  0  0  0
   62.5590   33.6170   49.0380 C   0  0  0  0  0  0  0  0  0  0  0  0
   62.7690   34.8580   49.1560 O   0  0  0  0  0  0  0  0  0  0  0  0
   63.0950   32.6760   50.0600 C   0  0  0  0  0  0  0  0  0  0  0  0
   63.7690   33.1570   51.1270 C   0  0  0  0  0  0  0  0  0  0  0  0
   65.1990   33.5350   51.1200 C   0  0  0  0  0  0  0  0  0  0  0  0
   66.1000   32.7910   50.3420 C   0  0  0  0  0  0  0  0  0  0  0  0
   67.4610   33.1110   50.3400 C   0  0  0  0  0  0  0  0  0  0  0  0
   67.9340   34.1630   51.1280 C   0  0  0  0  0  0  0  0  0  0  0  0
   67.0490   34.8900   51.9280 C   0  0  0  0  0  0  0  0  0  0  0  0
   65.6860   34.5740   51.9320 C   0  0  0  0  0  0  0  0  0  0  0  0
   62.8620   31.1930   49.8710 C   0  0  0  0  0  0  0  0  0  0  0  0
   58.6310   27.8670   47.7800 C   0  0  0  0  0  0  0  0  0  0  0  0
   58.2570   27.1700   46.6090 C   0  0  0  0  0  0  0  0  0  0  0  0
   57.7140   25.9370   46.7790 C   0  0  0  0  0  0  0  0  0  0  0  0
   56.3240   25.5510   46.4710 C   0  0  0  0  0  0  0  0  0  0  0  0
   55.8310   24.2990   46.5620 N   0  0  0  0  0  0  0  0  0  0  0  0
   54.5760   24.4230   46.0780 C   0  0  0  0  0  0  0  0  0  0  0  0
   53.7770   23.4520   46.0110 O   0  0  0  0  0  0  0  0  0  0  0  0
   54.2480   25.6650   45.6620 N   0  0  0  0  0  0  0  0  0  0  0  0
   55.3690   26.3630   45.9070 C   0  0  0  0  0  0  0  0  0  0  0  0
   55.5190   27.7140   45.6170 O   0  0  0  0  0  0  0  0  0  0  0  0
   58.2285   26.0973   44.1333 H   0  0  0  0  0  0  0  0  0  0  0  0
   58.7275   27.7084   43.2473 H   0  0  0  0  0  0  0  0  0  0  0  0
   58.8013   29.7313   44.3703 H   0  0  0  0  0  0  0  0  0  0  0  0
   59.2540   30.9597   46.4787 H   0  0  0  0  0  0  0  0  0  0  0  0
   59.0445   31.0165   48.8815 H   0  0  0  0  0  0  0  0  0  0  0  0
   58.7473   29.5048   49.8284 H   0  0  0  0  0  0  0  0  0  0  0  0
   62.4503   31.2290   47.0906 H   0  0  0  0  0  0  0  0  0  0  0  0
   60.6627   31.3941   47.2494 H   0  0  0  0  0  0  0  0  0  0  0  0
   61.9052   34.7462   46.5700 H   0  0  0  0  0  0  0  0  0  0  0  0
   60.3201   34.7653   44.5881 H   0  0  0  0  0  0  0  0  0  0  0  0
   57.9570   34.7342   43.7862 H   0  0  0  0  0  0  0  0  0  0  0  0
   56.1412   33.8833   45.2723 H   0  0  0  0  0  0  0  0  0  0  0  0
   56.6884   33.0472   47.5600 H   0  0  0  0  0  0  0  0  0  0  0  0
   59.0483   33.0749   48.3718 H   0  0  0  0  0  0  0  0  0  0  0  0
   63.2144   33.2763   52.0694 H   0  0  0  0  0  0  0  0  0  0  0  0
   65.7336   31.9526   49.7313 H   0  0  0  0  0  0  0  0  0  0  0  0
   68.1602   32.5337   49.7172 H   0  0  0  0  0  0  0  0  0  0  0  0
   69.0037   34.4191   51.1186 H   0  0  0  0  0  0  0  0  0  0  0  0
   67.4242   35.7119   52.5555 H   0  0  0  0  0  0  0  0  0  0  0  0
   64.9936   35.1402   52.5723 H   0  0  0  0  0  0  0  0  0  0  0  0
   63.7449   30.7474   49.3894 H   0  0  0  0  0  0  0  0  0  0  0  0
   62.6916   30.7337   50.8559 H   0  0  0  0  0  0  0  0  0  0  0  0
   58.6188   27.3417   48.7464 H   0  0  0  0  0  0  0  0  0  0  0  0
   58.3715   25.1536   47.1838 H   0  0  0  0  0  0  0  0  0  0  0  0
  1  2  2  0
  2  3  1  0
  3  4  2  0
  4  5  1  0
  5  6  1  0
  6  7  1  0
  7  8  2  0
  7  9  1  0
  9 10  1  0
 10 11  1  0
 11 12  2  3
 12 13  1  0
 13 14  2  0
 14 15  1  0
 15 16  2  0
 16 17  1  0
 17 18  2  0
 11 19  1  0
 19 20  2  0
 19 21  1  0
 21 22  2  3
 22 23  1  0
 23 24  2  0
 24 25  1  0
 25 26  2  0
 26 27  1  0
 27 28  2  0
 21 29  1  0
  5 30  2  0
 30 31  1  0
 31 32  2  3
 32 33  1  0
 33 34  1  0
 34 35  1  0
 35 36  2  0
 35 37  1  0
 37 38  1  0
 38 39  1  0
 31  2  1  0
 38 33  2  0
 29  9  1  0
 18 13  1  0
 28 23  1  0
  1 40  1  0
  1 41  1  0
  3 42  1  0
  4 43  1  0
  6 44  1  0
  6 45  1  0
 10 46  1  0
 10 47  1  0
 12 48  1  0
 14 49  1  0
 15 50  1  0
 16 51  1  0
 17 52  1  0
 18 53  1  0
 22 54  1  0
 24 55  1  0
 25 56  1  0
 26 57  1  0
 27 58  1  0
 28 59  1  0
 29 60  1  0
 29 61  1  0
 30 62  1  0
 32 63  1  0
M  CHG  3  34  -1  37  -1  39  -1
M  END
>  <UniqueID>  (90) 
84

>  <SMILES>  (90) 
C=c1ccc(CC(=O)N2CC(=Cc3ccccc3)C(=O)C(=Cc3ccccc3)C2)cc1=Cc1[n-]c(=O)[n-]c1[O-]

>  <Energy>  (90) 
136.10013667711783

>  <Genealogy>  (90) 
C=c1ccc(CC(=O)N2CC(=Cc3ccccc3)C(=O)C(=Cc3ccccc3)C2)cc1=Cc1[n-]c(=O)[n-]c1[O-] (protonated)
C=c1ccc(CC(=O)N2CC(=Cc3ccccc3)C(=O)C(=Cc3ccccc3)C2)cc1=Cc1[n-]c(=O)[n-]c1[O-] (3D coordinates assigned)
C=c1ccc(CC(=O)N2CC(=Cc3ccccc3)C(=O)C(=Cc3ccccc3)C2)cc1=Cc1[n-]c(=O)[n-]c1[O-] (nonaromatic ring conformer: 136.10013667711783 kcal/mol)

>  <smiles>  (90) 
C=c1ccc(CC(=O)N2CC(=Cc3ccccc3)C(=O)C(=Cc3ccccc3)C2)cc1=Cc1[nH]c(=O)[nH]c1O

>  <score_type>  (90) 
oracle

>  <origin>  (90) 
adg

>  <m_score__min__energy>  (90) 
-20.550000000000001

>  <m_primary>  (90) 
energy

$$$$
