0:0
     RDKit          3D

 61 64  0  0  0  0  0  0  0  0999 V2000
   55.9370   21.9990   42.5970 N   0  0  0  0  0  0  0  0  0  0  0  0
   55.9520   22.9670   43.4570 C   0  0  0  0  0  0  0  0  0  0  0  0
   54.7750   23.3800   44.0980 C   0  0  0  0  0  0  0  0  0  0  0  0
   54.8300   24.4200   45.0270 C   0  0  0  0  0  0  0  0  0  0  0  0
   56.0500   25.0550   45.3000 C   0  0  0  0  0  0  0  0  0  0  0  0
   56.1170   26.1710   46.3040 C   0  0  0  0  0  0  0  0  0  0  0  0
   55.9650   27.4540   45.6300 N   0  0  0  0  0  0  0  0  0  0  0  0
   57.0230   28.1110   44.9260 C   0  0  0  0  0  0  0  0  0  0  0  0
   57.7800   27.4600   44.1560 O   0  0  0  0  0  0  0  0  0  0  0  0
   57.2370   29.5810   45.1210 C   0  0  0  0  0  0  0  0  0  0  0  0
   58.7060   29.9120   45.4150 C   0  0  0  0  0  0  0  0  0  0  0  0
   59.0250   29.7980   46.8840 C   0  0  0  0  0  0  0  0  0  0  0  0
   58.8880   30.8980   47.6750 N   0  0  0  0  0  0  0  0  0  0  0  0
   59.1220   30.8760   49.0150 C   0  0  0  0  0  0  0  0  0  0  0  0
   58.9540   31.9770   49.6890 N   0  0  0  0  0  0  0  0  0  0  0  0
   60.1350   33.2260   49.9440 S   0  0  0  0  0  0  0  0  0  0  0  0
   60.6650   33.1180   51.3470 O   0  0  0  0  0  0  0  0  0  0  0  0
   59.4730   34.5650   49.7790 O   0  0  0  0  0  0  0  0  0  0  0  0
   61.4440   33.0960   48.7660 C   0  0  0  0  0  0  0  0  0  0  0  0
   62.4310   32.1130   48.9350 C   0  0  0  0  0  0  0  0  0  0  0  0
   63.4700   31.9910   48.0110 C   0  0  0  0  0  0  0  0  0  0  0  0
   63.5340   32.8500   46.9130 C   0  0  0  0  0  0  0  0  0  0  0  0
   62.5590   33.8350   46.7380 C   0  0  0  0  0  0  0  0  0  0  0  0
   61.5070   33.9710   47.6640 C   0  0  0  0  0  0  0  0  0  0  0  0
   60.5110   34.9540   47.5230 O   0  0  0  0  0  0  0  0  0  0  0  0
   60.0120   35.4600   46.2850 C   0  0  0  0  0  0  0  0  0  0  0  0
   59.0770   34.4760   45.6470 C   0  0  0  0  0  0  0  0  0  0  0  0
   57.9580   34.0000   46.3460 C   0  0  0  0  0  0  0  0  0  0  0  0
   57.1060   33.0810   45.7300 C   0  0  0  0  0  0  0  0  0  0  0  0
   57.3780   32.6430   44.4330 C   0  0  0  0  0  0  0  0  0  0  0  0
   58.5070   33.1320   43.7690 C   0  0  0  0  0  0  0  0  0  0  0  0
   59.3240   34.0270   44.3850 N   0  0  0  0  0  0  0  0  0  0  0  0
   59.5330   29.6730   49.6170 C   0  0  0  0  0  0  0  0  0  0  0  0
   59.6850   28.5300   48.8320 C   0  0  0  0  0  0  0  0  0  0  0  0
   59.4180   28.5770   47.4610 C   0  0  0  0  0  0  0  0  0  0  0  0
   59.5380   27.4250   46.6840 O   0  0  0  0  0  0  0  0  0  0  0  0
   57.2060   24.6010   44.6480 C   0  0  0  0  0  0  0  0  0  0  0  0
   57.1300   23.5820   43.7500 N   0  0  0  0  0  0  0  0  0  0  0  0
   56.1500   22.1450   41.5850 H   0  0  0  0  0  0  0  0  0  0  0  0
   53.8174   22.8888   43.8707 H   0  0  0  0  0  0  0  0  0  0  0  0
   53.9150   24.7420   45.5458 H   0  0  0  0  0  0  0  0  0  0  0  0
   55.3094   26.0480   47.0406 H   0  0  0  0  0  0  0  0  0  0  0  0
   57.0918   26.1424   46.8129 H   0  0  0  0  0  0  0  0  0  0  0  0
   56.9297   30.1094   44.2065 H   0  0  0  0  0  0  0  0  0  0  0  0
   56.6362   29.9010   45.9851 H   0  0  0  0  0  0  0  0  0  0  0  0
   59.3465   29.2134   44.8568 H   0  0  0  0  0  0  0  0  0  0  0  0
   58.8895   30.9516   45.1061 H   0  0  0  0  0  0  0  0  0  0  0  0
   62.3857   31.4351   49.8001 H   0  0  0  0  0  0  0  0  0  0  0  0
   64.2393   31.2169   48.1484 H   0  0  0  0  0  0  0  0  0  0  0  0
   64.3527   32.7514   46.1849 H   0  0  0  0  0  0  0  0  0  0  0  0
   62.6135   34.5092   45.8706 H   0  0  0  0  0  0  0  0  0  0  0  0
   59.4737   36.4012   46.4706 H   0  0  0  0  0  0  0  0  0  0  0  0
   60.8603   35.6322   45.6063 H   0  0  0  0  0  0  0  0  0  0  0  0
   57.7536   34.3473   47.3695 H   0  0  0  0  0  0  0  0  0  0  0  0
   56.2226   32.7032   46.2656 H   0  0  0  0  0  0  0  0  0  0  0  0
   56.7114   31.9210   43.9387 H   0  0  0  0  0  0  0  0  0  0  0  0
   58.7343   32.7924   42.7477 H   0  0  0  0  0  0  0  0  0  0  0  0
   59.7329   29.6339   50.6980 H   0  0  0  0  0  0  0  0  0  0  0  0
   60.0162   27.5882   49.2938 H   0  0  0  0  0  0  0  0  0  0  0  0
   58.8190   27.1530   46.0250 H   0  0  0  0  0  0  0  0  0  0  0  0
   58.1772   25.0705   44.8635 H   0  0  0  0  0  0  0  0  0  0  0  0
  1  2  2  3
  2  3  1  0
  3  4  2  0
  4  5  1  0
  5  6  1  0
  6  7  1  0
  7  8  1  0
  8  9  2  0
  8 10  1  0
 10 11  1  0
 11 12  1  0
 12 13  1  0
 13 14  1  0
 14 15  2  3
 15 16  1  0
 16 17  2  0
 16 18  2  0
 16 19  1  0
 19 20  2  0
 20 21  1  0
 21 22  2  0
 22 23  1  0
 23 24  2  0
 24 25  1  0
 25 26  1  0
 26 27  1  0
 27 28  2  0
 28 29  1  0
 29 30  2  0
 30 31  1  0
 31 32  2  0
 14 33  1  0
 33 34  2  0
 34 35  1  0
 35 36  1  0
  5 37  2  0
 37 38  1  0
 38  2  1  0
 35 12  2  0
 24 19  1  0
 32 27  1  0
  1 39  1  0
  3 40  1  0
  4 41  1  0
  6 42  1  0
  6 43  1  0
 10 44  1  0
 10 45  1  0
 11 46  1  0
 11 47  1  0
 20 48  1  0
 21 49  1  0
 22 50  1  0
 23 51  1  0
 26 52  1  0
 26 53  1  0
 28 54  1  0
 29 55  1  0
 30 56  1  0
 31 57  1  0
 33 58  1  0
 34 59  1  0
 36 60  1  0
 37 61  1  0
M  CHG  3   7  -1  13  -1  38  -1
M  END
>  <UniqueID>  (1) 
1

>  <SMILES>  (1) 
N=c1ccc(C[N-]C(=O)CCc2[n-]c(=NS(=O)(=O)c3ccccc3OCc3ccccn3)ccc2O)c[n-]1

>  <Energy>  (1) 
62.12243179576547

>  <Genealogy>  (1) 
N=c1ccc(C[N-]C(=O)CCc2[n-]c(=NS(=O)(=O)c3ccccc3OCc3ccccn3)ccc2O)c[n-]1 (protonated)
N=c1ccc(C[N-]C(=O)CCc2[n-]c(=NS(=O)(=O)c3ccccc3OCc3ccccn3)ccc2O)c[n-]1 (3D coordinates assigned)
N=c1ccc(C[N-]C(=O)CCc2[n-]c(=NS(=O)(=O)c3ccccc3OCc3ccccn3)ccc2O)c[n-]1 (optimized conformer: 62.12243179576547 kcal/mol)

>  <smiles>  (1) 
N=c1ccc(CNC(=O)CCc2[nH]c(=NS(=O)(=O)c3ccccc3OCc3ccccn3)ccc2O)c[nH]1

>  <score_type>  (1) 
oracle

>  <origin>  (1) 
adg

>  <m_score__min__energy>  (1) 
-14.41

>  <m_primary>  (1) 
energy

$$$$
1:0
     RDKit          3D

 65 70  0  0  0  0  0  0  0  0999 V2000
   59.6830   34.7230   46.6660 N   0  0  0  0  0  0  0  0  0  0  0  0
   58.9050   33.8110   46.1930 C   0  0  0  0  0  0  0  0  0  0  0  0
   57.8230   34.2070   45.5250 N   0  0  0  0  0  0  0  0  0  0  0  0
   57.0070   33.2450   45.0160 C   0  0  0  0  0  0  0  0  0  0  0  0
   57.2660   31.9310   45.1700 N   0  0  0  0  0  0  0  0  0  0  0  0
   58.3570   31.5210   45.8420 C   0  0  0  0  0  0  0  0  0  0  0  0
   59.1920   32.4760   46.3630 C   0  0  0  0  0  0  0  0  0  0  0  0
   60.2260   31.8470   46.9950 C   0  0  0  0  0  0  0  0  0  0  0  0
   61.3680   32.3640   47.7270 C   0  0  0  0  0  0  0  0  0  0  0  0
   62.6220   32.2300   47.1570 C   0  0  0  0  0  0  0  0  0  0  0  0
   63.7740   32.6710   47.7690 C   0  0  0  0  0  0  0  0  0  0  0  0
   63.6590   33.2760   49.0150 C   0  0  0  0  0  0  0  0  0  0  0  0
   64.8540   33.7050   49.5910 O   0  0  0  0  0  0  0  0  0  0  0  0
   65.7220   32.8730   50.2660 C   0  0  0  0  0  0  0  0  0  0  0  0
   65.3970   31.6020   50.6450 C   0  0  0  0  0  0  0  0  0  0  0  0
   66.3210   30.8360   51.3160 C   0  0  0  0  0  0  0  0  0  0  0  0
   67.5650   31.3510   51.6040 C   0  0  0  0  0  0  0  0  0  0  0  0
   67.9210   32.6400   51.2320 C   0  0  0  0  0  0  0  0  0  0  0  0
   66.9810   33.3880   50.5610 C   0  0  0  0  0  0  0  0  0  0  0  0
   62.4350   33.4280   49.6120 C   0  0  0  0  0  0  0  0  0  0  0  0
   61.3020   32.9670   48.9540 C   0  0  0  0  0  0  0  0  0  0  0  0
   59.9920   30.4940   46.8380 C   0  0  0  0  0  0  0  0  0  0  0  0
   58.8540   30.2930   46.1360 N   0  0  0  0  0  0  0  0  0  0  0  0
   58.2990   29.0060   45.7840 C   0  0  0  0  0  0  0  0  0  0  0  0
   58.8470   28.4550   44.4850 C   0  0  0  0  0  0  0  0  0  0  0  0
   58.1340   27.1100   44.2890 C   0  0  0  0  0  0  0  0  0  0  0  0
   58.5960   26.1830   45.2740 N   0  0  0  0  0  0  0  0  0  0  0  0
   57.6280   25.2340   45.7340 C   0  0  0  0  0  0  0  0  0  0  0  0
   57.4310   24.0740   44.8250 C   0  0  0  0  0  0  0  0  0  0  0  0
   56.4680   24.0420   43.8380 C   0  0  0  0  0  0  0  0  0  0  0  0
   56.2830   22.9680   42.9930 C   0  0  0  0  0  0  0  0  0  0  0  0
   57.0880   21.8520   43.1160 C   0  0  0  0  0  0  0  0  0  0  0  0
   58.0640   21.8640   44.1030 C   0  0  0  0  0  0  0  0  0  0  0  0
   58.2320   22.9450   44.9340 C   0  0  0  0  0  0  0  0  0  0  0  0
   59.2170   26.7990   46.4160 C   0  0  0  0  0  0  0  0  0  0  0  0
   58.5380   28.0410   46.8990 C   0  0  0  0  0  0  0  0  0  0  0  0
   59.2970   35.4740   47.2720 H   0  0  0  0  0  0  0  0  0  0  0  0
   57.6250   35.2180   45.4080 H   0  0  0  0  0  0  0  0  0  0  0  0
   56.1072   33.5489   44.4611 H   0  0  0  0  0  0  0  0  0  0  0  0
   62.7020   31.7496   46.1707 H   0  0  0  0  0  0  0  0  0  0  0  0
   64.7550   32.5483   47.2867 H   0  0  0  0  0  0  0  0  0  0  0  0
   64.4020   31.1934   50.4149 H   0  0  0  0  0  0  0  0  0  0  0  0
   66.0661   29.8109   51.6230 H   0  0  0  0  0  0  0  0  0  0  0  0
   68.2937   30.7264   52.1414 H   0  0  0  0  0  0  0  0  0  0  0  0
   68.9158   33.0477   51.4646 H   0  0  0  0  0  0  0  0  0  0  0  0
   67.2296   34.4139   50.2514 H   0  0  0  0  0  0  0  0  0  0  0  0
   62.3509   33.9082   50.5981 H   0  0  0  0  0  0  0  0  0  0  0  0
   60.3202   33.0905   49.4344 H   0  0  0  0  0  0  0  0  0  0  0  0
   60.6391   29.6948   47.2284 H   0  0  0  0  0  0  0  0  0  0  0  0
   57.2196   29.1482   45.6270 H   0  0  0  0  0  0  0  0  0  0  0  0
   58.6223   29.1363   43.6512 H   0  0  0  0  0  0  0  0  0  0  0  0
   59.9407   28.3414   44.5143 H   0  0  0  0  0  0  0  0  0  0  0  0
   57.0483   27.2504   44.3970 H   0  0  0  0  0  0  0  0  0  0  0  0
   58.3528   26.7197   43.2841 H   0  0  0  0  0  0  0  0  0  0  0  0
   57.9561   24.8535   46.7125 H   0  0  0  0  0  0  0  0  0  0  0  0
   56.6652   25.7636   45.7833 H   0  0  0  0  0  0  0  0  0  0  0  0
   55.8139   24.9183   43.7188 H   0  0  0  0  0  0  0  0  0  0  0  0
   55.4973   22.9998   42.2238 H   0  0  0  0  0  0  0  0  0  0  0  0
   56.9598   20.9830   42.4539 H   0  0  0  0  0  0  0  0  0  0  0  0
   58.7180   20.9877   44.2225 H   0  0  0  0  0  0  0  0  0  0  0  0
   59.0183   22.9155   45.7026 H   0  0  0  0  0  0  0  0  0  0  0  0
   59.2229   26.0690   47.2388 H   0  0  0  0  0  0  0  0  0  0  0  0
   60.2265   27.0988   46.0982 H   0  0  0  0  0  0  0  0  0  0  0  0
   57.5717   27.7680   47.3481 H   0  0  0  0  0  0  0  0  0  0  0  0
   59.1922   28.5253   47.6389 H   0  0  0  0  0  0  0  0  0  0  0  0
  1  2  2  3
  2  3  1  0
  3  4  1  0
  4  5  2  0
  5  6  1  0
  6  7  2  0
  7  8  1  0
  8  9  1  0
  9 10  2  0
 10 11  1  0
 11 12  2  0
 12 13  1  0
 13 14  1  0
 14 15  2  0
 15 16  1  0
 16 17  2  0
 17 18  1  0
 18 19  2  0
 12 20  1  0
 20 21  2  0
  8 22  2  0
 22 23  1  0
 23 24  1  0
 24 25  1  0
 25 26  1  0
 26 27  1  0
 27 28  1  0
 28 29  1  0
 29 30  2  0
 30 31  1  0
 31 32  2  0
 32 33  1  0
 33 34  2  0
 27 35  1  0
 35 36  1  0
  7  2  1  0
 21  9  1  0
 36 24  1  0
 23  6  1  0
 34 29  1  0
 19 14  1  0
  1 37  1  0
  3 38  1  0
  4 39  1  0
 10 40  1  0
 11 41  1  0
 15 42  1  0
 16 43  1  0
 17 44  1  0
 18 45  1  0
 19 46  1  0
 20 47  1  0
 21 48  1  0
 22 49  1  0
 24 50  1  0
 25 51  1  0
 25 52  1  0
 26 53  1  0
 26 54  1  0
 28 55  1  0
 28 56  1  0
 30 57  1  0
 31 58  1  0
 32 59  1  0
 33 60  1  0
 34 61  1  0
 35 62  1  0
 35 63  1  0
 36 64  1  0
 36 65  1  0
M  END
>  <smiles>  (2) 
N=c1[nH]cnc2c1c(-c1ccc(Oc3ccccc3)cc1)cn2C1CCN(Cc2ccccc2)CC1

>  <score_type>  (2) 
oracle

>  <origin>  (2) 
adg

>  <m_score__min__energy>  (2) 
-9.5999999999999996

>  <m_primary>  (2) 
energy

$$$$
2:0
     RDKit          3D

  9  9  0  0  0  0  0  0  0  0999 V2000
   50.4250   32.4840   48.9910 O   0  0  0  0  0  0  0  0  0  0  0  0
   51.0160   31.9160   49.9470 C   0  0  0  0  0  0  0  0  0  0  0  0
   51.0500   32.4370   51.1920 N   0  0  0  0  0  0  0  0  0  0  0  0
   51.7630   31.5360   51.8900 C   0  0  0  0  0  0  0  0  0  0  0  0
   52.1280   30.5170   51.0470 C   0  0  0  0  0  0  0  0  0  0  0  0
   52.8750   29.4020   51.4100 O   0  0  0  0  0  0  0  0  0  0  0  0
   51.6620   30.7400   49.8070 N   0  0  0  0  0  0  0  0  0  0  0  0
   52.0123   31.6044   52.9592 H   0  0  0  0  0  0  0  0  0  0  0  0
   52.4730   28.4740   51.3590 H   0  0  0  0  0  0  0  0  0  0  0  0
  1  2  2  0
  2  3  1  0
  3  4  1  0
  4  5  2  0
  5  6  1  0
  5  7  1  0
  7  2  1  0
  4  8  1  0
  6  9  1  0
M  CHG  2   3  -1   7  -1
M  END
>  <UniqueID>  (3) 
2

>  <SMILES>  (3) 
O=c1[n-]cc(O)[n-]1

>  <Energy>  (3) 
35.53196832501667

>  <Genealogy>  (3) 
O=c1[n-]cc(O)[n-]1 (protonated)
O=c1[n-]cc(O)[n-]1 (3D coordinates assigned)
O=c1[n-]cc(O)[n-]1 (optimized conformer: 35.53196832501667 kcal/mol)

>  <smiles>  (3) 
O=c1[nH]cc(O)[nH]1

>  <score_type>  (3) 
oracle

>  <origin>  (3) 
adg

>  <m_score__min__energy>  (3) 
-9.25

>  <m_primary>  (3) 
energy

$$$$
3:0
     RDKit          3D

 39 40  0  0  0  0  0  0  0  0999 V2000
   57.3940   25.0970   43.2980 C   0  0  0  0  0  0  0  0  0  0  0  0
   56.3740   24.0210   43.6710 C   0  0  0  0  0  0  0  0  0  0  0  0
   56.9140   23.0460   44.6500 N   0  0  0  0  0  0  0  0  0  0  0  0
   57.3680   21.7630   44.0580 C   0  0  0  0  0  0  0  0  0  0  0  0
   56.6810   21.4080   42.7320 C   0  0  0  0  0  0  0  0  0  0  0  0
   55.9910   22.8510   45.7960 C   0  0  0  0  0  0  0  0  0  0  0  0
   56.5890   23.4610   47.0330 C   0  0  0  0  0  0  0  0  0  0  0  0
   57.3070   22.7410   47.7750 O   0  0  0  0  0  0  0  0  0  0  0  0
   56.3910   24.8360   47.4010 N   0  0  0  0  0  0  0  0  0  0  0  0
   56.9990   25.9920   46.8040 C   0  0  0  0  0  0  0  0  0  0  0  0
   58.3830   26.2120   46.8890 C   0  0  0  0  0  0  0  0  0  0  0  0
   58.9500   27.3570   46.3190 C   0  0  0  0  0  0  0  0  0  0  0  0
   58.1450   28.2720   45.6340 C   0  0  0  0  0  0  0  0  0  0  0  0
   56.7640   28.0350   45.4900 C   0  0  0  0  0  0  0  0  0  0  0  0
   56.1960   26.8900   46.0880 C   0  0  0  0  0  0  0  0  0  0  0  0
   54.8260   26.6580   45.9940 O   0  0  0  0  0  0  0  0  0  0  0  0
   55.8890   29.0840   44.8350 C   0  0  0  0  0  0  0  0  0  0  0  0
   56.6280   29.8690   43.7390 C   0  0  0  0  0  0  0  0  0  0  0  0
   57.9770   30.3090   44.2190 C   0  0  0  0  0  0  0  0  0  0  0  0
   58.4710   31.4000   43.8240 O   0  0  0  0  0  0  0  0  0  0  0  0
   58.7310   29.4580   45.0820 N   0  0  0  0  0  0  0  0  0  0  0  0
   57.8127   25.5387   44.2143 H   0  0  0  0  0  0  0  0  0  0  0  0
   58.2034   24.6454   42.7057 H   0  0  0  0  0  0  0  0  0  0  0  0
   56.8998   25.8811   42.7057 H   0  0  0  0  0  0  0  0  0  0  0  0
   55.4902   24.5084   44.1084 H   0  0  0  0  0  0  0  0  0  0  0  0
   56.1175   23.4694   42.7545 H   0  0  0  0  0  0  0  0  0  0  0  0
   58.4514   21.8290   43.8792 H   0  0  0  0  0  0  0  0  0  0  0  0
   57.1037   20.9714   44.7746 H   0  0  0  0  0  0  0  0  0  0  0  0
   55.7210   20.9119   42.9377 H   0  0  0  0  0  0  0  0  0  0  0  0
   56.5025   22.3267   42.1540 H   0  0  0  0  0  0  0  0  0  0  0  0
   57.3272   20.7309   42.1540 H   0  0  0  0  0  0  0  0  0  0  0  0
   55.0280   23.3357   45.5774 H   0  0  0  0  0  0  0  0  0  0  0  0
   55.8323   21.7748   45.9589 H   0  0  0  0  0  0  0  0  0  0  0  0
   59.0236   25.4819   47.4053 H   0  0  0  0  0  0  0  0  0  0  0  0
   60.0312   27.5376   46.4100 H   0  0  0  0  0  0  0  0  0  0  0  0
   55.0180   28.5853   44.3849 H   0  0  0  0  0  0  0  0  0  0  0  0
   55.5884   29.8008   45.6134 H   0  0  0  0  0  0  0  0  0  0  0  0
   56.7516   29.2256   42.8554 H   0  0  0  0  0  0  0  0  0  0  0  0
   56.0363   30.7603   43.4832 H   0  0  0  0  0  0  0  0  0  0  0  0
  1  2  1  0
  2  3  1  0
  3  4  1  0
  4  5  1  0
  3  6  1  0
  6  7  1  0
  7  8  2  0
  7  9  1  0
  9 10  1  0
 10 11  2  0
 11 12  1  0
 12 13  2  0
 13 14  1  0
 14 15  2  0
 15 16  1  0
 14 17  1  0
 17 18  1  0
 18 19  1  0
 19 20  2  0
 19 21  1  0
 15 10  1  0
 21 13  1  0
  1 22  1  0
  1 23  1  0
  1 24  1  0
  2 25  1  0
  2 26  1  0
  4 27  1  0
  4 28  1  0
  5 29  1  0
  5 30  1  0
  5 31  1  0
  6 32  1  0
  6 33  1  0
 11 34  1  0
 12 35  1  0
 17 36  1  0
 17 37  1  0
 18 38  1  0
 18 39  1  0
M  CHG  3   9  -1  16  -1  21  -1
M  END
>  <UniqueID>  (4) 
3

>  <SMILES>  (4) 
CCN(CC)CC(=O)[N-]c1ccc2c(c1[O-])CCC(=O)[N-]2

>  <Energy>  (4) 
47.28035962778346

>  <Genealogy>  (4) 
CCN(CC)CC(=O)[N-]c1ccc2c(c1[O-])CCC(=O)[N-]2 (protonated)
CCN(CC)CC(=O)[N-]c1ccc2c(c1[O-])CCC(=O)[N-]2 (3D coordinates assigned)
CCN(CC)CC(=O)[N-]c1ccc2c(c1[O-])CCC(=O)[N-]2 (nonaromatic ring conformer: 47.28035962778346 kcal/mol)

>  <smiles>  (4) 
CCN(CC)CC(=O)Nc1ccc2c(c1O)CCC(=O)N2

>  <score_type>  (4) 
oracle

>  <origin>  (4) 
adg

>  <m_score__min__energy>  (4) 
-14.23

>  <m_primary>  (4) 
energy

$$$$
4:0
     RDKit          3D

 45 47  0  0  0  0  0  0  0  0999 V2000
   58.1500   27.0120   43.5710 C   0  0  0  0  0  0  0  0  0  0  0  0
   57.3920   27.8700   44.4880 N   0  0  0  0  0  0  0  0  0  0  0  0
   57.0960   29.2580   44.1000 C   0  0  0  0  0  0  0  0  0  0  0  0
   58.0550   30.2020   44.7560 C   0  0  0  0  0  0  0  0  0  0  0  0
   59.2960   30.0130   44.6320 O   0  0  0  0  0  0  0  0  0  0  0  0
   57.5540   31.2490   45.5950 N   0  0  0  0  0  0  0  0  0  0  0  0
   58.1970   32.5040   45.8640 C   0  0  0  0  0  0  0  0  0  0  0  0
   58.5080   33.4140   44.8380 C   0  0  0  0  0  0  0  0  0  0  0  0
   59.1150   34.6370   45.1410 C   0  0  0  0  0  0  0  0  0  0  0  0
   59.4010   34.9680   46.4680 C   0  0  0  0  0  0  0  0  0  0  0  0
   59.0710   34.0800   47.4960 C   0  0  0  0  0  0  0  0  0  0  0  0
   59.3370   34.4100   48.7840 F   0  0  0  0  0  0  0  0  0  0  0  0
   58.4640   32.8550   47.1960 C   0  0  0  0  0  0  0  0  0  0  0  0
   58.1450   32.0000   48.2010 F   0  0  0  0  0  0  0  0  0  0  0  0
   57.0040   27.3380   45.7770 C   0  0  0  0  0  0  0  0  0  0  0  0
   55.8140   26.9570   45.9600 O   0  0  0  0  0  0  0  0  0  0  0  0
   57.9620   27.2520   46.9340 C   0  0  0  0  0  0  0  0  0  0  0  0
   58.6770   28.5150   47.1090 N   0  0  0  0  0  0  0  0  0  0  0  0
   59.7460   28.6720   48.0530 C   0  0  0  0  0  0  0  0  0  0  0  0
   59.9870   27.7620   48.8910 O   0  0  0  0  0  0  0  0  0  0  0  0
   60.5460   29.9090   48.0960 C   0  0  0  0  0  0  0  0  0  0  0  0
   61.4610   30.4720   46.7890 S   0  0  0  0  0  0  0  0  0  0  0  0
   62.0170   31.8480   47.5690 C   0  0  0  0  0  0  0  0  0  0  0  0
   62.8610   32.8370   47.0680 C   0  0  0  0  0  0  0  0  0  0  0  0
   63.1820   33.9190   47.9010 C   0  0  0  0  0  0  0  0  0  0  0  0
   62.6540   33.9940   49.2040 C   0  0  0  0  0  0  0  0  0  0  0  0
   61.8010   32.9850   49.6860 C   0  0  0  0  0  0  0  0  0  0  0  0
   61.4910   31.9050   48.8510 C   0  0  0  0  0  0  0  0  0  0  0  0
   60.6550   30.8180   49.1590 C   0  0  0  0  0  0  0  0  0  0  0  0
   59.7540   30.7000   50.6680 Cl  0  0  0  0  0  0  0  0  0  0  0  0
   58.7687   26.3116   44.1512 H   0  0  0  0  0  0  0  0  0  0  0  0
   57.4518   26.4458   42.9370 H   0  0  0  0  0  0  0  0  0  0  0  0
   58.7979   27.6351   42.9370 H   0  0  0  0  0  0  0  0  0  0  0  0
   57.1829   29.3548   43.0077 H   0  0  0  0  0  0  0  0  0  0  0  0
   56.0745   29.5074   44.4229 H   0  0  0  0  0  0  0  0  0  0  0  0
   58.2730   33.1630   43.7931 H   0  0  0  0  0  0  0  0  0  0  0  0
   59.3677   35.3396   44.3332 H   0  0  0  0  0  0  0  0  0  0  0  0
   59.8856   35.9269   46.7037 H   0  0  0  0  0  0  0  0  0  0  0  0
   57.3999   27.0253   47.8519 H   0  0  0  0  0  0  0  0  0  0  0  0
   58.6941   26.4572   46.7281 H   0  0  0  0  0  0  0  0  0  0  0  0
   58.3840   29.3300   46.5260 H   0  0  0  0  0  0  0  0  0  0  0  0
   63.2647   32.7711   46.0469 H   0  0  0  0  0  0  0  0  0  0  0  0
   63.8495   34.7128   47.5344 H   0  0  0  0  0  0  0  0  0  0  0  0
   62.9103   34.8473   49.8492 H   0  0  0  0  0  0  0  0  0  0  0  0
   61.3843   33.0435   50.7023 H   0  0  0  0  0  0  0  0  0  0  0  0
  1  2  1  0
  2  3  1  0
  3  4  1  0
  4  5  2  0
  4  6  1  0
  6  7  1  0
  7  8  2  0
  8  9  1  0
  9 10  2  0
 10 11  1  0
 11 12  1  0
 11 13  2  0
 13 14  1  0
  2 15  1  0
 15 16  2  0
 15 17  1  0
 17 18  1  0
 18 19  1  0
 19 20  2  0
 19 21  1  0
 21 22  1  0
 22 23  1  0
 23 24  2  0
 24 25  1  0
 25 26  2  0
 26 27  1  0
 27 28  2  0
 28 29  1  0
 29 30  1  0
 13  7  1  0
 29 21  2  0
 28 23  1  0
  1 31  1  0
  1 32  1  0
  1 33  1  0
  3 34  1  0
  3 35  1  0
  8 36  1  0
  9 37  1  0
 10 38  1  0
 17 39  1  0
 17 40  1  0
 18 41  1  0
 24 42  1  0
 25 43  1  0
 26 44  1  0
 27 45  1  0
M  CHG  1   6  -1
M  END
>  <UniqueID>  (5) 
4

>  <SMILES>  (5) 
CN(CC(=O)[N-]c1cccc(F)c1F)C(=O)CNC(=O)c1sc2ccccc2c1Cl

>  <Energy>  (5) 
80.15185648094618

>  <Genealogy>  (5) 
CN(CC(=O)[N-]c1cccc(F)c1F)C(=O)CNC(=O)c1sc2ccccc2c1Cl (protonated)
CN(CC(=O)[N-]c1cccc(F)c1F)C(=O)CNC(=O)c1sc2ccccc2c1Cl (3D coordinates assigned)
CN(CC(=O)[N-]c1cccc(F)c1F)C(=O)CNC(=O)c1sc2ccccc2c1Cl (optimized conformer: 80.15185648094618 kcal/mol)

>  <smiles>  (5) 
CN(CC(=O)Nc1cccc(F)c1F)C(=O)CNC(=O)c1sc2ccccc2c1Cl

>  <score_type>  (5) 
oracle

>  <origin>  (5) 
adg

>  <m_score__min__energy>  (5) 
-11.050000000000001

>  <m_primary>  (5) 
energy

$$$$
5:0
     RDKit          3D

 29 30  0  0  0  0  0  0  0  0999 V2000
   55.1260   26.3810   45.9830 N   0  0  0  0  0  0  0  0  0  0  0  0
   56.8270   26.6660   45.8610 S   0  0  0  0  0  0  0  0  0  0  0  0
   57.4650   26.4800   47.2090 O   0  0  0  0  0  0  0  0  0  0  0  0
   57.4130   25.6770   44.8910 O   0  0  0  0  0  0  0  0  0  0  0  0
   57.1180   28.3070   45.2960 C   0  0  0  0  0  0  0  0  0  0  0  0
   58.4180   28.8250   45.2410 C   0  0  0  0  0  0  0  0  0  0  0  0
   58.6300   30.1290   44.7890 C   0  0  0  0  0  0  0  0  0  0  0  0
   57.5340   30.9020   44.3950 C   0  0  0  0  0  0  0  0  0  0  0  0
   57.7750   32.5680   43.7780 S   0  0  0  0  0  0  0  0  0  0  0  0
   57.0350   33.3840   45.2370 C   0  0  0  0  0  0  0  0  0  0  0  0
   58.0810   33.6860   46.2760 C   0  0  0  0  0  0  0  0  0  0  0  0
   59.0330   34.6930   46.0480 C   0  0  0  0  0  0  0  0  0  0  0  0
   60.0250   34.9510   46.9980 C   0  0  0  0  0  0  0  0  0  0  0  0
   60.0770   34.2040   48.1780 C   0  0  0  0  0  0  0  0  0  0  0  0
   59.1370   33.1970   48.4110 C   0  0  0  0  0  0  0  0  0  0  0  0
   58.1400   32.9370   47.4650 C   0  0  0  0  0  0  0  0  0  0  0  0
   56.2780   30.3870   44.4690 N   0  0  0  0  0  0  0  0  0  0  0  0
   56.0470   29.1210   44.9080 C   0  0  0  0  0  0  0  0  0  0  0  0
   54.7490   27.0760   46.6660 H   0  0  0  0  0  0  0  0  0  0  0  0
   59.2713   28.2052   45.5536 H   0  0  0  0  0  0  0  0  0  0  0  0
   59.6480   30.5433   44.7435 H   0  0  0  0  0  0  0  0  0  0  0  0
   56.5604   34.3246   44.9207 H   0  0  0  0  0  0  0  0  0  0  0  0
   56.2901   32.7049   45.6775 H   0  0  0  0  0  0  0  0  0  0  0  0
   58.9977   35.2805   45.1187 H   0  0  0  0  0  0  0  0  0  0  0  0
   60.7661   35.7434   46.8167 H   0  0  0  0  0  0  0  0  0  0  0  0
   60.8588   34.4091   48.9241 H   0  0  0  0  0  0  0  0  0  0  0  0
   59.1810   32.6082   49.3391 H   0  0  0  0  0  0  0  0  0  0  0  0
   57.4001   32.1446   47.6515 H   0  0  0  0  0  0  0  0  0  0  0  0
   55.0178   28.7360   44.9583 H   0  0  0  0  0  0  0  0  0  0  0  0
  1  2  1  0
  2  3  2  0
  2  4  2  0
  2  5  1  0
  5  6  2  0
  6  7  1  0
  7  8  2  0
  8  9  1  0
  9 10  1  0
 10 11  1  0
 11 12  2  0
 12 13  1  0
 13 14  2  0
 14 15  1  0
 15 16  2  0
  8 17  1  0
 17 18  2  0
 18  5  1  0
 16 11  1  0
  1 19  1  0
  6 20  1  0
  7 21  1  0
 10 22  1  0
 10 23  1  0
 12 24  1  0
 13 25  1  0
 14 26  1  0
 15 27  1  0
 16 28  1  0
 18 29  1  0
M  CHG  1   1  -1
M  END
>  <UniqueID>  (6) 
5

>  <SMILES>  (6) 
[NH-]S(=O)(=O)c1ccc(SCc2ccccc2)nc1

>  <Energy>  (6) 
24.889181847633733

>  <Genealogy>  (6) 
[NH-]S(=O)(=O)c1ccc(SCc2ccccc2)nc1 (protonated)
[NH-]S(=O)(=O)c1ccc(SCc2ccccc2)nc1 (3D coordinates assigned)
[NH-]S(=O)(=O)c1ccc(SCc2ccccc2)nc1 (optimized conformer: 24.889181847633733 kcal/mol)

>  <smiles>  (6) 
NS(=O)(=O)c1ccc(SCc2ccccc2)nc1

>  <score_type>  (6) 
oracle

>  <origin>  (6) 
adg

>  <m_score__min__energy>  (6) 
-10.68

>  <m_primary>  (6) 
energy

$$$$
6:0
     RDKit          3D

 40 43  0  0  0  0  0  0  0  0999 V2000
   57.8940   32.8620   42.9820 H   0  0  0  0  0  0  0  0  0  0  0  0
   58.6060   33.4570   43.3870 O   0  0  0  0  0  0  0  0  0  0  0  0
   58.6370   33.7660   44.7480 C   0  0  0  0  0  0  0  0  0  0  0  0
   59.6530   34.5940   45.2340 C   0  0  0  0  0  0  0  0  0  0  0  0
   60.4139   34.9908   44.5458 H   0  0  0  0  0  0  0  0  0  0  0  0
   59.7040   34.9180   46.5890 C   0  0  0  0  0  0  0  0  0  0  0  0
   60.5039   35.5666   46.9757 H   0  0  0  0  0  0  0  0  0  0  0  0
   58.7300   34.4110   47.4490 C   0  0  0  0  0  0  0  0  0  0  0  0
   58.7574   34.6609   48.5199 H   0  0  0  0  0  0  0  0  0  0  0  0
   57.7470   33.6080   46.9630 N   0  0  0  0  0  0  0  0  0  0  0  0
   57.6750   33.2630   45.6450 C   0  0  0  0  0  0  0  0  0  0  0  0
   56.7150   32.5000   45.2070 N   0  0  0  0  0  0  0  0  0  0  0  0
   56.8670   31.2640   44.4900 C   0  0  0  0  0  0  0  0  0  0  0  0
   56.6900   31.2680   43.2430 O   0  0  0  0  0  0  0  0  0  0  0  0
   57.3020   30.0110   45.1580 C   0  0  0  0  0  0  0  0  0  0  0  0
   58.6050   29.9100   45.6750 C   0  0  0  0  0  0  0  0  0  0  0  0
   59.2860   30.7712   45.6075 H   0  0  0  0  0  0  0  0  0  0  0  0
   59.0460   28.7200   46.2770 C   0  0  0  0  0  0  0  0  0  0  0  0
   60.3900   28.6330   46.8720 C   0  0  0  0  0  0  0  0  0  0  0  0
   61.1107   27.9416   46.4110 H   0  0  0  0  0  0  0  0  0  0  0  0
   60.7960   29.3400   47.9390 C   0  0  0  0  0  0  0  0  0  0  0  0
   60.7760   28.8680   49.3250 C   0  0  0  0  0  0  0  0  0  0  0  0
   60.4200   27.7180   49.6920 O   0  0  0  0  0  0  0  0  0  0  0  0
   61.1910   29.8800   50.2410 N   0  0  0  0  0  0  0  0  0  0  0  0
   61.5040   30.9820   49.3930 C   0  0  0  0  0  0  0  0  0  0  0  0
   62.0320   32.2000   49.8210 C   0  0  0  0  0  0  0  0  0  0  0  0
   62.1687   32.4082   50.8924 H   0  0  0  0  0  0  0  0  0  0  0  0
   62.3850   33.1540   48.8540 C   0  0  0  0  0  0  0  0  0  0  0  0
   62.9020   34.3460   49.2400 F   0  0  0  0  0  0  0  0  0  0  0  0
   62.2330   32.8660   47.4850 C   0  0  0  0  0  0  0  0  0  0  0  0
   62.5263   33.6144   46.7341 H   0  0  0  0  0  0  0  0  0  0  0  0
   61.7100   31.6310   47.0700 C   0  0  0  0  0  0  0  0  0  0  0  0
   61.6180   31.3905   46.0006 H   0  0  0  0  0  0  0  0  0  0  0  0
   61.3080   30.7120   48.0470 C   0  0  0  0  0  0  0  0  0  0  0  0
   58.1640   27.6420   46.4030 C   0  0  0  0  0  0  0  0  0  0  0  0
   58.4899   26.7232   46.9125 H   0  0  0  0  0  0  0  0  0  0  0  0
   56.8690   27.7290   45.8830 C   0  0  0  0  0  0  0  0  0  0  0  0
   56.1869   26.8700   45.9659 H   0  0  0  0  0  0  0  0  0  0  0  0
   56.4370   28.9030   45.2580 C   0  0  0  0  0  0  0  0  0  0  0  0
   55.1390   28.9630   44.7600 O   0  0  0  0  0  0  0  0  0  0  0  0
  1  2  1  0
  2  3  1  0
  3  4  2  0
  4  5  1  0
  4  6  1  0
  6  7  1  0
  6  8  2  0
  8  9  1  0
  8 10  1  0
 10 11  1  0
 11 12  2  0
 12 13  1  0
 13 14  2  0
 13 15  1  0
 15 16  2  0
 16 17  1  0
 16 18  1  0
 18 19  1  0
 19 20  1  0
 19 21  2  3
 21 22  1  0
 22 23  2  0
 22 24  1  0
 24 25  1  0
 25 26  2  0
 26 27  1  0
 26 28  1  0
 28 29  1  0
 28 30  2  0
 30 31  1  0
 30 32  1  0
 32 33  1  0
 32 34  2  0
 18 35  2  0
 35 36  1  0
 35 37  1  0
 37 38  1  0
 37 39  2  0
 39 40  1  0
 11  3  1  0
 39 15  1  0
 34 21  1  0
 34 25  1  0
M  CHG  3  10  -1  24  -1  40  -1
M  END
>  <UniqueID>  (7) 
6

>  <SMILES>  (7) 
O=C1[N-]c2cc(F)ccc2C1=Cc1ccc([O-])c(C(=O)/N=c2\[n-]cccc2O)c1

>  <Energy>  (7) 
91.88026946599845

>  <Genealogy>  (7) 
O=C1[N-]c2cc(F)ccc2C1=Cc1ccc([O-])c(C(=O)N=c2[n-]cccc2O)c1 (protonated)
O=C1[N-]c2cc(F)ccc2C1=Cc1ccc([O-])c(C(=O)/N=c2\[n-]cccc2O)c1 (cis-trans isomerization)
O=C1[N-]c2cc(F)ccc2C1=Cc1ccc([O-])c(C(=O)/N=c2\[n-]cccc2O)c1 (3D coordinates assigned)
O=C1[N-]c2cc(F)ccc2C1=Cc1ccc([O-])c(C(=O)/N=c2\[n-]cccc2O)c1 (nonaromatic ring conformer: 91.88026946599845 kcal/mol)

>  <smiles>  (7) 
O=C1Nc2cc(F)ccc2C1=Cc1ccc(O)c(C(=O)N=c2[nH]cccc2O)c1

>  <score_type>  (7) 
oracle

>  <origin>  (7) 
adg

>  <m_score__min__energy>  (7) 
-14.93

>  <m_primary>  (7) 
energy

$$$$
7:0
     RDKit          3D

 42 44  0  0  0  0  0  0  0  0999 V2000
   53.1490   23.7040   44.9680 C   0  0  0  0  0  0  0  0  0  0  0  0
   54.4860   24.2150   45.2410 N   0  0  0  0  0  0  0  0  0  0  0  0
   55.6220   23.8060   44.4690 C   0  0  0  0  0  0  0  0  0  0  0  0
   55.4830   23.0000   43.5090 O   0  0  0  0  0  0  0  0  0  0  0  0
   56.9850   24.3320   44.8030 C   0  0  0  0  0  0  0  0  0  0  0  0
   56.9210   25.1930   45.9770 N   0  0  0  0  0  0  0  0  0  0  0  0
   56.3970   26.5230   45.9570 C   0  0  0  0  0  0  0  0  0  0  0  0
   55.1510   26.7070   46.0040 O   0  0  0  0  0  0  0  0  0  0  0  0
   57.3000   27.6870   45.8800 C   0  0  0  0  0  0  0  0  0  0  0  0
   58.5060   27.8150   46.5630 C   0  0  0  0  0  0  0  0  0  0  0  0
   59.0870   29.0060   46.2830 N   0  0  0  0  0  0  0  0  0  0  0  0
   60.3230   29.5110   46.8850 C   0  0  0  0  0  0  0  0  0  0  0  0
   60.0900   30.8740   47.4850 C   0  0  0  0  0  0  0  0  0  0  0  0
   60.7730   31.9930   46.9780 C   0  0  0  0  0  0  0  0  0  0  0  0
   60.5380   33.2640   47.5070 C   0  0  0  0  0  0  0  0  0  0  0  0
   59.6180   33.4320   48.5430 C   0  0  0  0  0  0  0  0  0  0  0  0
   58.9290   32.3290   49.0520 C   0  0  0  0  0  0  0  0  0  0  0  0
   59.1570   31.0540   48.5230 C   0  0  0  0  0  0  0  0  0  0  0  0
   58.4720   29.9960   49.0290 F   0  0  0  0  0  0  0  0  0  0  0  0
   58.2550   29.6430   45.4310 C   0  0  0  0  0  0  0  0  0  0  0  0
   58.4160   30.9060   44.8530 C   0  0  0  0  0  0  0  0  0  0  0  0
   57.4130   31.3740   43.9880 C   0  0  0  0  0  0  0  0  0  0  0  0
   56.2790   30.5810   43.7150 C   0  0  0  0  0  0  0  0  0  0  0  0
   56.1380   29.3110   44.3020 C   0  0  0  0  0  0  0  0  0  0  0  0
   57.1480   28.8660   45.1600 C   0  0  0  0  0  0  0  0  0  0  0  0
   52.6311   23.5060   45.9180 H   0  0  0  0  0  0  0  0  0  0  0  0
   52.5827   24.4491   44.3899 H   0  0  0  0  0  0  0  0  0  0  0  0
   53.2240   22.7711   44.3899 H   0  0  0  0  0  0  0  0  0  0  0  0
   54.6190   24.8800   46.0360 H   0  0  0  0  0  0  0  0  0  0  0  0
   57.6595   23.4877   45.0085 H   0  0  0  0  0  0  0  0  0  0  0  0
   57.3618   24.9164   43.9507 H   0  0  0  0  0  0  0  0  0  0  0  0
   58.9284   27.0547   47.2364 H   0  0  0  0  0  0  0  0  0  0  0  0
   60.6527   28.8184   47.6734 H   0  0  0  0  0  0  0  0  0  0  0  0
   61.0961   29.5887   46.1064 H   0  0  0  0  0  0  0  0  0  0  0  0
   61.4970   31.8669   46.1596 H   0  0  0  0  0  0  0  0  0  0  0  0
   61.0789   34.1341   47.1065 H   0  0  0  0  0  0  0  0  0  0  0  0
   59.4355   34.4339   48.9589 H   0  0  0  0  0  0  0  0  0  0  0  0
   58.2059   32.4629   49.8701 H   0  0  0  0  0  0  0  0  0  0  0  0
   59.3046   31.5170   45.0699 H   0  0  0  0  0  0  0  0  0  0  0  0
   57.5126   32.3648   43.5208 H   0  0  0  0  0  0  0  0  0  0  0  0
   55.4989   30.9589   43.0377 H   0  0  0  0  0  0  0  0  0  0  0  0
   55.2579   28.6854   44.0920 H   0  0  0  0  0  0  0  0  0  0  0  0
  1  2  1  0
  2  3  1  0
  3  4  2  0
  3  5  1  0
  5  6  1  0
  6  7  1  0
  7  8  2  0
  7  9  1  0
  9 10  2  0
 10 11  1  0
 11 12  1  0
 12 13  1  0
 13 14  2  0
 14 15  1  0
 15 16  2  0
 16 17  1  0
 17 18  2  0
 18 19  1  0
 11 20  1  0
 20 21  2  0
 21 22  1  0
 22 23  2  0
 23 24  1  0
 24 25  2  0
 25  9  1  0
 18 13  1  0
 25 20  1  0
  1 26  1  0
  1 27  1  0
  1 28  1  0
  2 29  1  0
  5 30  1  0
  5 31  1  0
 10 32  1  0
 12 33  1  0
 12 34  1  0
 14 35  1  0
 15 36  1  0
 16 37  1  0
 17 38  1  0
 21 39  1  0
 22 40  1  0
 23 41  1  0
 24 42  1  0
M  CHG  1   6  -1
M  END
>  <UniqueID>  (8) 
7

>  <SMILES>  (8) 
CNC(=O)C[N-]C(=O)c1cn(Cc2ccccc2F)c2ccccc12

>  <Energy>  (8) 
71.36272047794908

>  <Genealogy>  (8) 
CNC(=O)C[N-]C(=O)c1cn(Cc2ccccc2F)c2ccccc12 (protonated)
CNC(=O)C[N-]C(=O)c1cn(Cc2ccccc2F)c2ccccc12 (3D coordinates assigned)
CNC(=O)C[N-]C(=O)c1cn(Cc2ccccc2F)c2ccccc12 (optimized conformer: 71.36272047794908 kcal/mol)

>  <smiles>  (8) 
CNC(=O)CNC(=O)c1cn(Cc2ccccc2F)c2ccccc12

>  <score_type>  (8) 
oracle

>  <origin>  (8) 
adg

>  <m_score__min__energy>  (8) 
-9.7200000000000006

>  <m_primary>  (8) 
energy

$$$$
8:0
     RDKit          3D

 58 61  0  0  0  0  0  0  0  0999 V2000
   59.9471   33.8516   52.0540 H   0  0  0  0  0  0  0  0  0  0  0  0
   59.5060   32.9440   51.6160 C   0  0  0  0  0  0  0  0  0  0  0  0
   60.2810   32.0960   50.8880 N   0  0  0  0  0  0  0  0  0  0  0  0
   59.7720   30.9630   50.3220 C   0  0  0  0  0  0  0  0  0  0  0  0
   60.5330   30.1480   49.6460 N   0  0  0  0  0  0  0  0  0  0  0  0
   60.2360   28.7900   49.2740 C   0  0  0  0  0  0  0  0  0  0  0  0
   60.4120   27.8480   50.0990 O   0  0  0  0  0  0  0  0  0  0  0  0
   59.6730   28.4960   47.9340 C   0  0  0  0  0  0  0  0  0  0  0  0
   60.1870   27.4450   47.1580 C   0  0  0  0  0  0  0  0  0  0  0  0
   61.0001   26.8197   47.5553 H   0  0  0  0  0  0  0  0  0  0  0  0
   59.6730   27.1880   45.8850 C   0  0  0  0  0  0  0  0  0  0  0  0
   60.0893   26.3655   45.2848 H   0  0  0  0  0  0  0  0  0  0  0  0
   58.6340   27.9670   45.3670 C   0  0  0  0  0  0  0  0  0  0  0  0
   58.1260   27.6650   43.7110 Cl  0  0  0  0  0  0  0  0  0  0  0  0
   58.0840   29.0060   46.1490 C   0  0  0  0  0  0  0  0  0  0  0  0
   57.0170   29.8430   45.6750 N   0  0  0  0  0  0  0  0  0  0  0  0
   57.1460   30.9790   44.8090 C   0  0  0  0  0  0  0  0  0  0  0  0
   56.6920   30.8920   43.6390 O   0  0  0  0  0  0  0  0  0  0  0  0
   57.8290   32.2250   45.2310 C   0  0  0  0  0  0  0  0  0  0  0  0
   57.7650   33.3900   44.4460 C   0  0  0  0  0  0  0  0  0  0  0  0
   57.2009   33.3823   43.5017 H   0  0  0  0  0  0  0  0  0  0  0  0
   58.4120   34.5550   44.8570 C   0  0  0  0  0  0  0  0  0  0  0  0
   58.3726   35.4548   44.2255 H   0  0  0  0  0  0  0  0  0  0  0  0
   59.1100   34.5850   46.0670 C   0  0  0  0  0  0  0  0  0  0  0  0
   59.6157   35.5082   46.3864 H   0  0  0  0  0  0  0  0  0  0  0  0
   59.1670   33.4400   46.8750 C   0  0  0  0  0  0  0  0  0  0  0  0
   59.8780   33.4920   48.2040 C   0  0  0  0  0  0  0  0  0  0  0  0
   59.9431   32.4764   48.6215 H   0  0  0  0  0  0  0  0  0  0  0  0
   59.3142   34.1431   48.8882 H   0  0  0  0  0  0  0  0  0  0  0  0
   61.2420   34.0380   48.0310 N   0  0  0  0  0  0  0  0  0  0  0  0
   62.1150   33.1370   47.2560 C   0  0  0  0  0  0  0  0  0  0  0  0
   63.0243   33.6860   46.9700 H   0  0  0  0  0  0  0  0  0  0  0  0
   61.5516   32.8022   46.3726 H   0  0  0  0  0  0  0  0  0  0  0  0
   62.5250   31.8810   48.0570 C   0  0  0  0  0  0  0  0  0  0  0  0
   63.4979   31.5295   47.6829 H   0  0  0  0  0  0  0  0  0  0  0  0
   61.7336   31.1301   47.9166 H   0  0  0  0  0  0  0  0  0  0  0  0
   62.6430   32.1330   49.5200 N   0  0  0  0  0  0  0  0  0  0  0  0
   61.7240   31.9150   49.9770 H   0  0  0  0  0  0  0  0  0  0  0  0
   63.6420   31.2330   50.1230 C   0  0  0  0  0  0  0  0  0  0  0  0
   63.5753   31.2931   51.2193 H   0  0  0  0  0  0  0  0  0  0  0  0
   63.4471   30.1998   49.7999 H   0  0  0  0  0  0  0  0  0  0  0  0
   64.6494   31.5343   49.7999 H   0  0  0  0  0  0  0  0  0  0  0  0
   62.9810   33.5390   49.8060 C   0  0  0  0  0  0  0  0  0  0  0  0
   63.9231   33.7943   49.2988 H   0  0  0  0  0  0  0  0  0  0  0  0
   63.0874   33.6629   50.8938 H   0  0  0  0  0  0  0  0  0  0  0  0
   61.8650   34.4810   49.3060 C   0  0  0  0  0  0  0  0  0  0  0  0
   62.2961   35.4815   49.1537 H   0  0  0  0  0  0  0  0  0  0  0  0
   61.0739   34.4796   50.0703 H   0  0  0  0  0  0  0  0  0  0  0  0
   58.5250   32.2630   46.4520 C   0  0  0  0  0  0  0  0  0  0  0  0
   58.5676   31.3627   47.0827 H   0  0  0  0  0  0  0  0  0  0  0  0
   58.6220   29.2750   47.4150 C   0  0  0  0  0  0  0  0  0  0  0  0
   58.2173   30.1062   48.0110 H   0  0  0  0  0  0  0  0  0  0  0  0
   58.4110   30.6580   50.4860 C   0  0  0  0  0  0  0  0  0  0  0  0
   57.9863   29.7539   50.0254 H   0  0  0  0  0  0  0  0  0  0  0  0
   57.6000   31.5120   51.2390 C   0  0  0  0  0  0  0  0  0  0  0  0
   56.5347   31.2781   51.3822 H   0  0  0  0  0  0  0  0  0  0  0  0
   58.1480   32.6640   51.8090 C   0  0  0  0  0  0  0  0  0  0  0  0
   57.3740   33.4980   52.5510 F   0  0  0  0  0  0  0  0  0  0  0  0
  1  2  1  0
  2  3  1  0
  3  4  1  0
  4  5  2  0
  5  6  1  0
  6  7  2  0
  6  8  1  0
  8  9  2  0
  9 10  1  0
  9 11  1  0
 11 12  1  0
 11 13  2  0
 13 14  1  0
 13 15  1  0
 15 16  1  0
 16 17  1  0
 17 18  2  0
 17 19  1  0
 19 20  2  0
 20 21  1  0
 20 22  1  0
 22 23  1  0
 22 24  2  0
 24 25  1  0
 24 26  1  0
 26 27  1  0
 27 28  1  0
 27 29  1  0
 27 30  1  0
 30 31  1  0
 31 32  1  0
 31 33  1  0
 31 34  1  0
 34 35  1  0
 34 36  1  0
 34 37  1  0
 37 38  1  0
 37 39  1  0
 39 40  1  0
 39 41  1  0
 39 42  1  0
 37 43  1  0
 43 44  1  0
 43 45  1  0
 43 46  1  0
 46 47  1  0
 46 48  1  0
 26 49  2  0
 49 50  1  0
 15 51  2  0
 51 52  1  0
  4 53  1  0
 53 54  1  0
 53 55  2  0
 55 56  1  0
 55 57  1  0
 57 58  1  0
 57  2  2  0
 51  8  1  0
 49 19  1  0
 46 30  1  0
M  CHG  3   3  -1  16  -1  37   1
M  END
>  <UniqueID>  (9) 
8

>  <SMILES>  (9) 
C[NH+]1CCN(Cc2cccc(C(=O)[N-]c3cc(C(=O)/N=c4/ccc(F)c[n-]4)ccc3Cl)c2)CC1

>  <Energy>  (9) 
87.80267058587943

>  <Genealogy>  (9) 
C[NH+]1CCN(Cc2cccc(C(=O)[N-]c3cc(C(=O)N=c4ccc(F)c[n-]4)ccc3Cl)c2)CC1 (protonated)
C[NH+]1CCN(Cc2cccc(C(=O)[N-]c3cc(C(=O)/N=c4/ccc(F)c[n-]4)ccc3Cl)c2)CC1 (cis-trans isomerization)
C[NH+]1CCN(Cc2cccc(C(=O)[N-]c3cc(C(=O)/N=c4/ccc(F)c[n-]4)ccc3Cl)c2)CC1 (3D coordinates assigned)
C[NH+]1CCN(Cc2cccc(C(=O)[N-]c3cc(C(=O)/N=c4/ccc(F)c[n-]4)ccc3Cl)c2)CC1 (nonaromatic ring conformer: 87.80267058587943 kcal/mol)

>  <smiles>  (9) 
CN1CCN(Cc2cccc(C(=O)Nc3cc(C(=O)N=c4ccc(F)c[nH]4)ccc3Cl)c2)CC1

>  <score_type>  (9) 
oracle

>  <origin>  (9) 
adg

>  <m_score__min__energy>  (9) 
-10.19

>  <m_primary>  (9) 
energy

$$$$
9:0
     RDKit          3D

 62 66  0  0  0  0  0  0  0  0999 V2000
   52.1710   22.2490   44.4990 H   0  0  0  0  0  0  0  0  0  0  0  0
   52.7850   22.9550   44.8890 O   0  0  0  0  0  0  0  0  0  0  0  0
   53.8620   22.6250   45.7070 C   0  0  0  0  0  0  0  0  0  0  0  0
   54.7040   23.6450   46.1620 C   0  0  0  0  0  0  0  0  0  0  0  0
   54.4997   24.6879   45.8781 H   0  0  0  0  0  0  0  0  0  0  0  0
   55.8050   23.3500   46.9760 C   0  0  0  0  0  0  0  0  0  0  0  0
   56.6560   24.4570   47.4580 C   0  0  0  0  0  0  0  0  0  0  0  0
   56.5581   24.7502   48.5137 H   0  0  0  0  0  0  0  0  0  0  0  0
   57.5440   25.1360   46.7030 C   0  0  0  0  0  0  0  0  0  0  0  0
   58.9470   24.3070   45.9220 S   0  0  0  0  0  0  0  0  0  0  0  0
   57.9280   23.4810   44.6930 C   0  0  0  0  0  0  0  0  0  0  0  0
   58.0470   22.1000   44.4800 C   0  0  0  0  0  0  0  0  0  0  0  0
   58.7675   21.5140   45.0695 H   0  0  0  0  0  0  0  0  0  0  0  0
   57.2520   21.4660   43.5200 C   0  0  0  0  0  0  0  0  0  0  0  0
   57.3483   20.3827   43.3550 H   0  0  0  0  0  0  0  0  0  0  0  0
   56.3350   22.2080   42.7700 C   0  0  0  0  0  0  0  0  0  0  0  0
   55.7165   21.7103   42.0086 H   0  0  0  0  0  0  0  0  0  0  0  0
   56.2040   23.5840   42.9880 C   0  0  0  0  0  0  0  0  0  0  0  0
   55.4781   24.1662   42.4014 H   0  0  0  0  0  0  0  0  0  0  0  0
   56.9940   24.2200   43.9500 C   0  0  0  0  0  0  0  0  0  0  0  0
   56.8837   25.3004   44.1249 H   0  0  0  0  0  0  0  0  0  0  0  0
   57.3200   26.5850   46.4650 C   0  0  0  0  0  0  0  0  0  0  0  0
   56.2750   26.9530   45.8590 O   0  0  0  0  0  0  0  0  0  0  0  0
   58.1980   27.6330   47.0310 C   0  0  0  0  0  0  0  0  0  0  0  0
   59.1750   27.3440   48.0220 C   0  0  0  0  0  0  0  0  0  0  0  0
   59.2510   26.3255   48.4305 H   0  0  0  0  0  0  0  0  0  0  0  0
   60.0460   28.3470   48.4860 C   0  0  0  0  0  0  0  0  0  0  0  0
   60.7981   28.1327   49.2596 H   0  0  0  0  0  0  0  0  0  0  0  0
   59.9250   29.6200   47.9340 C   0  0  0  0  0  0  0  0  0  0  0  0
   60.6820   30.6970   48.1840 N   0  0  0  0  0  0  0  0  0  0  0  0
   60.1540   31.6240   47.3370 C   0  0  0  0  0  0  0  0  0  0  0  0
   60.6180   32.8320   47.2080 N   0  0  0  0  0  0  0  0  0  0  0  0
   59.9510   34.0460   47.5750 C   0  0  0  0  0  0  0  0  0  0  0  0
   60.1650   34.5360   48.7150 O   0  0  0  0  0  0  0  0  0  0  0  0
   59.0740   34.7160   46.6620 N   0  0  0  0  0  0  0  0  0  0  0  0
   58.0360   34.0270   45.9060 C   0  0  0  0  0  0  0  0  0  0  0  0
   57.7538   33.1040   46.4336 H   0  0  0  0  0  0  0  0  0  0  0  0
   57.1612   34.6872   45.8120 H   0  0  0  0  0  0  0  0  0  0  0  0
   58.5490   33.6740   44.5080 C   0  0  0  0  0  0  0  0  0  0  0  0
   58.4463   34.5525   43.8540 H   0  0  0  0  0  0  0  0  0  0  0  0
   59.6047   33.3748   44.5857 H   0  0  0  0  0  0  0  0  0  0  0  0
   57.7650   32.5280   43.9220 C   0  0  0  0  0  0  0  0  0  0  0  0
   57.7850   32.2940   42.5370 C   0  0  0  0  0  0  0  0  0  0  0  0
   58.3448   32.9720   41.8760 H   0  0  0  0  0  0  0  0  0  0  0  0
   57.0980   31.2050   41.9940 C   0  0  0  0  0  0  0  0  0  0  0  0
   57.1123   31.0324   40.9077 H   0  0  0  0  0  0  0  0  0  0  0  0
   56.3920   30.3340   42.8310 C   0  0  0  0  0  0  0  0  0  0  0  0
   55.8542   29.4752   42.4030 H   0  0  0  0  0  0  0  0  0  0  0  0
   56.3700   30.5550   44.2110 C   0  0  0  0  0  0  0  0  0  0  0  0
   55.8131   29.8713   44.8685 H   0  0  0  0  0  0  0  0  0  0  0  0
   57.0570   31.6470   44.7570 C   0  0  0  0  0  0  0  0  0  0  0  0
   57.0422   31.8155   45.8439 H   0  0  0  0  0  0  0  0  0  0  0  0
   59.1200   31.1770   46.5780 N   0  0  0  0  0  0  0  0  0  0  0  0
   58.9990   29.9040   46.9800 C   0  0  0  0  0  0  0  0  0  0  0  0
   58.1170   28.9410   46.4980 C   0  0  0  0  0  0  0  0  0  0  0  0
   57.3768   29.1903   45.7234 H   0  0  0  0  0  0  0  0  0  0  0  0
   56.0310   22.0190   47.3710 C   0  0  0  0  0  0  0  0  0  0  0  0
   56.8706   21.7818   48.0409 H   0  0  0  0  0  0  0  0  0  0  0  0
   55.1950   20.9980   46.9170 C   0  0  0  0  0  0  0  0  0  0  0  0
   55.3885   19.9570   47.2150 H   0  0  0  0  0  0  0  0  0  0  0  0
   54.1130   21.2950   46.0850 C   0  0  0  0  0  0  0  0  0  0  0  0
   53.2860   20.2680   45.6460 O   0  0  0  0  0  0  0  0  0  0  0  0
  1  2  1  0
  2  3  1  0
  3  4  2  0
  4  5  1  0
  4  6  1  0
  6  7  1  0
  7  8  1  0
  7  9  2  3
  9 10  1  0
 10 11  1  0
 11 12  2  0
 12 13  1  0
 12 14  1  0
 14 15  1  0
 14 16  2  0
 16 17  1  0
 16 18  1  0
 18 19  1  0
 18 20  2  0
 20 21  1  0
  9 22  1  0
 22 23  2  0
 22 24  1  0
 24 25  2  0
 25 26  1  0
 25 27  1  0
 27 28  1  0
 27 29  2  0
 29 30  1  0
 30 31  1  0
 31 32  2  0
 32 33  1  0
 33 34  2  0
 33 35  1  0
 35 36  1  0
 36 37  1  0
 36 38  1  0
 36 39  1  0
 39 40  1  0
 39 41  1  0
 39 42  1  0
 42 43  2  0
 43 44  1  0
 43 45  1  0
 45 46  1  0
 45 47  2  0
 47 48  1  0
 47 49  1  0
 49 50  1  0
 49 51  2  0
 51 52  1  0
 31 53  1  0
 53 54  1  0
 54 55  2  0
 55 56  1  0
  6 57  2  0
 57 58  1  0
 57 59  1  0
 59 60  1  0
 59 61  2  0
 61 62  1  0
 61  3  1  0
 20 11  1  0
 55 24  1  0
 54 29  1  0
 51 42  1  0
M  CHG  4  30  -1  35  -1  53  -1  62  -1
M  END
>  <UniqueID>  (10) 
9

>  <SMILES>  (10) 
O=C(/N=c1\[n-]c2ccc(C(=O)C(=Cc3ccc([O-])c(O)c3)Sc3ccccc3)cc2[n-]1)[N-]CCc1ccccc1

>  <Energy>  (10) 
113.08455643825094

>  <Genealogy>  (10) 
O=C(N=c1[n-]c2ccc(C(=O)C(=Cc3ccc([O-])c(O)c3)Sc3ccccc3)cc2[n-]1)[N-]CCc1ccccc1 (protonated)
O=C(/N=c1\[n-]c2ccc(C(=O)C(=Cc3ccc([O-])c(O)c3)Sc3ccccc3)cc2[n-]1)[N-]CCc1ccccc1 (cis-trans isomerization)
O=C(/N=c1\[n-]c2ccc(C(=O)C(=Cc3ccc([O-])c(O)c3)Sc3ccccc3)cc2[n-]1)[N-]CCc1ccccc1 (3D coordinates assigned)
O=C(/N=c1\[n-]c2ccc(C(=O)C(=Cc3ccc([O-])c(O)c3)Sc3ccccc3)cc2[n-]1)[N-]CCc1ccccc1 (optimized conformer: 113.08455643825094 kcal/mol)

>  <smiles>  (10) 
O=C(N=c1[nH]c2ccc(C(=O)C(=Cc3ccc(O)c(O)c3)Sc3ccccc3)cc2[nH]1)NCCc1ccccc1

>  <score_type>  (10) 
oracle

>  <origin>  (10) 
adg

>  <m_score__min__energy>  (10) 
-15.44

>  <m_primary>  (10) 
energy

$$$$
10:0
     RDKit          3D

 50 53  0  0  0  0  0  0  0  0999 V2000
   59.9630   35.7630   46.3370 O   0  0  0  0  0  0  0  0  0  0  0  0
   59.8640   34.5700   46.7260 C   0  0  0  0  0  0  0  0  0  0  0  0
   59.5660   33.4910   45.7140 C   0  0  0  0  0  0  0  0  0  0  0  0
   58.8280   32.3650   46.3190 N   0  0  1  0  0  0  0  0  0  0  0  0
   57.4730   32.3340   45.8390 C   0  0  0  0  0  0  0  0  0  0  0  0
   56.6310   33.2320   46.1130 O   0  0  0  0  0  0  0  0  0  0  0  0
   57.1370   31.1940   45.0490 N   0  0  0  0  0  0  0  0  0  0  0  0
   58.2000   30.4650   45.0330 C   0  0  0  0  0  0  0  0  0  0  0  0
   58.3100   29.1820   44.2690 C   0  0  0  0  0  0  0  0  0  0  0  0
   57.5970   28.0740   45.0040 C   0  0  0  0  0  0  0  0  0  0  0  0
   58.2950   26.9330   45.4190 C   0  0  0  0  0  0  0  0  0  0  0  0
   57.6410   25.9220   46.0480 N   0  0  0  0  0  0  0  0  0  0  0  0
   56.3050   25.9940   46.2810 C   0  0  0  0  0  0  0  0  0  0  0  0
   55.7180   25.0480   46.8660 O   0  0  0  0  0  0  0  0  0  0  0  0
   55.6020   27.0840   45.8800 N   0  0  0  0  0  0  0  0  0  0  0  0
   56.2130   28.1200   45.2470 C   0  0  0  0  0  0  0  0  0  0  0  0
   55.5280   29.1120   44.8820 O   0  0  0  0  0  0  0  0  0  0  0  0
   59.2590   31.1040   45.7960 C   0  0  0  0  0  0  0  0  0  0  0  0
   60.3930   30.6010   46.0180 O   0  0  0  0  0  0  0  0  0  0  0  0
   60.1280   34.2710   48.1040 N   0  0  0  0  0  0  0  0  0  0  0  0
   61.3850   33.8490   48.6470 C   0  0  0  0  0  0  0  0  0  0  0  0
   62.2740   33.0610   47.9010 C   0  0  0  0  0  0  0  0  0  0  0  0
   63.4910   32.6550   48.4570 C   0  0  0  0  0  0  0  0  0  0  0  0
   63.8240   33.0100   49.7750 C   0  0  0  0  0  0  0  0  0  0  0  0
   65.0830   32.6090   50.3470 N   0  0  0  0  0  0  0  0  0  0  0  0
   65.2540   31.2600   50.8920 C   0  0  0  0  0  0  0  0  0  0  0  0
   66.7230   30.8410   50.7750 C   0  0  0  0  0  0  0  0  0  0  0  0
   67.5700   31.8160   51.3540 O   0  0  0  0  0  0  0  0  0  0  0  0
   67.4840   33.0230   50.6190 C   0  0  0  0  0  0  0  0  0  0  0  0
   66.0780   33.6220   50.7170 C   0  0  0  0  0  0  0  0  0  0  0  0
   62.9130   33.7670   50.5300 C   0  0  0  0  0  0  0  0  0  0  0  0
   61.6990   34.1740   49.9710 C   0  0  0  0  0  0  0  0  0  0  0  0
   58.9594   33.9204   44.9031 H   0  0  0  0  0  0  0  0  0  0  0  0
   60.5226   33.1074   45.3295 H   0  0  0  0  0  0  0  0  0  0  0  0
   58.8420   32.3680   47.3660 H   0  0  0  0  0  0  0  0  0  0  0  0
   57.8549   29.3106   43.2758 H   0  0  0  0  0  0  0  0  0  0  0  0
   59.3725   28.9170   44.1643 H   0  0  0  0  0  0  0  0  0  0  0  0
   59.3767   26.8552   45.2350 H   0  0  0  0  0  0  0  0  0  0  0  0
   62.0128   32.7615   46.8753 H   0  0  0  0  0  0  0  0  0  0  0  0
   64.1919   32.0541   47.8590 H   0  0  0  0  0  0  0  0  0  0  0  0
   64.9542   31.2520   51.9503 H   0  0  0  0  0  0  0  0  0  0  0  0
   64.6269   30.5552   50.3263 H   0  0  0  0  0  0  0  0  0  0  0  0
   66.8675   29.8826   51.2953 H   0  0  0  0  0  0  0  0  0  0  0  0
   66.9776   30.7397   49.7097 H   0  0  0  0  0  0  0  0  0  0  0  0
   68.2114   33.7430   51.0221 H   0  0  0  0  0  0  0  0  0  0  0  0
   67.7022   32.8081   49.5625 H   0  0  0  0  0  0  0  0  0  0  0  0
   65.8938   33.9560   51.7487 H   0  0  0  0  0  0  0  0  0  0  0  0
   65.9981   34.4789   50.0320 H   0  0  0  0  0  0  0  0  0  0  0  0
   63.1567   34.0409   51.5671 H   0  0  0  0  0  0  0  0  0  0  0  0
   60.9858   34.7535   50.5756 H   0  0  0  0  0  0  0  0  0  0  0  0
  1  2  2  0
  2  3  1  0
  3  4  1  0
  4  5  1  0
  5  6  2  0
  5  7  1  0
  7  8  2  0
  8  9  1  0
  9 10  1  0
 10 11  2  0
 11 12  1  0
 12 13  1  0
 13 14  2  0
 13 15  1  0
 15 16  1  0
 16 17  2  0
  8 18  1  0
 18 19  2  0
  2 20  1  0
 20 21  1  0
 21 22  2  0
 22 23  1  0
 23 24  2  0
 24 25  1  0
 25 26  1  0
 26 27  1  0
 27 28  1  0
 28 29  1  0
 29 30  1  0
 24 31  1  0
 31 32  2  0
 18  4  1  0
 32 21  1  0
 16 10  1  0
 30 25  1  0
  3 33  1  0
  3 34  1  0
  4 35  1  1
  9 36  1  0
  9 37  1  0
 11 38  1  0
 22 39  1  0
 23 40  1  0
 26 41  1  0
 26 42  1  0
 27 43  1  0
 27 44  1  0
 29 45  1  0
 29 46  1  0
 30 47  1  0
 30 48  1  0
 31 49  1  0
 32 50  1  0
M  CHG  4   4   1  12  -1  15  -1  20  -1
M  END
>  <UniqueID>  (11) 
10

>  <SMILES>  (11) 
O=C(C[N@H+]1C(=O)N=C(Cc2c[n-]c(=O)[n-]c2=O)C1=O)[N-]c1ccc(N2CCOCC2)cc1

>  <Energy>  (11) 
84.49061898700354

>  <Genealogy>  (11) 
O=C(C[NH+]1C(=O)N=C(Cc2c[n-]c(=O)[n-]c2=O)C1=O)[N-]c1ccc(N2CCOCC2)cc1 (protonated)
O=C(C[N@H+]1C(=O)N=C(Cc2c[n-]c(=O)[n-]c2=O)C1=O)[N-]c1ccc(N2CCOCC2)cc1 (chirality)
O=C(C[N@H+]1C(=O)N=C(Cc2c[n-]c(=O)[n-]c2=O)C1=O)[N-]c1ccc(N2CCOCC2)cc1 (3D coordinates assigned)
O=C(C[N@H+]1C(=O)N=C(Cc2c[n-]c(=O)[n-]c2=O)C1=O)[N-]c1ccc(N2CCOCC2)cc1 (nonaromatic ring conformer: 84.49061898700354 kcal/mol)

>  <smiles>  (11) 
O=C(CN1C(=O)N=C(Cc2c[nH]c(=O)[nH]c2=O)C1=O)Nc1ccc(N2CCOCC2)cc1

>  <score_type>  (11) 
oracle

>  <origin>  (11) 
adg

>  <m_score__min__energy>  (11) 
-13.34

>  <m_primary>  (11) 
energy

$$$$
11:0
     RDKit          3D

 52 54  0  0  0  0  0  0  0  0999 V2000
   56.1850   22.4800   48.5210 C   0  0  0  0  0  0  0  0  0  0  0  0
   57.2480   22.8990   47.6710 O   0  0  0  0  0  0  0  0  0  0  0  0
   57.2580   24.1070   46.9520 C   0  0  0  0  0  0  0  0  0  0  0  0
   58.4250   24.6210   46.3600 C   0  0  0  0  0  0  0  0  0  0  0  0
   58.3860   25.8170   45.6380 C   0  0  0  0  0  0  0  0  0  0  0  0
   57.1830   26.5390   45.5170 C   0  0  0  0  0  0  0  0  0  0  0  0
   57.1220   27.7620   44.7580 N   0  0  0  0  0  0  0  0  0  0  0  0
   57.3650   29.0670   45.3130 C   0  0  0  0  0  0  0  0  0  0  0  0
   57.4100   29.2170   46.5630 O   0  0  0  0  0  0  0  0  0  0  0  0
   57.5340   30.2380   44.4150 C   0  0  0  0  0  0  0  0  0  0  0  0
   56.9190   30.2230   43.1510 C   0  0  0  0  0  0  0  0  0  0  0  0
   57.0360   31.3140   42.2920 C   0  0  0  0  0  0  0  0  0  0  0  0
   57.7630   32.4290   42.7000 C   0  0  0  0  0  0  0  0  0  0  0  0
   58.3560   32.4400   43.9190 N   0  0  0  0  0  0  0  0  0  0  0  0
   58.2850   31.3850   44.7760 C   0  0  0  0  0  0  0  0  0  0  0  0
   59.1180   31.5430   46.3680 S   0  0  0  0  0  0  0  0  0  0  0  0
   59.8540   33.1850   46.0190 C   0  0  0  0  0  0  0  0  0  0  0  0
   59.9140   34.0170   47.2620 C   0  0  0  0  0  0  0  0  0  0  0  0
   59.0690   34.9370   47.4460 O   0  0  0  0  0  0  0  0  0  0  0  0
   60.9160   33.7480   48.2440 N   0  0  0  0  0  0  0  0  0  0  0  0
   60.8330   34.1930   49.6250 C   0  0  0  0  0  0  0  0  0  0  0  0
   59.7720   33.3950   50.3260 C   0  0  0  0  0  0  0  0  0  0  0  0
   59.2770   32.2140   49.7500 C   0  0  0  0  0  0  0  0  0  0  0  0
   58.2450   31.5030   50.3740 C   0  0  0  0  0  0  0  0  0  0  0  0
   57.6910   31.9680   51.5790 C   0  0  0  0  0  0  0  0  0  0  0  0
   56.5570   31.2270   52.2230 C   0  0  0  0  0  0  0  0  0  0  0  0
   58.1620   33.1690   52.1340 C   0  0  0  0  0  0  0  0  0  0  0  0
   59.1980   33.8760   51.5130 C   0  0  0  0  0  0  0  0  0  0  0  0
   56.0150   26.0210   46.1080 C   0  0  0  0  0  0  0  0  0  0  0  0
   54.8090   26.7030   45.9980 O   0  0  0  0  0  0  0  0  0  0  0  0
   56.0560   24.8140   46.8160 C   0  0  0  0  0  0  0  0  0  0  0  0
   56.4872   22.5991   49.5719 H   0  0  0  0  0  0  0  0  0  0  0  0
   55.2940   23.0942   48.3238 H   0  0  0  0  0  0  0  0  0  0  0  0
   55.9527   21.4230   48.3238 H   0  0  0  0  0  0  0  0  0  0  0  0
   59.3757   24.0779   46.4658 H   0  0  0  0  0  0  0  0  0  0  0  0
   59.3014   26.1970   45.1609 H   0  0  0  0  0  0  0  0  0  0  0  0
   56.7720   27.7110   43.7750 H   0  0  0  0  0  0  0  0  0  0  0  0
   56.3401   29.3419   42.8371 H   0  0  0  0  0  0  0  0  0  0  0  0
   56.5586   31.2944   41.3012 H   0  0  0  0  0  0  0  0  0  0  0  0
   57.8561   33.2997   42.0343 H   0  0  0  0  0  0  0  0  0  0  0  0
   60.8729   33.0475   45.6278 H   0  0  0  0  0  0  0  0  0  0  0  0
   59.2257   33.7024   45.2790 H   0  0  0  0  0  0  0  0  0  0  0  0
   61.8018   34.0380   50.1225 H   0  0  0  0  0  0  0  0  0  0  0  0
   60.5803   35.2631   49.6590 H   0  0  0  0  0  0  0  0  0  0  0  0
   59.7019   31.8459   48.8045 H   0  0  0  0  0  0  0  0  0  0  0  0
   57.8659   30.5760   49.9190 H   0  0  0  0  0  0  0  0  0  0  0  0
   56.6525   31.2894   53.3171 H   0  0  0  0  0  0  0  0  0  0  0  0
   55.6021   31.6759   51.9121 H   0  0  0  0  0  0  0  0  0  0  0  0
   56.5847   30.1722   51.9121 H   0  0  0  0  0  0  0  0  0  0  0  0
   57.7145   33.5559   53.0614 H   0  0  0  0  0  0  0  0  0  0  0  0
   59.5642   34.8132   51.9574 H   0  0  0  0  0  0  0  0  0  0  0  0
   55.1360   24.4169   47.2698 H   0  0  0  0  0  0  0  0  0  0  0  0
  1  2  1  0
  2  3  1  0
  3  4  2  0
  4  5  1  0
  5  6  2  0
  6  7  1  0
  7  8  1  0
  8  9  2  0
  8 10  1  0
 10 11  2  0
 11 12  1  0
 12 13  2  0
 13 14  1  0
 14 15  2  0
 15 16  1  0
 16 17  1  0
 17 18  1  0
 18 19  2  0
 18 20  1  0
 20 21  1  0
 21 22  1  0
 22 23  2  0
 23 24  1  0
 24 25  2  0
 25 26  1  0
 25 27  1  0
 27 28  2  0
  6 29  1  0
 29 30  1  0
 29 31  2  0
 31  3  1  0
 15 10  1  0
 28 22  1  0
  1 32  1  0
  1 33  1  0
  1 34  1  0
  4 35  1  0
  5 36  1  0
  7 37  1  0
 11 38  1  0
 12 39  1  0
 13 40  1  0
 17 41  1  0
 17 42  1  0
 21 43  1  0
 21 44  1  0
 23 45  1  0
 24 46  1  0
 26 47  1  0
 26 48  1  0
 26 49  1  0
 27 50  1  0
 28 51  1  0
 31 52  1  0
M  CHG  2  20  -1  30  -1
M  END
>  <UniqueID>  (12) 
11

>  <SMILES>  (12) 
COc1ccc(NC(=O)c2cccnc2SCC(=O)[N-]Cc2ccc(C)cc2)c([O-])c1

>  <Energy>  (12) 
54.559017013839956

>  <Genealogy>  (12) 
COc1ccc(NC(=O)c2cccnc2SCC(=O)[N-]Cc2ccc(C)cc2)c([O-])c1 (protonated)
COc1ccc(NC(=O)c2cccnc2SCC(=O)[N-]Cc2ccc(C)cc2)c([O-])c1 (3D coordinates assigned)
COc1ccc(NC(=O)c2cccnc2SCC(=O)[N-]Cc2ccc(C)cc2)c([O-])c1 (optimized conformer: 54.559017013839956 kcal/mol)

>  <smiles>  (12) 
COc1ccc(NC(=O)c2cccnc2SCC(=O)NCc2ccc(C)cc2)c(O)c1

>  <score_type>  (12) 
oracle

>  <origin>  (12) 
adg

>  <m_score__min__energy>  (12) 
-14.6

>  <m_primary>  (12) 
energy

$$$$
12:0
     RDKit          3D

 55 58  0  0  0  0  0  0  0  0999 V2000
   56.1770   27.1820   45.8630 O   0  0  0  0  0  0  0  0  0  0  0  0
   56.6760   28.3140   45.6280 C   0  0  0  0  0  0  0  0  0  0  0  0
   55.9890   29.2530   44.7900 N   0  0  0  0  0  0  0  0  0  0  0  0
   56.5790   30.3570   44.0880 C   0  0  0  0  0  0  0  0  0  0  0  0
   56.6170   30.3200   42.6890 C   0  0  0  0  0  0  0  0  0  0  0  0
   57.1980   31.3680   41.9700 C   0  0  0  0  0  0  0  0  0  0  0  0
   57.7620   32.4520   42.6460 C   0  0  0  0  0  0  0  0  0  0  0  0
   57.7580   32.4890   44.0450 C   0  0  0  0  0  0  0  0  0  0  0  0
   58.4750   33.8650   44.8820 S   0  0  0  0  0  0  0  0  0  0  0  0
   57.4550   34.9650   44.9620 O   0  0  0  0  0  0  0  0  0  0  0  0
   59.6670   34.3700   44.1170 O   0  0  0  0  0  0  0  0  0  0  0  0
   58.9590   33.3920   46.4910 N   0  0  0  0  0  0  0  0  0  0  0  0
   59.7930   34.4470   47.1050 C   0  0  0  0  0  0  0  0  0  0  0  0
   59.9140   34.2530   48.6310 C   0  0  0  0  0  0  0  0  0  0  0  0
   59.5650   32.9350   49.0000 O   0  0  0  0  0  0  0  0  0  0  0  0
   58.1860   32.7170   48.7520 C   0  0  0  0  0  0  0  0  0  0  0  0
   57.7720   33.1140   47.3170 C   0  0  0  0  0  0  0  0  0  0  0  0
   57.1680   31.4390   44.7660 C   0  0  0  0  0  0  0  0  0  0  0  0
   58.0010   28.6530   46.1650 C   0  0  0  0  0  0  0  0  0  0  0  0
   58.2510   29.1480   47.4330 C   0  0  0  0  0  0  0  0  0  0  0  0
   59.6180   29.3130   47.5020 C   0  0  0  0  0  0  0  0  0  0  0  0
   60.5230   29.8770   48.8950 S   0  0  0  0  0  0  0  0  0  0  0  0
   59.5700   30.1780   50.0190 O   0  0  0  0  0  0  0  0  0  0  0  0
   61.4640   28.7920   49.3370 O   0  0  0  0  0  0  0  0  0  0  0  0
   61.4360   31.2990   48.4600 N   0  0  0  0  0  0  0  0  0  0  0  0
   62.5360   31.5320   49.3950 C   0  0  0  0  0  0  0  0  0  0  0  0
   63.6090   32.2830   48.6230 C   0  0  0  0  0  0  0  0  0  0  0  0
   63.3060   32.0240   47.1560 C   0  0  0  0  0  0  0  0  0  0  0  0
   62.0660   31.1430   47.1500 C   0  0  0  0  0  0  0  0  0  0  0  0
   60.1470   28.9140   46.2920 C   0  0  0  0  0  0  0  0  0  0  0  0
   59.1530   28.5140   45.4780 N   0  0  0  0  0  0  0  0  0  0  0  0
   56.1871   29.4612   42.1527 H   0  0  0  0  0  0  0  0  0  0  0  0
   57.2111   31.3390   40.8705 H   0  0  0  0  0  0  0  0  0  0  0  0
   58.2109   33.2795   42.0770 H   0  0  0  0  0  0  0  0  0  0  0  0
   59.5250   32.5150   46.4030 H   0  0  0  0  0  0  0  0  0  0  0  0
   60.7981   34.4133   46.6592 H   0  0  0  0  0  0  0  0  0  0  0  0
   59.3146   35.4195   46.9168 H   0  0  0  0  0  0  0  0  0  0  0  0
   60.9517   34.4503   48.9381 H   0  0  0  0  0  0  0  0  0  0  0  0
   59.2265   34.9518   49.1301 H   0  0  0  0  0  0  0  0  0  0  0  0
   57.9655   31.6495   48.9000 H   0  0  0  0  0  0  0  0  0  0  0  0
   57.6172   33.3485   49.4504 H   0  0  0  0  0  0  0  0  0  0  0  0
   57.2022   32.2891   46.8643 H   0  0  0  0  0  0  0  0  0  0  0  0
   57.1543   34.0229   47.3658 H   0  0  0  0  0  0  0  0  0  0  0  0
   57.1664   31.4627   45.8657 H   0  0  0  0  0  0  0  0  0  0  0  0
   57.5139   29.3643   48.2203 H   0  0  0  0  0  0  0  0  0  0  0  0
   62.1889   32.1350   50.2470 H   0  0  0  0  0  0  0  0  0  0  0  0
   62.9247   30.5840   49.7951 H   0  0  0  0  0  0  0  0  0  0  0  0
   63.5585   33.3598   48.8422 H   0  0  0  0  0  0  0  0  0  0  0  0
   64.6204   31.9485   48.8973 H   0  0  0  0  0  0  0  0  0  0  0  0
   63.1086   32.9701   46.6308 H   0  0  0  0  0  0  0  0  0  0  0  0
   64.1517   31.5441   46.6418 H   0  0  0  0  0  0  0  0  0  0  0  0
   61.3758   31.4647   46.3562 H   0  0  0  0  0  0  0  0  0  0  0  0
   62.3273   30.0918   46.9583 H   0  0  0  0  0  0  0  0  0  0  0  0
   61.2160   28.9217   46.0327 H   0  0  0  0  0  0  0  0  0  0  0  0
   59.2650   28.1600   44.5020 H   0  0  0  0  0  0  0  0  0  0  0  0
  1  2  2  0
  2  3  1  0
  3  4  1  0
  4  5  2  0
  5  6  1  0
  6  7  2  0
  7  8  1  0
  8  9  1  0
  9 10  2  0
  9 11  2  0
  9 12  1  0
 12 13  1  0
 13 14  1  0
 14 15  1  0
 15 16  1  0
 16 17  1  0
  8 18  2  0
  2 19  1  0
 19 20  2  0
 20 21  1  0
 21 22  1  0
 22 23  2  0
 22 24  2  0
 22 25  1  0
 25 26  1  0
 26 27  1  0
 27 28  1  0
 28 29  1  0
 21 30  2  0
 30 31  1  0
 18  4  1  0
 31 19  1  0
 17 12  1  0
 29 25  1  0
  5 32  1  0
  6 33  1  0
  7 34  1  0
 12 35  1  0
 13 36  1  0
 13 37  1  0
 14 38  1  0
 14 39  1  0
 16 40  1  0
 16 41  1  0
 17 42  1  0
 17 43  1  0
 18 44  1  0
 20 45  1  0
 26 46  1  0
 26 47  1  0
 27 48  1  0
 27 49  1  0
 28 50  1  0
 28 51  1  0
 29 52  1  0
 29 53  1  0
 30 54  1  0
 31 55  1  0
M  CHG  2   3  -1  12   1
M  END
>  <UniqueID>  (13) 
12

>  <SMILES>  (13) 
O=C([N-]c1cccc(S(=O)(=O)[NH+]2CCOCC2)c1)c1cc(S(=O)(=O)N2CCCC2)c[nH]1

>  <Energy>  (13) 
92.58302685314092

>  <Genealogy>  (13) 
O=C([N-]c1cccc(S(=O)(=O)[NH+]2CCOCC2)c1)c1cc(S(=O)(=O)N2CCCC2)c[nH]1 (protonated)
O=C([N-]c1cccc(S(=O)(=O)[NH+]2CCOCC2)c1)c1cc(S(=O)(=O)N2CCCC2)c[nH]1 (3D coordinates assigned)
O=C([N-]c1cccc(S(=O)(=O)[NH+]2CCOCC2)c1)c1cc(S(=O)(=O)N2CCCC2)c[nH]1 (nonaromatic ring conformer: 92.58302685314092 kcal/mol)

>  <smiles>  (13) 
O=C(Nc1cccc(S(=O)(=O)N2CCOCC2)c1)c1cc(S(=O)(=O)N2CCCC2)c[nH]1

>  <score_type>  (13) 
oracle

>  <origin>  (13) 
adg

>  <m_score__min__energy>  (13) 
-10.08

>  <m_primary>  (13) 
energy

$$$$
13:0
     RDKit          3D

 53 56  0  0  0  0  0  0  0  0999 V2000
   54.2620   25.1390   45.6190 C   0  0  0  0  0  0  0  0  0  0  0  0
   55.1990   26.1990   45.9640 N   0  0  0  0  0  0  0  0  0  0  0  0
   56.6130   26.1550   45.7350 C   0  0  0  0  0  0  0  0  0  0  0  0
   57.0430   25.5430   44.7220 O   0  0  0  0  0  0  0  0  0  0  0  0
   57.5800   26.8420   46.6110 C   0  0  0  0  0  0  0  0  0  0  0  0
   58.5740   26.1330   47.2990 C   0  0  0  0  0  0  0  0  0  0  0  0
   59.4820   26.8260   48.1000 C   0  0  0  0  0  0  0  0  0  0  0  0
   59.4140   28.2250   48.2020 C   0  0  0  0  0  0  0  0  0  0  0  0
   60.3760   28.9740   49.0500 C   0  0  0  0  0  0  0  0  0  0  0  0
   60.9710   28.3590   50.1640 C   0  0  0  0  0  0  0  0  0  0  0  0
   61.8830   29.0580   50.9540 C   0  0  0  0  0  0  0  0  0  0  0  0
   62.2090   30.3800   50.6480 C   0  0  0  0  0  0  0  0  0  0  0  0
   61.6190   31.0310   49.5480 C   0  0  0  0  0  0  0  0  0  0  0  0
   62.0410   32.4730   49.2360 C   0  0  2  0  0  0  0  0  0  0  0  0
   61.1290   33.1430   48.1830 C   0  0  0  0  0  0  0  0  0  0  0  0
   59.7510   33.2870   48.4810 C   0  0  0  0  0  0  0  0  0  0  0  0
   58.8680   33.8770   47.5790 C   0  0  0  0  0  0  0  0  0  0  0  0
   59.3320   34.3670   46.3660 C   0  0  0  0  0  0  0  0  0  0  0  0
   58.4690   34.9360   45.4880 F   0  0  0  0  0  0  0  0  0  0  0  0
   60.6900   34.2990   46.0630 C   0  0  0  0  0  0  0  0  0  0  0  0
   61.6070   33.7240   46.9640 C   0  0  0  0  0  0  0  0  0  0  0  0
   63.0650   33.7750   46.5840 C   0  0  0  0  0  0  0  0  0  0  0  0
   63.4440   32.4220   48.8110 N   0  0  0  0  0  0  0  0  0  0  0  0
   64.2060   32.9860   49.6960 C   0  0  0  0  0  0  0  0  0  0  0  0
   65.6180   33.0980   49.5140 N   0  0  0  0  0  0  0  0  0  0  0  0
   63.5110   33.5600   50.7990 N   0  0  0  0  0  0  0  0  0  0  0  0
   63.9970   34.6350   51.6540 C   0  0  0  0  0  0  0  0  0  0  0  0
   62.1520   33.3330   50.4610 C   0  0  0  0  0  0  0  0  0  0  0  0
   61.1830   33.8600   51.0730 O   0  0  0  0  0  0  0  0  0  0  0  0
   60.7100   30.3070   48.7450 C   0  0  0  0  0  0  0  0  0  0  0  0
   58.4180   28.8970   47.4730 C   0  0  0  0  0  0  0  0  0  0  0  0
   57.5420   28.1990   46.7030 N   0  0  0  0  0  0  0  0  0  0  0  0
   53.8633   24.6880   46.5397 H   0  0  0  0  0  0  0  0  0  0  0  0
   53.4345   25.5590   45.0283 H   0  0  0  0  0  0  0  0  0  0  0  0
   54.7804   24.3693   45.0283 H   0  0  0  0  0  0  0  0  0  0  0  0
   58.6378   25.0386   47.2082 H   0  0  0  0  0  0  0  0  0  0  0  0
   60.2551   26.2738   48.6545 H   0  0  0  0  0  0  0  0  0  0  0  0
   60.7157   27.3189   50.4149 H   0  0  0  0  0  0  0  0  0  0  0  0
   62.3471   28.5657   51.8213 H   0  0  0  0  0  0  0  0  0  0  0  0
   62.9353   30.9196   51.2735 H   0  0  0  0  0  0  0  0  0  0  0  0
   59.3696   32.9245   49.4470 H   0  0  0  0  0  0  0  0  0  0  0  0
   57.7996   33.9547   47.8290 H   0  0  0  0  0  0  0  0  0  0  0  0
   61.0517   34.7007   45.1050 H   0  0  0  0  0  0  0  0  0  0  0  0
   63.6809   33.7965   47.4952 H   0  0  0  0  0  0  0  0  0  0  0  0
   63.3204   32.8852   45.9898 H   0  0  0  0  0  0  0  0  0  0  0  0
   63.2576   34.6804   45.9898 H   0  0  0  0  0  0  0  0  0  0  0  0
   66.0700   32.6930   48.6650 H   0  0  0  0  0  0  0  0  0  0  0  0
   66.2160   33.5780   50.2200 H   0  0  0  0  0  0  0  0  0  0  0  0
   63.8686   34.3510   52.7089 H   0  0  0  0  0  0  0  0  0  0  0  0
   65.0631   34.8128   51.4493 H   0  0  0  0  0  0  0  0  0  0  0  0
   63.4263   35.5528   51.4493 H   0  0  0  0  0  0  0  0  0  0  0  0
   60.2563   30.7921   47.8682 H   0  0  0  0  0  0  0  0  0  0  0  0
   58.3470   29.9934   47.5258 H   0  0  0  0  0  0  0  0  0  0  0  0
  1  2  1  0
  2  3  1  0
  3  4  2  0
  3  5  1  0
  5  6  2  0
  6  7  1  0
  7  8  2  0
  8  9  1  0
  9 10  2  0
 10 11  1  0
 11 12  2  0
 12 13  1  0
 14 13  1  1
 14 15  1  0
 15 16  2  0
 16 17  1  0
 17 18  2  0
 18 19  1  0
 18 20  1  0
 20 21  2  0
 21 22  1  0
 14 23  1  0
 23 24  2  0
 24 25  1  0
 24 26  1  0
 26 27  1  0
 26 28  1  0
 28 29  2  0
 13 30  2  0
  8 31  1  0
 31 32  2  0
 32  5  1  0
 30  9  1  0
 28 14  1  0
 21 15  1  0
  1 33  1  0
  1 34  1  0
  1 35  1  0
  6 36  1  0
  7 37  1  0
 10 38  1  0
 11 39  1  0
 12 40  1  0
 16 41  1  0
 17 42  1  0
 20 43  1  0
 22 44  1  0
 22 45  1  0
 22 46  1  0
 25 47  1  0
 25 48  1  0
 27 49  1  0
 27 50  1  0
 27 51  1  0
 30 52  1  0
 31 53  1  0
M  CHG  1   2  -1
M  END
>  <UniqueID>  (14) 
13

>  <SMILES>  (14) 
C[N-]C(=O)c1ccc(-c2cccc([C@]3(c4ccc(F)cc4C)N=C(N)N(C)C3=O)c2)cn1

>  <Energy>  (14) 
96.50319972798506

>  <Genealogy>  (14) 
C[N-]C(=O)c1ccc(-c2cccc(C3(c4ccc(F)cc4C)N=C(N)N(C)C3=O)c2)cn1 (protonated)
C[N-]C(=O)c1ccc(-c2cccc([C@]3(c4ccc(F)cc4C)N=C(N)N(C)C3=O)c2)cn1 (chirality)
C[N-]C(=O)c1ccc(-c2cccc([C@]3(c4ccc(F)cc4C)N=C(N)N(C)C3=O)c2)cn1 (3D coordinates assigned)
C[N-]C(=O)c1ccc(-c2cccc([C@]3(c4ccc(F)cc4C)N=C(N)N(C)C3=O)c2)cn1 (nonaromatic ring conformer: 96.50319972798506 kcal/mol)

>  <smiles>  (14) 
CNC(=O)c1ccc(-c2cccc(C3(c4ccc(F)cc4C)N=C(N)N(C)C3=O)c2)cn1

>  <score_type>  (14) 
oracle

>  <origin>  (14) 
adg

>  <m_score__min__energy>  (14) 
-10.17

>  <m_primary>  (14) 
energy

$$$$
14:0
     RDKit          3D

 44 46  0  0  0  0  0  0  0  0999 V2000
   59.2340   32.9380   48.2020 C   0  0  0  0  0  0  0  0  0  0  0  0
   59.2210   33.5520   46.8690 C   0  0  0  0  0  0  0  0  0  0  0  0
   59.6360   34.8870   46.7990 C   0  0  0  0  0  0  0  0  0  0  0  0
   59.6550   35.5610   45.6020 C   0  0  0  0  0  0  0  0  0  0  0  0
   60.0150   36.7600   45.4740 O   0  0  0  0  0  0  0  0  0  0  0  0
   59.2710   34.9050   44.5430 O   0  0  0  0  0  0  0  0  0  0  0  0
   58.8670   33.6350   44.5520 C   0  0  0  0  0  0  0  0  0  0  0  0
   58.4800   33.0730   43.2410 C   0  0  0  0  0  0  0  0  0  0  0  0
   58.8170   32.8860   45.7070 C   0  0  0  0  0  0  0  0  0  0  0  0
   58.4350   31.5210   45.8300 C   0  0  0  0  0  0  0  0  0  0  0  0
   57.1980   31.2390   45.6350 O   0  0  0  0  0  0  0  0  0  0  0  0
   59.2460   30.4080   46.1380 N   0  0  0  0  0  0  0  0  0  0  0  0
   58.6660   29.0900   46.2260 C   0  0  0  0  0  0  0  0  0  0  0  0
   58.8940   28.4010   47.4010 C   0  0  0  0  0  0  0  0  0  0  0  0
   58.3430   27.1380   47.4980 C   0  0  0  0  0  0  0  0  0  0  0  0
   57.5920   26.5770   46.4640 C   0  0  0  0  0  0  0  0  0  0  0  0
   56.9520   24.9600   46.7200 S   0  0  0  0  0  0  0  0  0  0  0  0
   55.5020   24.9280   46.2450 O   0  0  0  0  0  0  0  0  0  0  0  0
   56.8720   24.7280   48.2060 O   0  0  0  0  0  0  0  0  0  0  0  0
   57.8150   23.7620   45.8790 N   0  0  0  0  0  0  0  0  0  0  0  0
   57.3940   23.1730   44.8260 C   0  0  0  0  0  0  0  0  0  0  0  0
   57.9720   21.9680   44.5500 N   0  0  0  0  0  0  0  0  0  0  0  0
   57.5890   21.2980   43.4770 C   0  0  0  0  0  0  0  0  0  0  0  0
   56.6280   21.7440   42.6070 C   0  0  0  0  0  0  0  0  0  0  0  0
   56.0440   22.9630   42.8870 C   0  0  0  0  0  0  0  0  0  0  0  0
   56.4630   23.6170   43.9950 N   0  0  0  0  0  0  0  0  0  0  0  0
   57.3780   27.2850   45.3010 C   0  0  0  0  0  0  0  0  0  0  0  0
   57.9280   28.5670   45.1820 C   0  0  0  0  0  0  0  0  0  0  0  0
   59.2173   33.7263   48.9690 H   0  0  0  0  0  0  0  0  0  0  0  0
   58.3493   32.2947   48.3180 H   0  0  0  0  0  0  0  0  0  0  0  0
   60.1452   32.3328   48.3180 H   0  0  0  0  0  0  0  0  0  0  0  0
   59.9519   35.4046   47.7168 H   0  0  0  0  0  0  0  0  0  0  0  0
   57.8622   32.1759   43.3946 H   0  0  0  0  0  0  0  0  0  0  0  0
   57.9051   33.8218   42.6763 H   0  0  0  0  0  0  0  0  0  0  0  0
   59.3846   32.8030   42.6763 H   0  0  0  0  0  0  0  0  0  0  0  0
   60.2490   30.4750   46.2860 H   0  0  0  0  0  0  0  0  0  0  0  0
   59.4855   28.8367   48.2197 H   0  0  0  0  0  0  0  0  0  0  0  0
   58.5010   26.5566   48.4184 H   0  0  0  0  0  0  0  0  0  0  0  0
   58.0676   20.3293   43.2708 H   0  0  0  0  0  0  0  0  0  0  0  0
   56.3351   21.1563   41.7245 H   0  0  0  0  0  0  0  0  0  0  0  0
   55.2670   23.3869   42.2338 H   0  0  0  0  0  0  0  0  0  0  0  0
   56.0150   24.5250   44.1860 H   0  0  0  0  0  0  0  0  0  0  0  0
   56.7862   26.8509   44.4816 H   0  0  0  0  0  0  0  0  0  0  0  0
   57.7736   29.1533   44.2642 H   0  0  0  0  0  0  0  0  0  0  0  0
  1  2  1  0
  2  3  2  0
  3  4  1  0
  4  5  2  0
  4  6  1  0
  6  7  1  0
  7  8  1  0
  7  9  2  0
  9 10  1  0
 10 11  2  0
 10 12  1  0
 12 13  1  0
 13 14  2  0
 14 15  1  0
 15 16  2  0
 16 17  1  0
 17 18  2  0
 17 19  2  0
 17 20  1  0
 20 21  2  3
 21 22  1  0
 22 23  2  0
 23 24  1  0
 24 25  2  0
 25 26  1  0
 16 27  1  0
 27 28  2  0
  9  2  1  0
 28 13  1  0
 26 21  1  0
  1 29  1  0
  1 30  1  0
  1 31  1  0
  3 32  1  0
  8 33  1  0
  8 34  1  0
  8 35  1  0
 12 36  1  0
 14 37  1  0
 15 38  1  0
 23 39  1  0
 24 40  1  0
 25 41  1  0
 26 42  1  0
 27 43  1  0
 28 44  1  0
M  END
>  <smiles>  (15) 
Cc1cc(=O)oc(C)c1C(=O)Nc1ccc(S(=O)(=O)N=c2nccc[nH]2)cc1

>  <score_type>  (15) 
oracle

>  <origin>  (15) 
adg

>  <m_score__min__energy>  (15) 
-7.9100000000000001

>  <m_primary>  (15) 
energy

$$$$
15:0
     RDKit          3D

 69 72  0  0  0  0  0  0  0  0999 V2000
   60.7790   26.9940   50.1250 C   0  0  0  0  0  0  0  0  0  0  0  0
   60.4060   27.3060   48.7860 O   0  0  0  0  0  0  0  0  0  0  0  0
   60.0490   28.5880   48.3360 C   0  0  0  0  0  0  0  0  0  0  0  0
   59.6230   29.5910   49.2260 C   0  0  0  0  0  0  0  0  0  0  0  0
   59.2160   30.8430   48.7560 C   0  0  0  0  0  0  0  0  0  0  0  0
   58.7550   31.8160   49.7000 N   0  0  0  0  0  0  0  0  0  0  0  0
   59.7220   33.1570   50.2310 S   0  0  0  0  0  0  0  0  0  0  0  0
   59.4840   33.4040   51.6940 O   0  0  0  0  0  0  0  0  0  0  0  0
   59.3180   34.3770   49.4510 O   0  0  0  0  0  0  0  0  0  0  0  0
   61.4450   32.8350   49.9720 C   0  0  0  0  0  0  0  0  0  0  0  0
   62.2010   32.3250   51.0410 C   0  0  0  0  0  0  0  0  0  0  0  0
   63.5780   32.1410   50.9190 C   0  0  0  0  0  0  0  0  0  0  0  0
   64.2290   32.4590   49.7290 C   0  0  0  0  0  0  0  0  0  0  0  0
   63.4940   32.9320   48.6350 C   0  0  0  0  0  0  0  0  0  0  0  0
   64.1400   33.2330   47.4290 C   0  0  0  0  0  0  0  0  0  0  0  0
   63.4000   33.6830   46.3360 C   0  0  0  0  0  0  0  0  0  0  0  0
   62.0180   33.8180   46.4530 C   0  0  0  0  0  0  0  0  0  0  0  0
   61.3910   33.5260   47.6300 N   0  0  0  0  0  0  0  0  0  0  0  0
   62.0880   33.1060   48.7340 C   0  0  0  0  0  0  0  0  0  0  0  0
   59.3060   31.1440   47.3870 C   0  0  0  0  0  0  0  0  0  0  0  0
   58.9760   32.4360   46.9500 O   0  0  0  0  0  0  0  0  0  0  0  0
   57.9390   32.7320   46.0190 C   0  0  0  0  0  0  0  0  0  0  0  0
   59.7480   30.1490   46.4960 C   0  0  0  0  0  0  0  0  0  0  0  0
   60.1130   28.8740   46.9580 C   0  0  0  0  0  0  0  0  0  0  0  0
   60.5570   27.8340   45.9560 C   0  0  0  0  0  0  0  0  0  0  0  0
   59.7910   26.5950   46.1280 N   0  0  0  0  0  0  0  0  0  0  0  0
   58.3470   26.8320   45.9760 C   0  0  0  0  0  0  0  0  0  0  0  0
   57.8620   26.3070   44.6230 C   0  0  0  0  0  0  0  0  0  0  0  0
   56.8100   25.2360   44.7940 C   0  0  0  0  0  0  0  0  0  0  0  0
   55.8220   25.3660   45.7810 C   0  0  0  0  0  0  0  0  0  0  0  0
   54.8620   24.3670   45.9550 C   0  0  0  0  0  0  0  0  0  0  0  0
   54.8760   23.2160   45.1440 C   0  0  0  0  0  0  0  0  0  0  0  0
   53.9060   22.2050   45.2690 O   0  0  0  0  0  0  0  0  0  0  0  0
   53.2630   21.8490   46.4910 C   0  0  0  0  0  0  0  0  0  0  0  0
   55.8860   23.0570   44.1790 C   0  0  0  0  0  0  0  0  0  0  0  0
   55.8960   21.8790   43.4120 O   0  0  0  0  0  0  0  0  0  0  0  0
   57.0760   21.1870   43.0170 C   0  0  0  0  0  0  0  0  0  0  0  0
   56.8520   24.0710   44.0120 C   0  0  0  0  0  0  0  0  0  0  0  0
   60.1273   27.5391   50.8237 H   0  0  0  0  0  0  0  0  0  0  0  0
   60.6726   25.9121   50.2926 H   0  0  0  0  0  0  0  0  0  0  0  0
   61.8251   27.2899   50.2926 H   0  0  0  0  0  0  0  0  0  0  0  0
   59.6100   29.3871   50.3069 H   0  0  0  0  0  0  0  0  0  0  0  0
   61.7004   32.0676   51.9861 H   0  0  0  0  0  0  0  0  0  0  0  0
   64.1536   31.7424   51.7674 H   0  0  0  0  0  0  0  0  0  0  0  0
   65.3195   32.3386   49.6489 H   0  0  0  0  0  0  0  0  0  0  0  0
   65.2303   33.1145   47.3442 H   0  0  0  0  0  0  0  0  0  0  0  0
   63.9031   33.9294   45.3893 H   0  0  0  0  0  0  0  0  0  0  0  0
   61.4280   34.1623   45.5908 H   0  0  0  0  0  0  0  0  0  0  0  0
   60.3530   33.6290   47.6460 H   0  0  0  0  0  0  0  0  0  0  0  0
   57.0204   32.9942   46.5644 H   0  0  0  0  0  0  0  0  0  0  0  0
   58.2445   33.5788   45.3869 H   0  0  0  0  0  0  0  0  0  0  0  0
   57.7514   31.8515   45.3869 H   0  0  0  0  0  0  0  0  0  0  0  0
   59.8086   30.3732   45.4208 H   0  0  0  0  0  0  0  0  0  0  0  0
   60.3971   28.2202   44.9385 H   0  0  0  0  0  0  0  0  0  0  0  0
   61.6236   27.6180   46.1164 H   0  0  0  0  0  0  0  0  0  0  0  0
   59.9610   26.2430   47.1000 H   0  0  0  0  0  0  0  0  0  0  0  0
   57.8073   26.3124   46.7814 H   0  0  0  0  0  0  0  0  0  0  0  0
   58.1544   27.9137   46.0299 H   0  0  0  0  0  0  0  0  0  0  0  0
   57.4338   27.1411   44.0477 H   0  0  0  0  0  0  0  0  0  0  0  0
   58.7205   25.8685   44.0931 H   0  0  0  0  0  0  0  0  0  0  0  0
   55.8033   26.2600   46.4216 H   0  0  0  0  0  0  0  0  0  0  0  0
   54.0900   24.4799   46.7304 H   0  0  0  0  0  0  0  0  0  0  0  0
   53.8752   22.1879   47.3397 H   0  0  0  0  0  0  0  0  0  0  0  0
   52.2739   22.3280   46.5380 H   0  0  0  0  0  0  0  0  0  0  0  0
   53.1439   20.7565   46.5380 H   0  0  0  0  0  0  0  0  0  0  0  0
   57.6281   20.8633   43.9117 H   0  0  0  0  0  0  0  0  0  0  0  0
   56.8014   20.3068   42.4171 H   0  0  0  0  0  0  0  0  0  0  0  0
   57.7101   21.8563   42.4171 H   0  0  0  0  0  0  0  0  0  0  0  0
   57.6465   23.9477   43.2613 H   0  0  0  0  0  0  0  0  0  0  0  0
  1  2  1  0
  2  3  1  0
  3  4  2  0
  4  5  1  0
  5  6  1  0
  6  7  1  0
  7  8  2  0
  7  9  2  0
  7 10  1  0
 10 11  2  0
 11 12  1  0
 12 13  2  0
 13 14  1  0
 14 15  2  0
 15 16  1  0
 16 17  2  0
 17 18  1  0
 18 19  2  0
  5 20  2  0
 20 21  1  0
 21 22  1  0
 20 23  1  0
 23 24  2  0
 24 25  1  0
 25 26  1  0
 26 27  1  0
 27 28  1  0
 28 29  1  0
 29 30  2  0
 30 31  1  0
 31 32  2  0
 32 33  1  0
 33 34  1  0
 32 35  1  0
 35 36  1  0
 36 37  1  0
 35 38  2  0
 24  3  1  0
 38 29  1  0
 19 10  1  0
 19 14  1  0
  1 39  1  0
  1 40  1  0
  1 41  1  0
  4 42  1  0
 11 43  1  0
 12 44  1  0
 13 45  1  0
 15 46  1  0
 16 47  1  0
 17 48  1  0
 18 49  1  0
 22 50  1  0
 22 51  1  0
 22 52  1  0
 23 53  1  0
 25 54  1  0
 25 55  1  0
 26 56  1  0
 27 57  1  0
 27 58  1  0
 28 59  1  0
 28 60  1  0
 30 61  1  0
 31 62  1  0
 34 63  1  0
 34 64  1  0
 34 65  1  0
 37 66  1  0
 37 67  1  0
 37 68  1  0
 38 69  1  0
M  CHG  2   6  -1  18   1
M  END
>  <UniqueID>  (16) 
14

>  <SMILES>  (16) 
COc1cc([N-]S(=O)(=O)c2cccc3ccc[nH+]c23)c(OC)cc1CNCCc1ccc(OC)c(OC)c1

>  <Energy>  (16) 
77.57199472943392

>  <Genealogy>  (16) 
COc1cc([N-]S(=O)(=O)c2cccc3ccc[nH+]c23)c(OC)cc1CNCCc1ccc(OC)c(OC)c1 (protonated)
COc1cc([N-]S(=O)(=O)c2cccc3ccc[nH+]c23)c(OC)cc1CNCCc1ccc(OC)c(OC)c1 (3D coordinates assigned)
COc1cc([N-]S(=O)(=O)c2cccc3ccc[nH+]c23)c(OC)cc1CNCCc1ccc(OC)c(OC)c1 (optimized conformer: 77.57199472943392 kcal/mol)

>  <smiles>  (16) 
COc1cc(NS(=O)(=O)c2cccc3cccnc23)c(OC)cc1CNCCc1ccc(OC)c(OC)c1

>  <score_type>  (16) 
oracle

>  <origin>  (16) 
adg

>  <m_score__min__energy>  (16) 
-8.8200000000000003

>  <m_primary>  (16) 
energy

$$$$
16:0
     RDKit          3D

 39 40  0  0  0  0  0  0  0  0999 V2000
   60.1120   28.3260   46.9490 H   0  0  0  0  0  0  0  0  0  0  0  0
   60.7230   28.0730   47.6900 O   0  0  0  0  0  0  0  0  0  0  0  0
   60.6900   26.6740   47.7750 C   0  0  0  0  0  0  0  0  0  0  0  0
   59.6976   26.3563   48.1275 H   0  0  0  0  0  0  0  0  0  0  0  0
   61.4672   26.3424   48.4792 H   0  0  0  0  0  0  0  0  0  0  0  0
   60.9620   26.0480   46.4100 C   0  0  0  0  0  0  0  0  0  0  0  0
   61.5638   25.1363   46.5389 H   0  0  0  0  0  0  0  0  0  0  0  0
   61.5102   26.7657   45.7820 H   0  0  0  0  0  0  0  0  0  0  0  0
   59.7270   25.7160   45.7810 O   0  0  0  0  0  0  0  0  0  0  0  0
   58.6300   26.5840   45.6560 C   0  0  0  0  0  0  0  0  0  0  0  0
   57.4320   26.1430   46.0560 C   0  0  0  0  0  0  0  0  0  0  0  0
   57.3450   25.1478   46.5165 H   0  0  0  0  0  0  0  0  0  0  0  0
   56.2290   26.9740   45.8870 C   0  0  0  0  0  0  0  0  0  0  0  0
   55.1210   26.5720   46.3340 O   0  0  0  0  0  0  0  0  0  0  0  0
   56.3170   28.2540   45.1600 C   0  0  0  0  0  0  0  0  0  0  0  0
   55.1490   28.9660   44.8980 O   0  0  0  0  0  0  0  0  0  0  0  0
   57.5080   28.7070   44.7290 C   0  0  0  0  0  0  0  0  0  0  0  0
   57.5790   29.9670   43.9480 C   0  0  0  0  0  0  0  0  0  0  0  0
   56.8052   30.1388   43.1853 H   0  0  0  0  0  0  0  0  0  0  0  0
   58.5190   30.9120   44.1050 C   0  0  0  0  0  0  0  0  0  0  0  0
   59.4822   30.7655   43.5943 H   0  0  0  0  0  0  0  0  0  0  0  0
   58.3500   32.1370   44.9170 C   0  0  0  0  0  0  0  0  0  0  0  0
   57.8880   33.2870   44.2570 C   0  0  0  0  0  0  0  0  0  0  0  0
   57.7302   33.2642   43.1686 H   0  0  0  0  0  0  0  0  0  0  0  0
   57.6270   34.4590   44.9690 C   0  0  0  0  0  0  0  0  0  0  0  0
   57.2524   35.3499   44.4437 H   0  0  0  0  0  0  0  0  0  0  0  0
   57.8410   34.5000   46.3450 C   0  0  0  0  0  0  0  0  0  0  0  0
   57.6122   35.4162   46.9091 H   0  0  0  0  0  0  0  0  0  0  0  0
   58.3450   33.3810   47.0090 C   0  0  0  0  0  0  0  0  0  0  0  0
   58.5196   33.4258   48.0941 H   0  0  0  0  0  0  0  0  0  0  0  0
   58.6320   32.1980   46.3080 C   0  0  0  0  0  0  0  0  0  0  0  0
   59.3900   30.8700   47.2100 S   0  0  0  0  0  0  0  0  0  0  0  0
   58.4750   29.6820   47.3050 O   0  0  0  0  0  0  0  0  0  0  0  0
   59.7380   31.3410   48.5940 O   0  0  0  0  0  0  0  0  0  0  0  0
   60.8350   30.3610   46.4030 N   0  0  0  0  0  0  0  0  0  0  0  0
   60.6500   30.3930   45.3760 H   0  0  0  0  0  0  0  0  0  0  0  0
   60.9960   29.3610   46.6580 H   0  0  0  0  0  0  0  0  0  0  0  0
   58.7400   27.9600   45.0980 C   0  0  0  0  0  0  0  0  0  0  0  0
   59.8620   28.5260   45.0120 O   0  0  0  0  0  0  0  0  0  0  0  0
  1  2  1  0
  2  3  1  0
  3  4  1  0
  3  5  1  0
  3  6  1  0
  6  7  1  0
  6  8  1  0
  6  9  1  0
  9 10  1  0
 10 11  2  0
 11 12  1  0
 11 13  1  0
 13 14  2  0
 13 15  1  0
 15 16  1  0
 15 17  2  0
 17 18  1  0
 18 19  1  0
 18 20  2  0
 20 21  1  0
 20 22  1  0
 22 23  2  0
 23 24  1  0
 23 25  1  0
 25 26  1  0
 25 27  2  0
 27 28  1  0
 27 29  1  0
 29 30  1  0
 29 31  2  0
 31 32  1  0
 32 33  2  0
 32 34  2  0
 32 35  1  0
 35 36  1  0
 35 37  1  0
 17 38  1  0
 38 39  2  0
 38 10  1  0
 31 22  1  0
M  CHG  1  16  -1
M  END
>  <UniqueID>  (17) 
15

>  <SMILES>  (17) 
NS(=O)(=O)c1ccccc1/C=C\C1=C([O-])C(=O)C=C(OCCO)C1=O

>  <Energy>  (17) 
49.00896843247622

>  <Genealogy>  (17) 
NS(=O)(=O)c1ccccc1C=CC1=C([O-])C(=O)C=C(OCCO)C1=O (protonated)
NS(=O)(=O)c1ccccc1/C=C\C1=C([O-])C(=O)C=C(OCCO)C1=O (cis-trans isomerization)
NS(=O)(=O)c1ccccc1/C=C\C1=C([O-])C(=O)C=C(OCCO)C1=O (3D coordinates assigned)
NS(=O)(=O)c1ccccc1/C=C\C1=C([O-])C(=O)C=C(OCCO)C1=O (nonaromatic ring conformer: 49.00896843247622 kcal/mol)

>  <smiles>  (17) 
NS(=O)(=O)c1ccccc1C=CC1=C(O)C(=O)C=C(OCCO)C1=O

>  <score_type>  (17) 
oracle

>  <origin>  (17) 
adg

>  <m_score__min__energy>  (17) 
-11.92

>  <m_primary>  (17) 
energy

$$$$
17:0
     RDKit          3D

 49 52  0  0  0  0  0  0  0  0999 V2000
   55.8740   30.8430   44.5290 O   0  0  0  0  0  0  0  0  0  0  0  0
   57.2580   31.1830   44.0490 S   0  0  0  0  0  0  0  0  0  0  0  0
   57.1760   31.5520   42.5940 O   0  0  0  0  0  0  0  0  0  0  0  0
   58.2990   29.8040   44.2280 N   0  0  0  0  0  0  0  0  0  0  0  0
   58.5470   29.5540   45.6490 C   0  0  0  0  0  0  0  0  0  0  0  0
   59.9560   30.0120   46.0200 C   0  0  0  0  0  0  0  0  0  0  0  0
   60.2520   29.7910   47.8060 S   0  0  0  0  0  0  0  0  0  0  0  0
   60.2450   31.5290   48.4220 C   0  0  0  0  0  0  0  0  0  0  0  0
   61.4860   32.3340   48.0720 C   0  0  0  0  0  0  0  0  0  0  0  0
   61.5500   32.8770   46.7670 C   0  0  0  0  0  0  0  0  0  0  0  0
   62.6370   33.6450   46.3520 C   0  0  0  0  0  0  0  0  0  0  0  0
   63.6910   33.8820   47.2240 C   0  0  0  0  0  0  0  0  0  0  0  0
   63.6710   33.3300   48.5010 C   0  0  0  0  0  0  0  0  0  0  0  0
   62.5870   32.5470   48.9410 C   0  0  0  0  0  0  0  0  0  0  0  0
   62.7580   31.8970   50.2510 C   0  0  0  0  0  0  0  0  0  0  0  0
   61.8140   31.6140   51.1440 C   0  0  0  0  0  0  0  0  0  0  0  0
   60.3600   31.8240   51.0150 C   0  0  0  0  0  0  0  0  0  0  0  0
   59.6620   32.0130   52.2240 C   0  0  0  0  0  0  0  0  0  0  0  0
   58.2730   32.1020   52.2500 C   0  0  0  0  0  0  0  0  0  0  0  0
   57.5500   31.9800   51.0720 C   0  0  0  0  0  0  0  0  0  0  0  0
   58.2160   31.7860   49.8640 C   0  0  0  0  0  0  0  0  0  0  0  0
   59.6280   31.7260   49.8000 C   0  0  0  0  0  0  0  0  0  0  0  0
   57.8880   32.5570   44.9580 C   0  0  0  0  0  0  0  0  0  0  0  0
   58.6640   33.5290   44.3110 C   0  0  0  0  0  0  0  0  0  0  0  0
   59.1570   34.6250   45.0280 C   0  0  0  0  0  0  0  0  0  0  0  0
   58.8840   34.7480   46.3930 C   0  0  0  0  0  0  0  0  0  0  0  0
   58.1260   33.7720   47.0450 C   0  0  0  0  0  0  0  0  0  0  0  0
   57.6290   32.6780   46.3310 C   0  0  0  0  0  0  0  0  0  0  0  0
   59.2090   30.0550   43.7760 H   0  0  0  0  0  0  0  0  0  0  0  0
   57.8127   30.1098   46.2506 H   0  0  0  0  0  0  0  0  0  0  0  0
   58.4525   28.4764   45.8487 H   0  0  0  0  0  0  0  0  0  0  0  0
   60.6898   29.4180   45.4555 H   0  0  0  0  0  0  0  0  0  0  0  0
   60.0594   31.0787   45.7723 H   0  0  0  0  0  0  0  0  0  0  0  0
   59.4932   32.0427   47.8048 H   0  0  0  0  0  0  0  0  0  0  0  0
   60.7244   32.6891   46.0648 H   0  0  0  0  0  0  0  0  0  0  0  0
   62.6595   34.0628   45.3347 H   0  0  0  0  0  0  0  0  0  0  0  0
   64.5401   34.5048   46.9060 H   0  0  0  0  0  0  0  0  0  0  0  0
   64.5181   33.5088   49.1795 H   0  0  0  0  0  0  0  0  0  0  0  0
   63.7853   31.6126   50.5225 H   0  0  0  0  0  0  0  0  0  0  0  0
   62.1583   31.1712   52.0902 H   0  0  0  0  0  0  0  0  0  0  0  0
   60.2253   32.0918   53.1655 H   0  0  0  0  0  0  0  0  0  0  0  0
   57.7494   32.2688   53.2029 H   0  0  0  0  0  0  0  0  0  0  0  0
   56.4516   32.0364   51.0920 H   0  0  0  0  0  0  0  0  0  0  0  0
   57.6308   31.6770   48.9390 H   0  0  0  0  0  0  0  0  0  0  0  0
   58.8857   33.4300   43.2381 H   0  0  0  0  0  0  0  0  0  0  0  0
   59.7598   35.3901   44.5168 H   0  0  0  0  0  0  0  0  0  0  0  0
   59.2660   35.6135   46.9543 H   0  0  0  0  0  0  0  0  0  0  0  0
   57.9201   33.8647   48.1216 H   0  0  0  0  0  0  0  0  0  0  0  0
   57.0336   31.9104   46.8470 H   0  0  0  0  0  0  0  0  0  0  0  0
  1  2  2  0
  2  3  2  0
  2  4  1  0
  4  5  1  0
  5  6  1  0
  6  7  1  0
  7  8  1  0
  8  9  1  0
  9 10  2  0
 10 11  1  0
 11 12  2  0
 12 13  1  0
 13 14  2  0
 14 15  1  0
 15 16  2  0
 16 17  1  0
 17 18  2  0
 18 19  1  0
 19 20  2  0
 20 21  1  0
 21 22  2  0
  2 23  1  0
 23 24  2  0
 24 25  1  0
 25 26  2  0
 26 27  1  0
 27 28  2  0
 22  8  1  0
 28 23  1  0
 14  9  1  0
 22 17  1  0
  4 29  1  0
  5 30  1  0
  5 31  1  0
  6 32  1  0
  6 33  1  0
  8 34  1  0
 10 35  1  0
 11 36  1  0
 12 37  1  0
 13 38  1  0
 15 39  1  0
 16 40  1  0
 18 41  1  0
 19 42  1  0
 20 43  1  0
 21 44  1  0
 24 45  1  0
 25 46  1  0
 26 47  1  0
 27 48  1  0
 28 49  1  0
M  END
>  <UniqueID>  (18) 
16

>  <SMILES>  (18) 
O=S(=O)(NCCSC1c2ccccc2C=Cc2ccccc21)c1ccccc1

>  <Energy>  (18) 
69.77476895755784

>  <Genealogy>  (18) 
O=S(=O)(NCCSC1c2ccccc2C=Cc2ccccc21)c1ccccc1 (3D coordinates assigned)
O=S(=O)(NCCSC1c2ccccc2C=Cc2ccccc21)c1ccccc1 (nonaromatic ring conformer: 69.77476895755784 kcal/mol)

>  <smiles>  (18) 
O=S(=O)(NCCSC1c2ccccc2C=Cc2ccccc21)c1ccccc1

>  <score_type>  (18) 
oracle

>  <origin>  (18) 
adg

>  <m_score__min__energy>  (18) 
-7.8399999999999999

>  <m_primary>  (18) 
energy

$$$$
18:0
     RDKit          3D

 49 52  0  0  0  0  0  0  0  0999 V2000
   64.0260   33.4480   50.3770 C   0  0  0  0  0  0  0  0  0  0  0  0
   63.8340   33.2770   48.9770 O   0  0  0  0  0  0  0  0  0  0  0  0
   62.6390   33.5670   48.3020 C   0  0  0  0  0  0  0  0  0  0  0  0
   62.5280   33.5000   46.8990 C   0  0  0  0  0  0  0  0  0  0  0  0
   61.3140   33.8000   46.2740 C   0  0  0  0  0  0  0  0  0  0  0  0
   60.2040   34.1780   47.0390 C   0  0  0  0  0  0  0  0  0  0  0  0
   58.6520   34.5830   46.2290 S   0  0  0  0  0  0  0  0  0  0  0  0
   57.7000   33.2270   47.0020 C   0  0  0  0  0  0  0  0  0  0  0  0
   57.9840   31.9210   46.3300 C   0  0  0  0  0  0  0  0  0  0  0  0
   57.4220   31.5370   45.2000 O   0  0  0  0  0  0  0  0  0  0  0  0
   57.9210   30.3640   44.8720 C   0  0  0  0  0  0  0  0  0  0  0  0
   57.5640   29.6550   43.7310 O   0  0  0  0  0  0  0  0  0  0  0  0
   58.8390   29.9570   45.8190 C   0  0  0  0  0  0  0  0  0  0  0  0
   58.8880   30.9580   46.7400 C   0  0  0  0  0  0  0  0  0  0  0  0
   59.7550   30.8850   47.9460 C   0  0  0  0  0  0  0  0  0  0  0  0
   60.8720   29.8640   47.6710 C   0  0  0  0  0  0  0  0  0  0  0  0
   60.3600   28.6250   47.1790 O   0  0  0  0  0  0  0  0  0  0  0  0
   59.7020   28.7170   45.9050 C   0  0  2  0  0  0  0  0  0  0  0  0
   60.7630   28.7710   44.7810 C   0  0  0  0  0  0  0  0  0  0  0  0
   58.7810   27.4960   45.8040 C   0  0  0  0  0  0  0  0  0  0  0  0
   58.4810   26.8400   44.5870 C   0  0  0  0  0  0  0  0  0  0  0  0
   57.6230   25.7360   44.5660 C   0  0  0  0  0  0  0  0  0  0  0  0
   57.0510   25.2670   45.7480 C   0  0  0  0  0  0  0  0  0  0  0  0
   57.3380   25.8980   46.9580 C   0  0  0  0  0  0  0  0  0  0  0  0
   58.1950   27.0000   46.9880 C   0  0  0  0  0  0  0  0  0  0  0  0
   60.3060   34.2350   48.4320 C   0  0  0  0  0  0  0  0  0  0  0  0
   61.5180   33.9330   49.0590 C   0  0  0  0  0  0  0  0  0  0  0  0
   63.3137   32.8136   50.9250 H   0  0  0  0  0  0  0  0  0  0  0  0
   65.0537   33.1606   50.6440 H   0  0  0  0  0  0  0  0  0  0  0  0
   63.8590   34.5020   50.6440 H   0  0  0  0  0  0  0  0  0  0  0  0
   63.3995   33.2107   46.2934 H   0  0  0  0  0  0  0  0  0  0  0  0
   61.2307   33.7389   45.1789 H   0  0  0  0  0  0  0  0  0  0  0  0
   57.9773   33.1528   48.0639 H   0  0  0  0  0  0  0  0  0  0  0  0
   56.6276   33.4485   46.8980 H   0  0  0  0  0  0  0  0  0  0  0  0
   58.1430   29.6960   42.9020 H   0  0  0  0  0  0  0  0  0  0  0  0
   60.1945   31.8726   48.1494 H   0  0  0  0  0  0  0  0  0  0  0  0
   59.1645   30.5770   48.8215 H   0  0  0  0  0  0  0  0  0  0  0  0
   61.5606   30.2848   46.9235 H   0  0  0  0  0  0  0  0  0  0  0  0
   61.3879   29.6630   48.6215 H   0  0  0  0  0  0  0  0  0  0  0  0
   61.7673   28.8221   45.2269 H   0  0  0  0  0  0  0  0  0  0  0  0
   60.6838   27.8677   44.1583 H   0  0  0  0  0  0  0  0  0  0  0  0
   60.5925   29.6616   44.1583 H   0  0  0  0  0  0  0  0  0  0  0  0
   58.9268   27.2017   43.6487 H   0  0  0  0  0  0  0  0  0  0  0  0
   57.3983   25.2353   43.6127 H   0  0  0  0  0  0  0  0  0  0  0  0
   56.3741   24.4002   45.7260 H   0  0  0  0  0  0  0  0  0  0  0  0
   56.8883   25.5268   47.8908 H   0  0  0  0  0  0  0  0  0  0  0  0
   58.4165   27.4885   47.9484 H   0  0  0  0  0  0  0  0  0  0  0  0
   59.4310   34.5180   49.0356 H   0  0  0  0  0  0  0  0  0  0  0  0
   61.5925   33.9830   50.1553 H   0  0  0  0  0  0  0  0  0  0  0  0
  1  2  1  0
  2  3  1  0
  3  4  2  0
  4  5  1  0
  5  6  2  0
  6  7  1  0
  7  8  1  0
  8  9  1  0
  9 10  1  0
 10 11  1  0
 11 12  1  0
 11 13  2  0
 13 14  1  0
 14 15  1  0
 15 16  1  0
 16 17  1  0
 17 18  1  0
 18 19  1  6
 18 20  1  0
 20 21  2  0
 21 22  1  0
 22 23  2  0
 23 24  1  0
 24 25  2  0
  6 26  1  0
 26 27  2  0
 27  3  1  0
 14  9  2  0
 25 20  1  0
 18 13  1  0
  1 28  1  0
  1 29  1  0
  1 30  1  0
  4 31  1  0
  5 32  1  0
  8 33  1  0
  8 34  1  0
 12 35  1  0
 15 36  1  0
 15 37  1  0
 16 38  1  0
 16 39  1  0
 19 40  1  0
 19 41  1  0
 19 42  1  0
 21 43  1  0
 22 44  1  0
 23 45  1  0
 24 46  1  0
 25 47  1  0
 26 48  1  0
 27 49  1  0
M  END
>  <UniqueID>  (19) 
17

>  <SMILES>  (19) 
COc1ccc(SCc2oc(O)c3c2CCO[C@@]3(C)c2ccccc2)cc1

>  <Energy>  (19) 
85.78492181986417

>  <Genealogy>  (19) 
COc1ccc(SCc2oc(O)c3c2CCO[C@@]3(C)c2ccccc2)cc1 (chirality)
COc1ccc(SCc2oc(O)c3c2CCO[C@@]3(C)c2ccccc2)cc1 (3D coordinates assigned)
COc1ccc(SCc2oc(O)c3c2CCO[C@@]3(C)c2ccccc2)cc1 (nonaromatic ring conformer: 85.78492181986417 kcal/mol)

>  <smiles>  (19) 
COc1ccc(SCc2oc(O)c3c2CCOC3(C)c2ccccc2)cc1

>  <score_type>  (19) 
oracle

>  <origin>  (19) 
adg

>  <m_score__min__energy>  (19) 
-8.0700000000000003

>  <m_primary>  (19) 
energy

$$$$
19:0
     RDKit          3D

 42 44  0  0  1  0  0  0  0  0999 V2000
   58.4520   29.6490   46.1740 O   0  0  0  0  0  0  0  0  0  0  0  0
   57.5090   29.7340   45.3400 C   0  0  0  0  0  0  0  0  0  0  0  0
   57.0770   30.9840   44.8130 N   0  0  0  0  0  0  0  0  0  0  0  0
   57.7710   32.1430   45.2790 C   0  0  0  0  0  0  0  0  0  0  0  0
   58.0580   33.1010   44.3080 C   0  0  0  0  0  0  0  0  0  0  0  0
   58.7250   34.2540   44.6670 C   0  0  0  0  0  0  0  0  0  0  0  0
   59.1050   34.4540   45.9760 C   0  0  0  0  0  0  0  0  0  0  0  0
   58.8020   33.4770   46.9200 C   0  0  0  0  0  0  0  0  0  0  0  0
   59.2260   33.7170   48.3440 C   0  0  0  0  0  0  0  0  0  0  0  0
   60.2410   32.7180   48.7080 N   0  0  0  0  0  0  0  0  0  0  0  0
   61.4060   32.7080   48.1920 C   0  0  0  0  0  0  0  0  0  0  0  0
   61.9640   31.5540   47.6620 C   0  0  0  0  0  0  0  0  0  0  0  0
   63.2450   31.6090   47.1110 C   0  0  0  0  0  0  0  0  0  0  0  0
   63.9280   32.7690   47.0960 N   0  0  0  0  0  0  0  0  0  0  0  0
   63.3520   33.8880   47.6240 C   0  0  0  0  0  0  0  0  0  0  0  0
   62.1180   33.8400   48.1570 N   0  0  0  0  0  0  0  0  0  0  0  0
   58.1370   32.3150   46.5970 C   0  0  0  0  0  0  0  0  0  0  0  0
   56.8950   28.4920   44.9540 N   0  0  0  0  0  0  0  0  0  0  0  0
   57.4240   27.3170   45.5560 C   0  0  0  0  0  0  0  0  0  0  0  0
   58.7760   27.0460   45.6260 C   0  0  0  0  0  0  0  0  0  0  0  0
   59.1730   25.8710   46.2360 C   0  0  0  0  0  0  0  0  0  0  0  0
   58.2410   24.9760   46.7720 C   0  0  0  0  0  0  0  0  0  0  0  0
   56.8900   25.2510   46.7010 C   0  0  0  0  0  0  0  0  0  0  0  0
   56.4920   26.4240   46.0910 C   0  0  0  0  0  0  0  0  0  0  0  0
   55.1230   26.7140   46.0130 O   0  0  0  0  0  0  0  0  0  0  0  0
   56.2940   31.0240   44.1240 H   0  0  0  0  0  0  0  0  0  0  0  0
   57.7549   32.9388   43.2631 H   0  0  0  0  0  0  0  0  0  0  0  0
   58.9539   35.0152   43.9066 H   0  0  0  0  0  0  0  0  0  0  0  0
   59.6386   35.3699   46.2701 H   0  0  0  0  0  0  0  0  0  0  0  0
   59.6504   34.7274   48.4386 H   0  0  0  0  0  0  0  0  0  0  0  0
   58.3575   33.6301   49.0135 H   0  0  0  0  0  0  0  0  0  0  0  0
   61.4039   30.6074   47.6758 H   0  0  0  0  0  0  0  0  0  0  0  0
   63.6985   30.7008   46.6872 H   0  0  0  0  0  0  0  0  0  0  0  0
   64.8920   32.8640   46.6940 H   0  0  0  0  0  0  0  0  0  0  0  0
   63.9032   34.8399   47.6135 H   0  0  0  0  0  0  0  0  0  0  0  0
   57.9074   31.5556   47.3590 H   0  0  0  0  0  0  0  0  0  0  0  0
   56.1100   28.4910   44.2670 H   0  0  0  0  0  0  0  0  0  0  0  0
   59.5157   27.7449   45.2084 H   0  0  0  0  0  0  0  0  0  0  0  0
   60.2453   25.6345   46.3014 H   0  0  0  0  0  0  0  0  0  0  0  0
   58.5863   24.0486   47.2524 H   0  0  0  0  0  0  0  0  0  0  0  0
   56.1496   24.5535   47.1197 H   0  0  0  0  0  0  0  0  0  0  0  0
   54.4710   26.4440   46.7340 H   0  0  0  0  0  0  0  0  0  0  0  0
  1  2  2  0
  2  3  1  0
  3  4  1  0
  4  5  2  0
  5  6  1  0
  6  7  2  0
  7  8  1  0
  8  9  1  0
  9 10  1  0
 10 11  2  0
 11 12  1  0
 12 13  2  0
 13 14  1  0
 14 15  1  0
 15 16  2  0
  8 17  2  0
  2 18  1  0
 18 19  1  0
 19 20  2  0
 20 21  1  0
 21 22  2  0
 22 23  1  0
 23 24  2  0
 24 25  1  0
 17  4  1  0
 24 19  1  0
 16 11  1  0
  3 26  1  0
  5 27  1  0
  6 28  1  0
  7 29  1  0
  9 30  1  0
  9 31  1  0
 12 32  1  0
 13 33  1  0
 14 34  1  0
 15 35  1  0
 17 36  1  0
 18 37  1  0
 20 38  1  0
 21 39  1  0
 22 40  1  0
 23 41  1  0
 25 42  1  0
M  END
>  <smiles>  (20) 
O=C(Nc1cccc(CN=c2cc[nH]cn2)c1)Nc1ccccc1O

>  <score_type>  (20) 
oracle

>  <origin>  (20) 
adg

>  <m_score__min__energy>  (20) 
-9.6699999999999999

>  <m_primary>  (20) 
energy

$$$$
20:0
     RDKit          3D

 38 40  0  0  0  0  0  0  0  0999 V2000
   57.0180   31.0060   44.9890 O   0  0  0  0  0  0  0  0  0  0  0  0
   58.1660   30.5070   45.1380 C   0  0  0  0  0  0  0  0  0  0  0  0
   58.5510   29.2980   44.3430 C   0  0  0  0  0  0  0  0  0  0  0  0
   58.0090   28.0560   44.9980 C   0  0  0  0  0  0  0  0  0  0  0  0
   58.8560   26.9690   45.2710 C   0  0  0  0  0  0  0  0  0  0  0  0
   58.3430   25.8040   45.8470 C   0  0  0  0  0  0  0  0  0  0  0  0
   56.9810   25.7110   46.1470 C   0  0  0  0  0  0  0  0  0  0  0  0
   56.1290   26.7840   45.8690 C   0  0  0  0  0  0  0  0  0  0  0  0
   54.7730   26.6890   46.1620 O   0  0  0  0  0  0  0  0  0  0  0  0
   56.6390   27.9520   45.2920 C   0  0  0  0  0  0  0  0  0  0  0  0
   59.1140   31.1180   46.0240 N   0  0  0  0  0  0  0  0  0  0  0  0
   58.7810   32.2970   46.8330 C   0  0  2  0  0  0  0  0  0  0  0  0
   58.6840   33.5870   45.9610 C   0  0  0  0  0  0  0  0  0  0  0  0
   59.6130   34.6360   46.4480 N   0  0  0  0  0  0  0  0  0  0  0  0
   59.2810   34.9740   47.8550 C   0  0  0  0  0  0  0  0  0  0  0  0
   59.4070   33.7340   48.7770 C   0  0  0  0  0  0  0  0  0  0  0  0
   59.8450   32.5210   47.9350 C   0  0  0  0  0  0  0  0  0  0  0  0
   61.1890   32.8730   47.2670 C   0  0  0  0  0  0  0  0  0  0  0  0
   61.0050   34.1280   46.3780 C   0  0  0  0  0  0  0  0  0  0  0  0
   58.1381   29.3836   43.3270 H   0  0  0  0  0  0  0  0  0  0  0  0
   59.6480   29.2316   44.2960 H   0  0  0  0  0  0  0  0  0  0  0  0
   59.9273   27.0353   45.0303 H   0  0  0  0  0  0  0  0  0  0  0  0
   59.0121   24.9585   46.0648 H   0  0  0  0  0  0  0  0  0  0  0  0
   56.5795   24.7935   46.6019 H   0  0  0  0  0  0  0  0  0  0  0  0
   55.9650   28.7919   45.0677 H   0  0  0  0  0  0  0  0  0  0  0  0
   60.0650   30.6910   46.0940 H   0  0  0  0  0  0  0  0  0  0  0  0
   57.8001   32.1030   47.2914 H   0  0  0  0  0  0  0  0  0  0  0  0
   58.9393   33.3367   44.9207 H   0  0  0  0  0  0  0  0  0  0  0  0
   57.6566   33.9746   46.0263 H   0  0  0  0  0  0  0  0  0  0  0  0
   59.9707   35.7547   48.2083 H   0  0  0  0  0  0  0  0  0  0  0  0
   58.2404   35.3288   47.8906 H   0  0  0  0  0  0  0  0  0  0  0  0
   60.1567   33.9303   49.5576 H   0  0  0  0  0  0  0  0  0  0  0  0
   58.4365   33.5248   49.2506 H   0  0  0  0  0  0  0  0  0  0  0  0
   59.9484   31.6183   48.5551 H   0  0  0  0  0  0  0  0  0  0  0  0
   61.9419   33.0788   48.0421 H   0  0  0  0  0  0  0  0  0  0  0  0
   61.5252   32.0285   46.6476 H   0  0  0  0  0  0  0  0  0  0  0  0
   61.6919   34.9152   46.7221 H   0  0  0  0  0  0  0  0  0  0  0  0
   61.2227   33.8514   45.3358 H   0  0  0  0  0  0  0  0  0  0  0  0
  1  2  2  0
  2  3  1  0
  3  4  1  0
  4  5  2  0
  5  6  1  0
  6  7  2  0
  7  8  1  0
  8  9  1  0
  8 10  2  0
  2 11  1  0
 11 12  1  0
 12 13  1  0
 13 14  1  0
 14 15  1  0
 15 16  1  0
 16 17  1  0
 17 18  1  0
 18 19  1  0
 10  4  1  0
 17 12  1  0
 19 14  1  0
  3 20  1  0
  3 21  1  0
  5 22  1  0
  6 23  1  0
  7 24  1  0
 10 25  1  0
 11 26  1  0
 12 27  1  1
 13 28  1  0
 13 29  1  0
 15 30  1  0
 15 31  1  0
 16 32  1  0
 16 33  1  0
 17 34  1  0
 18 35  1  0
 18 36  1  0
 19 37  1  0
 19 38  1  0
M  CHG  1   9  -1
M  END
>  <UniqueID>  (21) 
18

>  <SMILES>  (21) 
O=C(Cc1cccc([O-])c1)N[C@@H]1CN2CCC1CC2

>  <Energy>  (21) 
48.8627084692286

>  <Genealogy>  (21) 
O=C(Cc1cccc([O-])c1)NC1CN2CCC1CC2 (protonated)
O=C(Cc1cccc([O-])c1)N[C@@H]1CN2CCC1CC2 (chirality)
O=C(Cc1cccc([O-])c1)N[C@@H]1CN2CCC1CC2 (3D coordinates assigned)
O=C(Cc1cccc([O-])c1)N[C@@H]1CN2CCC1CC2 (nonaromatic ring conformer: 48.8627084692286 kcal/mol)

>  <smiles>  (21) 
O=C(Cc1cccc(O)c1)NC1CN2CCC1CC2

>  <score_type>  (21) 
oracle

>  <origin>  (21) 
adg

>  <m_score__min__energy>  (21) 
-10.98

>  <m_primary>  (21) 
energy

$$$$
21:0
     RDKit          3D

 40 42  0  0  0  0  0  0  0  0999 V2000
   54.4130   26.2480   45.9760 N   0  0  0  0  0  0  0  0  0  0  0  0
   55.6520   25.0440   45.9710 S   0  0  0  0  0  0  0  0  0  0  0  0
   55.5100   24.1770   47.1890 O   0  0  0  0  0  0  0  0  0  0  0  0
   55.5120   24.1820   44.7470 O   0  0  0  0  0  0  0  0  0  0  0  0
   57.2300   25.8240   45.9690 C   0  0  0  0  0  0  0  0  0  0  0  0
   58.3950   25.0610   46.1240 C   0  0  0  0  0  0  0  0  0  0  0  0
   59.6440   25.6860   46.1380 C   0  0  0  0  0  0  0  0  0  0  0  0
   59.7390   27.0730   46.0040 C   0  0  0  0  0  0  0  0  0  0  0  0
   58.5790   27.8550   45.8560 C   0  0  0  0  0  0  0  0  0  0  0  0
   58.6770   29.3300   45.7170 C   0  0  0  0  0  0  0  0  0  0  0  0
   59.5750   30.0660   46.5110 C   0  0  0  0  0  0  0  0  0  0  0  0
   59.6660   31.4550   46.3810 C   0  0  0  0  0  0  0  0  0  0  0  0
   58.8580   32.1340   45.4540 C   0  0  0  0  0  0  0  0  0  0  0  0
   58.9180   33.5570   45.2870 N   0  0  0  0  0  0  0  0  0  0  0  0
   59.5940   34.6700   46.4320 S   0  0  0  0  0  0  0  0  0  0  0  0
   58.5820   34.9490   47.5090 O   0  0  0  0  0  0  0  0  0  0  0  0
   59.9620   35.9570   45.7470 O   0  0  0  0  0  0  0  0  0  0  0  0
   61.0490   33.9550   47.1340 C   0  0  0  0  0  0  0  0  0  0  0  0
   62.2240   33.8780   46.3680 C   0  0  0  0  0  0  0  0  0  0  0  0
   63.3850   33.3170   46.9070 C   0  0  0  0  0  0  0  0  0  0  0  0
   63.3850   32.8300   48.2160 C   0  0  0  0  0  0  0  0  0  0  0  0
   64.5120   32.2860   48.7370 F   0  0  0  0  0  0  0  0  0  0  0  0
   62.2220   32.9020   48.9870 C   0  0  0  0  0  0  0  0  0  0  0  0
   61.0530   33.4610   48.4560 C   0  0  0  0  0  0  0  0  0  0  0  0
   59.6210   33.5220   49.4770 Cl  0  0  0  0  0  0  0  0  0  0  0  0
   57.9660   31.4050   44.6610 C   0  0  0  0  0  0  0  0  0  0  0  0
   57.8720   30.0170   44.7910 C   0  0  0  0  0  0  0  0  0  0  0  0
   57.3240   27.2170   45.8420 C   0  0  0  0  0  0  0  0  0  0  0  0
   54.8090   27.0910   46.4470 H   0  0  0  0  0  0  0  0  0  0  0  0
   58.3258   23.9688   46.2348 H   0  0  0  0  0  0  0  0  0  0  0  0
   60.5567   25.0833   46.2551 H   0  0  0  0  0  0  0  0  0  0  0  0
   60.7268   27.5568   46.0143 H   0  0  0  0  0  0  0  0  0  0  0  0
   60.2114   29.5440   47.2408 H   0  0  0  0  0  0  0  0  0  0  0  0
   60.3733   32.0185   47.0072 H   0  0  0  0  0  0  0  0  0  0  0  0
   62.2303   34.2618   45.3371 H   0  0  0  0  0  0  0  0  0  0  0  0
   64.3001   33.2589   46.2994 H   0  0  0  0  0  0  0  0  0  0  0  0
   62.2247   32.5172   50.0175 H   0  0  0  0  0  0  0  0  0  0  0  0
   57.3334   31.9285   43.9291 H   0  0  0  0  0  0  0  0  0  0  0  0
   57.1626   29.4571   44.1639 H   0  0  0  0  0  0  0  0  0  0  0  0
   56.4088   27.8170   45.7304 H   0  0  0  0  0  0  0  0  0  0  0  0
  1  2  1  0
  2  3  2  0
  2  4  2  0
  2  5  1  0
  5  6  2  0
  6  7  1  0
  7  8  2  0
  8  9  1  0
  9 10  1  0
 10 11  2  0
 11 12  1  0
 12 13  2  0
 13 14  1  0
 14 15  1  0
 15 16  2  0
 15 17  2  0
 15 18  1  0
 18 19  2  0
 19 20  1  0
 20 21  2  0
 21 22  1  0
 21 23  1  0
 23 24  2  0
 24 25  1  0
 13 26  1  0
 26 27  2  0
  9 28  2  0
 28  5  1  0
 27 10  1  0
 24 18  1  0
  1 29  1  0
  6 30  1  0
  7 31  1  0
  8 32  1  0
 11 33  1  0
 12 34  1  0
 19 35  1  0
 20 36  1  0
 23 37  1  0
 26 38  1  0
 27 39  1  0
 28 40  1  0
M  CHG  2   1  -1  14  -1
M  END
>  <UniqueID>  (22) 
19

>  <SMILES>  (22) 
[NH-]S(=O)(=O)c1cccc(-c2ccc([N-]S(=O)(=O)c3ccc(F)cc3Cl)cc2)c1

>  <Energy>  (22) 
53.436263058899236

>  <Genealogy>  (22) 
[NH-]S(=O)(=O)c1cccc(-c2ccc([N-]S(=O)(=O)c3ccc(F)cc3Cl)cc2)c1 (protonated)
[NH-]S(=O)(=O)c1cccc(-c2ccc([N-]S(=O)(=O)c3ccc(F)cc3Cl)cc2)c1 (3D coordinates assigned)
[NH-]S(=O)(=O)c1cccc(-c2ccc([N-]S(=O)(=O)c3ccc(F)cc3Cl)cc2)c1 (optimized conformer: 53.436263058899236 kcal/mol)

>  <smiles>  (22) 
NS(=O)(=O)c1cccc(-c2ccc(NS(=O)(=O)c3ccc(F)cc3Cl)cc2)c1

>  <score_type>  (22) 
oracle

>  <origin>  (22) 
adg

>  <m_score__min__energy>  (22) 
-13.31

>  <m_primary>  (22) 
energy

$$$$
22:0
     RDKit          3D

 41 43  0  0  0  0  0  0  0  0999 V2000
   54.8590   26.3800   46.7630 H   0  0  0  0  0  0  0  0  0  0  0  0
   55.1140   25.7230   45.9920 N   0  0  0  0  0  0  0  0  0  0  0  0
   56.0300   24.8080   46.0830 C   0  0  0  0  0  0  0  0  0  0  0  0
   55.6300   23.4690   46.1610 C   0  0  0  0  0  0  0  0  0  0  0  0
   54.5626   23.2095   46.1043 H   0  0  0  0  0  0  0  0  0  0  0  0
   56.5880   22.4610   46.3110 C   0  0  0  0  0  0  0  0  0  0  0  0
   56.1720   21.0290   46.4300 C   0  0  0  0  0  0  0  0  0  0  0  0
   56.0931   20.7572   47.4930 H   0  0  0  0  0  0  0  0  0  0  0  0
   55.1960   20.8889   45.9423 H   0  0  0  0  0  0  0  0  0  0  0  0
   56.9210   20.3878   45.9423 H   0  0  0  0  0  0  0  0  0  0  0  0
   57.9040   22.7910   46.4040 N   0  0  0  0  0  0  0  0  0  0  0  0
   58.3310   24.0780   46.3240 C   0  0  0  0  0  0  0  0  0  0  0  0
   59.4048   24.3027   46.4039 H   0  0  0  0  0  0  0  0  0  0  0  0
   57.4120   25.1240   46.1400 C   0  0  0  0  0  0  0  0  0  0  0  0
   57.9280   26.5050   45.9890 C   0  0  0  0  0  0  0  0  0  0  0  0
   58.7280   27.0790   46.9920 C   0  0  0  0  0  0  0  0  0  0  0  0
   58.9967   26.4898   47.8812 H   0  0  0  0  0  0  0  0  0  0  0  0
   59.1840   28.3940   46.8660 C   0  0  0  0  0  0  0  0  0  0  0  0
   59.8153   28.8322   47.6530 H   0  0  0  0  0  0  0  0  0  0  0  0
   58.8400   29.1590   45.7390 C   0  0  0  0  0  0  0  0  0  0  0  0
   59.3050   30.5820   45.6310 C   0  0  0  0  0  0  0  0  0  0  0  0
   59.1806   31.0838   46.6020 H   0  0  0  0  0  0  0  0  0  0  0  0
   60.3666   30.6016   45.3434 H   0  0  0  0  0  0  0  0  0  0  0  0
   58.5130   31.2730   44.6210 N   0  0  0  0  0  0  0  0  0  0  0  0
   57.1910   31.7920   44.8210 C   0  0  0  0  0  0  0  0  0  0  0  0
   56.2070   31.0210   44.6590 O   0  0  0  0  0  0  0  0  0  0  0  0
   56.9390   33.2220   45.2180 C   0  0  0  0  0  0  0  0  0  0  0  0
   56.7454   33.8210   44.3159 H   0  0  0  0  0  0  0  0  0  0  0  0
   56.0675   33.2607   45.8881 H   0  0  0  0  0  0  0  0  0  0  0  0
   58.1300   33.7760   45.9330 C   0  0  0  0  0  0  0  0  0  0  0  0
   58.5190   33.4790   47.5450 S   0  0  0  0  0  0  0  0  0  0  0  0
   59.8870   34.4570   47.5850 C   0  0  0  0  0  0  0  0  0  0  0  0
   60.5423   34.6125   48.4547 H   0  0  0  0  0  0  0  0  0  0  0  0
   60.0480   35.0360   46.3290 C   0  0  0  0  0  0  0  0  0  0  0  0
   60.8722   35.7221   46.0842 H   0  0  0  0  0  0  0  0  0  0  0  0
   59.0620   34.6630   45.4060 C   0  0  0  0  0  0  0  0  0  0  0  0
   59.0287   35.0338   44.3709 H   0  0  0  0  0  0  0  0  0  0  0  0
   58.0230   28.5940   44.7470 C   0  0  0  0  0  0  0  0  0  0  0  0
   57.7360   29.1910   43.8688 H   0  0  0  0  0  0  0  0  0  0  0  0
   57.5720   27.2750   44.8700 C   0  0  0  0  0  0  0  0  0  0  0  0
   56.9353   26.8391   44.0860 H   0  0  0  0  0  0  0  0  0  0  0  0
  1  2  1  0
  2  3  2  0
  3  4  1  0
  4  5  1  0
  4  6  2  0
  6  7  1  0
  7  8  1  0
  7  9  1  0
  7 10  1  0
  6 11  1  0
 11 12  1  0
 12 13  1  0
 12 14  2  0
 14 15  1  0
 15 16  2  0
 16 17  1  0
 16 18  1  0
 18 19  1  0
 18 20  2  0
 20 21  1  0
 21 22  1  0
 21 23  1  0
 21 24  1  0
 24 25  1  0
 25 26  2  0
 25 27  1  0
 27 28  1  0
 27 29  1  0
 27 30  1  0
 30 31  1  0
 31 32  1  0
 32 33  1  0
 32 34  2  0
 34 35  1  0
 34 36  1  0
 36 37  1  0
 20 38  1  0
 38 39  1  0
 38 40  2  0
 40 41  1  0
 14  3  1  0
 40 15  1  0
 36 30  2  0
M  CHG  2  11  -1  24  -1
M  END
>  <UniqueID>  (23) 
20

>  <SMILES>  (23) 
[H]/N=c1/cc(C)[n-]cc1-c1ccc(C[N-]C(=O)Cc2cccs2)cc1

>  <Energy>  (23) 
74.13467630213451

>  <Genealogy>  (23) 
Cc1cc(=N)c(-c2ccc(C[N-]C(=O)Cc3cccs3)cc2)c[n-]1 (protonated)
[H]/N=c1/cc(C)[n-]cc1-c1ccc(C[N-]C(=O)Cc2cccs2)cc1 (cis-trans isomerization)
[H]/N=c1/cc(C)[n-]cc1-c1ccc(C[N-]C(=O)Cc2cccs2)cc1 (3D coordinates assigned)
[H]/N=c1/cc(C)[n-]cc1-c1ccc(C[N-]C(=O)Cc2cccs2)cc1 (optimized conformer: 74.13467630213451 kcal/mol)

>  <smiles>  (23) 
Cc1cc(=N)c(-c2ccc(CNC(=O)Cc3cccs3)cc2)c[nH]1

>  <score_type>  (23) 
oracle

>  <origin>  (23) 
adg

>  <m_score__min__energy>  (23) 
-10.619999999999999

>  <m_primary>  (23) 
energy

$$$$
23:0
     RDKit          3D

 42 44  0  0  0  0  0  0  0  0999 V2000
   54.8520   26.3230   45.9980 N   0  0  0  0  0  0  0  0  0  0  0  0
   56.5210   25.8800   46.0510 S   0  0  0  0  0  0  0  0  0  0  0  0
   56.8760   25.4460   47.4470 O   0  0  0  0  0  0  0  0  0  0  0  0
   56.7670   24.7310   45.1130 O   0  0  0  0  0  0  0  0  0  0  0  0
   57.5100   27.2550   45.5710 C   0  0  0  0  0  0  0  0  0  0  0  0
   58.9060   27.1710   45.6480 C   0  0  0  0  0  0  0  0  0  0  0  0
   59.6960   28.2540   45.2570 C   0  0  0  0  0  0  0  0  0  0  0  0
   59.0990   29.4290   44.7950 C   0  0  0  0  0  0  0  0  0  0  0  0
   57.7000   29.5330   44.7280 C   0  0  0  0  0  0  0  0  0  0  0  0
   57.0480   30.7720   44.2540 C   0  0  0  0  0  0  0  0  0  0  0  0
   55.8400   30.9750   44.5470 O   0  0  0  0  0  0  0  0  0  0  0  0
   57.7570   31.7840   43.5270 N   0  0  0  0  0  0  0  0  0  0  0  0
   58.1700   33.0790   44.0580 C   0  0  0  0  0  0  0  0  0  0  0  0
   57.6700   33.2260   45.4640 C   0  0  0  0  0  0  0  0  0  0  0  0
   56.7040   34.0030   45.6890 O   0  0  0  0  0  0  0  0  0  0  0  0
   58.2960   32.5620   46.5710 N   0  0  0  0  0  0  0  0  0  0  0  0
   59.4920   32.9740   47.2460 C   0  0  0  0  0  0  0  0  0  0  0  0
   59.3830   33.7830   48.3940 C   0  0  0  0  0  0  0  0  0  0  0  0
   60.5320   34.2060   49.0780 C   0  0  0  0  0  0  0  0  0  0  0  0
   61.7830   33.7960   48.6090 C   0  0  0  0  0  0  0  0  0  0  0  0
   61.8950   32.9810   47.5130 C   0  0  0  0  0  0  0  0  0  0  0  0
   60.7650   32.5430   46.8190 C   0  0  0  0  0  0  0  0  0  0  0  0
   63.3040   32.6470   47.2090 C   0  0  0  0  0  0  0  0  0  0  0  0
   64.1110   33.4390   48.2560 C   0  0  0  0  0  0  0  0  0  0  0  0
   63.1010   34.1320   49.1920 C   0  0  0  0  0  0  0  0  0  0  0  0
   56.9110   28.4290   45.0920 C   0  0  0  0  0  0  0  0  0  0  0  0
   54.7160   27.0850   46.6990 H   0  0  0  0  0  0  0  0  0  0  0  0
   59.3810   26.2501   46.0172 H   0  0  0  0  0  0  0  0  0  0  0  0
   60.7922   28.1814   45.3131 H   0  0  0  0  0  0  0  0  0  0  0  0
   59.7270   30.2763   44.4824 H   0  0  0  0  0  0  0  0  0  0  0  0
   59.2680   33.1449   44.0507 H   0  0  0  0  0  0  0  0  0  0  0  0
   57.7500   33.8816   43.4340 H   0  0  0  0  0  0  0  0  0  0  0  0
   58.3894   34.0852   48.7566 H   0  0  0  0  0  0  0  0  0  0  0  0
   60.4500   34.8485   49.9671 H   0  0  0  0  0  0  0  0  0  0  0  0
   60.8663   31.8724   45.9530 H   0  0  0  0  0  0  0  0  0  0  0  0
   63.4810   31.5665   47.3149 H   0  0  0  0  0  0  0  0  0  0  0  0
   63.5856   32.9022   46.1768 H   0  0  0  0  0  0  0  0  0  0  0  0
   64.7502   32.7550   48.8336 H   0  0  0  0  0  0  0  0  0  0  0  0
   64.7579   34.1816   47.7660 H   0  0  0  0  0  0  0  0  0  0  0  0
   63.1861   33.7415   50.2168 H   0  0  0  0  0  0  0  0  0  0  0  0
   63.2672   35.2169   49.2651 H   0  0  0  0  0  0  0  0  0  0  0  0
   55.8163   28.4859   45.0007 H   0  0  0  0  0  0  0  0  0  0  0  0
  1  2  1  0
  2  3  2  0
  2  4  2  0
  2  5  1  0
  5  6  2  0
  6  7  1  0
  7  8  2  0
  8  9  1  0
  9 10  1  0
 10 11  2  0
 10 12  1  0
 12 13  1  0
 13 14  1  0
 14 15  2  0
 14 16  1  0
 16 17  1  0
 17 18  2  0
 18 19  1  0
 19 20  2  0
 20 21  1  0
 21 22  2  0
 21 23  1  0
 23 24  1  0
 24 25  1  0
  9 26  2  0
 26  5  1  0
 22 17  1  0
 25 20  1  0
  1 27  1  0
  6 28  1  0
  7 29  1  0
  8 30  1  0
 13 31  1  0
 13 32  1  0
 18 33  1  0
 19 34  1  0
 22 35  1  0
 23 36  1  0
 23 37  1  0
 24 38  1  0
 24 39  1  0
 25 40  1  0
 25 41  1  0
 26 42  1  0
M  CHG  3   1  -1  12  -1  16  -1
M  END
>  <UniqueID>  (24) 
21

>  <SMILES>  (24) 
[NH-]S(=O)(=O)c1cccc(C(=O)[N-]CC(=O)[N-]c2ccc3c(c2)CCC3)c1

>  <Energy>  (24) 
55.82141271653918

>  <Genealogy>  (24) 
[NH-]S(=O)(=O)c1cccc(C(=O)[N-]CC(=O)[N-]c2ccc3c(c2)CCC3)c1 (protonated)
[NH-]S(=O)(=O)c1cccc(C(=O)[N-]CC(=O)[N-]c2ccc3c(c2)CCC3)c1 (3D coordinates assigned)
[NH-]S(=O)(=O)c1cccc(C(=O)[N-]CC(=O)[N-]c2ccc3c(c2)CCC3)c1 (nonaromatic ring conformer: 55.82141271653918 kcal/mol)

>  <smiles>  (24) 
NS(=O)(=O)c1cccc(C(=O)NCC(=O)Nc2ccc3c(c2)CCC3)c1

>  <score_type>  (24) 
oracle

>  <origin>  (24) 
adg

>  <m_score__min__energy>  (24) 
-14.76

>  <m_primary>  (24) 
energy

$$$$
24:0
     RDKit          3D

 40 42  0  0  1  0  0  0  0  0999 V2000
   60.1230   22.2990   45.3230 N   0  0  0  0  0  0  0  0  0  0  0  0
   58.6080   23.1070   45.3260 S   0  0  0  0  0  0  0  0  0  0  0  0
   57.9640   22.8920   43.9890 O   0  0  0  0  0  0  0  0  0  0  0  0
   57.7590   22.4820   46.4080 O   0  0  0  0  0  0  0  0  0  0  0  0
   58.8810   24.8080   45.6450 C   0  0  0  0  0  0  0  0  0  0  0  0
   60.1130   25.2940   46.0330 C   0  0  0  0  0  0  0  0  0  0  0  0
   60.2880   26.6380   46.2740 C   0  0  0  0  0  0  0  0  0  0  0  0
   59.2700   27.5540   46.1450 C   0  0  0  0  0  0  0  0  0  0  0  0
   58.0330   27.0810   45.7570 C   0  0  0  0  0  0  0  0  0  0  0  0
   56.9170   27.9440   45.5950 N   0  0  0  0  0  0  0  0  0  0  0  0
   57.0170   29.0110   44.8970 C   0  0  0  0  0  0  0  0  0  0  0  0
   57.5250   30.1040   45.5370 N   0  0  0  0  0  0  0  0  0  0  0  0
   57.6740   31.2810   44.9000 C   0  0  0  0  0  0  0  0  0  0  0  0
   58.2250   32.3960   45.6630 C   0  0  0  0  0  0  0  0  0  0  0  0
   58.4850   33.5680   44.9830 C   0  0  0  0  0  0  0  0  0  0  0  0
   59.0140   34.6720   45.6620 C   0  0  0  0  0  0  0  0  0  0  0  0
   59.2610   34.5670   46.9800 N   0  0  0  0  0  0  0  0  0  0  0  0
   59.0190   33.4390   47.6730 C   0  0  0  0  0  0  0  0  0  0  0  0
   59.2930   33.3240   49.1280 C   0  0  0  0  0  0  0  0  0  0  0  0
   59.6400   34.5910   49.6340 O   0  0  0  0  0  0  0  0  0  0  0  0
   58.4940   32.3350   47.0110 C   0  0  0  0  0  0  0  0  0  0  0  0
   57.3060   31.3780   43.5750 C   0  0  0  0  0  0  0  0  0  0  0  0
   56.7880   30.2450   42.9390 C   0  0  0  0  0  0  0  0  0  0  0  0
   56.6480   29.0730   43.6050 N   0  0  0  0  0  0  0  0  0  0  0  0
   57.8620   25.7230   45.5150 C   0  0  0  0  0  0  0  0  0  0  0  0
   60.0570   21.2780   45.2440 H   0  0  0  0  0  0  0  0  0  0  0  0
   60.7200   22.6360   44.5270 H   0  0  0  0  0  0  0  0  0  0  0  0
   60.9607   24.6029   46.1505 H   0  0  0  0  0  0  0  0  0  0  0  0
   61.2822   26.9938   46.5822 H   0  0  0  0  0  0  0  0  0  0  0  0
   59.4356   28.6232   46.3436 H   0  0  0  0  0  0  0  0  0  0  0  0
   58.2762   33.6350   43.9051 H   0  0  0  0  0  0  0  0  0  0  0  0
   59.2242   35.6097   45.1266 H   0  0  0  0  0  0  0  0  0  0  0  0
   58.3942   32.9551   49.6438 H   0  0  0  0  0  0  0  0  0  0  0  0
   60.1214   32.6196   49.2941 H   0  0  0  0  0  0  0  0  0  0  0  0
   59.4150   35.3140   49.0070 H   0  0  0  0  0  0  0  0  0  0  0  0
   58.2926   31.4079   47.5677 H   0  0  0  0  0  0  0  0  0  0  0  0
   57.4174   32.3266   43.0293 H   0  0  0  0  0  0  0  0  0  0  0  0
   56.4897   30.3062   41.8820 H   0  0  0  0  0  0  0  0  0  0  0  0
   56.2630   28.2200   43.1420 H   0  0  0  0  0  0  0  0  0  0  0  0
   56.8690   25.3644   45.2062 H   0  0  0  0  0  0  0  0  0  0  0  0
  1  2  1  0
  2  3  2  0
  2  4  2  0
  2  5  1  0
  5  6  2  0
  6  7  1  0
  7  8  2  0
  8  9  1  0
  9 10  1  0
 10 11  2  0
 11 12  1  0
 12 13  2  0
 13 14  1  0
 14 15  2  0
 15 16  1  0
 16 17  2  0
 17 18  1  0
 18 19  1  0
 19 20  1  0
 18 21  2  0
 13 22  1  0
 22 23  2  0
 23 24  1  0
  9 25  2  0
 25  5  1  0
 24 11  1  0
 21 14  1  0
  1 26  1  0
  1 27  1  0
  6 28  1  0
  7 29  1  0
  8 30  1  0
 15 31  1  0
 16 32  1  0
 19 33  1  0
 19 34  1  0
 20 35  1  0
 21 36  1  0
 22 37  1  0
 23 38  1  0
 24 39  1  0
 25 40  1  0
M  END
>  <smiles>  (25) 
NS(=O)(=O)c1cccc(N=c2nc(-c3ccnc(CO)c3)cc[nH]2)c1

>  <score_type>  (25) 
oracle

>  <origin>  (25) 
adg

>  <m_score__min__energy>  (25) 
-9.5299999999999994

>  <m_primary>  (25) 
energy

$$$$
25:0
     RDKit          3D

 36 38  0  0  0  0  0  0  0  0999 V2000
   58.3190   32.6900   49.3670 N   0  0  0  0  0  0  0  0  0  0  0  0
   59.3910   32.6870   48.9330 C   0  0  0  0  0  0  0  0  0  0  0  0
   60.7280   32.6800   48.3900 C   0  0  0  0  0  0  0  0  0  0  0  0
   61.5530   33.7900   48.6200 C   0  0  0  0  0  0  0  0  0  0  0  0
   62.8540   33.8180   48.1110 C   0  0  0  0  0  0  0  0  0  0  0  0
   63.3400   32.7380   47.3730 C   0  0  0  0  0  0  0  0  0  0  0  0
   62.5260   31.6260   47.1380 C   0  0  0  0  0  0  0  0  0  0  0  0
   61.2160   31.5860   47.6400 C   0  0  0  0  0  0  0  0  0  0  0  0
   60.2030   30.1720   47.3130 S   0  0  0  0  0  0  0  0  0  0  0  0
   60.2030   29.2800   48.5220 O   0  0  0  0  0  0  0  0  0  0  0  0
   60.7270   29.3950   46.1370 O   0  0  0  0  0  0  0  0  0  0  0  0
   58.5840   30.6810   46.9780 N   0  0  0  0  0  0  0  0  0  0  0  0
   58.1600   31.1590   45.6980 C   0  0  0  0  0  0  0  0  0  0  0  0
   58.6830   32.5800   44.9630 S   0  0  0  0  0  0  0  0  0  0  0  0
   57.7850   32.3880   43.5540 C   0  0  0  0  0  0  0  0  0  0  0  0
   57.0640   31.2040   43.6470 C   0  0  0  0  0  0  0  0  0  0  0  0
   57.2660   30.5060   44.8510 C   0  0  0  0  0  0  0  0  0  0  0  0
   56.5890   29.2300   45.1630 C   0  0  0  0  0  0  0  0  0  0  0  0
   55.4050   29.0410   44.7730 O   0  0  0  0  0  0  0  0  0  0  0  0
   57.2250   28.2660   46.0140 N   0  0  0  0  0  0  0  0  0  0  0  0
   57.2400   26.9650   45.9200 C   0  0  0  0  0  0  0  0  0  0  0  0
   58.4480   26.3600   45.7500 N   0  0  0  0  0  0  0  0  0  0  0  0
   58.5880   25.0120   45.6470 C   0  0  0  0  0  0  0  0  0  0  0  0
   57.4660   24.1900   45.7110 C   0  0  0  0  0  0  0  0  0  0  0  0
   56.2060   24.7670   45.8570 C   0  0  0  0  0  0  0  0  0  0  0  0
   56.0740   26.1560   45.9440 C   0  0  0  0  0  0  0  0  0  0  0  0
   54.7930   26.6930   45.9970 O   0  0  0  0  0  0  0  0  0  0  0  0
   61.1746   34.6423   49.2035 H   0  0  0  0  0  0  0  0  0  0  0  0
   63.4960   34.6926   48.2923 H   0  0  0  0  0  0  0  0  0  0  0  0
   64.3654   32.7617   46.9755 H   0  0  0  0  0  0  0  0  0  0  0  0
   62.9146   30.7772   46.5561 H   0  0  0  0  0  0  0  0  0  0  0  0
   57.7709   33.0833   42.7017 H   0  0  0  0  0  0  0  0  0  0  0  0
   56.3955   30.8450   42.8507 H   0  0  0  0  0  0  0  0  0  0  0  0
   59.5867   24.5709   45.5132 H   0  0  0  0  0  0  0  0  0  0  0  0
   57.5730   23.0971   45.6470 H   0  0  0  0  0  0  0  0  0  0  0  0
   55.3123   24.1274   45.9039 H   0  0  0  0  0  0  0  0  0  0  0  0
  1  2  3  0
  2  3  1  0
  3  4  2  0
  4  5  1  0
  5  6  2  0
  6  7  1  0
  7  8  2  0
  8  9  1  0
  9 10  2  0
  9 11  2  0
  9 12  1  0
 12 13  1  0
 13 14  1  0
 14 15  1  0
 15 16  2  0
 16 17  1  0
 17 18  1  0
 18 19  2  0
 18 20  1  0
 20 21  2  3
 21 22  1  0
 22 23  1  0
 23 24  2  0
 24 25  1  0
 25 26  2  0
 26 27  1  0
  8  3  1  0
 17 13  2  0
 26 21  1  0
  4 28  1  0
  5 29  1  0
  6 30  1  0
  7 31  1  0
 15 32  1  0
 16 33  1  0
 23 34  1  0
 24 35  1  0
 25 36  1  0
M  CHG  3  12  -1  22  -1  27  -1
M  END
>  <UniqueID>  (26) 
22

>  <SMILES>  (26) 
N#Cc1ccccc1S(=O)(=O)[N-]c1sccc1C(=O)N=c1[n-]cccc1[O-]

>  <Energy>  (26) 
80.54092334081736

>  <Genealogy>  (26) 
N#Cc1ccccc1S(=O)(=O)[N-]c1sccc1C(=O)N=c1[n-]cccc1[O-] (protonated)
N#Cc1ccccc1S(=O)(=O)[N-]c1sccc1C(=O)N=c1[n-]cccc1[O-] (3D coordinates assigned)
N#Cc1ccccc1S(=O)(=O)[N-]c1sccc1C(=O)N=c1[n-]cccc1[O-] (optimized conformer: 80.54092334081736 kcal/mol)

>  <smiles>  (26) 
N#Cc1ccccc1S(=O)(=O)Nc1sccc1C(=O)N=c1[nH]cccc1O

>  <score_type>  (26) 
oracle

>  <origin>  (26) 
adg

>  <m_score__min__energy>  (26) 
-15.720000000000001

>  <m_primary>  (26) 
energy

$$$$
26:0
     RDKit          3D

 43 45  0  0  0  0  0  0  0  0999 V2000
   57.0140   20.3310   43.7650 H   0  0  0  0  0  0  0  0  0  0  0  0
   56.1870   20.8890   43.5880 O   0  0  0  0  0  0  0  0  0  0  0  0
   56.0230   22.1490   44.1580 C   0  0  0  0  0  0  0  0  0  0  0  0
   55.1660   22.3060   45.2520 C   0  0  0  0  0  0  0  0  0  0  0  0
   54.6281   21.4360   45.6566 H   0  0  0  0  0  0  0  0  0  0  0  0
   54.9910   23.5660   45.8330 C   0  0  0  0  0  0  0  0  0  0  0  0
   54.3286   23.6788   46.7039 H   0  0  0  0  0  0  0  0  0  0  0  0
   55.6540   24.6860   45.3130 C   0  0  0  0  0  0  0  0  0  0  0  0
   56.6500   30.2700   44.8280 N   0  0  0  0  0  0  0  0  0  0  0  0
   56.9380   29.1520   45.4260 C   0  0  0  0  0  0  0  0  0  0  0  0
   57.4630   26.8130   46.7090 N   0  0  0  0  0  0  0  0  0  0  0  0
   58.3470   27.8390   46.7820 C   0  0  0  0  0  0  0  0  0  0  0  0
   59.2774   27.7234   47.3573 H   0  0  0  0  0  0  0  0  0  0  0  0
   58.0840   29.0070   46.1460 N   0  0  0  0  0  0  0  0  0  0  0  0
   56.3170   26.9460   45.9950 C   0  0  0  0  0  0  0  0  0  0  0  0
   55.4720   25.9570   45.9610 N   0  0  0  0  0  0  0  0  0  0  0  0
   57.4000   31.4960   44.8790 C   0  0  0  0  0  0  0  0  0  0  0  0
   57.7100   32.2280   43.7180 C   0  0  0  0  0  0  0  0  0  0  0  0
   57.3960   31.8527   42.7328 H   0  0  0  0  0  0  0  0  0  0  0  0
   58.4160   33.4310   43.8130 C   0  0  0  0  0  0  0  0  0  0  0  0
   58.6686   33.9910   42.9006 H   0  0  0  0  0  0  0  0  0  0  0  0
   58.8020   33.9250   45.0610 C   0  0  0  0  0  0  0  0  0  0  0  0
   59.5110   35.1190   45.1320 O   0  0  0  0  0  0  0  0  0  0  0  0
   58.4680   33.2210   46.2320 C   0  0  0  0  0  0  0  0  0  0  0  0
   58.8840   33.7420   47.5870 C   0  0  0  0  0  0  0  0  0  0  0  0
   58.5132   33.0596   48.3660 H   0  0  0  0  0  0  0  0  0  0  0  0
   58.4580   34.7465   47.7264 H   0  0  0  0  0  0  0  0  0  0  0  0
   60.3560   33.8320   47.6810 N   0  0  0  0  0  0  0  0  0  0  0  0
   60.7500   34.2110   49.0470 C   0  0  0  0  0  0  0  0  0  0  0  0
   60.1543   33.6380   49.7728 H   0  0  0  0  0  0  0  0  0  0  0  0
   61.8178   33.9919   49.1947 H   0  0  0  0  0  0  0  0  0  0  0  0
   60.5725   35.2865   49.1947 H   0  0  0  0  0  0  0  0  0  0  0  0
   60.9830   32.5460   47.3270 C   0  0  0  0  0  0  0  0  0  0  0  0
   61.2482   32.0022   48.2457 H   0  0  0  0  0  0  0  0  0  0  0  0
   60.2771   31.9444   46.7356 H   0  0  0  0  0  0  0  0  0  0  0  0
   61.8917   32.7316   46.7356 H   0  0  0  0  0  0  0  0  0  0  0  0
   57.7600   32.0120   46.1300 C   0  0  0  0  0  0  0  0  0  0  0  0
   57.4852   31.4643   47.0435 H   0  0  0  0  0  0  0  0  0  0  0  0
   56.0540   28.1230   45.3660 N   0  0  0  0  0  0  0  0  0  0  0  0
   56.5380   24.5190   44.2310 C   0  0  0  0  0  0  0  0  0  0  0  0
   57.0944   25.3835   43.8397 H   0  0  0  0  0  0  0  0  0  0  0  0
   56.7120   23.2580   43.6510 C   0  0  0  0  0  0  0  0  0  0  0  0
   57.3917   23.1371   42.7946 H   0  0  0  0  0  0  0  0  0  0  0  0
  1  2  1  0
  2  3  1  0
  3  4  2  0
  4  5  1  0
  4  6  1  0
  6  7  1  0
  6  8  2  0
  8  9  1  0
  9 10  2  0
 10 11  1  0
 11 12  1  0
 12 13  1  0
 12 14  2  0
 14 15  1  0
 15 16  2  0
 16 17  1  0
 17 18  2  0
 18 19  1  0
 18 20  1  0
 20 21  1  0
 20 22  2  0
 22 23  1  0
 22 24  1  0
 24 25  1  0
 25 26  1  0
 25 27  1  0
 25 28  1  0
 28 29  1  0
 29 30  1  0
 29 31  1  0
 29 32  1  0
 28 33  1  0
 33 34  1  0
 33 35  1  0
 33 36  1  0
 24 37  2  0
 37 38  1  0
 15 39  1  0
  8 40  1  0
 40 41  1  0
 40 42  2  0
 42 43  1  0
 42  3  1  0
 39 10  1  0
 37 17  1  0
M  CHG  3  11  -1  23  -1  39  -1
M  END
>  <UniqueID>  (27) 
23

>  <SMILES>  (27) 
CN(C)Cc1cc(/N=c2\nc[n-]/c(=N/c3ccc(O)cc3)[n-]2)ccc1[O-]

>  <Energy>  (27) 
58.8601176672504

>  <Genealogy>  (27) 
CN(C)Cc1cc(N=c2nc[n-]c(=Nc3ccc(O)cc3)[n-]2)ccc1[O-] (protonated)
CN(C)Cc1cc(/N=c2\nc[n-]/c(=N/c3ccc(O)cc3)[n-]2)ccc1[O-] (cis-trans isomerization)
CN(C)Cc1cc(/N=c2\nc[n-]/c(=N/c3ccc(O)cc3)[n-]2)ccc1[O-] (3D coordinates assigned)
CN(C)Cc1cc(/N=c2\nc[n-]/c(=N/c3ccc(O)cc3)[n-]2)ccc1[O-] (optimized conformer: 58.8601176672504 kcal/mol)

>  <smiles>  (27) 
CN(C)Cc1cc(N=c2nc[nH]c(=Nc3ccc(O)cc3)[nH]2)ccc1O

>  <score_type>  (27) 
oracle

>  <origin>  (27) 
adg

>  <m_score__min__energy>  (27) 
-11.93

>  <m_primary>  (27) 
energy

$$$$
27:0
     RDKit          3D

 39 41  0  0  0  0  0  0  0  0999 V2000
   61.4590   31.4680   47.0310 O   0  0  0  0  0  0  0  0  0  0  0  0
   61.1540   32.6840   46.9020 C   0  0  0  0  0  0  0  0  0  0  0  0
   61.9810   33.6700   47.5340 N   0  0  0  0  0  0  0  0  0  0  0  0
   62.7130   33.5690   48.6110 C   0  0  0  0  0  0  0  0  0  0  0  0
   62.4340   34.4250   49.6330 N   0  0  0  0  0  0  0  0  0  0  0  0
   63.1950   34.5020   50.7560 C   0  0  0  0  0  0  0  0  0  0  0  0
   64.3230   33.6990   50.8890 C   0  0  0  0  0  0  0  0  0  0  0  0
   64.6220   32.7770   49.8880 C   0  0  0  0  0  0  0  0  0  0  0  0
   63.7980   32.6560   48.7650 C   0  0  0  0  0  0  0  0  0  0  0  0
   64.0480   31.5890   47.9010 O   0  0  0  0  0  0  0  0  0  0  0  0
   59.9090   33.0550   46.1820 C   0  0  0  0  0  0  0  0  0  0  0  0
   59.7700   34.3390   45.6280 C   0  0  0  0  0  0  0  0  0  0  0  0
   58.5980   34.6980   44.9580 C   0  0  0  0  0  0  0  0  0  0  0  0
   57.5550   33.7790   44.8260 C   0  0  0  0  0  0  0  0  0  0  0  0
   57.6810   32.4850   45.3590 C   0  0  0  0  0  0  0  0  0  0  0  0
   56.6420   31.5050   45.2380 N   0  0  0  0  0  0  0  0  0  0  0  0
   56.7070   30.0970   44.2280 S   0  0  0  0  0  0  0  0  0  0  0  0
   57.3430   30.4630   42.9160 O   0  0  0  0  0  0  0  0  0  0  0  0
   55.3090   29.6110   43.9690 O   0  0  0  0  0  0  0  0  0  0  0  0
   57.6150   28.8170   45.0340 C   0  0  0  0  0  0  0  0  0  0  0  0
   59.0180   28.8670   45.0750 C   0  0  0  0  0  0  0  0  0  0  0  0
   59.7400   27.8620   45.7240 C   0  0  0  0  0  0  0  0  0  0  0  0
   59.0690   26.7990   46.3330 C   0  0  0  0  0  0  0  0  0  0  0  0
   57.6730   26.7380   46.2930 C   0  0  0  0  0  0  0  0  0  0  0  0
   56.9430   27.7430   45.6450 C   0  0  0  0  0  0  0  0  0  0  0  0
   55.5550   27.6620   45.6120 O   0  0  0  0  0  0  0  0  0  0  0  0
   58.8580   32.1330   46.0330 C   0  0  0  0  0  0  0  0  0  0  0  0
   62.9189   35.1997   51.5604 H   0  0  0  0  0  0  0  0  0  0  0  0
   64.9708   33.7907   51.7733 H   0  0  0  0  0  0  0  0  0  0  0  0
   65.5134   32.1393   49.9820 H   0  0  0  0  0  0  0  0  0  0  0  0
   63.6040   31.4900   46.9990 H   0  0  0  0  0  0  0  0  0  0  0  0
   60.5897   35.0664   45.7226 H   0  0  0  0  0  0  0  0  0  0  0  0
   58.4964   35.7076   44.5332 H   0  0  0  0  0  0  0  0  0  0  0  0
   56.6317   34.0690   44.3031 H   0  0  0  0  0  0  0  0  0  0  0  0
   59.5507   29.7008   44.5942 H   0  0  0  0  0  0  0  0  0  0  0  0
   60.8386   27.9080   45.7554 H   0  0  0  0  0  0  0  0  0  0  0  0
   59.6393   26.0095   46.8443 H   0  0  0  0  0  0  0  0  0  0  0  0
   57.1465   25.8990   46.7714 H   0  0  0  0  0  0  0  0  0  0  0  0
   58.9612   31.1210   46.4515 H   0  0  0  0  0  0  0  0  0  0  0  0
  1  2  2  0
  2  3  1  0
  3  4  2  3
  4  5  1  0
  5  6  1  0
  6  7  2  0
  7  8  1  0
  8  9  2  0
  9 10  1  0
  2 11  1  0
 11 12  2  0
 12 13  1  0
 13 14  2  0
 14 15  1  0
 15 16  1  0
 16 17  1  0
 17 18  2  0
 17 19  2  0
 17 20  1  0
 20 21  2  0
 21 22  1  0
 22 23  2  0
 23 24  1  0
 24 25  2  0
 25 26  1  0
 15 27  2  0
  9  4  1  0
 27 11  1  0
 25 20  1  0
  6 28  1  0
  7 29  1  0
  8 30  1  0
 10 31  1  0
 12 32  1  0
 13 33  1  0
 14 34  1  0
 21 35  1  0
 22 36  1  0
 23 37  1  0
 24 38  1  0
 27 39  1  0
M  CHG  3   5  -1  16  -1  26  -1
M  END
>  <UniqueID>  (28) 
24

>  <SMILES>  (28) 
O=C(N=c1[n-]cccc1O)c1cccc([N-]S(=O)(=O)c2ccccc2[O-])c1

>  <Energy>  (28) 
64.87864047258708

>  <Genealogy>  (28) 
O=C(N=c1[n-]cccc1O)c1cccc([N-]S(=O)(=O)c2ccccc2[O-])c1 (protonated)
O=C(N=c1[n-]cccc1O)c1cccc([N-]S(=O)(=O)c2ccccc2[O-])c1 (3D coordinates assigned)
O=C(N=c1[n-]cccc1O)c1cccc([N-]S(=O)(=O)c2ccccc2[O-])c1 (optimized conformer: 64.87864047258708 kcal/mol)

>  <smiles>  (28) 
O=C(N=c1[nH]cccc1O)c1cccc(NS(=O)(=O)c2ccccc2O)c1

>  <score_type>  (28) 
oracle

>  <origin>  (28) 
adg

>  <m_score__min__energy>  (28) 
-14.43

>  <m_primary>  (28) 
energy

$$$$
28:0
     RDKit          3D

 50 52  0  0  0  0  0  0  0  0999 V2000
   55.4600   30.7100   53.7550 O   0  0  0  0  0  0  0  0  0  0  0  0
   55.7070   30.2160   52.6230 C   0  0  0  0  0  0  0  0  0  0  0  0
   54.5620   29.7680   51.7540 C   0  0  0  0  0  0  0  0  0  0  0  0
   53.3100   30.6000   51.9430 C   0  0  0  0  0  0  0  0  0  0  0  0
   52.7500   30.8390   53.2170 C   0  0  0  0  0  0  0  0  0  0  0  0
   51.6280   31.6630   53.3540 C   0  0  0  0  0  0  0  0  0  0  0  0
   51.0630   32.2730   52.2310 C   0  0  0  0  0  0  0  0  0  0  0  0
   49.9480   33.0920   52.3760 O   0  0  0  0  0  0  0  0  0  0  0  0
   51.6250   32.0650   50.9660 C   0  0  0  0  0  0  0  0  0  0  0  0
   51.0730   32.6780   49.8480 O   0  0  0  0  0  0  0  0  0  0  0  0
   52.7460   31.2390   50.8240 C   0  0  0  0  0  0  0  0  0  0  0  0
   57.0670   30.1610   52.1740 N   0  0  0  0  0  0  0  0  0  0  0  0
   57.7030   31.1430   51.3020 C   0  0  0  0  0  0  0  0  0  0  0  0
   58.2460   30.4360   50.0990 C   0  0  0  0  0  0  0  0  0  0  0  0
   58.9310   29.3910   50.2560 O   0  0  0  0  0  0  0  0  0  0  0  0
   58.1420   31.0140   48.7920 N   0  0  0  0  0  0  0  0  0  0  0  0
   59.0720   31.9550   48.2440 C   0  0  0  0  0  0  0  0  0  0  0  0
   60.3740   32.0570   48.7620 C   0  0  0  0  0  0  0  0  0  0  0  0
   61.2520   33.0400   48.2820 C   0  0  0  0  0  0  0  0  0  0  0  0
   62.8460   33.2450   49.0130 S   0  0  0  0  0  0  0  0  0  0  0  0
   63.8420   32.4130   48.2510 O   0  0  0  0  0  0  0  0  0  0  0  0
   63.2570   34.6860   48.8790 O   0  0  0  0  0  0  0  0  0  0  0  0
   62.8900   32.7890   50.7030 N   0  0  0  0  0  0  0  0  0  0  0  0
   63.2060   33.9280   51.5860 C   0  0  0  0  0  0  0  0  0  0  0  0
   64.7220   34.2050   51.6980 C   0  0  0  0  0  0  0  0  0  0  0  0
   65.5160   33.2080   51.0860 O   0  0  0  0  0  0  0  0  0  0  0  0
   65.1030   31.9380   51.5300 C   0  0  0  0  0  0  0  0  0  0  0  0
   63.7230   31.5930   50.9530 C   0  0  0  0  0  0  0  0  0  0  0  0
   60.8310   33.9020   47.2600 C   0  0  0  0  0  0  0  0  0  0  0  0
   59.5410   33.7940   46.7360 C   0  0  0  0  0  0  0  0  0  0  0  0
   58.6570   32.8340   47.2370 C   0  0  0  0  0  0  0  0  0  0  0  0
   57.3680   32.7500   46.7220 O   0  0  0  0  0  0  0  0  0  0  0  0
   54.8733   29.8385   50.7013 H   0  0  0  0  0  0  0  0  0  0  0  0
   54.3159   28.7356   52.0431 H   0  0  0  0  0  0  0  0  0  0  0  0
   53.1989   30.3743   54.1073 H   0  0  0  0  0  0  0  0  0  0  0  0
   51.1892   31.8312   54.3486 H   0  0  0  0  0  0  0  0  0  0  0  0
   53.1897   31.0883   49.8288 H   0  0  0  0  0  0  0  0  0  0  0  0
   56.9627   31.8934   50.9876 H   0  0  0  0  0  0  0  0  0  0  0  0
   58.5186   31.6490   51.8394 H   0  0  0  0  0  0  0  0  0  0  0  0
   60.7064   31.3627   49.5477 H   0  0  0  0  0  0  0  0  0  0  0  0
   62.7142   34.8274   51.1870 H   0  0  0  0  0  0  0  0  0  0  0  0
   62.8436   33.6732   52.5928 H   0  0  0  0  0  0  0  0  0  0  0  0
   64.9380   35.1695   51.2152 H   0  0  0  0  0  0  0  0  0  0  0  0
   64.9750   34.2137   52.7685 H   0  0  0  0  0  0  0  0  0  0  0  0
   65.8327   31.1837   51.2005 H   0  0  0  0  0  0  0  0  0  0  0  0
   65.0389   31.9469   52.6281 H   0  0  0  0  0  0  0  0  0  0  0  0
   63.8636   31.0579   50.0023 H   0  0  0  0  0  0  0  0  0  0  0  0
   63.1989   30.9744   51.6964 H   0  0  0  0  0  0  0  0  0  0  0  0
   61.5191   34.6662   46.8694 H   0  0  0  0  0  0  0  0  0  0  0  0
   59.2197   34.4662   45.9268 H   0  0  0  0  0  0  0  0  0  0  0  0
  1  2  2  0
  2  3  1  0
  3  4  1  0
  4  5  2  0
  5  6  1  0
  6  7  2  0
  7  8  1  0
  7  9  1  0
  9 10  1  0
  9 11  2  0
  2 12  1  0
 12 13  1  0
 13 14  1  0
 14 15  2  0
 14 16  1  0
 16 17  1  0
 17 18  2  0
 18 19  1  0
 19 20  1  0
 20 21  2  0
 20 22  2  0
 20 23  1  0
 23 24  1  0
 24 25  1  0
 25 26  1  0
 26 27  1  0
 27 28  1  0
 19 29  2  0
 29 30  1  0
 30 31  2  0
 31 32  1  0
 11  4  1  0
 31 17  1  0
 28 23  1  0
  3 33  1  0
  3 34  1  0
  5 35  1  0
  6 36  1  0
 11 37  1  0
 13 38  1  0
 13 39  1  0
 18 40  1  0
 24 41  1  0
 24 42  1  0
 25 43  1  0
 25 44  1  0
 27 45  1  0
 27 46  1  0
 28 47  1  0
 28 48  1  0
 29 49  1  0
 30 50  1  0
M  CHG  5   8  -1  10  -1  12  -1  16  -1  32  -1
M  END
>  <UniqueID>  (29) 
25

>  <SMILES>  (29) 
O=C(Cc1ccc([O-])c([O-])c1)[N-]CC(=O)[N-]c1cc(S(=O)(=O)N2CCOCC2)ccc1[O-]

>  <Energy>  (29) 
60.371107054120635

>  <Genealogy>  (29) 
O=C(Cc1ccc([O-])c([O-])c1)[N-]CC(=O)[N-]c1cc(S(=O)(=O)N2CCOCC2)ccc1[O-] (protonated)
O=C(Cc1ccc([O-])c([O-])c1)[N-]CC(=O)[N-]c1cc(S(=O)(=O)N2CCOCC2)ccc1[O-] (3D coordinates assigned)
O=C(Cc1ccc([O-])c([O-])c1)[N-]CC(=O)[N-]c1cc(S(=O)(=O)N2CCOCC2)ccc1[O-] (nonaromatic ring conformer: 60.371107054120635 kcal/mol)

>  <smiles>  (29) 
O=C(Cc1ccc(O)c(O)c1)NCC(=O)Nc1cc(S(=O)(=O)N2CCOCC2)ccc1O

>  <score_type>  (29) 
oracle

>  <origin>  (29) 
adg

>  <m_score__min__energy>  (29) 
-20.219999999999999

>  <m_primary>  (29) 
energy

$$$$
29:0
     RDKit          3D

 47 49  0  0  0  0  0  0  0  0999 V2000
   57.1930   34.0980   44.9760 C   0  0  0  0  0  0  0  0  0  0  0  0
   57.2110   33.4640   46.1480 C   0  0  0  0  0  0  0  0  0  0  0  0
   58.3260   33.5560   47.1100 C   0  0  0  0  0  0  0  0  0  0  0  0
   59.3810   34.1430   46.7500 O   0  0  0  0  0  0  0  0  0  0  0  0
   58.2120   33.0430   48.4490 N   0  0  0  0  0  0  0  0  0  0  0  0
   59.3450   32.8100   49.3090 C   0  0  0  0  0  0  0  0  0  0  0  0
   59.8250   33.8430   50.1360 C   0  0  0  0  0  0  0  0  0  0  0  0
   60.9820   33.6640   50.8970 C   0  0  0  0  0  0  0  0  0  0  0  0
   61.6730   32.4550   50.8450 C   0  0  0  0  0  0  0  0  0  0  0  0
   61.2030   31.4140   50.0440 C   0  0  0  0  0  0  0  0  0  0  0  0
   60.0350   31.5730   49.2770 C   0  0  0  0  0  0  0  0  0  0  0  0
   59.5310   30.4010   48.4770 C   0  0  0  0  0  0  0  0  0  0  0  0
   59.9400   30.5620   46.7480 S   0  0  0  0  0  0  0  0  0  0  0  0
   60.8960   31.8910   46.3720 O   0  0  0  0  0  0  0  0  0  0  0  0
   58.7500   30.1280   45.5230 C   0  0  0  0  0  0  0  0  0  0  0  0
   58.4310   31.0820   44.6070 N   0  0  0  0  0  0  0  0  0  0  0  0
   57.5110   30.8760   43.6310 C   0  0  0  0  0  0  0  0  0  0  0  0
   56.8360   29.6620   43.5550 C   0  0  0  0  0  0  0  0  0  0  0  0
   57.1290   28.6610   44.4800 C   0  0  0  0  0  0  0  0  0  0  0  0
   58.1150   28.8600   45.4620 C   0  0  0  0  0  0  0  0  0  0  0  0
   58.3900   27.7710   46.4340 C   0  0  0  0  0  0  0  0  0  0  0  0
   59.5230   27.7120   46.9790 O   0  0  0  0  0  0  0  0  0  0  0  0
   57.3910   26.8290   46.8640 N   0  0  0  0  0  0  0  0  0  0  0  0
   56.9890   25.7400   46.2720 C   0  0  0  0  0  0  0  0  0  0  0  0
   57.8200   24.6710   46.1080 N   0  0  0  0  0  0  0  0  0  0  0  0
   57.4100   23.5210   45.5120 C   0  0  0  0  0  0  0  0  0  0  0  0
   56.0960   23.4010   45.0570 C   0  0  0  0  0  0  0  0  0  0  0  0
   55.2180   24.4720   45.2210 C   0  0  0  0  0  0  0  0  0  0  0  0
   55.6600   25.6490   45.8310 C   0  0  0  0  0  0  0  0  0  0  0  0
   54.7810   26.7140   45.9980 O   0  0  0  0  0  0  0  0  0  0  0  0
   56.3295   33.9868   44.3037 H   0  0  0  0  0  0  0  0  0  0  0  0
   58.0417   34.7326   44.6809 H   0  0  0  0  0  0  0  0  0  0  0  0
   56.3467   32.8373   46.4129 H   0  0  0  0  0  0  0  0  0  0  0  0
   57.2590   32.8860   48.8390 H   0  0  0  0  0  0  0  0  0  0  0  0
   59.2839   34.7996   50.1832 H   0  0  0  0  0  0  0  0  0  0  0  0
   61.3486   34.4788   51.5387 H   0  0  0  0  0  0  0  0  0  0  0  0
   62.5907   32.3212   51.4366 H   0  0  0  0  0  0  0  0  0  0  0  0
   61.7507   30.4606   50.0121 H   0  0  0  0  0  0  0  0  0  0  0  0
   59.9873   29.4795   48.8675 H   0  0  0  0  0  0  0  0  0  0  0  0
   58.4355   30.3666   48.5698 H   0  0  0  0  0  0  0  0  0  0  0  0
   60.3200   32.4540   45.7970 H   0  0  0  0  0  0  0  0  0  0  0  0
   57.2988   31.6695   42.8994 H   0  0  0  0  0  0  0  0  0  0  0  0
   56.0798   29.4938   42.7741 H   0  0  0  0  0  0  0  0  0  0  0  0
   56.5836   27.7065   44.4411 H   0  0  0  0  0  0  0  0  0  0  0  0
   58.1136   22.6846   45.3881 H   0  0  0  0  0  0  0  0  0  0  0  0
   55.7569   22.4724   44.5746 H   0  0  0  0  0  0  0  0  0  0  0  0
   54.1785   24.3904   44.8705 H   0  0  0  0  0  0  0  0  0  0  0  0
  1  2  2  0
  2  3  1  0
  3  4  2  0
  3  5  1  0
  5  6  1  0
  6  7  2  0
  7  8  1  0
  8  9  2  0
  9 10  1  0
 10 11  2  0
 11 12  1  0
 12 13  1  0
 13 14  1  1
 13 15  1  0
 15 16  2  0
 16 17  1  0
 17 18  2  0
 18 19  1  0
 19 20  2  0
 20 21  1  0
 21 22  2  0
 21 23  1  0
 23 24  2  3
 24 25  1  0
 25 26  1  0
 26 27  2  0
 27 28  1  0
 28 29  2  0
 29 30  1  0
 11  6  1  0
 20 15  1  0
 29 24  1  0
  1 31  1  0
  1 32  1  0
  2 33  1  0
  5 34  1  0
  7 35  1  0
  8 36  1  0
  9 37  1  0
 10 38  1  0
 12 39  1  0
 12 40  1  0
 14 41  1  0
 17 42  1  0
 18 43  1  0
 19 44  1  0
 26 45  1  0
 27 46  1  0
 28 47  1  0
M  CHG  3  13   1  25  -1  30  -1
M  END
>  <UniqueID>  (30) 
26

>  <SMILES>  (30) 
C=CC(=O)Nc1ccccc1C[S@+](O)c1ncccc1C(=O)N=c1[n-]cccc1[O-]

>  <Energy>  (30) 
57.18398429224744

>  <Genealogy>  (30) 
C=CC(=O)Nc1ccccc1C[S+](O)c1ncccc1C(=O)N=c1[n-]cccc1[O-] (protonated)
C=CC(=O)Nc1ccccc1C[S@+](O)c1ncccc1C(=O)N=c1[n-]cccc1[O-] (chirality)
C=CC(=O)Nc1ccccc1C[S@+](O)c1ncccc1C(=O)N=c1[n-]cccc1[O-] (3D coordinates assigned)
C=CC(=O)Nc1ccccc1C[S@+](O)c1ncccc1C(=O)N=c1[n-]cccc1[O-] (optimized conformer: 57.18398429224744 kcal/mol)

>  <smiles>  (30) 
C=CC(=O)Nc1ccccc1C[S+]([O-])c1ncccc1C(=O)N=c1[nH]cccc1O

>  <score_type>  (30) 
oracle

>  <origin>  (30) 
adg

>  <m_score__min__energy>  (30) 
-11.9

>  <m_primary>  (30) 
energy

$$$$
30:0
     RDKit          3D

 22 23  0  0  0  0  0  0  0  0999 V2000
   59.7572   29.5463   46.2521 H   0  0  0  0  0  0  0  0  0  0  0  0
   58.8350   29.7090   45.6750 C   0  0  0  0  0  0  0  0  0  0  0  0
   58.2700   28.6680   45.1310 N   0  0  0  0  0  0  0  0  0  0  0  0
   57.0450   28.0270   45.5180 C   0  0  0  0  0  0  0  0  0  0  0  0
   55.9390   28.5710   45.2440 O   0  0  0  0  0  0  0  0  0  0  0  0
   57.0620   26.6780   46.1460 C   0  0  0  0  0  0  0  0  0  0  0  0
   58.2800   26.1120   46.5600 C   0  0  0  0  0  0  0  0  0  0  0  0
   59.2175   26.6697   46.4179 H   0  0  0  0  0  0  0  0  0  0  0  0
   58.3080   24.8820   47.1340 N   0  0  0  0  0  0  0  0  0  0  0  0
   57.1690   24.1720   47.3200 C   0  0  0  0  0  0  0  0  0  0  0  0
   57.2170   23.0350   47.8550 O   0  0  0  0  0  0  0  0  0  0  0  0
   55.9770   24.6870   46.9280 N   0  0  0  0  0  0  0  0  0  0  0  0
   55.8930   25.9130   46.3490 C   0  0  0  0  0  0  0  0  0  0  0  0
   54.7630   26.3420   45.9970 O   0  0  0  0  0  0  0  0  0  0  0  0
   58.3260   31.0900   45.5720 C   0  0  0  0  0  0  0  0  0  0  0  0
   57.1320   31.4310   45.1430 O   0  0  0  0  0  0  0  0  0  0  0  0
   57.0120   32.7360   45.2250 C   0  0  0  0  0  0  0  0  0  0  0  0
   56.1214   33.3100   44.9294 H   0  0  0  0  0  0  0  0  0  0  0  0
   58.1720   33.2780   45.7380 C   0  0  0  0  0  0  0  0  0  0  0  0
   58.3786   34.3419   45.9262 H   0  0  0  0  0  0  0  0  0  0  0  0
   59.0200   32.2150   45.9670 C   0  0  0  0  0  0  0  0  0  0  0  0
   60.0390   32.2556   46.3793 H   0  0  0  0  0  0  0  0  0  0  0  0
  1  2  1  0
  2  3  2  0
  3  4  1  0
  4  5  2  0
  4  6  1  0
  6  7  2  0
  7  8  1  0
  7  9  1  0
  9 10  1  0
 10 11  2  0
 10 12  1  0
 12 13  1  0
 13 14  2  0
  2 15  1  0
 15 16  1  0
 16 17  1  0
 17 18  1  0
 17 19  2  0
 19 20  1  0
 19 21  1  0
 21 22  1  0
 13  6  1  0
 21 15  2  0
M  CHG  2   9  -1  12  -1
M  END
>  <UniqueID>  (31) 
27

>  <SMILES>  (31) 
O=C(/N=C\c1ccco1)c1c[n-]c(=O)[n-]c1=O

>  <Energy>  (31) 
59.38177111388608

>  <Genealogy>  (31) 
O=C(N=Cc1ccco1)c1c[n-]c(=O)[n-]c1=O (protonated)
O=C(/N=C\c1ccco1)c1c[n-]c(=O)[n-]c1=O (cis-trans isomerization)
O=C(/N=C\c1ccco1)c1c[n-]c(=O)[n-]c1=O (3D coordinates assigned)
O=C(/N=C\c1ccco1)c1c[n-]c(=O)[n-]c1=O (optimized conformer: 59.38177111388608 kcal/mol)

>  <smiles>  (31) 
O=C(N=Cc1ccco1)c1c[nH]c(=O)[nH]c1=O

>  <score_type>  (31) 
oracle

>  <origin>  (31) 
adg

>  <m_score__min__energy>  (31) 
-10.48

>  <m_primary>  (31) 
energy

$$$$
31:0
     RDKit          3D

 56 58  0  0  0  0  0  0  0  0999 V2000
   56.6560   27.7160   45.7050 O   0  0  0  0  0  0  0  0  0  0  0  0
   56.4910   28.8400   45.1630 C   0  0  0  0  0  0  0  0  0  0  0  0
   55.2030   29.3010   44.9130 O   0  0  0  0  0  0  0  0  0  0  0  0
   57.6730   29.6940   44.8180 C   0  0  0  0  0  0  0  0  0  0  0  0
   58.8970   29.3440   45.6750 C   0  0  0  0  0  0  0  0  0  0  0  0
   58.6110   29.4840   47.1790 C   0  0  0  0  0  0  0  0  0  0  0  0
   59.5050   30.5410   47.8400 C   0  0  0  0  0  0  0  0  0  0  0  0
   58.7790   31.7880   48.1150 N   0  0  0  0  0  0  0  0  0  0  0  0
   58.5650   32.7440   47.0720 C   0  0  0  0  0  0  0  0  0  0  0  0
   57.4140   32.6590   46.2750 C   0  0  0  0  0  0  0  0  0  0  0  0
   57.1860   33.5950   45.2640 C   0  0  0  0  0  0  0  0  0  0  0  0
   58.1030   34.6230   45.0440 C   0  0  0  0  0  0  0  0  0  0  0  0
   59.2440   34.7250   45.8440 C   0  0  0  0  0  0  0  0  0  0  0  0
   59.4740   33.8050   46.8810 C   0  0  0  0  0  0  0  0  0  0  0  0
   60.7230   33.9240   47.6690 C   0  0  0  0  0  0  0  0  0  0  0  0
   60.8650   33.6500   48.9840 C   0  0  0  0  0  0  0  0  0  0  0  0
   62.2130   33.7810   49.5990 C   0  0  0  0  0  0  0  0  0  0  0  0
   62.8400   34.8720   49.5040 O   0  0  0  0  0  0  0  0  0  0  0  0
   62.7990   32.6840   50.3140 N   0  0  0  0  0  0  0  0  0  0  0  0
   63.2000   31.4300   49.6850 C   0  0  0  0  0  0  0  0  0  0  0  0
   62.5020   31.2640   48.3290 C   0  0  0  0  0  0  0  0  0  0  0  0
   63.4500   31.5060   47.1450 C   0  0  0  0  0  0  0  0  0  0  0  0
   63.6700   32.9960   46.8570 C   0  0  0  0  0  0  0  0  0  0  0  0
   64.5130   33.5550   47.8290 O   0  0  0  0  0  0  0  0  0  0  0  0
   59.7220   33.2500   49.8610 C   0  0  0  0  0  0  0  0  0  0  0  0
   59.6170   33.7950   51.1570 C   0  0  0  0  0  0  0  0  0  0  0  0
   58.6040   33.3820   52.0250 C   0  0  0  0  0  0  0  0  0  0  0  0
   57.6800   32.4200   51.6150 C   0  0  0  0  0  0  0  0  0  0  0  0
   57.7570   31.8820   50.3300 C   0  0  0  0  0  0  0  0  0  0  0  0
   58.7640   32.2990   49.4490 C   0  0  0  0  0  0  0  0  0  0  0  0
   57.9250   29.5422   43.7581 H   0  0  0  0  0  0  0  0  0  0  0  0
   57.4064   30.7430   45.0140 H   0  0  0  0  0  0  0  0  0  0  0  0
   59.1910   28.3050   45.4654 H   0  0  0  0  0  0  0  0  0  0  0  0
   59.7025   30.0473   45.4171 H   0  0  0  0  0  0  0  0  0  0  0  0
   57.5587   29.7744   47.3145 H   0  0  0  0  0  0  0  0  0  0  0  0
   58.8221   28.5154   47.6557 H   0  0  0  0  0  0  0  0  0  0  0  0
   59.8884   30.1376   48.7888 H   0  0  0  0  0  0  0  0  0  0  0  0
   60.3243   30.7736   47.1439 H   0  0  0  0  0  0  0  0  0  0  0  0
   56.6874   31.8512   46.4471 H   0  0  0  0  0  0  0  0  0  0  0  0
   56.2826   33.5216   44.6406 H   0  0  0  0  0  0  0  0  0  0  0  0
   57.9278   35.3535   44.2405 H   0  0  0  0  0  0  0  0  0  0  0  0
   59.9683   35.5323   45.6605 H   0  0  0  0  0  0  0  0  0  0  0  0
   61.6195   34.2680   47.1324 H   0  0  0  0  0  0  0  0  0  0  0  0
   64.2896   31.4327   49.5338 H   0  0  0  0  0  0  0  0  0  0  0  0
   62.9110   30.5944   50.3395 H   0  0  0  0  0  0  0  0  0  0  0  0
   62.1053   30.2404   48.2596 H   0  0  0  0  0  0  0  0  0  0  0  0
   61.6993   32.0140   48.2727 H   0  0  0  0  0  0  0  0  0  0  0  0
   64.4222   31.0445   47.3727 H   0  0  0  0  0  0  0  0  0  0  0  0
   62.9867   31.0603   46.2524 H   0  0  0  0  0  0  0  0  0  0  0  0
   64.1319   33.1106   45.8653 H   0  0  0  0  0  0  0  0  0  0  0  0
   62.7001   33.5144   46.8801 H   0  0  0  0  0  0  0  0  0  0  0  0
   64.1330   33.3050   48.7120 H   0  0  0  0  0  0  0  0  0  0  0  0
   60.3411   34.5540   51.4881 H   0  0  0  0  0  0  0  0  0  0  0  0
   58.5343   33.8157   53.0335 H   0  0  0  0  0  0  0  0  0  0  0  0
   56.8910   32.0859   52.3048 H   0  0  0  0  0  0  0  0  0  0  0  0
   57.0245   31.1276   50.0071 H   0  0  0  0  0  0  0  0  0  0  0  0
  1  2  2  0
  2  3  1  0
  2  4  1  0
  4  5  1  0
  5  6  1  0
  6  7  1  0
  7  8  1  0
  8  9  1  0
  9 10  2  0
 10 11  1  0
 11 12  2  0
 12 13  1  0
 13 14  2  0
 14 15  1  0
 15 16  2  0
 16 17  1  0
 17 18  2  0
 17 19  1  0
 19 20  1  0
 20 21  1  0
 21 22  1  0
 22 23  1  0
 23 24  1  0
 16 25  1  0
 25 26  2  0
 26 27  1  0
 27 28  2  0
 28 29  1  0
 29 30  2  0
 30  8  1  0
 14  9  1  0
 30 25  1  0
  4 31  1  0
  4 32  1  0
  5 33  1  0
  5 34  1  0
  6 35  1  0
  6 36  1  0
  7 37  1  0
  7 38  1  0
 10 39  1  0
 11 40  1  0
 12 41  1  0
 13 42  1  0
 15 43  1  0
 20 44  1  0
 20 45  1  0
 21 46  1  0
 21 47  1  0
 22 48  1  0
 22 49  1  0
 23 50  1  0
 23 51  1  0
 24 52  1  0
 26 53  1  0
 27 54  1  0
 28 55  1  0
 29 56  1  0
M  CHG  2   3  -1  19  -1
M  END
>  <UniqueID>  (32) 
28

>  <SMILES>  (32) 
O=C([O-])CCCCN1c2ccccc2C=C(C(=O)[N-]CCCCO)c2ccccc21

>  <Energy>  (32) 
71.80342607919896

>  <Genealogy>  (32) 
O=C([O-])CCCCN1c2ccccc2C=C(C(=O)[N-]CCCCO)c2ccccc21 (protonated)
O=C([O-])CCCCN1c2ccccc2C=C(C(=O)[N-]CCCCO)c2ccccc21 (3D coordinates assigned)
O=C([O-])CCCCN1c2ccccc2C=C(C(=O)[N-]CCCCO)c2ccccc21 (nonaromatic ring conformer: 71.80342607919896 kcal/mol)

>  <smiles>  (32) 
O=C(O)CCCCN1c2ccccc2C=C(C(=O)NCCCCO)c2ccccc21

>  <score_type>  (32) 
oracle

>  <origin>  (32) 
adg

>  <m_score__min__energy>  (32) 
-10.029999999999999

>  <m_primary>  (32) 
energy

$$$$
32:0
     RDKit          3D

 36 37  0  0  0  0  0  0  0  0999 V2000
   58.8510   30.6860   46.9860 C   0  0  0  0  0  0  0  0  0  0  0  0
   58.3550   29.9780   45.7460 C   0  0  0  0  0  0  0  0  0  0  0  0
   57.4110   30.6150   44.9030 C   0  0  0  0  0  0  0  0  0  0  0  0
   56.9220   31.9230   45.2480 N   0  0  0  0  0  0  0  0  0  0  0  0
   57.7190   33.4320   44.9420 S   0  0  0  0  0  0  0  0  0  0  0  0
   58.8890   33.7820   46.2380 C   0  0  0  0  0  0  0  0  0  0  0  0
   58.4620   33.3280   43.6410 O   0  0  0  0  0  0  0  0  0  0  0  0
   56.7070   34.5380   44.8340 O   0  0  0  0  0  0  0  0  0  0  0  0
   56.9640   29.9580   43.7440 C   0  0  0  0  0  0  0  0  0  0  0  0
   57.4300   28.6860   43.4270 C   0  0  0  0  0  0  0  0  0  0  0  0
   58.3300   28.0400   44.2690 C   0  0  0  0  0  0  0  0  0  0  0  0
   58.7830   28.6580   45.4420 C   0  0  0  0  0  0  0  0  0  0  0  0
   59.8880   27.7530   46.4950 S   0  0  0  0  0  0  0  0  0  0  0  0
   60.2980   28.5820   47.6810 O   0  0  0  0  0  0  0  0  0  0  0  0
   61.1130   27.3800   45.7090 O   0  0  0  0  0  0  0  0  0  0  0  0
   59.1390   26.3000   47.0750 N   0  0  0  0  0  0  0  0  0  0  0  0
   57.9680   25.6910   46.5130 C   0  0  0  0  0  0  0  0  0  0  0  0
   58.0880   24.4280   45.9210 C   0  0  0  0  0  0  0  0  0  0  0  0
   56.9730   23.8030   45.3540 C   0  0  0  0  0  0  0  0  0  0  0  0
   55.7280   24.4400   45.3730 C   0  0  0  0  0  0  0  0  0  0  0  0
   55.5980   25.7020   45.9600 C   0  0  0  0  0  0  0  0  0  0  0  0
   54.3610   26.3350   45.9750 O   0  0  0  0  0  0  0  0  0  0  0  0
   56.7130   26.3280   46.5290 C   0  0  0  0  0  0  0  0  0  0  0  0
   58.4832   30.1610   47.8799 H   0  0  0  0  0  0  0  0  0  0  0  0
   59.9510   30.6908   46.9902 H   0  0  0  0  0  0  0  0  0  0  0  0
   58.4798   31.7215   46.9902 H   0  0  0  0  0  0  0  0  0  0  0  0
   58.4068   33.6377   47.2161 H   0  0  0  0  0  0  0  0  0  0  0  0
   59.7489   33.1018   46.1492 H   0  0  0  0  0  0  0  0  0  0  0  0
   59.2341   34.8227   46.1492 H   0  0  0  0  0  0  0  0  0  0  0  0
   56.2392   30.4538   43.0815 H   0  0  0  0  0  0  0  0  0  0  0  0
   57.0859   28.1894   42.5078 H   0  0  0  0  0  0  0  0  0  0  0  0
   58.6898   27.0331   44.0108 H   0  0  0  0  0  0  0  0  0  0  0  0
   59.0656   23.9241   45.9018 H   0  0  0  0  0  0  0  0  0  0  0  0
   57.0751   22.8096   44.8927 H   0  0  0  0  0  0  0  0  0  0  0  0
   54.8514   23.9481   44.9262 H   0  0  0  0  0  0  0  0  0  0  0  0
   56.6082   27.3211   46.9902 H   0  0  0  0  0  0  0  0  0  0  0  0
  1  2  1  0
  2  3  2  0
  3  4  1  0
  4  5  1  0
  5  6  1  0
  5  7  2  0
  5  8  2  0
  3  9  1  0
  9 10  2  0
 10 11  1  0
 11 12  2  0
 12 13  1  0
 13 14  2  0
 13 15  2  0
 13 16  1  0
 16 17  1  0
 17 18  2  0
 18 19  1  0
 19 20  2  0
 20 21  1  0
 21 22  1  0
 21 23  2  0
 12  2  1  0
 23 17  1  0
  1 24  1  0
  1 25  1  0
  1 26  1  0
  6 27  1  0
  6 28  1  0
  6 29  1  0
  9 30  1  0
 10 31  1  0
 11 32  1  0
 18 33  1  0
 19 34  1  0
 20 35  1  0
 23 36  1  0
M  CHG  3   4  -1  16  -1  22  -1
M  END
>  <UniqueID>  (33) 
29

>  <SMILES>  (33) 
Cc1c([N-]S(C)(=O)=O)cccc1S(=O)(=O)[N-]c1cccc([O-])c1

>  <Energy>  (33) 
42.08927072744687

>  <Genealogy>  (33) 
Cc1c([N-]S(C)(=O)=O)cccc1S(=O)(=O)[N-]c1cccc([O-])c1 (protonated)
Cc1c([N-]S(C)(=O)=O)cccc1S(=O)(=O)[N-]c1cccc([O-])c1 (3D coordinates assigned)
Cc1c([N-]S(C)(=O)=O)cccc1S(=O)(=O)[N-]c1cccc([O-])c1 (optimized conformer: 42.08927072744687 kcal/mol)

>  <smiles>  (33) 
Cc1c(NS(C)(=O)=O)cccc1S(=O)(=O)Nc1cccc(O)c1

>  <score_type>  (33) 
oracle

>  <origin>  (33) 
adg

>  <m_score__min__energy>  (33) 
-14.109999999999999

>  <m_primary>  (33) 
energy

$$$$
33:0
     RDKit          3D

 58 61  0  0  0  0  0  0  0  0999 V2000
   68.9670   34.3270   51.8050 C   0  0  0  0  0  0  0  0  0  0  0  0
   67.8770   33.5530   51.2240 N   0  0  0  0  0  0  0  0  0  0  0  0
   67.8670   32.2200   51.0320 C   0  0  0  0  0  0  0  0  0  0  0  0
   66.6390   31.8280   50.5380 C   0  0  0  0  0  0  0  0  0  0  0  0
   65.8660   32.9790   50.4440 C   0  0  0  0  0  0  0  0  0  0  0  0
   64.4590   33.0750   49.9830 C   0  0  0  0  0  0  0  0  0  0  0  0
   63.5580   33.8010   50.6620 C   0  0  0  0  0  0  0  0  0  0  0  0
   62.1190   33.8310   50.2350 C   0  0  0  0  0  0  0  0  0  0  0  0
   61.9940   33.8030   48.7680 N   0  0  0  0  0  0  0  0  0  0  0  0
   60.8030   34.3380   48.1530 C   0  0  0  0  0  0  0  0  0  0  0  0
   59.7950   34.5960   48.8670 O   0  0  0  0  0  0  0  0  0  0  0  0
   60.7510   34.5890   46.7390 N   0  0  0  0  0  0  0  0  0  0  0  0
   59.5230   35.0060   46.0650 C   0  0  0  0  0  0  0  0  0  0  0  0
   58.7700   33.8060   45.5610 C   0  0  0  0  0  0  0  0  0  0  0  0
   58.4540   32.7570   46.4380 C   0  0  0  0  0  0  0  0  0  0  0  0
   57.7440   31.6440   45.9800 C   0  0  0  0  0  0  0  0  0  0  0  0
   57.3490   31.5550   44.6360 C   0  0  0  0  0  0  0  0  0  0  0  0
   56.6040   30.3660   44.1610 C   0  0  0  0  0  0  0  0  0  0  0  0
   56.2310   30.3120   42.9600 O   0  0  0  0  0  0  0  0  0  0  0  0
   56.2990   29.2610   45.0250 N   0  0  0  0  0  0  0  0  0  0  0  0
   57.1920   28.1900   45.3630 C   0  0  0  0  0  0  0  0  0  0  0  0
   58.5570   28.3590   45.0980 C   0  0  0  0  0  0  0  0  0  0  0  0
   59.4790   27.3770   45.4660 C   0  0  0  0  0  0  0  0  0  0  0  0
   59.0420   26.2060   46.0870 C   0  0  0  0  0  0  0  0  0  0  0  0
   57.6810   26.0080   46.3270 C   0  0  0  0  0  0  0  0  0  0  0  0
   56.7420   26.9810   45.9500 C   0  0  0  0  0  0  0  0  0  0  0  0
   55.3470   26.7000   46.1190 N   0  0  0  0  0  0  0  0  0  0  0  0
   57.6490   32.6160   43.7640 C   0  0  0  0  0  0  0  0  0  0  0  0
   58.3550   33.7310   44.2230 C   0  0  0  0  0  0  0  0  0  0  0  0
   63.0120   33.1340   47.9380 C   0  0  0  0  0  0  0  0  0  0  0  0
   63.9920   32.3000   48.7770 C   0  0  0  0  0  0  0  0  0  0  0  0
   66.6620   34.0230   50.8860 C   0  0  0  0  0  0  0  0  0  0  0  0
   68.9041   34.2824   52.9023 H   0  0  0  0  0  0  0  0  0  0  0  0
   69.9297   33.9091   51.4756 H   0  0  0  0  0  0  0  0  0  0  0  0
   68.8897   35.3737   51.4756 H   0  0  0  0  0  0  0  0  0  0  0  0
   68.7107   31.5449   51.2379 H   0  0  0  0  0  0  0  0  0  0  0  0
   66.3327   30.8057   50.2713 H   0  0  0  0  0  0  0  0  0  0  0  0
   63.8770   34.3804   51.5409 H   0  0  0  0  0  0  0  0  0  0  0  0
   61.6025   32.9554   50.6551 H   0  0  0  0  0  0  0  0  0  0  0  0
   61.6675   34.7639   50.6035 H   0  0  0  0  0  0  0  0  0  0  0  0
   61.6160   34.5050   46.1600 H   0  0  0  0  0  0  0  0  0  0  0  0
   58.8902   35.5598   46.7741 H   0  0  0  0  0  0  0  0  0  0  0  0
   59.7843   35.6485   45.2112 H   0  0  0  0  0  0  0  0  0  0  0  0
   58.7668   32.8112   47.4912 H   0  0  0  0  0  0  0  0  0  0  0  0
   57.4928   30.8316   46.6778 H   0  0  0  0  0  0  0  0  0  0  0  0
   58.9057   29.2733   44.5956 H   0  0  0  0  0  0  0  0  0  0  0  0
   60.5504   27.5264   45.2663 H   0  0  0  0  0  0  0  0  0  0  0  0
   59.7704   25.4385   46.3876 H   0  0  0  0  0  0  0  0  0  0  0  0
   57.3419   25.0825   46.8152 H   0  0  0  0  0  0  0  0  0  0  0  0
   54.6800   27.4630   46.3700 H   0  0  0  0  0  0  0  0  0  0  0  0
   54.9760   25.7260   46.0970 H   0  0  0  0  0  0  0  0  0  0  0  0
   57.3259   32.5681   42.7136 H   0  0  0  0  0  0  0  0  0  0  0  0
   58.5867   34.5545   43.5315 H   0  0  0  0  0  0  0  0  0  0  0  0
   62.5047   32.4699   47.2228 H   0  0  0  0  0  0  0  0  0  0  0  0
   63.5905   33.9139   47.4213 H   0  0  0  0  0  0  0  0  0  0  0  0
   63.4885   31.3810   49.1117 H   0  0  0  0  0  0  0  0  0  0  0  0
   64.8661   32.0536   48.1563 H   0  0  0  0  0  0  0  0  0  0  0  0
   66.3489   35.0755   50.9508 H   0  0  0  0  0  0  0  0  0  0  0  0
  1  2  1  0
  2  3  1  0
  3  4  2  0
  4  5  1  0
  5  6  1  0
  6  7  2  0
  7  8  1  0
  8  9  1  0
  9 10  1  0
 10 11  2  0
 10 12  1  0
 12 13  1  0
 13 14  1  0
 14 15  2  0
 15 16  1  0
 16 17  2  0
 17 18  1  0
 18 19  2  0
 18 20  1  0
 20 21  1  0
 21 22  2  0
 22 23  1  0
 23 24  2  0
 24 25  1  0
 25 26  2  0
 26 27  1  0
 17 28  1  0
 28 29  2  0
  9 30  1  0
 30 31  1  0
  5 32  2  0
 32  2  1  0
 31  6  1  0
 29 14  1  0
 26 21  1  0
  1 33  1  0
  1 34  1  0
  1 35  1  0
  3 36  1  0
  4 37  1  0
  7 38  1  0
  8 39  1  0
  8 40  1  0
 12 41  1  0
 13 42  1  0
 13 43  1  0
 15 44  1  0
 16 45  1  0
 22 46  1  0
 23 47  1  0
 24 48  1  0
 25 49  1  0
 27 50  1  0
 27 51  1  0
 28 52  1  0
 29 53  1  0
 30 54  1  0
 30 55  1  0
 31 56  1  0
 31 57  1  0
 32 58  1  0
M  CHG  1  20  -1
M  END
>  <UniqueID>  (34) 
30

>  <SMILES>  (34) 
Cn1ccc(C2=CCN(C(=O)NCc3ccc(C(=O)[N-]c4ccccc4N)cc3)CC2)c1

>  <Energy>  (34) 
95.88530304333561

>  <Genealogy>  (34) 
Cn1ccc(C2=CCN(C(=O)NCc3ccc(C(=O)[N-]c4ccccc4N)cc3)CC2)c1 (protonated)
Cn1ccc(C2=CCN(C(=O)NCc3ccc(C(=O)[N-]c4ccccc4N)cc3)CC2)c1 (3D coordinates assigned)
Cn1ccc(C2=CCN(C(=O)NCc3ccc(C(=O)[N-]c4ccccc4N)cc3)CC2)c1 (nonaromatic ring conformer: 95.88530304333561 kcal/mol)

>  <smiles>  (34) 
Cn1ccc(C2=CCN(C(=O)NCc3ccc(C(=O)Nc4ccccc4N)cc3)CC2)c1

>  <score_type>  (34) 
oracle

>  <origin>  (34) 
adg

>  <m_score__min__energy>  (34) 
-12.08

>  <m_primary>  (34) 
energy

$$$$
34:0
     RDKit          3D

 28 29  0  0  0  0  0  0  0  0999 V2000
   55.1190   29.3570   44.8930 O   0  0  0  0  0  0  0  0  0  0  0  0
   56.3730   29.4700   44.8610 C   0  0  0  0  0  0  0  0  0  0  0  0
   57.2130   28.3140   44.3810 C   0  0  0  0  0  0  0  0  0  0  0  0
   57.4670   27.3570   45.4680 N   0  0  0  0  0  0  0  0  0  0  0  0
   56.4860   26.6360   46.0850 C   0  0  0  0  0  0  0  0  0  0  0  0
   55.1480   26.7220   45.7150 O   0  0  0  0  0  0  0  0  0  0  0  0
   56.9120   25.8110   47.1190 C   0  0  0  0  0  0  0  0  0  0  0  0
   58.5770   26.0050   47.2760 S   0  0  0  0  0  0  0  0  0  0  0  0
   58.6840   27.1210   46.0240 C   0  0  0  0  0  0  0  0  0  0  0  0
   60.0850   27.8390   45.5700 S   0  0  0  0  0  0  0  0  0  0  0  0
   56.9580   30.7250   45.2290 N   0  0  0  0  0  0  0  0  0  0  0  0
   58.1520   30.8990   46.0520 C   0  0  0  0  0  0  0  0  0  0  0  0
   58.6280   32.3260   46.0100 C   0  0  0  0  0  0  0  0  0  0  0  0
   59.5610   32.7860   46.9540 C   0  0  0  0  0  0  0  0  0  0  0  0
   60.0030   34.1130   46.9210 C   0  0  0  0  0  0  0  0  0  0  0  0
   59.5190   34.9880   45.9440 C   0  0  0  0  0  0  0  0  0  0  0  0
   59.9470   36.2740   45.9150 F   0  0  0  0  0  0  0  0  0  0  0  0
   58.5960   34.5360   44.9970 C   0  0  0  0  0  0  0  0  0  0  0  0
   58.1530   33.2100   45.0260 C   0  0  0  0  0  0  0  0  0  0  0  0
   56.6835   27.7993   43.5656 H   0  0  0  0  0  0  0  0  0  0  0  0
   58.1782   28.7063   44.0282 H   0  0  0  0  0  0  0  0  0  0  0  0
   56.2757   25.1500   47.7258 H   0  0  0  0  0  0  0  0  0  0  0  0
   57.9157   30.6283   47.0917 H   0  0  0  0  0  0  0  0  0  0  0  0
   58.9485   30.2504   45.6585 H   0  0  0  0  0  0  0  0  0  0  0  0
   59.9459   32.0997   47.7227 H   0  0  0  0  0  0  0  0  0  0  0  0
   60.7319   34.4681   47.6644 H   0  0  0  0  0  0  0  0  0  0  0  0
   58.2173   35.2246   44.2273 H   0  0  0  0  0  0  0  0  0  0  0  0
   57.4299   32.8574   44.2758 H   0  0  0  0  0  0  0  0  0  0  0  0
  1  2  2  0
  2  3  1  0
  3  4  1  0
  4  5  1  0
  5  6  1  0
  5  7  2  0
  7  8  1  0
  8  9  1  0
  9 10  2  0
  2 11  1  0
 11 12  1  0
 12 13  1  0
 13 14  2  0
 14 15  1  0
 15 16  2  0
 16 17  1  0
 16 18  1  0
 18 19  2  0
  9  4  1  0
 19 13  1  0
  3 20  1  0
  3 21  1  0
  7 22  1  0
 12 23  1  0
 12 24  1  0
 14 25  1  0
 15 26  1  0
 18 27  1  0
 19 28  1  0
M  CHG  2   6  -1  11  -1
M  END
>  <UniqueID>  (35) 
31

>  <SMILES>  (35) 
O=C(Cn1c([O-])csc1=S)[N-]Cc1ccc(F)cc1

>  <Energy>  (35) 
57.507019333302495

>  <Genealogy>  (35) 
O=C(Cn1c([O-])csc1=S)[N-]Cc1ccc(F)cc1 (protonated)
O=C(Cn1c([O-])csc1=S)[N-]Cc1ccc(F)cc1 (3D coordinates assigned)
O=C(Cn1c([O-])csc1=S)[N-]Cc1ccc(F)cc1 (optimized conformer: 57.507019333302495 kcal/mol)

>  <smiles>  (35) 
O=C(Cn1c(O)csc1=S)NCc1ccc(F)cc1

>  <score_type>  (35) 
oracle

>  <origin>  (35) 
adg

>  <m_score__min__energy>  (35) 
-12.300000000000001

>  <m_primary>  (35) 
energy

$$$$
35:0
     RDKit          3D

 53 55  0  0  0  0  0  0  0  0999 V2000
   60.7140   26.5760   47.0090 C   0  0  0  0  0  0  0  0  0  0  0  0
   59.2880   26.6500   46.5230 C   0  0  0  0  0  0  0  0  0  0  0  0
   58.4260   25.5830   46.8280 C   0  0  0  0  0  0  0  0  0  0  0  0
   57.0870   25.6190   46.4510 C   0  0  0  0  0  0  0  0  0  0  0  0
   56.5780   26.7290   45.7860 C   0  0  0  0  0  0  0  0  0  0  0  0
   57.4010   27.8220   45.4860 C   0  0  0  0  0  0  0  0  0  0  0  0
   56.7780   29.0060   44.8570 C   0  0  0  0  0  0  0  0  0  0  0  0
   55.6100   29.3370   45.1860 O   0  0  0  0  0  0  0  0  0  0  0  0
   57.4850   29.8120   43.9030 N   0  0  0  0  0  0  0  0  0  0  0  0
   58.0140   31.1490   44.1660 C   0  0  0  0  0  0  0  0  0  0  0  0
   56.9680   32.0270   44.8640 C   0  0  0  0  0  0  0  0  0  0  0  0
   57.6300   33.1670   45.5920 C   0  0  0  0  0  0  0  0  0  0  0  0
   58.1570   33.0000   46.8120 C   0  0  0  0  0  0  0  0  0  0  0  0
   58.8880   34.1550   47.4420 C   0  0  0  0  0  0  0  0  0  0  0  0
   59.8150   34.8070   46.4810 N   0  0  0  0  0  0  0  0  0  0  0  0
   61.1390   34.1610   46.5060 C   0  0  0  0  0  0  0  0  0  0  0  0
   59.3010   34.9280   45.0820 C   0  0  0  0  0  0  0  0  0  0  0  0
   57.8310   34.5010   44.9210 C   0  0  0  0  0  0  0  0  0  0  0  0
   58.7820   27.7890   45.8270 C   0  0  0  0  0  0  0  0  0  0  0  0
   59.6510   28.9060   45.4870 N   0  0  0  0  0  0  0  0  0  0  0  0
   59.9310   29.7480   46.6320 C   0  0  0  0  0  0  0  0  0  0  0  0
   59.0110   29.8110   47.6990 C   0  0  0  0  0  0  0  0  0  0  0  0
   59.2880   30.5780   48.8340 C   0  0  0  0  0  0  0  0  0  0  0  0
   60.4930   31.2770   48.9310 C   0  0  0  0  0  0  0  0  0  0  0  0
   61.4270   31.2040   47.8950 C   0  0  0  0  0  0  0  0  0  0  0  0
   61.1550   30.4390   46.7560 C   0  0  0  0  0  0  0  0  0  0  0  0
   60.7269   26.5753   48.1089 H   0  0  0  0  0  0  0  0  0  0  0  0
   61.1810   25.6524   46.6362 H   0  0  0  0  0  0  0  0  0  0  0  0
   61.2740   27.4463   46.6362 H   0  0  0  0  0  0  0  0  0  0  0  0
   58.8143   24.7089   47.3712 H   0  0  0  0  0  0  0  0  0  0  0  0
   56.4296   24.7672   46.6796 H   0  0  0  0  0  0  0  0  0  0  0  0
   55.5181   26.7490   45.4925 H   0  0  0  0  0  0  0  0  0  0  0  0
   58.9008   31.0644   44.8113 H   0  0  0  0  0  0  0  0  0  0  0  0
   58.2788   31.6160   43.2059 H   0  0  0  0  0  0  0  0  0  0  0  0
   56.2765   32.4326   44.1108 H   0  0  0  0  0  0  0  0  0  0  0  0
   56.4202   31.4122   45.5934 H   0  0  0  0  0  0  0  0  0  0  0  0
   58.0578   32.0408   47.3413 H   0  0  0  0  0  0  0  0  0  0  0  0
   58.1528   34.8967   47.7876 H   0  0  0  0  0  0  0  0  0  0  0  0
   59.4818   33.7679   48.2832 H   0  0  0  0  0  0  0  0  0  0  0  0
   61.4527   34.0080   47.5492 H   0  0  0  0  0  0  0  0  0  0  0  0
   61.0826   33.1892   45.9938 H   0  0  0  0  0  0  0  0  0  0  0  0
   61.8702   34.8036   45.9938 H   0  0  0  0  0  0  0  0  0  0  0  0
   59.3934   35.9782   44.7682 H   0  0  0  0  0  0  0  0  0  0  0  0
   59.9020   34.2483   44.4601 H   0  0  0  0  0  0  0  0  0  0  0  0
   57.1760   35.2511   45.3884 H   0  0  0  0  0  0  0  0  0  0  0  0
   57.5830   34.4200   43.8524 H   0  0  0  0  0  0  0  0  0  0  0  0
   59.2510   29.5060   44.7340 H   0  0  0  0  0  0  0  0  0  0  0  0
   60.5420   28.5250   45.0920 H   0  0  0  0  0  0  0  0  0  0  0  0
   58.0662   29.2510   47.6373 H   0  0  0  0  0  0  0  0  0  0  0  0
   58.5552   30.6312   49.6527 H   0  0  0  0  0  0  0  0  0  0  0  0
   60.7065   31.8847   49.8227 H   0  0  0  0  0  0  0  0  0  0  0  0
   62.3789   31.7495   47.9750 H   0  0  0  0  0  0  0  0  0  0  0  0
   61.9013   30.3756   45.9504 H   0  0  0  0  0  0  0  0  0  0  0  0
  1  2  1  0
  2  3  2  0
  3  4  1  0
  4  5  2  0
  5  6  1  0
  6  7  1  0
  7  8  2  0
  7  9  1  0
  9 10  1  0
 10 11  1  0
 11 12  1  0
 12 13  2  0
 13 14  1  0
 14 15  1  0
 15 16  1  0
 15 17  1  0
 17 18  1  0
  6 19  2  0
 19 20  1  0
 20 21  1  0
 21 22  2  0
 22 23  1  0
 23 24  2  0
 24 25  1  0
 25 26  2  0
 19  2  1  0
 26 21  1  0
 18 12  1  0
  1 27  1  0
  1 28  1  0
  1 29  1  0
  3 30  1  0
  4 31  1  0
  5 32  1  0
 10 33  1  0
 10 34  1  0
 11 35  1  0
 11 36  1  0
 13 37  1  0
 14 38  1  0
 14 39  1  0
 16 40  1  0
 16 41  1  0
 16 42  1  0
 17 43  1  0
 17 44  1  0
 18 45  1  0
 18 46  1  0
 20 47  1  0
 20 48  1  0
 22 49  1  0
 23 50  1  0
 24 51  1  0
 25 52  1  0
 26 53  1  0
M  CHG  2   9  -1  20   1
M  END
>  <UniqueID>  (36) 
32

>  <SMILES>  (36) 
Cc1cccc(C(=O)[N-]CCC2=CCN(C)CC2)c1[NH2+]c1ccccc1

>  <Energy>  (36) 
68.19923193306859

>  <Genealogy>  (36) 
Cc1cccc(C(=O)[N-]CCC2=CCN(C)CC2)c1[NH2+]c1ccccc1 (protonated)
Cc1cccc(C(=O)[N-]CCC2=CCN(C)CC2)c1[NH2+]c1ccccc1 (3D coordinates assigned)
Cc1cccc(C(=O)[N-]CCC2=CCN(C)CC2)c1[NH2+]c1ccccc1 (nonaromatic ring conformer: 68.19923193306859 kcal/mol)

>  <smiles>  (36) 
Cc1cccc(C(=O)NCCC2=CCN(C)CC2)c1Nc1ccccc1

>  <score_type>  (36) 
oracle

>  <origin>  (36) 
adg

>  <m_score__min__energy>  (36) 
-8.9499999999999993

>  <m_primary>  (36) 
energy

$$$$
36:0
     RDKit          3D

 59 62  0  0  0  0  0  0  0  0999 V2000
   59.9820   28.0270   45.9000 H   0  0  0  0  0  0  0  0  0  0  0  0
   59.6440   27.2120   45.4010 O   0  0  0  0  0  0  0  0  0  0  0  0
   58.5230   26.4880   45.8100 C   0  0  0  0  0  0  0  0  0  0  0  0
   58.7190   25.2310   46.3950 C   0  0  0  0  0  0  0  0  0  0  0  0
   59.7386   24.8345   46.5101 H   0  0  0  0  0  0  0  0  0  0  0  0
   57.6280   24.4780   46.8330 C   0  0  0  0  0  0  0  0  0  0  0  0
   57.7900   23.4902   47.2890 H   0  0  0  0  0  0  0  0  0  0  0  0
   56.3320   24.9770   46.6930 C   0  0  0  0  0  0  0  0  0  0  0  0
   55.4749   24.3835   47.0440 H   0  0  0  0  0  0  0  0  0  0  0  0
   56.1200   26.2290   46.1080 C   0  0  0  0  0  0  0  0  0  0  0  0
   54.8210   26.7100   45.9800 O   0  0  0  0  0  0  0  0  0  0  0  0
   57.2100   26.9870   45.6470 C   0  0  0  0  0  0  0  0  0  0  0  0
   56.9640   28.3100   45.0410 C   0  0  0  0  0  0  0  0  0  0  0  0
   56.4753   28.3376   44.0559 H   0  0  0  0  0  0  0  0  0  0  0  0
   57.2940   29.4820   45.6060 C   0  0  0  0  0  0  0  0  0  0  0  0
   56.4689   30.1323   45.9322 H   0  0  0  0  0  0  0  0  0  0  0  0
   58.6760   29.9770   45.8290 C   0  0  0  0  0  0  0  0  0  0  0  0
   59.5500   29.8770   44.9250 O   0  0  0  0  0  0  0  0  0  0  0  0
   59.0530   30.5990   47.1220 C   0  0  0  0  0  0  0  0  0  0  0  0
   59.6370   31.8770   47.1440 C   0  0  0  0  0  0  0  0  0  0  0  0
   59.8010   32.4188   46.2009 H   0  0  0  0  0  0  0  0  0  0  0  0
   60.0100   32.4630   48.3530 C   0  0  0  0  0  0  0  0  0  0  0  0
   60.4636   33.4651   48.3581 H   0  0  0  0  0  0  0  0  0  0  0  0
   59.8110   31.7850   49.5570 C   0  0  0  0  0  0  0  0  0  0  0  0
   60.1920   32.3950   50.7490 O   0  0  0  0  0  0  0  0  0  0  0  0
   59.2330   30.5020   49.5630 C   0  0  0  0  0  0  0  0  0  0  0  0
   59.0020   29.7900   50.8760 C   0  0  0  0  0  0  0  0  0  0  0  0
   58.1537   29.0984   50.7661 H   0  0  0  0  0  0  0  0  0  0  0  0
   59.9159   29.2386   51.1419 H   0  0  0  0  0  0  0  0  0  0  0  0
   58.7020   30.7570   51.9570 N   0  0  0  0  0  0  0  0  0  0  0  0
   58.4880   30.1000   53.2710 C   0  0  0  0  0  0  0  0  0  0  0  0
   59.0491   29.1540   53.2832 H   0  0  0  0  0  0  0  0  0  0  0  0
   58.8363   30.8003   54.0445 H   0  0  0  0  0  0  0  0  0  0  0  0
   57.0050   29.7930   53.5690 C   0  0  0  0  0  0  0  0  0  0  0  0
   56.9329   28.8400   54.1135 H   0  0  0  0  0  0  0  0  0  0  0  0
   56.5845   30.6054   54.1799 H   0  0  0  0  0  0  0  0  0  0  0  0
   56.2490   29.6940   52.3140 N   0  0  0  0  0  0  0  0  0  0  0  0
   54.9110   29.0810   52.4690 C   0  0  0  0  0  0  0  0  0  0  0  0
   54.8204   28.2608   51.7416 H   0  0  0  0  0  0  0  0  0  0  0  0
   54.8394   28.7349   53.5107 H   0  0  0  0  0  0  0  0  0  0  0  0
   53.7610   30.0420   52.2480 C   0  0  0  0  0  0  0  0  0  0  0  0
   53.1050   30.6320   53.3420 C   0  0  0  0  0  0  0  0  0  0  0  0
   53.4303   30.3973   54.3662 H   0  0  0  0  0  0  0  0  0  0  0  0
   52.0420   31.5150   53.1360 C   0  0  0  0  0  0  0  0  0  0  0  0
   51.5402   31.9805   53.9972 H   0  0  0  0  0  0  0  0  0  0  0  0
   51.6150   31.8080   51.8380 C   0  0  0  0  0  0  0  0  0  0  0  0
   50.5560   32.6850   51.6340 O   0  0  0  0  0  0  0  0  0  0  0  0
   52.2520   31.2140   50.7430 C   0  0  0  0  0  0  0  0  0  0  0  0
   51.9135   31.4406   49.7212 H   0  0  0  0  0  0  0  0  0  0  0  0
   53.3180   30.3330   50.9460 C   0  0  0  0  0  0  0  0  0  0  0  0
   53.8129   29.8649   50.0823 H   0  0  0  0  0  0  0  0  0  0  0  0
   56.2200   30.9840   51.5950 C   0  0  0  0  0  0  0  0  0  0  0  0
   55.9322   30.8030   50.5489 H   0  0  0  0  0  0  0  0  0  0  0  0
   55.4924   31.6400   52.0953 H   0  0  0  0  0  0  0  0  0  0  0  0
   57.5970   31.6820   51.6220 C   0  0  0  0  0  0  0  0  0  0  0  0
   57.7905   32.1161   50.6300 H   0  0  0  0  0  0  0  0  0  0  0  0
   57.5620   32.4536   52.4052 H   0  0  0  0  0  0  0  0  0  0  0  0
   58.8530   29.9110   48.3380 C   0  0  0  0  0  0  0  0  0  0  0  0
   58.2580   28.6510   48.3310 O   0  0  0  0  0  0  0  0  0  0  0  0
  1  2  1  0
  2  3  1  0
  3  4  2  0
  4  5  1  0
  4  6  1  0
  6  7  1  0
  6  8  2  0
  8  9  1  0
  8 10  1  0
 10 11  1  0
 10 12  2  0
 12 13  1  0
 13 14  1  0
 13 15  2  0
 15 16  1  0
 15 17  1  0
 17 18  2  0
 17 19  1  0
 19 20  2  0
 20 21  1  0
 20 22  1  0
 22 23  1  0
 22 24  2  0
 24 25  1  0
 24 26  1  0
 26 27  1  0
 27 28  1  0
 27 29  1  0
 27 30  1  0
 30 31  1  0
 31 32  1  0
 31 33  1  0
 31 34  1  0
 34 35  1  0
 34 36  1  0
 34 37  1  0
 37 38  1  0
 38 39  1  0
 38 40  1  0
 38 41  1  0
 41 42  2  0
 42 43  1  0
 42 44  1  0
 44 45  1  0
 44 46  2  0
 46 47  1  0
 46 48  1  0
 48 49  1  0
 48 50  2  0
 50 51  1  0
 37 52  1  0
 52 53  1  0
 52 54  1  0
 52 55  1  0
 55 56  1  0
 55 57  1  0
 26 58  2  0
 58 59  1  0
 12  3  1  0
 58 19  1  0
 55 30  1  0
 50 41  1  0
M  CHG  4  11  -1  25  -1  47  -1  59  -1
M  END
>  <UniqueID>  (37) 
33

>  <SMILES>  (37) 
O=C(/C=C\c1c([O-])cccc1O)c1ccc([O-])c(CN2CCN(Cc3ccc([O-])cc3)CC2)c1[O-]

>  <Energy>  (37) 
93.51419085658793

>  <Genealogy>  (37) 
O=C(C=Cc1c([O-])cccc1O)c1ccc([O-])c(CN2CCN(Cc3ccc([O-])cc3)CC2)c1[O-] (protonated)
O=C(/C=C\c1c([O-])cccc1O)c1ccc([O-])c(CN2CCN(Cc3ccc([O-])cc3)CC2)c1[O-] (cis-trans isomerization)
O=C(/C=C\c1c([O-])cccc1O)c1ccc([O-])c(CN2CCN(Cc3ccc([O-])cc3)CC2)c1[O-] (3D coordinates assigned)
O=C(/C=C\c1c([O-])cccc1O)c1ccc([O-])c(CN2CCN(Cc3ccc([O-])cc3)CC2)c1[O-] (nonaromatic ring conformer: 93.51419085658793 kcal/mol)

>  <smiles>  (37) 
O=C(C=Cc1c(O)cccc1O)c1ccc(O)c(CN2CCN(Cc3ccc(O)cc3)CC2)c1O

>  <score_type>  (37) 
oracle

>  <origin>  (37) 
adg

>  <m_score__min__energy>  (37) 
-18.219999999999999

>  <m_primary>  (37) 
energy

$$$$
37:0
     RDKit          3D

 40 40  0  0  0  0  0  0  0  0999 V2000
   63.3940   33.4390   46.6170 C   0  0  0  0  0  0  0  0  0  0  0  0
   63.7360   33.4740   48.1040 C   0  0  0  0  0  0  0  0  0  0  0  0
   63.0550   32.3220   48.8550 C   0  0  0  0  0  0  0  0  0  0  0  0
   61.7140   31.9240   48.2140 C   0  0  0  0  0  0  0  0  0  0  0  0
   60.4870   32.3970   49.0260 C   0  0  0  0  0  0  0  0  0  0  0  0
   59.5690   33.3490   48.2430 C   0  0  0  0  0  0  0  0  0  0  0  0
   60.1150   33.6840   46.8440 C   0  0  0  0  0  0  0  0  0  0  0  0
   59.5670   35.0180   46.3000 C   0  0  0  0  0  0  0  0  0  0  0  0
   58.9940   34.9140   44.8760 C   0  0  0  0  0  0  0  0  0  0  0  0
   57.6710   34.2040   44.8330 C   0  0  0  0  0  0  0  0  0  0  0  0
   56.6410   34.7870   45.2670 O   0  0  0  0  0  0  0  0  0  0  0  0
   57.5490   32.8500   44.2720 C   0  0  0  0  0  0  0  0  0  0  0  0
   56.9260   31.8290   44.9000 N   0  0  0  0  0  0  0  0  0  0  0  0
   57.0650   30.8090   44.0320 C   0  0  0  0  0  0  0  0  0  0  0  0
   56.5470   29.4560   44.2650 C   0  0  0  0  0  0  0  0  0  0  0  0
   55.2740   29.2700   44.8790 N   0  0  0  0  0  0  0  0  0  0  0  0
   57.2290   28.4540   43.9220 O   0  0  0  0  0  0  0  0  0  0  0  0
   57.7570   31.2400   42.9210 C   0  0  0  0  0  0  0  0  0  0  0  0
   58.0400   32.5060   43.1020 O   0  0  0  0  0  0  0  0  0  0  0  0
   62.3067   33.3277   46.4934 H   0  0  0  0  0  0  0  0  0  0  0  0
   63.7230   34.3755   46.1430 H   0  0  0  0  0  0  0  0  0  0  0  0
   63.9059   32.5885   46.1430 H   0  0  0  0  0  0  0  0  0  0  0  0
   64.8259   33.3865   48.2241 H   0  0  0  0  0  0  0  0  0  0  0  0
   63.3759   34.4252   48.5229 H   0  0  0  0  0  0  0  0  0  0  0  0
   63.7244   31.4492   48.8473 H   0  0  0  0  0  0  0  0  0  0  0  0
   62.8517   32.6610   49.8815 H   0  0  0  0  0  0  0  0  0  0  0  0
   61.6610   32.3689   47.2094 H   0  0  0  0  0  0  0  0  0  0  0  0
   61.6806   30.8250   48.1815 H   0  0  0  0  0  0  0  0  0  0  0  0
   59.9025   31.5133   49.3218 H   0  0  0  0  0  0  0  0  0  0  0  0
   60.8670   32.9533   49.8956 H   0  0  0  0  0  0  0  0  0  0  0  0
   58.5829   32.8745   48.1315 H   0  0  0  0  0  0  0  0  0  0  0  0
   59.5061   34.2901   48.8091 H   0  0  0  0  0  0  0  0  0  0  0  0
   61.2116   33.7497   46.8998 H   0  0  0  0  0  0  0  0  0  0  0  0
   59.7918   32.8860   46.1593 H   0  0  0  0  0  0  0  0  0  0  0  0
   58.7682   35.3655   46.9717 H   0  0  0  0  0  0  0  0  0  0  0  0
   60.4126   35.7203   46.2568 H   0  0  0  0  0  0  0  0  0  0  0  0
   58.8613   35.9297   44.4752 H   0  0  0  0  0  0  0  0  0  0  0  0
   59.7046   34.3284   44.2743 H   0  0  0  0  0  0  0  0  0  0  0  0
   55.1560   28.6110   45.6810 H   0  0  0  0  0  0  0  0  0  0  0  0
   58.0229   30.6325   42.0434 H   0  0  0  0  0  0  0  0  0  0  0  0
  1  2  1  0
  2  3  1  0
  3  4  1  0
  4  5  1  0
  5  6  1  0
  6  7  1  0
  7  8  1  0
  8  9  1  0
  9 10  1  0
 10 11  2  0
 10 12  1  0
 12 13  2  0
 13 14  1  0
 14 15  1  0
 15 16  1  0
 15 17  2  0
 14 18  2  0
 18 19  1  0
 19 12  1  0
  1 20  1  0
  1 21  1  0
  1 22  1  0
  2 23  1  0
  2 24  1  0
  3 25  1  0
  3 26  1  0
  4 27  1  0
  4 28  1  0
  5 29  1  0
  5 30  1  0
  6 31  1  0
  6 32  1  0
  7 33  1  0
  7 34  1  0
  8 35  1  0
  8 36  1  0
  9 37  1  0
  9 38  1  0
 16 39  1  0
 18 40  1  0
M  CHG  1  16  -1
M  END
>  <UniqueID>  (38) 
34

>  <SMILES>  (38) 
CCCCCCCCCC(=O)c1nc(C([NH-])=O)co1

>  <Energy>  (38) 
52.61194264521162

>  <Genealogy>  (38) 
CCCCCCCCCC(=O)c1nc(C([NH-])=O)co1 (protonated)
CCCCCCCCCC(=O)c1nc(C([NH-])=O)co1 (3D coordinates assigned)
CCCCCCCCCC(=O)c1nc(C([NH-])=O)co1 (optimized conformer: 52.61194264521162 kcal/mol)

>  <smiles>  (38) 
CCCCCCCCCC(=O)c1nc(C(N)=O)co1

>  <score_type>  (38) 
oracle

>  <origin>  (38) 
adg

>  <m_score__min__energy>  (38) 
-9.4299999999999997

>  <m_primary>  (38) 
energy

$$$$
38:0
     RDKit          3D

 43 45  0  0  0  0  0  0  0  0999 V2000
   59.0570   29.3940   50.4660 C   0  0  0  0  0  0  0  0  0  0  0  0
   59.4850   29.0210   49.0410 C   0  0  0  0  0  0  0  0  0  0  0  0
   60.0540   27.6000   48.9870 C   0  0  0  0  0  0  0  0  0  0  0  0
   60.4810   30.0310   48.4850 C   0  0  0  0  0  0  0  0  0  0  0  0
   61.6590   30.3260   49.2030 C   0  0  0  0  0  0  0  0  0  0  0  0
   62.5850   31.2480   48.7110 C   0  0  0  0  0  0  0  0  0  0  0  0
   62.3530   31.8920   47.4960 C   0  0  0  0  0  0  0  0  0  0  0  0
   61.1960   31.6140   46.7680 C   0  0  0  0  0  0  0  0  0  0  0  0
   60.2560   30.6900   47.2500 C   0  0  0  0  0  0  0  0  0  0  0  0
   59.0790   30.4270   46.4660 N   0  0  0  0  0  0  0  0  0  0  0  0
   58.1390   31.4070   46.2990 C   0  0  0  0  0  0  0  0  0  0  0  0
   58.2920   32.5430   46.8270 O   0  0  0  0  0  0  0  0  0  0  0  0
   57.0240   31.1650   45.5670 N   0  0  0  0  0  0  0  0  0  0  0  0
   56.8100   29.9630   44.9770 C   0  0  0  0  0  0  0  0  0  0  0  0
   55.6450   29.7690   44.2460 O   0  0  0  0  0  0  0  0  0  0  0  0
   57.7550   28.9350   45.1140 C   0  0  0  0  0  0  0  0  0  0  0  0
   57.5410   27.5970   44.4350 C   0  0  0  0  0  0  0  0  0  0  0  0
   57.4820   26.4770   45.4480 C   0  0  0  0  0  0  0  0  0  0  0  0
   58.6170   25.6790   45.6750 C   0  0  0  0  0  0  0  0  0  0  0  0
   58.5830   24.6540   46.6260 C   0  0  0  0  0  0  0  0  0  0  0  0
   57.4170   24.4150   47.3570 C   0  0  0  0  0  0  0  0  0  0  0  0
   57.3870   23.3960   48.3020 O   0  0  0  0  0  0  0  0  0  0  0  0
   56.2830   25.1990   47.1370 C   0  0  0  0  0  0  0  0  0  0  0  0
   56.3080   26.2270   46.1880 C   0  0  0  0  0  0  0  0  0  0  0  0
   55.1620   26.9870   45.9840 O   0  0  0  0  0  0  0  0  0  0  0  0
   58.9030   29.1970   45.8870 C   0  0  0  0  0  0  0  0  0  0  0  0
   59.7690   28.2940   46.0550 O   0  0  0  0  0  0  0  0  0  0  0  0
   59.6810   28.8502   51.1905 H   0  0  0  0  0  0  0  0  0  0  0  0
   59.1816   30.4768   50.6147 H   0  0  0  0  0  0  0  0  0  0  0  0
   58.0014   29.1226   50.6147 H   0  0  0  0  0  0  0  0  0  0  0  0
   58.5878   29.0471   48.4052 H   0  0  0  0  0  0  0  0  0  0  0  0
   60.2038   27.2259   50.0105 H   0  0  0  0  0  0  0  0  0  0  0  0
   59.3496   26.9429   48.4558 H   0  0  0  0  0  0  0  0  0  0  0  0
   61.0172   27.6107   48.4558 H   0  0  0  0  0  0  0  0  0  0  0  0
   61.8504   29.8233   50.1625 H   0  0  0  0  0  0  0  0  0  0  0  0
   63.4990   31.4667   49.2827 H   0  0  0  0  0  0  0  0  0  0  0  0
   63.0828   32.6197   47.1114 H   0  0  0  0  0  0  0  0  0  0  0  0
   61.0191   32.1228   45.8089 H   0  0  0  0  0  0  0  0  0  0  0  0
   56.5946   27.6254   43.8751 H   0  0  0  0  0  0  0  0  0  0  0  0
   58.3860   27.4103   43.7560 H   0  0  0  0  0  0  0  0  0  0  0  0
   59.5374   25.8619   45.1011 H   0  0  0  0  0  0  0  0  0  0  0  0
   59.4759   24.0351   46.7985 H   0  0  0  0  0  0  0  0  0  0  0  0
   55.3653   25.0077   47.7125 H   0  0  0  0  0  0  0  0  0  0  0  0
  1  2  1  0
  2  3  1  0
  2  4  1  0
  4  5  2  0
  5  6  1  0
  6  7  2  0
  7  8  1  0
  8  9  2  0
  9 10  1  0
 10 11  1  0
 11 12  2  0
 11 13  1  0
 13 14  1  0
 14 15  1  0
 14 16  2  0
 16 17  1  0
 17 18  1  0
 18 19  2  0
 19 20  1  0
 20 21  2  0
 21 22  1  0
 21 23  1  0
 23 24  2  0
 24 25  1  0
 16 26  1  0
 26 27  2  0
  9  4  1  0
 26 10  1  0
 24 18  1  0
  1 28  1  0
  1 29  1  0
  1 30  1  0
  2 31  1  0
  3 32  1  0
  3 33  1  0
  3 34  1  0
  5 35  1  0
  6 36  1  0
  7 37  1  0
  8 38  1  0
 17 39  1  0
 17 40  1  0
 19 41  1  0
 20 42  1  0
 23 43  1  0
M  CHG  4  13  -1  15  -1  22  -1  25  -1
M  END
>  <UniqueID>  (39) 
35

>  <SMILES>  (39) 
CC(C)c1ccccc1-n1c(=O)[n-]c([O-])c(Cc2ccc([O-])cc2[O-])c1=O

>  <Energy>  (39) 
55.58961518455029

>  <Genealogy>  (39) 
CC(C)c1ccccc1-n1c(=O)[n-]c([O-])c(Cc2ccc([O-])cc2[O-])c1=O (protonated)
CC(C)c1ccccc1-n1c(=O)[n-]c([O-])c(Cc2ccc([O-])cc2[O-])c1=O (3D coordinates assigned)
CC(C)c1ccccc1-n1c(=O)[n-]c([O-])c(Cc2ccc([O-])cc2[O-])c1=O (optimized conformer: 55.58961518455029 kcal/mol)

>  <smiles>  (39) 
CC(C)c1ccccc1-n1c(=O)[nH]c(O)c(Cc2ccc(O)cc2O)c1=O

>  <score_type>  (39) 
oracle

>  <origin>  (39) 
adg

>  <m_score__min__energy>  (39) 
-15.49

>  <m_primary>  (39) 
energy

$$$$
39:0
     RDKit          3D

 58 62  0  0  0  0  0  0  0  0999 V2000
   58.1880   28.1960   46.5650 C   0  0  0  0  0  0  0  0  0  0  0  0
   57.6750   29.4390   45.9090 C   0  0  0  0  0  0  0  0  0  0  0  0
   56.4660   29.6060   45.2460 C   0  0  0  0  0  0  0  0  0  0  0  0
   55.5370   28.5980   45.0280 O   0  0  0  0  0  0  0  0  0  0  0  0
   56.2810   30.8810   44.8300 N   0  0  0  0  0  0  0  0  0  0  0  0
   57.3870   31.5260   45.2520 C   0  0  0  0  0  0  0  0  0  0  0  0
   57.6770   32.8770   45.0760 C   0  0  0  0  0  0  0  0  0  0  0  0
   58.8840   33.3690   45.6030 C   0  0  0  0  0  0  0  0  0  0  0  0
   59.7700   32.5120   46.3050 C   0  0  0  0  0  0  0  0  0  0  0  0
   61.0730   33.0450   46.8340 C   0  0  0  0  0  0  0  0  0  0  0  0
   60.9700   33.3260   48.3340 C   0  0  0  0  0  0  0  0  0  0  0  0
   61.6650   32.2850   49.0910 N   0  0  0  0  0  0  0  0  0  0  0  0
   61.1060   31.1700   49.6250 C   0  0  0  0  0  0  0  0  0  0  0  0
   59.7590   30.8480   49.4660 O   0  0  0  0  0  0  0  0  0  0  0  0
   62.0640   30.4420   50.3360 C   0  0  0  0  0  0  0  0  0  0  0  0
   61.9100   29.2140   51.0530 N   0  0  0  0  0  0  0  0  0  0  0  0
   60.8450   28.5670   51.0470 O   0  0  0  0  0  0  0  0  0  0  0  0
   63.2340   31.1620   50.2350 C   0  0  0  0  0  0  0  0  0  0  0  0
   64.5010   30.9180   50.7610 C   0  0  0  0  0  0  0  0  0  0  0  0
   65.5190   31.8620   50.5060 C   0  0  0  0  0  0  0  0  0  0  0  0
   66.9110   31.6250   51.0200 C   0  0  0  0  0  0  0  0  0  0  0  0
   66.9710   30.1260   51.9870 S   0  0  0  0  0  0  0  0  0  0  0  0
   65.9390   30.1920   53.0800 O   0  0  0  0  0  0  0  0  0  0  0  0
   68.3350   29.9930   52.6060 O   0  0  0  0  0  0  0  0  0  0  0  0
   66.6760   28.7530   50.9500 N   0  0  0  0  0  0  0  0  0  0  0  0
   66.0410   27.6570   51.6810 C   0  0  0  0  0  0  0  0  0  0  0  0
   66.4500   26.3700   50.9810 C   0  0  0  0  0  0  0  0  0  0  0  0
   67.6700   26.7330   50.1480 C   0  0  0  0  0  0  0  0  0  0  0  0
   67.9280   28.2040   50.4320 C   0  0  0  0  0  0  0  0  0  0  0  0
   65.2360   33.0090   49.7230 C   0  0  0  0  0  0  0  0  0  0  0  0
   63.9470   33.2280   49.2080 C   0  0  0  0  0  0  0  0  0  0  0  0
   62.9600   32.2760   49.4800 C   0  0  0  0  0  0  0  0  0  0  0  0
   59.4500   31.1450   46.4560 C   0  0  0  0  0  0  0  0  0  0  0  0
   58.2490   30.6900   45.9150 C   0  0  0  0  0  0  0  0  0  0  0  0
   58.1402   28.3117   47.6579 H   0  0  0  0  0  0  0  0  0  0  0  0
   57.5702   27.3386   46.2597 H   0  0  0  0  0  0  0  0  0  0  0  0
   59.2307   28.0239   46.2597 H   0  0  0  0  0  0  0  0  0  0  0  0
   56.9817   33.5398   44.5401 H   0  0  0  0  0  0  0  0  0  0  0  0
   59.1440   34.4295   45.4696 H   0  0  0  0  0  0  0  0  0  0  0  0
   61.8653   32.3023   46.6588 H   0  0  0  0  0  0  0  0  0  0  0  0
   61.3100   33.9841   46.3126 H   0  0  0  0  0  0  0  0  0  0  0  0
   61.4278   34.3019   48.5533 H   0  0  0  0  0  0  0  0  0  0  0  0
   59.9095   33.3351   48.6259 H   0  0  0  0  0  0  0  0  0  0  0  0
   59.3530   29.9960   49.8240 H   0  0  0  0  0  0  0  0  0  0  0  0
   64.7021   30.0160   51.3576 H   0  0  0  0  0  0  0  0  0  0  0  0
   67.6013   31.5347   50.1683 H   0  0  0  0  0  0  0  0  0  0  0  0
   67.2050   32.4723   51.6569 H   0  0  0  0  0  0  0  0  0  0  0  0
   66.3870   27.6471   52.7251 H   0  0  0  0  0  0  0  0  0  0  0  0
   64.9469   27.7706   51.6926 H   0  0  0  0  0  0  0  0  0  0  0  0
   66.7046   25.5948   51.7188 H   0  0  0  0  0  0  0  0  0  0  0  0
   65.6367   25.9657   50.3605 H   0  0  0  0  0  0  0  0  0  0  0  0
   68.5361   26.1251   50.4484 H   0  0  0  0  0  0  0  0  0  0  0  0
   67.5051   26.5455   49.0767 H   0  0  0  0  0  0  0  0  0  0  0  0
   68.7281   28.3121   51.1791 H   0  0  0  0  0  0  0  0  0  0  0  0
   68.2487   28.7341   49.5231 H   0  0  0  0  0  0  0  0  0  0  0  0
   66.0348   33.7364   49.5160 H   0  0  0  0  0  0  0  0  0  0  0  0
   63.7212   34.1222   48.6085 H   0  0  0  0  0  0  0  0  0  0  0  0
   60.1285   30.4596   46.9850 H   0  0  0  0  0  0  0  0  0  0  0  0
  1  2  1  0
  2  3  2  0
  3  4  1  0
  3  5  1  0
  5  6  1  0
  6  7  2  0
  7  8  1  0
  8  9  2  0
  9 10  1  0
 10 11  1  0
 11 12  1  0
 12 13  1  0
 13 14  1  0
 13 15  2  0
 15 16  1  0
 16 17  2  0
 15 18  1  0
 18 19  2  0
 19 20  1  0
 20 21  1  0
 21 22  1  0
 22 23  2  0
 22 24  2  0
 22 25  1  0
 25 26  1  0
 26 27  1  0
 27 28  1  0
 28 29  1  0
 20 30  2  0
 30 31  1  0
 31 32  2  0
  9 33  1  0
 33 34  2  0
 34  2  1  0
 34  6  1  0
 32 12  1  0
 32 18  1  0
 29 25  1  0
  1 35  1  0
  1 36  1  0
  1 37  1  0
  7 38  1  0
  8 39  1  0
 10 40  1  0
 10 41  1  0
 11 42  1  0
 11 43  1  0
 14 44  1  0
 19 45  1  0
 21 46  1  0
 21 47  1  0
 26 48  1  0
 26 49  1  0
 27 50  1  0
 27 51  1  0
 28 52  1  0
 28 53  1  0
 29 54  1  0
 29 55  1  0
 30 56  1  0
 31 57  1  0
 33 58  1  0
M  CHG  2   4  -1   5  -1
M  END
>  <UniqueID>  (40) 
36

>  <SMILES>  (40) 
Cc1c([O-])[n-]c2ccc(CCn3c(O)c(N=O)c4cc(CS(=O)(=O)N5CCCC5)ccc43)cc12

>  <Energy>  (40) 
123.7419893729213

>  <Genealogy>  (40) 
Cc1c([O-])[n-]c2ccc(CCn3c(O)c(N=O)c4cc(CS(=O)(=O)N5CCCC5)ccc43)cc12 (protonated)
Cc1c([O-])[n-]c2ccc(CCn3c(O)c(N=O)c4cc(CS(=O)(=O)N5CCCC5)ccc43)cc12 (3D coordinates assigned)
Cc1c([O-])[n-]c2ccc(CCn3c(O)c(N=O)c4cc(CS(=O)(=O)N5CCCC5)ccc43)cc12 (nonaromatic ring conformer: 123.7419893729213 kcal/mol)

>  <smiles>  (40) 
Cc1c(O)[nH]c2ccc(CCn3c(O)c(N=O)c4cc(CS(=O)(=O)N5CCCC5)ccc43)cc12

>  <score_type>  (40) 
oracle

>  <origin>  (40) 
adg

>  <m_score__min__energy>  (40) 
-15.039999999999999

>  <m_primary>  (40) 
energy

$$$$
40:0
     RDKit          3D

 34 35  0  0  0  0  0  0  0  0999 V2000
   59.0334   27.3662   48.3361 H   0  0  0  0  0  0  0  0  0  0  0  0
   58.7050   26.8000   47.4520 C   0  0  0  0  0  0  0  0  0  0  0  0
   59.6410   26.7240   46.3130 C   0  0  0  0  0  0  0  0  0  0  0  0
   60.8420   26.3860   46.4920 O   0  0  0  0  0  0  0  0  0  0  0  0
   59.1670   27.1140   45.0150 N   0  0  0  0  0  0  0  0  0  0  0  0
   58.5580   28.2190   44.6920 C   0  0  0  0  0  0  0  0  0  0  0  0
   59.2600   29.7360   44.4910 S   0  0  0  0  0  0  0  0  0  0  0  0
   57.8050   30.4940   44.0910 C   0  0  0  0  0  0  0  0  0  0  0  0
   57.7140   31.9370   43.7720 C   0  0  0  0  0  0  0  0  0  0  0  0
   57.6080   32.2840   42.5650 O   0  0  0  0  0  0  0  0  0  0  0  0
   57.7170   33.0030   44.8220 C   0  0  0  0  0  0  0  0  0  0  0  0
   57.7157   32.5365   45.8182 H   0  0  0  0  0  0  0  0  0  0  0  0
   58.6169   33.6256   44.7099 H   0  0  0  0  0  0  0  0  0  0  0  0
   56.8206   33.6306   44.7099 H   0  0  0  0  0  0  0  0  0  0  0  0
   56.7890   29.5190   44.1420 C   0  0  0  0  0  0  0  0  0  0  0  0
   55.3310   29.7830   43.9150 C   0  0  0  0  0  0  0  0  0  0  0  0
   54.8198   29.8756   44.8846 H   0  0  0  0  0  0  0  0  0  0  0  0
   55.2117   30.7174   43.3469 H   0  0  0  0  0  0  0  0  0  0  0  0
   54.8916   28.9498   43.3469 H   0  0  0  0  0  0  0  0  0  0  0  0
   57.2280   28.2690   44.4670 N   0  0  0  0  0  0  0  0  0  0  0  0
   56.6020   27.4350   44.5470 H   0  0  0  0  0  0  0  0  0  0  0  0
   57.4870   26.2370   47.5010 C   0  0  0  0  0  0  0  0  0  0  0  0
   56.8211   26.5438   48.3211 H   0  0  0  0  0  0  0  0  0  0  0  0
   56.9680   25.2380   46.5420 C   0  0  0  0  0  0  0  0  0  0  0  0
   57.6740   24.0470   46.2930 C   0  0  0  0  0  0  0  0  0  0  0  0
   58.6029   23.8363   46.8431 H   0  0  0  0  0  0  0  0  0  0  0  0
   57.2010   23.1300   45.3500 C   0  0  0  0  0  0  0  0  0  0  0  0
   57.7484   22.1925   45.1725 H   0  0  0  0  0  0  0  0  0  0  0  0
   56.0340   23.4030   44.6330 C   0  0  0  0  0  0  0  0  0  0  0  0
   55.6602   22.6779   43.8951 H   0  0  0  0  0  0  0  0  0  0  0  0
   55.3410   24.5960   44.8520 C   0  0  0  0  0  0  0  0  0  0  0  0
   54.4256   24.8111   44.2812 H   0  0  0  0  0  0  0  0  0  0  0  0
   55.8080   25.5190   45.7960 C   0  0  0  0  0  0  0  0  0  0  0  0
   55.1090   26.7040   45.9940 O   0  0  0  0  0  0  0  0  0  0  0  0
  1  2  1  0
  2  3  1  0
  3  4  2  0
  3  5  1  0
  5  6  2  0
  6  7  1  0
  7  8  1  0
  8  9  1  0
  9 10  2  0
  9 11  1  0
 11 12  1  0
 11 13  1  0
 11 14  1  0
  8 15  2  0
 15 16  1  0
 16 17  1  0
 16 18  1  0
 16 19  1  0
 15 20  1  0
 20 21  1  0
  2 22  2  3
 22 23  1  0
 22 24  1  0
 24 25  2  0
 25 26  1  0
 25 27  1  0
 27 28  1  0
 27 29  2  0
 29 30  1  0
 29 31  1  0
 31 32  1  0
 31 33  2  0
 33 34  1  0
 20  6  1  0
 33 24  1  0
M  CHG  1  34  -1
M  END
>  <UniqueID>  (41) 
37

>  <SMILES>  (41) 
CC(=O)c1s/c(=N\C(=O)C=Cc2ccccc2[O-])[nH]c1C

>  <Energy>  (41) 
76.32059607909744

>  <Genealogy>  (41) 
CC(=O)c1sc(=NC(=O)C=Cc2ccccc2[O-])[nH]c1C (protonated)
CC(=O)c1s/c(=N\C(=O)C=Cc2ccccc2[O-])[nH]c1C (cis-trans isomerization)
CC(=O)c1s/c(=N\C(=O)C=Cc2ccccc2[O-])[nH]c1C (3D coordinates assigned)
CC(=O)c1s/c(=N\C(=O)C=Cc2ccccc2[O-])[nH]c1C (optimized conformer: 76.32059607909744 kcal/mol)

>  <smiles>  (41) 
CC(=O)c1sc(=NC(=O)C=Cc2ccccc2O)[nH]c1C

>  <score_type>  (41) 
oracle

>  <origin>  (41) 
adg

>  <m_score__min__energy>  (41) 
-11.35

>  <m_primary>  (41) 
energy

$$$$
41:0
     RDKit          3D

 67 71  0  0  0  0  0  0  0  0999 V2000
   59.8680   33.3080   50.7820 C   0  0  0  0  0  0  0  0  0  0  0  0
   61.2990   33.8130   50.9560 C   0  0  0  0  0  0  0  0  0  0  0  0
   62.1300   33.5240   49.7250 C   0  0  0  0  0  0  0  0  0  0  0  0
   63.3610   32.8600   49.8870 C   0  0  0  0  0  0  0  0  0  0  0  0
   64.1190   32.4820   48.7770 C   0  0  0  0  0  0  0  0  0  0  0  0
   63.6490   32.7390   47.4890 C   0  0  0  0  0  0  0  0  0  0  0  0
   62.4250   33.3840   47.3080 C   0  0  0  0  0  0  0  0  0  0  0  0
   61.6690   33.8060   48.4100 C   0  0  0  0  0  0  0  0  0  0  0  0
   60.4600   34.4660   48.1530 O   0  0  0  0  0  0  0  0  0  0  0  0
   59.6820   34.3280   46.9920 C   0  0  0  0  0  0  0  0  0  0  0  0
   59.9590   35.1420   45.9360 N   0  0  0  0  0  0  0  0  0  0  0  0
   59.2780   35.0390   44.7660 C   0  0  0  0  0  0  0  0  0  0  0  0
   58.2850   34.1250   44.6340 N   0  0  0  0  0  0  0  0  0  0  0  0
   57.9300   33.3170   45.6660 C   0  0  0  0  0  0  0  0  0  0  0  0
   56.8880   32.4020   45.4770 O   0  0  0  0  0  0  0  0  0  0  0  0
   57.0490   31.1610   44.8470 C   0  0  0  0  0  0  0  0  0  0  0  0
   56.3120   30.8140   43.7020 C   0  0  0  0  0  0  0  0  0  0  0  0
   56.5070   29.5710   43.0920 C   0  0  0  0  0  0  0  0  0  0  0  0
   57.4200   28.6600   43.6320 C   0  0  0  0  0  0  0  0  0  0  0  0
   58.1430   28.9880   44.7910 C   0  0  0  0  0  0  0  0  0  0  0  0
   59.0460   27.9980   45.4130 C   0  0  0  0  0  0  0  0  0  0  0  0
   59.6060   27.1290   44.6900 O   0  0  0  0  0  0  0  0  0  0  0  0
   59.3060   28.0250   46.8270 N   0  0  0  0  0  0  0  0  0  0  0  0
   58.2060   28.2220   47.7840 C   0  0  0  0  0  0  0  0  0  0  0  0
   58.5810   29.2730   48.8410 C   0  0  0  0  0  0  0  0  0  0  0  0
   60.0860   29.2620   49.2130 C   0  0  0  0  0  0  0  0  0  0  0  0
   60.2630   29.5630   50.6400 N   0  0  0  0  0  0  0  0  0  0  0  0
   59.1770   29.8160   51.5770 C   0  0  0  0  0  0  0  0  0  0  0  0
   59.8130   30.4800   52.8150 C   0  0  0  0  0  0  0  0  0  0  0  0
   61.3200   30.6010   52.5480 C   0  0  0  0  0  0  0  0  0  0  0  0
   61.4760   30.0350   51.1950 C   0  0  0  0  0  0  0  0  0  0  0  0
   62.5780   29.9870   50.5840 O   0  0  0  0  0  0  0  0  0  0  0  0
   60.7700   27.9340   48.8330 C   0  0  0  0  0  0  0  0  0  0  0  0
   60.6490   27.6930   47.3200 C   0  0  0  0  0  0  0  0  0  0  0  0
   57.9740   30.2540   45.3730 C   0  0  0  0  0  0  0  0  0  0  0  0
   58.6250   33.3960   46.8870 C   0  0  0  0  0  0  0  0  0  0  0  0
   58.1710   32.3440   48.2290 Cl  0  0  0  0  0  0  0  0  0  0  0  0
   59.4131   33.1475   51.7706 H   0  0  0  0  0  0  0  0  0  0  0  0
   59.2813   34.0534   50.2251 H   0  0  0  0  0  0  0  0  0  0  0  0
   59.8791   32.3595   50.2251 H   0  0  0  0  0  0  0  0  0  0  0  0
   61.2785   34.8991   51.1292 H   0  0  0  0  0  0  0  0  0  0  0  0
   61.7516   33.2941   51.8139 H   0  0  0  0  0  0  0  0  0  0  0  0
   63.7296   32.6366   50.8991 H   0  0  0  0  0  0  0  0  0  0  0  0
   65.0880   31.9809   48.9184 H   0  0  0  0  0  0  0  0  0  0  0  0
   64.2436   32.4330   46.6156 H   0  0  0  0  0  0  0  0  0  0  0  0
   62.0495   33.5631   46.2897 H   0  0  0  0  0  0  0  0  0  0  0  0
   60.7290   35.8430   46.0150 H   0  0  0  0  0  0  0  0  0  0  0  0
   59.5323   35.6985   43.9232 H   0  0  0  0  0  0  0  0  0  0  0  0
   55.5803   31.5215   43.2848 H   0  0  0  0  0  0  0  0  0  0  0  0
   55.9411   29.3094   42.1857 H   0  0  0  0  0  0  0  0  0  0  0  0
   57.5725   27.6840   43.1481 H   0  0  0  0  0  0  0  0  0  0  0  0
   57.3119   28.5610   47.2403 H   0  0  0  0  0  0  0  0  0  0  0  0
   58.0071   27.2671   48.2926 H   0  0  0  0  0  0  0  0  0  0  0  0
   58.3260   30.2685   48.4487 H   0  0  0  0  0  0  0  0  0  0  0  0
   58.0188   29.0298   49.7546 H   0  0  0  0  0  0  0  0  0  0  0  0
   60.5791   30.0500   48.6248 H   0  0  0  0  0  0  0  0  0  0  0  0
   58.4337   30.4889   51.1246 H   0  0  0  0  0  0  0  0  0  0  0  0
   58.6594   28.8838   51.8473 H   0  0  0  0  0  0  0  0  0  0  0  0
   59.3776   31.4780   52.9717 H   0  0  0  0  0  0  0  0  0  0  0  0
   59.6255   29.8793   53.7172 H   0  0  0  0  0  0  0  0  0  0  0  0
   61.6407   31.6529   52.5736 H   0  0  0  0  0  0  0  0  0  0  0  0
   61.9318   30.0841   53.3020 H   0  0  0  0  0  0  0  0  0  0  0  0
   61.8335   27.9798   49.1104 H   0  0  0  0  0  0  0  0  0  0  0  0
   60.2789   27.1090   49.3699 H   0  0  0  0  0  0  0  0  0  0  0  0
   61.3864   28.3206   46.7981 H   0  0  0  0  0  0  0  0  0  0  0  0
   60.8340   26.6264   47.1249 H   0  0  0  0  0  0  0  0  0  0  0  0
   58.5746   30.5351   46.2507 H   0  0  0  0  0  0  0  0  0  0  0  0
  1  2  1  0
  2  3  1  0
  3  4  2  0
  4  5  1  0
  5  6  2  0
  6  7  1  0
  7  8  2  0
  8  9  1  0
  9 10  1  0
 10 11  2  0
 11 12  1  0
 12 13  2  0
 13 14  1  0
 14 15  1  0
 15 16  1  0
 16 17  2  0
 17 18  1  0
 18 19  2  0
 19 20  1  0
 20 21  1  0
 21 22  2  0
 21 23  1  0
 23 24  1  0
 24 25  1  0
 25 26  1  0
 26 27  1  0
 27 28  1  0
 28 29  1  0
 29 30  1  0
 30 31  1  0
 31 32  2  0
 26 33  1  0
 33 34  1  0
 20 35  2  0
 14 36  2  0
 36 37  1  0
  8  3  1  0
 36 10  1  0
 35 16  1  0
 34 23  1  0
 31 27  1  0
  1 38  1  0
  1 39  1  0
  1 40  1  0
  2 41  1  0
  2 42  1  0
  4 43  1  0
  5 44  1  0
  6 45  1  0
  7 46  1  0
 11 47  1  0
 12 48  1  0
 17 49  1  0
 18 50  1  0
 19 51  1  0
 24 52  1  0
 24 53  1  0
 25 54  1  0
 25 55  1  0
 26 56  1  0
 28 57  1  0
 28 58  1  0
 29 59  1  0
 29 60  1  0
 30 61  1  0
 30 62  1  0
 33 63  1  0
 33 64  1  0
 34 65  1  0
 34 66  1  0
 35 67  1  0
M  CHG  1  11   1
M  END
>  <UniqueID>  (42) 
38

>  <SMILES>  (42) 
CCc1ccccc1Oc1[nH+]cnc(Oc2cccc(C(=O)N3CCC(N4CCCC4=O)CC3)c2)c1Cl

>  <Energy>  (42) 
102.87453028777763

>  <Genealogy>  (42) 
CCc1ccccc1Oc1[nH+]cnc(Oc2cccc(C(=O)N3CCC(N4CCCC4=O)CC3)c2)c1Cl (protonated)
CCc1ccccc1Oc1[nH+]cnc(Oc2cccc(C(=O)N3CCC(N4CCCC4=O)CC3)c2)c1Cl (3D coordinates assigned)
CCc1ccccc1Oc1[nH+]cnc(Oc2cccc(C(=O)N3CCC(N4CCCC4=O)CC3)c2)c1Cl (nonaromatic ring conformer: 102.87453028777763 kcal/mol)

>  <smiles>  (42) 
CCc1ccccc1Oc1ncnc(Oc2cccc(C(=O)N3CCC(N4CCCC4=O)CC3)c2)c1Cl

>  <score_type>  (42) 
oracle

>  <origin>  (42) 
adg

>  <m_score__min__energy>  (42) 
-8.4299999999999997

>  <m_primary>  (42) 
energy

$$$$
42:0
     RDKit          3D

 43 45  0  0  0  0  0  0  0  0999 V2000
   58.6282   33.7034   46.9945 H   0  0  0  0  0  0  0  0  0  0  0  0
   58.3270   32.6820   46.7190 C   0  0  0  0  0  0  0  0  0  0  0  0
   57.0170   31.2220   45.1200 N   0  0  0  0  0  0  0  0  0  0  0  0
   59.1100   31.8380   48.8450 C   0  0  0  0  0  0  0  0  0  0  0  0
   60.2830   32.2980   48.9200 O   0  0  0  0  0  0  0  0  0  0  0  0
   58.3950   31.4240   50.0740 C   0  0  0  0  0  0  0  0  0  0  0  0
   57.7340   32.3770   50.8720 C   0  0  0  0  0  0  0  0  0  0  0  0
   57.7480   33.4373   50.5795 H   0  0  0  0  0  0  0  0  0  0  0  0
   57.0600   31.9870   52.0330 C   0  0  0  0  0  0  0  0  0  0  0  0
   56.5594   32.7432   52.6556 H   0  0  0  0  0  0  0  0  0  0  0  0
   57.0190   30.6350   52.4080 C   0  0  0  0  0  0  0  0  0  0  0  0
   56.3320   30.2170   53.6740 C   0  0  0  0  0  0  0  0  0  0  0  0
   56.9352   29.4522   54.1850 H   0  0  0  0  0  0  0  0  0  0  0  0
   56.2138   31.0875   54.3360 H   0  0  0  0  0  0  0  0  0  0  0  0
   55.0520   29.6800   53.3550 O   0  0  0  0  0  0  0  0  0  0  0  0
   53.9680   30.4370   52.8860 C   0  0  0  0  0  0  0  0  0  0  0  0
   53.8900   30.9060   51.5590 C   0  0  0  0  0  0  0  0  0  0  0  0
   54.6977   30.6777   50.8480 H   0  0  0  0  0  0  0  0  0  0  0  0
   52.7880   31.6610   51.1440 C   0  0  0  0  0  0  0  0  0  0  0  0
   52.7320   32.0271   50.1082 H   0  0  0  0  0  0  0  0  0  0  0  0
   51.7580   31.9510   52.0430 C   0  0  0  0  0  0  0  0  0  0  0  0
   50.6640   32.7010   51.6280 O   0  0  0  0  0  0  0  0  0  0  0  0
   51.8280   31.4870   53.3600 C   0  0  0  0  0  0  0  0  0  0  0  0
   51.0165   31.7145   54.0669 H   0  0  0  0  0  0  0  0  0  0  0  0
   52.9290   30.7340   53.7790 C   0  0  0  0  0  0  0  0  0  0  0  0
   52.9803   30.3721   54.8165 H   0  0  0  0  0  0  0  0  0  0  0  0
   57.6840   29.6830   51.6210 C   0  0  0  0  0  0  0  0  0  0  0  0
   57.6722   28.6238   51.9177 H   0  0  0  0  0  0  0  0  0  0  0  0
   58.3610   30.0720   50.4630 C   0  0  0  0  0  0  0  0  0  0  0  0
   58.8720   29.3151   49.8498 H   0  0  0  0  0  0  0  0  0  0  0  0
   57.7680   32.4150   45.3850 C   0  0  0  0  0  0  0  0  0  0  0  0
   58.0350   33.1990   44.4360 O   0  0  0  0  0  0  0  0  0  0  0  0
   58.4650   31.7130   47.5710 N   0  0  0  0  0  0  0  0  0  0  0  0
   57.4180   29.9820   45.1920 C   0  0  0  0  0  0  0  0  0  0  0  0
   58.7570   29.7540   45.2830 N   0  0  0  0  0  0  0  0  0  0  0  0
   59.2820   28.5060   45.3890 C   0  0  0  0  0  0  0  0  0  0  0  0
   60.3711   28.3728   45.4670 H   0  0  0  0  0  0  0  0  0  0  0  0
   58.4420   27.3940   45.3990 C   0  0  0  0  0  0  0  0  0  0  0  0
   58.8600   26.3816   45.5004 H   0  0  0  0  0  0  0  0  0  0  0  0
   57.0670   27.5800   45.2790 C   0  0  0  0  0  0  0  0  0  0  0  0
   56.3942   26.7097   45.2811 H   0  0  0  0  0  0  0  0  0  0  0  0
   56.5390   28.8670   45.1560 C   0  0  0  0  0  0  0  0  0  0  0  0
   55.1690   29.0060   44.9600 O   0  0  0  0  0  0  0  0  0  0  0  0
  1  2  1  0
  2  3  2  0
  3  4  1  0
  4  5  2  0
  4  6  1  0
  6  7  2  0
  7  8  1  0
  7  9  1  0
  9 10  1  0
  9 11  2  0
 11 12  1  0
 12 13  1  0
 12 14  1  0
 12 15  1  0
 15 16  1  0
 16 17  2  0
 17 18  1  0
 17 19  1  0
 19 20  1  0
 19 21  2  0
 21 22  1  0
 21 23  1  0
 23 24  1  0
 23 25  2  0
 25 26  1  0
 11 27  1  0
 27 28  1  0
 27 29  2  0
 29 30  1  0
  2 31  1  0
 31 32  2  0
 31 33  1  0
 33 34  2  0
 34 35  1  0
 35 36  1  0
 36 37  1  0
 36 38  2  0
 38 39  1  0
 38 40  1  0
 40 41  1  0
 40 42  2  0
 42 43  1  0
 29  6  1  0
 42 34  1  0
 25 16  1  0
M  CHG  3  22  -1  35  -1  43  -1
M  END
>  <UniqueID>  (43) 
39

>  <SMILES>  (43) 
O=C(/C=N/C(=O)c1ccc(COc2ccc([O-])cc2)cc1)/N=c1/[n-]cccc1[O-]

>  <Energy>  (43) 
57.29727988898383

>  <Genealogy>  (43) 
O=C(C=NC(=O)c1ccc(COc2ccc([O-])cc2)cc1)N=c1[n-]cccc1[O-] (protonated)
O=C(/C=N/C(=O)c1ccc(COc2ccc([O-])cc2)cc1)/N=c1/[n-]cccc1[O-] (cis-trans isomerization)
O=C(/C=N/C(=O)c1ccc(COc2ccc([O-])cc2)cc1)/N=c1/[n-]cccc1[O-] (3D coordinates assigned)
O=C(/C=N/C(=O)c1ccc(COc2ccc([O-])cc2)cc1)/N=c1/[n-]cccc1[O-] (optimized conformer: 57.29727988898383 kcal/mol)

>  <smiles>  (43) 
O=C(C=NC(=O)c1ccc(COc2ccc(O)cc2)cc1)N=c1[nH]cccc1O

>  <score_type>  (43) 
oracle

>  <origin>  (43) 
adg

>  <m_score__min__energy>  (43) 
-16.300000000000001

>  <m_primary>  (43) 
energy

$$$$
43:0
     RDKit          3D

 60 63  0  0  0  0  0  0  0  0999 V2000
   58.2470   29.3040   49.8640 O   0  0  0  0  0  0  0  0  0  0  0  0
   58.6300   30.3050   50.5310 C   0  0  0  0  0  0  0  0  0  0  0  0
   59.6300   31.1840   49.9850 N   0  0  0  0  0  0  0  0  0  0  0  0
   60.1600   31.0080   48.6290 C   0  0  1  0  0  0  0  0  0  0  0  0
   59.0750   31.1270   47.5800 C   0  0  0  0  0  0  0  0  0  0  0  0
   58.2550   30.1780   47.4510 O   0  0  0  0  0  0  0  0  0  0  0  0
   59.0050   32.2390   46.6670 N   0  0  0  0  0  0  0  0  0  0  0  0
   58.8920   33.6170   47.1710 C   0  0  0  0  0  0  0  0  0  0  0  0
   58.4200   34.5810   46.0740 C   0  0  0  0  0  0  0  0  0  0  0  0
   57.2470   33.9720   45.2960 C   0  0  0  0  0  0  0  0  0  0  0  0
   57.5850   32.5950   44.6780 C   0  0  0  0  0  0  0  0  0  0  0  0
   58.8810   31.9790   45.2280 C   0  0  0  0  0  0  0  0  0  0  0  0
   61.2880   31.9850   48.3470 C   0  0  0  0  0  0  0  0  0  0  0  0
   61.3830   33.1830   49.0800 C   0  0  0  0  0  0  0  0  0  0  0  0
   62.4200   34.0860   48.8290 C   0  0  0  0  0  0  0  0  0  0  0  0
   63.3760   33.8040   47.8490 C   0  0  0  0  0  0  0  0  0  0  0  0
   63.2910   32.6210   47.1130 C   0  0  0  0  0  0  0  0  0  0  0  0
   62.2530   31.7170   47.3560 C   0  0  0  0  0  0  0  0  0  0  0  0
   58.0600   30.5430   51.8770 C   0  0  0  0  0  0  0  0  0  0  0  0
   58.3650   31.7250   52.5750 C   0  0  0  0  0  0  0  0  0  0  0  0
   57.7980   31.9720   53.8280 C   0  0  0  0  0  0  0  0  0  0  0  0
   56.9230   31.0450   54.3990 C   0  0  0  0  0  0  0  0  0  0  0  0
   56.6280   29.8510   53.7280 C   0  0  0  0  0  0  0  0  0  0  0  0
   55.4880   28.6950   54.4170 S   0  0  0  0  0  0  0  0  0  0  0  0
   54.9850   29.2180   55.7320 O   0  0  0  0  0  0  0  0  0  0  0  0
   56.1590   27.3750   54.6690 O   0  0  0  0  0  0  0  0  0  0  0  0
   54.1360   28.5120   53.3450 N   0  0  0  0  0  0  0  0  0  0  0  0
   53.3630   29.5780   52.7770 C   0  0  0  0  0  0  0  0  0  0  0  0
   52.2720   30.0740   53.5040 C   0  0  0  0  0  0  0  0  0  0  0  0
   51.4970   31.1210   52.9960 C   0  0  0  0  0  0  0  0  0  0  0  0
   51.7960   31.6700   51.7450 C   0  0  0  0  0  0  0  0  0  0  0  0
   51.0290   32.7130   51.2410 O   0  0  0  0  0  0  0  0  0  0  0  0
   52.8650   31.1650   51.0010 C   0  0  0  0  0  0  0  0  0  0  0  0
   53.6450   30.1220   51.5110 C   0  0  0  0  0  0  0  0  0  0  0  0
   57.2080   29.5990   52.4770 C   0  0  0  0  0  0  0  0  0  0  0  0
   60.0680   31.9000   50.6100 H   0  0  0  0  0  0  0  0  0  0  0  0
   60.5665   29.9874   48.5732 H   0  0  0  0  0  0  0  0  0  0  0  0
   58.1683   33.6363   47.9992 H   0  0  0  0  0  0  0  0  0  0  0  0
   59.8861   33.9422   47.5115 H   0  0  0  0  0  0  0  0  0  0  0  0
   58.0971   35.5257   46.5359 H   0  0  0  0  0  0  0  0  0  0  0  0
   59.2521   34.7654   45.3786 H   0  0  0  0  0  0  0  0  0  0  0  0
   56.3964   33.8493   45.9826 H   0  0  0  0  0  0  0  0  0  0  0  0
   57.0093   34.6561   44.4680 H   0  0  0  0  0  0  0  0  0  0  0  0
   56.7545   31.9052   44.8889 H   0  0  0  0  0  0  0  0  0  0  0  0
   57.7329   32.7515   43.5993 H   0  0  0  0  0  0  0  0  0  0  0  0
   58.8662   30.8925   45.0567 H   0  0  0  0  0  0  0  0  0  0  0  0
   59.7382   32.4337   44.7098 H   0  0  0  0  0  0  0  0  0  0  0  0
   60.6364   33.4100   49.8553 H   0  0  0  0  0  0  0  0  0  0  0  0
   62.4839   35.0213   49.4044 H   0  0  0  0  0  0  0  0  0  0  0  0
   64.1945   34.5136   47.6580 H   0  0  0  0  0  0  0  0  0  0  0  0
   64.0422   32.3998   46.3405 H   0  0  0  0  0  0  0  0  0  0  0  0
   62.1890   30.7890   46.7689 H   0  0  0  0  0  0  0  0  0  0  0  0
   59.0539   32.4594   52.1321 H   0  0  0  0  0  0  0  0  0  0  0  0
   58.0416   32.8997   54.3666 H   0  0  0  0  0  0  0  0  0  0  0  0
   56.4647   31.2528   55.3772 H   0  0  0  0  0  0  0  0  0  0  0  0
   52.0236   29.6360   54.4820 H   0  0  0  0  0  0  0  0  0  0  0  0
   50.6517   31.5131   53.5806 H   0  0  0  0  0  0  0  0  0  0  0  0
   53.0939   31.5885   50.0119 H   0  0  0  0  0  0  0  0  0  0  0  0
   54.4830   29.7253   50.9191 H   0  0  0  0  0  0  0  0  0  0  0  0
   56.9943   28.6524   51.9590 H   0  0  0  0  0  0  0  0  0  0  0  0
  1  2  2  0
  2  3  1  0
  3  4  1  0
  4  5  1  0
  5  6  2  0
  5  7  1  0
  7  8  1  0
  8  9  1  0
  9 10  1  0
 10 11  1  0
 11 12  1  0
  4 13  1  0
 13 14  2  0
 14 15  1  0
 15 16  2  0
 16 17  1  0
 17 18  2  0
  2 19  1  0
 19 20  2  0
 20 21  1  0
 21 22  2  0
 22 23  1  0
 23 24  1  0
 24 25  2  0
 24 26  2  0
 24 27  1  0
 27 28  1  0
 28 29  2  0
 29 30  1  0
 30 31  2  0
 31 32  1  0
 31 33  1  0
 33 34  2  0
 23 35  2  0
 12  7  1  0
 18 13  1  0
 35 19  1  0
 34 28  1  0
  3 36  1  0
  4 37  1  1
  8 38  1  0
  8 39  1  0
  9 40  1  0
  9 41  1  0
 10 42  1  0
 10 43  1  0
 11 44  1  0
 11 45  1  0
 12 46  1  0
 12 47  1  0
 14 48  1  0
 15 49  1  0
 16 50  1  0
 17 51  1  0
 18 52  1  0
 20 53  1  0
 21 54  1  0
 22 55  1  0
 29 56  1  0
 30 57  1  0
 33 58  1  0
 34 59  1  0
 35 60  1  0
M  CHG  2  27  -1  32  -1
M  END
>  <UniqueID>  (44) 
40

>  <SMILES>  (44) 
O=C(N[C@@H](C(=O)N1CCCCC1)c1ccccc1)c1cccc(S(=O)(=O)[N-]c2ccc([O-])cc2)c1

>  <Energy>  (44) 
71.86406771523117

>  <Genealogy>  (44) 
O=C(NC(C(=O)N1CCCCC1)c1ccccc1)c1cccc(S(=O)(=O)[N-]c2ccc([O-])cc2)c1 (protonated)
O=C(N[C@@H](C(=O)N1CCCCC1)c1ccccc1)c1cccc(S(=O)(=O)[N-]c2ccc([O-])cc2)c1 (chirality)
O=C(N[C@@H](C(=O)N1CCCCC1)c1ccccc1)c1cccc(S(=O)(=O)[N-]c2ccc([O-])cc2)c1 (3D coordinates assigned)
O=C(N[C@@H](C(=O)N1CCCCC1)c1ccccc1)c1cccc(S(=O)(=O)[N-]c2ccc([O-])cc2)c1 (nonaromatic ring conformer: 71.86406771523117 kcal/mol)

>  <smiles>  (44) 
O=C(NC(C(=O)N1CCCCC1)c1ccccc1)c1cccc(S(=O)(=O)Nc2ccc(O)cc2)c1

>  <score_type>  (44) 
oracle

>  <origin>  (44) 
adg

>  <m_score__min__energy>  (44) 
-15.07

>  <m_primary>  (44) 
energy

$$$$
44:0
     RDKit          3D

 37 38  0  0  0  0  0  0  0  0999 V2000
   56.9590   30.6830   44.8960 O   0  0  0  0  0  0  0  0  0  0  0  0
   56.4800   29.5190   44.8470 C   0  0  0  0  0  0  0  0  0  0  0  0
   55.1010   29.3440   44.8700 O   0  0  0  0  0  0  0  0  0  0  0  0
   57.3930   28.3310   44.7900 C   0  0  0  0  0  0  0  0  0  0  0  0
   57.3350   27.5420   46.0690 C   0  0  0  0  0  0  0  0  0  0  0  0
   56.3210   26.8300   46.3000 O   0  0  0  0  0  0  0  0  0  0  0  0
   58.4500   27.4590   46.9680 N   0  0  0  0  0  0  0  0  0  0  0  0
   59.3660   28.5100   47.3030 C   0  0  0  0  0  0  0  0  0  0  0  0
   59.8340   29.3520   46.2880 C   0  0  0  0  0  0  0  0  0  0  0  0
   60.7470   30.3700   46.5760 C   0  0  0  0  0  0  0  0  0  0  0  0
   61.2180   30.5420   47.8860 C   0  0  0  0  0  0  0  0  0  0  0  0
   62.3440   31.8400   48.2770 S   0  0  0  0  0  0  0  0  0  0  0  0
   63.1560   31.4360   49.4750 O   0  0  0  0  0  0  0  0  0  0  0  0
   63.2790   32.0900   47.1260 O   0  0  0  0  0  0  0  0  0  0  0  0
   61.4690   33.2930   48.6440 N   0  0  0  0  0  0  0  0  0  0  0  0
   61.3340   34.1080   47.4380 C   0  0  0  0  0  0  0  0  0  0  0  0
   59.9510   33.9360   46.8800 C   0  0  0  0  0  0  0  0  0  0  0  0
   59.6530   34.3870   45.5830 C   0  0  0  0  0  0  0  0  0  0  0  0
   58.3770   34.1930   45.0460 C   0  0  0  0  0  0  0  0  0  0  0  0
   57.3950   33.5390   45.7940 C   0  0  0  0  0  0  0  0  0  0  0  0
   57.6880   33.0720   47.0790 C   0  0  0  0  0  0  0  0  0  0  0  0
   58.9630   33.2630   47.6190 C   0  0  0  0  0  0  0  0  0  0  0  0
   60.7770   29.6820   48.8980 C   0  0  0  0  0  0  0  0  0  0  0  0
   59.8640   28.6630   48.6080 C   0  0  0  0  0  0  0  0  0  0  0  0
   57.0886   27.6837   43.9544 H   0  0  0  0  0  0  0  0  0  0  0  0
   58.4233   28.6886   44.6464 H   0  0  0  0  0  0  0  0  0  0  0  0
   59.4806   29.2115   45.2558 H   0  0  0  0  0  0  0  0  0  0  0  0
   61.0967   31.0372   45.7744 H   0  0  0  0  0  0  0  0  0  0  0  0
   61.5012   35.1661   47.6881 H   0  0  0  0  0  0  0  0  0  0  0  0
   62.0766   33.7901   46.6913 H   0  0  0  0  0  0  0  0  0  0  0  0
   60.4266   34.8946   44.9881 H   0  0  0  0  0  0  0  0  0  0  0  0
   58.1460   34.5557   44.0335 H   0  0  0  0  0  0  0  0  0  0  0  0
   56.3901   33.3912   45.3716 H   0  0  0  0  0  0  0  0  0  0  0  0
   56.9147   32.5540   47.6652 H   0  0  0  0  0  0  0  0  0  0  0  0
   59.1939   32.8852   48.6260 H   0  0  0  0  0  0  0  0  0  0  0  0
   61.1498   29.8079   49.9252 H   0  0  0  0  0  0  0  0  0  0  0  0
   59.5347   27.9791   49.4041 H   0  0  0  0  0  0  0  0  0  0  0  0
  1  2  2  0
  2  3  1  0
  2  4  1  0
  4  5  1  0
  5  6  2  0
  5  7  1  0
  7  8  1  0
  8  9  2  0
  9 10  1  0
 10 11  2  0
 11 12  1  0
 12 13  2  0
 12 14  2  0
 12 15  1  0
 15 16  1  0
 16 17  1  0
 17 18  2  0
 18 19  1  0
 19 20  2  0
 20 21  1  0
 21 22  2  0
 11 23  1  0
 23 24  2  0
 24  8  1  0
 22 17  1  0
  4 25  1  0
  4 26  1  0
  9 27  1  0
 10 28  1  0
 16 29  1  0
 16 30  1  0
 18 31  1  0
 19 32  1  0
 20 33  1  0
 21 34  1  0
 22 35  1  0
 23 36  1  0
 24 37  1  0
M  CHG  3   3  -1   7  -1  15  -1
M  END
>  <UniqueID>  (45) 
41

>  <SMILES>  (45) 
O=C([O-])CC(=O)[N-]c1ccc(S(=O)(=O)[N-]Cc2ccccc2)cc1

>  <Energy>  (45) 
39.02788362903865

>  <Genealogy>  (45) 
O=C([O-])CC(=O)[N-]c1ccc(S(=O)(=O)[N-]Cc2ccccc2)cc1 (protonated)
O=C([O-])CC(=O)[N-]c1ccc(S(=O)(=O)[N-]Cc2ccccc2)cc1 (3D coordinates assigned)
O=C([O-])CC(=O)[N-]c1ccc(S(=O)(=O)[N-]Cc2ccccc2)cc1 (optimized conformer: 39.02788362903865 kcal/mol)

>  <smiles>  (45) 
O=C(O)CC(=O)Nc1ccc(S(=O)(=O)NCc2ccccc2)cc1

>  <score_type>  (45) 
oracle

>  <origin>  (45) 
adg

>  <m_score__min__energy>  (45) 
-12.529999999999999

>  <m_primary>  (45) 
energy

$$$$
45:0
     RDKit          3D

 50 53  0  0  0  0  0  0  0  0999 V2000
   56.6210   20.2660   45.0700 C   0  0  0  0  0  0  0  0  0  0  0  0
   56.7010   21.6640   44.5460 C   0  0  0  0  0  0  0  0  0  0  0  0
   57.3090   22.6700   45.3070 C   0  0  0  0  0  0  0  0  0  0  0  0
   57.3750   23.9780   44.8010 C   0  0  0  0  0  0  0  0  0  0  0  0
   57.9830   25.0810   45.6270 C   0  0  0  0  0  0  0  0  0  0  0  0
   57.4840   26.4230   45.1470 C   0  0  0  0  0  0  0  0  0  0  0  0
   58.2440   27.1590   44.2260 C   0  0  0  0  0  0  0  0  0  0  0  0
   57.8310   28.4340   43.8350 C   0  0  0  0  0  0  0  0  0  0  0  0
   56.6600   28.9760   44.3770 C   0  0  0  0  0  0  0  0  0  0  0  0
   56.2190   30.3710   44.0250 C   0  0  0  0  0  0  0  0  0  0  0  0
   57.2100   31.3660   44.5490 C   0  0  0  0  0  0  0  0  0  0  0  0
   57.3840   32.5980   44.0210 N   0  0  0  0  0  0  0  0  0  0  0  0
   58.1630   33.2290   44.9260 C   0  0  0  0  0  0  0  0  0  0  0  0
   58.5180   34.4320   44.7980 O   0  0  0  0  0  0  0  0  0  0  0  0
   58.4850   32.4660   45.9940 N   0  0  0  0  0  0  0  0  0  0  0  0
   59.0690   32.9070   47.2630 C   0  0  0  0  0  0  0  0  0  0  0  0
   60.5690   32.8030   47.1860 C   0  0  0  0  0  0  0  0  0  0  0  0
   61.3270   33.8930   46.7280 C   0  0  0  0  0  0  0  0  0  0  0  0
   62.7240   33.8400   46.7550 C   0  0  0  0  0  0  0  0  0  0  0  0
   63.3750   32.7040   47.2460 C   0  0  0  0  0  0  0  0  0  0  0  0
   62.6250   31.6150   47.7020 C   0  0  0  0  0  0  0  0  0  0  0  0
   61.2280   31.6640   47.6760 C   0  0  0  0  0  0  0  0  0  0  0  0
   57.8720   31.2940   45.7610 C   0  0  0  0  0  0  0  0  0  0  0  0
   57.8670   30.2200   46.6500 O   0  0  0  0  0  0  0  0  0  0  0  0
   55.9220   28.2360   45.2510 N   0  0  0  0  0  0  0  0  0  0  0  0
   56.2990   26.9920   45.6500 C   0  0  0  0  0  0  0  0  0  0  0  0
   55.5760   26.3630   46.4690 O   0  0  0  0  0  0  0  0  0  0  0  0
   56.8120   24.2560   43.5470 C   0  0  0  0  0  0  0  0  0  0  0  0
   56.2150   23.2250   42.8190 C   0  0  0  0  0  0  0  0  0  0  0  0
   56.1720   21.9640   43.3290 N   0  0  0  0  0  0  0  0  0  0  0  0
   56.6221   20.2860   46.1698 H   0  0  0  0  0  0  0  0  0  0  0  0
   55.6943   19.7930   44.7129 H   0  0  0  0  0  0  0  0  0  0  0  0
   57.4877   19.6904   44.7129 H   0  0  0  0  0  0  0  0  0  0  0  0
   57.7323   22.4369   46.2952 H   0  0  0  0  0  0  0  0  0  0  0  0
   57.7012   24.9438   46.6814 H   0  0  0  0  0  0  0  0  0  0  0  0
   59.0777   25.0461   45.5250 H   0  0  0  0  0  0  0  0  0  0  0  0
   59.1680   26.7304   43.8107 H   0  0  0  0  0  0  0  0  0  0  0  0
   58.4217   29.0084   43.1062 H   0  0  0  0  0  0  0  0  0  0  0  0
   56.1494   30.4666   42.9314 H   0  0  0  0  0  0  0  0  0  0  0  0
   55.2358   30.5655   44.4782 H   0  0  0  0  0  0  0  0  0  0  0  0
   58.7829   33.9516   47.4553 H   0  0  0  0  0  0  0  0  0  0  0  0
   58.6979   32.2699   48.0794 H   0  0  0  0  0  0  0  0  0  0  0  0
   60.8199   34.7916   46.3467 H   0  0  0  0  0  0  0  0  0  0  0  0
   63.3125   34.6942   46.3890 H   0  0  0  0  0  0  0  0  0  0  0  0
   64.4740   32.6669   47.2735 H   0  0  0  0  0  0  0  0  0  0  0  0
   63.1355   30.7178   48.0820 H   0  0  0  0  0  0  0  0  0  0  0  0
   60.6428   30.8070   48.0408 H   0  0  0  0  0  0  0  0  0  0  0  0
   57.3310   29.3820   46.4630 H   0  0  0  0  0  0  0  0  0  0  0  0
   56.8405   25.2777   43.1404 H   0  0  0  0  0  0  0  0  0  0  0  0
   55.7784   23.4325   41.8309 H   0  0  0  0  0  0  0  0  0  0  0  0
  1  2  1  0
  2  3  2  0
  3  4  1  0
  4  5  1  0
  5  6  1  0
  6  7  2  0
  7  8  1  0
  8  9  2  0
  9 10  1  0
 10 11  1  0
 11 12  1  0
 12 13  1  0
 13 14  2  0
 13 15  1  0
 15 16  1  0
 16 17  1  0
 17 18  2  0
 18 19  1  0
 19 20  2  0
 20 21  1  0
 21 22  2  0
 15 23  1  0
 23 24  1  0
  9 25  1  0
 25 26  1  0
 26 27  2  0
  4 28  2  0
 28 29  1  0
 29 30  2  0
 30  2  1  0
 26  6  1  0
 23 11  2  0
 22 17  1  0
  1 31  1  0
  1 32  1  0
  1 33  1  0
  3 34  1  0
  5 35  1  0
  5 36  1  0
  7 37  1  0
  8 38  1  0
 10 39  1  0
 10 40  1  0
 16 41  1  0
 16 42  1  0
 18 43  1  0
 19 44  1  0
 20 45  1  0
 21 46  1  0
 22 47  1  0
 24 48  1  0
 28 49  1  0
 29 50  1  0
M  CHG  2  12  -1  25  -1
M  END
>  <UniqueID>  (46) 
42

>  <SMILES>  (46) 
Cc1cc(Cc2ccc(Cc3[n-]c(=O)n(Cc4ccccc4)c3O)[n-]c2=O)ccn1

>  <Energy>  (46) 
81.21820833958152

>  <Genealogy>  (46) 
Cc1cc(Cc2ccc(Cc3[n-]c(=O)n(Cc4ccccc4)c3O)[n-]c2=O)ccn1 (protonated)
Cc1cc(Cc2ccc(Cc3[n-]c(=O)n(Cc4ccccc4)c3O)[n-]c2=O)ccn1 (3D coordinates assigned)
Cc1cc(Cc2ccc(Cc3[n-]c(=O)n(Cc4ccccc4)c3O)[n-]c2=O)ccn1 (optimized conformer: 81.21820833958152 kcal/mol)

>  <smiles>  (46) 
Cc1cc(Cc2ccc(Cc3[nH]c(=O)n(Cc4ccccc4)c3O)[nH]c2=O)ccn1

>  <score_type>  (46) 
oracle

>  <origin>  (46) 
adg

>  <m_score__min__energy>  (46) 
-13.42

>  <m_primary>  (46) 
energy

$$$$
46:0
     RDKit          3D

 55 58  0  0  0  0  0  0  0  0999 V2000
   60.9700   33.4000   50.8270 C   0  0  0  0  0  0  0  0  0  0  0  0
   61.8650   33.3590   49.6150 C   0  0  0  0  0  0  0  0  0  0  0  0
   63.1280   32.7480   49.7190 C   0  0  0  0  0  0  0  0  0  0  0  0
   63.9800   32.6860   48.6150 C   0  0  0  0  0  0  0  0  0  0  0  0
   63.5830   33.2280   47.3940 C   0  0  0  0  0  0  0  0  0  0  0  0
   62.3280   33.8260   47.2680 C   0  0  0  0  0  0  0  0  0  0  0  0
   61.4480   33.8810   48.3630 C   0  0  0  0  0  0  0  0  0  0  0  0
   60.1060   34.5440   48.1870 C   0  0  0  0  0  0  0  0  0  0  0  0
   60.0640   35.2150   46.8930 N   0  0  0  0  0  0  0  0  0  0  0  0
   59.3550   34.7330   45.7450 C   0  0  0  0  0  0  0  0  0  0  0  0
   58.9620   35.5630   44.8840 O   0  0  0  0  0  0  0  0  0  0  0  0
   59.0910   33.2980   45.5310 C   0  0  0  0  0  0  0  0  0  0  0  0
   59.6990   32.3420   46.3590 C   0  0  0  0  0  0  0  0  0  0  0  0
   59.4700   30.9790   46.1520 C   0  0  0  0  0  0  0  0  0  0  0  0
   58.6270   30.5490   45.1120 C   0  0  0  0  0  0  0  0  0  0  0  0
   58.3930   29.1520   44.8620 N   0  0  0  0  0  0  0  0  0  0  0  0
   57.1300   28.4990   45.0790 C   0  0  0  0  0  0  0  0  0  0  0  0
   56.0860   29.1840   45.2560 O   0  0  0  0  0  0  0  0  0  0  0  0
   57.0370   27.0650   45.0630 N   0  0  0  0  0  0  0  0  0  0  0  0
   56.1930   26.2790   45.9650 C   0  0  0  0  0  0  0  0  0  0  0  0
   56.4210   24.8880   45.5080 C   0  0  0  0  0  0  0  0  0  0  0  0
   55.8530   23.7180   46.0120 C   0  0  0  0  0  0  0  0  0  0  0  0
   56.2040   22.4930   45.4200 C   0  0  0  0  0  0  0  0  0  0  0  0
   57.1200   22.4520   44.3450 C   0  0  0  0  0  0  0  0  0  0  0  0
   57.4620   21.1420   43.6950 C   0  0  0  0  0  0  0  0  0  0  0  0
   56.2840   20.4280   43.4470 O   0  0  0  0  0  0  0  0  0  0  0  0
   57.6660   23.6530   43.8480 C   0  0  0  0  0  0  0  0  0  0  0  0
   57.3050   24.8560   44.4550 C   0  0  0  0  0  0  0  0  0  0  0  0
   57.7540   26.2250   44.1020 C   0  0  0  0  0  0  0  0  0  0  0  0
   58.0580   31.5050   44.2560 C   0  0  0  0  0  0  0  0  0  0  0  0
   58.2870   32.8680   44.4630 C   0  0  0  0  0  0  0  0  0  0  0  0
   61.5854   33.3718   51.7383 H   0  0  0  0  0  0  0  0  0  0  0  0
   60.3768   34.3263   50.8136 H   0  0  0  0  0  0  0  0  0  0  0  0
   60.2946   32.5319   50.8136 H   0  0  0  0  0  0  0  0  0  0  0  0
   63.4469   32.3153   50.6787 H   0  0  0  0  0  0  0  0  0  0  0  0
   64.9665   32.2085   48.7089 H   0  0  0  0  0  0  0  0  0  0  0  0
   64.2598   33.1845   46.5280 H   0  0  0  0  0  0  0  0  0  0  0  0
   62.0248   34.2582   46.3030 H   0  0  0  0  0  0  0  0  0  0  0  0
   59.3122   33.7838   48.2323 H   0  0  0  0  0  0  0  0  0  0  0  0
   59.9521   35.2813   48.9887 H   0  0  0  0  0  0  0  0  0  0  0  0
   60.3599   32.6674   47.1759 H   0  0  0  0  0  0  0  0  0  0  0  0
   59.9522   30.2381   46.8066 H   0  0  0  0  0  0  0  0  0  0  0  0
   59.1600   28.6090   44.4070 H   0  0  0  0  0  0  0  0  0  0  0  0
   56.5061   26.4075   47.0116 H   0  0  0  0  0  0  0  0  0  0  0  0
   55.1343   26.5763   45.9368 H   0  0  0  0  0  0  0  0  0  0  0  0
   55.1461   23.7535   46.8541 H   0  0  0  0  0  0  0  0  0  0  0  0
   55.7622   21.5586   45.7964 H   0  0  0  0  0  0  0  0  0  0  0  0
   57.9857   21.3283   42.7458 H   0  0  0  0  0  0  0  0  0  0  0  0
   58.1135   20.5583   44.3620 H   0  0  0  0  0  0  0  0  0  0  0  0
   56.5450   19.4700   43.4270 H   0  0  0  0  0  0  0  0  0  0  0  0
   58.3636   23.6417   42.9976 H   0  0  0  0  0  0  0  0  0  0  0  0
   58.8426   26.3274   44.2225 H   0  0  0  0  0  0  0  0  0  0  0  0
   57.5484   26.4921   43.0549 H   0  0  0  0  0  0  0  0  0  0  0  0
   57.4271   31.1789   43.4160 H   0  0  0  0  0  0  0  0  0  0  0  0
   57.8351   33.6078   43.7859 H   0  0  0  0  0  0  0  0  0  0  0  0
  1  2  1  0
  2  3  2  0
  3  4  1  0
  4  5  2  0
  5  6  1  0
  6  7  2  0
  7  8  1  0
  8  9  1  0
  9 10  1  0
 10 11  2  0
 10 12  1  0
 12 13  2  0
 13 14  1  0
 14 15  2  0
 15 16  1  0
 16 17  1  0
 17 18  2  0
 17 19  1  0
 19 20  1  0
 20 21  1  0
 21 22  2  0
 22 23  1  0
 23 24  2  0
 24 25  1  0
 25 26  1  0
 24 27  1  0
 27 28  2  0
 28 29  1  0
 15 30  1  0
 30 31  2  0
  7  2  1  0
 31 12  1  0
 29 19  1  0
 28 21  1  0
  1 32  1  0
  1 33  1  0
  1 34  1  0
  3 35  1  0
  4 36  1  0
  5 37  1  0
  6 38  1  0
  8 39  1  0
  8 40  1  0
 13 41  1  0
 14 42  1  0
 16 43  1  0
 20 44  1  0
 20 45  1  0
 22 46  1  0
 23 47  1  0
 25 48  1  0
 25 49  1  0
 26 50  1  0
 27 51  1  0
 29 52  1  0
 29 53  1  0
 30 54  1  0
 31 55  1  0
M  CHG  1   9  -1
M  END
>  <UniqueID>  (47) 
43

>  <SMILES>  (47) 
Cc1ccccc1C[N-]C(=O)c1ccc(NC(=O)N2Cc3ccc(CO)cc3C2)cc1

>  <Energy>  (47) 
74.71368311066581

>  <Genealogy>  (47) 
Cc1ccccc1C[N-]C(=O)c1ccc(NC(=O)N2Cc3ccc(CO)cc3C2)cc1 (protonated)
Cc1ccccc1C[N-]C(=O)c1ccc(NC(=O)N2Cc3ccc(CO)cc3C2)cc1 (3D coordinates assigned)
Cc1ccccc1C[N-]C(=O)c1ccc(NC(=O)N2Cc3ccc(CO)cc3C2)cc1 (nonaromatic ring conformer: 74.71368311066581 kcal/mol)

>  <smiles>  (47) 
Cc1ccccc1CNC(=O)c1ccc(NC(=O)N2Cc3ccc(CO)cc3C2)cc1

>  <score_type>  (47) 
oracle

>  <origin>  (47) 
adg

>  <m_score__min__energy>  (47) 
-10.08

>  <m_primary>  (47) 
energy

$$$$
47:0
     RDKit          3D

 77 81  0  0  0  0  0  0  0  0999 V2000
   61.7530   31.9420   50.0620 C   0  0  0  0  0  0  0  0  0  0  0  0
   62.3760   31.8180   48.7320 N   0  0  0  0  0  0  0  0  0  0  0  0
   62.6170   33.1360   48.1090 C   0  0  0  0  0  0  0  0  0  0  0  0
   61.3130   33.8300   47.6560 C   0  0  0  0  0  0  0  0  0  0  0  0
   60.1930   32.8800   47.5180 N   0  0  0  0  0  0  0  0  0  0  0  0
   58.9260   33.5970   46.5550 S   0  0  0  0  0  0  0  0  0  0  0  0
   58.9390   35.0880   46.7380 O   0  0  0  0  0  0  0  0  0  0  0  0
   57.5920   33.0450   46.9790 O   0  0  0  0  0  0  0  0  0  0  0  0
   59.2000   33.2170   44.8860 N   0  0  0  0  0  0  0  0  0  0  0  0
   58.4040   32.3070   44.1180 C   0  0  0  0  0  0  0  0  0  0  0  0
   58.1460   32.5210   42.7540 C   0  0  0  0  0  0  0  0  0  0  0  0
   57.3510   31.6210   42.0420 C   0  0  0  0  0  0  0  0  0  0  0  0
   56.7830   30.5210   42.6890 C   0  0  0  0  0  0  0  0  0  0  0  0
   57.0180   30.3020   44.0560 C   0  0  0  0  0  0  0  0  0  0  0  0
   56.3190   29.2020   44.7500 C   0  0  0  0  0  0  0  0  0  0  0  0
   55.1390   29.3720   45.1630 O   0  0  0  0  0  0  0  0  0  0  0  0
   57.0090   27.9760   45.0340 N   0  0  0  0  0  0  0  0  0  0  0  0
   57.4530   27.5910   46.3740 C   0  0  2  0  0  0  0  0  0  0  0  0
   58.9720   27.8010   46.5600 C   0  0  0  0  0  0  0  0  0  0  0  0
   59.3380   28.2080   47.9640 C   0  0  0  0  0  0  0  0  0  0  0  0
   60.4520   27.6370   48.5980 C   0  0  0  0  0  0  0  0  0  0  0  0
   60.8280   28.0590   49.8740 C   0  0  0  0  0  0  0  0  0  0  0  0
   60.1000   29.0570   50.5260 C   0  0  0  0  0  0  0  0  0  0  0  0
   58.9820   29.6450   49.9070 C   0  0  0  0  0  0  0  0  0  0  0  0
   58.2230   30.7180   50.5920 C   0  0  0  0  0  0  0  0  0  0  0  0
   58.6670   32.0740   50.5330 N   0  0  0  0  0  0  0  0  0  0  0  0
   57.1770   30.4440   51.2390 O   0  0  0  0  0  0  0  0  0  0  0  0
   58.6060   29.2100   48.6230 C   0  0  0  0  0  0  0  0  0  0  0  0
   57.1110   26.1500   46.6750 C   0  0  0  0  0  0  0  0  0  0  0  0
   57.9930   25.4370   47.2210 O   0  0  0  0  0  0  0  0  0  0  0  0
   55.9040   25.5050   46.2320 N   0  0  0  0  0  0  0  0  0  0  0  0
   55.5230   24.1000   46.3830 C   0  0  2  0  0  0  0  0  0  0  0  0
   56.4200   23.2800   45.4830 C   0  0  0  0  0  0  0  0  0  0  0  0
   57.7220   22.9470   45.8940 C   0  0  0  0  0  0  0  0  0  0  0  0
   58.5670   22.2310   45.0410 C   0  0  0  0  0  0  0  0  0  0  0  0
   58.1230   21.8470   43.7720 C   0  0  0  0  0  0  0  0  0  0  0  0
   56.8340   22.1820   43.3510 C   0  0  0  0  0  0  0  0  0  0  0  0
   55.9840   22.9050   44.1950 C   0  0  0  0  0  0  0  0  0  0  0  0
   54.6920   23.2270   43.7620 O   0  0  0  0  0  0  0  0  0  0  0  0
   53.8270   24.0790   44.5130 C   0  0  0  0  0  0  0  0  0  0  0  0
   54.0380   23.8680   46.0190 C   0  0  1  0  0  0  0  0  0  0  0  0
   53.6770   22.5550   46.3660 O   0  0  0  0  0  0  0  0  0  0  0  0
   57.8620   31.1830   44.7570 C   0  0  0  0  0  0  0  0  0  0  0  0
   58.1770   30.9490   46.0540 F   0  0  0  0  0  0  0  0  0  0  0  0
   60.6460   31.6280   46.9000 C   0  0  0  0  0  0  0  0  0  0  0  0
   61.6250   30.9000   47.8420 C   0  0  0  0  0  0  0  0  0  0  0  0
   62.5158   31.7902   50.8398 H   0  0  0  0  0  0  0  0  0  0  0  0
   61.3144   32.9451   50.1694 H   0  0  0  0  0  0  0  0  0  0  0  0
   60.9638   31.1833   50.1694 H   0  0  0  0  0  0  0  0  0  0  0  0
   63.1242   33.7830   48.8398 H   0  0  0  0  0  0  0  0  0  0  0  0
   63.2339   32.9717   47.2132 H   0  0  0  0  0  0  0  0  0  0  0  0
   61.0407   34.5924   48.4007 H   0  0  0  0  0  0  0  0  0  0  0  0
   61.4963   34.2803   46.6693 H   0  0  0  0  0  0  0  0  0  0  0  0
   58.5711   33.3992   42.2460 H   0  0  0  0  0  0  0  0  0  0  0  0
   57.1713   31.7786   40.9683 H   0  0  0  0  0  0  0  0  0  0  0  0
   56.1480   29.8224   42.1245 H   0  0  0  0  0  0  0  0  0  0  0  0
   56.9176   28.2453   47.0777 H   0  0  0  0  0  0  0  0  0  0  0  0
   59.4887   26.8598   46.3210 H   0  0  0  0  0  0  0  0  0  0  0  0
   59.2781   28.6167   45.8885 H   0  0  0  0  0  0  0  0  0  0  0  0
   61.0312   26.8537   48.0872 H   0  0  0  0  0  0  0  0  0  0  0  0
   61.6998   27.6046   50.3675 H   0  0  0  0  0  0  0  0  0  0  0  0
   60.4032   29.3856   51.5310 H   0  0  0  0  0  0  0  0  0  0  0  0
   58.4550   32.7420   51.3050 H   0  0  0  0  0  0  0  0  0  0  0  0
   57.7307   29.6586   48.1304 H   0  0  0  0  0  0  0  0  0  0  0  0
   55.6432   23.7986   47.4340 H   0  0  0  0  0  0  0  0  0  0  0  0
   58.0772   23.2506   46.8898 H   0  0  0  0  0  0  0  0  0  0  0  0
   59.5838   21.9691   45.3690 H   0  0  0  0  0  0  0  0  0  0  0  0
   58.7893   21.2807   43.1047 H   0  0  0  0  0  0  0  0  0  0  0  0
   56.4862   21.8765   42.3531 H   0  0  0  0  0  0  0  0  0  0  0  0
   54.0435   25.1276   44.2607 H   0  0  0  0  0  0  0  0  0  0  0  0
   52.7838   23.8360   44.2628 H   0  0  0  0  0  0  0  0  0  0  0  0
   53.4115   24.5841   46.5710 H   0  0  0  0  0  0  0  0  0  0  0  0
   53.9290   21.9720   45.6020 H   0  0  0  0  0  0  0  0  0  0  0  0
   59.7771   30.9816   46.7072 H   0  0  0  0  0  0  0  0  0  0  0  0
   61.1578   31.8567   45.9535 H   0  0  0  0  0  0  0  0  0  0  0  0
   61.0520   30.1992   48.4669 H   0  0  0  0  0  0  0  0  0  0  0  0
   62.3625   30.3843   47.2095 H   0  0  0  0  0  0  0  0  0  0  0  0
  1  2  1  0
  2  3  1  0
  3  4  1  0
  4  5  1  0
  5  6  1  0
  6  7  2  0
  6  8  2  0
  6  9  1  0
  9 10  1  0
 10 11  2  0
 11 12  1  0
 12 13  2  0
 13 14  1  0
 14 15  1  0
 15 16  2  0
 15 17  1  0
 17 18  1  0
 18 19  1  0
 19 20  1  0
 20 21  2  0
 21 22  1  0
 22 23  2  0
 23 24  1  0
 24 25  1  0
 25 26  1  0
 25 27  2  0
 24 28  2  0
 18 29  1  0
 29 30  2  0
 29 31  1  0
 31 32  1  0
 32 33  1  0
 33 34  2  0
 34 35  1  0
 35 36  2  0
 36 37  1  0
 37 38  2  0
 38 39  1  0
 39 40  1  0
 40 41  1  0
 41 42  1  0
 14 43  2  0
 43 44  1  0
  5 45  1  0
 45 46  1  0
 46  2  1  0
 43 10  1  0
 28 20  1  0
 41 32  1  0
 38 33  1  0
  1 47  1  0
  1 48  1  0
  1 49  1  0
  3 50  1  0
  3 51  1  0
  4 52  1  0
  4 53  1  0
 11 54  1  0
 12 55  1  0
 13 56  1  0
 18 57  1  1
 19 58  1  0
 19 59  1  0
 21 60  1  0
 22 61  1  0
 23 62  1  0
 26 63  1  0
 28 64  1  0
 32 65  1  1
 34 66  1  0
 35 67  1  0
 36 68  1  0
 37 69  1  0
 40 70  1  0
 40 71  1  0
 41 72  1  1
 42 73  1  0
 45 74  1  0
 45 75  1  0
 46 76  1  0
 46 77  1  0
M  CHG  4   9  -1  17  -1  26  -1  31  -1
M  END
>  <UniqueID>  (48) 
44

>  <SMILES>  (48) 
CN1CCN(S(=O)(=O)[N-]c2cccc(C(=O)[N-][C@H](Cc3cccc(C([NH-])=O)c3)C(=O)[N-][C@@H]3c4ccccc4OCC3O)c2F)CC1

>  <Energy>  (48) 
95.30285909602586

>  <Genealogy>  (48) 
CN1CCN(S(=O)(=O)[N-]c2cccc(C(=O)[N-]C(Cc3cccc(C([NH-])=O)c3)C(=O)[N-]C3c4ccccc4OCC3O)c2F)CC1 (protonated)
CN1CCN(S(=O)(=O)[N-]c2cccc(C(=O)[N-][C@H](Cc3cccc(C([NH-])=O)c3)C(=O)[N-][C@@H]3c4ccccc4OCC3O)c2F)CC1 (chirality)
CN1CCN(S(=O)(=O)[N-]c2cccc(C(=O)[N-][C@H](Cc3cccc(C([NH-])=O)c3)C(=O)[N-][C@@H]3c4ccccc4OCC3O)c2F)CC1 (3D coordinates assigned)
CN1CCN(S(=O)(=O)[N-]c2cccc(C(=O)[N-][C@H](Cc3cccc(C([NH-])=O)c3)C(=O)[N-][C@@H]3c4ccccc4OCC3O)c2F)CC1 (nonaromatic ring conformer: 95.30285909602586 kcal/mol)

>  <smiles>  (48) 
CN1CCN(S(=O)(=O)Nc2cccc(C(=O)NC(Cc3cccc(C(N)=O)c3)C(=O)NC3c4ccccc4OCC3O)c2F)CC1

>  <score_type>  (48) 
oracle

>  <origin>  (48) 
adg

>  <m_score__min__energy>  (48) 
-15.76

>  <m_primary>  (48) 
energy

$$$$
48:0
     RDKit          3D

 59 62  0  0  0  0  0  0  0  0999 V2000
   56.2960   29.7590   45.2260 O   0  0  0  0  0  0  0  0  0  0  0  0
   57.3610   30.2110   44.7230 C   0  0  0  0  0  0  0  0  0  0  0  0
   58.1270   29.3880   43.8280 N   0  0  0  0  0  0  0  0  0  0  0  0
   57.8900   27.9540   43.6920 C   0  0  0  0  0  0  0  0  0  0  0  0
   58.0760   27.2720   45.0190 C   0  0  0  0  0  0  0  0  0  0  0  0
   59.2880   27.3900   45.7210 C   0  0  0  0  0  0  0  0  0  0  0  0
   59.4630   26.7230   46.9380 C   0  0  0  0  0  0  0  0  0  0  0  0
   58.4360   25.9330   47.4580 C   0  0  0  0  0  0  0  0  0  0  0  0
   57.2300   25.8060   46.7620 C   0  0  0  0  0  0  0  0  0  0  0  0
   56.2360   25.0330   47.2680 F   0  0  0  0  0  0  0  0  0  0  0  0
   57.0500   26.4690   45.5450 C   0  0  0  0  0  0  0  0  0  0  0  0
   57.7930   31.5890   45.0510 C   0  0  0  0  0  0  0  0  0  0  0  0
   57.4150   32.6610   44.2260 C   0  0  0  0  0  0  0  0  0  0  0  0
   57.8210   33.9630   44.5250 C   0  0  0  0  0  0  0  0  0  0  0  0
   58.6030   34.2130   45.6550 C   0  0  0  0  0  0  0  0  0  0  0  0
   58.9770   33.1580   46.4980 C   0  0  0  0  0  0  0  0  0  0  0  0
   59.9640   33.4690   47.9280 S   0  0  0  0  0  0  0  0  0  0  0  0
   60.3660   34.9170   47.9430 O   0  0  0  0  0  0  0  0  0  0  0  0
   61.2170   32.6400   47.8570 O   0  0  0  0  0  0  0  0  0  0  0  0
   59.1040   33.0910   49.4000 N   0  0  0  0  0  0  0  0  0  0  0  0
   59.0620   31.6350   49.6090 C   0  0  0  0  0  0  0  0  0  0  0  0
   58.2050   31.2940   50.8470 C   0  0  0  0  0  0  0  0  0  0  0  0
   57.9090   32.5050   51.6390 N   0  0  0  0  0  0  0  0  0  0  0  0
   57.1270   32.2280   52.8640 C   0  0  0  0  0  0  0  0  0  0  0  0
   56.1580   31.0710   52.7300 C   0  0  0  0  0  0  0  0  0  0  0  0
   56.4300   29.8390   53.3470 C   0  0  0  0  0  0  0  0  0  0  0  0
   55.5350   28.7720   53.2190 C   0  0  0  0  0  0  0  0  0  0  0  0
   54.3590   28.9290   52.4800 C   0  0  0  0  0  0  0  0  0  0  0  0
   54.0740   30.1540   51.8720 C   0  0  0  0  0  0  0  0  0  0  0  0
   54.9670   31.2230   51.9990 C   0  0  0  0  0  0  0  0  0  0  0  0
   59.1290   33.2930   51.8860 C   0  0  0  0  0  0  0  0  0  0  0  0
   59.7410   33.7630   50.5490 C   0  0  0  0  0  0  0  0  0  0  0  0
   58.5660   31.8520   46.1980 C   0  0  0  0  0  0  0  0  0  0  0  0
   58.8660   29.8210   43.2280 H   0  0  0  0  0  0  0  0  0  0  0  0
   56.8620   27.7870   43.3379 H   0  0  0  0  0  0  0  0  0  0  0  0
   58.6069   27.5373   42.9692 H   0  0  0  0  0  0  0  0  0  0  0  0
   60.1008   28.0083   45.3124 H   0  0  0  0  0  0  0  0  0  0  0  0
   60.4115   26.8211   47.4864 H   0  0  0  0  0  0  0  0  0  0  0  0
   58.5757   25.4102   48.4157 H   0  0  0  0  0  0  0  0  0  0  0  0
   56.1021   26.3619   44.9972 H   0  0  0  0  0  0  0  0  0  0  0  0
   56.7943   32.4734   43.3375 H   0  0  0  0  0  0  0  0  0  0  0  0
   57.5241   34.7943   43.8687 H   0  0  0  0  0  0  0  0  0  0  0  0
   58.9257   35.2395   45.8835 H   0  0  0  0  0  0  0  0  0  0  0  0
   58.6247   31.1539   48.7217 H   0  0  0  0  0  0  0  0  0  0  0  0
   60.0861   31.2680   49.7717 H   0  0  0  0  0  0  0  0  0  0  0  0
   57.2588   30.8415   50.5153 H   0  0  0  0  0  0  0  0  0  0  0  0
   58.7685   30.5922   51.4794 H   0  0  0  0  0  0  0  0  0  0  0  0
   57.8300   31.9975   53.6780 H   0  0  0  0  0  0  0  0  0  0  0  0
   56.5239   33.1256   53.0655 H   0  0  0  0  0  0  0  0  0  0  0  0
   57.3517   29.7127   53.9339 H   0  0  0  0  0  0  0  0  0  0  0  0
   55.7568   27.8081   53.7004 H   0  0  0  0  0  0  0  0  0  0  0  0
   53.6578   28.0878   52.3772 H   0  0  0  0  0  0  0  0  0  0  0  0
   53.1469   30.2779   51.2931 H   0  0  0  0  0  0  0  0  0  0  0  0
   54.7360   32.1880   51.5242 H   0  0  0  0  0  0  0  0  0  0  0  0
   58.8764   34.1712   52.4984 H   0  0  0  0  0  0  0  0  0  0  0  0
   59.8611   32.6643   52.4141 H   0  0  0  0  0  0  0  0  0  0  0  0
   59.5985   34.8494   50.4524 H   0  0  0  0  0  0  0  0  0  0  0  0
   60.8111   33.5084   50.5494 H   0  0  0  0  0  0  0  0  0  0  0  0
   58.8501   31.0247   46.8650 H   0  0  0  0  0  0  0  0  0  0  0  0
  1  2  2  0
  2  3  1  0
  3  4  1  0
  4  5  1  0
  5  6  2  0
  6  7  1  0
  7  8  2  0
  8  9  1  0
  9 10  1  0
  9 11  2  0
  2 12  1  0
 12 13  2  0
 13 14  1  0
 14 15  2  0
 15 16  1  0
 16 17  1  0
 17 18  2  0
 17 19  2  0
 17 20  1  0
 20 21  1  0
 21 22  1  0
 22 23  1  0
 23 24  1  0
 24 25  1  0
 25 26  2  0
 26 27  1  0
 27 28  2  0
 28 29  1  0
 29 30  2  0
 23 31  1  0
 31 32  1  0
 16 33  2  0
 11  5  1  0
 33 12  1  0
 32 20  1  0
 30 25  1  0
  3 34  1  0
  4 35  1  0
  4 36  1  0
  6 37  1  0
  7 38  1  0
  8 39  1  0
 11 40  1  0
 13 41  1  0
 14 42  1  0
 15 43  1  0
 21 44  1  0
 21 45  1  0
 22 46  1  0
 22 47  1  0
 24 48  1  0
 24 49  1  0
 26 50  1  0
 27 51  1  0
 28 52  1  0
 29 53  1  0
 30 54  1  0
 31 55  1  0
 31 56  1  0
 32 57  1  0
 32 58  1  0
 33 59  1  0
M  END
>  <UniqueID>  (49) 
45

>  <SMILES>  (49) 
O=C(NCc1cccc(F)c1)c1cccc(S(=O)(=O)N2CCN(Cc3ccccc3)CC2)c1

>  <Energy>  (49) 
70.69493961971229

>  <Genealogy>  (49) 
O=C(NCc1cccc(F)c1)c1cccc(S(=O)(=O)N2CCN(Cc3ccccc3)CC2)c1 (3D coordinates assigned)
O=C(NCc1cccc(F)c1)c1cccc(S(=O)(=O)N2CCN(Cc3ccccc3)CC2)c1 (nonaromatic ring conformer: 70.69493961971229 kcal/mol)

>  <smiles>  (49) 
O=C(NCc1cccc(F)c1)c1cccc(S(=O)(=O)N2CCN(Cc3ccccc3)CC2)c1

>  <score_type>  (49) 
oracle

>  <origin>  (49) 
adg

>  <m_score__min__energy>  (49) 
-9.8699999999999992

>  <m_primary>  (49) 
energy

$$$$
49:0
     RDKit          3D

 54 56  0  0  0  0  0  0  0  0999 V2000
   60.4880   30.0450   47.1850 C   0  0  0  0  0  0  0  0  0  0  0  0
   59.2750   29.4500   46.7360 O   0  0  0  0  0  0  0  0  0  0  0  0
   58.4970   29.9330   45.6700 C   0  0  0  0  0  0  0  0  0  0  0  0
   58.4430   31.3040   45.3480 C   0  0  0  0  0  0  0  0  0  0  0  0
   57.6730   31.7520   44.2630 C   0  0  0  0  0  0  0  0  0  0  0  0
   57.6480   33.2160   43.9060 C   0  0  0  0  0  0  0  0  0  0  0  0
   57.7040   34.0780   45.1410 C   0  0  0  0  0  0  0  0  0  0  0  0
   56.6300   34.4970   45.6510 O   0  0  0  0  0  0  0  0  0  0  0  0
   58.9870   34.3730   45.8130 C   0  0  0  0  0  0  0  0  0  0  0  0
   59.6650   35.3770   45.4570 O   0  0  0  0  0  0  0  0  0  0  0  0
   59.4470   33.5350   46.8870 N   0  0  0  0  0  0  0  0  0  0  0  0
   60.7880   33.5610   47.4090 C   0  0  0  0  0  0  0  0  0  0  0  0
   60.9860   33.5250   48.7970 C   0  0  0  0  0  0  0  0  0  0  0  0
   62.2780   33.5160   49.3290 C   0  0  0  0  0  0  0  0  0  0  0  0
   63.3900   33.5270   48.4790 C   0  0  0  0  0  0  0  0  0  0  0  0
   64.7120   33.5070   49.0230 N   0  0  0  0  0  0  0  0  0  0  0  0
   63.1990   33.5400   47.0910 C   0  0  0  0  0  0  0  0  0  0  0  0
   61.9070   33.5510   46.5580 C   0  0  0  0  0  0  0  0  0  0  0  0
   56.9750   30.8220   43.4820 C   0  0  0  0  0  0  0  0  0  0  0  0
   57.0200   29.4640   43.7980 C   0  0  0  0  0  0  0  0  0  0  0  0
   57.7680   29.0120   44.8940 C   0  0  0  0  0  0  0  0  0  0  0  0
   57.7960   27.6080   45.2090 N   0  0  0  0  0  0  0  0  0  0  0  0
   58.9030   26.7720   44.7220 C   0  0  0  0  0  0  0  0  0  0  0  0
   60.0620   26.6510   45.7380 C   0  0  0  0  0  0  0  0  0  0  0  0
   59.7100   25.9880   47.0820 C   0  0  0  0  0  0  0  0  0  0  0  0
   58.5200   26.6300   47.8220 C   0  0  0  0  0  0  0  0  0  0  0  0
   57.1260   26.2610   47.2770 C   0  0  0  0  0  0  0  0  0  0  0  0
   56.7650   27.0320   46.0380 C   0  0  0  0  0  0  0  0  0  0  0  0
   55.5490   27.1840   45.7380 O   0  0  0  0  0  0  0  0  0  0  0  0
   60.5067   30.0542   48.2848 H   0  0  0  0  0  0  0  0  0  0  0  0
   61.3428   29.4639   46.8086 H   0  0  0  0  0  0  0  0  0  0  0  0
   60.5517   31.0766   46.8086 H   0  0  0  0  0  0  0  0  0  0  0  0
   59.0088   32.0289   45.9517 H   0  0  0  0  0  0  0  0  0  0  0  0
   58.5149   33.4450   43.2687 H   0  0  0  0  0  0  0  0  0  0  0  0
   56.7091   33.4293   43.3740 H   0  0  0  0  0  0  0  0  0  0  0  0
   58.7490   32.9290   47.3730 H   0  0  0  0  0  0  0  0  0  0  0  0
   60.1176   33.5037   49.4719 H   0  0  0  0  0  0  0  0  0  0  0  0
   62.4217   33.5002   50.4195 H   0  0  0  0  0  0  0  0  0  0  0  0
   65.5130   33.1430   48.4620 H   0  0  0  0  0  0  0  0  0  0  0  0
   64.8970   33.8490   49.9900 H   0  0  0  0  0  0  0  0  0  0  0  0
   64.0693   33.5416   46.4182 H   0  0  0  0  0  0  0  0  0  0  0  0
   61.7650   33.5518   45.4672 H   0  0  0  0  0  0  0  0  0  0  0  0
   56.3891   31.1638   42.6161 H   0  0  0  0  0  0  0  0  0  0  0  0
   56.4639   28.7419   43.1821 H   0  0  0  0  0  0  0  0  0  0  0  0
   58.5149   25.7645   44.5116 H   0  0  0  0  0  0  0  0  0  0  0  0
   59.3063   27.2540   43.8192 H   0  0  0  0  0  0  0  0  0  0  0  0
   60.8613   26.0586   45.2688 H   0  0  0  0  0  0  0  0  0  0  0  0
   60.3536   27.6832   45.9820 H   0  0  0  0  0  0  0  0  0  0  0  0
   59.4659   24.9327   46.8905 H   0  0  0  0  0  0  0  0  0  0  0  0
   60.5877   26.1167   47.7324 H   0  0  0  0  0  0  0  0  0  0  0  0
   58.5664   26.3168   48.8754 H   0  0  0  0  0  0  0  0  0  0  0  0
   58.6239   27.7157   47.6788 H   0  0  0  0  0  0  0  0  0  0  0  0
   57.1140   25.1871   47.0392 H   0  0  0  0  0  0  0  0  0  0  0  0
   56.3882   26.5140   48.0527 H   0  0  0  0  0  0  0  0  0  0  0  0
  1  2  1  0
  2  3  1  0
  3  4  2  0
  4  5  1  0
  5  6  1  0
  6  7  1  0
  7  8  2  0
  7  9  1  0
  9 10  2  0
  9 11  1  0
 11 12  1  0
 12 13  2  0
 13 14  1  0
 14 15  2  0
 15 16  1  0
 15 17  1  0
 17 18  2  0
  5 19  2  0
 19 20  1  0
 20 21  2  0
 21 22  1  0
 22 23  1  0
 23 24  1  0
 24 25  1  0
 25 26  1  0
 26 27  1  0
 27 28  1  0
 28 29  2  0
 21  3  1  0
 28 22  1  0
 18 12  1  0
  1 30  1  0
  1 31  1  0
  1 32  1  0
  4 33  1  0
  6 34  1  0
  6 35  1  0
 11 36  1  0
 13 37  1  0
 14 38  1  0
 16 39  1  0
 16 40  1  0
 17 41  1  0
 18 42  1  0
 19 43  1  0
 20 44  1  0
 23 45  1  0
 23 46  1  0
 24 47  1  0
 24 48  1  0
 25 49  1  0
 25 50  1  0
 26 51  1  0
 26 52  1  0
 27 53  1  0
 27 54  1  0
M  END
>  <UniqueID>  (50) 
46

>  <SMILES>  (50) 
COc1cc(CC(=O)C(=O)Nc2ccc(N)cc2)ccc1N1CCCCCC1=O

>  <Energy>  (50) 
66.4819158691168

>  <Genealogy>  (50) 
COc1cc(CC(=O)C(=O)Nc2ccc(N)cc2)ccc1N1CCCCCC1=O (3D coordinates assigned)
COc1cc(CC(=O)C(=O)Nc2ccc(N)cc2)ccc1N1CCCCCC1=O (nonaromatic ring conformer: 66.4819158691168 kcal/mol)

>  <smiles>  (50) 
COc1cc(CC(=O)C(=O)Nc2ccc(N)cc2)ccc1N1CCCCCC1=O

>  <score_type>  (50) 
oracle

>  <origin>  (50) 
adg

>  <m_score__min__energy>  (50) 
-6.2199999999999998

>  <m_primary>  (50) 
energy

$$$$
50:0
     RDKit          3D

 36 36  0  0  0  0  0  0  0  0999 V2000
   57.5370   31.9530   44.7810 C   0  0  0  0  0  0  0  0  0  0  0  0
   56.3070   31.2630   44.7980 O   0  0  0  0  0  0  0  0  0  0  0  0
   56.3660   30.1800   43.8920 C   0  0  0  0  0  0  0  0  0  0  0  0
   57.0250   28.9670   44.5620 C   0  0  2  0  0  0  0  0  0  0  0  0
   57.7580   28.1030   43.5280 C   0  0  0  0  0  0  0  0  0  0  0  0
   56.0020   28.1780   45.2460 N   0  0  0  0  0  0  0  0  0  0  0  0
   56.1830   26.8970   45.8670 C   0  0  0  0  0  0  0  0  0  0  0  0
   55.1620   26.2070   46.1290 O   0  0  0  0  0  0  0  0  0  0  0  0
   57.5290   26.3770   46.2840 C   0  0  0  0  0  0  0  0  0  0  0  0
   58.0390   27.1820   47.3450 O   0  0  0  0  0  0  0  0  0  0  0  0
   58.9260   28.2550   47.1710 C   0  0  0  0  0  0  0  0  0  0  0  0
   58.8520   29.3290   48.0640 C   0  0  0  0  0  0  0  0  0  0  0  0
   59.7140   30.4220   47.9340 C   0  0  0  0  0  0  0  0  0  0  0  0
   60.6640   30.4590   46.9070 C   0  0  0  0  0  0  0  0  0  0  0  0
   61.5060   31.5780   46.8180 O   0  0  0  0  0  0  0  0  0  0  0  0
   62.7380   31.7130   47.5200 C   0  0  0  0  0  0  0  0  0  0  0  0
   60.7420   29.3810   46.0050 C   0  0  0  0  0  0  0  0  0  0  0  0
   59.8800   28.2880   46.1360 C   0  0  0  0  0  0  0  0  0  0  0  0
   57.8677   32.1385   45.8136 H   0  0  0  0  0  0  0  0  0  0  0  0
   58.2907   31.3460   44.2581 H   0  0  0  0  0  0  0  0  0  0  0  0
   57.4119   32.9126   44.2581 H   0  0  0  0  0  0  0  0  0  0  0  0
   55.3463   29.9126   43.5778 H   0  0  0  0  0  0  0  0  0  0  0  0
   56.9623   30.4755   43.0162 H   0  0  0  0  0  0  0  0  0  0  0  0
   57.7660   29.3224   45.2932 H   0  0  0  0  0  0  0  0  0  0  0  0
   58.3855   27.3634   44.0469 H   0  0  0  0  0  0  0  0  0  0  0  0
   57.0222   27.5820   42.8978 H   0  0  0  0  0  0  0  0  0  0  0  0
   58.3920   28.7441   42.8978 H   0  0  0  0  0  0  0  0  0  0  0  0
   57.4304   25.3366   46.6273 H   0  0  0  0  0  0  0  0  0  0  0  0
   58.2194   26.4156   45.4285 H   0  0  0  0  0  0  0  0  0  0  0  0
   58.1094   29.3135   48.8753 H   0  0  0  0  0  0  0  0  0  0  0  0
   59.6450   31.2591   48.6442 H   0  0  0  0  0  0  0  0  0  0  0  0
   62.5471   31.6921   48.6031 H   0  0  0  0  0  0  0  0  0  0  0  0
   63.4070   30.8828   47.2495 H   0  0  0  0  0  0  0  0  0  0  0  0
   63.2114   32.6684   47.2495 H   0  0  0  0  0  0  0  0  0  0  0  0
   61.4844   29.3987   45.1935 H   0  0  0  0  0  0  0  0  0  0  0  0
   59.9475   27.4497   45.4270 H   0  0  0  0  0  0  0  0  0  0  0  0
  1  2  1  0
  2  3  1  0
  3  4  1  0
  4  5  1  0
  4  6  1  0
  6  7  1  0
  7  8  2  0
  7  9  1  0
  9 10  1  0
 10 11  1  0
 11 12  2  0
 12 13  1  0
 13 14  2  0
 14 15  1  0
 15 16  1  0
 14 17  1  0
 17 18  2  0
 18 11  1  0
  1 19  1  0
  1 20  1  0
  1 21  1  0
  3 22  1  0
  3 23  1  0
  4 24  1  1
  5 25  1  0
  5 26  1  0
  5 27  1  0
  9 28  1  0
  9 29  1  0
 12 30  1  0
 13 31  1  0
 16 32  1  0
 16 33  1  0
 16 34  1  0
 17 35  1  0
 18 36  1  0
M  CHG  1   6  -1
M  END
>  <UniqueID>  (51) 
47

>  <SMILES>  (51) 
COC[C@H](C)[N-]C(=O)COc1ccc(OC)cc1

>  <Energy>  (51) 
28.62552452121379

>  <Genealogy>  (51) 
COCC(C)[N-]C(=O)COc1ccc(OC)cc1 (protonated)
COC[C@H](C)[N-]C(=O)COc1ccc(OC)cc1 (chirality)
COC[C@H](C)[N-]C(=O)COc1ccc(OC)cc1 (3D coordinates assigned)
COC[C@H](C)[N-]C(=O)COc1ccc(OC)cc1 (optimized conformer: 28.62552452121379 kcal/mol)

>  <smiles>  (51) 
COCC(C)NC(=O)COc1ccc(OC)cc1

>  <score_type>  (51) 
oracle

>  <origin>  (51) 
adg

>  <m_score__min__energy>  (51) 
-8.4199999999999999

>  <m_primary>  (51) 
energy

$$$$
51:0
     RDKit          3D

 49 52  0  0  0  0  0  0  0  0999 V2000
   64.8880   34.0780   51.3040 C   0  0  0  0  0  0  0  0  0  0  0  0
   64.7570   33.4870   49.9320 C   0  0  0  0  0  0  0  0  0  0  0  0
   65.7950   33.0370   49.3730 O   0  0  0  0  0  0  0  0  0  0  0  0
   63.4490   33.4260   49.2230 C   0  0  0  0  0  0  0  0  0  0  0  0
   63.2900   32.6770   48.0400 C   0  0  0  0  0  0  0  0  0  0  0  0
   62.0520   32.6280   47.3920 C   0  0  0  0  0  0  0  0  0  0  0  0
   60.9550   33.3300   47.9060 C   0  0  0  0  0  0  0  0  0  0  0  0
   59.3970   33.2650   47.0880 S   0  0  0  0  0  0  0  0  0  0  0  0
   58.6670   34.5540   47.3360 O   0  0  0  0  0  0  0  0  0  0  0  0
   59.5840   33.0870   45.6070 O   0  0  0  0  0  0  0  0  0  0  0  0
   58.4460   31.9470   47.7010 N   0  0  0  0  0  0  0  0  0  0  0  0
   59.0070   30.7180   48.2110 C   0  0  0  0  0  0  0  0  0  0  0  0
   59.8330   30.7000   49.3610 C   0  0  0  0  0  0  0  0  0  0  0  0
   60.3650   29.4920   49.8500 C   0  0  0  0  0  0  0  0  0  0  0  0
   60.0940   28.2750   49.2070 C   0  0  0  0  0  0  0  0  0  0  0  0
   60.7690   26.7780   49.8330 Cl  0  0  0  0  0  0  0  0  0  0  0  0
   59.2830   28.3010   48.0710 C   0  0  0  0  0  0  0  0  0  0  0  0
   58.7510   29.4830   47.5820 C   0  0  0  0  0  0  0  0  0  0  0  0
   57.9720   29.1340   46.3860 C   0  0  0  0  0  0  0  0  0  0  0  0
   57.3540   29.9390   45.6420 O   0  0  0  0  0  0  0  0  0  0  0  0
   58.0170   27.7240   46.1530 N   0  0  0  0  0  0  0  0  0  0  0  0
   57.6770   27.0400   44.9070 C   0  0  0  0  0  0  0  0  0  0  0  0
   57.0610   25.6950   45.1990 C   0  0  0  0  0  0  0  0  0  0  0  0
   57.7780   24.5240   44.8950 C   0  0  0  0  0  0  0  0  0  0  0  0
   57.2090   23.2670   45.1170 C   0  0  0  0  0  0  0  0  0  0  0  0
   55.9160   23.1660   45.6400 C   0  0  0  0  0  0  0  0  0  0  0  0
   55.1930   24.3200   45.9430 C   0  0  0  0  0  0  0  0  0  0  0  0
   55.7560   25.5830   45.7240 C   0  0  0  0  0  0  0  0  0  0  0  0
   55.0140   26.7180   46.0330 O   0  0  0  0  0  0  0  0  0  0  0  0
   58.8490   27.2140   47.1940 C   0  0  0  0  0  0  0  0  0  0  0  0
   59.1590   26.0000   47.3160 O   0  0  0  0  0  0  0  0  0  0  0  0
   61.1000   34.0720   49.0830 C   0  0  0  0  0  0  0  0  0  0  0  0
   62.3350   34.1210   49.7390 C   0  0  0  0  0  0  0  0  0  0  0  0
   64.7147   33.2961   52.0581 H   0  0  0  0  0  0  0  0  0  0  0  0
   65.8996   34.4913   51.4301 H   0  0  0  0  0  0  0  0  0  0  0  0
   64.1458   34.8800   51.4301 H   0  0  0  0  0  0  0  0  0  0  0  0
   64.1464   32.1267   47.6232 H   0  0  0  0  0  0  0  0  0  0  0  0
   61.9392   32.0344   46.4728 H   0  0  0  0  0  0  0  0  0  0  0  0
   57.4150   32.0990   47.7090 H   0  0  0  0  0  0  0  0  0  0  0  0
   60.0620   31.6428   49.8793 H   0  0  0  0  0  0  0  0  0  0  0  0
   61.0011   29.5024   50.7474 H   0  0  0  0  0  0  0  0  0  0  0  0
   56.9596   27.6524   44.3411 H   0  0  0  0  0  0  0  0  0  0  0  0
   58.5943   26.8929   44.3180 H   0  0  0  0  0  0  0  0  0  0  0  0
   58.7938   24.5980   44.4796 H   0  0  0  0  0  0  0  0  0  0  0  0
   57.7787   22.3563   44.8801 H   0  0  0  0  0  0  0  0  0  0  0  0
   55.4687   22.1760   45.8126 H   0  0  0  0  0  0  0  0  0  0  0  0
   54.1767   24.2373   46.3556 H   0  0  0  0  0  0  0  0  0  0  0  0
   60.2393   34.6194   49.4947 H   0  0  0  0  0  0  0  0  0  0  0  0
   62.4381   34.7062   50.6647 H   0  0  0  0  0  0  0  0  0  0  0  0
  1  2  1  0
  2  3  2  0
  2  4  1  0
  4  5  2  0
  5  6  1  0
  6  7  2  0
  7  8  1  0
  8  9  2  0
  8 10  2  0
  8 11  1  0
 11 12  1  0
 12 13  2  0
 13 14  1  0
 14 15  2  0
 15 16  1  0
 15 17  1  0
 17 18  2  0
 18 19  1  0
 19 20  2  0
 19 21  1  0
 21 22  1  0
 22 23  1  0
 23 24  2  0
 24 25  1  0
 25 26  2  0
 26 27  1  0
 27 28  2  0
 28 29  1  0
 21 30  1  0
 30 31  2  0
  7 32  1  0
 32 33  2  0
 33  4  1  0
 18 12  1  0
 28 23  1  0
 30 17  1  0
  1 34  1  0
  1 35  1  0
  1 36  1  0
  5 37  1  0
  6 38  1  0
 11 39  1  0
 13 40  1  0
 14 41  1  0
 22 42  1  0
 22 43  1  0
 24 44  1  0
 25 45  1  0
 26 46  1  0
 27 47  1  0
 32 48  1  0
 33 49  1  0
M  CHG  1  29  -1
M  END
>  <UniqueID>  (52) 
48

>  <SMILES>  (52) 
CC(=O)c1ccc(S(=O)(=O)Nc2ccc(Cl)c3c2C(=O)N(Cc2ccccc2[O-])C3=O)cc1

>  <Energy>  (52) 
89.38451367834458

>  <Genealogy>  (52) 
CC(=O)c1ccc(S(=O)(=O)Nc2ccc(Cl)c3c2C(=O)N(Cc2ccccc2[O-])C3=O)cc1 (protonated)
CC(=O)c1ccc(S(=O)(=O)Nc2ccc(Cl)c3c2C(=O)N(Cc2ccccc2[O-])C3=O)cc1 (3D coordinates assigned)
CC(=O)c1ccc(S(=O)(=O)Nc2ccc(Cl)c3c2C(=O)N(Cc2ccccc2[O-])C3=O)cc1 (nonaromatic ring conformer: 89.38451367834458 kcal/mol)

>  <smiles>  (52) 
CC(=O)c1ccc(S(=O)(=O)Nc2ccc(Cl)c3c2C(=O)N(Cc2ccccc2O)C3=O)cc1

>  <score_type>  (52) 
oracle

>  <origin>  (52) 
adg

>  <m_score__min__energy>  (52) 
-13.43

>  <m_primary>  (52) 
energy

$$$$
52:0
     RDKit          3D

 48 51  0  0  0  0  0  0  0  0999 V2000
   58.9082   29.7763   47.0000 H   0  0  0  0  0  0  0  0  0  0  0  0
   58.2980   29.9530   46.1020 C   0  0  0  0  0  0  0  0  0  0  0  0
   58.4130   31.1620   45.4130 C   0  0  0  0  0  0  0  0  0  0  0  0
   59.1152   31.9305   45.7684 H   0  0  0  0  0  0  0  0  0  0  0  0
   57.6350   31.4010   44.2670 C   0  0  0  0  0  0  0  0  0  0  0  0
   57.7380   32.7170   43.5390 C   0  0  0  0  0  0  0  0  0  0  0  0
   56.7877   33.2611   43.6429 H   0  0  0  0  0  0  0  0  0  0  0  0
   57.9524   32.5157   42.4790 H   0  0  0  0  0  0  0  0  0  0  0  0
   58.8680   33.5710   44.1110 C   0  0  0  0  0  0  0  0  0  0  0  0
   59.1680   34.3238   43.3672 H   0  0  0  0  0  0  0  0  0  0  0  0
   59.7237   32.9232   44.3521 H   0  0  0  0  0  0  0  0  0  0  0  0
   58.4190   34.2440   45.3260 N   0  0  0  0  0  0  0  0  0  0  0  0
   59.2750   34.5670   46.4270 C   0  0  0  0  0  0  0  0  0  0  0  0
   59.6000   35.7700   46.6200 O   0  0  0  0  0  0  0  0  0  0  0  0
   59.8020   33.5480   47.2910 N   0  0  0  0  0  0  0  0  0  0  0  0
   61.0560   33.2110   47.4090 C   0  0  0  0  0  0  0  0  0  0  0  0
   61.4550   31.9890   48.0020 C   0  0  0  0  0  0  0  0  0  0  0  0
   60.7006   31.2899   48.3920 H   0  0  0  0  0  0  0  0  0  0  0  0
   62.8130   31.6780   48.0880 C   0  0  0  0  0  0  0  0  0  0  0  0
   63.1335   30.7276   48.5397 H   0  0  0  0  0  0  0  0  0  0  0  0
   63.7620   32.5750   47.6000 C   0  0  0  0  0  0  0  0  0  0  0  0
   64.8339   32.3352   47.6601 H   0  0  0  0  0  0  0  0  0  0  0  0
   63.3410   33.7810   47.0340 C   0  0  0  0  0  0  0  0  0  0  0  0
   64.0841   34.4960   46.6511 H   0  0  0  0  0  0  0  0  0  0  0  0
   62.0130   34.0740   46.9550 N   0  0  0  0  0  0  0  0  0  0  0  0
   61.7270   34.9820   46.5200 H   0  0  0  0  0  0  0  0  0  0  0  0
   56.7100   30.4320   43.8490 C   0  0  0  0  0  0  0  0  0  0  0  0
   56.0737   30.6250   42.9727 H   0  0  0  0  0  0  0  0  0  0  0  0
   56.5930   29.2220   44.5410 C   0  0  0  0  0  0  0  0  0  0  0  0
   55.8601   28.4706   44.2119 H   0  0  0  0  0  0  0  0  0  0  0  0
   57.4110   28.9630   45.6580 C   0  0  0  0  0  0  0  0  0  0  0  0
   57.3200   27.7350   46.4010 N   0  0  0  0  0  0  0  0  0  0  0  0
   56.7900   26.6180   45.9910 C   0  0  0  0  0  0  0  0  0  0  0  0
   57.5960   25.6720   45.4240 N   0  0  0  0  0  0  0  0  0  0  0  0
   57.0510   24.5190   44.9560 C   0  0  0  0  0  0  0  0  0  0  0  0
   55.7080   24.2850   45.0300 C   0  0  0  0  0  0  0  0  0  0  0  0
   54.8790   25.2500   45.6010 C   0  0  0  0  0  0  0  0  0  0  0  0
   53.6350   25.0700   45.6810 O   0  0  0  0  0  0  0  0  0  0  0  0
   55.4380   26.4000   46.0660 N   0  0  0  0  0  0  0  0  0  0  0  0
   55.3360   22.9780   44.4420 C   0  0  0  0  0  0  0  0  0  0  0  0
   54.8857   22.3210   45.2007 H   0  0  0  0  0  0  0  0  0  0  0  0
   54.5887   23.0697   43.6400 H   0  0  0  0  0  0  0  0  0  0  0  0
   56.6800   22.4020   43.9430 C   0  0  0  0  0  0  0  0  0  0  0  0
   56.8800   21.4381   44.4338 H   0  0  0  0  0  0  0  0  0  0  0  0
   56.6486   22.2359   42.8561 H   0  0  0  0  0  0  0  0  0  0  0  0
   57.7870   23.4160   44.3040 C   0  0  0  0  0  0  0  0  0  0  0  0
   58.5179   22.9698   44.9944 H   0  0  0  0  0  0  0  0  0  0  0  0
   58.3644   23.7472   43.4283 H   0  0  0  0  0  0  0  0  0  0  0  0
  1  2  1  0
  2  3  2  0
  3  4  1  0
  3  5  1  0
  5  6  1  0
  6  7  1  0
  6  8  1  0
  6  9  1  0
  9 10  1  0
  9 11  1  0
  9 12  1  0
 12 13  1  0
 13 14  2  0
 13 15  1  0
 15 16  2  0
 16 17  1  0
 17 18  1  0
 17 19  2  0
 19 20  1  0
 19 21  1  0
 21 22  1  0
 21 23  2  0
 23 24  1  0
 23 25  1  0
 25 26  1  0
  5 27  2  0
 27 28  1  0
 27 29  1  0
 29 30  1  0
 29 31  2  0
 31 32  1  0
 32 33  2  3
 33 34  1  0
 34 35  1  0
 35 36  2  0
 36 37  1  0
 37 38  2  0
 37 39  1  0
 36 40  1  0
 40 41  1  0
 40 42  1  0
 40 43  1  0
 43 44  1  0
 43 45  1  0
 43 46  1  0
 46 47  1  0
 46 48  1  0
 31  2  1  0
 39 33  1  0
 25 16  1  0
 46 35  1  0
M  CHG  3  12  -1  34  -1  39  -1
M  END
>  <UniqueID>  (53) 
49

>  <SMILES>  (53) 
O=C(/N=c1\cccc[nH]1)[N-]CCc1ccc(N=c2[n-]c3c(c(=O)[n-]2)CCC3)cc1

>  <Energy>  (53) 
72.03730663727765

>  <Genealogy>  (53) 
O=C(N=c1cccc[nH]1)[N-]CCc1ccc(N=c2[n-]c3c(c(=O)[n-]2)CCC3)cc1 (protonated)
O=C(/N=c1\cccc[nH]1)[N-]CCc1ccc(N=c2[n-]c3c(c(=O)[n-]2)CCC3)cc1 (cis-trans isomerization)
O=C(/N=c1\cccc[nH]1)[N-]CCc1ccc(N=c2[n-]c3c(c(=O)[n-]2)CCC3)cc1 (3D coordinates assigned)
O=C(/N=c1\cccc[nH]1)[N-]CCc1ccc(N=c2[n-]c3c(c(=O)[n-]2)CCC3)cc1 (nonaromatic ring conformer: 72.03730663727765 kcal/mol)

>  <smiles>  (53) 
O=C(N=c1cccc[nH]1)NCCc1ccc(N=c2[nH]c3c(c(=O)[nH]2)CCC3)cc1

>  <score_type>  (53) 
oracle

>  <origin>  (53) 
adg

>  <m_score__min__energy>  (53) 
-12.57

>  <m_primary>  (53) 
energy

$$$$
53:0
     RDKit          3D

 51 54  0  0  0  0  0  0  0  0999 V2000
   62.6060   34.2010   49.3650 C   0  0  0  0  0  0  0  0  0  0  0  0
   61.2690   34.3910   48.9140 O   0  0  0  0  0  0  0  0  0  0  0  0
   60.5450   33.4510   48.1660 C   0  0  0  0  0  0  0  0  0  0  0  0
   59.1540   33.5860   48.0950 C   0  0  0  0  0  0  0  0  0  0  0  0
   58.3870   32.6720   47.3670 C   0  0  0  0  0  0  0  0  0  0  0  0
   59.0020   31.5990   46.7070 C   0  0  0  0  0  0  0  0  0  0  0  0
   58.1780   30.6420   45.9350 C   0  0  0  0  0  0  0  0  0  0  0  0
   57.3750   31.1360   44.9580 N   0  0  0  0  0  0  0  0  0  0  0  0
   56.6200   30.3260   44.1780 C   0  0  0  0  0  0  0  0  0  0  0  0
   55.8940   30.8270   43.2790 O   0  0  0  0  0  0  0  0  0  0  0  0
   56.6470   28.9810   44.3620 N   0  0  0  0  0  0  0  0  0  0  0  0
   57.4060   28.4180   45.3450 C   0  0  0  0  0  0  0  0  0  0  0  0
   57.3450   26.9510   45.5370 C   0  0  0  0  0  0  0  0  0  0  0  0
   57.8070   26.0760   44.5390 C   0  0  0  0  0  0  0  0  0  0  0  0
   57.7320   24.6930   44.7240 C   0  0  0  0  0  0  0  0  0  0  0  0
   57.2110   24.1680   45.9140 C   0  0  0  0  0  0  0  0  0  0  0  0
   57.0900   22.4260   46.1320 S   0  0  0  0  0  0  0  0  0  0  0  0
   58.2700   21.6170   45.0760 C   0  0  0  0  0  0  0  0  0  0  0  0
   57.3710   22.0720   47.5660 O   0  0  0  0  0  0  0  0  0  0  0  0
   55.7030   21.9630   45.7850 O   0  0  0  0  0  0  0  0  0  0  0  0
   56.7610   25.0380   46.9160 C   0  0  0  0  0  0  0  0  0  0  0  0
   56.8350   26.4220   46.7320 C   0  0  0  0  0  0  0  0  0  0  0  0
   58.2110   29.2450   46.1670 C   0  0  0  0  0  0  0  0  0  0  0  0
   59.0520   28.6660   47.2450 C   0  0  0  0  0  0  0  0  0  0  0  0
   58.9290   29.1300   48.5670 C   0  0  0  0  0  0  0  0  0  0  0  0
   59.7260   28.5880   49.5790 C   0  0  0  0  0  0  0  0  0  0  0  0
   60.6470   27.5790   49.2820 C   0  0  0  0  0  0  0  0  0  0  0  0
   60.7730   27.1120   47.9700 C   0  0  0  0  0  0  0  0  0  0  0  0
   59.9800   27.6530   46.9540 C   0  0  0  0  0  0  0  0  0  0  0  0
   60.4000   31.4740   46.7560 C   0  0  0  0  0  0  0  0  0  0  0  0
   61.1670   32.3860   47.4860 C   0  0  0  0  0  0  0  0  0  0  0  0
   62.6251   34.1983   50.4648 H   0  0  0  0  0  0  0  0  0  0  0  0
   62.9866   33.2397   48.9893 H   0  0  0  0  0  0  0  0  0  0  0  0
   63.2393   35.0182   48.9893 H   0  0  0  0  0  0  0  0  0  0  0  0
   58.6598   34.4188   48.6167 H   0  0  0  0  0  0  0  0  0  0  0  0
   57.2953   32.7953   47.3117 H   0  0  0  0  0  0  0  0  0  0  0  0
   56.0500   28.3750   43.7550 H   0  0  0  0  0  0  0  0  0  0  0  0
   58.2296   26.4817   43.6080 H   0  0  0  0  0  0  0  0  0  0  0  0
   58.0831   24.0142   43.9328 H   0  0  0  0  0  0  0  0  0  0  0  0
   59.0213   21.1019   45.6927 H   0  0  0  0  0  0  0  0  0  0  0  0
   57.7515   20.8835   44.4410 H   0  0  0  0  0  0  0  0  0  0  0  0
   58.7672   22.3651   44.4410 H   0  0  0  0  0  0  0  0  0  0  0  0
   56.3481   24.6307   47.8507 H   0  0  0  0  0  0  0  0  0  0  0  0
   56.4917   27.0992   47.5279 H   0  0  0  0  0  0  0  0  0  0  0  0
   58.2034   29.9217   48.8051 H   0  0  0  0  0  0  0  0  0  0  0  0
   59.6285   28.9559   50.6110 H   0  0  0  0  0  0  0  0  0  0  0  0
   61.2724   27.1526   50.0802 H   0  0  0  0  0  0  0  0  0  0  0  0
   61.4973   26.3176   47.7371 H   0  0  0  0  0  0  0  0  0  0  0  0
   60.0832   27.2840   45.9229 H   0  0  0  0  0  0  0  0  0  0  0  0
   60.8944   30.6529   46.2163 H   0  0  0  0  0  0  0  0  0  0  0  0
   62.2602   32.2717   47.5296 H   0  0  0  0  0  0  0  0  0  0  0  0
  1  2  1  0
  2  3  1  0
  3  4  2  0
  4  5  1  0
  5  6  2  0
  6  7  1  0
  7  8  2  0
  8  9  1  0
  9 10  2  0
  9 11  1  0
 11 12  1  0
 12 13  1  0
 13 14  2  0
 14 15  1  0
 15 16  2  0
 16 17  1  0
 17 18  1  0
 17 19  2  0
 17 20  2  0
 16 21  1  0
 21 22  2  0
 12 23  2  0
 23 24  1  0
 24 25  2  0
 25 26  1  0
 26 27  2  0
 27 28  1  0
 28 29  2  0
  6 30  1  0
 30 31  2  0
 31  3  1  0
 23  7  1  0
 29 24  1  0
 22 13  1  0
  1 32  1  0
  1 33  1  0
  1 34  1  0
  4 35  1  0
  5 36  1  0
 11 37  1  0
 14 38  1  0
 15 39  1  0
 18 40  1  0
 18 41  1  0
 18 42  1  0
 21 43  1  0
 22 44  1  0
 25 45  1  0
 26 46  1  0
 27 47  1  0
 28 48  1  0
 29 49  1  0
 30 50  1  0
 31 51  1  0
M  END
>  <UniqueID>  (54) 
50

>  <SMILES>  (54) 
COc1ccc(-c2nc(=O)[nH]c(-c3ccc(S(C)(=O)=O)cc3)c2-c2ccccc2)cc1

>  <Energy>  (54) 
71.56535044905587

>  <Genealogy>  (54) 
COc1ccc(-c2nc(=O)[nH]c(-c3ccc(S(C)(=O)=O)cc3)c2-c2ccccc2)cc1 (3D coordinates assigned)
COc1ccc(-c2nc(=O)[nH]c(-c3ccc(S(C)(=O)=O)cc3)c2-c2ccccc2)cc1 (optimized conformer: 71.56535044905587 kcal/mol)

>  <smiles>  (54) 
COc1ccc(-c2nc(=O)[nH]c(-c3ccc(S(C)(=O)=O)cc3)c2-c2ccccc2)cc1

>  <score_type>  (54) 
oracle

>  <origin>  (54) 
adg

>  <m_score__min__energy>  (54) 
-8.7300000000000004

>  <m_primary>  (54) 
energy

$$$$
54:0
     RDKit          3D

 46 48  0  0  0  0  0  0  0  0999 V2000
   60.6240   28.8245   49.5282 H   0  0  0  0  0  0  0  0  0  0  0  0
   60.1200   29.4210   50.3030 C   0  0  0  0  0  0  0  0  0  0  0  0
   60.6609   29.7036   51.2182 H   0  0  0  0  0  0  0  0  0  0  0  0
   58.8550   29.8010   50.1330 C   0  0  0  0  0  0  0  0  0  0  0  0
   58.3346   29.5065   49.2097 H   0  0  0  0  0  0  0  0  0  0  0  0
   58.1260   30.5990   51.1310 C   0  0  0  0  0  0  0  0  0  0  0  0
   57.0450   30.1740   51.6250 O   0  0  0  0  0  0  0  0  0  0  0  0
   58.6350   31.8880   51.4930 N   0  0  0  0  0  0  0  0  0  0  0  0
   59.5940   32.6660   50.7610 C   0  0  0  0  0  0  0  0  0  0  0  0
   60.7680   33.0670   51.4100 C   0  0  0  0  0  0  0  0  0  0  0  0
   60.9381   32.7806   52.4583 H   0  0  0  0  0  0  0  0  0  0  0  0
   61.7240   33.8280   50.7350 C   0  0  0  0  0  0  0  0  0  0  0  0
   62.6534   34.1197   51.2461 H   0  0  0  0  0  0  0  0  0  0  0  0
   61.5040   34.2200   49.4130 C   0  0  0  0  0  0  0  0  0  0  0  0
   62.2712   34.7979   48.8768 H   0  0  0  0  0  0  0  0  0  0  0  0
   60.3020   33.8770   48.7650 C   0  0  0  0  0  0  0  0  0  0  0  0
   60.0390   34.2560   47.4030 N   0  0  0  0  0  0  0  0  0  0  0  0
   59.1740   33.7100   46.6000 C   0  0  0  0  0  0  0  0  0  0  0  0
   58.9860   32.3620   46.5730 N   0  0  0  0  0  0  0  0  0  0  0  0
   58.1030   31.7750   45.7190 C   0  0  0  0  0  0  0  0  0  0  0  0
   57.9360   30.2990   45.7480 C   0  0  0  0  0  0  0  0  0  0  0  0
   57.0680   29.6410   44.8580 C   0  0  0  0  0  0  0  0  0  0  0  0
   56.4918   30.2254   44.1255 H   0  0  0  0  0  0  0  0  0  0  0  0
   56.9320   28.2520   44.8970 C   0  0  0  0  0  0  0  0  0  0  0  0
   56.2554   27.7512   44.1889 H   0  0  0  0  0  0  0  0  0  0  0  0
   57.6470   27.4910   45.8270 C   0  0  0  0  0  0  0  0  0  0  0  0
   57.4620   26.0700   45.8300 N   0  0  0  0  0  0  0  0  0  0  0  0
   55.9160   25.3040   46.0030 S   0  0  0  0  0  0  0  0  0  0  0  0
   55.8900   24.5580   47.3070 O   0  0  0  0  0  0  0  0  0  0  0  0
   54.8280   26.3400   46.0030 O   0  0  0  0  0  0  0  0  0  0  0  0
   55.6440   24.1370   44.6850 C   0  0  0  0  0  0  0  0  0  0  0  0
   55.4138   23.1495   45.1114 H   0  0  0  0  0  0  0  0  0  0  0  0
   54.8004   24.4743   44.0649 H   0  0  0  0  0  0  0  0  0  0  0  0
   56.5498   24.0666   44.0649 H   0  0  0  0  0  0  0  0  0  0  0  0
   58.5540   28.1330   46.6960 C   0  0  0  0  0  0  0  0  0  0  0  0
   59.4040   27.3870   47.5900 C   0  0  0  0  0  0  0  0  0  0  0  0
   60.0840   26.7810   48.3030 N   0  0  0  0  0  0  0  0  0  0  0  0
   58.6880   29.5280   46.6540 C   0  0  0  0  0  0  0  0  0  0  0  0
   59.3903   30.0265   47.3383 H   0  0  0  0  0  0  0  0  0  0  0  0
   57.3640   32.5900   44.8470 C   0  0  0  0  0  0  0  0  0  0  0  0
   56.6309   32.1501   44.1548 H   0  0  0  0  0  0  0  0  0  0  0  0
   57.5770   33.9680   44.8750 C   0  0  0  0  0  0  0  0  0  0  0  0
   57.0159   34.6246   44.1938 H   0  0  0  0  0  0  0  0  0  0  0  0
   58.4760   34.5000   45.7420 N   0  0  0  0  0  0  0  0  0  0  0  0
   59.3630   33.0840   49.4370 C   0  0  0  0  0  0  0  0  0  0  0  0
   58.4363   32.7851   48.9251 H   0  0  0  0  0  0  0  0  0  0  0  0
  1  2  1  0
  2  3  1  0
  2  4  2  0
  4  5  1  0
  4  6  1  0
  6  7  2  0
  6  8  1  0
  8  9  1  0
  9 10  2  0
 10 11  1  0
 10 12  1  0
 12 13  1  0
 12 14  2  0
 14 15  1  0
 14 16  1  0
 16 17  1  0
 17 18  2  0
 18 19  1  0
 19 20  2  0
 20 21  1  0
 21 22  2  0
 22 23  1  0
 22 24  1  0
 24 25  1  0
 24 26  2  0
 26 27  1  0
 27 28  1  0
 28 29  2  0
 28 30  2  0
 28 31  1  0
 31 32  1  0
 31 33  1  0
 31 34  1  0
 26 35  1  0
 35 36  1  0
 36 37  3  0
 35 38  2  0
 38 39  1  0
 20 40  1  0
 40 41  1  0
 40 42  2  0
 42 43  1  0
 42 44  1  0
 16 45  2  0
 45 46  1  0
 45  9  1  0
 44 18  1  0
 38 21  1  0
M  CHG  3   8  -1  27  -1  44  -1
M  END
>  <UniqueID>  (55) 
51

>  <SMILES>  (55) 
C=CC(=O)[N-]c1cccc(/N=c2\nc(-c3ccc([N-]S(C)(=O)=O)c(C#N)c3)cc[n-]2)c1

>  <Energy>  (55) 
64.85685096420883

>  <Genealogy>  (55) 
C=CC(=O)[N-]c1cccc(N=c2nc(-c3ccc([N-]S(C)(=O)=O)c(C#N)c3)cc[n-]2)c1 (protonated)
C=CC(=O)[N-]c1cccc(/N=c2\nc(-c3ccc([N-]S(C)(=O)=O)c(C#N)c3)cc[n-]2)c1 (cis-trans isomerization)
C=CC(=O)[N-]c1cccc(/N=c2\nc(-c3ccc([N-]S(C)(=O)=O)c(C#N)c3)cc[n-]2)c1 (3D coordinates assigned)
C=CC(=O)[N-]c1cccc(/N=c2\nc(-c3ccc([N-]S(C)(=O)=O)c(C#N)c3)cc[n-]2)c1 (optimized conformer: 64.85685096420883 kcal/mol)

>  <smiles>  (55) 
C=CC(=O)Nc1cccc(N=c2nc(-c3ccc(NS(C)(=O)=O)c(C#N)c3)cc[nH]2)c1

>  <score_type>  (55) 
oracle

>  <origin>  (55) 
adg

>  <m_score__min__energy>  (55) 
-13.26

>  <m_primary>  (55) 
energy

$$$$
55:0
     RDKit          3D

 56 58  0  0  0  0  0  0  0  0999 V2000
   58.1250   32.3260   41.8190 C   0  0  0  0  0  0  0  0  0  0  0  0
   58.1490   32.6580   43.2820 C   0  0  0  0  0  0  0  0  0  0  0  0
   57.3930   31.9050   44.1860 C   0  0  0  0  0  0  0  0  0  0  0  0
   57.3730   32.2430   45.5390 C   0  0  0  0  0  0  0  0  0  0  0  0
   58.0810   33.3620   46.0130 C   0  0  0  0  0  0  0  0  0  0  0  0
   58.0190   33.6960   47.4910 C   0  0  0  0  0  0  0  0  0  0  0  0
   59.0190   32.9900   48.2300 O   0  0  0  0  0  0  0  0  0  0  0  0
   59.5790   31.7550   47.8640 C   0  0  0  0  0  0  0  0  0  0  0  0
   58.7990   30.5940   47.6930 C   0  0  0  0  0  0  0  0  0  0  0  0
   59.3910   29.3790   47.3190 C   0  0  0  0  0  0  0  0  0  0  0  0
   58.5670   28.2100   47.1690 N   0  0  0  0  0  0  0  0  0  0  0  0
   57.5040   28.0970   46.2070 C   0  0  0  0  0  0  0  0  0  0  0  0
   56.9920   29.1390   45.7170 O   0  0  0  0  0  0  0  0  0  0  0  0
   56.9720   26.7710   45.8140 C   0  0  0  0  0  0  0  0  0  0  0  0
   57.6710   25.9430   44.9170 C   0  0  0  0  0  0  0  0  0  0  0  0
   57.1430   24.7050   44.5470 C   0  0  0  0  0  0  0  0  0  0  0  0
   55.9140   24.3000   45.0740 C   0  0  0  0  0  0  0  0  0  0  0  0
   55.4250   23.1860   44.7520 O   0  0  0  0  0  0  0  0  0  0  0  0
   55.2450   25.1100   45.9350 N   0  0  0  0  0  0  0  0  0  0  0  0
   55.7350   26.3220   46.3080 C   0  0  0  0  0  0  0  0  0  0  0  0
   60.7850   29.3180   47.1550 C   0  0  0  0  0  0  0  0  0  0  0  0
   61.5650   30.4620   47.3250 C   0  0  0  0  0  0  0  0  0  0  0  0
   60.9690   31.6810   47.6710 C   0  0  0  0  0  0  0  0  0  0  0  0
   61.7870   32.8410   47.8540 N   0  0  0  0  0  0  0  0  0  0  0  0
   62.2700   33.5770   46.6880 C   0  0  0  0  0  0  0  0  0  0  0  0
   62.0670   33.4300   49.4620 S   0  0  0  0  0  0  0  0  0  0  0  0
   63.3780   32.4880   50.2130 C   0  0  0  0  0  0  0  0  0  0  0  0
   62.4550   34.8830   49.4090 O   0  0  0  0  0  0  0  0  0  0  0  0
   60.8150   33.2950   50.2870 O   0  0  0  0  0  0  0  0  0  0  0  0
   58.8730   34.1110   45.1050 C   0  0  0  0  0  0  0  0  0  0  0  0
   59.6890   35.2950   45.5540 C   0  0  0  0  0  0  0  0  0  0  0  0
   58.8750   33.7650   43.7430 C   0  0  0  0  0  0  0  0  0  0  0  0
   58.0462   31.2363   41.6916 H   0  0  0  0  0  0  0  0  0  0  0  0
   57.2598   32.8139   41.3464 H   0  0  0  0  0  0  0  0  0  0  0  0
   59.0514   32.6844   41.3464 H   0  0  0  0  0  0  0  0  0  0  0  0
   56.8116   31.0424   43.8284 H   0  0  0  0  0  0  0  0  0  0  0  0
   56.7962   31.6266   46.2443 H   0  0  0  0  0  0  0  0  0  0  0  0
   58.1757   34.7771   47.6201 H   0  0  0  0  0  0  0  0  0  0  0  0
   57.0318   33.3953   47.8717 H   0  0  0  0  0  0  0  0  0  0  0  0
   57.7120   30.6413   47.8549 H   0  0  0  0  0  0  0  0  0  0  0  0
   58.6730   27.4440   47.8730 H   0  0  0  0  0  0  0  0  0  0  0  0
   58.6367   26.2722   44.5059 H   0  0  0  0  0  0  0  0  0  0  0  0
   57.6890   24.0548   43.8476 H   0  0  0  0  0  0  0  0  0  0  0  0
   55.1602   26.9548   47.0002 H   0  0  0  0  0  0  0  0  0  0  0  0
   61.2638   28.3634   46.8912 H   0  0  0  0  0  0  0  0  0  0  0  0
   62.6548   30.4062   47.1864 H   0  0  0  0  0  0  0  0  0  0  0  0
   62.8453   34.4537   47.0203 H   0  0  0  0  0  0  0  0  0  0  0  0
   62.9151   32.9229   46.0829 H   0  0  0  0  0  0  0  0  0  0  0  0
   61.4133   33.9085   46.0829 H   0  0  0  0  0  0  0  0  0  0  0  0
   63.2927   32.5493   51.3080 H   0  0  0  0  0  0  0  0  0  0  0  0
   63.3015   31.4370   49.8975 H   0  0  0  0  0  0  0  0  0  0  0  0
   64.3497   32.8958   49.8975 H   0  0  0  0  0  0  0  0  0  0  0  0
   59.7122   35.3287   46.6532 H   0  0  0  0  0  0  0  0  0  0  0  0
   60.7148   35.2008   45.1683 H   0  0  0  0  0  0  0  0  0  0  0  0
   59.2358   36.2201   45.1683 H   0  0  0  0  0  0  0  0  0  0  0  0
   59.4535   34.3704   43.0297 H   0  0  0  0  0  0  0  0  0  0  0  0
  1  2  1  0
  2  3  2  0
  3  4  1  0
  4  5  2  0
  5  6  1  0
  6  7  1  0
  7  8  1  0
  8  9  2  0
  9 10  1  0
 10 11  1  0
 11 12  1  0
 12 13  2  0
 12 14  1  0
 14 15  1  0
 15 16  2  0
 16 17  1  0
 17 18  2  0
 17 19  1  0
 19 20  1  0
 10 21  2  0
 21 22  1  0
 22 23  2  0
 23 24  1  0
 24 25  1  0
 24 26  1  0
 26 27  1  0
 26 28  2  0
 26 29  2  0
  5 30  1  0
 30 31  1  0
 30 32  2  0
 32  2  1  0
 23  8  1  0
 20 14  2  0
  1 33  1  0
  1 34  1  0
  1 35  1  0
  3 36  1  0
  4 37  1  0
  6 38  1  0
  6 39  1  0
  9 40  1  0
 11 41  1  0
 15 42  1  0
 16 43  1  0
 20 44  1  0
 21 45  1  0
 22 46  1  0
 25 47  1  0
 25 48  1  0
 25 49  1  0
 27 50  1  0
 27 51  1  0
 27 52  1  0
 31 53  1  0
 31 54  1  0
 31 55  1  0
 32 56  1  0
M  CHG  1  19  -1
M  END
>  <UniqueID>  (56) 
52

>  <SMILES>  (56) 
Cc1ccc(COc2cc(NC(=O)c3ccc(=O)[n-]c3)ccc2N(C)S(C)(=O)=O)c(C)c1

>  <Energy>  (56) 
65.76712489354232

>  <Genealogy>  (56) 
Cc1ccc(COc2cc(NC(=O)c3ccc(=O)[n-]c3)ccc2N(C)S(C)(=O)=O)c(C)c1 (protonated)
Cc1ccc(COc2cc(NC(=O)c3ccc(=O)[n-]c3)ccc2N(C)S(C)(=O)=O)c(C)c1 (3D coordinates assigned)
Cc1ccc(COc2cc(NC(=O)c3ccc(=O)[n-]c3)ccc2N(C)S(C)(=O)=O)c(C)c1 (optimized conformer: 65.76712489354232 kcal/mol)

>  <smiles>  (56) 
Cc1ccc(COc2cc(NC(=O)c3ccc(=O)[nH]c3)ccc2N(C)S(C)(=O)=O)c(C)c1

>  <score_type>  (56) 
oracle

>  <origin>  (56) 
adg

>  <m_score__min__energy>  (56) 
-10.859999999999999

>  <m_primary>  (56) 
energy

$$$$
56:0
     RDKit          3D

 58 61  0  0  0  0  0  0  0  0999 V2000
   59.0638   24.5663   45.8177 H   0  0  0  0  0  0  0  0  0  0  0  0
   58.5620   25.5440   45.7700 C   0  0  0  0  0  0  0  0  0  0  0  0
   59.3100   26.7000   45.5510 C   0  0  0  0  0  0  0  0  0  0  0  0
   60.4045   26.6376   45.4600 H   0  0  0  0  0  0  0  0  0  0  0  0
   58.6700   27.9380   45.4470 C   0  0  0  0  0  0  0  0  0  0  0  0
   59.2611   28.8425   45.2409 H   0  0  0  0  0  0  0  0  0  0  0  0
   57.2750   28.0360   45.6040 C   0  0  0  0  0  0  0  0  0  0  0  0
   56.5890   29.3660   45.3930 C   0  0  0  0  0  0  0  0  0  0  0  0
   57.0499   30.1074   46.0622 H   0  0  0  0  0  0  0  0  0  0  0  0
   55.5205   29.2215   45.6109 H   0  0  0  0  0  0  0  0  0  0  0  0
   56.6940   29.8690   43.9750 C   0  0  0  0  0  0  0  0  0  0  0  0
   55.9570   29.3710   43.0800 O   0  0  0  0  0  0  0  0  0  0  0  0
   57.7200   30.8040   43.6000 N   0  0  0  0  0  0  0  0  0  0  0  0
   58.0580   31.8420   44.2940 C   0  0  0  0  0  0  0  0  0  0  0  0
   58.8350   31.7460   45.7770 S   0  0  0  0  0  0  0  0  0  0  0  0
   58.7810   33.4110   46.0170 C   0  0  0  0  0  0  0  0  0  0  0  0
   59.3650   34.1330   47.2000 C   0  0  0  0  0  0  0  0  0  0  0  0
   59.4349   35.2059   46.9676 H   0  0  0  0  0  0  0  0  0  0  0  0
   58.7105   33.9678   48.0685 H   0  0  0  0  0  0  0  0  0  0  0  0
   60.7420   33.6090   47.5300 C   0  0  0  0  0  0  0  0  0  0  0  0
   61.8160   33.8690   46.6570 C   0  0  0  0  0  0  0  0  0  0  0  0
   61.6588   34.4898   45.7626 H   0  0  0  0  0  0  0  0  0  0  0  0
   63.0800   33.3400   46.9250 C   0  0  0  0  0  0  0  0  0  0  0  0
   63.9166   33.5447   46.2407 H   0  0  0  0  0  0  0  0  0  0  0  0
   63.2850   32.5520   48.0590 C   0  0  0  0  0  0  0  0  0  0  0  0
   64.2814   32.1316   48.2602 H   0  0  0  0  0  0  0  0  0  0  0  0
   62.2300   32.2940   48.9410 C   0  0  0  0  0  0  0  0  0  0  0  0
   62.3945   31.6631   49.8270 H   0  0  0  0  0  0  0  0  0  0  0  0
   60.9530   32.8450   48.6920 C   0  0  0  0  0  0  0  0  0  0  0  0
   59.8580   32.6710   49.5670 O   0  0  0  0  0  0  0  0  0  0  0  0
   58.6020   32.0580   49.2670 C   0  0  0  0  0  0  0  0  0  0  0  0
   57.8253   32.4974   49.9102 H   0  0  0  0  0  0  0  0  0  0  0  0
   58.3720   32.2351   48.2060 H   0  0  0  0  0  0  0  0  0  0  0  0
   58.6540   30.5340   49.5090 C   0  0  0  0  0  0  0  0  0  0  0  0
   57.6251   30.1712   49.6493 H   0  0  0  0  0  0  0  0  0  0  0  0
   59.2220   29.7850   48.2740 C   0  0  0  0  0  0  0  0  0  0  0  0
   58.4399   29.7187   47.5033 H   0  0  0  0  0  0  0  0  0  0  0  0
   60.0912   30.3436   47.8966 H   0  0  0  0  0  0  0  0  0  0  0  0
   59.6780   28.3700   48.6470 C   0  0  0  0  0  0  0  0  0  0  0  0
   58.8134   27.8091   49.0314 H   0  0  0  0  0  0  0  0  0  0  0  0
   60.0910   27.8992   47.7427 H   0  0  0  0  0  0  0  0  0  0  0  0
   60.7860   28.3780   49.7260 C   0  0  0  0  0  0  0  0  0  0  0  0
   60.5976   27.5499   50.4251 H   0  0  0  0  0  0  0  0  0  0  0  0
   61.7481   28.2712   49.2036 H   0  0  0  0  0  0  0  0  0  0  0  0
   60.8490   29.6890   50.5290 C   0  0  0  0  0  0  0  0  0  0  0  0
   61.3674   29.5062   51.4818 H   0  0  0  0  0  0  0  0  0  0  0  0
   61.3942   30.4423   49.9414 H   0  0  0  0  0  0  0  0  0  0  0  0
   59.4360   30.2070   50.8140 C   0  0  0  0  0  0  0  0  0  0  0  0
   58.8836   29.4385   51.3746 H   0  0  0  0  0  0  0  0  0  0  0  0
   59.5285   31.1373   51.3936 H   0  0  0  0  0  0  0  0  0  0  0  0
   58.1330   34.0010   44.9370 C   0  0  0  0  0  0  0  0  0  0  0  0
   57.9739   35.0863   44.8547 H   0  0  0  0  0  0  0  0  0  0  0  0
   57.7140   33.1190   43.9930 N   0  0  0  0  0  0  0  0  0  0  0  0
   57.3010   33.4180   43.0830 H   0  0  0  0  0  0  0  0  0  0  0  0
   56.5290   26.8640   45.8500 C   0  0  0  0  0  0  0  0  0  0  0  0
   55.1440   26.9140   45.9710 O   0  0  0  0  0  0  0  0  0  0  0  0
   57.1760   25.6250   45.9290 C   0  0  0  0  0  0  0  0  0  0  0  0
   56.5915   24.7123   46.1168 H   0  0  0  0  0  0  0  0  0  0  0  0
  1  2  1  0
  2  3  2  0
  3  4  1  0
  3  5  1  0
  5  6  1  0
  5  7  2  0
  7  8  1  0
  8  9  1  0
  8 10  1  0
  8 11  1  0
 11 12  2  0
 11 13  1  0
 13 14  2  0
 14 15  1  0
 15 16  1  0
 16 17  1  0
 17 18  1  0
 17 19  1  0
 17 20  1  0
 20 21  2  0
 21 22  1  0
 21 23  1  0
 23 24  1  0
 23 25  2  0
 25 26  1  0
 25 27  1  0
 27 28  1  0
 27 29  2  0
 29 30  1  0
 30 31  1  0
 31 32  1  0
 31 33  1  0
 31 34  1  0
 34 35  1  0
 34 36  1  0
 36 37  1  0
 36 38  1  0
 36 39  1  0
 39 40  1  0
 39 41  1  0
 39 42  1  0
 42 43  1  0
 42 44  1  0
 42 45  1  0
 45 46  1  0
 45 47  1  0
 45 48  1  0
 48 49  1  0
 48 50  1  0
 16 51  2  0
 51 52  1  0
 51 53  1  0
 53 54  1  0
  7 55  1  0
 55 56  1  0
 55 57  2  0
 57 58  1  0
 57  2  1  0
 53 14  1  0
 29 20  1  0
 48 34  1  0
M  CHG  1  56  -1
M  END
>  <UniqueID>  (57) 
53

>  <SMILES>  (57) 
O=C(Cc1ccccc1[O-])/N=c1\[nH]cc(Cc2ccccc2OCC2CCCCC2)s1

>  <Energy>  (57) 
101.36531984199621

>  <Genealogy>  (57) 
O=C(Cc1ccccc1[O-])N=c1[nH]cc(Cc2ccccc2OCC2CCCCC2)s1 (protonated)
O=C(Cc1ccccc1[O-])/N=c1\[nH]cc(Cc2ccccc2OCC2CCCCC2)s1 (cis-trans isomerization)
O=C(Cc1ccccc1[O-])/N=c1\[nH]cc(Cc2ccccc2OCC2CCCCC2)s1 (3D coordinates assigned)
O=C(Cc1ccccc1[O-])/N=c1\[nH]cc(Cc2ccccc2OCC2CCCCC2)s1 (nonaromatic ring conformer: 101.36531984199621 kcal/mol)

>  <smiles>  (57) 
O=C(Cc1ccccc1O)N=c1[nH]cc(Cc2ccccc2OCC2CCCCC2)s1

>  <score_type>  (57) 
oracle

>  <origin>  (57) 
adg

>  <m_score__min__energy>  (57) 
-13.199999999999999

>  <m_primary>  (57) 
energy

$$$$
57:0
     RDKit          3D

 51 53  0  0  0  0  0  0  0  0999 V2000
   61.3010   33.2910   47.7090 C   0  0  0  0  0  0  0  0  0  0  0  0
   59.7630   33.4790   47.6930 C   0  0  0  0  0  0  0  0  0  0  0  0
   59.5150   34.9760   47.3630 C   0  0  0  0  0  0  0  0  0  0  0  0
   59.2210   33.2570   49.1430 C   0  0  0  0  0  0  0  0  0  0  0  0
   58.7730   31.8270   49.4910 C   0  0  0  0  0  0  0  0  0  0  0  0
   59.6970   30.7090   49.0000 C   0  0  0  0  0  0  0  0  0  0  0  0
   59.3580   30.2660   47.6400 N   0  0  0  0  0  0  0  0  0  0  0  0
   58.7440   28.9780   47.4410 C   0  0  0  0  0  0  0  0  0  0  0  0
   58.5670   28.2160   48.4310 O   0  0  0  0  0  0  0  0  0  0  0  0
   58.3220   28.5170   46.0720 C   0  0  0  0  0  0  0  0  0  0  0  0
   57.3190   27.4060   46.1570 C   0  0  0  0  0  0  0  0  0  0  0  0
   56.0660   27.4920   45.6710 N   0  0  0  0  0  0  0  0  0  0  0  0
   55.5170   26.3060   46.0130 C   0  0  0  0  0  0  0  0  0  0  0  0
   54.3320   26.0000   45.7230 O   0  0  0  0  0  0  0  0  0  0  0  0
   56.3360   25.4770   46.6950 N   0  0  0  0  0  0  0  0  0  0  0  0
   57.4720   26.1880   46.7860 C   0  0  0  0  0  0  0  0  0  0  0  0
   58.6130   25.7280   47.4370 O   0  0  0  0  0  0  0  0  0  0  0  0
   59.5100   31.1270   46.4520 C   0  0  0  0  0  0  0  0  0  0  0  0
   59.0050   32.5950   46.5930 C   0  0  2  0  0  0  0  0  0  0  0  0
   58.7340   33.2420   45.1910 C   0  0  0  0  0  0  0  0  0  0  0  0
   57.9210   32.3630   44.2630 C   0  0  0  0  0  0  0  0  0  0  0  0
   58.1200   32.4140   42.8710 C   0  0  0  0  0  0  0  0  0  0  0  0
   57.3890   31.5790   42.0210 C   0  0  0  0  0  0  0  0  0  0  0  0
   56.4710   30.6710   42.5500 C   0  0  0  0  0  0  0  0  0  0  0  0
   56.2890   30.5870   43.9330 C   0  0  0  0  0  0  0  0  0  0  0  0
   57.0170   31.4200   44.7870 C   0  0  0  0  0  0  0  0  0  0  0  0
   61.6543   33.2478   48.7498 H   0  0  0  0  0  0  0  0  0  0  0  0
   61.5613   32.3544   47.1943 H   0  0  0  0  0  0  0  0  0  0  0  0
   61.7792   34.1374   47.1943 H   0  0  0  0  0  0  0  0  0  0  0  0
   59.4204   35.5469   48.2985 H   0  0  0  0  0  0  0  0  0  0  0  0
   60.3605   35.3676   46.7784 H   0  0  0  0  0  0  0  0  0  0  0  0
   58.5884   35.0740   46.7784 H   0  0  0  0  0  0  0  0  0  0  0  0
   60.0188   33.5388   49.8459 H   0  0  0  0  0  0  0  0  0  0  0  0
   58.3136   33.8746   49.2150 H   0  0  0  0  0  0  0  0  0  0  0  0
   58.7016   31.7512   50.5861 H   0  0  0  0  0  0  0  0  0  0  0  0
   57.8145   31.6762   48.9727 H   0  0  0  0  0  0  0  0  0  0  0  0
   60.7332   31.0782   49.0044 H   0  0  0  0  0  0  0  0  0  0  0  0
   59.5756   29.8493   49.6754 H   0  0  0  0  0  0  0  0  0  0  0  0
   57.8741   29.3636   45.5310 H   0  0  0  0  0  0  0  0  0  0  0  0
   59.2105   28.1431   45.5421 H   0  0  0  0  0  0  0  0  0  0  0  0
   59.1590   26.3300   48.0390 H   0  0  0  0  0  0  0  0  0  0  0  0
   60.5800   31.1636   46.1995 H   0  0  0  0  0  0  0  0  0  0  0  0
   58.8754   30.6720   45.6772 H   0  0  0  0  0  0  0  0  0  0  0  0
   58.0129   32.5587   47.0667 H   0  0  0  0  0  0  0  0  0  0  0  0
   58.1884   34.1850   45.3430 H   0  0  0  0  0  0  0  0  0  0  0  0
   59.7126   33.3965   44.7130 H   0  0  0  0  0  0  0  0  0  0  0  0
   58.8552   33.1151   42.4491 H   0  0  0  0  0  0  0  0  0  0  0  0
   57.5378   31.6379   40.9327 H   0  0  0  0  0  0  0  0  0  0  0  0
   55.8906   30.0213   41.8784 H   0  0  0  0  0  0  0  0  0  0  0  0
   55.5720   29.8645   44.3499 H   0  0  0  0  0  0  0  0  0  0  0  0
   56.8826   31.3381   45.8757 H   0  0  0  0  0  0  0  0  0  0  0  0
  1  2  1  0
  2  3  1  0
  2  4  1  0
  4  5  1  0
  5  6  1  0
  6  7  1  0
  7  8  1  0
  8  9  2  0
  8 10  1  0
 10 11  1  0
 11 12  1  0
 12 13  1  0
 13 14  2  0
 13 15  1  0
 15 16  1  0
 16 17  1  0
  7 18  1  0
 18 19  1  0
 19 20  1  0
 20 21  1  0
 21 22  2  0
 22 23  1  0
 23 24  2  0
 24 25  1  0
 25 26  2  0
 19  2  1  0
 26 21  1  0
 16 11  2  0
  1 27  1  0
  1 28  1  0
  1 29  1  0
  3 30  1  0
  3 31  1  0
  3 32  1  0
  4 33  1  0
  4 34  1  0
  5 35  1  0
  5 36  1  0
  6 37  1  0
  6 38  1  0
 10 39  1  0
 10 40  1  0
 17 41  1  0
 18 42  1  0
 18 43  1  0
 19 44  1  1
 20 45  1  0
 20 46  1  0
 22 47  1  0
 23 48  1  0
 24 49  1  0
 25 50  1  0
 26 51  1  0
M  CHG  2  12  -1  15  -1
M  END
>  <UniqueID>  (58) 
54

>  <SMILES>  (58) 
CC1(C)CCCN(C(=O)Cc2[n-]c(=O)[n-]c2O)C[C@@H]1Cc1ccccc1

>  <Energy>  (58) 
102.28349258652841

>  <Genealogy>  (58) 
CC1(C)CCCN(C(=O)Cc2[n-]c(=O)[n-]c2O)CC1Cc1ccccc1 (protonated)
CC1(C)CCCN(C(=O)Cc2[n-]c(=O)[n-]c2O)C[C@@H]1Cc1ccccc1 (chirality)
CC1(C)CCCN(C(=O)Cc2[n-]c(=O)[n-]c2O)C[C@@H]1Cc1ccccc1 (3D coordinates assigned)
CC1(C)CCCN(C(=O)Cc2[n-]c(=O)[n-]c2O)C[C@@H]1Cc1ccccc1 (nonaromatic ring conformer: 102.28349258652841 kcal/mol)

>  <smiles>  (58) 
CC1(C)CCCN(C(=O)Cc2[nH]c(=O)[nH]c2O)CC1Cc1ccccc1

>  <score_type>  (58) 
oracle

>  <origin>  (58) 
adg

>  <m_score__min__energy>  (58) 
-11.470000000000001

>  <m_primary>  (58) 
energy

$$$$
58:0
     RDKit          3D

 30 31  0  0  0  0  0  0  0  0999 V2000
   55.1410   21.1300   45.2510 N   0  0  0  0  0  0  0  0  0  0  0  0
   56.3120   21.4520   44.5030 C   0  0  0  0  0  0  0  0  0  0  0  0
   56.2570   21.5110   43.2460 O   0  0  0  0  0  0  0  0  0  0  0  0
   57.6030   21.7110   45.2120 C   0  0  0  0  0  0  0  0  0  0  0  0
   57.3810   21.8570   46.6470 N   0  0  0  0  0  0  0  0  0  0  0  0
   56.8220   23.0110   47.2900 C   0  0  0  0  0  0  0  0  0  0  0  0
   57.0230   23.1700   48.5240 O   0  0  0  0  0  0  0  0  0  0  0  0
   55.9600   23.9930   46.5410 C   0  0  0  0  0  0  0  0  0  0  0  0
   56.6850   25.2360   46.2760 N   0  0  0  0  0  0  0  0  0  0  0  0
   58.0230   25.3850   46.1530 C   0  0  0  0  0  0  0  0  0  0  0  0
   58.9430   24.3560   46.3120 O   0  0  0  0  0  0  0  0  0  0  0  0
   58.3320   26.6930   45.8350 C   0  0  0  0  0  0  0  0  0  0  0  0
   57.1410   27.3670   45.7460 C   0  0  0  0  0  0  0  0  0  0  0  0
   56.1460   26.4470   46.0130 C   0  0  0  0  0  0  0  0  0  0  0  0
   54.7820   26.7100   46.0030 O   0  0  0  0  0  0  0  0  0  0  0  0
   57.0190   28.8100   45.3790 C   0  0  0  0  0  0  0  0  0  0  0  0
   58.3770   29.4600   45.2040 C   0  0  0  0  0  0  0  0  0  0  0  0
   59.5520   28.7960   45.2910 C   0  0  0  0  0  0  0  0  0  0  0  0
   59.6680   27.3110   45.5760 C   0  0  0  0  0  0  0  0  0  0  0  0
   55.1460   21.1640   46.2950 H   0  0  0  0  0  0  0  0  0  0  0  0
   58.2874   20.8680   45.0361 H   0  0  0  0  0  0  0  0  0  0  0  0
   58.0396   22.6432   44.8242 H   0  0  0  0  0  0  0  0  0  0  0  0
   55.6535   23.5450   45.5842 H   0  0  0  0  0  0  0  0  0  0  0  0
   55.0800   24.2269   47.1583 H   0  0  0  0  0  0  0  0  0  0  0  0
   56.4602   28.8919   44.4351 H   0  0  0  0  0  0  0  0  0  0  0  0
   56.4930   29.3282   46.1944 H   0  0  0  0  0  0  0  0  0  0  0  0
   58.4089   30.5391   44.9931 H   0  0  0  0  0  0  0  0  0  0  0  0
   60.4803   29.3680   45.1462 H   0  0  0  0  0  0  0  0  0  0  0  0
   60.1277   26.8160   44.7079 H   0  0  0  0  0  0  0  0  0  0  0  0
   60.2867   27.1814   46.4762 H   0  0  0  0  0  0  0  0  0  0  0  0
  1  2  1  0
  2  3  2  0
  2  4  1  0
  4  5  1  0
  5  6  1  0
  6  7  2  0
  6  8  1  0
  8  9  1  0
  9 10  1  0
 10 11  1  0
 10 12  2  0
 12 13  1  0
 13 14  2  0
 14 15  1  0
 13 16  1  0
 16 17  1  0
 17 18  2  0
 18 19  1  0
 14  9  1  0
 19 12  1  0
  1 20  1  0
  4 21  1  0
  4 22  1  0
  8 23  1  0
  8 24  1  0
 16 25  1  0
 16 26  1  0
 17 27  1  0
 18 28  1  0
 19 29  1  0
 19 30  1  0
M  CHG  4   1  -1   5  -1  11  -1  15  -1
M  END
>  <UniqueID>  (59) 
55

>  <SMILES>  (59) 
[NH-]C(=O)C[N-]C(=O)Cn1c([O-])c2c(c1[O-])CC=CC2

>  <Energy>  (59) 
58.33179746635722

>  <Genealogy>  (59) 
[NH-]C(=O)C[N-]C(=O)Cn1c([O-])c2c(c1[O-])CC=CC2 (protonated)
[NH-]C(=O)C[N-]C(=O)Cn1c([O-])c2c(c1[O-])CC=CC2 (3D coordinates assigned)
[NH-]C(=O)C[N-]C(=O)Cn1c([O-])c2c(c1[O-])CC=CC2 (nonaromatic ring conformer: 58.33179746635722 kcal/mol)

>  <smiles>  (59) 
NC(=O)CNC(=O)Cn1c(O)c2c(c1O)CC=CC2

>  <score_type>  (59) 
oracle

>  <origin>  (59) 
adg

>  <m_score__min__energy>  (59) 
-15.31

>  <m_primary>  (59) 
energy

$$$$
59:0
     RDKit          3D

 51 54  0  0  1  0  0  0  0  0999 V2000
   57.0020   30.8500   43.2760 C   0  0  0  0  0  0  0  0  0  0  0  0
   56.5900   31.3390   44.5180 O   0  0  0  0  0  0  0  0  0  0  0  0
   57.3990   32.2330   45.1970 C   0  0  0  0  0  0  0  0  0  0  0  0
   57.5870   33.5440   44.8220 C   0  0  0  0  0  0  0  0  0  0  0  0
   58.4160   34.4100   45.5440 C   0  0  0  0  0  0  0  0  0  0  0  0
   59.0660   33.9530   46.6570 C   0  0  0  0  0  0  0  0  0  0  0  0
   59.9200   34.7280   47.4760 N   0  0  0  0  0  0  0  0  0  0  0  0
   60.8290   34.2870   48.2390 C   0  0  0  0  0  0  0  0  0  0  0  0
   60.6220   34.2180   49.5640 N   0  0  0  0  0  0  0  0  0  0  0  0
   61.5910   33.7510   50.3640 C   0  0  0  0  0  0  0  0  0  0  0  0
   62.7720   33.3520   49.8340 N   0  0  0  0  0  0  0  0  0  0  0  0
   63.0030   33.4100   48.5160 C   0  0  0  0  0  0  0  0  0  0  0  0
   64.0500   33.0950   47.7020 N   0  0  0  0  0  0  0  0  0  0  0  0
   63.7600   33.3490   46.4510 N   0  0  0  0  0  0  0  0  0  0  0  0
   62.5140   33.8410   46.3770 C   0  0  0  0  0  0  0  0  0  0  0  0
   62.0230   33.8860   47.6710 C   0  0  0  0  0  0  0  0  0  0  0  0
   58.8800   32.6210   47.0430 C   0  0  0  0  0  0  0  0  0  0  0  0
   58.0570   31.7750   46.3210 C   0  0  0  0  0  0  0  0  0  0  0  0
   57.8930   30.4470   46.7350 O   0  0  0  0  0  0  0  0  0  0  0  0
   58.5290   29.4680   45.9300 C   0  0  0  0  0  0  0  0  0  0  0  0
   59.9770   29.8130   45.6560 C   0  0  0  0  0  0  0  0  0  0  0  0
   60.7690   29.4210   46.7440 N   0  0  0  0  0  0  0  0  0  0  0  0
   60.4130   28.2630   47.4780 C   0  0  0  0  0  0  0  0  0  0  0  0
   59.6910   28.5500   48.7700 C   0  0  0  0  0  0  0  0  0  0  0  0
   60.3150   29.6440   49.5680 C   0  0  0  0  0  0  0  0  0  0  0  0
   60.7530   30.8270   48.7550 C   0  0  0  0  0  0  0  0  0  0  0  0
   61.4440   30.4410   47.4650 C   0  0  0  0  0  0  0  0  0  0  0  0
   57.7043   30.0165   43.4247 H   0  0  0  0  0  0  0  0  0  0  0  0
   56.1262   30.4955   42.7126 H   0  0  0  0  0  0  0  0  0  0  0  0
   57.4999   31.6529   42.7126 H   0  0  0  0  0  0  0  0  0  0  0  0
   57.0700   33.9224   43.9278 H   0  0  0  0  0  0  0  0  0  0  0  0
   58.5441   35.4527   45.2180 H   0  0  0  0  0  0  0  0  0  0  0  0
   59.7080   34.5350   49.9200 H   0  0  0  0  0  0  0  0  0  0  0  0
   61.4272   33.6918   51.4501 H   0  0  0  0  0  0  0  0  0  0  0  0
   64.9340   32.7050   48.0970 H   0  0  0  0  0  0  0  0  0  0  0  0
   61.9842   34.1494   45.4637 H   0  0  0  0  0  0  0  0  0  0  0  0
   59.3971   32.2398   47.9360 H   0  0  0  0  0  0  0  0  0  0  0  0
   58.4868   28.4992   46.4492 H   0  0  0  0  0  0  0  0  0  0  0  0
   58.0013   29.4258   44.9657 H   0  0  0  0  0  0  0  0  0  0  0  0
   60.3133   29.2870   44.7503 H   0  0  0  0  0  0  0  0  0  0  0  0
   60.0716   30.8989   45.5085 H   0  0  0  0  0  0  0  0  0  0  0  0
   59.7594   27.6421   46.8477 H   0  0  0  0  0  0  0  0  0  0  0  0
   61.3520   27.7563   47.7456 H   0  0  0  0  0  0  0  0  0  0  0  0
   58.6558   28.8376   48.5342 H   0  0  0  0  0  0  0  0  0  0  0  0
   59.7407   27.6355   49.3792 H   0  0  0  0  0  0  0  0  0  0  0  0
   59.5820   29.9893   50.3120 H   0  0  0  0  0  0  0  0  0  0  0  0
   61.2219   29.2227   50.0262 H   0  0  0  0  0  0  0  0  0  0  0  0
   59.8664   31.4302   48.5098 H   0  0  0  0  0  0  0  0  0  0  0  0
   61.4802   31.3883   49.3601 H   0  0  0  0  0  0  0  0  0  0  0  0
   61.5110   31.3334   46.8254 H   0  0  0  0  0  0  0  0  0  0  0  0
   62.4344   30.0454   47.7344 H   0  0  0  0  0  0  0  0  0  0  0  0
  1  2  1  0
  2  3  1  0
  3  4  2  0
  4  5  1  0
  5  6  2  0
  6  7  1  0
  7  8  2  0
  8  9  1  0
  9 10  1  0
 10 11  2  0
 11 12  1  0
 12 13  1  0
 13 14  1  0
 14 15  2  0
 15 16  1  0
  6 17  1  0
 17 18  2  0
 18 19  1  0
 19 20  1  0
 20 21  1  0
 21 22  1  0
 22 23  1  0
 23 24  1  0
 24 25  1  0
 25 26  1  0
 26 27  1  0
 18  3  1  0
 27 22  1  0
 16  8  1  0
 16 12  2  0
  1 28  1  0
  1 29  1  0
  1 30  1  0
  4 31  1  0
  5 32  1  0
  9 33  1  0
 10 34  1  0
 13 35  1  0
 15 36  1  0
 17 37  1  0
 20 38  1  0
 20 39  1  0
 21 40  1  0
 21 41  1  0
 23 42  1  0
 23 43  1  0
 24 44  1  0
 24 45  1  0
 25 46  1  0
 25 47  1  0
 26 48  1  0
 26 49  1  0
 27 50  1  0
 27 51  1  0
M  END
>  <smiles>  (60) 
COc1ccc(N=c2[nH]cnc3[nH]ncc23)cc1OCCN1CCCCC1

>  <score_type>  (60) 
oracle

>  <origin>  (60) 
adg

>  <m_score__min__energy>  (60) 
-7.9199999999999999

>  <m_primary>  (60) 
energy

$$$$
60:0
     RDKit          3D

 37 39  0  0  1  0  0  0  0  0999 V2000
   56.5930   24.0180   47.1390 N   0  0  0  0  0  0  0  0  0  0  0  0
   56.5400   25.1890   46.5740 C   0  0  0  0  0  0  0  0  0  0  0  0
   57.6110   25.9500   46.2140 N   0  0  0  0  0  0  0  0  0  0  0  0
   57.1530   27.0920   45.6620 C   0  0  0  0  0  0  0  0  0  0  0  0
   58.2010   28.3860   45.0460 S   0  0  0  0  0  0  0  0  0  0  0  0
   57.3540   29.3860   43.8100 C   0  0  0  0  0  0  0  0  0  0  0  0
   56.1640   30.0740   44.4080 C   0  0  0  0  0  0  0  0  0  0  0  0
   55.1650   29.3960   44.7650 O   0  0  0  0  0  0  0  0  0  0  0  0
   56.2490   31.4830   44.5370 N   0  0  0  0  0  0  0  0  0  0  0  0
   57.2490   32.0080   45.1250 C   0  0  0  0  0  0  0  0  0  0  0  0
   58.2000   31.4750   45.9270 N   0  0  0  0  0  0  0  0  0  0  0  0
   59.1240   32.2250   46.4070 C   0  0  0  0  0  0  0  0  0  0  0  0
   59.1210   33.5950   46.0810 C   0  0  0  0  0  0  0  0  0  0  0  0
   60.0500   34.6450   46.4930 C   0  0  0  0  0  0  0  0  0  0  0  0
   61.2720   34.1510   47.1690 C   0  0  0  0  0  0  0  0  0  0  0  0
   62.3970   33.8350   46.4170 C   0  0  0  0  0  0  0  0  0  0  0  0
   63.5410   33.3730   47.0330 C   0  0  0  0  0  0  0  0  0  0  0  0
   63.6170   33.2090   48.3920 C   0  0  0  0  0  0  0  0  0  0  0  0
   62.4880   33.5270   49.1410 C   0  0  0  0  0  0  0  0  0  0  0  0
   61.3250   33.9910   48.5590 C   0  0  0  0  0  0  0  0  0  0  0  0
   57.7150   33.7530   45.0440 S   0  0  0  0  0  0  0  0  0  0  0  0
   55.7980   27.0370   45.6800 N   0  0  0  0  0  0  0  0  0  0  0  0
   55.4430   25.8960   46.2270 N   0  0  0  0  0  0  0  0  0  0  0  0
   56.2190   23.9340   48.1040 H   0  0  0  0  0  0  0  0  0  0  0  0
   58.0500   30.1430   43.4196 H   0  0  0  0  0  0  0  0  0  0  0  0
   57.0104   28.7278   42.9984 H   0  0  0  0  0  0  0  0  0  0  0  0
   58.1330   30.4160   46.1300 H   0  0  0  0  0  0  0  0  0  0  0  0
   59.9033   31.8059   47.0605 H   0  0  0  0  0  0  0  0  0  0  0  0
   60.3553   35.2051   45.5969 H   0  0  0  0  0  0  0  0  0  0  0  0
   59.5155   35.2667   47.2263 H   0  0  0  0  0  0  0  0  0  0  0  0
   62.3749   33.9541   45.3237 H   0  0  0  0  0  0  0  0  0  0  0  0
   64.4183   33.1289   46.4159 H   0  0  0  0  0  0  0  0  0  0  0  0
   64.5354   32.8401   48.8721 H   0  0  0  0  0  0  0  0  0  0  0  0
   62.5233   33.4046   50.2336 H   0  0  0  0  0  0  0  0  0  0  0  0
   60.4500   34.2322   49.1804 H   0  0  0  0  0  0  0  0  0  0  0  0
   55.1530   27.7780   45.3200 H   0  0  0  0  0  0  0  0  0  0  0  0
   54.4400   25.5950   46.3650 H   0  0  0  0  0  0  0  0  0  0  0  0
  1  2  2  3
  2  3  1  0
  3  4  2  0
  4  5  1  0
  5  6  1  0
  6  7  1  0
  7  8  2  0
  7  9  1  0
  9 10  2  0
 10 11  1  0
 11 12  1  0
 12 13  2  0
 13 14  1  0
 14 15  1  0
 15 16  2  0
 16 17  1  0
 17 18  2  0
 18 19  1  0
 19 20  2  0
 13 21  1  0
  4 22  1  0
 22 23  1  0
 23  2  1  0
 21 10  1  0
 20 15  1  0
  1 24  1  0
  6 25  1  0
  6 26  1  0
 11 27  1  0
 12 28  1  0
 14 29  1  0
 14 30  1  0
 16 31  1  0
 17 32  1  0
 18 33  1  0
 19 34  1  0
 20 35  1  0
 22 36  1  0
 23 37  1  0
M  END
>  <smiles>  (61) 
N=c1nc(SCC(=O)N=c2[nH]cc(Cc3ccccc3)s2)[nH][nH]1

>  <score_type>  (61) 
oracle

>  <origin>  (61) 
adg

>  <m_score__min__energy>  (61) 
-9.7599999999999998

>  <m_primary>  (61) 
energy

$$$$
61:0
     RDKit          3D

 53 55  0  0  0  0  0  0  0  0999 V2000
   59.1300   34.8990   46.9180 C   0  0  0  0  0  0  0  0  0  0  0  0
   59.7390   33.8060   46.1590 N   0  0  0  0  0  0  0  0  0  0  0  0
   61.1990   33.7610   46.0100 C   0  0  0  0  0  0  0  0  0  0  0  0
   61.8540   33.3700   47.3060 C   0  0  0  0  0  0  0  0  0  0  0  0
   63.2470   33.4390   47.4530 C   0  0  0  0  0  0  0  0  0  0  0  0
   63.8430   33.1020   48.6690 C   0  0  0  0  0  0  0  0  0  0  0  0
   63.0540   32.7050   49.7530 C   0  0  0  0  0  0  0  0  0  0  0  0
   63.6560   32.4000   50.9300 F   0  0  0  0  0  0  0  0  0  0  0  0
   61.6550   32.6440   49.6290 C   0  0  0  0  0  0  0  0  0  0  0  0
   60.8580   32.2560   50.7620 N   0  0  0  0  0  0  0  0  0  0  0  0
   59.3960   33.0680   51.2310 S   0  0  0  0  0  0  0  0  0  0  0  0
   57.9800   32.0450   50.8790 C   0  0  0  0  0  0  0  0  0  0  0  0
   59.4430   33.4070   52.6950 O   0  0  0  0  0  0  0  0  0  0  0  0
   59.2720   34.3400   50.4420 O   0  0  0  0  0  0  0  0  0  0  0  0
   61.0650   32.9590   48.3910 C   0  0  0  0  0  0  0  0  0  0  0  0
   58.9600   32.6350   45.8620 C   0  0  0  0  0  0  0  0  0  0  0  0
   57.7840   32.7390   45.1090 C   0  0  0  0  0  0  0  0  0  0  0  0
   57.0240   31.6030   44.8260 C   0  0  0  0  0  0  0  0  0  0  0  0
   57.4230   30.3360   45.2900 C   0  0  0  0  0  0  0  0  0  0  0  0
   56.5470   29.1670   45.0310 C   0  0  0  0  0  0  0  0  0  0  0  0
   55.1460   29.3500   44.8330 N   0  0  0  0  0  0  0  0  0  0  0  0
   57.0210   28.0000   45.0090 O   0  0  0  0  0  0  0  0  0  0  0  0
   58.6300   30.2280   46.0280 C   0  0  0  0  0  0  0  0  0  0  0  0
   59.1360   28.9590   46.4700 N   0  0  0  0  0  0  0  0  0  0  0  0
   59.6100   28.7120   47.8070 C   0  0  0  0  0  0  0  0  0  0  0  0
   59.3890   29.6310   48.8530 C   0  0  0  0  0  0  0  0  0  0  0  0
   59.8600   29.3610   50.1410 C   0  0  0  0  0  0  0  0  0  0  0  0
   60.5470   28.1740   50.4020 C   0  0  0  0  0  0  0  0  0  0  0  0
   60.7630   27.2520   49.3750 C   0  0  0  0  0  0  0  0  0  0  0  0
   60.2940   27.5180   48.0840 C   0  0  0  0  0  0  0  0  0  0  0  0
   59.3690   31.3800   46.3270 C   0  0  0  0  0  0  0  0  0  0  0  0
   59.2392   34.7030   47.9949 H   0  0  0  0  0  0  0  0  0  0  0  0
   59.6311   35.8449   46.6648 H   0  0  0  0  0  0  0  0  0  0  0  0
   58.0619   34.9706   46.6648 H   0  0  0  0  0  0  0  0  0  0  0  0
   61.4604   33.0239   45.2365 H   0  0  0  0  0  0  0  0  0  0  0  0
   61.5559   34.7605   45.7209 H   0  0  0  0  0  0  0  0  0  0  0  0
   63.8721   33.7599   46.6067 H   0  0  0  0  0  0  0  0  0  0  0  0
   64.9369   33.1488   48.7751 H   0  0  0  0  0  0  0  0  0  0  0  0
   61.2280   31.5400   51.4260 H   0  0  0  0  0  0  0  0  0  0  0  0
   57.5226   31.7145   51.8232 H   0  0  0  0  0  0  0  0  0  0  0  0
   57.2457   32.6225   50.2982 H   0  0  0  0  0  0  0  0  0  0  0  0
   58.2976   31.1665   50.2982 H   0  0  0  0  0  0  0  0  0  0  0  0
   59.9741   32.8822   48.2726 H   0  0  0  0  0  0  0  0  0  0  0  0
   57.4572   33.7218   44.7383 H   0  0  0  0  0  0  0  0  0  0  0  0
   56.1024   31.6994   44.2333 H   0  0  0  0  0  0  0  0  0  0  0  0
   54.4850   29.3510   45.6410 H   0  0  0  0  0  0  0  0  0  0  0  0
   59.0210   28.1450   45.8250 H   0  0  0  0  0  0  0  0  0  0  0  0
   58.8432   30.5652   48.6545 H   0  0  0  0  0  0  0  0  0  0  0  0
   59.6890   30.0855   50.9509 H   0  0  0  0  0  0  0  0  0  0  0  0
   60.9181   27.9648   51.4161 H   0  0  0  0  0  0  0  0  0  0  0  0
   61.3024   26.3159   49.5816 H   0  0  0  0  0  0  0  0  0  0  0  0
   60.4625   26.7862   47.2803 H   0  0  0  0  0  0  0  0  0  0  0  0
   60.2821   31.2971   46.9348 H   0  0  0  0  0  0  0  0  0  0  0  0
  1  2  1  0
  2  3  1  0
  3  4  1  0
  4  5  2  0
  5  6  1  0
  6  7  2  0
  7  8  1  0
  7  9  1  0
  9 10  1  0
 10 11  1  0
 11 12  1  0
 11 13  2  0
 11 14  2  0
  9 15  2  0
  2 16  1  0
 16 17  2  0
 17 18  1  0
 18 19  2  0
 19 20  1  0
 20 21  1  0
 20 22  2  0
 19 23  1  0
 23 24  1  0
 24 25  1  0
 25 26  2  0
 26 27  1  0
 27 28  2  0
 28 29  1  0
 29 30  2  0
 23 31  2  0
 15  4  1  0
 31 16  1  0
 30 25  1  0
  1 32  1  0
  1 33  1  0
  1 34  1  0
  3 35  1  0
  3 36  1  0
  5 37  1  0
  6 38  1  0
 10 39  1  0
 12 40  1  0
 12 41  1  0
 12 42  1  0
 15 43  1  0
 17 44  1  0
 18 45  1  0
 21 46  1  0
 24 47  1  0
 26 48  1  0
 27 49  1  0
 28 50  1  0
 29 51  1  0
 30 52  1  0
 31 53  1  0
M  CHG  1  21  -1
M  END
>  <UniqueID>  (62) 
56

>  <SMILES>  (62) 
CN(Cc1ccc(F)c(NS(C)(=O)=O)c1)c1ccc(C([NH-])=O)c(Nc2ccccc2)c1

>  <Energy>  (62) 
66.18108649041041

>  <Genealogy>  (62) 
CN(Cc1ccc(F)c(NS(C)(=O)=O)c1)c1ccc(C([NH-])=O)c(Nc2ccccc2)c1 (protonated)
CN(Cc1ccc(F)c(NS(C)(=O)=O)c1)c1ccc(C([NH-])=O)c(Nc2ccccc2)c1 (3D coordinates assigned)
CN(Cc1ccc(F)c(NS(C)(=O)=O)c1)c1ccc(C([NH-])=O)c(Nc2ccccc2)c1 (optimized conformer: 66.18108649041041 kcal/mol)

>  <smiles>  (62) 
CN(Cc1ccc(F)c(NS(C)(=O)=O)c1)c1ccc(C(N)=O)c(Nc2ccccc2)c1

>  <score_type>  (62) 
oracle

>  <origin>  (62) 
adg

>  <m_score__min__energy>  (62) 
-11.81

>  <m_primary>  (62) 
energy

$$$$
63:0
     RDKit          3D

 82 87  0  0  0  0  0  0  0  0999 V2000
   57.9080   33.6104   54.3874 H   0  0  0  0  0  0  0  0  0  0  0  0
   58.1900   33.0480   53.4850 C   0  0  0  0  0  0  0  0  0  0  0  0
   57.4120   32.0240   53.0520 N   0  0  0  0  0  0  0  0  0  0  0  0
   57.7080   31.2800   51.9500 C   0  0  0  0  0  0  0  0  0  0  0  0
   56.9120   30.2780   51.6870 N   0  0  0  0  0  0  0  0  0  0  0  0
   55.5440   30.0880   52.0670 C   0  0  0  0  0  0  0  0  0  0  0  0
   55.2020   29.0910   52.9900 C   0  0  0  0  0  0  0  0  0  0  0  0
   55.9840   28.4424   53.4116 H   0  0  0  0  0  0  0  0  0  0  0  0
   53.8690   28.9180   53.3770 C   0  0  0  0  0  0  0  0  0  0  0  0
   53.6014   28.1230   54.0886 H   0  0  0  0  0  0  0  0  0  0  0  0
   52.8770   29.7560   52.8590 C   0  0  0  0  0  0  0  0  0  0  0  0
   51.8266   29.6098   53.1511 H   0  0  0  0  0  0  0  0  0  0  0  0
   53.2190   30.7810   51.9690 C   0  0  0  0  0  0  0  0  0  0  0  0
   51.9760   31.8440   51.3340 Cl  0  0  0  0  0  0  0  0  0  0  0  0
   54.5540   30.9620   51.5900 C   0  0  0  0  0  0  0  0  0  0  0  0
   54.8277   31.7890   50.9184 H   0  0  0  0  0  0  0  0  0  0  0  0
   58.8700   31.6180   51.1850 C   0  0  0  0  0  0  0  0  0  0  0  0
   59.1750   31.0240   49.8630 C   0  0  0  0  0  0  0  0  0  0  0  0
   58.6840   29.9010   49.5700 O   0  0  0  0  0  0  0  0  0  0  0  0
   60.0030   31.6850   48.8990 N   0  0  0  0  0  0  0  0  0  0  0  0
   59.5490   32.7000   47.9990 C   0  0  0  0  0  0  0  0  0  0  0  0
   58.7930   32.3140   46.8840 C   0  0  0  0  0  0  0  0  0  0  0  0
   58.5599   31.2507   46.7254 H   0  0  0  0  0  0  0  0  0  0  0  0
   58.3310   33.2700   45.9690 C   0  0  0  0  0  0  0  0  0  0  0  0
   57.5580   32.8410   44.7580 C   0  0  0  0  0  0  0  0  0  0  0  0
   56.9517   33.6824   44.3915 H   0  0  0  0  0  0  0  0  0  0  0  0
   58.2548   32.5239   43.9681 H   0  0  0  0  0  0  0  0  0  0  0  0
   56.6830   31.7280   45.1160 N   0  0  0  0  0  0  0  0  0  0  0  0
   57.0960   30.3290   44.1760 S   0  0  0  0  0  0  0  0  0  0  0  0
   55.8550   29.5270   43.9100 O   0  0  0  0  0  0  0  0  0  0  0  0
   57.6810   30.7630   42.8620 O   0  0  0  0  0  0  0  0  0  0  0  0
   58.2430   29.3290   45.0620 C   0  0  0  0  0  0  0  0  0  0  0  0
   59.5160   29.0510   44.5340 C   0  0  0  0  0  0  0  0  0  0  0  0
   59.7988   29.4410   43.5451 H   0  0  0  0  0  0  0  0  0  0  0  0
   60.4230   28.2780   45.2670 C   0  0  0  0  0  0  0  0  0  0  0  0
   61.4195   28.0630   44.8537 H   0  0  0  0  0  0  0  0  0  0  0  0
   60.0670   27.7780   46.5230 C   0  0  0  0  0  0  0  0  0  0  0  0
   60.7837   27.1731   47.0978 H   0  0  0  0  0  0  0  0  0  0  0  0
   58.8000   28.0470   47.0480 C   0  0  0  0  0  0  0  0  0  0  0  0
   58.5178   27.6493   48.0340 H   0  0  0  0  0  0  0  0  0  0  0  0
   57.8900   28.8220   46.3200 C   0  0  0  0  0  0  0  0  0  0  0  0
   56.8943   29.0339   46.7366 H   0  0  0  0  0  0  0  0  0  0  0  0
   58.6480   34.6200   46.1670 C   0  0  0  0  0  0  0  0  0  0  0  0
   58.3028   35.3749   45.4452 H   0  0  0  0  0  0  0  0  0  0  0  0
   59.4000   35.0120   47.2760 C   0  0  0  0  0  0  0  0  0  0  0  0
   59.6404   36.0753   47.4228 H   0  0  0  0  0  0  0  0  0  0  0  0
   59.8530   34.0610   48.2070 C   0  0  0  0  0  0  0  0  0  0  0  0
   60.6500   34.4600   49.3350 N   0  0  0  0  0  0  0  0  0  0  0  0
   60.1590   34.6880   50.2270 H   0  0  0  0  0  0  0  0  0  0  0  0
   62.1180   34.4830   49.3310 C   0  0  0  0  0  0  0  0  0  0  0  0
   62.4696   35.5052   49.1272 H   0  0  0  0  0  0  0  0  0  0  0  0
   62.6670   34.0800   50.7190 C   0  0  0  0  0  0  0  0  0  0  0  0
   63.5444   34.7020   50.9498 H   0  0  0  0  0  0  0  0  0  0  0  0
   61.8696   34.2330   51.4611 H   0  0  0  0  0  0  0  0  0  0  0  0
   63.0800   32.6040   50.7580 C   0  0  0  0  0  0  0  0  0  0  0  0
   63.4609   32.3709   51.7633 H   0  0  0  0  0  0  0  0  0  0  0  0
   62.1926   32.0026   50.5115 H   0  0  0  0  0  0  0  0  0  0  0  0
   64.1360   32.2800   49.7610 N   0  0  0  0  0  0  0  0  0  0  0  0
   65.4850   32.3210   50.3710 C   0  0  0  0  0  0  0  0  0  0  0  0
   66.2257   32.5585   49.5932 H   0  0  0  0  0  0  0  0  0  0  0  0
   65.4944   33.0917   51.1559 H   0  0  0  0  0  0  0  0  0  0  0  0
   65.8300   30.9930   50.9930 C   0  0  0  0  0  0  0  0  0  0  0  0
   64.8240   30.2110   51.5760 C   0  0  0  0  0  0  0  0  0  0  0  0
   63.7894   30.5835   51.6064 H   0  0  0  0  0  0  0  0  0  0  0  0
   65.1290   28.9600   52.1190 C   0  0  0  0  0  0  0  0  0  0  0  0
   64.3345   28.3501   52.5738 H   0  0  0  0  0  0  0  0  0  0  0  0
   66.4390   28.4840   52.0850 C   0  0  0  0  0  0  0  0  0  0  0  0
   66.6782   27.4997   52.5139 H   0  0  0  0  0  0  0  0  0  0  0  0
   67.4490   29.2590   51.5050 C   0  0  0  0  0  0  0  0  0  0  0  0
   68.4831   28.8849   51.4803 H   0  0  0  0  0  0  0  0  0  0  0  0
   67.1450   30.5080   50.9570 C   0  0  0  0  0  0  0  0  0  0  0  0
   67.9399   31.1126   50.4959 H   0  0  0  0  0  0  0  0  0  0  0  0
   64.0780   33.1080   48.5260 C   0  0  0  0  0  0  0  0  0  0  0  0
   64.7140   33.9949   48.6632 H   0  0  0  0  0  0  0  0  0  0  0  0
   64.4307   32.4906   47.6867 H   0  0  0  0  0  0  0  0  0  0  0  0
   62.6520   33.5670   48.2080 C   0  0  0  0  0  0  0  0  0  0  0  0
   62.6531   34.1214   47.2579 H   0  0  0  0  0  0  0  0  0  0  0  0
   62.0020   32.6831   48.1292 H   0  0  0  0  0  0  0  0  0  0  0  0
   59.6690   32.6860   51.6290 C   0  0  0  0  0  0  0  0  0  0  0  0
   60.5622   32.9726   51.0546 H   0  0  0  0  0  0  0  0  0  0  0  0
   59.3420   33.3850   52.7880 C   0  0  0  0  0  0  0  0  0  0  0  0
   59.9909   34.1970   53.1480 H   0  0  0  0  0  0  0  0  0  0  0  0
  1  2  1  0
  2  3  1  0
  3  4  1  0
  4  5  2  0
  5  6  1  0
  6  7  2  0
  7  8  1  0
  7  9  1  0
  9 10  1  0
  9 11  2  0
 11 12  1  0
 11 13  1  0
 13 14  1  0
 13 15  2  0
 15 16  1  0
  4 17  1  0
 17 18  1  0
 18 19  2  0
 18 20  1  0
 20 21  1  0
 21 22  2  0
 22 23  1  0
 22 24  1  0
 24 25  1  0
 25 26  1  0
 25 27  1  0
 25 28  1  0
 28 29  1  0
 29 30  2  0
 29 31  2  0
 29 32  1  0
 32 33  2  0
 33 34  1  0
 33 35  1  0
 35 36  1  0
 35 37  2  0
 37 38  1  0
 37 39  1  0
 39 40  1  0
 39 41  2  0
 41 42  1  0
 24 43  2  0
 43 44  1  0
 43 45  1  0
 45 46  1  0
 45 47  2  0
 47 48  1  0
 48 49  1  0
 48 50  1  0
 50 51  1  0
 50 52  1  0
 52 53  1  0
 52 54  1  0
 52 55  1  0
 55 56  1  0
 55 57  1  0
 55 58  1  0
 58 59  1  0
 59 60  1  0
 59 61  1  0
 59 62  1  0
 62 63  2  0
 63 64  1  0
 63 65  1  0
 65 66  1  0
 65 67  2  0
 67 68  1  0
 67 69  1  0
 69 70  1  0
 69 71  2  0
 71 72  1  0
 58 73  1  0
 73 74  1  0
 73 75  1  0
 73 76  1  0
 76 77  1  0
 76 78  1  0
 17 79  2  0
 79 80  1  0
 79 81  1  0
 81 82  1  0
 81  2  2  0
 15  6  1  0
 47 21  1  0
 76 50  1  0
 41 32  1  0
 71 62  1  0
M  CHG  3   3  -1  20  -1  28  -1
M  END
>  <UniqueID>  (63) 
57

>  <SMILES>  (63) 
O=C([N-]c1cc(C[N-]S(=O)(=O)c2ccccc2)ccc1NC1CCN(Cc2ccccc2)CC1)c1ccc[n-]/c1=N/c1cccc(Cl)c1

>  <Energy>  (63) 
128.77763208473158

>  <Genealogy>  (63) 
O=C([N-]c1cc(C[N-]S(=O)(=O)c2ccccc2)ccc1NC1CCN(Cc2ccccc2)CC1)c1ccc[n-]c1=Nc1cccc(Cl)c1 (protonated)
O=C([N-]c1cc(C[N-]S(=O)(=O)c2ccccc2)ccc1NC1CCN(Cc2ccccc2)CC1)c1ccc[n-]/c1=N/c1cccc(Cl)c1 (cis-trans isomerization)
O=C([N-]c1cc(C[N-]S(=O)(=O)c2ccccc2)ccc1NC1CCN(Cc2ccccc2)CC1)c1ccc[n-]/c1=N/c1cccc(Cl)c1 (3D coordinates assigned)
O=C([N-]c1cc(C[N-]S(=O)(=O)c2ccccc2)ccc1NC1CCN(Cc2ccccc2)CC1)c1ccc[n-]/c1=N/c1cccc(Cl)c1 (nonaromatic ring conformer: 128.77763208473158 kcal/mol)

>  <smiles>  (63) 
O=C(Nc1cc(CNS(=O)(=O)c2ccccc2)ccc1NC1CCN(Cc2ccccc2)CC1)c1ccc[nH]c1=Nc1cccc(Cl)c1

>  <score_type>  (63) 
oracle

>  <origin>  (63) 
adg

>  <m_score__min__energy>  (63) 
-15.26

>  <m_primary>  (63) 
energy

$$$$
64:0
     RDKit          3D

 41 42  0  0  0  0  0  0  0  0999 V2000
   58.5217   35.0130   44.7220 H   0  0  0  0  0  0  0  0  0  0  0  0
   58.4290   33.9690   45.0560 C   0  0  0  0  0  0  0  0  0  0  0  0
   59.3410   33.4480   45.9740 C   0  0  0  0  0  0  0  0  0  0  0  0
   60.1521   34.0820   46.3617 H   0  0  0  0  0  0  0  0  0  0  0  0
   59.2270   32.1240   46.4020 C   0  0  0  0  0  0  0  0  0  0  0  0
   59.9483   31.7177   47.1263 H   0  0  0  0  0  0  0  0  0  0  0  0
   58.1910   31.3070   45.9090 C   0  0  0  0  0  0  0  0  0  0  0  0
   58.0420   29.9700   46.3080 O   0  0  0  0  0  0  0  0  0  0  0  0
   58.7040   28.8650   45.6990 C   0  0  0  0  0  0  0  0  0  0  0  0
   59.7926   29.0081   45.7665 H   0  0  0  0  0  0  0  0  0  0  0  0
   58.4059   28.7981   44.6423 H   0  0  0  0  0  0  0  0  0  0  0  0
   58.3220   27.5960   46.4060 C   0  0  0  0  0  0  0  0  0  0  0  0
   59.2210   26.9470   47.0030 O   0  0  0  0  0  0  0  0  0  0  0  0
   56.9660   27.1200   46.4840 N   0  0  0  0  0  0  0  0  0  0  0  0
   56.4240   26.1060   45.8750 C   0  0  0  0  0  0  0  0  0  0  0  0
   55.1090   25.8270   45.9950 N   0  0  0  0  0  0  0  0  0  0  0  0
   54.7510   24.7130   45.2990 C   0  0  0  0  0  0  0  0  0  0  0  0
   53.3330   24.2340   45.2940 C   0  0  0  0  0  0  0  0  0  0  0  0
   52.9823   24.1155   46.3299 H   0  0  0  0  0  0  0  0  0  0  0  0
   52.6998   24.9681   44.7742 H   0  0  0  0  0  0  0  0  0  0  0  0
   53.2747   23.2663   44.7742 H   0  0  0  0  0  0  0  0  0  0  0  0
   55.8030   24.0830   44.6190 C   0  0  0  0  0  0  0  0  0  0  0  0
   55.7470   22.8710   43.7840 C   0  0  0  0  0  0  0  0  0  0  0  0
   55.5250   22.9820   42.5470 O   0  0  0  0  0  0  0  0  0  0  0  0
   55.9280   21.6070   44.3560 O   0  0  0  0  0  0  0  0  0  0  0  0
   57.1860   21.1260   44.8240 C   0  0  0  0  0  0  0  0  0  0  0  0
   57.2629   20.0493   44.6122 H   0  0  0  0  0  0  0  0  0  0  0  0
   57.2541   21.3065   45.9069 H   0  0  0  0  0  0  0  0  0  0  0  0
   58.3310   21.8560   44.1310 C   0  0  0  0  0  0  0  0  0  0  0  0
   59.0039   22.2850   44.8881 H   0  0  0  0  0  0  0  0  0  0  0  0
   58.8905   21.1475   43.5024 H   0  0  0  0  0  0  0  0  0  0  0  0
   57.9248   22.6622   43.5024 H   0  0  0  0  0  0  0  0  0  0  0  0
   57.2080   24.9600   44.9180 S   0  0  0  0  0  0  0  0  0  0  0  0
   57.2720   31.8290   44.9830 C   0  0  0  0  0  0  0  0  0  0  0  0
   56.2600   30.9860   44.5020 O   0  0  0  0  0  0  0  0  0  0  0  0
   56.4260   30.0490   43.4420 C   0  0  0  0  0  0  0  0  0  0  0  0
   56.6034   29.0479   43.8620 H   0  0  0  0  0  0  0  0  0  0  0  0
   55.5170   30.0311   42.8227 H   0  0  0  0  0  0  0  0  0  0  0  0
   57.2858   30.3444   42.8227 H   0  0  0  0  0  0  0  0  0  0  0  0
   57.3980   33.1670   44.5600 C   0  0  0  0  0  0  0  0  0  0  0  0
   56.6814   33.5821   43.8360 H   0  0  0  0  0  0  0  0  0  0  0  0
  1  2  1  0
  2  3  2  0
  3  4  1  0
  3  5  1  0
  5  6  1  0
  5  7  2  0
  7  8  1  0
  8  9  1  0
  9 10  1  0
  9 11  1  0
  9 12  1  0
 12 13  2  0
 12 14  1  0
 14 15  2  0
 15 16  1  0
 16 17  1  0
 17 18  1  0
 18 19  1  0
 18 20  1  0
 18 21  1  0
 17 22  2  0
 22 23  1  0
 23 24  2  0
 23 25  1  0
 25 26  1  0
 26 27  1  0
 26 28  1  0
 26 29  1  0
 29 30  1  0
 29 31  1  0
 29 32  1  0
 22 33  1  0
  7 34  1  0
 34 35  1  0
 35 36  1  0
 36 37  1  0
 36 38  1  0
 36 39  1  0
 34 40  2  0
 40 41  1  0
 40  2  1  0
 33 15  1  0
M  CHG  1  16  -1
M  END
>  <UniqueID>  (64) 
58

>  <SMILES>  (64) 
CCOC(=O)c1s/c(=N\C(=O)COc2ccccc2OC)[n-]c1C

>  <Energy>  (64) 
69.63256669903488

>  <Genealogy>  (64) 
CCOC(=O)c1sc(=NC(=O)COc2ccccc2OC)[n-]c1C (protonated)
CCOC(=O)c1s/c(=N\C(=O)COc2ccccc2OC)[n-]c1C (cis-trans isomerization)
CCOC(=O)c1s/c(=N\C(=O)COc2ccccc2OC)[n-]c1C (3D coordinates assigned)
CCOC(=O)c1s/c(=N\C(=O)COc2ccccc2OC)[n-]c1C (optimized conformer: 69.63256669903488 kcal/mol)

>  <smiles>  (64) 
CCOC(=O)c1sc(=NC(=O)COc2ccccc2OC)[nH]c1C

>  <score_type>  (64) 
oracle

>  <origin>  (64) 
adg

>  <m_score__min__energy>  (64) 
-9.0099999999999998

>  <m_primary>  (64) 
energy

$$$$
65:0
     RDKit          3D

 52 55  0  0  1  0  0  0  0  0999 V2000
   58.4210   32.4370   47.9600 O   0  0  0  0  0  0  0  0  0  0  0  0
   59.0920   32.1300   48.9750 C   0  0  0  0  0  0  0  0  0  0  0  0
   59.3410   33.2020   49.9480 C   0  0  0  0  0  0  0  0  0  0  0  0
   60.5920   33.5170   50.2890 C   0  0  0  0  0  0  0  0  0  0  0  0
   61.5540   33.5540   49.2510 N   0  0  0  0  0  0  0  0  0  0  0  0
   61.3530   34.1780   47.9810 C   0  0  0  0  0  0  0  0  0  0  0  0
   61.8580   33.4190   46.8010 C   0  0  0  0  0  0  0  0  0  0  0  0
   62.9440   32.4370   47.0820 C   0  0  0  0  0  0  0  0  0  0  0  0
   62.9030   31.7970   48.4300 C   0  0  0  0  0  0  0  0  0  0  0  0
   62.8510   32.9080   49.4860 C   0  0  0  0  0  0  0  0  0  0  0  0
   59.6110   30.8430   49.2340 N   0  0  0  0  0  0  0  0  0  0  0  0
   59.4370   29.7240   48.3700 C   0  0  0  0  0  0  0  0  0  0  0  0
   58.4960   29.7480   47.3640 C   0  0  0  0  0  0  0  0  0  0  0  0
   58.3900   28.6060   46.5610 C   0  0  0  0  0  0  0  0  0  0  0  0
   57.4780   28.5300   45.5260 C   0  0  0  0  0  0  0  0  0  0  0  0
   56.6940   29.5270   45.2790 N   0  0  0  0  0  0  0  0  0  0  0  0
   57.1370   30.6050   44.4550 C   0  0  0  0  0  0  0  0  0  0  0  0
   57.0330   30.5750   43.0730 C   0  0  0  0  0  0  0  0  0  0  0  0
   57.4590   31.6090   42.2760 C   0  0  0  0  0  0  0  0  0  0  0  0
   58.0110   32.7230   42.8660 C   0  0  0  0  0  0  0  0  0  0  0  0
   58.1240   32.7760   44.2430 C   0  0  0  0  0  0  0  0  0  0  0  0
   58.8820   34.3020   45.0480 Br  0  0  0  0  0  0  0  0  0  0  0  0
   57.6990   31.7410   45.0330 C   0  0  0  0  0  0  0  0  0  0  0  0
   57.4170   27.4030   44.7790 N   0  0  0  0  0  0  0  0  0  0  0  0
   58.2200   26.3490   45.0120 C   0  0  0  0  0  0  0  0  0  0  0  0
   59.1090   26.4270   46.0230 N   0  0  0  0  0  0  0  0  0  0  0  0
   59.2210   27.5220   46.8060 C   0  0  0  0  0  0  0  0  0  0  0  0
   60.1550   27.5140   47.8130 C   0  0  0  0  0  0  0  0  0  0  0  0
   60.2610   28.6340   48.6050 C   0  0  0  0  0  0  0  0  0  0  0  0
   61.1940   28.6600   49.6310 O   0  0  0  0  0  0  0  0  0  0  0  0
   58.4958   33.7453   50.3957 H   0  0  0  0  0  0  0  0  0  0  0  0
   60.8641   33.7384   51.3316 H   0  0  0  0  0  0  0  0  0  0  0  0
   60.2720   34.3313   47.8470 H   0  0  0  0  0  0  0  0  0  0  0  0
   61.9354   35.1107   48.0095 H   0  0  0  0  0  0  0  0  0  0  0  0
   61.0107   32.8703   46.3639 H   0  0  0  0  0  0  0  0  0  0  0  0
   62.2981   34.1690   46.1273 H   0  0  0  0  0  0  0  0  0  0  0  0
   62.8826   31.6395   46.3269 H   0  0  0  0  0  0  0  0  0  0  0  0
   63.8827   33.0095   47.0495 H   0  0  0  0  0  0  0  0  0  0  0  0
   62.0090   31.1616   48.5136 H   0  0  0  0  0  0  0  0  0  0  0  0
   63.7946   31.1706   48.5807 H   0  0  0  0  0  0  0  0  0  0  0  0
   62.9008   32.4867   50.5009 H   0  0  0  0  0  0  0  0  0  0  0  0
   63.6955   33.6086   49.4083 H   0  0  0  0  0  0  0  0  0  0  0  0
   60.1590   30.6730   50.1050 H   0  0  0  0  0  0  0  0  0  0  0  0
   57.8554   30.6268   47.1987 H   0  0  0  0  0  0  0  0  0  0  0  0
   56.5917   29.6876   42.5958 H   0  0  0  0  0  0  0  0  0  0  0  0
   57.3605   31.5477   41.1821 H   0  0  0  0  0  0  0  0  0  0  0  0
   58.3591   33.5636   42.2478 H   0  0  0  0  0  0  0  0  0  0  0  0
   57.8017   31.8070   46.1262 H   0  0  0  0  0  0  0  0  0  0  0  0
   56.7340   27.2990   43.9770 H   0  0  0  0  0  0  0  0  0  0  0  0
   58.1529   25.4433   44.3913 H   0  0  0  0  0  0  0  0  0  0  0  0
   60.7990   26.6383   47.9812 H   0  0  0  0  0  0  0  0  0  0  0  0
   61.9190   29.3610   49.6650 H   0  0  0  0  0  0  0  0  0  0  0  0
  1  2  2  0
  2  3  1  0
  3  4  2  0
  4  5  1  0
  5  6  1  0
  6  7  1  0
  7  8  1  0
  8  9  1  0
  9 10  1  0
  2 11  1  0
 11 12  1  0
 12 13  2  0
 13 14  1  0
 14 15  1  0
 15 16  2  0
 16 17  1  0
 17 18  2  0
 18 19  1  0
 19 20  2  0
 20 21  1  0
 21 22  1  0
 21 23  2  0
 15 24  1  0
 24 25  1  0
 25 26  2  0
 26 27  1  0
 27 28  1  0
 28 29  2  0
 29 30  1  0
 10  5  1  0
 29 12  1  0
 27 14  2  0
 23 17  1  0
  3 31  1  0
  4 32  1  0
  6 33  1  0
  6 34  1  0
  7 35  1  0
  7 36  1  0
  8 37  1  0
  8 38  1  0
  9 39  1  0
  9 40  1  0
 10 41  1  0
 10 42  1  0
 11 43  1  0
 13 44  1  0
 18 45  1  0
 19 46  1  0
 20 47  1  0
 23 48  1  0
 24 49  1  0
 25 50  1  0
 28 51  1  0
 30 52  1  0
M  END
>  <smiles>  (65) 
O=C(C=CN1CCCCC1)Nc1cc2c(=Nc3cccc(Br)c3)[nH]cnc2cc1O

>  <score_type>  (65) 
oracle

>  <origin>  (65) 
adg

>  <m_score__min__energy>  (65) 
-9.0800000000000001

>  <m_primary>  (65) 
energy

$$$$
66:0
     RDKit          3D

 37 39  0  0  0  0  0  0  0  0999 V2000
   58.1640   35.3993   46.5065 H   0  0  0  0  0  0  0  0  0  0  0  0
   58.2070   34.3620   46.1430 C   0  0  0  0  0  0  0  0  0  0  0  0
   57.7940   34.0610   44.8430 C   0  0  0  0  0  0  0  0  0  0  0  0
   57.4299   34.8619   44.1827 H   0  0  0  0  0  0  0  0  0  0  0  0
   57.8430   32.7440   44.3810 C   0  0  0  0  0  0  0  0  0  0  0  0
   57.4380   32.4530   43.1200 F   0  0  0  0  0  0  0  0  0  0  0  0
   58.3100   31.7250   45.2180 C   0  0  0  0  0  0  0  0  0  0  0  0
   58.3414   30.6884   44.8514 H   0  0  0  0  0  0  0  0  0  0  0  0
   58.7400   32.0170   46.5260 C   0  0  0  0  0  0  0  0  0  0  0  0
   59.2270   30.9270   47.4080 C   0  0  0  0  0  0  0  0  0  0  0  0
   59.5770   31.2020   48.5890 O   0  0  0  0  0  0  0  0  0  0  0  0
   59.2710   29.5650   46.9460 N   0  0  0  0  0  0  0  0  0  0  0  0
   58.7470   29.3070   46.0810 H   0  0  0  0  0  0  0  0  0  0  0  0
   59.9630   28.5110   47.6290 C   0  0  0  0  0  0  0  0  0  0  0  0
   60.6160   28.7540   48.6800 O   0  0  0  0  0  0  0  0  0  0  0  0
   59.8380   27.1670   47.1350 N   0  0  0  0  0  0  0  0  0  0  0  0
   58.7720   26.5280   46.7400 C   0  0  0  0  0  0  0  0  0  0  0  0
   58.8930   25.1870   46.4620 N   0  0  0  0  0  0  0  0  0  0  0  0
   57.8410   24.4170   46.0520 C   0  0  0  0  0  0  0  0  0  0  0  0
   57.9700   23.3468   45.8329 H   0  0  0  0  0  0  0  0  0  0  0  0
   56.6060   25.0320   45.9220 C   0  0  0  0  0  0  0  0  0  0  0  0
   55.3630   24.5880   45.5570 C   0  0  0  0  0  0  0  0  0  0  0  0
   55.0370   23.2810   45.1860 O   0  0  0  0  0  0  0  0  0  0  0  0
   55.8980   22.4580   44.4030 C   0  0  0  0  0  0  0  0  0  0  0  0
   55.4044   21.4926   44.2174 H   0  0  0  0  0  0  0  0  0  0  0  0
   56.8386   22.3060   44.9528 H   0  0  0  0  0  0  0  0  0  0  0  0
   56.2120   23.1240   43.0690 C   0  0  0  0  0  0  0  0  0  0  0  0
   56.6748   24.1055   43.2491 H   0  0  0  0  0  0  0  0  0  0  0  0
   56.9063   22.4906   42.4974 H   0  0  0  0  0  0  0  0  0  0  0  0
   55.2816   23.2567   42.4974 H   0  0  0  0  0  0  0  0  0  0  0  0
   54.4900   25.6220   45.6220 N   0  0  0  0  0  0  0  0  0  0  0  0
   55.1520   26.7080   46.0190 N   0  0  0  0  0  0  0  0  0  0  0  0
   56.4390   26.3510   46.1990 C   0  0  0  0  0  0  0  0  0  0  0  0
   57.4970   27.1490   46.6200 C   0  0  0  0  0  0  0  0  0  0  0  0
   57.3546   28.2151   46.8505 H   0  0  0  0  0  0  0  0  0  0  0  0
   58.6750   33.3470   46.9830 C   0  0  0  0  0  0  0  0  0  0  0  0
   58.9944   33.5892   48.0074 H   0  0  0  0  0  0  0  0  0  0  0  0
  1  2  1  0
  2  3  2  0
  3  4  1  0
  3  5  1  0
  5  6  1  0
  5  7  2  0
  7  8  1  0
  7  9  1  0
  9 10  1  0
 10 11  2  0
 10 12  1  0
 12 13  1  0
 12 14  1  0
 14 15  2  0
 14 16  1  0
 16 17  2  0
 17 18  1  0
 18 19  1  0
 19 20  1  0
 19 21  2  0
 21 22  1  0
 22 23  1  0
 23 24  1  0
 24 25  1  0
 24 26  1  0
 24 27  1  0
 27 28  1  0
 27 29  1  0
 27 30  1  0
 22 31  2  0
 31 32  1  0
 32 33  1  0
 33 34  2  0
 34 35  1  0
  9 36  2  0
 36 37  1  0
 36  2  1  0
 34 17  1  0
 33 21  1  0
M  CHG  2  18  -1  32  -1
M  END
>  <UniqueID>  (66) 
59

>  <SMILES>  (66) 
CCOc1n[n-]c2c/c(=N\C(=O)NC(=O)c3cccc(F)c3)[n-]cc12

>  <Energy>  (66) 
86.05370821986276

>  <Genealogy>  (66) 
CCOc1n[n-]c2cc(=NC(=O)NC(=O)c3cccc(F)c3)[n-]cc12 (protonated)
CCOc1n[n-]c2c/c(=N\C(=O)NC(=O)c3cccc(F)c3)[n-]cc12 (cis-trans isomerization)
CCOc1n[n-]c2c/c(=N\C(=O)NC(=O)c3cccc(F)c3)[n-]cc12 (3D coordinates assigned)
CCOc1n[n-]c2c/c(=N\C(=O)NC(=O)c3cccc(F)c3)[n-]cc12 (optimized conformer: 86.05370821986276 kcal/mol)

>  <smiles>  (66) 
CCOc1n[nH]c2cc(=NC(=O)NC(=O)c3cccc(F)c3)[nH]cc12

>  <score_type>  (66) 
oracle

>  <origin>  (66) 
adg

>  <m_score__min__energy>  (66) 
-10.869999999999999

>  <m_primary>  (66) 
energy

$$$$
67:0
     RDKit          3D

 32 34  0  0  0  0  0  0  0  0999 V2000
   60.0759   35.8564   45.6951 H   0  0  0  0  0  0  0  0  0  0  0  0
   59.5190   34.9080   45.7150 C   0  0  0  0  0  0  0  0  0  0  0  0
   58.0940   34.5830   44.8790 S   0  0  0  0  0  0  0  0  0  0  0  0
   57.9820   33.0050   45.4620 C   0  0  0  0  0  0  0  0  0  0  0  0
   57.0540   32.1340   45.1840 N   0  0  0  0  0  0  0  0  0  0  0  0
   57.1290   31.0230   44.2720 C   0  0  0  0  0  0  0  0  0  0  0  0
   56.8970   31.1890   43.0450 O   0  0  0  0  0  0  0  0  0  0  0  0
   57.4850   29.6730   44.7870 C   0  0  0  0  0  0  0  0  0  0  0  0
   58.8420   29.3380   44.9840 C   0  0  0  0  0  0  0  0  0  0  0  0
   59.6239   30.0769   44.7548 H   0  0  0  0  0  0  0  0  0  0  0  0
   59.2020   28.0780   45.4670 C   0  0  0  0  0  0  0  0  0  0  0  0
   60.2634   27.8309   45.6168 H   0  0  0  0  0  0  0  0  0  0  0  0
   58.2200   27.1320   45.7600 C   0  0  0  0  0  0  0  0  0  0  0  0
   58.5073   26.1406   46.1402 H   0  0  0  0  0  0  0  0  0  0  0  0
   56.8740   27.4430   45.5710 C   0  0  0  0  0  0  0  0  0  0  0  0
   56.1021   26.6943   45.8026 H   0  0  0  0  0  0  0  0  0  0  0  0
   56.4990   28.7030   45.0880 C   0  0  0  0  0  0  0  0  0  0  0  0
   55.1460   28.9720   44.9140 O   0  0  0  0  0  0  0  0  0  0  0  0
   59.0110   32.7180   46.2880 N   0  0  0  0  0  0  0  0  0  0  0  0
   59.1360   31.7830   46.7360 H   0  0  0  0  0  0  0  0  0  0  0  0
   59.8730   33.7650   46.4390 C   0  0  0  0  0  0  0  0  0  0  0  0
   61.0790   33.6890   47.3010 C   0  0  0  0  0  0  0  0  0  0  0  0
   60.9760   33.8940   48.6900 C   0  0  0  0  0  0  0  0  0  0  0  0
   59.9958   34.1121   49.1391 H   0  0  0  0  0  0  0  0  0  0  0  0
   62.1130   33.8220   49.5030 C   0  0  0  0  0  0  0  0  0  0  0  0
   62.0237   33.9832   50.5875 H   0  0  0  0  0  0  0  0  0  0  0  0
   63.3600   33.5460   48.9400 C   0  0  0  0  0  0  0  0  0  0  0  0
   64.2523   33.4893   49.5808 H   0  0  0  0  0  0  0  0  0  0  0  0
   63.4750   33.3420   47.5640 C   0  0  0  0  0  0  0  0  0  0  0  0
   64.4584   33.1249   47.1216 H   0  0  0  0  0  0  0  0  0  0  0  0
   62.3430   33.4130   46.7470 C   0  0  0  0  0  0  0  0  0  0  0  0
   62.4408   33.2520   45.6633 H   0  0  0  0  0  0  0  0  0  0  0  0
  1  2  1  0
  2  3  1  0
  3  4  1  0
  4  5  2  0
  5  6  1  0
  6  7  2  0
  6  8  1  0
  8  9  2  0
  9 10  1  0
  9 11  1  0
 11 12  1  0
 11 13  2  0
 13 14  1  0
 13 15  1  0
 15 16  1  0
 15 17  2  0
 17 18  1  0
  4 19  1  0
 19 20  1  0
 19 21  1  0
 21 22  1  0
 22 23  2  0
 23 24  1  0
 23 25  1  0
 25 26  1  0
 25 27  2  0
 27 28  1  0
 27 29  1  0
 29 30  1  0
 29 31  2  0
 31 32  1  0
 21  2  2  0
 31 22  1  0
 17  8  1  0
M  CHG  1  18  -1
M  END
>  <UniqueID>  (67) 
60

>  <SMILES>  (67) 
O=C(/N=c1/[nH]c(-c2ccccc2)cs1)c1ccccc1[O-]

>  <Energy>  (67) 
74.3137651592858

>  <Genealogy>  (67) 
O=C(N=c1[nH]c(-c2ccccc2)cs1)c1ccccc1[O-] (protonated)
O=C(/N=c1/[nH]c(-c2ccccc2)cs1)c1ccccc1[O-] (cis-trans isomerization)
O=C(/N=c1/[nH]c(-c2ccccc2)cs1)c1ccccc1[O-] (3D coordinates assigned)
O=C(/N=c1/[nH]c(-c2ccccc2)cs1)c1ccccc1[O-] (optimized conformer: 74.3137651592858 kcal/mol)

>  <smiles>  (67) 
O=C(N=c1[nH]c(-c2ccccc2)cs1)c1ccccc1O

>  <score_type>  (67) 
oracle

>  <origin>  (67) 
adg

>  <m_score__min__energy>  (67) 
-11.73

>  <m_primary>  (67) 
energy

$$$$
68:0
     RDKit          3D

 36 37  0  0  0  0  0  0  0  0999 V2000
   57.7480   32.9460   44.7740 C   0  0  0  0  0  0  0  0  0  0  0  0
   58.1490   32.5610   43.5590 C   0  0  0  0  0  0  0  0  0  0  0  0
   57.4240   31.4840   42.8000 C   0  0  0  0  0  0  0  0  0  0  0  0
   57.5700   30.1870   43.4600 N   0  0  0  0  0  0  0  0  0  0  0  0
   56.5410   29.6520   44.2970 C   0  0  0  0  0  0  0  0  0  0  0  0
   55.4850   30.3110   44.5030 O   0  0  0  0  0  0  0  0  0  0  0  0
   56.7490   28.4180   44.9250 O   0  0  0  0  0  0  0  0  0  0  0  0
   57.9970   27.8980   45.3040 C   0  0  0  0  0  0  0  0  0  0  0  0
   59.0930   28.7420   45.5680 C   0  0  0  0  0  0  0  0  0  0  0  0
   60.3140   28.2060   45.9870 C   0  0  0  0  0  0  0  0  0  0  0  0
   60.4500   26.8280   46.1620 C   0  0  0  0  0  0  0  0  0  0  0  0
   59.3680   25.9820   45.9180 C   0  0  0  0  0  0  0  0  0  0  0  0
   58.1390   26.5050   45.4820 C   0  0  0  0  0  0  0  0  0  0  0  0
   57.0060   25.5840   45.2260 C   0  0  0  0  0  0  0  0  0  0  0  0
   57.1390   24.5490   44.2910 C   0  0  0  0  0  0  0  0  0  0  0  0
   56.1020   23.6920   44.0460 N   0  0  0  0  0  0  0  0  0  0  0  0
   56.2650   22.6060   43.0730 C   0  0  0  0  0  0  0  0  0  0  0  0
   54.9190   23.8450   44.7180 C   0  0  0  0  0  0  0  0  0  0  0  0
   53.9560   23.0580   44.5100 O   0  0  0  0  0  0  0  0  0  0  0  0
   54.7680   24.8500   45.6170 N   0  0  0  0  0  0  0  0  0  0  0  0
   55.7740   25.7210   45.8820 C   0  0  0  0  0  0  0  0  0  0  0  0
   55.5790   26.6540   46.7060 O   0  0  0  0  0  0  0  0  0  0  0  0
   58.2952   33.7362   45.3090 H   0  0  0  0  0  0  0  0  0  0  0  0
   56.8707   32.4728   45.2392 H   0  0  0  0  0  0  0  0  0  0  0  0
   59.0277   33.0418   43.1044 H   0  0  0  0  0  0  0  0  0  0  0  0
   56.3558   31.7406   42.7439 H   0  0  0  0  0  0  0  0  0  0  0  0
   57.8577   31.4142   41.7915 H   0  0  0  0  0  0  0  0  0  0  0  0
   58.4390   29.6210   43.3260 H   0  0  0  0  0  0  0  0  0  0  0  0
   58.9875   29.8299   45.4437 H   0  0  0  0  0  0  0  0  0  0  0  0
   61.1688   28.8711   46.1791 H   0  0  0  0  0  0  0  0  0  0  0  0
   61.4116   26.4085   46.4927 H   0  0  0  0  0  0  0  0  0  0  0  0
   59.4778   24.8978   46.0680 H   0  0  0  0  0  0  0  0  0  0  0  0
   58.0877   24.4245   43.7483 H   0  0  0  0  0  0  0  0  0  0  0  0
   56.4078   21.6545   43.6061 H   0  0  0  0  0  0  0  0  0  0  0  0
   55.3665   22.5414   42.4417 H   0  0  0  0  0  0  0  0  0  0  0  0
   57.1429   22.8080   42.4417 H   0  0  0  0  0  0  0  0  0  0  0  0
  1  2  2  0
  2  3  1  0
  3  4  1  0
  4  5  1  0
  5  6  2  0
  5  7  1  0
  7  8  1  0
  8  9  2  0
  9 10  1  0
 10 11  2  0
 11 12  1  0
 12 13  2  0
 13 14  1  0
 14 15  2  0
 15 16  1  0
 16 17  1  0
 16 18  1  0
 18 19  2  0
 18 20  1  0
 20 21  1  0
 21 22  2  0
 13  8  1  0
 21 14  1  0
  1 23  1  0
  1 24  1  0
  2 25  1  0
  3 26  1  0
  3 27  1  0
  4 28  1  0
  9 29  1  0
 10 30  1  0
 11 31  1  0
 12 32  1  0
 15 33  1  0
 17 34  1  0
 17 35  1  0
 17 36  1  0
M  CHG  1  20  -1
M  END
>  <UniqueID>  (68) 
61

>  <SMILES>  (68) 
C=CCNC(=O)Oc1ccccc1-c1cn(C)c(=O)[n-]c1=O

>  <Energy>  (68) 
45.46667676796786

>  <Genealogy>  (68) 
C=CCNC(=O)Oc1ccccc1-c1cn(C)c(=O)[n-]c1=O (protonated)
C=CCNC(=O)Oc1ccccc1-c1cn(C)c(=O)[n-]c1=O (3D coordinates assigned)
C=CCNC(=O)Oc1ccccc1-c1cn(C)c(=O)[n-]c1=O (optimized conformer: 45.46667676796786 kcal/mol)

>  <smiles>  (68) 
C=CCNC(=O)Oc1ccccc1-c1cn(C)c(=O)[nH]c1=O

>  <score_type>  (68) 
oracle

>  <origin>  (68) 
adg

>  <m_score__min__energy>  (68) 
-9.5299999999999994

>  <m_primary>  (68) 
energy

$$$$
69:0
     RDKit          3D

 43 46  0  0  0  0  0  0  0  0999 V2000
   56.2740   30.6940   44.4980 O   0  0  0  0  0  0  0  0  0  0  0  0
   57.4010   31.1830   44.7840 C   0  0  0  0  0  0  0  0  0  0  0  0
   57.5600   32.6700   44.8380 C   0  0  0  0  0  0  0  0  0  0  0  0
   58.4940   33.0470   45.9530 C   0  0  0  0  0  0  0  0  0  0  0  0
   59.8350   33.0650   45.7160 N   0  0  0  0  0  0  0  0  0  0  0  0
   60.7220   33.4240   46.6820 C   0  0  0  0  0  0  0  0  0  0  0  0
   62.0960   33.4320   46.4210 C   0  0  0  0  0  0  0  0  0  0  0  0
   62.9930   33.7980   47.4320 C   0  0  0  0  0  0  0  0  0  0  0  0
   62.5190   34.1590   48.6990 C   0  0  0  0  0  0  0  0  0  0  0  0
   61.1440   34.1580   48.9620 C   0  0  0  0  0  0  0  0  0  0  0  0
   60.2430   33.7920   47.9560 C   0  0  0  0  0  0  0  0  0  0  0  0
   58.9050   33.7880   48.1910 N   0  0  0  0  0  0  0  0  0  0  0  0
   58.0200   33.4320   47.2230 C   0  0  0  0  0  0  0  0  0  0  0  0
   56.7860   33.4510   47.4750 O   0  0  0  0  0  0  0  0  0  0  0  0
   58.5460   30.3330   44.9590 N   0  0  0  0  0  0  0  0  0  0  0  0
   58.4790   28.9030   45.0880 C   0  0  0  0  0  0  0  0  0  0  0  0
   58.1500   28.1270   43.9660 C   0  0  0  0  0  0  0  0  0  0  0  0
   58.1030   26.7340   44.0570 C   0  0  0  0  0  0  0  0  0  0  0  0
   58.3980   26.0960   45.2680 C   0  0  0  0  0  0  0  0  0  0  0  0
   58.3120   24.3410   45.4060 S   0  0  0  0  0  0  0  0  0  0  0  0
   58.1260   23.7060   44.0560 O   0  0  0  0  0  0  0  0  0  0  0  0
   59.5970   23.8340   45.9970 O   0  0  0  0  0  0  0  0  0  0  0  0
   56.9950   23.8970   46.4460 N   0  0  0  0  0  0  0  0  0  0  0  0
   55.7400   23.9970   46.1260 C   0  0  0  0  0  0  0  0  0  0  0  0
   55.1460   25.1900   45.9150 N   0  0  0  0  0  0  0  0  0  0  0  0
   53.8330   25.0470   45.5920 C   0  0  0  0  0  0  0  0  0  0  0  0
   53.3750   23.7340   45.5430 C   0  0  0  0  0  0  0  0  0  0  0  0
   54.6620   22.7180   45.9190 S   0  0  0  0  0  0  0  0  0  0  0  0
   58.7510   26.8620   46.3840 C   0  0  0  0  0  0  0  0  0  0  0  0
   58.7990   28.2560   46.2950 C   0  0  0  0  0  0  0  0  0  0  0  0
   57.9708   33.0273   43.8822 H   0  0  0  0  0  0  0  0  0  0  0  0
   56.5780   33.1318   45.0180 H   0  0  0  0  0  0  0  0  0  0  0  0
   62.4705   33.1519   45.4254 H   0  0  0  0  0  0  0  0  0  0  0  0
   64.0743   33.8019   47.2300 H   0  0  0  0  0  0  0  0  0  0  0  0
   63.2287   34.4441   49.4896 H   0  0  0  0  0  0  0  0  0  0  0  0
   60.7728   34.4443   49.9571 H   0  0  0  0  0  0  0  0  0  0  0  0
   59.4900   30.7760   44.8970 H   0  0  0  0  0  0  0  0  0  0  0  0
   57.9275   28.6194   43.0078 H   0  0  0  0  0  0  0  0  0  0  0  0
   57.8332   26.1360   43.1741 H   0  0  0  0  0  0  0  0  0  0  0  0
   53.1798   25.9074   45.3844 H   0  0  0  0  0  0  0  0  0  0  0  0
   52.3503   23.4159   45.3007 H   0  0  0  0  0  0  0  0  0  0  0  0
   58.9918   26.3652   47.3354 H   0  0  0  0  0  0  0  0  0  0  0  0
   59.0887   28.8504   47.1740 H   0  0  0  0  0  0  0  0  0  0  0  0
  1  2  2  0
  2  3  1  0
  3  4  1  0
  4  5  2  0
  5  6  1  0
  6  7  2  0
  7  8  1  0
  8  9  2  0
  9 10  1  0
 10 11  2  0
 11 12  1  0
 12 13  1  0
 13 14  2  0
  2 15  1  0
 15 16  1  0
 16 17  2  0
 17 18  1  0
 18 19  2  0
 19 20  1  0
 20 21  2  0
 20 22  2  0
 20 23  1  0
 23 24  2  3
 24 25  1  0
 25 26  1  0
 26 27  2  0
 27 28  1  0
 19 29  1  0
 29 30  2  0
 13  4  1  0
 30 16  1  0
 11  6  1  0
 28 24  1  0
  3 31  1  0
  3 32  1  0
  7 33  1  0
  8 34  1  0
  9 35  1  0
 10 36  1  0
 15 37  1  0
 17 38  1  0
 18 39  1  0
 26 40  1  0
 27 41  1  0
 29 42  1  0
 30 43  1  0
M  CHG  2  12  -1  25  -1
M  END
>  <UniqueID>  (69) 
62

>  <SMILES>  (69) 
O=C(Cc1nc2ccccc2[n-]c1=O)Nc1ccc(S(=O)(=O)N=c2[n-]ccs2)cc1

>  <Energy>  (69) 
86.9792995560962

>  <Genealogy>  (69) 
O=C(Cc1nc2ccccc2[n-]c1=O)Nc1ccc(S(=O)(=O)N=c2[n-]ccs2)cc1 (protonated)
O=C(Cc1nc2ccccc2[n-]c1=O)Nc1ccc(S(=O)(=O)N=c2[n-]ccs2)cc1 (3D coordinates assigned)
O=C(Cc1nc2ccccc2[n-]c1=O)Nc1ccc(S(=O)(=O)N=c2[n-]ccs2)cc1 (optimized conformer: 86.9792995560962 kcal/mol)

>  <smiles>  (69) 
O=C(Cc1nc2ccccc2[nH]c1=O)Nc1ccc(S(=O)(=O)N=c2[nH]ccs2)cc1

>  <score_type>  (69) 
oracle

>  <origin>  (69) 
adg

>  <m_score__min__energy>  (69) 
-11.449999999999999

>  <m_primary>  (69) 
energy

$$$$
70:0
     RDKit          3D

 62 65  0  0  0  0  0  0  0  0999 V2000
   59.2340   30.1640   48.3020 C   0  0  0  0  0  0  0  0  0  0  0  0
   59.0800   31.3280   47.6660 C   0  0  0  0  0  0  0  0  0  0  0  0
   59.7700   31.6080   46.3610 C   0  0  0  0  0  0  0  0  0  0  0  0
   59.6180   33.0170   45.9810 N   0  0  0  0  0  0  0  0  0  0  0  0
   60.5420   34.0020   46.0180 C   0  0  0  0  0  0  0  0  0  0  0  0
   61.9900   33.8260   46.3690 C   0  0  0  0  0  0  0  0  0  0  0  0
   62.1560   33.5510   47.8400 C   0  0  0  0  0  0  0  0  0  0  0  0
   61.2190   34.0450   48.7650 C   0  0  0  0  0  0  0  0  0  0  0  0
   61.3660   33.7770   50.1290 C   0  0  0  0  0  0  0  0  0  0  0  0
   62.4390   33.0050   50.5790 C   0  0  0  0  0  0  0  0  0  0  0  0
   63.3670   32.4980   49.6670 C   0  0  0  0  0  0  0  0  0  0  0  0
   63.2300   32.7710   48.3030 C   0  0  0  0  0  0  0  0  0  0  0  0
   60.0160   35.1820   45.6330 N   0  0  0  0  0  0  0  0  0  0  0  0
   58.7370   34.9700   45.3600 N   0  0  0  0  0  0  0  0  0  0  0  0
   58.5050   33.6610   45.5720 C   0  0  0  0  0  0  0  0  0  0  0  0
   56.8950   32.9040   45.3270 S   0  0  0  0  0  0  0  0  0  0  0  0
   57.4390   31.7890   43.9830 C   0  0  0  0  0  0  0  0  0  0  0  0
   57.3150   30.3680   44.4320 C   0  0  0  0  0  0  0  0  0  0  0  0
   56.2170   29.9590   44.9010 O   0  0  0  0  0  0  0  0  0  0  0  0
   58.4380   29.4820   44.3350 N   0  0  0  0  0  0  0  0  0  0  0  0
   58.5350   28.2400   45.0490 C   0  0  0  0  0  0  0  0  0  0  0  0
   57.3920   27.4400   45.1790 C   0  0  0  0  0  0  0  0  0  0  0  0
   57.4520   26.2090   45.8470 C   0  0  0  0  0  0  0  0  0  0  0  0
   56.0150   25.1930   45.9680 S   0  0  0  0  0  0  0  0  0  0  0  0
   54.8030   26.0410   45.6940 O   0  0  0  0  0  0  0  0  0  0  0  0
   55.8970   24.6660   47.3720 O   0  0  0  0  0  0  0  0  0  0  0  0
   56.0390   23.8560   44.8330 N   0  0  0  0  0  0  0  0  0  0  0  0
   55.4900   22.6100   45.3980 C   0  0  0  0  0  0  0  0  0  0  0  0
   56.5110   21.8310   46.2540 C   0  0  0  0  0  0  0  0  0  0  0  0
   57.8120   22.3830   46.2090 O   0  0  0  0  0  0  0  0  0  0  0  0
   58.2030   22.5720   44.8700 C   0  0  0  0  0  0  0  0  0  0  0  0
   57.3610   23.6720   44.1970 C   0  0  0  0  0  0  0  0  0  0  0  0
   58.6660   25.7830   46.4010 C   0  0  0  0  0  0  0  0  0  0  0  0
   59.8160   26.5590   46.2500 C   0  0  0  0  0  0  0  0  0  0  0  0
   59.7630   27.7740   45.5610 C   0  0  0  0  0  0  0  0  0  0  0  0
   60.9390   28.4900   45.3630 O   0  0  0  0  0  0  0  0  0  0  0  0
   58.7167   29.9860   49.2563 H   0  0  0  0  0  0  0  0  0  0  0  0
   59.8782   29.3831   47.8716 H   0  0  0  0  0  0  0  0  0  0  0  0
   58.4328   32.1000   48.1078 H   0  0  0  0  0  0  0  0  0  0  0  0
   60.8404   31.3756   46.4623 H   0  0  0  0  0  0  0  0  0  0  0  0
   59.3135   30.9819   45.5803 H   0  0  0  0  0  0  0  0  0  0  0  0
   62.3995   32.9810   45.7961 H   0  0  0  0  0  0  0  0  0  0  0  0
   62.5271   34.7536   46.1218 H   0  0  0  0  0  0  0  0  0  0  0  0
   60.3666   34.6450   48.4136 H   0  0  0  0  0  0  0  0  0  0  0  0
   60.6355   34.1748   50.8488 H   0  0  0  0  0  0  0  0  0  0  0  0
   62.5534   32.7960   51.6529 H   0  0  0  0  0  0  0  0  0  0  0  0
   64.2069   31.8830   50.0225 H   0  0  0  0  0  0  0  0  0  0  0  0
   63.9660   32.3737   47.5886 H   0  0  0  0  0  0  0  0  0  0  0  0
   56.8086   31.9494   43.0960 H   0  0  0  0  0  0  0  0  0  0  0  0
   58.4882   32.0034   43.7314 H   0  0  0  0  0  0  0  0  0  0  0  0
   59.1950   29.7190   43.6520 H   0  0  0  0  0  0  0  0  0  0  0  0
   56.4374   27.7816   44.7523 H   0  0  0  0  0  0  0  0  0  0  0  0
   54.6252   22.8631   46.0289 H   0  0  0  0  0  0  0  0  0  0  0  0
   55.2092   21.9633   44.5537 H   0  0  0  0  0  0  0  0  0  0  0  0
   56.1660   21.8339   47.2985 H   0  0  0  0  0  0  0  0  0  0  0  0
   56.5735   20.8129   45.8422 H   0  0  0  0  0  0  0  0  0  0  0  0
   59.2632   22.8639   44.8430 H   0  0  0  0  0  0  0  0  0  0  0  0
   58.0477   21.6297   44.3241 H   0  0  0  0  0  0  0  0  0  0  0  0
   57.9134   24.6215   44.2550 H   0  0  0  0  0  0  0  0  0  0  0  0
   57.1859   23.3626   43.1560 H   0  0  0  0  0  0  0  0  0  0  0  0
   58.7130   24.8346   46.9563 H   0  0  0  0  0  0  0  0  0  0  0  0
   60.7694   26.2126   46.6755 H   0  0  0  0  0  0  0  0  0  0  0  0
  1  2  2  0
  2  3  1  0
  3  4  1  0
  4  5  1  0
  5  6  1  0
  6  7  1  0
  7  8  2  0
  8  9  1  0
  9 10  2  0
 10 11  1  0
 11 12  2  0
  5 13  2  0
 13 14  1  0
 14 15  2  0
 15 16  1  0
 16 17  1  0
 17 18  1  0
 18 19  2  0
 18 20  1  0
 20 21  1  0
 21 22  2  0
 22 23  1  0
 23 24  1  0
 24 25  2  0
 24 26  2  0
 24 27  1  0
 27 28  1  0
 28 29  1  0
 29 30  1  0
 30 31  1  0
 31 32  1  0
 23 33  2  0
 33 34  1  0
 34 35  2  0
 35 36  1  0
 15  4  1  0
 35 21  1  0
 12  7  1  0
 32 27  1  0
  1 37  1  0
  1 38  1  0
  2 39  1  0
  3 40  1  0
  3 41  1  0
  6 42  1  0
  6 43  1  0
  8 44  1  0
  9 45  1  0
 10 46  1  0
 11 47  1  0
 12 48  1  0
 17 49  1  0
 17 50  1  0
 20 51  1  0
 22 52  1  0
 28 53  1  0
 28 54  1  0
 29 55  1  0
 29 56  1  0
 31 57  1  0
 31 58  1  0
 32 59  1  0
 32 60  1  0
 33 61  1  0
 34 62  1  0
M  CHG  1  36  -1
M  END
>  <UniqueID>  (70) 
63

>  <SMILES>  (70) 
C=CCn1c(Cc2ccccc2)nnc1SCC(=O)Nc1cc(S(=O)(=O)N2CCOCC2)ccc1[O-]

>  <Energy>  (70) 
101.59979557355051

>  <Genealogy>  (70) 
C=CCn1c(Cc2ccccc2)nnc1SCC(=O)Nc1cc(S(=O)(=O)N2CCOCC2)ccc1[O-] (protonated)
C=CCn1c(Cc2ccccc2)nnc1SCC(=O)Nc1cc(S(=O)(=O)N2CCOCC2)ccc1[O-] (3D coordinates assigned)
C=CCn1c(Cc2ccccc2)nnc1SCC(=O)Nc1cc(S(=O)(=O)N2CCOCC2)ccc1[O-] (nonaromatic ring conformer: 101.59979557355051 kcal/mol)

>  <smiles>  (70) 
C=CCn1c(Cc2ccccc2)nnc1SCC(=O)Nc1cc(S(=O)(=O)N2CCOCC2)ccc1O

>  <score_type>  (70) 
oracle

>  <origin>  (70) 
adg

>  <m_score__min__energy>  (70) 
-13.52

>  <m_primary>  (70) 
energy

$$$$
71:0
     RDKit          3D

 33 35  0  0  0  0  0  0  0  0999 V2000
   57.3150   31.9530   41.5500 C   0  0  0  0  0  0  0  0  0  0  0  0
   57.2210   31.3620   42.8780 N   0  0  0  0  0  0  0  0  0  0  0  0
   57.9830   31.6900   43.9410 C   0  0  0  0  0  0  0  0  0  0  0  0
   57.5390   30.9680   45.0310 C   0  0  0  0  0  0  0  0  0  0  0  0
   58.1070   30.9840   46.3940 C   0  0  0  0  0  0  0  0  0  0  0  0
   58.6760   29.9710   47.0550 C   0  0  0  0  0  0  0  0  0  0  0  0
   58.7460   28.5520   46.6420 C   0  0  0  0  0  0  0  0  0  0  0  0
   59.9600   28.0080   46.1950 C   0  0  0  0  0  0  0  0  0  0  0  0
   60.0310   26.6660   45.8080 C   0  0  0  0  0  0  0  0  0  0  0  0
   58.8940   25.8570   45.8670 C   0  0  0  0  0  0  0  0  0  0  0  0
   57.6780   26.3850   46.3190 C   0  0  0  0  0  0  0  0  0  0  0  0
   56.2340   25.3830   46.3970 S   0  0  0  0  0  0  0  0  0  0  0  0
   54.8510   26.3430   46.0090 N   0  0  0  0  0  0  0  0  0  0  0  0
   56.0900   24.8220   47.7840 O   0  0  0  0  0  0  0  0  0  0  0  0
   56.3320   24.2520   45.4120 O   0  0  0  0  0  0  0  0  0  0  0  0
   57.6100   27.7260   46.7200 C   0  0  0  0  0  0  0  0  0  0  0  0
   59.1310   30.4990   48.3450 C   0  0  0  0  0  0  0  0  0  0  0  0
   59.6990   29.8230   49.2420 O   0  0  0  0  0  0  0  0  0  0  0  0
   58.8280   31.8790   48.4920 N   0  0  0  0  0  0  0  0  0  0  0  0
   58.1800   32.1630   47.2590 C   0  0  0  0  0  0  0  0  0  0  0  0
   57.7480   33.3070   46.9580 O   0  0  0  0  0  0  0  0  0  0  0  0
   56.4970   30.2070   44.5290 C   0  0  0  0  0  0  0  0  0  0  0  0
   55.8260   29.3590   45.1720 O   0  0  0  0  0  0  0  0  0  0  0  0
   56.3080   30.4670   43.2240 N   0  0  0  0  0  0  0  0  0  0  0  0
   57.4872   33.0356   41.6418 H   0  0  0  0  0  0  0  0  0  0  0  0
   58.1514   31.4938   41.0027 H   0  0  0  0  0  0  0  0  0  0  0  0
   56.3774   31.7760   41.0027 H   0  0  0  0  0  0  0  0  0  0  0  0
   58.8153   32.4092   43.9400 H   0  0  0  0  0  0  0  0  0  0  0  0
   60.8593   28.6397   46.1489 H   0  0  0  0  0  0  0  0  0  0  0  0
   60.9850   26.2464   45.4561 H   0  0  0  0  0  0  0  0  0  0  0  0
   58.9537   24.8030   45.5579 H   0  0  0  0  0  0  0  0  0  0  0  0
   55.1450   27.3440   46.0760 H   0  0  0  0  0  0  0  0  0  0  0  0
   56.6618   28.1356   47.0984 H   0  0  0  0  0  0  0  0  0  0  0  0
  1  2  1  0
  2  3  1  0
  3  4  2  0
  4  5  1  0
  5  6  2  0
  6  7  1  0
  7  8  2  0
  8  9  1  0
  9 10  2  0
 10 11  1  0
 11 12  1  0
 12 13  1  0
 12 14  2  0
 12 15  2  0
 11 16  2  0
  6 17  1  0
 17 18  2  0
 17 19  1  0
 19 20  1  0
 20 21  2  0
  4 22  1  0
 22 23  2  0
 22 24  1  0
 24  2  1  0
 20  5  1  0
 16  7  1  0
  1 25  1  0
  1 26  1  0
  1 27  1  0
  3 28  1  0
  8 29  1  0
  9 30  1  0
 10 31  1  0
 13 32  1  0
 16 33  1  0
M  CHG  3  13  -1  19  -1  24  -1
M  END
>  <UniqueID>  (71) 
64

>  <SMILES>  (71) 
Cn1cc(C2=C(c3cccc(S([NH-])(=O)=O)c3)C(=O)[N-]C2=O)c(=O)[n-]1

>  <Energy>  (71) 
98.50965870907181

>  <Genealogy>  (71) 
Cn1cc(C2=C(c3cccc(S([NH-])(=O)=O)c3)C(=O)[N-]C2=O)c(=O)[n-]1 (protonated)
Cn1cc(C2=C(c3cccc(S([NH-])(=O)=O)c3)C(=O)[N-]C2=O)c(=O)[n-]1 (3D coordinates assigned)
Cn1cc(C2=C(c3cccc(S([NH-])(=O)=O)c3)C(=O)[N-]C2=O)c(=O)[n-]1 (nonaromatic ring conformer: 98.50965870907181 kcal/mol)

>  <smiles>  (71) 
Cn1cc(C2=C(c3cccc(S(N)(=O)=O)c3)C(=O)NC2=O)c(=O)[nH]1

>  <score_type>  (71) 
oracle

>  <origin>  (71) 
adg

>  <m_score__min__energy>  (71) 
-13.369999999999999

>  <m_primary>  (71) 
energy

$$$$
72:0
     RDKit          3D

 51 54  0  0  0  0  0  0  0  0999 V2000
   56.6300   22.5670   44.0150 C   0  0  0  0  0  0  0  0  0  0  0  0
   57.7730   23.5820   44.1540 C   0  0  0  0  0  0  0  0  0  0  0  0
   57.2930   24.9950   43.7520 C   0  0  0  0  0  0  0  0  0  0  0  0
   58.1220   26.0700   44.4610 C   0  0  0  0  0  0  0  0  0  0  0  0
   57.9370   26.0100   45.9270 N   0  0  0  0  0  0  0  0  0  0  0  0
   59.2210   26.8760   46.7400 S   0  0  0  0  0  0  0  0  0  0  0  0
   59.3030   26.4260   48.1730 O   0  0  0  0  0  0  0  0  0  0  0  0
   60.5310   26.5560   46.0760 O   0  0  0  0  0  0  0  0  0  0  0  0
   58.9550   28.6230   46.6920 C   0  0  0  0  0  0  0  0  0  0  0  0
   59.4540   29.4340   47.7080 C   0  0  0  0  0  0  0  0  0  0  0  0
   59.2750   30.8150   47.6660 C   0  0  0  0  0  0  0  0  0  0  0  0
   58.5810   31.4370   46.5950 C   0  0  0  0  0  0  0  0  0  0  0  0
   58.0630   30.5970   45.5660 C   0  0  0  0  0  0  0  0  0  0  0  0
   58.2560   29.2000   45.6320 C   0  0  0  0  0  0  0  0  0  0  0  0
   57.3640   31.2000   44.5020 C   0  0  0  0  0  0  0  0  0  0  0  0
   56.7220   30.3430   43.2560 S   0  0  0  0  0  0  0  0  0  0  0  0
   57.2030   32.5400   44.4890 N   0  0  0  0  0  0  0  0  0  0  0  0
   57.6950   33.3390   45.4630 C   0  0  0  0  0  0  0  0  0  0  0  0
   57.4950   34.5810   45.3750 O   0  0  0  0  0  0  0  0  0  0  0  0
   58.3970   32.8090   46.5220 N   0  0  0  0  0  0  0  0  0  0  0  0
   58.8990   33.7530   47.5510 C   0  0  0  0  0  0  0  0  0  0  0  0
   60.4090   33.7920   47.5560 C   0  0  0  0  0  0  0  0  0  0  0  0
   61.1300   33.8160   46.3500 C   0  0  0  0  0  0  0  0  0  0  0  0
   62.5290   33.8330   46.3640 C   0  0  0  0  0  0  0  0  0  0  0  0
   63.2190   33.8240   47.5780 C   0  0  0  0  0  0  0  0  0  0  0  0
   62.5120   33.7980   48.7810 C   0  0  0  0  0  0  0  0  0  0  0  0
   61.1140   33.7810   48.7730 C   0  0  0  0  0  0  0  0  0  0  0  0
   57.7680   24.6420   46.4760 C   0  0  0  0  0  0  0  0  0  0  0  0
   58.3810   23.5540   45.5780 C   0  0  0  0  0  0  0  0  0  0  0  0
   56.2867   22.2622   45.0146 H   0  0  0  0  0  0  0  0  0  0  0  0
   55.7957   23.0273   43.4654 H   0  0  0  0  0  0  0  0  0  0  0  0
   56.9884   21.6841   43.4654 H   0  0  0  0  0  0  0  0  0  0  0  0
   58.5790   23.2963   43.4621 H   0  0  0  0  0  0  0  0  0  0  0  0
   57.3989   25.1164   42.6639 H   0  0  0  0  0  0  0  0  0  0  0  0
   56.2396   25.1083   44.0477 H   0  0  0  0  0  0  0  0  0  0  0  0
   59.1856   25.9147   44.2272 H   0  0  0  0  0  0  0  0  0  0  0  0
   57.7865   27.0565   44.1084 H   0  0  0  0  0  0  0  0  0  0  0  0
   59.9946   28.9800   48.5516 H   0  0  0  0  0  0  0  0  0  0  0  0
   59.6795   31.4359   48.4789 H   0  0  0  0  0  0  0  0  0  0  0  0
   57.8496   28.5580   44.8366 H   0  0  0  0  0  0  0  0  0  0  0  0
   58.5135   34.7602   47.3344 H   0  0  0  0  0  0  0  0  0  0  0  0
   58.5530   33.4132   48.5383 H   0  0  0  0  0  0  0  0  0  0  0  0
   60.5920   33.8215   45.3906 H   0  0  0  0  0  0  0  0  0  0  0  0
   63.0868   33.8535   45.4162 H   0  0  0  0  0  0  0  0  0  0  0  0
   64.3189   33.8374   47.5861 H   0  0  0  0  0  0  0  0  0  0  0  0
   63.0557   33.7909   49.7372 H   0  0  0  0  0  0  0  0  0  0  0  0
   60.5621   33.7589   49.7243 H   0  0  0  0  0  0  0  0  0  0  0  0
   58.2538   24.5975   47.4619 H   0  0  0  0  0  0  0  0  0  0  0  0
   56.6878   24.4448   46.5412 H   0  0  0  0  0  0  0  0  0  0  0  0
   59.4661   23.7196   45.5063 H   0  0  0  0  0  0  0  0  0  0  0  0
   58.1624   22.5737   46.0266 H   0  0  0  0  0  0  0  0  0  0  0  0
  1  2  1  0
  2  3  1  0
  3  4  1  0
  4  5  1  0
  5  6  1  0
  6  7  2  0
  6  8  2  0
  6  9  1  0
  9 10  2  0
 10 11  1  0
 11 12  2  0
 12 13  1  0
 13 14  2  0
 13 15  1  0
 15 16  2  0
 15 17  1  0
 17 18  1  0
 18 19  2  0
 18 20  1  0
 20 21  1  0
 21 22  1  0
 22 23  2  0
 23 24  1  0
 24 25  2  0
 25 26  1  0
 26 27  2  0
  5 28  1  0
 28 29  1  0
 29  2  1  0
 14  9  1  0
 27 22  1  0
 20 12  1  0
  1 30  1  0
  1 31  1  0
  1 32  1  0
  2 33  1  0
  3 34  1  0
  3 35  1  0
  4 36  1  0
  4 37  1  0
 10 38  1  0
 11 39  1  0
 14 40  1  0
 21 41  1  0
 21 42  1  0
 23 43  1  0
 24 44  1  0
 25 45  1  0
 26 46  1  0
 27 47  1  0
 28 48  1  0
 28 49  1  0
 29 50  1  0
 29 51  1  0
M  CHG  1  17  -1
M  END
>  <UniqueID>  (72) 
65

>  <SMILES>  (72) 
CC1CCN(S(=O)(=O)c2ccc3c(c2)c(=S)[n-]c(=O)n3Cc2ccccc2)CC1

>  <Energy>  (72) 
72.70850150234017

>  <Genealogy>  (72) 
CC1CCN(S(=O)(=O)c2ccc3c(c2)c(=S)[n-]c(=O)n3Cc2ccccc2)CC1 (protonated)
CC1CCN(S(=O)(=O)c2ccc3c(c2)c(=S)[n-]c(=O)n3Cc2ccccc2)CC1 (3D coordinates assigned)
CC1CCN(S(=O)(=O)c2ccc3c(c2)c(=S)[n-]c(=O)n3Cc2ccccc2)CC1 (nonaromatic ring conformer: 72.70850150234017 kcal/mol)

>  <smiles>  (72) 
CC1CCN(S(=O)(=O)c2ccc3c(c2)c(=S)[nH]c(=O)n3Cc2ccccc2)CC1

>  <score_type>  (72) 
oracle

>  <origin>  (72) 
adg

>  <m_score__min__energy>  (72) 
-10.4

>  <m_primary>  (72) 
energy

$$$$
73:0
     RDKit          3D

 56 59  0  0  0  0  0  0  0  0999 V2000
   58.4890   31.2000   43.4470 C   0  0  0  0  0  0  0  0  0  0  0  0
   58.6420   29.9850   44.3270 C   0  0  0  0  0  0  0  0  0  0  0  0
   59.9300   29.4570   44.5240 C   0  0  0  0  0  0  0  0  0  0  0  0
   60.1190   28.3120   45.3000 C   0  0  0  0  0  0  0  0  0  0  0  0
   59.0250   27.6740   45.8900 C   0  0  0  0  0  0  0  0  0  0  0  0
   59.2550   26.2430   46.8860 S   0  0  0  0  0  0  0  0  0  0  0  0
   57.9310   25.5550   47.0540 O   0  0  0  0  0  0  0  0  0  0  0  0
   60.2020   25.2880   46.2140 O   0  0  0  0  0  0  0  0  0  0  0  0
   59.8610   26.6870   48.4510 N   0  0  0  0  0  0  0  0  0  0  0  0
   60.7410   27.8510   48.3720 C   0  0  0  0  0  0  0  0  0  0  0  0
   59.9990   29.1020   48.7350 C   0  0  0  0  0  0  0  0  0  0  0  0
   59.3240   29.1640   49.9140 N   0  0  0  0  0  0  0  0  0  0  0  0
   58.6020   30.2620   50.2630 C   0  0  0  0  0  0  0  0  0  0  0  0
   57.9100   30.2890   51.5250 N   0  0  0  0  0  0  0  0  0  0  0  0
   58.3190   29.4010   52.6250 C   0  0  0  0  0  0  0  0  0  0  0  0
   57.1290   29.0610   53.5540 C   0  0  0  0  0  0  0  0  0  0  0  0
   55.9480   29.7810   53.2500 O   0  0  0  0  0  0  0  0  0  0  0  0
   56.2410   31.1520   53.1150 C   0  0  0  0  0  0  0  0  0  0  0  0
   56.9770   31.3860   51.7950 C   0  0  0  0  0  0  0  0  0  0  0  0
   58.5750   31.3630   49.3960 C   0  0  0  0  0  0  0  0  0  0  0  0
   59.2710   31.2920   48.1810 C   0  0  0  0  0  0  0  0  0  0  0  0
   59.2480   32.4350   47.2370 C   0  0  0  0  0  0  0  0  0  0  0  0
   60.4220   33.1580   46.9650 C   0  0  0  0  0  0  0  0  0  0  0  0
   60.3960   34.2380   46.0790 C   0  0  0  0  0  0  0  0  0  0  0  0
   59.2010   34.6080   45.4580 C   0  0  0  0  0  0  0  0  0  0  0  0
   58.0320   33.8920   45.7160 C   0  0  0  0  0  0  0  0  0  0  0  0
   58.0520   32.8090   46.5990 C   0  0  0  0  0  0  0  0  0  0  0  0
   59.9670   30.1600   47.8750 N   0  0  0  0  0  0  0  0  0  0  0  0
   57.7410   28.2000   45.7190 C   0  0  0  0  0  0  0  0  0  0  0  0
   57.5300   29.3620   44.9510 C   0  0  0  0  0  0  0  0  0  0  0  0
   56.1910   29.8820   44.8160 N   0  0  0  0  0  0  0  0  0  0  0  0
   55.9970   31.1160   44.8260 O   0  0  0  0  0  0  0  0  0  0  0  0
   55.1410   29.0560   44.4970 O   0  0  0  0  0  0  0  0  0  0  0  0
   58.3762   32.0959   44.0752 H   0  0  0  0  0  0  0  0  0  0  0  0
   59.3807   31.3074   42.8119 H   0  0  0  0  0  0  0  0  0  0  0  0
   57.5985   31.0830   42.8119 H   0  0  0  0  0  0  0  0  0  0  0  0
   60.7975   29.9510   44.0621 H   0  0  0  0  0  0  0  0  0  0  0  0
   61.1326   27.9108   45.4474 H   0  0  0  0  0  0  0  0  0  0  0  0
   61.5823   27.7155   49.0676 H   0  0  0  0  0  0  0  0  0  0  0  0
   61.1103   27.9457   47.3402 H   0  0  0  0  0  0  0  0  0  0  0  0
   58.7189   28.4681   52.2010 H   0  0  0  0  0  0  0  0  0  0  0  0
   59.0837   29.9207   53.2210 H   0  0  0  0  0  0  0  0  0  0  0  0
   56.9137   27.9860   53.4639 H   0  0  0  0  0  0  0  0  0  0  0  0
   57.4256   29.3445   54.5746 H   0  0  0  0  0  0  0  0  0  0  0  0
   55.3050   31.7297   53.1208 H   0  0  0  0  0  0  0  0  0  0  0  0
   56.8760   31.4765   53.9525 H   0  0  0  0  0  0  0  0  0  0  0  0
   56.2434   31.4465   50.9775 H   0  0  0  0  0  0  0  0  0  0  0  0
   57.5445   32.3256   51.8663 H   0  0  0  0  0  0  0  0  0  0  0  0
   58.0151   32.2708   49.6653 H   0  0  0  0  0  0  0  0  0  0  0  0
   61.3660   32.8722   47.4520 H   0  0  0  0  0  0  0  0  0  0  0  0
   61.3192   34.7984   45.8700 H   0  0  0  0  0  0  0  0  0  0  0  0
   59.1817   35.4630   44.7662 H   0  0  0  0  0  0  0  0  0  0  0  0
   57.0919   34.1806   45.2231 H   0  0  0  0  0  0  0  0  0  0  0  0
   57.1276   32.2463   46.7959 H   0  0  0  0  0  0  0  0  0  0  0  0
   60.4710   30.0860   46.9620 H   0  0  0  0  0  0  0  0  0  0  0  0
   56.8829   27.6992   46.1911 H   0  0  0  0  0  0  0  0  0  0  0  0
  1  2  1  0
  2  3  2  0
  3  4  1  0
  4  5  2  0
  5  6  1  0
  6  7  2  0
  6  8  2  0
  6  9  1  0
  9 10  1  0
 10 11  1  0
 11 12  2  0
 12 13  1  0
 13 14  1  0
 14 15  1  0
 15 16  1  0
 16 17  1  0
 17 18  1  0
 18 19  1  0
 13 20  2  0
 20 21  1  0
 21 22  1  0
 22 23  2  0
 23 24  1  0
 24 25  2  0
 25 26  1  0
 26 27  2  0
 21 28  2  0
  5 29  1  0
 29 30  2  0
 30 31  1  0
 31 32  2  0
 31 33  1  0
 30  2  1  0
 28 11  1  0
 19 14  1  0
 27 22  1  0
  1 34  1  0
  1 35  1  0
  1 36  1  0
  3 37  1  0
  4 38  1  0
 10 39  1  0
 10 40  1  0
 15 41  1  0
 15 42  1  0
 16 43  1  0
 16 44  1  0
 18 45  1  0
 18 46  1  0
 19 47  1  0
 19 48  1  0
 20 49  1  0
 23 50  1  0
 24 51  1  0
 25 52  1  0
 26 53  1  0
 27 54  1  0
 28 55  1  0
 29 56  1  0
M  CHG  4   9  -1  28   1  31   1  33  -1
M  END
>  <UniqueID>  (73) 
66

>  <SMILES>  (73) 
Cc1ccc(S(=O)(=O)[N-]Cc2nc(N3CCOCC3)cc(-c3ccccc3)[nH+]2)cc1[N+](=O)[O-]

>  <Energy>  (73) 
76.399525632607

>  <Genealogy>  (73) 
Cc1ccc(S(=O)(=O)[N-]Cc2nc(N3CCOCC3)cc(-c3ccccc3)[nH+]2)cc1[N+](=O)[O-] (protonated)
Cc1ccc(S(=O)(=O)[N-]Cc2nc(N3CCOCC3)cc(-c3ccccc3)[nH+]2)cc1[N+](=O)[O-] (3D coordinates assigned)
Cc1ccc(S(=O)(=O)[N-]Cc2nc(N3CCOCC3)cc(-c3ccccc3)[nH+]2)cc1[N+](=O)[O-] (nonaromatic ring conformer: 76.399525632607 kcal/mol)

>  <smiles>  (73) 
Cc1ccc(S(=O)(=O)NCc2nc(-c3ccccc3)cc(N3CCOCC3)n2)cc1[N+](=O)[O-]

>  <score_type>  (73) 
oracle

>  <origin>  (73) 
adg

>  <m_score__min__energy>  (73) 
-9.8100000000000005

>  <m_primary>  (73) 
energy

$$$$
74:0
     RDKit          3D

 46 47  0  0  0  0  0  0  0  0999 V2000
   56.8720   24.9160   45.0780 C   0  0  0  0  0  0  0  0  0  0  0  0
   55.5080   25.2330   45.6720 C   0  0  0  0  0  0  0  0  0  0  0  0
   55.4510   26.6060   45.9950 O   0  0  0  0  0  0  0  0  0  0  0  0
   56.7320   27.1930   45.8930 C   0  0  0  0  0  0  0  0  0  0  0  0
   56.6630   28.5030   45.1560 C   0  0  0  0  0  0  0  0  0  0  0  0
   55.5220   28.9750   44.8980 O   0  0  0  0  0  0  0  0  0  0  0  0
   57.8490   29.2220   44.7350 N   0  0  0  0  0  0  0  0  0  0  0  0
   59.1490   28.8760   45.3300 C   0  0  0  0  0  0  0  0  0  0  0  0
   59.5230   29.8820   46.3850 C   0  0  0  0  0  0  0  0  0  0  0  0
   60.7820   30.5020   46.3700 C   0  0  0  0  0  0  0  0  0  0  0  0
   61.1080   31.4580   47.3360 C   0  0  0  0  0  0  0  0  0  0  0  0
   60.1730   31.8180   48.3290 C   0  0  0  0  0  0  0  0  0  0  0  0
   60.4410   32.7730   49.3240 O   0  0  0  0  0  0  0  0  0  0  0  0
   60.3180   34.1850   49.1720 C   0  0  0  0  0  0  0  0  0  0  0  0
   59.6360   34.5300   47.8530 C   0  0  0  0  0  0  0  0  0  0  0  0
   58.9200   31.1950   48.3380 C   0  0  0  0  0  0  0  0  0  0  0  0
   58.5940   30.2380   47.3730 C   0  0  0  0  0  0  0  0  0  0  0  0
   57.7870   30.3010   43.7360 C   0  0  0  0  0  0  0  0  0  0  0  0
   57.6990   31.6380   44.3990 C   0  0  0  0  0  0  0  0  0  0  0  0
   58.2740   32.8090   43.9430 C   0  0  0  0  0  0  0  0  0  0  0  0
   57.9080   33.7790   44.8510 C   0  0  0  0  0  0  0  0  0  0  0  0
   57.1300   33.1420   45.7990 C   0  0  0  0  0  0  0  0  0  0  0  0
   57.0220   31.8680   45.5010 O   0  0  0  0  0  0  0  0  0  0  0  0
   57.5953   24.7479   45.8896 H   0  0  0  0  0  0  0  0  0  0  0  0
   56.8002   24.0106   44.4574 H   0  0  0  0  0  0  0  0  0  0  0  0
   57.2069   25.7603   44.4574 H   0  0  0  0  0  0  0  0  0  0  0  0
   54.7230   24.9944   44.9393 H   0  0  0  0  0  0  0  0  0  0  0  0
   55.3514   24.6325   46.5802 H   0  0  0  0  0  0  0  0  0  0  0  0
   57.1297   27.3684   46.9035 H   0  0  0  0  0  0  0  0  0  0  0  0
   57.3894   26.5094   45.3357 H   0  0  0  0  0  0  0  0  0  0  0  0
   59.0851   27.8774   45.7868 H   0  0  0  0  0  0  0  0  0  0  0  0
   59.9165   28.8806   44.5421 H   0  0  0  0  0  0  0  0  0  0  0  0
   61.5152   30.2344   45.5948 H   0  0  0  0  0  0  0  0  0  0  0  0
   62.1002   31.9328   47.3219 H   0  0  0  0  0  0  0  0  0  0  0  0
   59.7197   34.5864   50.0032 H   0  0  0  0  0  0  0  0  0  0  0  0
   61.3244   34.6290   49.1753 H   0  0  0  0  0  0  0  0  0  0  0  0
   58.6713   35.0180   48.0557 H   0  0  0  0  0  0  0  0  0  0  0  0
   60.2777   35.2119   47.2758 H   0  0  0  0  0  0  0  0  0  0  0  0
   59.4669   33.6090   47.2758 H   0  0  0  0  0  0  0  0  0  0  0  0
   58.1848   31.4610   49.1118 H   0  0  0  0  0  0  0  0  0  0  0  0
   57.6028   29.7613   47.3887 H   0  0  0  0  0  0  0  0  0  0  0  0
   58.6927   30.2671   43.1127 H   0  0  0  0  0  0  0  0  0  0  0  0
   56.8890   30.1559   43.1175 H   0  0  0  0  0  0  0  0  0  0  0  0
   58.8939   32.9395   43.0437 H   0  0  0  0  0  0  0  0  0  0  0  0
   58.1801   34.8445   44.8262 H   0  0  0  0  0  0  0  0  0  0  0  0
   56.6705   33.6290   46.6717 H   0  0  0  0  0  0  0  0  0  0  0  0
  1  2  1  0
  2  3  1  0
  3  4  1  0
  4  5  1  0
  5  6  2  0
  5  7  1  0
  7  8  1  0
  8  9  1  0
  9 10  2  0
 10 11  1  0
 11 12  2  0
 12 13  1  0
 13 14  1  0
 14 15  1  0
 12 16  1  0
 16 17  2  0
  7 18  1  0
 18 19  1  0
 19 20  2  0
 20 21  1  0
 21 22  2  0
 22 23  1  0
 17  9  1  0
 23 19  1  0
  1 24  1  0
  1 25  1  0
  1 26  1  0
  2 27  1  0
  2 28  1  0
  4 29  1  0
  4 30  1  0
  8 31  1  0
  8 32  1  0
 10 33  1  0
 11 34  1  0
 14 35  1  0
 14 36  1  0
 15 37  1  0
 15 38  1  0
 15 39  1  0
 16 40  1  0
 17 41  1  0
 18 42  1  0
 18 43  1  0
 20 44  1  0
 21 45  1  0
 22 46  1  0
M  END
>  <UniqueID>  (74) 
67

>  <SMILES>  (74) 
CCOCC(=O)N(Cc1ccc(OCC)cc1)Cc1ccco1

>  <Energy>  (74) 
63.889415094352415

>  <Genealogy>  (74) 
CCOCC(=O)N(Cc1ccc(OCC)cc1)Cc1ccco1 (3D coordinates assigned)
CCOCC(=O)N(Cc1ccc(OCC)cc1)Cc1ccco1 (optimized conformer: 63.889415094352415 kcal/mol)

>  <smiles>  (74) 
CCOCC(=O)N(Cc1ccc(OCC)cc1)Cc1ccco1

>  <score_type>  (74) 
oracle

>  <origin>  (74) 
adg

>  <m_score__min__energy>  (74) 
-6.2999999999999998

>  <m_primary>  (74) 
energy

$$$$
75:0
     RDKit          3D

 27 29  0  0  0  0  0  0  0  0999 V2000
   60.0090   25.1690   46.0980 C   0  0  0  0  0  0  0  0  0  0  0  0
   58.5550   25.3610   46.0570 N   0  0  0  0  0  0  0  0  0  0  0  0
   57.6870   24.2910   46.1250 C   0  0  0  0  0  0  0  0  0  0  0  0
   58.1320   23.1180   46.2550 O   0  0  0  0  0  0  0  0  0  0  0  0
   56.3290   24.4890   46.0480 N   0  0  0  0  0  0  0  0  0  0  0  0
   55.8030   25.7390   45.8840 C   0  0  0  0  0  0  0  0  0  0  0  0
   54.5570   25.9120   45.8110 O   0  0  0  0  0  0  0  0  0  0  0  0
   56.6810   26.8050   45.7970 C   0  0  0  0  0  0  0  0  0  0  0  0
   56.4160   28.1070   45.6200 N   0  0  0  0  0  0  0  0  0  0  0  0
   57.6600   28.6600   45.6000 C   0  0  0  0  0  0  0  0  0  0  0  0
   57.8930   30.1110   45.4230 C   0  0  0  0  0  0  0  0  0  0  0  0
   58.4770   30.8710   46.4540 C   0  0  0  0  0  0  0  0  0  0  0  0
   58.6960   32.2400   46.2840 C   0  0  0  0  0  0  0  0  0  0  0  0
   58.3360   32.8680   45.0880 C   0  0  0  0  0  0  0  0  0  0  0  0
   58.6110   34.5860   44.8780 Cl  0  0  0  0  0  0  0  0  0  0  0  0
   57.7550   32.1210   44.0580 C   0  0  0  0  0  0  0  0  0  0  0  0
   57.5340   30.7510   44.2230 C   0  0  0  0  0  0  0  0  0  0  0  0
   58.6730   27.7620   45.7540 N   0  0  0  0  0  0  0  0  0  0  0  0
   58.0140   26.6000   45.8780 C   0  0  0  0  0  0  0  0  0  0  0  0
   60.3436   25.1248   47.1449 H   0  0  0  0  0  0  0  0  0  0  0  0
   60.2692   24.2287   45.5899 H   0  0  0  0  0  0  0  0  0  0  0  0
   60.5043   26.0095   45.5899 H   0  0  0  0  0  0  0  0  0  0  0  0
   55.6850   23.6670   46.1070 H   0  0  0  0  0  0  0  0  0  0  0  0
   58.7623   30.3843   47.3983 H   0  0  0  0  0  0  0  0  0  0  0  0
   59.1536   32.8263   47.0944 H   0  0  0  0  0  0  0  0  0  0  0  0
   57.4714   32.6130   43.1159 H   0  0  0  0  0  0  0  0  0  0  0  0
   57.0763   30.1694   43.4092 H   0  0  0  0  0  0  0  0  0  0  0  0
  1  2  1  0
  2  3  1  0
  3  4  2  0
  3  5  1  0
  5  6  1  0
  6  7  2  0
  6  8  1  0
  8  9  1  0
  9 10  2  0
 10 11  1  0
 11 12  2  0
 12 13  1  0
 13 14  2  0
 14 15  1  0
 14 16  1  0
 16 17  2  0
 10 18  1  0
 18 19  1  0
 19  2  1  0
 19  8  2  0
 17 11  1  0
  1 20  1  0
  1 21  1  0
  1 22  1  0
  5 23  1  0
 12 24  1  0
 13 25  1  0
 16 26  1  0
 17 27  1  0
M  CHG  1  18  -1
M  END
>  <UniqueID>  (75) 
68

>  <SMILES>  (75) 
Cn1c(=O)[nH]c(=O)c2nc(-c3ccc(Cl)cc3)[n-]c21

>  <Energy>  (75) 
69.4743684794401

>  <Genealogy>  (75) 
Cn1c(=O)[nH]c(=O)c2nc(-c3ccc(Cl)cc3)[n-]c21 (protonated)
Cn1c(=O)[nH]c(=O)c2nc(-c3ccc(Cl)cc3)[n-]c21 (3D coordinates assigned)
Cn1c(=O)[nH]c(=O)c2nc(-c3ccc(Cl)cc3)[n-]c21 (optimized conformer: 69.4743684794401 kcal/mol)

>  <smiles>  (75) 
Cn1c(=O)[nH]c(=O)c2nc(-c3ccc(Cl)cc3)[nH]c21

>  <score_type>  (75) 
oracle

>  <origin>  (75) 
adg

>  <m_score__min__energy>  (75) 
-7.9000000000000004

>  <m_primary>  (75) 
energy

$$$$
76:0
     RDKit          3D

 41 43  0  0  0  0  0  0  0  0999 V2000
   56.7980   31.2150   42.7510 O   0  0  0  0  0  0  0  0  0  0  0  0
   56.9440   31.0520   43.9910 C   0  0  0  0  0  0  0  0  0  0  0  0
   56.6770   32.1570   44.8660 N   0  0  0  0  0  0  0  0  0  0  0  0
   57.6560   32.9470   45.5580 C   0  0  0  0  0  0  0  0  0  0  0  0
   58.2930   34.0410   44.9450 C   0  0  0  0  0  0  0  0  0  0  0  0
   59.2450   34.7830   45.6480 C   0  0  0  0  0  0  0  0  0  0  0  0
   59.5830   34.4310   46.9570 C   0  0  0  0  0  0  0  0  0  0  0  0
   58.9780   33.3260   47.5660 C   0  0  0  0  0  0  0  0  0  0  0  0
   59.4170   32.8820   49.2130 S   0  0  0  0  0  0  0  0  0  0  0  0
   58.1750   32.6940   50.0410 O   0  0  0  0  0  0  0  0  0  0  0  0
   60.2440   33.9870   49.8070 O   0  0  0  0  0  0  0  0  0  0  0  0
   60.3340   31.3950   49.1980 N   0  0  0  0  0  0  0  0  0  0  0  0
   61.3640   31.4110   48.1340 C   0  0  0  0  0  0  0  0  0  0  0  0
   60.9920   30.5020   46.9500 C   0  0  0  0  0  0  0  0  0  0  0  0
   60.7880   29.1490   47.3290 O   0  0  0  0  0  0  0  0  0  0  0  0
   60.1720   28.9970   48.6040 C   0  0  0  0  0  0  0  0  0  0  0  0
   59.4180   30.2430   49.0970 C   0  0  0  0  0  0  0  0  0  0  0  0
   58.0170   32.5840   46.8630 C   0  0  0  0  0  0  0  0  0  0  0  0
   57.4190   29.7430   44.4980 C   0  0  0  0  0  0  0  0  0  0  0  0
   58.8010   29.4940   44.5720 C   0  0  0  0  0  0  0  0  0  0  0  0
   59.2740   28.2610   45.0300 C   0  0  0  0  0  0  0  0  0  0  0  0
   58.3740   27.2690   45.4280 C   0  0  0  0  0  0  0  0  0  0  0  0
   57.0010   27.5130   45.3780 C   0  0  0  0  0  0  0  0  0  0  0  0
   56.5170   28.7460   44.9270 C   0  0  0  0  0  0  0  0  0  0  0  0
   55.1460   28.9770   44.9300 O   0  0  0  0  0  0  0  0  0  0  0  0
   58.0408   34.3129   43.9094 H   0  0  0  0  0  0  0  0  0  0  0  0
   59.7298   35.6468   45.1697 H   0  0  0  0  0  0  0  0  0  0  0  0
   60.3264   35.0238   47.5102 H   0  0  0  0  0  0  0  0  0  0  0  0
   61.4779   32.4417   47.7669 H   0  0  0  0  0  0  0  0  0  0  0  0
   62.3021   31.0337   48.5671 H   0  0  0  0  0  0  0  0  0  0  0  0
   60.0653   30.8816   46.4949 H   0  0  0  0  0  0  0  0  0  0  0  0
   61.8355   30.5212   46.2442 H   0  0  0  0  0  0  0  0  0  0  0  0
   59.4568   28.1634   48.5435 H   0  0  0  0  0  0  0  0  0  0  0  0
   60.9826   28.8146   49.3249 H   0  0  0  0  0  0  0  0  0  0  0  0
   58.6120   30.4825   48.3878 H   0  0  0  0  0  0  0  0  0  0  0  0
   58.9980   30.0341   50.0920 H   0  0  0  0  0  0  0  0  0  0  0  0
   57.5440   31.7122   47.3387 H   0  0  0  0  0  0  0  0  0  0  0  0
   59.5141   30.2742   44.2676 H   0  0  0  0  0  0  0  0  0  0  0  0
   60.3565   28.0713   45.0772 H   0  0  0  0  0  0  0  0  0  0  0  0
   58.7476   26.2963   45.7805 H   0  0  0  0  0  0  0  0  0  0  0  0
   56.2949   26.7314   45.6950 H   0  0  0  0  0  0  0  0  0  0  0  0
  1  2  2  0
  2  3  1  0
  3  4  1  0
  4  5  2  0
  5  6  1  0
  6  7  2  0
  7  8  1  0
  8  9  1  0
  9 10  2  0
  9 11  2  0
  9 12  1  0
 12 13  1  0
 13 14  1  0
 14 15  1  0
 15 16  1  0
 16 17  1  0
  8 18  2  0
  2 19  1  0
 19 20  2  0
 20 21  1  0
 21 22  2  0
 22 23  1  0
 23 24  2  0
 24 25  1  0
 18  4  1  0
 24 19  1  0
 17 12  1  0
  5 26  1  0
  6 27  1  0
  7 28  1  0
 13 29  1  0
 13 30  1  0
 14 31  1  0
 14 32  1  0
 16 33  1  0
 16 34  1  0
 17 35  1  0
 17 36  1  0
 18 37  1  0
 20 38  1  0
 21 39  1  0
 22 40  1  0
 23 41  1  0
M  CHG  2   3  -1  25  -1
M  END
>  <UniqueID>  (76) 
69

>  <SMILES>  (76) 
O=C([N-]c1cccc(S(=O)(=O)N2CCOCC2)c1)c1ccccc1[O-]

>  <Energy>  (76) 
63.346087024226264

>  <Genealogy>  (76) 
O=C([N-]c1cccc(S(=O)(=O)N2CCOCC2)c1)c1ccccc1[O-] (protonated)
O=C([N-]c1cccc(S(=O)(=O)N2CCOCC2)c1)c1ccccc1[O-] (3D coordinates assigned)
O=C([N-]c1cccc(S(=O)(=O)N2CCOCC2)c1)c1ccccc1[O-] (nonaromatic ring conformer: 63.346087024226264 kcal/mol)

>  <smiles>  (76) 
O=C(Nc1cccc(S(=O)(=O)N2CCOCC2)c1)c1ccccc1O

>  <score_type>  (76) 
oracle

>  <origin>  (76) 
adg

>  <m_score__min__energy>  (76) 
-14.07

>  <m_primary>  (76) 
energy

$$$$
77:0
     RDKit          3D

 50 52  0  0  0  0  0  0  0  0999 V2000
   56.0550   24.7690   45.4600 C   0  0  0  0  0  0  0  0  0  0  0  0
   55.7560   25.9610   46.1490 O   0  0  0  0  0  0  0  0  0  0  0  0
   56.5680   27.0740   45.9730 C   0  0  0  0  0  0  0  0  0  0  0  0
   57.8210   26.9790   46.4830 N   0  0  0  0  0  0  0  0  0  0  0  0
   58.6330   28.0540   46.3240 C   0  0  0  0  0  0  0  0  0  0  0  0
   59.8190   27.9440   46.8140 N   0  0  0  0  0  0  0  0  0  0  0  0
   59.9420   28.0400   48.2630 C   0  0  0  0  0  0  0  0  0  0  0  0
   59.7600   29.4390   48.7260 C   0  0  0  0  0  0  0  0  0  0  0  0
   58.7620   29.6770   49.6490 C   0  0  0  0  0  0  0  0  0  0  0  0
   58.5900   30.9840   50.0820 C   0  0  0  0  0  0  0  0  0  0  0  0
   59.3890   32.0220   49.6100 C   0  0  0  0  0  0  0  0  0  0  0  0
   59.2290   33.3350   50.0350 O   0  0  0  0  0  0  0  0  0  0  0  0
   59.2960   33.5800   51.4300 C   0  0  0  0  0  0  0  0  0  0  0  0
   60.3880   31.7640   48.6820 C   0  0  0  0  0  0  0  0  0  0  0  0
   61.2540   32.8650   48.1580 C   0  0  0  0  0  0  0  0  0  0  0  0
   60.9350   32.9940   46.7950 O   0  0  0  0  0  0  0  0  0  0  0  0
   59.7340   33.3380   46.2540 C   0  0  0  0  0  0  0  0  0  0  0  0
   59.6710   34.5340   45.5380 C   0  0  0  0  0  0  0  0  0  0  0  0
   58.5100   34.9660   44.9580 C   0  0  0  0  0  0  0  0  0  0  0  0
   57.3540   34.2060   45.0750 C   0  0  0  0  0  0  0  0  0  0  0  0
   57.4040   33.0230   45.7800 C   0  0  0  0  0  0  0  0  0  0  0  0
   58.5960   32.6030   46.3610 C   0  0  0  0  0  0  0  0  0  0  0  0
   60.5740   30.4560   48.2350 C   0  0  0  0  0  0  0  0  0  0  0  0
   58.1970   29.1620   45.6820 N   0  0  0  0  0  0  0  0  0  0  0  0
   56.9430   29.2370   45.1820 C   0  0  0  0  0  0  0  0  0  0  0  0
   56.4560   30.3520   44.5190 O   0  0  0  0  0  0  0  0  0  0  0  0
   56.8820   30.7950   43.2680 C   0  0  0  0  0  0  0  0  0  0  0  0
   56.1240   28.1720   45.3350 N   0  0  0  0  0  0  0  0  0  0  0  0
   56.2562   23.9668   46.1853 H   0  0  0  0  0  0  0  0  0  0  0  0
   55.2000   24.4862   44.8284 H   0  0  0  0  0  0  0  0  0  0  0  0
   56.9423   24.9233   44.8284 H   0  0  0  0  0  0  0  0  0  0  0  0
   59.1756   27.4046   48.7310 H   0  0  0  0  0  0  0  0  0  0  0  0
   60.9503   27.7067   48.5497 H   0  0  0  0  0  0  0  0  0  0  0  0
   58.1273   28.8619   50.0269 H   0  0  0  0  0  0  0  0  0  0  0  0
   57.8022   31.2058   50.8170 H   0  0  0  0  0  0  0  0  0  0  0  0
   59.0442   32.6592   51.9765 H   0  0  0  0  0  0  0  0  0  0  0  0
   60.3142   33.8985   51.6978 H   0  0  0  0  0  0  0  0  0  0  0  0
   58.5816   34.3724   51.6978 H   0  0  0  0  0  0  0  0  0  0  0  0
   61.0424   33.8040   48.6905 H   0  0  0  0  0  0  0  0  0  0  0  0
   62.3213   32.6414   48.3024 H   0  0  0  0  0  0  0  0  0  0  0  0
   60.5795   35.1459   45.4373 H   0  0  0  0  0  0  0  0  0  0  0  0
   58.4922   35.9138   44.3999 H   0  0  0  0  0  0  0  0  0  0  0  0
   56.4142   34.5424   44.6128 H   0  0  0  0  0  0  0  0  0  0  0  0
   56.4976   32.4084   45.8837 H   0  0  0  0  0  0  0  0  0  0  0  0
   58.6180   31.6554   46.9192 H   0  0  0  0  0  0  0  0  0  0  0  0
   61.3593   30.2293   47.4988 H   0  0  0  0  0  0  0  0  0  0  0  0
   57.6393   31.5825   43.3962 H   0  0  0  0  0  0  0  0  0  0  0  0
   57.3189   29.9535   42.7103 H   0  0  0  0  0  0  0  0  0  0  0  0
   56.0241   31.1986   42.7103 H   0  0  0  0  0  0  0  0  0  0  0  0
   55.1460   28.2140   44.9500 H   0  0  0  0  0  0  0  0  0  0  0  0
  1  2  1  0
  2  3  1  0
  3  4  2  0
  4  5  1  0
  5  6  2  3
  6  7  1  0
  7  8  1  0
  8  9  2  0
  9 10  1  0
 10 11  2  0
 11 12  1  0
 12 13  1  0
 11 14  1  0
 14 15  1  0
 15 16  1  0
 16 17  1  0
 17 18  2  0
 18 19  1  0
 19 20  2  0
 20 21  1  0
 21 22  2  0
 14 23  2  0
  5 24  1  0
 24 25  2  0
 25 26  1  0
 26 27  1  0
 25 28  1  0
 28  3  1  0
 23  8  1  0
 22 17  1  0
  1 29  1  0
  1 30  1  0
  1 31  1  0
  7 32  1  0
  7 33  1  0
  9 34  1  0
 10 35  1  0
 13 36  1  0
 13 37  1  0
 13 38  1  0
 15 39  1  0
 15 40  1  0
 18 41  1  0
 19 42  1  0
 20 43  1  0
 21 44  1  0
 22 45  1  0
 23 46  1  0
 27 47  1  0
 27 48  1  0
 27 49  1  0
 28 50  1  0
M  END
>  <smiles>  (77) 
COc1nc(=NCc2ccc(OC)c(COc3ccccc3)c2)nc(OC)[nH]1

>  <score_type>  (77) 
oracle

>  <origin>  (77) 
adg

>  <m_score__min__energy>  (77) 
-7.7000000000000002

>  <m_primary>  (77) 
energy

$$$$
78:0
     RDKit          3D

 46 49  0  0  0  0  0  0  0  0999 V2000
   57.6600   28.9310   43.7700 N   0  0  0  0  0  0  0  0  0  0  0  0
   56.7200   30.3820   43.7950 S   0  0  0  0  0  0  0  0  0  0  0  0
   55.3930   30.1130   44.4470 O   0  0  0  0  0  0  0  0  0  0  0  0
   56.4830   30.8360   42.3820 O   0  0  0  0  0  0  0  0  0  0  0  0
   57.5730   31.6280   44.7010 C   0  0  0  0  0  0  0  0  0  0  0  0
   57.7740   31.4990   46.0830 C   0  0  0  0  0  0  0  0  0  0  0  0
   58.4540   32.4940   46.7890 C   0  0  0  0  0  0  0  0  0  0  0  0
   58.9440   33.6220   46.1200 C   0  0  0  0  0  0  0  0  0  0  0  0
   59.8380   34.8830   47.0290 S   0  0  0  0  0  0  0  0  0  0  0  0
   59.9850   33.8610   48.4990 C   0  0  0  0  0  0  0  0  0  0  0  0
   59.2690   34.1940   49.6060 N   0  0  0  0  0  0  0  0  0  0  0  0
   59.3460   33.4600   50.7470 C   0  0  0  0  0  0  0  0  0  0  0  0
   58.6040   33.8160   51.8770 C   0  0  0  0  0  0  0  0  0  0  0  0
   58.6970   33.0470   53.0420 C   0  0  0  0  0  0  0  0  0  0  0  0
   59.5310   31.9230   53.0780 C   0  0  0  0  0  0  0  0  0  0  0  0
   60.2770   31.5630   51.9490 C   0  0  0  0  0  0  0  0  0  0  0  0
   60.1860   32.3290   50.7830 C   0  0  0  0  0  0  0  0  0  0  0  0
   60.9040   31.9990   49.6790 N   0  0  0  0  0  0  0  0  0  0  0  0
   60.8290   32.7360   48.5350 C   0  0  0  0  0  0  0  0  0  0  0  0
   61.5420   32.4240   47.4950 N   0  0  0  0  0  0  0  0  0  0  0  0
   63.2330   32.7620   47.3210 S   0  0  0  0  0  0  0  0  0  0  0  0
   63.9540   31.5670   46.7590 O   0  0  0  0  0  0  0  0  0  0  0  0
   63.4210   33.9340   46.4000 O   0  0  0  0  0  0  0  0  0  0  0  0
   63.8880   33.1110   48.9150 C   0  0  0  0  0  0  0  0  0  0  0  0
   64.9800   32.3710   49.3900 C   0  0  0  0  0  0  0  0  0  0  0  0
   65.4960   32.6180   50.6660 C   0  0  0  0  0  0  0  0  0  0  0  0
   64.9240   33.6060   51.4720 C   0  0  0  0  0  0  0  0  0  0  0  0
   63.8350   34.3470   51.0030 C   0  0  0  0  0  0  0  0  0  0  0  0
   63.3140   34.1010   49.7280 C   0  0  0  0  0  0  0  0  0  0  0  0
   58.7310   33.7620   44.7440 C   0  0  0  0  0  0  0  0  0  0  0  0
   58.0510   32.7660   44.0360 C   0  0  0  0  0  0  0  0  0  0  0  0
   57.0090   28.1480   43.5360 H   0  0  0  0  0  0  0  0  0  0  0  0
   58.3320   29.0140   42.9750 H   0  0  0  0  0  0  0  0  0  0  0  0
   57.3952   30.6121   46.6122 H   0  0  0  0  0  0  0  0  0  0  0  0
   58.6050   32.3910   47.8737 H   0  0  0  0  0  0  0  0  0  0  0  0
   57.9484   34.6989   51.8502 H   0  0  0  0  0  0  0  0  0  0  0  0
   58.1135   33.3261   53.9318 H   0  0  0  0  0  0  0  0  0  0  0  0
   59.6004   31.3209   53.9960 H   0  0  0  0  0  0  0  0  0  0  0  0
   60.9326   30.6802   51.9794 H   0  0  0  0  0  0  0  0  0  0  0  0
   65.4324   31.5935   48.7568 H   0  0  0  0  0  0  0  0  0  0  0  0
   66.3522   32.0345   51.0354 H   0  0  0  0  0  0  0  0  0  0  0  0
   65.3305   33.8007   52.4754 H   0  0  0  0  0  0  0  0  0  0  0  0
   63.3867   35.1253   51.6380 H   0  0  0  0  0  0  0  0  0  0  0  0
   62.4550   34.6831   49.3628 H   0  0  0  0  0  0  0  0  0  0  0  0
   59.0987   34.6560   44.2190 H   0  0  0  0  0  0  0  0  0  0  0  0
   57.8905   32.8758   42.9533 H   0  0  0  0  0  0  0  0  0  0  0  0
  1  2  1  0
  2  3  2  0
  2  4  2  0
  2  5  1  0
  5  6  2  0
  6  7  1  0
  7  8  2  0
  8  9  1  0
  9 10  1  0
 10 11  2  0
 11 12  1  0
 12 13  2  0
 13 14  1  0
 14 15  2  0
 15 16  1  0
 16 17  2  0
 17 18  1  0
 18 19  1  0
 19 20  2  3
 20 21  1  0
 21 22  2  0
 21 23  2  0
 21 24  1  0
 24 25  2  0
 25 26  1  0
 26 27  2  0
 27 28  1  0
 28 29  2  0
  8 30  1  0
 30 31  2  0
 31  5  1  0
 19 10  1  0
 29 24  1  0
 17 12  1  0
  1 32  1  0
  1 33  1  0
  6 34  1  0
  7 35  1  0
 13 36  1  0
 14 37  1  0
 15 38  1  0
 16 39  1  0
 25 40  1  0
 26 41  1  0
 27 42  1  0
 28 43  1  0
 29 44  1  0
 30 45  1  0
 31 46  1  0
M  CHG  1  18  -1
M  END
>  <UniqueID>  (78) 
70

>  <SMILES>  (78) 
NS(=O)(=O)c1ccc(Sc2nc3ccccc3[n-]c2=NS(=O)(=O)c2ccccc2)cc1

>  <Energy>  (78) 
51.633929078378635

>  <Genealogy>  (78) 
NS(=O)(=O)c1ccc(Sc2nc3ccccc3[n-]c2=NS(=O)(=O)c2ccccc2)cc1 (protonated)
NS(=O)(=O)c1ccc(Sc2nc3ccccc3[n-]c2=NS(=O)(=O)c2ccccc2)cc1 (3D coordinates assigned)
NS(=O)(=O)c1ccc(Sc2nc3ccccc3[n-]c2=NS(=O)(=O)c2ccccc2)cc1 (optimized conformer: 51.633929078378635 kcal/mol)

>  <smiles>  (78) 
NS(=O)(=O)c1ccc(Sc2nc3ccccc3[nH]c2=NS(=O)(=O)c2ccccc2)cc1

>  <score_type>  (78) 
oracle

>  <origin>  (78) 
adg

>  <m_score__min__energy>  (78) 
-11.49

>  <m_primary>  (78) 
energy

$$$$
79:0
     RDKit          3D

 60 61  0  0  0  0  0  0  0  0999 V2000
   50.4500   26.7920   52.2600 C   0  0  0  0  0  0  0  0  0  0  0  0
   51.6790   27.4090   52.7510 N   0  0  0  0  0  0  0  0  0  0  0  0
   51.7950   29.0400   52.1630 S   0  0  0  0  0  0  0  0  0  0  0  0
   50.8530   29.9140   52.9400 O   0  0  0  0  0  0  0  0  0  0  0  0
   51.3980   29.0830   50.7130 O   0  0  0  0  0  0  0  0  0  0  0  0
   53.4370   29.6500   52.3610 C   0  0  0  0  0  0  0  0  0  0  0  0
   53.8900   30.6980   51.5500 C   0  0  0  0  0  0  0  0  0  0  0  0
   55.1860   31.1980   51.7040 C   0  0  0  0  0  0  0  0  0  0  0  0
   56.0470   30.6500   52.6670 C   0  0  0  0  0  0  0  0  0  0  0  0
   57.4290   31.2120   52.8540 C   0  0  0  0  0  0  0  0  0  0  0  0
   58.0010   31.6100   51.5680 N   0  0  0  0  0  0  0  0  0  0  0  0
   58.3330   30.6420   50.5650 C   0  0  0  0  0  0  0  0  0  0  0  0
   58.1410   29.4150   50.7870 O   0  0  0  0  0  0  0  0  0  0  0  0
   58.8790   31.0790   49.3110 N   0  0  0  0  0  0  0  0  0  0  0  0
   59.0960   30.2190   48.1850 C   0  0  0  0  0  0  0  0  0  0  0  0
   58.8230   28.9880   48.2520 O   0  0  0  0  0  0  0  0  0  0  0  0
   59.6030   30.7640   47.0010 O   0  0  0  0  0  0  0  0  0  0  0  0
   58.9720   31.8190   46.3330 C   0  0  0  0  0  0  0  0  0  0  0  0
   59.3460   33.1520   46.6220 C   0  0  0  0  0  0  0  0  0  0  0  0
   60.4280   33.4560   47.6490 C   0  0  0  0  0  0  0  0  0  0  0  0
   61.7410   33.8320   46.9560 C   0  0  0  0  0  0  0  0  0  0  0  0
   59.9890   34.5530   48.6300 C   0  0  0  0  0  0  0  0  0  0  0  0
   58.7460   34.2000   45.8990 C   0  0  0  0  0  0  0  0  0  0  0  0
   57.7750   33.9350   44.9380 C   0  0  0  0  0  0  0  0  0  0  0  0
   57.3840   32.6250   44.6760 C   0  0  0  0  0  0  0  0  0  0  0  0
   57.9660   31.5490   45.3720 C   0  0  0  0  0  0  0  0  0  0  0  0
   57.5190   30.1240   45.0750 C   0  0  0  0  0  0  0  0  0  0  0  0
   56.3000   30.1000   44.1430 C   0  0  0  0  0  0  0  0  0  0  0  0
   58.6730   29.2970   44.4940 C   0  0  0  0  0  0  0  0  0  0  0  0
   55.5820   29.6160   53.4960 C   0  0  0  0  0  0  0  0  0  0  0  0
   54.2860   29.1160   53.3420 C   0  0  0  0  0  0  0  0  0  0  0  0
   49.8297   26.4806   53.1134 H   0  0  0  0  0  0  0  0  0  0  0  0
   49.8942   27.5180   51.6484 H   0  0  0  0  0  0  0  0  0  0  0  0
   50.7002   25.9126   51.6484 H   0  0  0  0  0  0  0  0  0  0  0  0
   52.4860   26.8780   52.3480 H   0  0  0  0  0  0  0  0  0  0  0  0
   53.2232   31.1293   50.7888 H   0  0  0  0  0  0  0  0  0  0  0  0
   55.5328   32.0252   51.0672 H   0  0  0  0  0  0  0  0  0  0  0  0
   57.3758   32.0908   53.5135 H   0  0  0  0  0  0  0  0  0  0  0  0
   58.0690   30.4379   53.3026 H   0  0  0  0  0  0  0  0  0  0  0  0
   58.1620   32.6220   51.3590 H   0  0  0  0  0  0  0  0  0  0  0  0
   59.0970   32.0940   49.1910 H   0  0  0  0  0  0  0  0  0  0  0  0
   60.5956   32.5413   48.2366 H   0  0  0  0  0  0  0  0  0  0  0  0
   62.5065   34.0512   47.7149 H   0  0  0  0  0  0  0  0  0  0  0  0
   62.0770   32.9940   46.3277 H   0  0  0  0  0  0  0  0  0  0  0  0
   61.5825   34.7209   46.3277 H   0  0  0  0  0  0  0  0  0  0  0  0
   60.1303   34.1999   49.6621 H   0  0  0  0  0  0  0  0  0  0  0  0
   60.5950   35.4561   48.4653 H   0  0  0  0  0  0  0  0  0  0  0  0
   58.9273   34.7887   48.4653 H   0  0  0  0  0  0  0  0  0  0  0  0
   59.0478   35.2394   46.0956 H   0  0  0  0  0  0  0  0  0  0  0  0
   57.3141   34.7651   44.3825 H   0  0  0  0  0  0  0  0  0  0  0  0
   56.6122   32.4287   43.9172 H   0  0  0  0  0  0  0  0  0  0  0  0
   57.2161   29.6650   46.0277 H   0  0  0  0  0  0  0  0  0  0  0  0
   55.3790   30.0819   44.7443 H   0  0  0  0  0  0  0  0  0  0  0  0
   56.3059   30.9984   43.5084 H   0  0  0  0  0  0  0  0  0  0  0  0
   56.3413   29.2025   43.5084 H   0  0  0  0  0  0  0  0  0  0  0  0
   59.2681   28.8705   45.3150 H   0  0  0  0  0  0  0  0  0  0  0  0
   58.2660   28.4837   43.8752 H   0  0  0  0  0  0  0  0  0  0  0  0
   59.3124   29.9438   43.8752 H   0  0  0  0  0  0  0  0  0  0  0  0
   56.2414   29.1975   54.2706 H   0  0  0  0  0  0  0  0  0  0  0  0
   53.9309   28.3021   53.9913 H   0  0  0  0  0  0  0  0  0  0  0  0
  1  2  1  0
  2  3  1  0
  3  4  2  0
  3  5  2  0
  3  6  1  0
  6  7  2  0
  7  8  1  0
  8  9  2  0
  9 10  1  0
 10 11  1  0
 11 12  1  0
 12 13  2  0
 12 14  1  0
 14 15  1  0
 15 16  2  0
 15 17  1  0
 17 18  1  0
 18 19  2  0
 19 20  1  0
 20 21  1  0
 20 22  1  0
 19 23  1  0
 23 24  2  0
 24 25  1  0
 25 26  2  0
 26 27  1  0
 27 28  1  0
 27 29  1  0
  9 30  1  0
 30 31  2  0
 31  6  1  0
 26 18  1  0
  1 32  1  0
  1 33  1  0
  1 34  1  0
  2 35  1  0
  7 36  1  0
  8 37  1  0
 10 38  1  0
 10 39  1  0
 11 40  1  0
 14 41  1  0
 20 42  1  0
 21 43  1  0
 21 44  1  0
 21 45  1  0
 22 46  1  0
 22 47  1  0
 22 48  1  0
 23 49  1  0
 24 50  1  0
 25 51  1  0
 27 52  1  0
 28 53  1  0
 28 54  1  0
 28 55  1  0
 29 56  1  0
 29 57  1  0
 29 58  1  0
 30 59  1  0
 31 60  1  0
M  END
>  <UniqueID>  (79) 
71

>  <SMILES>  (79) 
CNS(=O)(=O)c1ccc(CNC(=O)NC(=O)Oc2c(C(C)C)cccc2C(C)C)cc1

>  <Energy>  (79) 
55.7847282677301

>  <Genealogy>  (79) 
CNS(=O)(=O)c1ccc(CNC(=O)NC(=O)Oc2c(C(C)C)cccc2C(C)C)cc1 (3D coordinates assigned)
CNS(=O)(=O)c1ccc(CNC(=O)NC(=O)Oc2c(C(C)C)cccc2C(C)C)cc1 (optimized conformer: 55.7847282677301 kcal/mol)

>  <smiles>  (79) 
CNS(=O)(=O)c1ccc(CNC(=O)NC(=O)Oc2c(C(C)C)cccc2C(C)C)cc1

>  <score_type>  (79) 
oracle

>  <origin>  (79) 
adg

>  <m_score__min__energy>  (79) 
-8.75

>  <m_primary>  (79) 
energy

$$$$
80:0
     RDKit          3D

 55 58  0  0  0  0  0  0  0  0999 V2000
   55.1190   29.3490   44.6080 O   0  0  0  0  0  0  0  0  0  0  0  0
   56.3410   29.6600   44.6230 C   0  0  0  0  0  0  0  0  0  0  0  0
   57.3640   28.6900   44.1260 C   0  0  0  0  0  0  0  0  0  0  0  0
   57.9860   27.9990   45.2710 N   0  0  0  0  0  0  0  0  0  0  0  0
   57.4130   26.8510   45.7400 C   0  0  0  0  0  0  0  0  0  0  0  0
   57.9230   26.2000   46.8710 C   0  0  0  0  0  0  0  0  0  0  0  0
   57.3530   24.8730   47.3100 C   0  0  0  0  0  0  0  0  0  0  0  0
   56.9300   24.0710   46.1010 C   0  0  0  0  0  0  0  0  0  0  0  0
   57.8240   23.1790   45.4930 C   0  0  0  0  0  0  0  0  0  0  0  0
   57.4600   22.5020   44.3740 N   0  0  0  0  0  0  0  0  0  0  0  0
   56.2350   22.6750   43.8200 C   0  0  0  0  0  0  0  0  0  0  0  0
   55.9190   22.0370   42.7820 O   0  0  0  0  0  0  0  0  0  0  0  0
   55.3510   23.5360   44.3850 N   0  0  0  0  0  0  0  0  0  0  0  0
   55.6670   24.2350   45.5070 C   0  0  0  0  0  0  0  0  0  0  0  0
   54.8230   25.0270   46.0000 O   0  0  0  0  0  0  0  0  0  0  0  0
   59.0160   26.7830   47.5240 C   0  0  0  0  0  0  0  0  0  0  0  0
   59.4920   26.2690   48.5700 O   0  0  0  0  0  0  0  0  0  0  0  0
   59.5650   27.9170   47.0320 N   0  0  0  0  0  0  0  0  0  0  0  0
   59.0880   28.5140   45.9100 C   0  0  0  0  0  0  0  0  0  0  0  0
   59.9630   29.9680   45.3030 S   0  0  0  0  0  0  0  0  0  0  0  0
   61.1360   30.0540   46.7100 C   0  0  0  0  0  0  0  0  0  0  0  0
   60.6790   31.0280   47.7600 C   0  0  0  0  0  0  0  0  0  0  0  0
   61.4360   32.1820   48.0270 C   0  0  0  0  0  0  0  0  0  0  0  0
   60.9810   33.1220   48.9570 C   0  0  0  0  0  0  0  0  0  0  0  0
   59.7680   32.9190   49.6240 C   0  0  0  0  0  0  0  0  0  0  0  0
   59.3250   33.8380   50.5160 F   0  0  0  0  0  0  0  0  0  0  0  0
   59.0100   31.7740   49.3630 C   0  0  0  0  0  0  0  0  0  0  0  0
   59.4630   30.8290   48.4360 C   0  0  0  0  0  0  0  0  0  0  0  0
   56.7540   30.9600   45.0520 N   0  0  0  0  0  0  0  0  0  0  0  0
   57.4020   31.9240   44.1710 C   0  0  0  0  0  0  0  0  0  0  0  0
   58.0150   33.0220   44.9960 C   0  0  0  0  0  0  0  0  0  0  0  0
   59.0170   33.8480   44.4520 C   0  0  0  0  0  0  0  0  0  0  0  0
   59.6350   34.8230   45.2420 C   0  0  0  0  0  0  0  0  0  0  0  0
   59.2600   34.9810   46.5810 C   0  0  0  0  0  0  0  0  0  0  0  0
   58.2740   34.1570   47.1350 C   0  0  0  0  0  0  0  0  0  0  0  0
   57.6570   33.1760   46.3500 C   0  0  0  0  0  0  0  0  0  0  0  0
   56.8800   27.9507   43.4709 H   0  0  0  0  0  0  0  0  0  0  0  0
   58.1374   29.2312   43.5611 H   0  0  0  0  0  0  0  0  0  0  0  0
   56.5381   26.4314   45.2219 H   0  0  0  0  0  0  0  0  0  0  0  0
   58.1179   24.3143   47.8692 H   0  0  0  0  0  0  0  0  0  0  0  0
   56.4778   25.0490   47.9527 H   0  0  0  0  0  0  0  0  0  0  0  0
   58.8245   23.0269   45.9242 H   0  0  0  0  0  0  0  0  0  0  0  0
   61.2214   29.0556   47.1637 H   0  0  0  0  0  0  0  0  0  0  0  0
   62.1072   30.3979   46.3246 H   0  0  0  0  0  0  0  0  0  0  0  0
   62.3891   32.3461   47.5028 H   0  0  0  0  0  0  0  0  0  0  0  0
   61.5777   34.0225   49.1645 H   0  0  0  0  0  0  0  0  0  0  0  0
   58.0560   31.6156   49.8872 H   0  0  0  0  0  0  0  0  0  0  0  0
   58.8655   29.9274   48.2356 H   0  0  0  0  0  0  0  0  0  0  0  0
   58.1878   31.4194   43.5897 H   0  0  0  0  0  0  0  0  0  0  0  0
   56.6571   32.3527   43.4844 H   0  0  0  0  0  0  0  0  0  0  0  0
   59.3154   33.7260   43.4003 H   0  0  0  0  0  0  0  0  0  0  0  0
   60.4163   35.4660   44.8105 H   0  0  0  0  0  0  0  0  0  0  0  0
   59.7409   35.7538   47.1987 H   0  0  0  0  0  0  0  0  0  0  0  0
   57.9834   34.2803   48.1887 H   0  0  0  0  0  0  0  0  0  0  0  0
   56.8899   32.5230   46.7918 H   0  0  0  0  0  0  0  0  0  0  0  0
  1  2  2  0
  2  3  1  0
  3  4  1  0
  4  5  1  0
  5  6  2  0
  6  7  1  0
  7  8  1  0
  8  9  2  0
  9 10  1  0
 10 11  1  0
 11 12  2  0
 11 13  1  0
 13 14  1  0
 14 15  2  0
  6 16  1  0
 16 17  2  0
 16 18  1  0
 18 19  2  0
 19 20  1  0
 20 21  1  0
 21 22  1  0
 22 23  2  0
 23 24  1  0
 24 25  2  0
 25 26  1  0
 25 27  1  0
 27 28  2  0
  2 29  1  0
 29 30  1  0
 30 31  1  0
 31 32  2  0
 32 33  1  0
 33 34  2  0
 34 35  1  0
 35 36  2  0
 19  4  1  0
 28 22  1  0
 36 31  1  0
 14  8  1  0
  3 37  1  0
  3 38  1  0
  5 39  1  0
  7 40  1  0
  7 41  1  0
  9 42  1  0
 21 43  1  0
 21 44  1  0
 23 45  1  0
 24 46  1  0
 27 47  1  0
 28 48  1  0
 30 49  1  0
 30 50  1  0
 32 51  1  0
 33 52  1  0
 34 53  1  0
 35 54  1  0
 36 55  1  0
M  CHG  3  10  -1  13  -1  29  -1
M  END
>  <UniqueID>  (80) 
72

>  <SMILES>  (80) 
O=C(Cn1cc(Cc2c[n-]c(=O)[n-]c2=O)c(=O)nc1SCc1ccc(F)cc1)[N-]Cc1ccccc1

>  <Energy>  (80) 
54.035681752727385

>  <Genealogy>  (80) 
O=C(Cn1cc(Cc2c[n-]c(=O)[n-]c2=O)c(=O)nc1SCc1ccc(F)cc1)[N-]Cc1ccccc1 (protonated)
O=C(Cn1cc(Cc2c[n-]c(=O)[n-]c2=O)c(=O)nc1SCc1ccc(F)cc1)[N-]Cc1ccccc1 (3D coordinates assigned)
O=C(Cn1cc(Cc2c[n-]c(=O)[n-]c2=O)c(=O)nc1SCc1ccc(F)cc1)[N-]Cc1ccccc1 (optimized conformer: 54.035681752727385 kcal/mol)

>  <smiles>  (80) 
O=C(Cn1cc(Cc2c[nH]c(=O)[nH]c2=O)c(=O)nc1SCc1ccc(F)cc1)NCc1ccccc1

>  <score_type>  (80) 
oracle

>  <origin>  (80) 
adg

>  <m_score__min__energy>  (80) 
-15.92

>  <m_primary>  (80) 
energy

$$$$
81:0
     RDKit          3D

 32 33  0  0  0  0  0  0  0  0999 V2000
   57.1020   31.0890   43.1130 C   0  0  0  0  0  0  0  0  0  0  0  0
   57.8560   31.5150   44.3410 C   0  0  0  0  0  0  0  0  0  0  0  0
   58.1800   32.8660   44.5340 C   0  0  0  0  0  0  0  0  0  0  0  0
   58.8820   33.2690   45.6720 C   0  0  0  0  0  0  0  0  0  0  0  0
   59.2680   32.3280   46.6350 C   0  0  0  0  0  0  0  0  0  0  0  0
   60.0790   32.7550   47.8280 C   0  0  0  0  0  0  0  0  0  0  0  0
   61.4810   32.9050   47.4460 N   0  0  0  0  0  0  0  0  0  0  0  0
   62.0080   33.8770   46.6770 C   0  0  0  0  0  0  0  0  0  0  0  0
   63.3450   33.5970   46.4920 C   0  0  0  0  0  0  0  0  0  0  0  0
   63.6390   32.4510   47.1360 N   0  0  0  0  0  0  0  0  0  0  0  0
   62.4860   32.0460   47.7020 C   0  0  0  0  0  0  0  0  0  0  0  0
   58.9590   30.9740   46.4390 C   0  0  0  0  0  0  0  0  0  0  0  0
   58.2350   30.5600   45.3060 C   0  0  0  0  0  0  0  0  0  0  0  0
   57.9170   29.2090   45.0870 O   0  0  0  0  0  0  0  0  0  0  0  0
   56.6500   28.6370   45.2590 C   0  0  0  0  0  0  0  0  0  0  0  0
   55.6040   29.2770   44.9680 O   0  0  0  0  0  0  0  0  0  0  0  0
   56.5460   27.2510   45.7280 C   0  0  0  0  0  0  0  0  0  0  0  0
   55.2680   26.6800   45.9990 N   0  0  0  0  0  0  0  0  0  0  0  0
   57.5880   26.5620   45.8910 O   0  0  0  0  0  0  0  0  0  0  0  0
   56.1801   30.5681   43.4111 H   0  0  0  0  0  0  0  0  0  0  0  0
   56.8452   31.9755   42.5145 H   0  0  0  0  0  0  0  0  0  0  0  0
   57.7288   30.4115   42.5145 H   0  0  0  0  0  0  0  0  0  0  0  0
   57.8793   33.6127   43.7843 H   0  0  0  0  0  0  0  0  0  0  0  0
   59.1330   34.3307   45.8128 H   0  0  0  0  0  0  0  0  0  0  0  0
   59.6980   33.7163   48.2033 H   0  0  0  0  0  0  0  0  0  0  0  0
   59.9970   31.9908   48.6149 H   0  0  0  0  0  0  0  0  0  0  0  0
   61.4664   34.7427   46.2681 H   0  0  0  0  0  0  0  0  0  0  0  0
   64.0542   34.2080   45.9143 H   0  0  0  0  0  0  0  0  0  0  0  0
   64.5630   31.9680   47.1750 H   0  0  0  0  0  0  0  0  0  0  0  0
   62.3786   31.1282   48.2988 H   0  0  0  0  0  0  0  0  0  0  0  0
   59.2860   30.2283   47.1786 H   0  0  0  0  0  0  0  0  0  0  0  0
   54.6440   27.0880   46.7290 H   0  0  0  0  0  0  0  0  0  0  0  0
  1  2  1  0
  2  3  2  0
  3  4  1  0
  4  5  2  0
  5  6  1  0
  6  7  1  0
  7  8  1  0
  8  9  2  0
  9 10  1  0
 10 11  2  0
  5 12  1  0
 12 13  2  0
 13 14  1  0
 14 15  1  0
 15 16  2  0
 15 17  1  0
 17 18  1  0
 17 19  2  0
 13  2  1  0
 11  7  1  0
  1 20  1  0
  1 21  1  0
  1 22  1  0
  3 23  1  0
  4 24  1  0
  6 25  1  0
  6 26  1  0
  8 27  1  0
  9 28  1  0
 10 29  1  0
 11 30  1  0
 12 31  1  0
 18 32  1  0
M  CHG  2  10   1  18  -1
M  END
>  <UniqueID>  (81) 
73

>  <SMILES>  (81) 
Cc1ccc(Cn2cc[nH+]c2)cc1OC(=O)C([NH-])=O

>  <Energy>  (81) 
62.41138132577601

>  <Genealogy>  (81) 
Cc1ccc(Cn2cc[nH+]c2)cc1OC(=O)C([NH-])=O (protonated)
Cc1ccc(Cn2cc[nH+]c2)cc1OC(=O)C([NH-])=O (3D coordinates assigned)
Cc1ccc(Cn2cc[nH+]c2)cc1OC(=O)C([NH-])=O (optimized conformer: 62.41138132577601 kcal/mol)

>  <smiles>  (81) 
Cc1ccc(Cn2ccnc2)cc1OC(=O)C(N)=O

>  <score_type>  (81) 
oracle

>  <origin>  (81) 
adg

>  <m_score__min__energy>  (81) 
-8.9700000000000006

>  <m_primary>  (81) 
energy

$$$$
82:0
     RDKit          3D

 57 59  0  0  0  0  0  0  0  0999 V2000
   62.5220   31.1530   49.6790 C   0  0  0  0  0  0  0  0  0  0  0  0
   61.6510   30.1980   50.4880 C   0  0  0  0  0  0  0  0  0  0  0  0
   60.6320   29.4820   49.5910 C   0  0  0  0  0  0  0  0  0  0  0  0
   60.5940   30.0630   48.1720 C   0  0  0  0  0  0  0  0  0  0  0  0
   59.4360   29.5150   47.3770 C   0  0  0  0  0  0  0  0  0  0  0  0
   59.2120   28.1890   47.2760 N   0  0  0  0  0  0  0  0  0  0  0  0
   58.1390   28.0910   46.4700 C   0  0  0  0  0  0  0  0  0  0  0  0
   57.4120   26.5540   46.0370 Cl  0  0  0  0  0  0  0  0  0  0  0  0
   57.7170   29.3530   46.0920 C   0  0  0  0  0  0  0  0  0  0  0  0
   56.5500   29.6530   45.2270 C   0  0  0  0  0  0  0  0  0  0  0  0
   55.5850   28.8470   45.1670 O   0  0  0  0  0  0  0  0  0  0  0  0
   56.4840   30.8300   44.4960 O   0  0  0  0  0  0  0  0  0  0  0  0
   58.5550   30.2560   46.6570 N   0  0  0  0  0  0  0  0  0  0  0  0
   58.5230   31.7200   46.5460 C   0  0  0  0  0  0  0  0  0  0  0  0
   57.8100   32.3350   47.7570 C   0  0  0  0  0  0  0  0  0  0  0  0
   58.8140   32.7900   48.7920 C   0  0  0  0  0  0  0  0  0  0  0  0
   59.8750   33.6190   48.3850 C   0  0  0  0  0  0  0  0  0  0  0  0
   60.7800   34.1260   49.3190 C   0  0  0  0  0  0  0  0  0  0  0  0
   60.6310   33.8260   50.6720 C   0  0  0  0  0  0  0  0  0  0  0  0
   59.5740   33.0190   51.0960 C   0  0  0  0  0  0  0  0  0  0  0  0
   58.6530   32.5010   50.1700 C   0  0  0  0  0  0  0  0  0  0  0  0
   57.5820   31.6610   50.6300 N   0  0  0  0  0  0  0  0  0  0  0  0
   57.7760   30.5910   51.5680 C   0  0  0  0  0  0  0  0  0  0  0  0
   58.8670   30.4830   52.1860 O   0  0  0  0  0  0  0  0  0  0  0  0
   56.6910   29.7210   51.9180 N   0  0  0  0  0  0  0  0  0  0  0  0
   55.4390   30.0420   52.0960 C   0  0  0  0  0  0  0  0  0  0  0  0
   54.6570   29.5260   53.1500 C   0  0  0  0  0  0  0  0  0  0  0  0
   53.3600   29.9080   53.2690 N   0  0  0  0  0  0  0  0  0  0  0  0
   52.7950   30.7930   52.4040 C   0  0  0  0  0  0  0  0  0  0  0  0
   51.3450   31.1490   52.5420 C   0  0  0  0  0  0  0  0  0  0  0  0
   51.0250   32.3310   51.6860 C   0  0  0  0  0  0  0  0  0  0  0  0
   50.6820   33.4200   52.2140 O   0  0  0  0  0  0  0  0  0  0  0  0
   51.0550   32.2160   50.3000 O   0  0  0  0  0  0  0  0  0  0  0  0
   53.5740   31.3190   51.3670 C   0  0  0  0  0  0  0  0  0  0  0  0
   54.8720   30.9370   51.2460 N   0  0  0  0  0  0  0  0  0  0  0  0
   63.1022   31.7892   50.3636 H   0  0  0  0  0  0  0  0  0  0  0  0
   63.2097   30.5741   49.0449 H   0  0  0  0  0  0  0  0  0  0  0  0
   61.8825   31.7846   49.0449 H   0  0  0  0  0  0  0  0  0  0  0  0
   62.2941   29.4474   50.9707 H   0  0  0  0  0  0  0  0  0  0  0  0
   61.1023   30.7810   51.2423 H   0  0  0  0  0  0  0  0  0  0  0  0
   60.9015   28.4173   49.5299 H   0  0  0  0  0  0  0  0  0  0  0  0
   59.6361   29.6201   50.0373 H   0  0  0  0  0  0  0  0  0  0  0  0
   60.4963   31.1567   48.2369 H   0  0  0  0  0  0  0  0  0  0  0  0
   61.5259   29.7807   47.6603 H   0  0  0  0  0  0  0  0  0  0  0  0
   59.5534   32.1022   46.5000 H   0  0  0  0  0  0  0  0  0  0  0  0
   57.9753   31.9957   45.6328 H   0  0  0  0  0  0  0  0  0  0  0  0
   57.2155   33.1992   47.4258 H   0  0  0  0  0  0  0  0  0  0  0  0
   57.1566   31.5735   48.2079 H   0  0  0  0  0  0  0  0  0  0  0  0
   59.9927   33.8701   47.3205 H   0  0  0  0  0  0  0  0  0  0  0  0
   61.6125   34.7636   48.9866 H   0  0  0  0  0  0  0  0  0  0  0  0
   61.3466   34.2253   51.4058 H   0  0  0  0  0  0  0  0  0  0  0  0
   59.4610   32.7864   52.1652 H   0  0  0  0  0  0  0  0  0  0  0  0
   56.6080   31.8760   50.3250 H   0  0  0  0  0  0  0  0  0  0  0  0
   55.0948   28.8192   53.8703 H   0  0  0  0  0  0  0  0  0  0  0  0
   50.7285   30.2940   52.2275 H   0  0  0  0  0  0  0  0  0  0  0  0
   51.1324   31.3960   53.5926 H   0  0  0  0  0  0  0  0  0  0  0  0
   53.1386   32.0361   50.6555 H   0  0  0  0  0  0  0  0  0  0  0  0
  1  2  1  0
  2  3  1  0
  3  4  1  0
  4  5  1  0
  5  6  2  0
  6  7  1  0
  7  8  1  0
  7  9  2  0
  9 10  1  0
 10 11  2  0
 10 12  1  0
  9 13  1  0
 13 14  1  0
 14 15  1  0
 15 16  1  0
 16 17  2  0
 17 18  1  0
 18 19  2  0
 19 20  1  0
 20 21  2  0
 21 22  1  0
 22 23  1  0
 23 24  2  0
 23 25  1  0
 25 26  2  3
 26 27  1  0
 27 28  2  0
 28 29  1  0
 29 30  1  0
 30 31  1  0
 31 32  2  0
 31 33  1  0
 29 34  2  0
 34 35  1  0
 13  5  1  0
 21 16  1  0
 35 26  1  0
  1 36  1  0
  1 37  1  0
  1 38  1  0
  2 39  1  0
  2 40  1  0
  3 41  1  0
  3 42  1  0
  4 43  1  0
  4 44  1  0
 14 45  1  0
 14 46  1  0
 15 47  1  0
 15 48  1  0
 17 49  1  0
 18 50  1  0
 19 51  1  0
 20 52  1  0
 22 53  1  0
 27 54  1  0
 30 55  1  0
 30 56  1  0
 34 57  1  0
M  CHG  3  12  -1  33  -1  35  -1
M  END
>  <UniqueID>  (82) 
74

>  <SMILES>  (82) 
CCCCc1nc(Cl)c(C(=O)[O-])n1CCc1ccccc1NC(=O)N=c1cnc(CC(=O)[O-])c[n-]1

>  <Energy>  (82) 
92.85501144705735

>  <Genealogy>  (82) 
CCCCc1nc(Cl)c(C(=O)[O-])n1CCc1ccccc1NC(=O)N=c1cnc(CC(=O)[O-])c[n-]1 (protonated)
CCCCc1nc(Cl)c(C(=O)[O-])n1CCc1ccccc1NC(=O)N=c1cnc(CC(=O)[O-])c[n-]1 (3D coordinates assigned)
CCCCc1nc(Cl)c(C(=O)[O-])n1CCc1ccccc1NC(=O)N=c1cnc(CC(=O)[O-])c[n-]1 (optimized conformer: 92.85501144705735 kcal/mol)

>  <smiles>  (82) 
CCCCc1nc(Cl)c(C(=O)O)n1CCc1ccccc1NC(=O)N=c1cnc(CC(=O)O)c[nH]1

>  <score_type>  (82) 
oracle

>  <origin>  (82) 
adg

>  <m_score__min__energy>  (82) 
-16.649999999999999

>  <m_primary>  (82) 
energy

$$$$
83:0
     RDKit          3D

 49 52  0  0  0  0  0  0  0  0999 V2000
   58.3855   20.6915   46.2168 H   0  0  0  0  0  0  0  0  0  0  0  0
   57.8550   21.5910   45.8710 C   0  0  0  0  0  0  0  0  0  0  0  0
   57.3680   22.5260   46.7310 N   0  0  0  0  0  0  0  0  0  0  0  0
   56.7560   23.5370   46.0800 C   0  0  0  0  0  0  0  0  0  0  0  0
   56.2170   24.5370   46.7170 N   0  0  0  0  0  0  0  0  0  0  0  0
   56.2360   25.9280   46.3510 C   0  0  0  0  0  0  0  0  0  0  0  0
   55.1830   26.5070   45.9680 O   0  0  0  0  0  0  0  0  0  0  0  0
   57.5020   26.6940   46.4340 C   0  0  0  0  0  0  0  0  0  0  0  0
   58.7350   26.0680   46.1690 C   0  0  0  0  0  0  0  0  0  0  0  0
   58.7590   25.0026   45.8962 H   0  0  0  0  0  0  0  0  0  0  0  0
   59.9280   26.7900   46.2500 C   0  0  0  0  0  0  0  0  0  0  0  0
   60.8867   26.2895   46.0491 H   0  0  0  0  0  0  0  0  0  0  0  0
   59.9070   28.1440   46.5850 C   0  0  0  0  0  0  0  0  0  0  0  0
   60.8498   28.7064   46.6547 H   0  0  0  0  0  0  0  0  0  0  0  0
   58.6880   28.7900   46.8330 C   0  0  0  0  0  0  0  0  0  0  0  0
   58.6460   30.1690   47.2030 N   0  0  0  0  0  0  0  0  0  0  0  0
   59.6940   30.8620   48.3970 S   0  0  0  0  0  0  0  0  0  0  0  0
   59.6070   32.3590   48.3110 O   0  0  0  0  0  0  0  0  0  0  0  0
   61.1110   30.4540   48.1040 O   0  0  0  0  0  0  0  0  0  0  0  0
   59.2470   30.3600   50.0240 C   0  0  0  0  0  0  0  0  0  0  0  0
   60.1670   29.6710   50.8250 C   0  0  0  0  0  0  0  0  0  0  0  0
   61.1756   29.4562   50.4422 H   0  0  0  0  0  0  0  0  0  0  0  0
   59.8060   29.2570   52.1070 C   0  0  0  0  0  0  0  0  0  0  0  0
   60.5339   28.7226   52.7351 H   0  0  0  0  0  0  0  0  0  0  0  0
   58.5240   29.5180   52.5970 C   0  0  0  0  0  0  0  0  0  0  0  0
   58.2487   29.1910   53.6105 H   0  0  0  0  0  0  0  0  0  0  0  0
   57.5830   30.1970   51.8010 C   0  0  0  0  0  0  0  0  0  0  0  0
   56.2190   30.4770   52.3100 C   0  0  0  0  0  0  0  0  0  0  0  0
   56.0000   30.4380   53.5520 O   0  0  0  0  0  0  0  0  0  0  0  0
   55.1570   30.8380   51.4110 N   0  0  0  0  0  0  0  0  0  0  0  0
   55.4130   31.3120   50.5150 H   0  0  0  0  0  0  0  0  0  0  0  0
   53.7600   30.7250   51.7350 C   0  0  0  0  0  0  0  0  0  0  0  0
   53.2860   29.5530   52.3450 C   0  0  0  0  0  0  0  0  0  0  0  0
   53.9807   28.7257   52.5520 H   0  0  0  0  0  0  0  0  0  0  0  0
   51.9380   29.4300   52.6910 C   0  0  0  0  0  0  0  0  0  0  0  0
   51.5729   28.5028   53.1570 H   0  0  0  0  0  0  0  0  0  0  0  0
   51.0530   30.4830   52.4460 C   0  0  0  0  0  0  0  0  0  0  0  0
   49.9917   30.3845   52.7180 H   0  0  0  0  0  0  0  0  0  0  0  0
   51.5170   31.6620   51.8550 C   0  0  0  0  0  0  0  0  0  0  0  0
   50.6380   32.7120   51.6200 O   0  0  0  0  0  0  0  0  0  0  0  0
   52.8660   31.7870   51.5050 C   0  0  0  0  0  0  0  0  0  0  0  0
   53.2292   32.7194   51.0481 H   0  0  0  0  0  0  0  0  0  0  0  0
   57.9600   30.6210   50.5120 C   0  0  0  0  0  0  0  0  0  0  0  0
   57.2376   31.1618   49.8829 H   0  0  0  0  0  0  0  0  0  0  0  0
   57.4940   28.0590   46.7780 C   0  0  0  0  0  0  0  0  0  0  0  0
   56.5401   28.5571   47.0061 H   0  0  0  0  0  0  0  0  0  0  0  0
   56.7980   23.3090   44.4080 S   0  0  0  0  0  0  0  0  0  0  0  0
   57.6340   21.8540   44.5230 C   0  0  0  0  0  0  0  0  0  0  0  0
   57.9504   21.2216   43.6804 H   0  0  0  0  0  0  0  0  0  0  0  0
  1  2  1  0
  2  3  1  0
  3  4  1  0
  4  5  2  0
  5  6  1  0
  6  7  2  0
  6  8  1  0
  8  9  2  0
  9 10  1  0
  9 11  1  0
 11 12  1  0
 11 13  2  0
 13 14  1  0
 13 15  1  0
 15 16  1  0
 16 17  1  0
 17 18  2  0
 17 19  2  0
 17 20  1  0
 20 21  2  0
 21 22  1  0
 21 23  1  0
 23 24  1  0
 23 25  2  0
 25 26  1  0
 25 27  1  0
 27 28  1  0
 28 29  2  0
 28 30  1  0
 30 31  1  0
 30 32  1  0
 32 33  2  0
 33 34  1  0
 33 35  1  0
 35 36  1  0
 35 37  2  0
 37 38  1  0
 37 39  1  0
 39 40  1  0
 39 41  2  0
 41 42  1  0
 27 43  2  0
 43 44  1  0
 15 45  2  0
 45 46  1  0
  4 47  1  0
 47 48  1  0
 48 49  1  0
 48  2  2  0
 45  8  1  0
 43 20  1  0
 41 32  1  0
M  CHG  3   3  -1  16  -1  40  -1
M  END
>  <UniqueID>  (83) 
75

>  <SMILES>  (83) 
O=C(/N=c1/[n-]ccs1)c1cccc([N-]S(=O)(=O)c2cccc(C(=O)Nc3cccc([O-])c3)c2)c1

>  <Energy>  (83) 
102.7586641458547

>  <Genealogy>  (83) 
O=C(N=c1[n-]ccs1)c1cccc([N-]S(=O)(=O)c2cccc(C(=O)Nc3cccc([O-])c3)c2)c1 (protonated)
O=C(/N=c1/[n-]ccs1)c1cccc([N-]S(=O)(=O)c2cccc(C(=O)Nc3cccc([O-])c3)c2)c1 (cis-trans isomerization)
O=C(/N=c1/[n-]ccs1)c1cccc([N-]S(=O)(=O)c2cccc(C(=O)Nc3cccc([O-])c3)c2)c1 (3D coordinates assigned)
O=C(/N=c1/[n-]ccs1)c1cccc([N-]S(=O)(=O)c2cccc(C(=O)Nc3cccc([O-])c3)c2)c1 (optimized conformer: 102.7586641458547 kcal/mol)

>  <smiles>  (83) 
O=C(N=c1[nH]ccs1)c1cccc(NS(=O)(=O)c2cccc(C(=O)Nc3cccc(O)c3)c2)c1

>  <score_type>  (83) 
oracle

>  <origin>  (83) 
adg

>  <m_score__min__energy>  (83) 
-16.940000000000001

>  <m_primary>  (83) 
energy

$$$$
84:0
     RDKit          3D

 66 68  0  0  0  0  0  0  0  0999 V2000
   58.0670   31.1870   51.1120 H   0  0  0  0  0  0  0  0  0  0  0  0
   57.7810   31.6060   50.2570 O   0  0  0  0  0  0  0  0  0  0  0  0
   58.9280   31.6430   49.4520 C   0  0  0  0  0  0  0  0  0  0  0  0
   59.6852   32.2891   49.9202 H   0  0  0  0  0  0  0  0  0  0  0  0
   58.6705   32.0440   48.4606 H   0  0  0  0  0  0  0  0  0  0  0  0
   59.4780   30.2450   49.3060 C   0  0  0  0  0  0  0  0  0  0  0  0
   59.9230   29.5350   50.4440 C   0  0  0  0  0  0  0  0  0  0  0  0
   59.8440   30.1340   51.7390 N   0  0  0  0  0  0  0  0  0  0  0  0
   58.4370   29.9530   52.7440 S   0  0  0  0  0  0  0  0  0  0  0  0
   58.0140   31.2970   53.2760 O   0  0  0  0  0  0  0  0  0  0  0  0
   57.3040   29.3410   51.9550 O   0  0  0  0  0  0  0  0  0  0  0  0
   58.8560   28.9050   54.1190 C   0  0  0  0  0  0  0  0  0  0  0  0
   58.6448   29.4333   55.0604 H   0  0  0  0  0  0  0  0  0  0  0  0
   58.2572   27.9834   54.0734 H   0  0  0  0  0  0  0  0  0  0  0  0
   59.9251   28.6502   54.0734 H   0  0  0  0  0  0  0  0  0  0  0  0
   60.4100   28.2250   50.3110 C   0  0  0  0  0  0  0  0  0  0  0  0
   60.7683   27.6820   51.1980 H   0  0  0  0  0  0  0  0  0  0  0  0
   60.4420   27.6080   49.0600 C   0  0  0  0  0  0  0  0  0  0  0  0
   60.8496   26.5913   48.9587 H   0  0  0  0  0  0  0  0  0  0  0  0
   59.9580   28.2790   47.9390 C   0  0  0  0  0  0  0  0  0  0  0  0
   59.9697   27.7824   46.9576 H   0  0  0  0  0  0  0  0  0  0  0  0
   59.4550   29.5860   48.0540 C   0  0  0  0  0  0  0  0  0  0  0  0
   58.8490   30.2170   46.8700 C   0  0  0  0  0  0  0  0  0  0  0  0
   58.9800   31.5250   46.5970 N   0  0  0  0  0  0  0  0  0  0  0  0
   58.3740   31.6740   45.3980 C   0  0  0  0  0  0  0  0  0  0  0  0
   58.2350   33.0110   44.7000 C   0  0  0  0  0  0  0  0  0  0  0  0
   58.0720   32.7660   43.1900 C   0  0  0  0  0  0  0  0  0  0  0  0
   57.4693   31.8601   43.0285 H   0  0  0  0  0  0  0  0  0  0  0  0
   57.5673   33.6289   42.7309 H   0  0  0  0  0  0  0  0  0  0  0  0
   59.0628   32.6339   42.7309 H   0  0  0  0  0  0  0  0  0  0  0  0
   59.4880   33.8740   44.9550 C   0  0  0  0  0  0  0  0  0  0  0  0
   59.6446   33.9819   46.0384 H   0  0  0  0  0  0  0  0  0  0  0  0
   60.3659   33.3881   44.5042 H   0  0  0  0  0  0  0  0  0  0  0  0
   59.3470   34.8674   44.5042 H   0  0  0  0  0  0  0  0  0  0  0  0
   56.9950   33.7590   45.2340 C   0  0  0  0  0  0  0  0  0  0  0  0
   57.0077   33.7514   46.3339 H   0  0  0  0  0  0  0  0  0  0  0  0
   57.0107   34.7984   44.8743 H   0  0  0  0  0  0  0  0  0  0  0  0
   56.0829   33.2603   44.8743 H   0  0  0  0  0  0  0  0  0  0  0  0
   57.8580   30.5240   44.9100 N   0  0  0  0  0  0  0  0  0  0  0  0
   58.1690   29.5990   45.8380 C   0  0  0  0  0  0  0  0  0  0  0  0
   57.8710   28.1590   45.7010 C   0  0  0  0  0  0  0  0  0  0  0  0
   56.6570   27.6790   46.0840 N   0  0  0  0  0  0  0  0  0  0  0  0
   56.3580   26.3570   46.0060 C   0  0  0  0  0  0  0  0  0  0  0  0
   55.1790   25.9500   46.3710 N   0  0  0  0  0  0  0  0  0  0  0  0
   54.3360   25.0440   45.5920 C   0  0  0  0  0  0  0  0  0  0  0  0
   54.3467   25.3519   44.5360 H   0  0  0  0  0  0  0  0  0  0  0  0
   53.3065   25.0825   45.9776 H   0  0  0  0  0  0  0  0  0  0  0  0
   54.8710   23.6070   45.7110 C   0  0  2  0  0  0  0  0  0  0  0  0
   55.9263   23.6785   46.0129 H   0  0  0  0  0  0  0  0  0  0  0  0
   54.8100   22.9110   44.4250 N   0  0  0  0  0  0  0  0  0  0  0  0
   55.8030   22.9380   43.3970 C   0  0  0  0  0  0  0  0  0  0  0  0
   56.3960   24.0140   43.1040 O   0  0  0  0  0  0  0  0  0  0  0  0
   56.1620   21.7420   42.7750 O   0  0  0  0  0  0  0  0  0  0  0  0
   57.4050   21.0970   43.0180 C   0  0  0  0  0  0  0  0  0  0  0  0
   57.5683   21.0123   44.1025 H   0  0  0  0  0  0  0  0  0  0  0  0
   57.3907   20.0926   42.5698 H   0  0  0  0  0  0  0  0  0  0  0  0
   58.2180   21.6870   42.5698 H   0  0  0  0  0  0  0  0  0  0  0  0
   54.1310   22.8120   46.7960 C   0  0  0  0  0  0  0  0  0  0  0  0
   54.4537   23.1586   47.7888 H   0  0  0  0  0  0  0  0  0  0  0  0
   53.0471   22.9658   46.6883 H   0  0  0  0  0  0  0  0  0  0  0  0
   54.3620   21.7419   46.6883 H   0  0  0  0  0  0  0  0  0  0  0  0
   57.2920   25.4820   45.5420 N   0  0  0  0  0  0  0  0  0  0  0  0
   58.5180   25.9120   45.1450 C   0  0  0  0  0  0  0  0  0  0  0  0
   59.2594   25.1910   44.7702 H   0  0  0  0  0  0  0  0  0  0  0  0
   58.8360   27.2680   45.2130 C   0  0  0  0  0  0  0  0  0  0  0  0
   59.8232   27.6304   44.8905 H   0  0  0  0  0  0  0  0  0  0  0  0
  1  2  1  0
  2  3  1  0
  3  4  1  0
  3  5  1  0
  3  6  1  0
  6  7  2  0
  7  8  1  0
  8  9  1  0
  9 10  2  0
  9 11  2  0
  9 12  1  0
 12 13  1  0
 12 14  1  0
 12 15  1  0
  7 16  1  0
 16 17  1  0
 16 18  2  0
 18 19  1  0
 18 20  1  0
 20 21  1  0
 20 22  2  0
 22 23  1  0
 23 24  1  0
 24 25  1  0
 25 26  1  0
 26 27  1  0
 27 28  1  0
 27 29  1  0
 27 30  1  0
 26 31  1  0
 31 32  1  0
 31 33  1  0
 31 34  1  0
 26 35  1  0
 35 36  1  0
 35 37  1  0
 35 38  1  0
 25 39  2  0
 39 40  1  0
 40 41  1  0
 41 42  2  0
 42 43  1  0
 43 44  2  0
 44 45  1  0
 45 46  1  0
 45 47  1  0
 45 48  1  0
 48 49  1  1
 48 50  1  0
 50 51  1  0
 51 52  2  0
 51 53  1  0
 53 54  1  0
 54 55  1  0
 54 56  1  0
 54 57  1  0
 48 58  1  0
 58 59  1  0
 58 60  1  0
 58 61  1  0
 43 62  1  0
 62 63  1  0
 63 64  1  0
 63 65  2  0
 65 66  1  0
 22  6  1  0
 40 23  2  0
 65 41  1  0
M  CHG  4   8  -1  24  -1  50  -1  62  -1
M  END
>  <UniqueID>  (84) 
76

>  <SMILES>  (84) 
COC(=O)[N-][C@H](C)C/N=c1/nc(-c2nc(C(C)(C)C)[n-]c2-c2cccc([N-]S(C)(=O)=O)c2CO)cc[n-]1

>  <Energy>  (84) 
96.81722344574435

>  <Genealogy>  (84) 
COC(=O)[N-]C(C)CN=c1nc(-c2nc(C(C)(C)C)[n-]c2-c2cccc([N-]S(C)(=O)=O)c2CO)cc[n-]1 (protonated)
COC(=O)[N-][C@H](C)CN=c1nc(-c2nc(C(C)(C)C)[n-]c2-c2cccc([N-]S(C)(=O)=O)c2CO)cc[n-]1 (chirality)
COC(=O)[N-][C@H](C)C/N=c1/nc(-c2nc(C(C)(C)C)[n-]c2-c2cccc([N-]S(C)(=O)=O)c2CO)cc[n-]1 (cis-trans isomerization)
COC(=O)[N-][C@H](C)C/N=c1/nc(-c2nc(C(C)(C)C)[n-]c2-c2cccc([N-]S(C)(=O)=O)c2CO)cc[n-]1 (3D coordinates assigned)
COC(=O)[N-][C@H](C)C/N=c1/nc(-c2nc(C(C)(C)C)[n-]c2-c2cccc([N-]S(C)(=O)=O)c2CO)cc[n-]1 (optimized conformer: 96.81722344574435 kcal/mol)

>  <smiles>  (84) 
COC(=O)NC(C)CN=c1nc(-c2nc(C(C)(C)C)[nH]c2-c2cccc(NS(C)(=O)=O)c2CO)cc[nH]1

>  <score_type>  (84) 
oracle

>  <origin>  (84) 
adg

>  <m_score__min__energy>  (84) 
-15.49

>  <m_primary>  (84) 
energy

$$$$
85:0
     RDKit          3D

 35 36  0  0  0  0  0  0  0  0999 V2000
   59.7110   34.9970   46.2340 C   0  0  0  0  0  0  0  0  0  0  0  0
   58.4120   34.4590   46.0060 O   0  0  0  0  0  0  0  0  0  0  0  0
   58.1660   33.1780   45.4880 C   0  0  0  0  0  0  0  0  0  0  0  0
   57.9200   33.0520   44.1160 C   0  0  0  0  0  0  0  0  0  0  0  0
   57.6680   31.7980   43.5510 C   0  0  0  0  0  0  0  0  0  0  0  0
   57.6590   30.6450   44.3530 C   0  0  0  0  0  0  0  0  0  0  0  0
   57.3820   29.2870   43.7320 C   0  0  2  0  0  0  0  0  0  0  0  0
   56.2640   29.3820   42.6870 C   0  0  0  0  0  0  0  0  0  0  0  0
   57.0310   28.3070   44.7670 N   0  0  0  0  0  0  0  0  0  0  0  0
   58.0160   27.6980   45.6130 C   0  0  0  0  0  0  0  0  0  0  0  0
   59.2250   28.0510   45.5430 O   0  0  0  0  0  0  0  0  0  0  0  0
   57.6210   26.6090   46.5600 C   0  0  0  0  0  0  0  0  0  0  0  0
   56.3140   26.0210   46.1370 C   0  0  0  0  0  0  0  0  0  0  0  0
   56.0950   24.7180   45.7390 C   0  0  0  0  0  0  0  0  0  0  0  0
   54.7560   24.7220   45.4290 C   0  0  0  0  0  0  0  0  0  0  0  0
   54.1020   23.7290   45.0130 O   0  0  0  0  0  0  0  0  0  0  0  0
   54.2180   25.9380   45.6260 N   0  0  0  0  0  0  0  0  0  0  0  0
   55.1890   26.6960   46.0500 O   0  0  0  0  0  0  0  0  0  0  0  0
   57.9060   30.7720   45.7320 C   0  0  0  0  0  0  0  0  0  0  0  0
   58.1570   32.0260   46.2950 C   0  0  0  0  0  0  0  0  0  0  0  0
   59.8920   35.0720   47.3164 H   0  0  0  0  0  0  0  0  0  0  0  0
   60.4658   34.3375   45.7808 H   0  0  0  0  0  0  0  0  0  0  0  0
   59.7784   35.9970   45.7808 H   0  0  0  0  0  0  0  0  0  0  0  0
   57.9249   33.9471   43.4767 H   0  0  0  0  0  0  0  0  0  0  0  0
   57.4755   31.7140   42.4712 H   0  0  0  0  0  0  0  0  0  0  0  0
   58.2994   28.9502   43.2272 H   0  0  0  0  0  0  0  0  0  0  0  0
   55.2924   29.4646   43.1960 H   0  0  0  0  0  0  0  0  0  0  0  0
   56.4248   30.2697   42.0576 H   0  0  0  0  0  0  0  0  0  0  0  0
   56.2727   28.4799   42.0576 H   0  0  0  0  0  0  0  0  0  0  0  0
   56.0350   28.0100   44.8840 H   0  0  0  0  0  0  0  0  0  0  0  0
   58.3924   25.8248   46.5572 H   0  0  0  0  0  0  0  0  0  0  0  0
   57.5211   27.0264   47.5728 H   0  0  0  0  0  0  0  0  0  0  0  0
   56.8118   23.8855   45.6837 H   0  0  0  0  0  0  0  0  0  0  0  0
   57.9015   29.8774   46.3720 H   0  0  0  0  0  0  0  0  0  0  0  0
   58.3485   32.1127   47.3747 H   0  0  0  0  0  0  0  0  0  0  0  0
  1  2  1  0
  2  3  1  0
  3  4  2  0
  4  5  1  0
  5  6  2  0
  6  7  1  0
  7  8  1  0
  7  9  1  0
  9 10  1  0
 10 11  2  0
 10 12  1  0
 12 13  1  0
 13 14  2  0
 14 15  1  0
 15 16  2  0
 15 17  1  0
 17 18  1  0
  6 19  1  0
 19 20  2  0
 20  3  1  0
 18 13  1  0
  1 21  1  0
  1 22  1  0
  1 23  1  0
  4 24  1  0
  5 25  1  0
  7 26  1  6
  8 27  1  0
  8 28  1  0
  8 29  1  0
  9 30  1  0
 12 31  1  0
 12 32  1  0
 14 33  1  0
 19 34  1  0
 20 35  1  0
M  CHG  1  17  -1
M  END
>  <UniqueID>  (85) 
77

>  <SMILES>  (85) 
COc1ccc([C@H](C)NC(=O)Cc2cc(=O)[n-]o2)cc1

>  <Energy>  (85) 
60.49456325994173

>  <Genealogy>  (85) 
COc1ccc(C(C)NC(=O)Cc2cc(=O)[n-]o2)cc1 (protonated)
COc1ccc([C@H](C)NC(=O)Cc2cc(=O)[n-]o2)cc1 (chirality)
COc1ccc([C@H](C)NC(=O)Cc2cc(=O)[n-]o2)cc1 (3D coordinates assigned)
COc1ccc([C@H](C)NC(=O)Cc2cc(=O)[n-]o2)cc1 (optimized conformer: 60.49456325994173 kcal/mol)

>  <smiles>  (85) 
COc1ccc(C(C)NC(=O)Cc2cc(=O)[nH]o2)cc1

>  <score_type>  (85) 
oracle

>  <origin>  (85) 
adg

>  <m_score__min__energy>  (85) 
-10.050000000000001

>  <m_primary>  (85) 
energy

$$$$
86:0
     RDKit          3D

 43 46  0  0  0  0  0  0  0  0999 V2000
   55.1490   29.3520   44.8920 N   0  0  0  0  0  0  0  0  0  0  0  0
   56.5870   29.7950   44.0390 S   0  0  0  0  0  0  0  0  0  0  0  0
   57.2310   28.5470   43.5060 O   0  0  0  0  0  0  0  0  0  0  0  0
   56.2220   30.6990   42.8960 O   0  0  0  0  0  0  0  0  0  0  0  0
   57.7140   30.6340   45.1090 C   0  0  0  0  0  0  0  0  0  0  0  0
   57.7540   32.0360   45.1200 C   0  0  0  0  0  0  0  0  0  0  0  0
   58.6820   32.7170   45.9230 C   0  0  0  0  0  0  0  0  0  0  0  0
   58.7820   34.1930   45.8630 C   0  0  0  0  0  0  0  0  0  0  0  0
   58.1940   34.8120   44.9370 O   0  0  0  0  0  0  0  0  0  0  0  0
   59.4980   34.9500   46.8530 N   0  0  0  0  0  0  0  0  0  0  0  0
   60.5710   34.5590   47.4770 C   0  0  0  0  0  0  0  0  0  0  0  0
   61.6840   34.1020   46.8410 N   0  0  0  0  0  0  0  0  0  0  0  0
   62.5050   33.8240   47.8620 C   0  0  0  0  0  0  0  0  0  0  0  0
   63.7940   33.3020   47.8010 C   0  0  0  0  0  0  0  0  0  0  0  0
   64.4680   33.0800   49.0160 C   0  0  0  0  0  0  0  0  0  0  0  0
   63.8410   33.3860   50.2460 C   0  0  0  0  0  0  0  0  0  0  0  0
   62.5360   33.9140   50.2690 C   0  0  0  0  0  0  0  0  0  0  0  0
   61.9000   34.1180   49.0460 C   0  0  0  0  0  0  0  0  0  0  0  0
   60.6640   34.5940   48.8320 N   0  0  0  0  0  0  0  0  0  0  0  0
   59.5240   31.9820   46.7690 C   0  0  0  0  0  0  0  0  0  0  0  0
   59.4980   30.5880   46.7540 C   0  0  0  0  0  0  0  0  0  0  0  0
   58.6180   29.9000   45.8990 C   0  0  0  0  0  0  0  0  0  0  0  0
   58.6310   28.4980   45.7980 O   0  0  0  0  0  0  0  0  0  0  0  0
   58.7420   27.6000   46.9030 C   0  0  0  0  0  0  0  0  0  0  0  0
   57.7070   26.5160   46.8030 C   0  0  0  0  0  0  0  0  0  0  0  0
   57.9680   25.2340   47.3010 C   0  0  0  0  0  0  0  0  0  0  0  0
   56.9610   24.2710   47.2240 C   0  0  0  0  0  0  0  0  0  0  0  0
   57.1600   23.1090   47.6630 O   0  0  0  0  0  0  0  0  0  0  0  0
   55.7590   24.5910   46.6750 N   0  0  0  0  0  0  0  0  0  0  0  0
   55.5200   25.8400   46.1990 C   0  0  0  0  0  0  0  0  0  0  0  0
   54.4000   26.1180   45.6990 O   0  0  0  0  0  0  0  0  0  0  0  0
   56.4890   26.7910   46.2650 N   0  0  0  0  0  0  0  0  0  0  0  0
   55.4130   28.6020   45.5680 H   0  0  0  0  0  0  0  0  0  0  0  0
   57.0522   32.6066   44.4940 H   0  0  0  0  0  0  0  0  0  0  0  0
   64.2693   33.0710   46.8362 H   0  0  0  0  0  0  0  0  0  0  0  0
   65.4873   32.6665   49.0090 H   0  0  0  0  0  0  0  0  0  0  0  0
   64.3762   33.2104   51.1908 H   0  0  0  0  0  0  0  0  0  0  0  0
   62.0364   34.1568   51.2184 H   0  0  0  0  0  0  0  0  0  0  0  0
   60.2097   32.5084   47.4492 H   0  0  0  0  0  0  0  0  0  0  0  0
   60.1705   30.0222   47.4155 H   0  0  0  0  0  0  0  0  0  0  0  0
   59.7438   27.1458   46.9016 H   0  0  0  0  0  0  0  0  0  0  0  0
   58.5824   28.1607   47.8358 H   0  0  0  0  0  0  0  0  0  0  0  0
   58.9454   24.9911   47.7433 H   0  0  0  0  0  0  0  0  0  0  0  0
  1  2  1  0
  2  3  2  0
  2  4  2  0
  2  5  1  0
  5  6  2  0
  6  7  1  0
  7  8  1  0
  8  9  2  0
  8 10  1  0
 10 11  2  3
 11 12  1  0
 12 13  1  0
 13 14  2  0
 14 15  1  0
 15 16  2  0
 16 17  1  0
 17 18  2  0
 18 19  1  0
  7 20  2  0
 20 21  1  0
 21 22  2  0
 22 23  1  0
 23 24  1  0
 24 25  1  0
 25 26  2  0
 26 27  1  0
 27 28  2  0
 27 29  1  0
 29 30  1  0
 30 31  2  0
 30 32  1  0
 22  5  1  0
 32 25  1  0
 19 11  1  0
 18 13  1  0
  1 33  1  0
  6 34  1  0
 14 35  1  0
 15 36  1  0
 16 37  1  0
 17 38  1  0
 20 39  1  0
 21 40  1  0
 24 41  1  0
 24 42  1  0
 26 43  1  0
M  CHG  5   1  -1  12  -1  19  -1  29  -1  32  -1
M  END
>  <UniqueID>  (86) 
78

>  <SMILES>  (86) 
[NH-]S(=O)(=O)c1cc(C(=O)N=c2[n-]c3ccccc3[n-]2)ccc1OCc1cc(=O)[n-]c(=O)[n-]1

>  <Energy>  (86) 
90.01732672781357

>  <Genealogy>  (86) 
[NH-]S(=O)(=O)c1cc(C(=O)N=c2[n-]c3ccccc3[n-]2)ccc1OCc1cc(=O)[n-]c(=O)[n-]1 (protonated)
[NH-]S(=O)(=O)c1cc(C(=O)N=c2[n-]c3ccccc3[n-]2)ccc1OCc1cc(=O)[n-]c(=O)[n-]1 (3D coordinates assigned)
[NH-]S(=O)(=O)c1cc(C(=O)N=c2[n-]c3ccccc3[n-]2)ccc1OCc1cc(=O)[n-]c(=O)[n-]1 (optimized conformer: 90.01732672781357 kcal/mol)

>  <smiles>  (86) 
NS(=O)(=O)c1cc(C(=O)N=c2[nH]c3ccccc3[nH]2)ccc1OCc1cc(=O)[nH]c(=O)[nH]1

>  <score_type>  (86) 
oracle

>  <origin>  (86) 
adg

>  <m_score__min__energy>  (86) 
-17.66

>  <m_primary>  (86) 
energy

$$$$
87:0
     RDKit          3D

 51 54  0  0  0  0  0  0  0  0999 V2000
   59.3820   27.9250   43.8090 N   0  0  0  0  0  0  0  0  0  0  0  0
   58.3670   28.6780   44.5430 C   0  0  2  0  0  0  0  0  0  0  0  0
   59.0290   29.5680   45.5630 C   0  0  0  0  0  0  0  0  0  0  0  0
   60.2870   29.5980   45.6400 O   0  0  0  0  0  0  0  0  0  0  0  0
   58.2550   30.5040   46.3340 N   0  0  0  0  0  0  0  0  0  0  0  0
   57.6310   31.6210   45.6170 C   0  0  0  0  0  0  0  0  0  0  0  0
   58.4870   32.8630   45.7370 C   0  0  0  0  0  0  0  0  0  0  0  0
   58.2750   33.9350   44.8580 C   0  0  0  0  0  0  0  0  0  0  0  0
   59.0130   35.1140   44.9870 C   0  0  0  0  0  0  0  0  0  0  0  0
   59.9640   35.2360   46.0020 C   0  0  0  0  0  0  0  0  0  0  0  0
   60.1770   34.1820   46.8930 C   0  0  0  0  0  0  0  0  0  0  0  0
   59.4330   32.9950   46.7840 C   0  0  0  0  0  0  0  0  0  0  0  0
   59.7330   31.8520   47.7340 C   0  0  0  0  0  0  0  0  0  0  0  0
   58.6080   30.8060   47.7280 C   0  0  2  0  0  0  0  0  0  0  0  0
   58.9330   29.5750   48.5350 C   0  0  0  0  0  0  0  0  0  0  0  0
   58.2880   29.3130   49.5880 O   0  0  0  0  0  0  0  0  0  0  0  0
   59.9800   28.7000   48.0950 N   0  0  0  0  0  0  0  0  0  0  0  0
   60.1940   27.3730   48.6670 C   0  0  0  0  0  0  0  0  0  0  0  0
   60.8780   27.4760   50.0010 C   0  0  0  0  0  0  0  0  0  0  0  0
   61.1210   26.3180   50.7580 C   0  0  0  0  0  0  0  0  0  0  0  0
   61.7530   26.4100   51.9970 C   0  0  0  0  0  0  0  0  0  0  0  0
   62.1540   27.6570   52.4870 C   0  0  0  0  0  0  0  0  0  0  0  0
   62.7820   27.7440   53.6800 F   0  0  0  0  0  0  0  0  0  0  0  0
   61.9180   28.8140   51.7380 C   0  0  0  0  0  0  0  0  0  0  0  0
   61.2790   28.7260   50.5020 C   0  0  0  0  0  0  0  0  0  0  0  0
   57.3970   27.7290   45.1970 C   0  0  0  0  0  0  0  0  0  0  0  0
   57.7660   26.5770   45.7860 N   0  0  0  0  0  0  0  0  0  0  0  0
   56.6050   26.0710   46.2550 C   0  0  0  0  0  0  0  0  0  0  0  0
   56.5420   24.9740   46.8700 O   0  0  0  0  0  0  0  0  0  0  0  0
   55.5190   26.8350   46.0160 N   0  0  0  0  0  0  0  0  0  0  0  0
   56.0360   27.8840   45.3530 C   0  0  0  0  0  0  0  0  0  0  0  0
   55.2800   28.9670   44.9190 O   0  0  0  0  0  0  0  0  0  0  0  0
   60.3250   28.2240   44.1540 H   0  0  0  0  0  0  0  0  0  0  0  0
   59.2880   26.9140   44.0680 H   0  0  0  0  0  0  0  0  0  0  0  0
   57.8046   29.3146   43.8441 H   0  0  0  0  0  0  0  0  0  0  0  0
   57.5226   31.3557   44.5550 H   0  0  0  0  0  0  0  0  0  0  0  0
   56.6430   31.8224   46.0567 H   0  0  0  0  0  0  0  0  0  0  0  0
   57.5220   33.8468   44.0610 H   0  0  0  0  0  0  0  0  0  0  0  0
   58.8448   35.9469   44.2884 H   0  0  0  0  0  0  0  0  0  0  0  0
   60.5465   36.1640   46.1000 H   0  0  0  0  0  0  0  0  0  0  0  0
   60.9328   34.2817   47.6860 H   0  0  0  0  0  0  0  0  0  0  0  0
   60.6722   31.3688   47.4267 H   0  0  0  0  0  0  0  0  0  0  0  0
   59.8184   32.2617   48.7513 H   0  0  0  0  0  0  0  0  0  0  0  0
   57.7293   31.2297   48.2363 H   0  0  0  0  0  0  0  0  0  0  0  0
   60.5830   28.9980   47.2940 H   0  0  0  0  0  0  0  0  0  0  0  0
   59.2222   26.8742   48.7966 H   0  0  0  0  0  0  0  0  0  0  0  0
   60.8322   26.7917   47.9852 H   0  0  0  0  0  0  0  0  0  0  0  0
   60.8116   25.3356   50.3719 H   0  0  0  0  0  0  0  0  0  0  0  0
   61.9364   25.5015   52.5895 H   0  0  0  0  0  0  0  0  0  0  0  0
   62.2365   29.7936   52.1240 H   0  0  0  0  0  0  0  0  0  0  0  0
   61.0882   29.6379   49.9172 H   0  0  0  0  0  0  0  0  0  0  0  0
  1  2  1  0
  2  3  1  0
  3  4  2  0
  3  5  1  0
  5  6  1  0
  6  7  1  0
  7  8  2  0
  8  9  1  0
  9 10  2  0
 10 11  1  0
 11 12  2  0
 12 13  1  0
 13 14  1  0
 14 15  1  0
 15 16  2  0
 15 17  1  0
 17 18  1  0
 18 19  1  0
 19 20  2  0
 20 21  1  0
 21 22  2  0
 22 23  1  0
 22 24  1  0
 24 25  2  0
  2 26  1  0
 26 27  1  0
 27 28  1  0
 28 29  2  0
 28 30  1  0
 30 31  1  0
 31 32  1  0
 14  5  1  0
 25 19  1  0
 31 26  2  0
 12  7  1  0
  1 33  1  0
  1 34  1  0
  2 35  1  6
  6 36  1  0
  6 37  1  0
  8 38  1  0
  9 39  1  0
 10 40  1  0
 11 41  1  0
 13 42  1  0
 13 43  1  0
 14 44  1  1
 17 45  1  0
 18 46  1  0
 18 47  1  0
 20 48  1  0
 21 49  1  0
 24 50  1  0
 25 51  1  0
M  CHG  3  27  -1  30  -1  32  -1
M  END
>  <UniqueID>  (87) 
79

>  <SMILES>  (87) 
N[C@H](C(=O)N1Cc2ccccc2C[C@@H]1C(=O)NCc1ccc(F)cc1)c1[n-]c(=O)[n-]c1[O-]

>  <Energy>  (87) 
89.89439831173742

>  <Genealogy>  (87) 
NC(C(=O)N1Cc2ccccc2CC1C(=O)NCc1ccc(F)cc1)c1[n-]c(=O)[n-]c1[O-] (protonated)
N[C@H](C(=O)N1Cc2ccccc2C[C@@H]1C(=O)NCc1ccc(F)cc1)c1[n-]c(=O)[n-]c1[O-] (chirality)
N[C@H](C(=O)N1Cc2ccccc2C[C@@H]1C(=O)NCc1ccc(F)cc1)c1[n-]c(=O)[n-]c1[O-] (3D coordinates assigned)
N[C@H](C(=O)N1Cc2ccccc2C[C@@H]1C(=O)NCc1ccc(F)cc1)c1[n-]c(=O)[n-]c1[O-] (nonaromatic ring conformer: 89.89439831173742 kcal/mol)

>  <smiles>  (87) 
NC(C(=O)N1Cc2ccccc2CC1C(=O)NCc1ccc(F)cc1)c1[nH]c(=O)[nH]c1O

>  <score_type>  (87) 
oracle

>  <origin>  (87) 
adg

>  <m_score__min__energy>  (87) 
-15.35

>  <m_primary>  (87) 
energy

$$$$
88:0
     RDKit          3D

 50 54  0  0  0  0  0  0  0  0999 V2000
   56.3113   32.4496   43.9031 H   0  0  0  0  0  0  0  0  0  0  0  0
   56.5870   31.5520   44.4760 C   0  0  0  0  0  0  0  0  0  0  0  0
   55.8920   30.3870   44.3820 N   0  0  0  0  0  0  0  0  0  0  0  0
   56.4100   29.4260   45.1730 C   0  0  0  0  0  0  0  0  0  0  0  0
   55.9020   28.2340   45.2370 N   0  0  0  0  0  0  0  0  0  0  0  0
   56.6810   26.8660   45.9680 S   0  0  0  0  0  0  0  0  0  0  0  0
   55.6560   25.8470   46.3770 O   0  0  0  0  0  0  0  0  0  0  0  0
   57.4210   27.3270   47.1930 O   0  0  0  0  0  0  0  0  0  0  0  0
   57.8450   26.1440   44.8310 C   0  0  0  0  0  0  0  0  0  0  0  0
   58.6477   25.6461   45.3948 H   0  0  0  0  0  0  0  0  0  0  0  0
   57.3299   25.4066   44.1978 H   0  0  0  0  0  0  0  0  0  0  0  0
   58.2767   26.9331   44.1978 H   0  0  0  0  0  0  0  0  0  0  0  0
   57.7530   29.9790   46.0230 S   0  0  0  0  0  0  0  0  0  0  0  0
   57.6780   31.5290   45.3530 C   0  0  0  0  0  0  0  0  0  0  0  0
   58.6140   32.6460   45.6560 C   0  0  0  0  0  0  0  0  0  0  0  0
   58.4440   33.8980   45.0330 C   0  0  0  0  0  0  0  0  0  0  0  0
   57.6137   34.0477   44.3272 H   0  0  0  0  0  0  0  0  0  0  0  0
   59.3210   34.9510   45.3040 C   0  0  0  0  0  0  0  0  0  0  0  0
   59.1802   35.9225   44.8076 H   0  0  0  0  0  0  0  0  0  0  0  0
   60.3740   34.7760   46.2010 C   0  0  0  0  0  0  0  0  0  0  0  0
   61.0632   35.6087   46.4049 H   0  0  0  0  0  0  0  0  0  0  0  0
   60.5590   33.5430   46.8450 C   0  0  0  0  0  0  0  0  0  0  0  0
   61.7150   33.3420   47.8000 C   0  0  2  0  0  0  0  0  0  0  0  0
   62.6398   33.7333   47.3510 H   0  0  0  0  0  0  0  0  0  0  0  0
   61.8800   31.9140   48.0570 N   0  0  0  0  0  0  0  0  0  0  0  0
   61.0580   31.1190   48.6740 C   0  0  0  0  0  0  0  0  0  0  0  0
   61.1490   29.7780   48.5550 N   0  0  0  0  0  0  0  0  0  0  0  0
   60.2080   29.3130   49.4020 C   0  0  0  0  0  0  0  0  0  0  0  0
   59.9790   28.0840   49.5580 O   0  0  0  0  0  0  0  0  0  0  0  0
   59.5360   30.2850   50.0550 N   0  0  0  0  0  0  0  0  0  0  0  0
   58.3950   30.1160   50.9570 C   0  0  0  0  0  0  0  0  0  0  0  0
   57.4609   30.2682   50.3965 H   0  0  0  0  0  0  0  0  0  0  0  0
   58.4132   29.1003   51.3788 H   0  0  0  0  0  0  0  0  0  0  0  0
   58.4770   31.1380   52.0960 C   0  0  0  0  0  0  0  0  0  0  0  0
   59.5733   31.1128   52.1820 H   0  0  0  0  0  0  0  0  0  0  0  0
   57.3260   31.1160   53.0890 C   0  0  0  0  0  0  0  0  0  0  0  0
   56.5424   30.3485   53.0058 H   0  0  0  0  0  0  0  0  0  0  0  0
   57.2452   31.0796   54.1854 H   0  0  0  0  0  0  0  0  0  0  0  0
   57.4160   32.2270   52.0530 C   0  0  0  0  0  0  0  0  0  0  0  0
   56.6976   32.2626   51.2207 H   0  0  0  0  0  0  0  0  0  0  0  0
   57.4274   33.3263   52.0900 H   0  0  0  0  0  0  0  0  0  0  0  0
   60.0430   31.4380   49.5760 C   0  0  0  0  0  0  0  0  0  0  0  0
   59.5500   32.6030   49.8920 N   0  0  0  0  0  0  0  0  0  0  0  0
   60.0500   33.9040   49.5700 C   0  0  0  0  0  0  0  0  0  0  0  0
   59.2620   34.8860   49.6270 O   0  0  0  0  0  0  0  0  0  0  0  0
   61.4670   34.1080   49.1000 C   0  0  0  0  0  0  0  0  0  0  0  0
   62.1606   33.7444   49.8725 H   0  0  0  0  0  0  0  0  0  0  0  0
   61.6308   35.1804   48.9181 H   0  0  0  0  0  0  0  0  0  0  0  0
   59.6820   32.4810   46.5600 C   0  0  0  0  0  0  0  0  0  0  0  0
   59.8321   31.5076   47.0499 H   0  0  0  0  0  0  0  0  0  0  0  0
  1  2  1  0
  2  3  1  0
  3  4  1  0
  4  5  2  0
  5  6  1  0
  6  7  2  0
  6  8  2  0
  6  9  1  0
  9 10  1  0
  9 11  1  0
  9 12  1  0
  4 13  1  0
 13 14  1  0
 14 15  1  0
 15 16  2  0
 16 17  1  0
 16 18  1  0
 18 19  1  0
 18 20  2  0
 20 21  1  0
 20 22  1  0
 22 23  1  0
 23 24  1  6
 23 25  1  0
 25 26  2  0
 26 27  1  0
 27 28  1  0
 28 29  2  0
 28 30  1  0
 30 31  1  0
 31 32  1  0
 31 33  1  0
 31 34  1  0
 34 35  1  0
 34 36  1  0
 36 37  1  0
 36 38  1  0
 36 39  1  0
 39 40  1  0
 39 41  1  0
 30 42  1  0
 42 43  2  0
 43 44  1  0
 44 45  2  0
 44 46  1  0
 46 47  1  0
 46 48  1  0
 22 49  2  0
 49 50  1  0
 14  2  2  0
 49 15  1  0
 46 23  1  0
 42 26  1  0
 39 34  1  0
M  CHG  2   3  -1  27  -1
M  END
>  <UniqueID>  (88) 
80

>  <SMILES>  (88) 
CS(=O)(=O)/N=c1/[n-]cc(-c2cccc([C@H]3CC(=O)N=c4c([n-]c(=O)n4CC4CC4)=N3)c2)s1

>  <Energy>  (88) 
390.0806885466358

>  <Genealogy>  (88) 
CS(=O)(=O)N=c1[n-]cc(-c2cccc(C3CC(=O)N=c4c([n-]c(=O)n4CC4CC4)=N3)c2)s1 (protonated)
CS(=O)(=O)N=c1[n-]cc(-c2cccc([C@H]3CC(=O)N=c4c([n-]c(=O)n4CC4CC4)=N3)c2)s1 (chirality)
CS(=O)(=O)/N=c1/[n-]cc(-c2cccc([C@H]3CC(=O)N=c4c([n-]c(=O)n4CC4CC4)=N3)c2)s1 (cis-trans isomerization)
CS(=O)(=O)/N=c1/[n-]cc(-c2cccc([C@H]3CC(=O)N=c4c([n-]c(=O)n4CC4CC4)=N3)c2)s1 (3D coordinates assigned)
CS(=O)(=O)/N=c1/[n-]cc(-c2cccc([C@H]3CC(=O)N=c4c([n-]c(=O)n4CC4CC4)=N3)c2)s1 (nonaromatic ring conformer: 390.0806885466358 kcal/mol)

>  <smiles>  (88) 
CS(=O)(=O)N=c1[nH]cc(-c2cccc(C3CC(=O)N=c4c([nH]c(=O)n4CC4CC4)=N3)c2)s1

>  <score_type>  (88) 
oracle

>  <origin>  (88) 
adg

>  <m_score__min__energy>  (88) 
-10.039999999999999

>  <m_primary>  (88) 
energy

$$$$
89:0
     RDKit          3D

 48 51  0  0  0  0  0  0  0  0999 V2000
   58.4060   31.5000   45.2320 C   0  0  0  0  0  0  0  0  0  0  0  0
   58.7470   30.2240   45.8740 N   0  0  0  0  0  0  0  0  0  0  0  0
   59.9000   29.9280   46.5130 C   0  0  0  0  0  0  0  0  0  0  0  0
   61.0450   30.8750   46.7430 C   0  0  0  0  0  0  0  0  0  0  0  0
   60.5570   32.1730   47.3340 C   0  0  0  0  0  0  0  0  0  0  0  0
   60.7730   33.3910   46.6660 C   0  0  0  0  0  0  0  0  0  0  0  0
   60.3170   34.5900   47.2210 C   0  0  0  0  0  0  0  0  0  0  0  0
   59.6480   34.5850   48.4480 C   0  0  0  0  0  0  0  0  0  0  0  0
   59.4390   33.3800   49.1250 C   0  0  0  0  0  0  0  0  0  0  0  0
   59.8930   32.1790   48.5730 C   0  0  0  0  0  0  0  0  0  0  0  0
   59.9010   28.6810   47.0100 N   0  0  0  0  0  0  0  0  0  0  0  0
   58.7060   28.1500   46.6690 C   0  0  0  0  0  0  0  0  0  0  0  0
   58.3910   26.8380   47.0420 C   0  0  0  0  0  0  0  0  0  0  0  0
   59.2920   26.2500   47.7060 O   0  0  0  0  0  0  0  0  0  0  0  0
   57.2310   26.1490   46.7460 N   0  0  0  0  0  0  0  0  0  0  0  0
   57.1670   24.7250   47.1940 C   0  0  0  0  0  0  0  0  0  0  0  0
   58.1500   23.8400   46.4090 C   0  0  0  0  0  0  0  0  0  0  0  0
   57.5190   23.2640   45.1690 C   0  0  0  0  0  0  0  0  0  0  0  0
   57.4990   21.8730   44.9660 C   0  0  0  0  0  0  0  0  0  0  0  0
   56.9610   21.3410   43.7900 C   0  0  0  0  0  0  0  0  0  0  0  0
   56.4470   22.1920   42.8070 C   0  0  0  0  0  0  0  0  0  0  0  0
   56.4690   23.5760   42.9990 C   0  0  0  0  0  0  0  0  0  0  0  0
   57.0040   24.1130   44.1740 C   0  0  0  0  0  0  0  0  0  0  0  0
   56.1280   26.6030   46.0480 C   0  0  0  0  0  0  0  0  0  0  0  0
   55.1600   25.8160   45.8550 O   0  0  0  0  0  0  0  0  0  0  0  0
   55.9640   27.8460   45.5380 N   0  0  0  0  0  0  0  0  0  0  0  0
   56.6930   28.9740   45.4650 C   0  0  0  0  0  0  0  0  0  0  0  0
   56.1540   29.9580   44.8940 O   0  0  0  0  0  0  0  0  0  0  0  0
   57.9830   29.0990   45.9720 C   0  0  0  0  0  0  0  0  0  0  0  0
   58.2038   32.2566   46.0044 H   0  0  0  0  0  0  0  0  0  0  0  0
   59.2471   31.8315   44.6053 H   0  0  0  0  0  0  0  0  0  0  0  0
   57.5117   31.3677   44.6053 H   0  0  0  0  0  0  0  0  0  0  0  0
   61.7629   30.4111   47.4354 H   0  0  0  0  0  0  0  0  0  0  0  0
   61.5262   31.0869   45.7768 H   0  0  0  0  0  0  0  0  0  0  0  0
   61.3032   33.4004   45.7023 H   0  0  0  0  0  0  0  0  0  0  0  0
   60.4850   35.5392   46.6911 H   0  0  0  0  0  0  0  0  0  0  0  0
   59.2859   35.5292   48.8810 H   0  0  0  0  0  0  0  0  0  0  0  0
   58.9167   33.3770   50.0931 H   0  0  0  0  0  0  0  0  0  0  0  0
   59.7299   31.2335   49.1109 H   0  0  0  0  0  0  0  0  0  0  0  0
   57.4183   24.6757   48.2638 H   0  0  0  0  0  0  0  0  0  0  0  0
   56.1481   24.3525   47.0123 H   0  0  0  0  0  0  0  0  0  0  0  0
   59.0195   24.4470   46.1166 H   0  0  0  0  0  0  0  0  0  0  0  0
   58.4503   23.0046   47.0585 H   0  0  0  0  0  0  0  0  0  0  0  0
   57.9079   21.2009   45.7348 H   0  0  0  0  0  0  0  0  0  0  0  0
   56.9422   20.2517   43.6382 H   0  0  0  0  0  0  0  0  0  0  0  0
   56.0251   21.7719   41.8820 H   0  0  0  0  0  0  0  0  0  0  0  0
   56.0647   24.2442   42.2244 H   0  0  0  0  0  0  0  0  0  0  0  0
   57.0219   25.2031   44.3202 H   0  0  0  0  0  0  0  0  0  0  0  0
  1  2  1  0
  2  3  1  0
  3  4  1  0
  4  5  1  0
  5  6  2  0
  6  7  1  0
  7  8  2  0
  8  9  1  0
  9 10  2  0
  3 11  2  0
 11 12  1  0
 12 13  1  0
 13 14  2  0
 13 15  1  0
 15 16  1  0
 16 17  1  0
 17 18  1  0
 18 19  2  0
 19 20  1  0
 20 21  2  0
 21 22  1  0
 22 23  2  0
 15 24  1  0
 24 25  2  0
 24 26  1  0
 26 27  1  0
 27 28  2  0
 27 29  1  0
 29  2  1  0
 10  5  1  0
 29 12  2  0
 23 18  1  0
  1 30  1  0
  1 31  1  0
  1 32  1  0
  4 33  1  0
  4 34  1  0
  6 35  1  0
  7 36  1  0
  8 37  1  0
  9 38  1  0
 10 39  1  0
 16 40  1  0
 16 41  1  0
 17 42  1  0
 17 43  1  0
 19 44  1  0
 20 45  1  0
 21 46  1  0
 22 47  1  0
 23 48  1  0
M  CHG  1  26  -1
M  END
>  <UniqueID>  (89) 
81

>  <SMILES>  (89) 
Cn1c(Cc2ccccc2)nc2c(=O)n(CCc3ccccc3)c(=O)[n-]c(=O)c21

>  <Energy>  (89) 
112.65827956032827

>  <Genealogy>  (89) 
Cn1c(Cc2ccccc2)nc2c(=O)n(CCc3ccccc3)c(=O)[n-]c(=O)c21 (protonated)
Cn1c(Cc2ccccc2)nc2c(=O)n(CCc3ccccc3)c(=O)[n-]c(=O)c21 (3D coordinates assigned)
Cn1c(Cc2ccccc2)nc2c(=O)n(CCc3ccccc3)c(=O)[n-]c(=O)c21 (optimized conformer: 112.65827956032827 kcal/mol)

>  <smiles>  (89) 
Cn1c(Cc2ccccc2)nc2c(=O)n(CCc3ccccc3)c(=O)[nH]c(=O)c21

>  <score_type>  (89) 
oracle

>  <origin>  (89) 
adg

>  <m_score__min__energy>  (89) 
-10.25

>  <m_primary>  (89) 
energy

$$$$
90:0
     RDKit          3D

 21 22  0  0  0  0  0  0  0  0999 V2000
   55.1340   29.2080   44.9470 O   0  0  0  0  0  0  0  0  0  0  0  0
   56.2820   29.8990   44.6060 C   0  0  0  0  0  0  0  0  0  0  0  0
   57.1980   29.6300   43.6040 C   0  0  0  0  0  0  0  0  0  0  0  0
   58.1620   30.5950   43.6590 N   0  0  0  0  0  0  0  0  0  0  0  0
   57.8390   31.4330   44.6740 C   0  0  0  0  0  0  0  0  0  0  0  0
   58.5850   32.6280   45.1170 C   0  0  0  0  0  0  0  0  0  0  0  0
   58.4210   33.7930   44.5070 C   0  0  0  0  0  0  0  0  0  0  0  0
   59.1470   35.0280   44.9110 C   0  0  0  0  0  0  0  0  0  0  0  0
   59.5020   34.9330   46.2840 N   0  0  0  0  0  0  0  0  0  0  0  0
   59.6770   33.8280   46.9060 C   0  0  0  0  0  0  0  0  0  0  0  0
   59.5290   32.4930   46.2660 C   0  0  0  0  0  0  0  0  0  0  0  0
   56.6930   31.0020   45.2450 N   0  0  0  0  0  0  0  0  0  0  0  0
   55.1660   28.1890   44.8940 H   0  0  0  0  0  0  0  0  0  0  0  0
   57.1568   28.7916   42.8931 H   0  0  0  0  0  0  0  0  0  0  0  0
   58.9960   30.6690   43.0300 H   0  0  0  0  0  0  0  0  0  0  0  0
   57.7166   33.8499   43.6641 H   0  0  0  0  0  0  0  0  0  0  0  0
   60.0569   35.1358   44.3023 H   0  0  0  0  0  0  0  0  0  0  0  0
   58.5005   35.9044   44.7561 H   0  0  0  0  0  0  0  0  0  0  0  0
   59.9514   33.8675   47.9705 H   0  0  0  0  0  0  0  0  0  0  0  0
   60.5072   32.1427   45.9049 H   0  0  0  0  0  0  0  0  0  0  0  0
   59.1408   31.7643   46.9929 H   0  0  0  0  0  0  0  0  0  0  0  0
  1  2  1  0
  2  3  2  0
  3  4  1  0
  4  5  1  0
  5  6  1  0
  6  7  2  0
  7  8  1  0
  8  9  1  0
  9 10  2  0
 10 11  1  0
  5 12  2  0
 12  2  1  0
 11  6  1  0
  1 13  1  0
  3 14  1  0
  4 15  1  0
  7 16  1  0
  8 17  1  0
  8 18  1  0
 10 19  1  0
 11 20  1  0
 11 21  1  0
M  END
>  <smiles>  (90) 
Oc1c[nH]c(C2=CCN=CC2)n1

>  <score_type>  (90) 
oracle

>  <origin>  (90) 
adg

>  <m_score__min__energy>  (90) 
-6.8399999999999999

>  <m_primary>  (90) 
energy

$$$$
91:0
     RDKit          3D

 39 41  0  0  0  0  0  0  0  0999 V2000
   58.3200   32.2220   49.3400 O   0  0  0  0  0  0  0  0  0  0  0  0
   59.0860   32.0390   48.3580 C   0  0  0  0  0  0  0  0  0  0  0  0
   60.4590   31.6980   48.6110 N   0  0  0  0  0  0  0  0  0  0  0  0
   61.5000   32.4630   48.4360 C   0  0  0  0  0  0  0  0  0  0  0  0
   61.8960   33.4400   49.3740 C   0  0  0  0  0  0  0  0  0  0  0  0
   63.0340   34.2110   49.1250 C   0  0  0  0  0  0  0  0  0  0  0  0
   63.7540   34.0210   47.9890 N   0  0  0  0  0  0  0  0  0  0  0  0
   63.4010   33.0830   47.0720 C   0  0  0  0  0  0  0  0  0  0  0  0
   62.2750   32.2850   47.2820 C   0  0  0  0  0  0  0  0  0  0  0  0
   58.5410   32.0990   46.9790 C   0  0  0  0  0  0  0  0  0  0  0  0
   58.4320   33.3340   46.3160 C   0  0  0  0  0  0  0  0  0  0  0  0
   57.9140   33.3970   45.0190 C   0  0  0  0  0  0  0  0  0  0  0  0
   57.4940   32.2330   44.3750 C   0  0  0  0  0  0  0  0  0  0  0  0
   57.5910   30.9950   45.0220 C   0  0  0  0  0  0  0  0  0  0  0  0
   57.0740   29.5330   44.1840 S   0  0  0  0  0  0  0  0  0  0  0  0
   56.2470   29.8720   42.9760 O   0  0  0  0  0  0  0  0  0  0  0  0
   58.2980   28.7820   43.7410 O   0  0  0  0  0  0  0  0  0  0  0  0
   56.1420   28.5340   45.2540 N   0  0  0  0  0  0  0  0  0  0  0  0
   56.6550   27.3110   45.8030 C   0  0  0  0  0  0  0  0  0  0  0  0
   58.0420   27.1640   45.9630 C   0  0  0  0  0  0  0  0  0  0  0  0
   58.5710   25.9980   46.5210 C   0  0  0  0  0  0  0  0  0  0  0  0
   57.7210   24.9620   46.9140 C   0  0  0  0  0  0  0  0  0  0  0  0
   56.3410   25.0870   46.7380 C   0  0  0  0  0  0  0  0  0  0  0  0
   55.8040   26.2500   46.1750 C   0  0  0  0  0  0  0  0  0  0  0  0
   54.4320   26.3290   45.9670 O   0  0  0  0  0  0  0  0  0  0  0  0
   58.1080   30.9320   46.3240 C   0  0  0  0  0  0  0  0  0  0  0  0
   61.3131   33.5933   50.2942 H   0  0  0  0  0  0  0  0  0  0  0  0
   63.3482   34.9748   49.8516 H   0  0  0  0  0  0  0  0  0  0  0  0
   64.0041   32.9519   46.1615 H   0  0  0  0  0  0  0  0  0  0  0  0
   61.9968   31.5185   46.5437 H   0  0  0  0  0  0  0  0  0  0  0  0
   58.7562   34.2560   46.8207 H   0  0  0  0  0  0  0  0  0  0  0  0
   57.8374   34.3666   44.5052 H   0  0  0  0  0  0  0  0  0  0  0  0
   57.0852   32.2879   43.3553 H   0  0  0  0  0  0  0  0  0  0  0  0
   55.1080   28.6810   45.2470 H   0  0  0  0  0  0  0  0  0  0  0  0
   58.7170   27.9729   45.6466 H   0  0  0  0  0  0  0  0  0  0  0  0
   59.6585   25.8956   46.6511 H   0  0  0  0  0  0  0  0  0  0  0  0
   58.1380   24.0480   47.3619 H   0  0  0  0  0  0  0  0  0  0  0  0
   55.6735   24.2677   47.0433 H   0  0  0  0  0  0  0  0  0  0  0  0
   58.1755   29.9616   46.8375 H   0  0  0  0  0  0  0  0  0  0  0  0
  1  2  2  0
  2  3  1  0
  3  4  2  3
  4  5  1  0
  5  6  2  0
  6  7  1  0
  7  8  1  0
  8  9  2  0
  2 10  1  0
 10 11  2  0
 11 12  1  0
 12 13  2  0
 13 14  1  0
 14 15  1  0
 15 16  2  0
 15 17  2  0
 15 18  1  0
 18 19  1  0
 19 20  2  0
 20 21  1  0
 21 22  2  0
 22 23  1  0
 23 24  2  0
 24 25  1  0
 14 26  2  0
  9  4  1  0
 26 10  1  0
 24 19  1  0
  5 27  1  0
  6 28  1  0
  8 29  1  0
  9 30  1  0
 11 31  1  0
 12 32  1  0
 13 33  1  0
 18 34  1  0
 20 35  1  0
 21 36  1  0
 22 37  1  0
 23 38  1  0
 26 39  1  0
M  CHG  2   7  -1  25  -1
M  END
>  <UniqueID>  (91) 
82

>  <SMILES>  (91) 
O=C(N=c1cc[n-]cc1)c1cccc(S(=O)(=O)Nc2ccccc2[O-])c1

>  <Energy>  (91) 
57.1427049887368

>  <Genealogy>  (91) 
O=C(N=c1cc[n-]cc1)c1cccc(S(=O)(=O)Nc2ccccc2[O-])c1 (protonated)
O=C(N=c1cc[n-]cc1)c1cccc(S(=O)(=O)Nc2ccccc2[O-])c1 (3D coordinates assigned)
O=C(N=c1cc[n-]cc1)c1cccc(S(=O)(=O)Nc2ccccc2[O-])c1 (optimized conformer: 57.1427049887368 kcal/mol)

>  <smiles>  (91) 
O=C(N=c1cc[nH]cc1)c1cccc(S(=O)(=O)Nc2ccccc2O)c1

>  <score_type>  (91) 
oracle

>  <origin>  (91) 
adg

>  <m_score__min__energy>  (91) 
-13.33

>  <m_primary>  (91) 
energy

$$$$
92:0
     RDKit          3D

 34 36  0  0  0  0  0  0  0  0999 V2000
   58.1420   26.8020   42.4710 C   0  0  0  0  0  0  0  0  0  0  0  0
   58.2980   27.2490   43.7200 C   0  0  0  0  0  0  0  0  0  0  0  0
   58.1400   26.3470   44.9100 C   0  0  0  0  0  0  0  0  0  0  0  0
   56.8300   26.9790   46.0140 S   0  0  0  0  0  0  0  0  0  0  0  0
   57.3940   28.6760   45.9490 C   0  0  0  0  0  0  0  0  0  0  0  0
   56.7180   29.5930   45.2080 N   0  0  0  0  0  0  0  0  0  0  0  0
   57.1330   30.8590   45.1430 N   0  0  0  0  0  0  0  0  0  0  0  0
   58.2420   31.2680   45.8140 C   0  0  0  0  0  0  0  0  0  0  0  0
   58.9410   30.3350   46.5800 C   0  0  0  0  0  0  0  0  0  0  0  0
   58.5020   29.0530   46.6360 N   0  0  0  0  0  0  0  0  0  0  0  0
   60.0830   30.7170   47.2840 O   0  0  0  0  0  0  0  0  0  0  0  0
   60.5660   32.0150   47.2500 N   0  0  0  0  0  0  0  0  0  0  0  0
   61.9870   32.3420   48.1960 S   0  0  0  0  0  0  0  0  0  0  0  0
   63.3500   32.7660   47.1320 C   0  0  0  0  0  0  0  0  0  0  0  0
   62.3290   31.1510   49.0470 O   0  0  0  0  0  0  0  0  0  0  0  0
   61.7130   33.5100   49.1020 O   0  0  0  0  0  0  0  0  0  0  0  0
   59.8810   33.0270   46.4700 C   0  0  0  0  0  0  0  0  0  0  0  0
   60.3340   34.3600   46.4020 C   0  0  0  0  0  0  0  0  0  0  0  0
   59.6460   35.3060   45.6400 C   0  0  0  0  0  0  0  0  0  0  0  0
   58.5000   34.9410   44.9340 C   0  0  0  0  0  0  0  0  0  0  0  0
   58.0370   33.6270   44.9870 C   0  0  0  0  0  0  0  0  0  0  0  0
   58.7200   32.6640   45.7510 C   0  0  0  0  0  0  0  0  0  0  0  0
   58.2649   27.4897   41.6213 H   0  0  0  0  0  0  0  0  0  0  0  0
   57.8906   25.7462   42.2921 H   0  0  0  0  0  0  0  0  0  0  0  0
   58.5493   28.3077   43.8814 H   0  0  0  0  0  0  0  0  0  0  0  0
   57.8697   25.3374   44.5669 H   0  0  0  0  0  0  0  0  0  0  0  0
   59.0900   26.3148   45.4635 H   0  0  0  0  0  0  0  0  0  0  0  0
   64.2225   33.0374   47.7444 H   0  0  0  0  0  0  0  0  0  0  0  0
   63.6016   31.9037   46.4971 H   0  0  0  0  0  0  0  0  0  0  0  0
   63.0680   33.6189   46.4971 H   0  0  0  0  0  0  0  0  0  0  0  0
   61.2376   34.6575   46.9542 H   0  0  0  0  0  0  0  0  0  0  0  0
   60.0092   36.3434   45.5963 H   0  0  0  0  0  0  0  0  0  0  0  0
   57.9612   35.6901   44.3351 H   0  0  0  0  0  0  0  0  0  0  0  0
   57.1331   33.3422   44.4285 H   0  0  0  0  0  0  0  0  0  0  0  0
  1  2  2  0
  2  3  1  0
  3  4  1  0
  4  5  1  0
  5  6  2  0
  6  7  1  0
  7  8  2  0
  8  9  1  0
  9 10  2  0
  9 11  1  0
 11 12  1  0
 12 13  1  0
 13 14  1  0
 13 15  2  0
 13 16  2  0
 12 17  1  0
 17 18  2  0
 18 19  1  0
 19 20  2  0
 20 21  1  0
 21 22  2  0
 10  5  1  0
 22 17  1  0
 22  8  1  0
  1 23  1  0
  1 24  1  0
  2 25  1  0
  3 26  1  0
  3 27  1  0
 14 28  1  0
 14 29  1  0
 14 30  1  0
 18 31  1  0
 19 32  1  0
 20 33  1  0
 21 34  1  0
M  END
>  <UniqueID>  (92) 
83

>  <SMILES>  (92) 
C=CCSc1nnc2c(n1)ON(S(C)(=O)=O)c1ccccc1-2

>  <Energy>  (92) 
33.66295308193016

>  <Genealogy>  (92) 
C=CCSc1nnc2c(n1)ON(S(C)(=O)=O)c1ccccc1-2 (3D coordinates assigned)
C=CCSc1nnc2c(n1)ON(S(C)(=O)=O)c1ccccc1-2 (nonaromatic ring conformer: 33.66295308193016 kcal/mol)

>  <smiles>  (92) 
C=CCSc1nnc2c(n1)ON(S(C)(=O)=O)c1ccccc1-2

>  <score_type>  (92) 
oracle

>  <origin>  (92) 
adg

>  <m_score__min__energy>  (92) 
-7.7000000000000002

>  <m_primary>  (92) 
energy

$$$$
93:0
     RDKit          3D

 34 36  0  0  0  0  0  0  0  0999 V2000
   57.7970   27.3440   43.8480 O   0  0  0  0  0  0  0  0  0  0  0  0
   57.7900   27.8510   45.0030 C   0  0  0  0  0  0  0  0  0  0  0  0
   58.4950   27.1610   46.1220 C   0  0  0  0  0  0  0  0  0  0  0  0
   57.6200   26.0640   46.6490 C   0  0  0  0  0  0  0  0  0  0  0  0
   58.0860   25.0090   47.3410 N   0  0  0  0  0  0  0  0  0  0  0  0
   56.9920   24.2320   47.5020 C   0  0  0  0  0  0  0  0  0  0  0  0
   57.0240   23.1360   48.1180 O   0  0  0  0  0  0  0  0  0  0  0  0
   55.8640   24.7200   46.9440 N   0  0  0  0  0  0  0  0  0  0  0  0
   56.2770   25.8750   46.3970 C   0  0  0  0  0  0  0  0  0  0  0  0
   55.4400   26.7180   45.6720 O   0  0  0  0  0  0  0  0  0  0  0  0
   57.0440   29.0040   45.2730 O   0  0  0  0  0  0  0  0  0  0  0  0
   56.7240   29.9660   44.2720 C   0  0  0  0  0  0  0  0  0  0  0  0
   57.4600   31.2480   44.5530 C   0  0  0  0  0  0  0  0  0  0  0  0
   57.7610   32.1440   43.5150 C   0  0  0  0  0  0  0  0  0  0  0  0
   58.3700   33.3710   43.7930 C   0  0  0  0  0  0  0  0  0  0  0  0
   58.6760   33.7230   45.1150 C   0  0  0  0  0  0  0  0  0  0  0  0
   59.2670   34.9620   45.4080 C   0  0  0  0  0  0  0  0  0  0  0  0
   59.5550   35.3060   46.7320 C   0  0  0  0  0  0  0  0  0  0  0  0
   59.2570   34.4200   47.7710 C   0  0  0  0  0  0  0  0  0  0  0  0
   58.6710   33.1820   47.4920 C   0  0  0  0  0  0  0  0  0  0  0  0
   58.3780   32.8230   46.1670 C   0  0  0  0  0  0  0  0  0  0  0  0
   57.7800   31.5890   45.8760 C   0  0  0  0  0  0  0  0  0  0  0  0
   59.4401   26.7344   45.7549 H   0  0  0  0  0  0  0  0  0  0  0  0
   58.7111   27.8813   46.9247 H   0  0  0  0  0  0  0  0  0  0  0  0
   55.7780   27.2510   44.8800 H   0  0  0  0  0  0  0  0  0  0  0  0
   57.0218   29.5812   43.2855 H   0  0  0  0  0  0  0  0  0  0  0  0
   55.6406   30.1564   44.2803 H   0  0  0  0  0  0  0  0  0  0  0  0
   57.5159   31.8787   42.4760 H   0  0  0  0  0  0  0  0  0  0  0  0
   58.6099   34.0626   42.9719 H   0  0  0  0  0  0  0  0  0  0  0  0
   59.5039   35.6634   44.5945 H   0  0  0  0  0  0  0  0  0  0  0  0
   60.0181   36.2781   46.9570 H   0  0  0  0  0  0  0  0  0  0  0  0
   59.4842   34.6976   48.8109 H   0  0  0  0  0  0  0  0  0  0  0  0
   58.4389   32.4874   48.3128 H   0  0  0  0  0  0  0  0  0  0  0  0
   57.5601   30.8831   46.6904 H   0  0  0  0  0  0  0  0  0  0  0  0
  1  2  2  0
  2  3  1  0
  3  4  1  0
  4  5  1  0
  5  6  1  0
  6  7  2  0
  6  8  1  0
  8  9  1  0
  9 10  1  0
  2 11  1  0
 11 12  1  0
 12 13  1  0
 13 14  2  0
 14 15  1  0
 15 16  2  0
 16 17  1  0
 17 18  2  0
 18 19  1  0
 19 20  2  0
 20 21  1  0
 21 22  2  0
  9  4  2  0
 22 13  1  0
 21 16  1  0
  3 23  1  0
  3 24  1  0
 10 25  1  0
 12 26  1  0
 12 27  1  0
 14 28  1  0
 15 29  1  0
 17 30  1  0
 18 31  1  0
 19 32  1  0
 20 33  1  0
 22 34  1  0
M  CHG  2   5  -1   8  -1
M  END
>  <UniqueID>  (93) 
84

>  <SMILES>  (93) 
O=C(Cc1[n-]c(=O)[n-]c1O)OCc1ccc2ccccc2c1

>  <Energy>  (93) 
62.17428393503103

>  <Genealogy>  (93) 
O=C(Cc1[n-]c(=O)[n-]c1O)OCc1ccc2ccccc2c1 (protonated)
O=C(Cc1[n-]c(=O)[n-]c1O)OCc1ccc2ccccc2c1 (3D coordinates assigned)
O=C(Cc1[n-]c(=O)[n-]c1O)OCc1ccc2ccccc2c1 (optimized conformer: 62.17428393503103 kcal/mol)

>  <smiles>  (93) 
O=C(Cc1[nH]c(=O)[nH]c1O)OCc1ccc2ccccc2c1

>  <score_type>  (93) 
oracle

>  <origin>  (93) 
adg

>  <m_score__min__energy>  (93) 
-12.630000000000001

>  <m_primary>  (93) 
energy

$$$$
94:0
     RDKit          3D

 37 39  0  0  0  0  0  0  0  0999 V2000
   59.5830   21.9950   44.6660 C   0  0  0  0  0  0  0  0  0  0  0  0
   59.9390   22.9910   45.6190 O   0  0  0  0  0  0  0  0  0  0  0  0
   59.2480   24.2000   45.8010 C   0  0  0  0  0  0  0  0  0  0  0  0
   57.8310   24.2600   45.8140 C   0  0  0  0  0  0  0  0  0  0  0  0
   57.1930   25.5020   46.0010 C   0  0  0  0  0  0  0  0  0  0  0  0
   55.7140   25.5960   46.0220 C   0  0  0  0  0  0  0  0  0  0  0  0
   55.1400   26.7170   46.0070 O   0  0  0  0  0  0  0  0  0  0  0  0
   54.9390   24.4430   46.0570 O   0  0  0  0  0  0  0  0  0  0  0  0
   57.9900   26.5950   46.1600 N   0  0  0  0  0  0  0  0  0  0  0  0
   57.6140   27.8480   46.3600 N   0  0  0  0  0  0  0  0  0  0  0  0
   58.7480   28.5800   46.4600 C   0  0  0  0  0  0  0  0  0  0  0  0
   58.7650   30.0470   46.7560 C   0  0  0  0  0  0  0  0  0  0  0  0
   58.0230   30.8220   45.6640 C   0  0  0  0  0  0  0  0  0  0  0  0
   58.4690   32.2590   45.6410 C   0  0  0  0  0  0  0  0  0  0  0  0
   57.8050   33.1940   44.8290 C   0  0  0  0  0  0  0  0  0  0  0  0
   58.1990   34.5360   44.8330 C   0  0  0  0  0  0  0  0  0  0  0  0
   59.2520   34.9540   45.6520 C   0  0  0  0  0  0  0  0  0  0  0  0
   59.9090   34.0320   46.4720 C   0  0  0  0  0  0  0  0  0  0  0  0
   59.5170   32.6900   46.4710 C   0  0  0  0  0  0  0  0  0  0  0  0
   59.8720   27.7670   46.3390 C   0  0  0  0  0  0  0  0  0  0  0  0
   59.3250   26.5200   46.1440 C   0  0  0  0  0  0  0  0  0  0  0  0
   59.9730   25.3440   45.9690 N   0  0  0  0  0  0  0  0  0  0  0  0
   59.2577   21.0848   45.1910 H   0  0  0  0  0  0  0  0  0  0  0  0
   58.7624   22.3676   44.0353 H   0  0  0  0  0  0  0  0  0  0  0  0
   60.4539   21.7630   44.0353 H   0  0  0  0  0  0  0  0  0  0  0  0
   57.2356   23.3450   45.6793 H   0  0  0  0  0  0  0  0  0  0  0  0
   58.2750   30.2268   47.7243 H   0  0  0  0  0  0  0  0  0  0  0  0
   59.8092   30.3914   46.7902 H   0  0  0  0  0  0  0  0  0  0  0  0
   58.2336   30.3621   44.6872 H   0  0  0  0  0  0  0  0  0  0  0  0
   56.9439   30.7881   45.8748 H   0  0  0  0  0  0  0  0  0  0  0  0
   56.9723   32.8693   44.1878 H   0  0  0  0  0  0  0  0  0  0  0  0
   57.6799   35.2631   44.1912 H   0  0  0  0  0  0  0  0  0  0  0  0
   59.5637   36.0089   45.6512 H   0  0  0  0  0  0  0  0  0  0  0  0
   60.7352   34.3627   47.1186 H   0  0  0  0  0  0  0  0  0  0  0  0
   60.0314   31.9686   47.1229 H   0  0  0  0  0  0  0  0  0  0  0  0
   60.9335   28.0513   46.3873 H   0  0  0  0  0  0  0  0  0  0  0  0
   61.0180   25.3120   45.9650 H   0  0  0  0  0  0  0  0  0  0  0  0
  1  2  1  0
  2  3  1  0
  3  4  1  0
  4  5  2  0
  5  6  1  0
  6  7  2  0
  6  8  1  0
  5  9  1  0
  9 10  1  0
 10 11  2  0
 11 12  1  0
 12 13  1  0
 13 14  1  0
 14 15  2  0
 15 16  1  0
 16 17  2  0
 17 18  1  0
 18 19  2  0
 11 20  1  0
 20 21  2  0
 21 22  1  0
 22  3  2  0
 21  9  1  0
 19 14  1  0
  1 23  1  0
  1 24  1  0
  1 25  1  0
  4 26  1  0
 12 27  1  0
 12 28  1  0
 13 29  1  0
 13 30  1  0
 15 31  1  0
 16 32  1  0
 17 33  1  0
 18 34  1  0
 19 35  1  0
 20 36  1  0
 22 37  1  0
M  CHG  2   8  -1  22   1
M  END
>  <UniqueID>  (94) 
85

>  <SMILES>  (94) 
COc1cc(C(=O)[O-])n2nc(CCc3ccccc3)cc2[nH+]1

>  <Energy>  (94) 
71.89084577441236

>  <Genealogy>  (94) 
COc1cc(C(=O)[O-])n2nc(CCc3ccccc3)cc2[nH+]1 (protonated)
COc1cc(C(=O)[O-])n2nc(CCc3ccccc3)cc2[nH+]1 (3D coordinates assigned)
COc1cc(C(=O)[O-])n2nc(CCc3ccccc3)cc2[nH+]1 (optimized conformer: 71.89084577441236 kcal/mol)

>  <smiles>  (94) 
COc1cc(C(=O)O)n2nc(CCc3ccccc3)cc2n1

>  <score_type>  (94) 
oracle

>  <origin>  (94) 
adg

>  <m_score__min__energy>  (94) 
-8.8399999999999999

>  <m_primary>  (94) 
energy

$$$$
95:0
     RDKit          3D

 48 50  0  0  0  0  0  0  0  0999 V2000
   60.5970   26.4220   46.3500 C   0  0  0  0  0  0  0  0  0  0  0  0
   60.2770   27.6370   47.1740 C   0  0  0  0  0  0  0  0  0  0  0  0
   60.3610   28.9150   46.5930 C   0  0  0  0  0  0  0  0  0  0  0  0
   60.0710   30.0560   47.3550 C   0  0  0  0  0  0  0  0  0  0  0  0
   59.6990   29.9330   48.7060 C   0  0  0  0  0  0  0  0  0  0  0  0
   59.3960   31.3650   49.6870 S   0  0  0  0  0  0  0  0  0  0  0  0
   58.9330   30.9870   51.0690 O   0  0  0  0  0  0  0  0  0  0  0  0
   60.6680   32.1570   49.8050 O   0  0  0  0  0  0  0  0  0  0  0  0
   58.1870   32.3350   48.9110 N   0  0  0  0  0  0  0  0  0  0  0  0
   58.4220   32.9110   47.6170 C   0  0  0  0  0  0  0  0  0  0  0  0
   58.8920   34.2290   47.4840 C   0  0  0  0  0  0  0  0  0  0  0  0
   59.0350   34.8020   46.2190 C   0  0  0  0  0  0  0  0  0  0  0  0
   58.7030   34.0680   45.0790 C   0  0  0  0  0  0  0  0  0  0  0  0
   58.2500   32.7480   45.1980 C   0  0  0  0  0  0  0  0  0  0  0  0
   57.7720   31.8530   43.7590 S   0  0  0  0  0  0  0  0  0  0  0  0
   57.5660   32.8180   42.6230 O   0  0  0  0  0  0  0  0  0  0  0  0
   58.8430   30.8730   43.3630 O   0  0  0  0  0  0  0  0  0  0  0  0
   56.2970   30.9880   44.0420 N   0  0  0  0  0  0  0  0  0  0  0  0
   56.2300   29.6890   44.6430 C   0  0  0  0  0  0  0  0  0  0  0  0
   55.1480   29.3400   45.1910 O   0  0  0  0  0  0  0  0  0  0  0  0
   57.3650   28.7960   44.6010 N   0  0  0  0  0  0  0  0  0  0  0  0
   57.3610   27.4210   45.0400 C   0  0  0  0  0  0  0  0  0  0  0  0
   57.7550   26.4230   44.1310 C   0  0  0  0  0  0  0  0  0  0  0  0
   57.7630   25.0770   44.5140 C   0  0  0  0  0  0  0  0  0  0  0  0
   57.3800   24.7120   45.8130 C   0  0  0  0  0  0  0  0  0  0  0  0
   57.3680   23.0220   46.2840 Cl  0  0  0  0  0  0  0  0  0  0  0  0
   57.0170   25.6990   46.7360 C   0  0  0  0  0  0  0  0  0  0  0  0
   57.0240   27.0470   46.3610 C   0  0  0  0  0  0  0  0  0  0  0  0
   58.1360   32.1650   46.4680 C   0  0  0  0  0  0  0  0  0  0  0  0
   59.6270   28.6600   49.2910 C   0  0  0  0  0  0  0  0  0  0  0  0
   59.9120   27.5170   48.5310 C   0  0  0  0  0  0  0  0  0  0  0  0
   60.8199   25.5755   47.0161 H   0  0  0  0  0  0  0  0  0  0  0  0
   59.7341   26.1717   45.7153 H   0  0  0  0  0  0  0  0  0  0  0  0
   61.4712   26.6292   45.7153 H   0  0  0  0  0  0  0  0  0  0  0  0
   60.6549   29.0199   45.5382 H   0  0  0  0  0  0  0  0  0  0  0  0
   60.1348   31.0526   46.8937 H   0  0  0  0  0  0  0  0  0  0  0  0
   57.4610   32.7660   49.5280 H   0  0  0  0  0  0  0  0  0  0  0  0
   59.1484   34.8118   48.3810 H   0  0  0  0  0  0  0  0  0  0  0  0
   59.4092   35.8317   46.1206 H   0  0  0  0  0  0  0  0  0  0  0  0
   58.7974   34.5277   44.0841 H   0  0  0  0  0  0  0  0  0  0  0  0
   58.2300   29.1250   44.1050 H   0  0  0  0  0  0  0  0  0  0  0  0
   58.0591   26.7024   43.1115 H   0  0  0  0  0  0  0  0  0  0  0  0
   58.0703   24.3036   43.7947 H   0  0  0  0  0  0  0  0  0  0  0  0
   56.7257   25.4148   47.7579 H   0  0  0  0  0  0  0  0  0  0  0  0
   56.7656   27.8208   47.0989 H   0  0  0  0  0  0  0  0  0  0  0  0
   57.8200   31.1155   46.5618 H   0  0  0  0  0  0  0  0  0  0  0  0
   59.3460   28.5583   50.3496 H   0  0  0  0  0  0  0  0  0  0  0  0
   59.8506   26.5217   48.9953 H   0  0  0  0  0  0  0  0  0  0  0  0
  1  2  1  0
  2  3  2  0
  3  4  1  0
  4  5  2  0
  5  6  1  0
  6  7  2  0
  6  8  2  0
  6  9  1  0
  9 10  1  0
 10 11  2  0
 11 12  1  0
 12 13  2  0
 13 14  1  0
 14 15  1  0
 15 16  2  0
 15 17  2  0
 15 18  1  0
 18 19  1  0
 19 20  2  0
 19 21  1  0
 21 22  1  0
 22 23  2  0
 23 24  1  0
 24 25  2  0
 25 26  1  0
 25 27  1  0
 27 28  2  0
 14 29  2  0
  5 30  1  0
 30 31  2  0
 31  2  1  0
 29 10  1  0
 28 22  1  0
  1 32  1  0
  1 33  1  0
  1 34  1  0
  3 35  1  0
  4 36  1  0
  9 37  1  0
 11 38  1  0
 12 39  1  0
 13 40  1  0
 21 41  1  0
 23 42  1  0
 24 43  1  0
 27 44  1  0
 28 45  1  0
 29 46  1  0
 30 47  1  0
 31 48  1  0
M  CHG  1  18  -1
M  END
>  <UniqueID>  (95) 
86

>  <SMILES>  (95) 
Cc1ccc(S(=O)(=O)Nc2cccc(S(=O)(=O)[N-]C(=O)Nc3ccc(Cl)cc3)c2)cc1

>  <Energy>  (95) 
58.500265702827264

>  <Genealogy>  (95) 
Cc1ccc(S(=O)(=O)Nc2cccc(S(=O)(=O)[N-]C(=O)Nc3ccc(Cl)cc3)c2)cc1 (protonated)
Cc1ccc(S(=O)(=O)Nc2cccc(S(=O)(=O)[N-]C(=O)Nc3ccc(Cl)cc3)c2)cc1 (3D coordinates assigned)
Cc1ccc(S(=O)(=O)Nc2cccc(S(=O)(=O)[N-]C(=O)Nc3ccc(Cl)cc3)c2)cc1 (optimized conformer: 58.500265702827264 kcal/mol)

>  <smiles>  (95) 
Cc1ccc(S(=O)(=O)Nc2cccc(S(=O)(=O)NC(=O)Nc3ccc(Cl)cc3)c2)cc1

>  <score_type>  (95) 
oracle

>  <origin>  (95) 
adg

>  <m_score__min__energy>  (95) 
-10.68

>  <m_primary>  (95) 
energy

$$$$
