0:0
     RDKit          3D

 30 31  0  0  0  0  0  0  0  0999 V2000
   59.6400   35.3310   45.9790 C   0  0  0  0  0  0  0  0  0  0  0  0
   59.0390   34.8470   44.7820 O   0  0  0  0  0  0  0  0  0  0  0  0
   58.6640   33.5130   44.5680 C   0  0  0  0  0  0  0  0  0  0  0  0
   58.1630   33.0580   43.3320 C   0  0  0  0  0  0  0  0  0  0  0  0
   57.8030   31.7180   43.1680 C   0  0  0  0  0  0  0  0  0  0  0  0
   57.9260   30.8140   44.2340 C   0  0  0  0  0  0  0  0  0  0  0  0
   57.5730   29.3640   44.0470 C   0  0  0  0  0  0  0  0  0  0  0  0
   56.5930   28.9360   45.0930 C   0  0  0  0  0  0  0  0  0  0  0  0
   55.3570   29.0640   44.8810 O   0  0  0  0  0  0  0  0  0  0  0  0
   57.0670   28.2890   46.2790 N   0  0  0  0  0  0  0  0  0  0  0  0
   57.1340   26.8700   46.4910 C   0  0  0  0  0  0  0  0  0  0  0  0
   55.9760   26.1000   46.3370 C   0  0  0  0  0  0  0  0  0  0  0  0
   54.7690   26.7040   46.0080 O   0  0  0  0  0  0  0  0  0  0  0  0
   56.0240   24.7550   46.5190 N   0  0  0  0  0  0  0  0  0  0  0  0
   57.1880   24.1330   46.8360 C   0  0  0  0  0  0  0  0  0  0  0  0
   57.2090   22.8870   47.0070 O   0  0  0  0  0  0  0  0  0  0  0  0
   58.3320   24.8530   46.9590 N   0  0  0  0  0  0  0  0  0  0  0  0
   58.3370   26.2000   46.7830 C   0  0  0  0  0  0  0  0  0  0  0  0
   59.4270   26.8250   46.8560 O   0  0  0  0  0  0  0  0  0  0  0  0
   58.4370   31.2650   45.4610 C   0  0  0  0  0  0  0  0  0  0  0  0
   58.7970   32.6050   45.6250 C   0  0  0  0  0  0  0  0  0  0  0  0
   59.1158   34.9089   46.8491 H   0  0  0  0  0  0  0  0  0  0  0  0
   60.6975   35.0295   46.0062 H   0  0  0  0  0  0  0  0  0  0  0  0
   59.5708   36.4285   46.0062 H   0  0  0  0  0  0  0  0  0  0  0  0
   58.0549   33.7608   42.4927 H   0  0  0  0  0  0  0  0  0  0  0  0
   57.4208   31.3696   42.1972 H   0  0  0  0  0  0  0  0  0  0  0  0
   57.1274   29.2233   43.0512 H   0  0  0  0  0  0  0  0  0  0  0  0
   58.4853   28.7562   44.1373 H   0  0  0  0  0  0  0  0  0  0  0  0
   58.5546   30.5602   46.2973 H   0  0  0  0  0  0  0  0  0  0  0  0
   59.1885   32.9496   46.5935 H   0  0  0  0  0  0  0  0  0  0  0  0
  1  2  1  0
  2  3  1  0
  3  4  2  0
  4  5  1  0
  5  6  2  0
  6  7  1  0
  7  8  1  0
  8  9  2  0
  8 10  1  0
 10 11  1  0
 11 12  2  0
 12 13  1  0
 12 14  1  0
 14 15  1  0
 15 16  2  0
 15 17  1  0
 17 18  1  0
 18 19  2  0
  6 20  1  0
 20 21  2  0
 21  3  1  0
 18 11  1  0
  1 22  1  0
  1 23  1  0
  1 24  1  0
  4 25  1  0
  5 26  1  0
  7 27  1  0
  7 28  1  0
 20 29  1  0
 21 30  1  0
M  CHG  4  10  -1  13  -1  14  -1  17  -1
M  END
>  <UniqueID>  (1) 
1

>  <SMILES>  (1) 
COc1ccc(CC(=O)[N-]c2c([O-])[n-]c(=O)[n-]c2=O)cc1

>  <Energy>  (1) 
35.078729327487366

>  <Genealogy>  (1) 
COc1ccc(CC(=O)[N-]c2c([O-])[n-]c(=O)[n-]c2=O)cc1 (protonated)
COc1ccc(CC(=O)[N-]c2c([O-])[n-]c(=O)[n-]c2=O)cc1 (3D coordinates assigned)
COc1ccc(CC(=O)[N-]c2c([O-])[n-]c(=O)[n-]c2=O)cc1 (optimized conformer: 35.078729327487366 kcal/mol)

>  <smiles>  (1) 
COc1ccc(CC(=O)Nc2c(O)[nH]c(=O)[nH]c2=O)cc1

>  <score_type>  (1) 
oracle

>  <origin>  (1) 
adg

>  <m_score__min__energy>  (1) 
-15.710000000000001

>  <m_primary>  (1) 
energy

$$$$
1:0
     RDKit          3D

 43 45  0  0  0  0  0  0  0  0999 V2000
   59.2779   34.7818   49.6493 H   0  0  0  0  0  0  0  0  0  0  0  0
   59.6870   34.5580   48.6530 C   0  0  0  0  0  0  0  0  0  0  0  0
   61.0360   34.2220   48.5120 C   0  0  0  0  0  0  0  0  0  0  0  0
   61.6887   34.1856   49.3967 H   0  0  0  0  0  0  0  0  0  0  0  0
   61.5570   33.9320   47.2470 C   0  0  0  0  0  0  0  0  0  0  0  0
   63.4000   33.4700   47.0560 Br  0  0  0  0  0  0  0  0  0  0  0  0
   60.7280   33.9820   46.1210 C   0  0  0  0  0  0  0  0  0  0  0  0
   61.1383   33.7462   45.1280 H   0  0  0  0  0  0  0  0  0  0  0  0
   59.3740   34.3320   46.2530 C   0  0  0  0  0  0  0  0  0  0  0  0
   58.4740   34.3840   45.0470 C   0  0  0  0  0  0  0  0  0  0  0  0
   58.7034   35.2884   44.4644 H   0  0  0  0  0  0  0  0  0  0  0  0
   57.4282   34.4035   45.3876 H   0  0  0  0  0  0  0  0  0  0  0  0
   58.6660   33.2340   44.2220 O   0  0  0  0  0  0  0  0  0  0  0  0
   58.4260   31.9060   44.6110 C   0  0  0  0  0  0  0  0  0  0  0  0
   58.9830   31.4580   45.8120 C   0  0  0  0  0  0  0  0  0  0  0  0
   59.5954   32.1424   46.4174 H   0  0  0  0  0  0  0  0  0  0  0  0
   58.7690   30.1480   46.2510 C   0  0  0  0  0  0  0  0  0  0  0  0
   59.2203   29.8082   47.1949 H   0  0  0  0  0  0  0  0  0  0  0  0
   57.9820   29.2620   45.4960 C   0  0  0  0  0  0  0  0  0  0  0  0
   57.7680   27.8750   45.9700 C   0  0  0  0  0  0  0  0  0  0  0  0
   58.4100   27.4650   46.9760 O   0  0  0  0  0  0  0  0  0  0  0  0
   56.8430   26.9990   45.2980 N   0  0  0  0  0  0  0  0  0  0  0  0
   56.2740   27.3760   44.5080 H   0  0  0  0  0  0  0  0  0  0  0  0
   56.7070   25.5960   45.5840 C   0  0  0  0  0  0  0  0  0  0  0  0
   56.6610   25.0780   47.1380 S   0  0  0  0  0  0  0  0  0  0  0  0
   56.2040   24.7100   44.5750 N   0  0  0  0  0  0  0  0  0  0  0  0
   56.7460   23.6030   44.1460 C   0  0  0  0  0  0  0  0  0  0  0  0
   57.8840   23.0290   44.7560 C   0  0  0  0  0  0  0  0  0  0  0  0
   58.3511   23.5152   45.6251 H   0  0  0  0  0  0  0  0  0  0  0  0
   58.4110   21.8410   44.2480 C   0  0  0  0  0  0  0  0  0  0  0  0
   59.3026   21.3926   44.7107 H   0  0  0  0  0  0  0  0  0  0  0  0
   57.8080   21.2230   43.1550 C   0  0  0  0  0  0  0  0  0  0  0  0
   58.2225   20.2901   42.7452 H   0  0  0  0  0  0  0  0  0  0  0  0
   56.6730   21.8000   42.5860 C   0  0  0  0  0  0  0  0  0  0  0  0
   56.1851   21.3171   41.7265 H   0  0  0  0  0  0  0  0  0  0  0  0
   56.1670   22.9580   43.0900 N   0  0  0  0  0  0  0  0  0  0  0  0
   55.3150   23.3650   42.6410 H   0  0  0  0  0  0  0  0  0  0  0  0
   57.4360   29.7070   44.2790 C   0  0  0  0  0  0  0  0  0  0  0  0
   56.8321   29.0200   43.6679 H   0  0  0  0  0  0  0  0  0  0  0  0
   57.6550   31.0160   43.8400 C   0  0  0  0  0  0  0  0  0  0  0  0
   57.2222   31.3525   42.8863 H   0  0  0  0  0  0  0  0  0  0  0  0
   58.8570   34.6100   47.5300 C   0  0  0  0  0  0  0  0  0  0  0  0
   57.7944   34.8696   47.6460 H   0  0  0  0  0  0  0  0  0  0  0  0
  1  2  1  0
  2  3  2  0
  3  4  1  0
  3  5  1  0
  5  6  1  0
  5  7  2  0
  7  8  1  0
  7  9  1  0
  9 10  1  0
 10 11  1  0
 10 12  1  0
 10 13  1  0
 13 14  1  0
 14 15  2  0
 15 16  1  0
 15 17  1  0
 17 18  1  0
 17 19  2  0
 19 20  1  0
 20 21  2  0
 20 22  1  0
 22 23  1  0
 22 24  1  0
 24 25  2  0
 24 26  1  0
 26 27  2  0
 27 28  1  0
 28 29  1  0
 28 30  2  0
 30 31  1  0
 30 32  1  0
 32 33  1  0
 32 34  2  0
 34 35  1  0
 34 36  1  0
 36 37  1  0
 19 38  1  0
 38 39  1  0
 38 40  2  0
 40 41  1  0
  9 42  2  0
 42 43  1  0
 42  2  1  0
 40 14  1  0
 36 27  1  0
M  END
>  <UniqueID>  (2) 
2

>  <SMILES>  (2) 
O=C(NC(=S)/N=c1\cccc[nH]1)c1ccc(OCc2cccc(Br)c2)cc1

>  <Energy>  (2) 
57.82907067488896

>  <Genealogy>  (2) 
O=C(NC(=S)/N=c1\cccc[nH]1)c1ccc(OCc2cccc(Br)c2)cc1 (cis-trans isomerization)
O=C(NC(=S)/N=c1\cccc[nH]1)c1ccc(OCc2cccc(Br)c2)cc1 (3D coordinates assigned)
O=C(NC(=S)/N=c1\cccc[nH]1)c1ccc(OCc2cccc(Br)c2)cc1 (optimized conformer: 57.82907067488896 kcal/mol)

>  <smiles>  (2) 
O=C(NC(=S)N=c1cccc[nH]1)c1ccc(OCc2cccc(Br)c2)cc1

>  <score_type>  (2) 
oracle

>  <origin>  (2) 
adg

>  <m_score__min__energy>  (2) 
-8.8900000000000006

>  <m_primary>  (2) 
energy

$$$$
2:0
     RDKit          3D

 63 66  0  0  0  0  0  0  0  0999 V2000
   59.9990   27.0700   45.8870 C   0  0  0  0  0  0  0  0  0  0  0  0
   58.9710   28.1830   45.8020 C   0  0  0  0  0  0  0  0  0  0  0  0
   57.6350   27.9070   45.4000 C   0  0  0  0  0  0  0  0  0  0  0  0
   57.1590   26.5200   45.1800 C   0  0  0  0  0  0  0  0  0  0  0  0
   57.5210   25.8210   44.0180 C   0  0  0  0  0  0  0  0  0  0  0  0
   57.0700   24.5150   43.8170 C   0  0  0  0  0  0  0  0  0  0  0  0
   56.2610   23.8920   44.7730 C   0  0  0  0  0  0  0  0  0  0  0  0
   55.7990   22.6040   44.5320 O   0  0  0  0  0  0  0  0  0  0  0  0
   55.9070   24.5770   45.9500 C   0  0  0  0  0  0  0  0  0  0  0  0
   55.0770   23.9670   46.9530 N   0  0  0  0  0  0  0  0  0  0  0  0
   55.5660   22.9890   47.8840 C   0  0  0  0  0  0  0  0  0  0  0  0
   56.8060   22.7910   47.9950 O   0  0  0  0  0  0  0  0  0  0  0  0
   54.6540   22.2870   48.8070 C   0  0  0  0  0  0  0  0  0  0  0  0
   55.0340   21.5740   49.8760 C   0  0  0  0  0  0  0  0  0  0  0  0
   56.4280   21.2260   50.2210 C   0  0  0  0  0  0  0  0  0  0  0  0
   57.1870   22.1190   50.9920 C   0  0  0  0  0  0  0  0  0  0  0  0
   58.5250   21.8400   51.2920 C   0  0  0  0  0  0  0  0  0  0  0  0
   59.1370   20.6720   50.8040 C   0  0  0  0  0  0  0  0  0  0  0  0
   60.5600   20.3870   51.1070 C   0  0  0  0  0  0  0  0  0  0  0  0
   61.5290   20.3400   50.0600 N   0  0  0  0  0  0  0  0  0  0  0  0
   60.9300   20.1820   52.2950 O   0  0  0  0  0  0  0  0  0  0  0  0
   58.3830   19.7930   50.0050 C   0  0  0  0  0  0  0  0  0  0  0  0
   57.0450   20.0730   49.7070 C   0  0  0  0  0  0  0  0  0  0  0  0
   56.3370   25.8990   46.1320 C   0  0  0  0  0  0  0  0  0  0  0  0
   56.7340   28.9760   45.2370 C   0  0  0  0  0  0  0  0  0  0  0  0
   55.5480   28.7660   44.8680 O   0  0  0  0  0  0  0  0  0  0  0  0
   57.1280   30.2470   45.4890 N   0  0  0  0  0  0  0  0  0  0  0  0
   58.3770   30.5470   45.9230 C   0  0  0  0  0  0  0  0  0  0  0  0
   58.7040   31.8810   46.1920 C   0  0  0  0  0  0  0  0  0  0  0  0
   59.9810   32.2170   46.6610 C   0  0  0  0  0  0  0  0  0  0  0  0
   60.3260   33.6210   46.9600 C   0  0  0  0  0  0  0  0  0  0  0  0
   59.4300   34.3870   47.4030 O   0  0  0  0  0  0  0  0  0  0  0  0
   61.6480   34.1430   46.7820 N   0  0  0  0  0  0  0  0  0  0  0  0
   62.7970   33.8980   47.6560 C   0  0  0  0  0  0  0  0  0  0  0  0
   62.2880   33.4130   49.0100 C   0  0  0  0  0  0  0  0  0  0  0  0
   63.7280   32.8510   47.0340 C   0  0  0  0  0  0  0  0  0  0  0  0
   60.9150   31.2030   46.8970 C   0  0  0  0  0  0  0  0  0  0  0  0
   60.6010   29.8690   46.6230 C   0  0  0  0  0  0  0  0  0  0  0  0
   59.3310   29.5210   46.1130 C   0  0  0  0  0  0  0  0  0  0  0  0
   60.2080   26.8437   46.9430 H   0  0  0  0  0  0  0  0  0  0  0  0
   59.6073   26.1703   45.3898 H   0  0  0  0  0  0  0  0  0  0  0  0
   60.9269   27.3891   45.3898 H   0  0  0  0  0  0  0  0  0  0  0  0
   58.1611   26.3029   43.2644 H   0  0  0  0  0  0  0  0  0  0  0  0
   57.3523   23.9733   42.9022 H   0  0  0  0  0  0  0  0  0  0  0  0
   54.1390   24.3900   47.1340 H   0  0  0  0  0  0  0  0  0  0  0  0
   53.5755   22.3543   48.6011 H   0  0  0  0  0  0  0  0  0  0  0  0
   54.2429   21.2184   50.5526 H   0  0  0  0  0  0  0  0  0  0  0  0
   56.7265   23.0462   51.3638 H   0  0  0  0  0  0  0  0  0  0  0  0
   59.1023   22.5397   51.9142 H   0  0  0  0  0  0  0  0  0  0  0  0
   61.8940   21.2140   49.6260 H   0  0  0  0  0  0  0  0  0  0  0  0
   58.8494   18.8779   49.6113 H   0  0  0  0  0  0  0  0  0  0  0  0
   56.4725   19.3862   49.0663 H   0  0  0  0  0  0  0  0  0  0  0  0
   56.0269   26.4543   47.0295 H   0  0  0  0  0  0  0  0  0  0  0  0
   57.9542   32.6703   46.0343 H   0  0  0  0  0  0  0  0  0  0  0  0
   63.3679   34.8294   47.7847 H   0  0  0  0  0  0  0  0  0  0  0  0
   62.8320   33.9314   49.8133 H   0  0  0  0  0  0  0  0  0  0  0  0
   61.2129   33.6292   49.0964 H   0  0  0  0  0  0  0  0  0  0  0  0
   62.4521   32.3287   49.0964 H   0  0  0  0  0  0  0  0  0  0  0  0
   64.2303   32.2861   47.8331 H   0  0  0  0  0  0  0  0  0  0  0  0
   63.1397   32.1610   46.4113 H   0  0  0  0  0  0  0  0  0  0  0  0
   64.4821   33.3546   46.4113 H   0  0  0  0  0  0  0  0  0  0  0  0
   61.9055   31.4578   47.3019 H   0  0  0  0  0  0  0  0  0  0  0  0
   61.3492   29.0837   46.8061 H   0  0  0  0  0  0  0  0  0  0  0  0
  1  2  1  0
  2  3  2  0
  3  4  1  0
  4  5  2  0
  5  6  1  0
  6  7  2  0
  7  8  1  0
  7  9  1  0
  9 10  1  0
 10 11  1  0
 11 12  2  0
 11 13  1  0
 13 14  2  3
 14 15  1  0
 15 16  2  0
 16 17  1  0
 17 18  2  0
 18 19  1  0
 19 20  1  0
 19 21  2  0
 18 22  1  0
 22 23  2  0
  9 24  2  0
  3 25  1  0
 25 26  2  0
 25 27  1  0
 27 28  1  0
 28 29  2  0
 29 30  1  0
 30 31  1  0
 31 32  2  0
 31 33  1  0
 33 34  1  0
 34 35  1  0
 34 36  1  0
 30 37  2  0
 37 38  1  0
 38 39  2  0
 39  2  1  0
 24  4  1  0
 39 28  1  0
 23 15  1  0
  1 40  1  0
  1 41  1  0
  1 42  1  0
  5 43  1  0
  6 44  1  0
 10 45  1  0
 13 46  1  0
 14 47  1  0
 16 48  1  0
 17 49  1  0
 20 50  1  0
 22 51  1  0
 23 52  1  0
 24 53  1  0
 29 54  1  0
 34 55  1  0
 35 56  1  0
 35 57  1  0
 35 58  1  0
 36 59  1  0
 36 60  1  0
 36 61  1  0
 37 62  1  0
 38 63  1  0
M  CHG  4   8  -1  20  -1  27  -1  33  -1
M  END
>  <UniqueID>  (3) 
3

>  <SMILES>  (3) 
Cc1c(-c2ccc([O-])c(NC(=O)C=Cc3ccc(C([NH-])=O)cc3)c2)c(=O)[n-]c2cc(C(=O)[N-]C(C)C)ccc12

>  <Energy>  (3) 
94.62199796025374

>  <Genealogy>  (3) 
Cc1c(-c2ccc([O-])c(NC(=O)C=Cc3ccc(C([NH-])=O)cc3)c2)c(=O)[n-]c2cc(C(=O)[N-]C(C)C)ccc12 (protonated)
Cc1c(-c2ccc([O-])c(NC(=O)C=Cc3ccc(C([NH-])=O)cc3)c2)c(=O)[n-]c2cc(C(=O)[N-]C(C)C)ccc12 (3D coordinates assigned)
Cc1c(-c2ccc([O-])c(NC(=O)C=Cc3ccc(C([NH-])=O)cc3)c2)c(=O)[n-]c2cc(C(=O)[N-]C(C)C)ccc12 (optimized conformer: 94.62199796025374 kcal/mol)

>  <smiles>  (3) 
Cc1c(-c2ccc(O)c(NC(=O)C=Cc3ccc(C(N)=O)cc3)c2)c(=O)[nH]c2cc(C(=O)NC(C)C)ccc12

>  <score_type>  (3) 
oracle

>  <origin>  (3) 
adg

>  <m_score__min__energy>  (3) 
-16.039999999999999

>  <m_primary>  (3) 
energy

$$$$
3:0
     RDKit          3D

 18 18  0  0  0  0  0  0  0  0999 V2000
   57.3820   31.2720   43.7640 C   0  0  0  0  0  0  0  0  0  0  0  0
   56.6030   29.7960   43.0400 S   0  0  0  0  0  0  0  0  0  0  0  0
   56.2150   29.0770   44.6400 C   0  0  0  0  0  0  0  0  0  0  0  0
   55.1600   29.4540   45.2180 O   0  0  0  0  0  0  0  0  0  0  0  0
   57.0650   28.0330   45.2670 C   0  0  0  0  0  0  0  0  0  0  0  0
   58.4650   28.1590   45.1880 C   0  0  0  0  0  0  0  0  0  0  0  0
   59.3000   27.2110   45.7800 C   0  0  0  0  0  0  0  0  0  0  0  0
   58.7540   26.1210   46.4570 C   0  0  0  0  0  0  0  0  0  0  0  0
   57.3680   25.9690   46.5360 C   0  0  0  0  0  0  0  0  0  0  0  0
   56.6470   24.4530   47.4540 Br  0  0  0  0  0  0  0  0  0  0  0  0
   56.5190   26.9140   45.9380 C   0  0  0  0  0  0  0  0  0  0  0  0
   55.1430   26.7160   45.9970 O   0  0  0  0  0  0  0  0  0  0  0  0
   57.3464   31.2045   44.8613 H   0  0  0  0  0  0  0  0  0  0  0  0
   58.4296   31.3328   43.4342 H   0  0  0  0  0  0  0  0  0  0  0  0
   56.8410   32.1712   43.4342 H   0  0  0  0  0  0  0  0  0  0  0  0
   58.9051   29.0140   44.6539 H   0  0  0  0  0  0  0  0  0  0  0  0
   60.3921   27.3237   45.7125 H   0  0  0  0  0  0  0  0  0  0  0  0
   59.4157   25.3801   46.9293 H   0  0  0  0  0  0  0  0  0  0  0  0
  1  2  1  0
  2  3  1  0
  3  4  2  0
  3  5  1  0
  5  6  2  0
  6  7  1  0
  7  8  2  0
  8  9  1  0
  9 10  1  0
  9 11  2  0
 11 12  1  0
 11  5  1  0
  1 13  1  0
  1 14  1  0
  1 15  1  0
  6 16  1  0
  7 17  1  0
  8 18  1  0
M  CHG  1  12  -1
M  END
>  <UniqueID>  (4) 
4

>  <SMILES>  (4) 
CSC(=O)c1cccc(Br)c1[O-]

>  <Energy>  (4) 
17.350778629176602

>  <Genealogy>  (4) 
CSC(=O)c1cccc(Br)c1[O-] (protonated)
CSC(=O)c1cccc(Br)c1[O-] (3D coordinates assigned)
CSC(=O)c1cccc(Br)c1[O-] (optimized conformer: 17.350778629176602 kcal/mol)

>  <smiles>  (4) 
CSC(=O)c1cccc(Br)c1O

>  <score_type>  (4) 
oracle

>  <origin>  (4) 
adg

>  <m_score__min__energy>  (4) 
-9.6899999999999995

>  <m_primary>  (4) 
energy

$$$$
4:0
     RDKit          3D

 61 64  0  0  0  0  0  0  0  0999 V2000
   57.9740   30.8650   51.2120 C   0  0  0  0  0  0  0  0  0  0  0  0
   57.8560   32.3400   50.8410 C   0  0  0  0  0  0  0  0  0  0  0  0
   58.8370   32.6860   49.7970 N   0  0  0  0  0  0  0  0  0  0  0  0
   58.4870   32.5450   48.5110 N   0  0  0  0  0  0  0  0  0  0  0  0
   59.3220   32.8760   47.4870 C   0  0  0  0  0  0  0  0  0  0  0  0
   58.8660   32.6520   46.0990 C   0  0  0  0  0  0  0  0  0  0  0  0
   58.9900   33.6670   45.1480 C   0  0  0  0  0  0  0  0  0  0  0  0
   58.5170   33.4760   43.8500 C   0  0  0  0  0  0  0  0  0  0  0  0
   57.9000   32.2670   43.4770 C   0  0  0  0  0  0  0  0  0  0  0  0
   57.3960   32.1300   42.0670 C   0  0  0  0  0  0  0  0  0  0  0  0
   57.7550   31.2390   44.4470 C   0  0  0  0  0  0  0  0  0  0  0  0
   57.0020   29.6610   44.1310 S   0  0  0  0  0  0  0  0  0  0  0  0
   56.0200   29.4020   45.2400 O   0  0  0  0  0  0  0  0  0  0  0  0
   56.2530   29.6260   42.8300 O   0  0  0  0  0  0  0  0  0  0  0  0
   58.2310   28.4090   44.1570 N   0  0  0  0  0  0  0  0  0  0  0  0
   57.8240   27.2340   44.9520 C   0  0  0  0  0  0  0  0  0  0  0  0
   57.8720   27.4870   46.4770 C   0  0  0  0  0  0  0  0  0  0  0  0
   58.7140   28.6490   46.8270 N   0  0  0  0  0  0  0  0  0  0  0  0
   59.0510   28.6310   48.2590 C   0  0  0  0  0  0  0  0  0  0  0  0
   59.9320   28.6700   46.0050 C   0  0  0  0  0  0  0  0  0  0  0  0
   59.5620   28.9370   44.5340 C   0  0  0  0  0  0  0  0  0  0  0  0
   58.2370   31.4510   45.7480 C   0  0  0  0  0  0  0  0  0  0  0  0
   60.5920   33.4070   47.7820 C   0  0  0  0  0  0  0  0  0  0  0  0
   60.9660   33.5550   49.1220 C   0  0  0  0  0  0  0  0  0  0  0  0
   60.0610   33.2010   50.1320 C   0  0  0  0  0  0  0  0  0  0  0  0
   60.3730   33.3640   51.3440 O   0  0  0  0  0  0  0  0  0  0  0  0
   62.3190   34.1570   49.4270 C   0  0  0  0  0  0  0  0  0  0  0  0
   63.3980   33.5560   48.5090 C   0  0  0  0  0  0  0  0  0  0  0  0
   62.9840   33.4630   47.0170 C   0  0  0  0  0  0  0  0  0  0  0  0
   61.5470   33.9300   46.7280 C   0  0  0  0  0  0  0  0  0  0  0  0
   57.9822   30.7619   52.3071 H   0  0  0  0  0  0  0  0  0  0  0  0
   57.1171   30.3131   50.7982 H   0  0  0  0  0  0  0  0  0  0  0  0
   58.9077   30.4564   50.7982 H   0  0  0  0  0  0  0  0  0  0  0  0
   56.8414   32.5395   50.4657 H   0  0  0  0  0  0  0  0  0  0  0  0
   58.0547   32.9502   51.7344 H   0  0  0  0  0  0  0  0  0  0  0  0
   57.5420   32.1610   48.2760 H   0  0  0  0  0  0  0  0  0  0  0  0
   59.4627   34.6212   45.4238 H   0  0  0  0  0  0  0  0  0  0  0  0
   58.6275   34.2806   43.1081 H   0  0  0  0  0  0  0  0  0  0  0  0
   56.3346   31.8415   42.0834 H   0  0  0  0  0  0  0  0  0  0  0  0
   57.5067   33.0908   41.5430 H   0  0  0  0  0  0  0  0  0  0  0  0
   57.9779   31.3574   41.5430 H   0  0  0  0  0  0  0  0  0  0  0  0
   56.7947   26.9630   44.6743 H   0  0  0  0  0  0  0  0  0  0  0  0
   58.5367   26.4257   44.7311 H   0  0  0  0  0  0  0  0  0  0  0  0
   56.8490   27.6703   46.8374 H   0  0  0  0  0  0  0  0  0  0  0  0
   58.3123   26.5977   46.9516 H   0  0  0  0  0  0  0  0  0  0  0  0
   58.1270   28.6804   48.8538 H   0  0  0  0  0  0  0  0  0  0  0  0
   59.5911   27.7027   48.4969 H   0  0  0  0  0  0  0  0  0  0  0  0
   59.6869   29.4965   48.4969 H   0  0  0  0  0  0  0  0  0  0  0  0
   60.6014   29.4658   46.3637 H   0  0  0  0  0  0  0  0  0  0  0  0
   60.4397   27.6972   46.0818 H   0  0  0  0  0  0  0  0  0  0  0  0
   59.5665   30.0240   44.3651 H   0  0  0  0  0  0  0  0  0  0  0  0
   60.3056   28.4165   43.9126 H   0  0  0  0  0  0  0  0  0  0  0  0
   58.1188   30.6610   46.5042 H   0  0  0  0  0  0  0  0  0  0  0  0
   62.2747   35.2447   49.2691 H   0  0  0  0  0  0  0  0  0  0  0  0
   62.5787   33.9348   50.4726 H   0  0  0  0  0  0  0  0  0  0  0  0
   64.2987   34.1836   48.5786 H   0  0  0  0  0  0  0  0  0  0  0  0
   63.5686   32.5257   48.8544 H   0  0  0  0  0  0  0  0  0  0  0  0
   63.6736   34.0863   46.4287 H   0  0  0  0  0  0  0  0  0  0  0  0
   63.0302   32.3986   46.7432 H   0  0  0  0  0  0  0  0  0  0  0  0
   61.5178   35.0296   46.7279 H   0  0  0  0  0  0  0  0  0  0  0  0
   61.2389   33.5401   45.7467 H   0  0  0  0  0  0  0  0  0  0  0  0
  1  2  1  0
  2  3  1  0
  3  4  1  0
  4  5  2  0
  5  6  1  0
  6  7  2  0
  7  8  1  0
  8  9  2  0
  9 10  1  0
  9 11  1  0
 11 12  1  0
 12 13  2  0
 12 14  2  0
 12 15  1  0
 15 16  1  0
 16 17  1  0
 17 18  1  0
 18 19  1  0
 18 20  1  0
 20 21  1  0
 11 22  2  0
  5 23  1  0
 23 24  2  0
 24 25  1  0
 25 26  2  0
 24 27  1  0
 27 28  1  0
 28 29  1  0
 29 30  1  0
 25  3  1  0
 22  6  1  0
 30 23  1  0
 21 15  1  0
  1 31  1  0
  1 32  1  0
  1 33  1  0
  2 34  1  0
  2 35  1  0
  4 36  1  0
  7 37  1  0
  8 38  1  0
 10 39  1  0
 10 40  1  0
 10 41  1  0
 16 42  1  0
 16 43  1  0
 17 44  1  0
 17 45  1  0
 19 46  1  0
 19 47  1  0
 19 48  1  0
 20 49  1  0
 20 50  1  0
 21 51  1  0
 21 52  1  0
 22 53  1  0
 27 54  1  0
 27 55  1  0
 28 56  1  0
 28 57  1  0
 29 58  1  0
 29 59  1  0
 30 60  1  0
 30 61  1  0
M  CHG  1   4   1
M  END
>  <UniqueID>  (5) 
5

>  <SMILES>  (5) 
CCn1[nH+]c(-c2ccc(C)c(S(=O)(=O)N3CCN(C)CC3)c2)c2c(c1=O)CCCC2

>  <Energy>  (5) 
87.30632843198536

>  <Genealogy>  (5) 
CCn1[nH+]c(-c2ccc(C)c(S(=O)(=O)N3CCN(C)CC3)c2)c2c(c1=O)CCCC2 (protonated)
CCn1[nH+]c(-c2ccc(C)c(S(=O)(=O)N3CCN(C)CC3)c2)c2c(c1=O)CCCC2 (3D coordinates assigned)
CCn1[nH+]c(-c2ccc(C)c(S(=O)(=O)N3CCN(C)CC3)c2)c2c(c1=O)CCCC2 (nonaromatic ring conformer: 87.30632843198536 kcal/mol)

>  <smiles>  (5) 
CCn1nc(-c2ccc(C)c(S(=O)(=O)N3CCN(C)CC3)c2)c2c(c1=O)CCCC2

>  <score_type>  (5) 
oracle

>  <origin>  (5) 
adg

>  <m_score__min__energy>  (5) 
-9.1600000000000001

>  <m_primary>  (5) 
energy

$$$$
5:0
     RDKit          3D

 36 37  0  0  0  0  0  0  0  0999 V2000
   59.6990   34.5850   48.5010 C   0  0  0  0  0  0  0  0  0  0  0  0
   59.1300   33.9480   47.2680 C   0  0  0  0  0  0  0  0  0  0  0  0
   59.3190   34.5520   46.0170 C   0  0  0  0  0  0  0  0  0  0  0  0
   58.7600   33.9850   44.8690 C   0  0  0  0  0  0  0  0  0  0  0  0
   58.0060   32.8050   44.9550 C   0  0  0  0  0  0  0  0  0  0  0  0
   57.3950   32.1960   43.7230 C   0  0  0  0  0  0  0  0  0  0  0  0
   56.5990   30.5930   44.1000 S   0  0  0  0  0  0  0  0  0  0  0  0
   58.1190   29.5760   44.1440 C   0  0  0  0  0  0  0  0  0  0  0  0
   58.0550   28.6240   45.2970 C   0  0  0  0  0  0  0  0  0  0  0  0
   58.9060   28.7210   46.2230 O   0  0  0  0  0  0  0  0  0  0  0  0
   57.0410   27.6100   45.3520 N   0  0  0  0  0  0  0  0  0  0  0  0
   56.9930   26.6050   46.4110 C   0  0  0  0  0  0  0  0  0  0  0  0
   55.8940   25.6220   46.1490 C   0  0  0  0  0  0  0  0  0  0  0  0
   55.9930   24.2510   46.2670 C   0  0  0  0  0  0  0  0  0  0  0  0
   54.7570   23.7570   45.9090 C   0  0  0  0  0  0  0  0  0  0  0  0
   53.9830   24.8550   45.5930 C   0  0  0  0  0  0  0  0  0  0  0  0
   54.6890   25.9530   45.7440 O   0  0  0  0  0  0  0  0  0  0  0  0
   57.8090   32.2060   46.2100 C   0  0  0  0  0  0  0  0  0  0  0  0
   58.3590   32.7800   47.3600 C   0  0  0  0  0  0  0  0  0  0  0  0
   59.2702   34.1049   49.3930 H   0  0  0  0  0  0  0  0  0  0  0  0
   60.7919   34.4603   48.5071 H   0  0  0  0  0  0  0  0  0  0  0  0
   59.4522   35.6569   48.5071 H   0  0  0  0  0  0  0  0  0  0  0  0
   59.9100   35.4764   45.9390 H   0  0  0  0  0  0  0  0  0  0  0  0
   58.9120   34.4667   43.8918 H   0  0  0  0  0  0  0  0  0  0  0  0
   56.6389   32.8856   43.3195 H   0  0  0  0  0  0  0  0  0  0  0  0
   58.1947   32.0225   42.9879 H   0  0  0  0  0  0  0  0  0  0  0  0
   58.2068   29.0087   43.2057 H   0  0  0  0  0  0  0  0  0  0  0  0
   58.9937   30.2326   44.2615 H   0  0  0  0  0  0  0  0  0  0  0  0
   56.2810   27.6100   44.6360 H   0  0  0  0  0  0  0  0  0  0  0  0
   57.9545   26.0720   46.4486 H   0  0  0  0  0  0  0  0  0  0  0  0
   56.8011   27.1071   47.3707 H   0  0  0  0  0  0  0  0  0  0  0  0
   56.8744   23.6728   46.5812 H   0  0  0  0  0  0  0  0  0  0  0  0
   54.4497   22.7012   45.8809 H   0  0  0  0  0  0  0  0  0  0  0  0
   52.9339   24.8168   45.2645 H   0  0  0  0  0  0  0  0  0  0  0  0
   57.2191   31.2808   46.2884 H   0  0  0  0  0  0  0  0  0  0  0  0
   58.1863   32.3136   48.3412 H   0  0  0  0  0  0  0  0  0  0  0  0
  1  2  1  0
  2  3  2  0
  3  4  1  0
  4  5  2  0
  5  6  1  0
  6  7  1  0
  7  8  1  0
  8  9  1  0
  9 10  2  0
  9 11  1  0
 11 12  1  0
 12 13  1  0
 13 14  2  0
 14 15  1  0
 15 16  2  0
 16 17  1  0
  5 18  1  0
 18 19  2  0
 19  2  1  0
 17 13  1  0
  1 20  1  0
  1 21  1  0
  1 22  1  0
  3 23  1  0
  4 24  1  0
  6 25  1  0
  6 26  1  0
  8 27  1  0
  8 28  1  0
 11 29  1  0
 12 30  1  0
 12 31  1  0
 14 32  1  0
 15 33  1  0
 16 34  1  0
 18 35  1  0
 19 36  1  0
M  END
>  <UniqueID>  (6) 
6

>  <SMILES>  (6) 
Cc1ccc(CSCC(=O)NCc2ccco2)cc1

>  <Energy>  (6) 
49.46285228069363

>  <Genealogy>  (6) 
Cc1ccc(CSCC(=O)NCc2ccco2)cc1 (3D coordinates assigned)
Cc1ccc(CSCC(=O)NCc2ccco2)cc1 (optimized conformer: 49.46285228069363 kcal/mol)

>  <smiles>  (6) 
Cc1ccc(CSCC(=O)NCc2ccco2)cc1

>  <score_type>  (6) 
oracle

>  <origin>  (6) 
adg

>  <m_score__min__energy>  (6) 
-7.5499999999999998

>  <m_primary>  (6) 
energy

$$$$
6:0
     RDKit          3D

 61 64  0  0  0  0  0  0  0  0999 V2000
   57.8320   31.9610   50.8840 C   0  0  0  0  0  0  0  0  0  0  0  0
   58.8590   31.3420   49.9680 C   0  0  0  0  0  0  0  0  0  0  0  0
   58.7730   29.9670   49.6990 C   0  0  0  0  0  0  0  0  0  0  0  0
   59.7050   29.3460   48.8730 C   0  0  0  0  0  0  0  0  0  0  0  0
   60.7420   30.0840   48.3100 C   0  0  0  0  0  0  0  0  0  0  0  0
   60.8560   31.4610   48.5520 C   0  0  0  0  0  0  0  0  0  0  0  0
   62.2350   32.3260   47.8460 S   0  0  0  0  0  0  0  0  0  0  0  0
   63.1150   31.3440   47.1240 O   0  0  0  0  0  0  0  0  0  0  0  0
   63.0290   33.0060   48.9260 O   0  0  0  0  0  0  0  0  0  0  0  0
   61.6410   33.5300   46.7470 N   0  0  0  0  0  0  0  0  0  0  0  0
   60.3230   33.5680   46.1840 C   0  0  0  0  0  0  0  0  0  0  0  0
   59.7930   34.8080   45.8140 C   0  0  0  0  0  0  0  0  0  0  0  0
   58.5110   34.8940   45.2700 C   0  0  0  0  0  0  0  0  0  0  0  0
   57.7440   33.7410   45.0930 C   0  0  0  0  0  0  0  0  0  0  0  0
   58.2550   32.4830   45.4560 C   0  0  0  0  0  0  0  0  0  0  0  0
   57.4400   31.2590   45.2770 C   0  0  0  0  0  0  0  0  0  0  0  0
   56.4370   31.2750   44.5110 O   0  0  0  0  0  0  0  0  0  0  0  0
   57.8260   30.0390   45.9270 N   0  0  0  0  0  0  0  0  0  0  0  0
   57.7770   28.7190   45.3640 C   0  0  0  0  0  0  0  0  0  0  0  0
   58.6200   28.4150   44.2890 C   0  0  0  0  0  0  0  0  0  0  0  0
   58.6140   27.1380   43.7220 C   0  0  0  0  0  0  0  0  0  0  0  0
   57.7710   26.1490   44.2370 C   0  0  0  0  0  0  0  0  0  0  0  0
   56.9380   26.4320   45.3250 C   0  0  0  0  0  0  0  0  0  0  0  0
   55.9140   25.1610   45.9920 S   0  0  0  0  0  0  0  0  0  0  0  0
   56.3170   24.8670   47.4110 O   0  0  0  0  0  0  0  0  0  0  0  0
   54.4890   25.6390   45.9880 O   0  0  0  0  0  0  0  0  0  0  0  0
   56.0550   23.7220   45.0140 N   0  0  0  0  0  0  0  0  0  0  0  0
   55.7440   24.0350   43.6100 C   0  0  0  0  0  0  0  0  0  0  0  0
   55.9650   22.7960   42.7180 C   0  0  0  0  0  0  0  0  0  0  0  0
   56.4150   21.6820   43.4670 O   0  0  0  0  0  0  0  0  0  0  0  0
   57.6180   22.0110   44.1340 C   0  0  0  0  0  0  0  0  0  0  0  0
   57.4170   23.1750   45.1250 C   0  0  0  0  0  0  0  0  0  0  0  0
   56.9530   27.7120   45.8990 C   0  0  0  0  0  0  0  0  0  0  0  0
   59.5530   32.4050   45.9990 C   0  0  0  0  0  0  0  0  0  0  0  0
   59.8840   32.1170   49.3570 C   0  0  0  0  0  0  0  0  0  0  0  0
   59.9730   33.6050   49.6280 C   0  0  0  0  0  0  0  0  0  0  0  0
   58.1216   31.7864   51.9307 H   0  0  0  0  0  0  0  0  0  0  0  0
   57.7765   33.0431   50.6945 H   0  0  0  0  0  0  0  0  0  0  0  0
   56.8492   31.5047   50.6945 H   0  0  0  0  0  0  0  0  0  0  0  0
   57.9609   29.3745   50.1455 H   0  0  0  0  0  0  0  0  0  0  0  0
   59.6219   28.2691   48.6645 H   0  0  0  0  0  0  0  0  0  0  0  0
   61.4806   29.5818   47.6680 H   0  0  0  0  0  0  0  0  0  0  0  0
   60.3904   35.7212   45.9527 H   0  0  0  0  0  0  0  0  0  0  0  0
   58.1033   35.8735   44.9796 H   0  0  0  0  0  0  0  0  0  0  0  0
   56.7329   33.8176   44.6666 H   0  0  0  0  0  0  0  0  0  0  0  0
   59.2925   29.1873   43.8874 H   0  0  0  0  0  0  0  0  0  0  0  0
   59.2725   26.9110   42.8706 H   0  0  0  0  0  0  0  0  0  0  0  0
   57.7625   25.1458   43.7858 H   0  0  0  0  0  0  0  0  0  0  0  0
   54.6937   24.3528   43.5342 H   0  0  0  0  0  0  0  0  0  0  0  0
   56.4100   24.8416   43.2696 H   0  0  0  0  0  0  0  0  0  0  0  0
   55.0149   22.5356   42.2286 H   0  0  0  0  0  0  0  0  0  0  0  0
   56.7378   23.0431   41.9752 H   0  0  0  0  0  0  0  0  0  0  0  0
   57.9726   21.1286   44.6868 H   0  0  0  0  0  0  0  0  0  0  0  0
   58.3551   22.3242   43.3800 H   0  0  0  0  0  0  0  0  0  0  0  0
   57.5768   22.8087   46.1498 H   0  0  0  0  0  0  0  0  0  0  0  0
   58.1386   23.9706   44.8878 H   0  0  0  0  0  0  0  0  0  0  0  0
   56.3181   27.9291   46.7706 H   0  0  0  0  0  0  0  0  0  0  0  0
   59.9680   31.4260   46.2808 H   0  0  0  0  0  0  0  0  0  0  0  0
   59.9835   33.7799   50.7139 H   0  0  0  0  0  0  0  0  0  0  0  0
   60.8966   34.0041   49.1834 H   0  0  0  0  0  0  0  0  0  0  0  0
   59.1035   34.1113   49.1834 H   0  0  0  0  0  0  0  0  0  0  0  0
  1  2  1  0
  2  3  2  0
  3  4  1  0
  4  5  2  0
  5  6  1  0
  6  7  1  0
  7  8  2  0
  7  9  2  0
  7 10  1  0
 10 11  1  0
 11 12  2  0
 12 13  1  0
 13 14  2  0
 14 15  1  0
 15 16  1  0
 16 17  2  0
 16 18  1  0
 18 19  1  0
 19 20  2  0
 20 21  1  0
 21 22  2  0
 22 23  1  0
 23 24  1  0
 24 25  2  0
 24 26  2  0
 24 27  1  0
 27 28  1  0
 28 29  1  0
 29 30  1  0
 30 31  1  0
 31 32  1  0
 23 33  2  0
 15 34  2  0
  6 35  2  0
 35 36  1  0
 35  2  1  0
 34 11  1  0
 33 19  1  0
 32 27  1  0
  1 37  1  0
  1 38  1  0
  1 39  1  0
  3 40  1  0
  4 41  1  0
  5 42  1  0
 12 43  1  0
 13 44  1  0
 14 45  1  0
 20 46  1  0
 21 47  1  0
 22 48  1  0
 28 49  1  0
 28 50  1  0
 29 51  1  0
 29 52  1  0
 31 53  1  0
 31 54  1  0
 32 55  1  0
 32 56  1  0
 33 57  1  0
 34 58  1  0
 36 59  1  0
 36 60  1  0
 36 61  1  0
M  CHG  2  10  -1  18  -1
M  END
>  <UniqueID>  (7) 
7

>  <SMILES>  (7) 
Cc1cccc(S(=O)(=O)[N-]c2cccc(C(=O)[N-]c3cccc(S(=O)(=O)N4CCOCC4)c3)c2)c1C

>  <Energy>  (7) 
83.52358724461317

>  <Genealogy>  (7) 
Cc1cccc(S(=O)(=O)[N-]c2cccc(C(=O)[N-]c3cccc(S(=O)(=O)N4CCOCC4)c3)c2)c1C (protonated)
Cc1cccc(S(=O)(=O)[N-]c2cccc(C(=O)[N-]c3cccc(S(=O)(=O)N4CCOCC4)c3)c2)c1C (3D coordinates assigned)
Cc1cccc(S(=O)(=O)[N-]c2cccc(C(=O)[N-]c3cccc(S(=O)(=O)N4CCOCC4)c3)c2)c1C (nonaromatic ring conformer: 83.52358724461317 kcal/mol)

>  <smiles>  (7) 
Cc1cccc(S(=O)(=O)Nc2cccc(C(=O)Nc3cccc(S(=O)(=O)N4CCOCC4)c3)c2)c1C

>  <score_type>  (7) 
oracle

>  <origin>  (7) 
adg

>  <m_score__min__energy>  (7) 
-14.789999999999999

>  <m_primary>  (7) 
energy

$$$$
7:0
     RDKit          3D

 36 38  0  0  0  0  0  0  0  0999 V2000
   61.3230   30.5740   47.0710 C   0  0  0  0  0  0  0  0  0  0  0  0
   60.3950   29.4930   46.7630 N   0  0  0  0  0  0  0  0  0  0  0  0
   59.2120   29.7050   45.9770 C   0  0  0  0  0  0  0  0  0  0  0  0
   59.0970   30.8970   45.2400 C   0  0  0  0  0  0  0  0  0  0  0  0
   57.9320   31.1910   44.5320 C   0  0  0  0  0  0  0  0  0  0  0  0
   57.8080   32.6930   43.6340 Cl  0  0  0  0  0  0  0  0  0  0  0  0
   56.8610   30.3020   44.5530 C   0  0  0  0  0  0  0  0  0  0  0  0
   56.9530   29.1030   45.2640 C   0  0  0  0  0  0  0  0  0  0  0  0
   55.8950   28.2560   45.2610 N   0  0  0  0  0  0  0  0  0  0  0  0
   55.8990   27.0600   45.9000 C   0  0  0  0  0  0  0  0  0  0  0  0
   54.7290   26.3000   45.8340 O   0  0  0  0  0  0  0  0  0  0  0  0
   57.0640   26.6420   46.5930 C   0  0  0  0  0  0  0  0  0  0  0  0
   57.1710   25.2870   47.2770 C   0  0  0  0  0  0  0  0  0  0  0  0
   57.0770   24.1570   46.2760 C   0  0  0  0  0  0  0  0  0  0  0  0
   58.2280   23.7440   45.5790 C   0  0  0  0  0  0  0  0  0  0  0  0
   58.1560   22.7120   44.6390 C   0  0  0  0  0  0  0  0  0  0  0  0
   56.9380   22.0810   44.3850 C   0  0  0  0  0  0  0  0  0  0  0  0
   55.7890   22.4780   45.0720 C   0  0  0  0  0  0  0  0  0  0  0  0
   55.8520   23.5090   46.0150 C   0  0  0  0  0  0  0  0  0  0  0  0
   54.6940   23.8800   46.6880 O   0  0  0  0  0  0  0  0  0  0  0  0
   58.1820   27.5100   46.6170 C   0  0  0  0  0  0  0  0  0  0  0  0
   59.2330   27.1340   47.2020 O   0  0  0  0  0  0  0  0  0  0  0  0
   58.1310   28.7740   45.9750 C   0  0  0  0  0  0  0  0  0  0  0  0
   61.4137   30.6797   48.1622 H   0  0  0  0  0  0  0  0  0  0  0  0
   62.3093   30.3440   46.6416 H   0  0  0  0  0  0  0  0  0  0  0  0
   60.9463   31.5141   46.6416 H   0  0  0  0  0  0  0  0  0  0  0  0
   60.6190   28.5320   47.1100 H   0  0  0  0  0  0  0  0  0  0  0  0
   59.9370   31.6069   45.2217 H   0  0  0  0  0  0  0  0  0  0  0  0
   55.9375   30.5449   44.0069 H   0  0  0  0  0  0  0  0  0  0  0  0
   54.5480   25.4660   46.3700 H   0  0  0  0  0  0  0  0  0  0  0  0
   58.1375   25.2242   47.7985 H   0  0  0  0  0  0  0  0  0  0  0  0
   56.3378   25.1906   47.9886 H   0  0  0  0  0  0  0  0  0  0  0  0
   59.1914   24.2371   45.7755 H   0  0  0  0  0  0  0  0  0  0  0  0
   59.0610   22.3970   44.0988 H   0  0  0  0  0  0  0  0  0  0  0  0
   56.8827   21.2705   43.6433 H   0  0  0  0  0  0  0  0  0  0  0  0
   54.8302   21.9778   44.8707 H   0  0  0  0  0  0  0  0  0  0  0  0
  1  2  1  0
  2  3  1  0
  3  4  2  0
  4  5  1  0
  5  6  1  0
  5  7  2  0
  7  8  1  0
  8  9  1  0
  9 10  1  0
 10 11  1  0
 10 12  2  0
 12 13  1  0
 13 14  1  0
 14 15  2  0
 15 16  1  0
 16 17  2  0
 17 18  1  0
 18 19  2  0
 19 20  1  0
 12 21  1  0
 21 22  2  0
 21 23  1  0
 23  3  1  0
 23  8  2  0
 19 14  1  0
  1 24  1  0
  1 25  1  0
  1 26  1  0
  2 27  1  0
  4 28  1  0
  7 29  1  0
 11 30  1  0
 13 31  1  0
 13 32  1  0
 15 33  1  0
 16 34  1  0
 17 35  1  0
 18 36  1  0
M  CHG  2   9  -1  20  -1
M  END
>  <UniqueID>  (8) 
8

>  <SMILES>  (8) 
CNc1cc(Cl)cc2[n-]c(O)c(Cc3ccccc3[O-])c(=O)c12

>  <Energy>  (8) 
54.03643868042469

>  <Genealogy>  (8) 
CNc1cc(Cl)cc2[n-]c(O)c(Cc3ccccc3[O-])c(=O)c12 (protonated)
CNc1cc(Cl)cc2[n-]c(O)c(Cc3ccccc3[O-])c(=O)c12 (3D coordinates assigned)
CNc1cc(Cl)cc2[n-]c(O)c(Cc3ccccc3[O-])c(=O)c12 (optimized conformer: 54.03643868042469 kcal/mol)

>  <smiles>  (8) 
CNc1cc(Cl)cc2[nH]c(O)c(Cc3ccccc3O)c(=O)c12

>  <score_type>  (8) 
oracle

>  <origin>  (8) 
adg

>  <m_score__min__energy>  (8) 
-12.81

>  <m_primary>  (8) 
energy

$$$$
8:0
     RDKit          3D

 44 47  0  0  0  0  0  0  0  0999 V2000
   55.1310   29.9570   43.7430 O   0  0  0  0  0  0  0  0  0  0  0  0
   56.2460   29.9030   44.3220 C   0  0  0  0  0  0  0  0  0  0  0  0
   57.5120   30.2630   43.7370 C   0  0  0  0  0  0  0  0  0  0  0  0
   58.4350   30.0490   44.6630 C   0  0  0  0  0  0  0  0  0  0  0  0
   57.8150   29.5300   45.9390 C   0  0  2  0  0  0  0  0  0  0  0  0
   58.3480   28.1990   46.2870 N   0  0  0  0  0  0  0  0  0  0  0  0
   59.4900   28.0980   47.1520 C   0  0  0  0  0  0  0  0  0  0  0  0
   59.9750   26.9640   47.4120 O   0  0  0  0  0  0  0  0  0  0  0  0
   60.0800   29.2980   47.7570 C   0  0  0  0  0  0  0  0  0  0  0  0
   60.7540   29.3060   48.9270 N   0  0  0  0  0  0  0  0  0  0  0  0
   61.1280   30.5840   49.1010 C   0  0  0  0  0  0  0  0  0  0  0  0
   60.6610   31.3090   48.0230 C   0  0  0  0  0  0  0  0  0  0  0  0
   60.8740   32.7650   47.7680 C   0  0  0  0  0  0  0  0  0  0  0  0
   59.7450   33.3090   46.9390 C   0  0  0  0  0  0  0  0  0  0  0  0
   58.4160   32.9750   47.2430 C   0  0  0  0  0  0  0  0  0  0  0  0
   57.3690   33.4520   46.4460 C   0  0  0  0  0  0  0  0  0  0  0  0
   57.6430   34.2550   45.3350 C   0  0  0  0  0  0  0  0  0  0  0  0
   56.6280   34.7140   44.5620 F   0  0  0  0  0  0  0  0  0  0  0  0
   58.9660   34.5790   45.0180 C   0  0  0  0  0  0  0  0  0  0  0  0
   60.0150   34.1050   45.8130 C   0  0  0  0  0  0  0  0  0  0  0  0
   60.0270   30.4930   47.2120 O   0  0  0  0  0  0  0  0  0  0  0  0
   57.8910   27.0050   45.6090 C   0  0  0  0  0  0  0  0  0  0  0  0
   58.1830   26.8140   44.2460 C   0  0  0  0  0  0  0  0  0  0  0  0
   57.7540   25.6600   43.5820 C   0  0  0  0  0  0  0  0  0  0  0  0
   57.0300   24.6840   44.2690 C   0  0  0  0  0  0  0  0  0  0  0  0
   56.4490   23.1080   43.3610 Br  0  0  0  0  0  0  0  0  0  0  0  0
   56.7320   24.8620   45.6230 C   0  0  0  0  0  0  0  0  0  0  0  0
   57.1600   26.0130   46.2910 C   0  0  0  0  0  0  0  0  0  0  0  0
   56.4250   29.4690   45.6200 O   0  0  0  0  0  0  0  0  0  0  0  0
   57.6800   30.6423   42.7182 H   0  0  0  0  0  0  0  0  0  0  0  0
   59.5114   30.2260   44.5213 H   0  0  0  0  0  0  0  0  0  0  0  0
   58.0274   30.1621   46.8139 H   0  0  0  0  0  0  0  0  0  0  0  0
   60.9640   28.4980   49.5540 H   0  0  0  0  0  0  0  0  0  0  0  0
   61.7032   30.9817   49.9501 H   0  0  0  0  0  0  0  0  0  0  0  0
   60.9135   33.3015   48.7275 H   0  0  0  0  0  0  0  0  0  0  0  0
   61.8210   32.9032   47.2258 H   0  0  0  0  0  0  0  0  0  0  0  0
   58.1965   32.3359   48.1110 H   0  0  0  0  0  0  0  0  0  0  0  0
   56.3288   33.1946   46.6943 H   0  0  0  0  0  0  0  0  0  0  0  0
   59.1822   35.2078   44.1418 H   0  0  0  0  0  0  0  0  0  0  0  0
   61.0546   34.3563   45.5558 H   0  0  0  0  0  0  0  0  0  0  0  0
   58.7534   27.5785   43.6980 H   0  0  0  0  0  0  0  0  0  0  0  0
   57.9877   25.5213   42.5161 H   0  0  0  0  0  0  0  0  0  0  0  0
   56.1593   24.0945   46.1642 H   0  0  0  0  0  0  0  0  0  0  0  0
   56.9241   26.1449   47.3573 H   0  0  0  0  0  0  0  0  0  0  0  0
  1  2  2  0
  2  3  1  0
  3  4  2  0
  4  5  1  0
  5  6  1  0
  6  7  1  0
  7  8  2  0
  7  9  1  0
  9 10  2  0
 10 11  1  0
 11 12  2  0
 12 13  1  0
 13 14  1  0
 14 15  2  0
 15 16  1  0
 16 17  2  0
 17 18  1  0
 17 19  1  0
 19 20  2  0
 12 21  1  0
  6 22  1  0
 22 23  2  0
 23 24  1  0
 24 25  2  0
 25 26  1  0
 25 27  1  0
 27 28  2  0
  5 29  1  0
 29  2  1  0
 21  9  1  0
 28 22  1  0
 20 14  1  0
  3 30  1  0
  4 31  1  0
  5 32  1  1
 10 33  1  0
 11 34  1  0
 13 35  1  0
 13 36  1  0
 15 37  1  0
 16 38  1  0
 19 39  1  0
 20 40  1  0
 23 41  1  0
 24 42  1  0
 27 43  1  0
 28 44  1  0
M  CHG  1  10   1
M  END
>  <UniqueID>  (9) 
9

>  <SMILES>  (9) 
O=C1C=C[C@H](N(C(=O)c2[nH+]cc(Cc3ccc(F)cc3)o2)c2ccc(Br)cc2)O1

>  <Energy>  (9) 
104.47676682391653

>  <Genealogy>  (9) 
O=C1C=CC(N(C(=O)c2[nH+]cc(Cc3ccc(F)cc3)o2)c2ccc(Br)cc2)O1 (protonated)
O=C1C=C[C@H](N(C(=O)c2[nH+]cc(Cc3ccc(F)cc3)o2)c2ccc(Br)cc2)O1 (chirality)
O=C1C=C[C@H](N(C(=O)c2[nH+]cc(Cc3ccc(F)cc3)o2)c2ccc(Br)cc2)O1 (3D coordinates assigned)
O=C1C=C[C@H](N(C(=O)c2[nH+]cc(Cc3ccc(F)cc3)o2)c2ccc(Br)cc2)O1 (nonaromatic ring conformer: 104.47676682391653 kcal/mol)

>  <smiles>  (9) 
O=C1C=CC(N(C(=O)c2ncc(Cc3ccc(F)cc3)o2)c2ccc(Br)cc2)O1

>  <score_type>  (9) 
oracle

>  <origin>  (9) 
adg

>  <m_score__min__energy>  (9) 
-8.0700000000000003

>  <m_primary>  (9) 
energy

$$$$
9:0
     RDKit          3D

 53 56  0  0  0  0  0  0  0  0999 V2000
   57.5790   30.9580   42.8760 O   0  0  0  0  0  0  0  0  0  0  0  0
   57.3410   30.7610   44.0990 C   0  0  0  0  0  0  0  0  0  0  0  0
   56.9160   31.8570   44.9190 N   0  0  0  0  0  0  0  0  0  0  0  0
   57.7810   32.8150   45.5440 C   0  0  0  0  0  0  0  0  0  0  0  0
   58.0730   33.9980   44.8560 C   0  0  0  0  0  0  0  0  0  0  0  0
   58.9070   34.9590   45.4270 C   0  0  0  0  0  0  0  0  0  0  0  0
   59.4790   34.7350   46.6790 C   0  0  0  0  0  0  0  0  0  0  0  0
   59.2430   33.5350   47.3660 C   0  0  0  0  0  0  0  0  0  0  0  0
   60.0260   33.2710   48.9350 S   0  0  0  0  0  0  0  0  0  0  0  0
   59.1820   32.3560   49.7770 O   0  0  0  0  0  0  0  0  0  0  0  0
   60.1270   34.5890   49.6530 O   0  0  0  0  0  0  0  0  0  0  0  0
   61.6290   32.5880   48.7690 N   0  0  0  0  0  0  0  0  0  0  0  0
   61.9740   32.3180   47.3570 C   0  0  0  0  0  0  0  0  0  0  0  0
   62.9430   33.3710   46.7900 C   0  0  0  0  0  0  0  0  0  0  0  0
   64.1640   33.4630   47.5110 O   0  0  0  0  0  0  0  0  0  0  0  0
   64.0350   33.1680   48.8970 C   0  0  0  0  0  0  0  0  0  0  0  0
   62.6280   33.4260   49.4590 C   0  0  0  0  0  0  0  0  0  0  0  0
   58.3910   32.5670   46.7930 C   0  0  0  0  0  0  0  0  0  0  0  0
   58.1720   31.3570   47.4430 O   0  0  0  0  0  0  0  0  0  0  0  0
   57.5520   29.4080   44.6830 C   0  0  0  0  0  0  0  0  0  0  0  0
   58.8660   28.9370   44.8750 C   0  0  0  0  0  0  0  0  0  0  0  0
   59.1000   27.6720   45.4170 C   0  0  0  0  0  0  0  0  0  0  0  0
   58.0290   26.8440   45.7750 C   0  0  0  0  0  0  0  0  0  0  0  0
   58.2880   25.4940   46.3930 C   0  0  0  0  0  0  0  0  0  0  0  0
   57.6670   24.4340   45.5830 N   0  0  0  0  0  0  0  0  0  0  0  0
   57.5150   24.6230   44.2370 C   0  0  0  0  0  0  0  0  0  0  0  0
   56.9570   23.6260   43.4410 C   0  0  0  0  0  0  0  0  0  0  0  0
   56.5660   22.4340   44.0430 C   0  0  0  0  0  0  0  0  0  0  0  0
   56.0570   21.5120   43.3540 O   0  0  0  0  0  0  0  0  0  0  0  0
   56.7360   22.2670   45.3780 N   0  0  0  0  0  0  0  0  0  0  0  0
   57.2810   23.2450   46.1480 C   0  0  0  0  0  0  0  0  0  0  0  0
   57.4230   23.0400   47.3840 O   0  0  0  0  0  0  0  0  0  0  0  0
   56.7180   27.3040   45.5960 C   0  0  0  0  0  0  0  0  0  0  0  0
   56.4730   28.5700   45.0520 C   0  0  0  0  0  0  0  0  0  0  0  0
   55.1530   28.9750   44.8900 O   0  0  0  0  0  0  0  0  0  0  0  0
   57.6422   34.1710   43.8588 H   0  0  0  0  0  0  0  0  0  0  0  0
   59.1141   35.8957   44.8887 H   0  0  0  0  0  0  0  0  0  0  0  0
   60.1204   35.5056   47.1315 H   0  0  0  0  0  0  0  0  0  0  0  0
   62.4470   31.3272   47.2900 H   0  0  0  0  0  0  0  0  0  0  0  0
   61.0465   32.3562   46.7668 H   0  0  0  0  0  0  0  0  0  0  0  0
   63.1732   33.1069   45.7473 H   0  0  0  0  0  0  0  0  0  0  0  0
   62.4440   34.3479   46.8720 H   0  0  0  0  0  0  0  0  0  0  0  0
   64.2799   32.1065   49.0497 H   0  0  0  0  0  0  0  0  0  0  0  0
   64.7215   33.8404   49.4324 H   0  0  0  0  0  0  0  0  0  0  0  0
   62.6189   33.1881   50.5329 H   0  0  0  0  0  0  0  0  0  0  0  0
   62.3723   34.4840   49.3002 H   0  0  0  0  0  0  0  0  0  0  0  0
   59.7179   29.5739   44.5944 H   0  0  0  0  0  0  0  0  0  0  0  0
   60.1329   27.3232   45.5639 H   0  0  0  0  0  0  0  0  0  0  0  0
   59.3731   25.3214   46.4462 H   0  0  0  0  0  0  0  0  0  0  0  0
   57.8532   25.4735   47.4032 H   0  0  0  0  0  0  0  0  0  0  0  0
   57.8362   25.5704   43.7795 H   0  0  0  0  0  0  0  0  0  0  0  0
   56.8280   23.7775   42.3591 H   0  0  0  0  0  0  0  0  0  0  0  0
   55.8721   26.6634   45.8861 H   0  0  0  0  0  0  0  0  0  0  0  0
  1  2  2  0
  2  3  1  0
  3  4  1  0
  4  5  2  0
  5  6  1  0
  6  7  2  0
  7  8  1  0
  8  9  1  0
  9 10  2  0
  9 11  2  0
  9 12  1  0
 12 13  1  0
 13 14  1  0
 14 15  1  0
 15 16  1  0
 16 17  1  0
  8 18  2  0
 18 19  1  0
  2 20  1  0
 20 21  2  0
 21 22  1  0
 22 23  2  0
 23 24  1  0
 24 25  1  0
 25 26  1  0
 26 27  2  0
 27 28  1  0
 28 29  2  0
 28 30  1  0
 30 31  1  0
 31 32  2  0
 23 33  1  0
 33 34  2  0
 34 35  1  0
 18  4  1  0
 34 20  1  0
 17 12  1  0
 31 25  1  0
  5 36  1  0
  6 37  1  0
  7 38  1  0
 13 39  1  0
 13 40  1  0
 14 41  1  0
 14 42  1  0
 16 43  1  0
 16 44  1  0
 17 45  1  0
 17 46  1  0
 21 47  1  0
 22 48  1  0
 24 49  1  0
 24 50  1  0
 26 51  1  0
 27 52  1  0
 33 53  1  0
M  CHG  4   3  -1  19  -1  30  -1  35  -1
M  END
>  <UniqueID>  (10) 
10

>  <SMILES>  (10) 
O=C([N-]c1cccc(S(=O)(=O)N2CCOCC2)c1[O-])c1ccc(Cn2ccc(=O)[n-]c2=O)cc1[O-]

>  <Energy>  (10) 
80.68692875055383

>  <Genealogy>  (10) 
O=C([N-]c1cccc(S(=O)(=O)N2CCOCC2)c1[O-])c1ccc(Cn2ccc(=O)[n-]c2=O)cc1[O-] (protonated)
O=C([N-]c1cccc(S(=O)(=O)N2CCOCC2)c1[O-])c1ccc(Cn2ccc(=O)[n-]c2=O)cc1[O-] (3D coordinates assigned)
O=C([N-]c1cccc(S(=O)(=O)N2CCOCC2)c1[O-])c1ccc(Cn2ccc(=O)[n-]c2=O)cc1[O-] (nonaromatic ring conformer: 80.68692875055383 kcal/mol)

>  <smiles>  (10) 
O=C(Nc1cccc(S(=O)(=O)N2CCOCC2)c1O)c1ccc(Cn2ccc(=O)[nH]c2=O)cc1O

>  <score_type>  (10) 
oracle

>  <origin>  (10) 
adg

>  <m_score__min__energy>  (10) 
-18.260000000000002

>  <m_primary>  (10) 
energy

$$$$
10:0
     RDKit          3D

 53 56  0  0  0  0  0  0  0  0999 V2000
   60.2430   33.4860   50.8980 C   0  0  0  0  0  0  0  0  0  0  0  0
   61.2550   33.2100   51.8590 O   0  0  0  0  0  0  0  0  0  0  0  0
   62.6270   33.1400   51.5770 C   0  0  0  0  0  0  0  0  0  0  0  0
   63.4320   34.2980   51.5420 C   0  0  0  0  0  0  0  0  0  0  0  0
   64.7920   34.2070   51.2380 C   0  0  0  0  0  0  0  0  0  0  0  0
   65.3650   32.9680   50.9550 C   0  0  0  0  0  0  0  0  0  0  0  0
   67.2270   32.8500   50.5450 Br  0  0  0  0  0  0  0  0  0  0  0  0
   64.5780   31.8130   50.9810 C   0  0  0  0  0  0  0  0  0  0  0  0
   63.2170   31.8850   51.3130 C   0  0  0  0  0  0  0  0  0  0  0  0
   62.2710   30.3920   51.3460 S   0  0  0  0  0  0  0  0  0  0  0  0
   61.0210   30.6320   52.1440 O   0  0  0  0  0  0  0  0  0  0  0  0
   63.0460   29.2710   51.9810 O   0  0  0  0  0  0  0  0  0  0  0  0
   61.8720   29.9110   49.7260 N   0  0  0  0  0  0  0  0  0  0  0  0
   60.9710   30.6580   48.9030 C   0  0  0  0  0  0  0  0  0  0  0  0
   59.6330   30.2620   48.8620 C   0  0  0  0  0  0  0  0  0  0  0  0
   58.7450   30.8570   47.9710 C   0  0  0  0  0  0  0  0  0  0  0  0
   59.1700   31.8790   47.1140 C   0  0  0  0  0  0  0  0  0  0  0  0
   58.2700   32.3590   46.1090 N   0  0  0  0  0  0  0  0  0  0  0  0
   57.7740   31.3230   44.8080 S   0  0  0  0  0  0  0  0  0  0  0  0
   56.2890   31.4450   44.6220 O   0  0  0  0  0  0  0  0  0  0  0  0
   58.4690   31.7420   43.5440 O   0  0  0  0  0  0  0  0  0  0  0  0
   58.2140   29.6540   45.1740 C   0  0  0  0  0  0  0  0  0  0  0  0
   59.5110   29.1840   44.9280 C   0  0  0  0  0  0  0  0  0  0  0  0
   59.8220   27.8400   45.1480 C   0  0  0  0  0  0  0  0  0  0  0  0
   58.8410   26.9520   45.5940 C   0  0  0  0  0  0  0  0  0  0  0  0
   57.5320   27.4070   45.8420 C   0  0  0  0  0  0  0  0  0  0  0  0
   56.4790   26.4690   46.2930 C   0  0  0  0  0  0  0  0  0  0  0  0
   56.7790   25.4330   46.9460 O   0  0  0  0  0  0  0  0  0  0  0  0
   55.1430   26.7170   45.9970 O   0  0  0  0  0  0  0  0  0  0  0  0
   57.2340   28.7670   45.6440 C   0  0  0  0  0  0  0  0  0  0  0  0
   60.5000   32.3550   47.1970 C   0  0  0  0  0  0  0  0  0  0  0  0
   60.9640   33.3920   46.3610 C   0  0  0  0  0  0  0  0  0  0  0  0
   62.2750   33.8570   46.4690 C   0  0  0  0  0  0  0  0  0  0  0  0
   63.1430   33.3010   47.4060 C   0  0  0  0  0  0  0  0  0  0  0  0
   62.7140   32.2570   48.2280 C   0  0  0  0  0  0  0  0  0  0  0  0
   61.4040   31.7510   48.1160 C   0  0  0  0  0  0  0  0  0  0  0  0
   59.3063   33.7415   51.4150 H   0  0  0  0  0  0  0  0  0  0  0  0
   60.5564   34.3315   50.2680 H   0  0  0  0  0  0  0  0  0  0  0  0
   60.0838   32.5985   50.2680 H   0  0  0  0  0  0  0  0  0  0  0  0
   62.9850   35.2801   51.7558 H   0  0  0  0  0  0  0  0  0  0  0  0
   65.4126   35.1151   51.2218 H   0  0  0  0  0  0  0  0  0  0  0  0
   65.0297   30.8396   50.7391 H   0  0  0  0  0  0  0  0  0  0  0  0
   59.2774   29.4724   49.5402 H   0  0  0  0  0  0  0  0  0  0  0  0
   57.6981   30.5207   47.9398 H   0  0  0  0  0  0  0  0  0  0  0  0
   58.0420   33.3750   46.0460 H   0  0  0  0  0  0  0  0  0  0  0  0
   60.2851   29.8741   44.5613 H   0  0  0  0  0  0  0  0  0  0  0  0
   60.8456   27.4791   44.9689 H   0  0  0  0  0  0  0  0  0  0  0  0
   59.0920   25.8928   45.7522 H   0  0  0  0  0  0  0  0  0  0  0  0
   56.2217   29.1393   45.8600 H   0  0  0  0  0  0  0  0  0  0  0  0
   60.2866   33.8378   45.6177 H   0  0  0  0  0  0  0  0  0  0  0  0
   62.6248   34.6663   45.8113 H   0  0  0  0  0  0  0  0  0  0  0  0
   64.1694   33.6856   47.4986 H   0  0  0  0  0  0  0  0  0  0  0  0
   63.4041   31.8264   48.9686 H   0  0  0  0  0  0  0  0  0  0  0  0
  1  2  1  0
  2  3  1  0
  3  4  2  0
  4  5  1  0
  5  6  2  0
  6  7  1  0
  6  8  1  0
  8  9  2  0
  9 10  1  0
 10 11  2  0
 10 12  2  0
 10 13  1  0
 13 14  1  0
 14 15  2  0
 15 16  1  0
 16 17  2  0
 17 18  1  0
 18 19  1  0
 19 20  2  0
 19 21  2  0
 19 22  1  0
 22 23  2  0
 23 24  1  0
 24 25  2  0
 25 26  1  0
 26 27  1  0
 27 28  2  0
 27 29  1  0
 26 30  2  0
 17 31  1  0
 31 32  2  0
 32 33  1  0
 33 34  2  0
 34 35  1  0
 35 36  2  0
  9  3  1  0
 36 14  1  0
 30 22  1  0
 36 31  1  0
  1 37  1  0
  1 38  1  0
  1 39  1  0
  4 40  1  0
  5 41  1  0
  8 42  1  0
 15 43  1  0
 16 44  1  0
 18 45  1  0
 23 46  1  0
 24 47  1  0
 25 48  1  0
 30 49  1  0
 32 50  1  0
 33 51  1  0
 34 52  1  0
 35 53  1  0
M  CHG  2  13  -1  29  -1
M  END
>  <UniqueID>  (11) 
11

>  <SMILES>  (11) 
COc1ccc(Br)cc1S(=O)(=O)[N-]c1ccc(NS(=O)(=O)c2cccc(C(=O)[O-])c2)c2ccccc12

>  <Energy>  (11) 
76.22366320637465

>  <Genealogy>  (11) 
COc1ccc(Br)cc1S(=O)(=O)[N-]c1ccc(NS(=O)(=O)c2cccc(C(=O)[O-])c2)c2ccccc12 (protonated)
COc1ccc(Br)cc1S(=O)(=O)[N-]c1ccc(NS(=O)(=O)c2cccc(C(=O)[O-])c2)c2ccccc12 (3D coordinates assigned)
COc1ccc(Br)cc1S(=O)(=O)[N-]c1ccc(NS(=O)(=O)c2cccc(C(=O)[O-])c2)c2ccccc12 (optimized conformer: 76.22366320637465 kcal/mol)

>  <smiles>  (11) 
COc1ccc(Br)cc1S(=O)(=O)Nc1ccc(NS(=O)(=O)c2cccc(C(=O)O)c2)c2ccccc12

>  <score_type>  (11) 
oracle

>  <origin>  (11) 
adg

>  <m_score__min__energy>  (11) 
-14.56

>  <m_primary>  (11) 
energy

$$$$
11:0
     RDKit          3D

 35 37  0  0  0  0  0  0  0  0999 V2000
   55.6440   30.6130   54.4400 O   0  0  0  0  0  0  0  0  0  0  0  0
   55.3300   30.2010   53.2910 C   0  0  0  0  0  0  0  0  0  0  0  0
   56.4090   29.8840   52.3010 C   0  0  0  0  0  0  0  0  0  0  0  0
   57.2370   31.1100   52.0270 C   0  0  0  0  0  0  0  0  0  0  0  0
   56.9400   32.3270   52.6650 C   0  0  0  0  0  0  0  0  0  0  0  0
   57.7320   33.4560   52.4320 C   0  0  0  0  0  0  0  0  0  0  0  0
   58.8290   33.3750   51.5710 C   0  0  0  0  0  0  0  0  0  0  0  0
   59.1370   32.1660   50.9420 C   0  0  0  0  0  0  0  0  0  0  0  0
   58.3470   31.0360   51.1700 C   0  0  0  0  0  0  0  0  0  0  0  0
   53.9510   30.1010   52.9040 N   0  0  0  0  0  0  0  0  0  0  0  0
   52.8630   30.3850   53.7980 C   0  0  0  0  0  0  0  0  0  0  0  0
   53.0150   30.1540   55.1760 C   0  0  0  0  0  0  0  0  0  0  0  0
   51.9460   30.3510   56.0510 C   0  0  0  0  0  0  0  0  0  0  0  0
   50.7110   30.7740   55.5600 C   0  0  0  0  0  0  0  0  0  0  0  0
   50.5420   31.0030   54.1930 C   0  0  0  0  0  0  0  0  0  0  0  0
   51.6090   30.8110   53.2960 C   0  0  0  0  0  0  0  0  0  0  0  0
   51.4220   31.1210   51.8600 C   0  0  0  0  0  0  0  0  0  0  0  0
   51.6640   30.2500   50.8610 N   0  0  0  0  0  0  0  0  0  0  0  0
   51.3920   30.9600   49.7470 C   0  0  0  0  0  0  0  0  0  0  0  0
   51.5070   30.4780   48.5900 O   0  0  0  0  0  0  0  0  0  0  0  0
   50.9910   32.2300   49.9680 N   0  0  0  0  0  0  0  0  0  0  0  0
   51.0170   32.3180   51.3080 C   0  0  0  0  0  0  0  0  0  0  0  0
   50.6530   33.4620   52.0070 O   0  0  0  0  0  0  0  0  0  0  0  0
   57.0551   29.0924   52.7083 H   0  0  0  0  0  0  0  0  0  0  0  0
   55.9472   29.5447   51.3621 H   0  0  0  0  0  0  0  0  0  0  0  0
   56.0817   32.3915   53.3499 H   0  0  0  0  0  0  0  0  0  0  0  0
   57.4909   34.4083   52.9270 H   0  0  0  0  0  0  0  0  0  0  0  0
   59.4508   34.2637   51.3881 H   0  0  0  0  0  0  0  0  0  0  0  0
   60.0027   32.1035   50.2662 H   0  0  0  0  0  0  0  0  0  0  0  0
   58.5956   30.0850   50.6763 H   0  0  0  0  0  0  0  0  0  0  0  0
   53.7310   29.8910   51.9040 H   0  0  0  0  0  0  0  0  0  0  0  0
   53.9852   29.8149   55.5682 H   0  0  0  0  0  0  0  0  0  0  0  0
   52.0774   30.1726   57.1285 H   0  0  0  0  0  0  0  0  0  0  0  0
   49.8688   30.9275   56.2507 H   0  0  0  0  0  0  0  0  0  0  0  0
   49.5650   31.3368   53.8135 H   0  0  0  0  0  0  0  0  0  0  0  0
  1  2  2  0
  2  3  1  0
  3  4  1  0
  4  5  2  0
  5  6  1  0
  6  7  2  0
  7  8  1  0
  8  9  2  0
  2 10  1  0
 10 11  1  0
 11 12  2  0
 12 13  1  0
 13 14  2  0
 14 15  1  0
 15 16  2  0
 16 17  1  0
 17 18  1  0
 18 19  1  0
 19 20  2  0
 19 21  1  0
 21 22  1  0
 22 23  1  0
  9  4  1  0
 16 11  1  0
 22 17  2  0
  3 24  1  0
  3 25  1  0
  5 26  1  0
  6 27  1  0
  7 28  1  0
  8 29  1  0
  9 30  1  0
 10 31  1  0
 12 32  1  0
 13 33  1  0
 14 34  1  0
 15 35  1  0
M  CHG  3  18  -1  21  -1  23  -1
M  END
>  <UniqueID>  (12) 
12

>  <SMILES>  (12) 
O=C(Cc1ccccc1)Nc1ccccc1-c1[n-]c(=O)[n-]c1[O-]

>  <Energy>  (12) 
72.35535437293802

>  <Genealogy>  (12) 
O=C(Cc1ccccc1)Nc1ccccc1-c1[n-]c(=O)[n-]c1[O-] (protonated)
O=C(Cc1ccccc1)Nc1ccccc1-c1[n-]c(=O)[n-]c1[O-] (3D coordinates assigned)
O=C(Cc1ccccc1)Nc1ccccc1-c1[n-]c(=O)[n-]c1[O-] (optimized conformer: 72.35535437293802 kcal/mol)

>  <smiles>  (12) 
O=C(Cc1ccccc1)Nc1ccccc1-c1[nH]c(=O)[nH]c1O

>  <score_type>  (12) 
oracle

>  <origin>  (12) 
adg

>  <m_score__min__energy>  (12) 
-15.58

>  <m_primary>  (12) 
energy

$$$$
12:0
     RDKit          3D

 62 65  0  0  0  0  0  0  0  0999 V2000
   55.9831   29.7380   42.8865 H   0  0  0  0  0  0  0  0  0  0  0  0
   56.5930   30.0560   43.7450 C   0  0  0  0  0  0  0  0  0  0  0  0
   57.0990   31.4510   43.7350 C   0  0  0  0  0  0  0  0  0  0  0  0
   57.5530   31.9490   42.6700 O   0  0  0  0  0  0  0  0  0  0  0  0
   56.9630   32.3080   44.8790 N   0  0  0  0  0  0  0  0  0  0  0  0
   57.8900   33.0350   45.4330 C   0  0  0  0  0  0  0  0  0  0  0  0
   58.2890   34.2170   44.8830 N   0  0  0  0  0  0  0  0  0  0  0  0
   59.2420   34.9950   45.4610 C   0  0  0  0  0  0  0  0  0  0  0  0
   59.5285   35.9491   44.9945 H   0  0  0  0  0  0  0  0  0  0  0  0
   59.8570   34.5870   46.6430 C   0  0  0  0  0  0  0  0  0  0  0  0
   60.6128   35.2246   47.1249 H   0  0  0  0  0  0  0  0  0  0  0  0
   59.5030   33.3570   47.2110 C   0  0  0  0  0  0  0  0  0  0  0  0
   60.1470   32.8880   48.4550 C   0  0  0  0  0  0  0  0  0  0  0  0
   59.6040   33.2100   49.5460 O   0  0  0  0  0  0  0  0  0  0  0  0
   61.3210   32.0240   48.4830 N   0  0  0  0  0  0  0  0  0  0  0  0
   60.9590   31.0770   48.7600 H   0  0  0  0  0  0  0  0  0  0  0  0
   62.3460   32.3650   49.4990 C   0  0  0  0  0  0  0  0  0  0  0  0
   61.8332   32.6759   50.4212 H   0  0  0  0  0  0  0  0  0  0  0  0
   62.9649   31.4683   49.6499 H   0  0  0  0  0  0  0  0  0  0  0  0
   63.2900   33.5010   49.0580 C   0  0  0  0  0  0  0  0  0  0  0  0
   62.7188   34.4393   49.0001 H   0  0  0  0  0  0  0  0  0  0  0  0
   64.1015   33.5840   49.7960 H   0  0  0  0  0  0  0  0  0  0  0  0
   63.8840   33.2220   47.7470 N   0  0  0  0  0  0  0  0  0  0  0  0
   64.4610   32.3500   47.8120 H   0  0  0  0  0  0  0  0  0  0  0  0
   62.8330   33.0220   46.7450 C   0  0  0  0  0  0  0  0  0  0  0  0
   62.2337   33.9409   46.6643 H   0  0  0  0  0  0  0  0  0  0  0  0
   63.3084   32.7854   45.7817 H   0  0  0  0  0  0  0  0  0  0  0  0
   61.9120   31.8540   47.1360 C   0  0  0  0  0  0  0  0  0  0  0  0
   61.0977   31.7852   46.3997 H   0  0  0  0  0  0  0  0  0  0  0  0
   62.5217   30.9385   47.1517 H   0  0  0  0  0  0  0  0  0  0  0  0
   58.4680   32.6050   46.6330 C   0  0  0  0  0  0  0  0  0  0  0  0
   58.1138   31.6843   47.1198 H   0  0  0  0  0  0  0  0  0  0  0  0
   56.8130   29.1490   44.7070 C   0  0  0  0  0  0  0  0  0  0  0  0
   55.9776   28.4852   44.9744 H   0  0  0  0  0  0  0  0  0  0  0  0
   58.0850   28.9660   45.4390 C   0  0  0  0  0  0  0  0  0  0  0  0
   59.2060   28.3780   44.8280 C   0  0  0  0  0  0  0  0  0  0  0  0
   59.1448   28.0288   43.7867 H   0  0  0  0  0  0  0  0  0  0  0  0
   60.3980   28.2370   45.5430 C   0  0  0  0  0  0  0  0  0  0  0  0
   61.2712   27.7678   45.0663 H   0  0  0  0  0  0  0  0  0  0  0  0
   60.4840   28.6900   46.8610 C   0  0  0  0  0  0  0  0  0  0  0  0
   61.4202   28.5580   47.4232 H   0  0  0  0  0  0  0  0  0  0  0  0
   59.3880   29.3110   47.4730 C   0  0  0  0  0  0  0  0  0  0  0  0
   59.5280   29.7590   48.8290 N   0  0  0  0  0  0  0  0  0  0  0  0
   60.5030   29.0460   50.0780 S   0  0  0  0  0  0  0  0  0  0  0  0
   61.8840   29.6400   50.0770 O   0  0  0  0  0  0  0  0  0  0  0  0
   60.6270   27.5760   49.7910 O   0  0  0  0  0  0  0  0  0  0  0  0
   59.7350   29.2370   51.6810 C   0  0  0  0  0  0  0  0  0  0  0  0
   58.9774   28.4501   51.8107 H   0  0  0  0  0  0  0  0  0  0  0  0
   60.5170   29.1576   52.4506 H   0  0  0  0  0  0  0  0  0  0  0  0
   59.0730   30.5800   51.8170 C   0  0  0  0  0  0  0  0  0  0  0  0
   59.7770   31.6680   52.3640 C   0  0  0  0  0  0  0  0  0  0  0  0
   60.8269   31.5451   52.6682 H   0  0  0  0  0  0  0  0  0  0  0  0
   59.1450   32.9060   52.5220 C   0  0  0  0  0  0  0  0  0  0  0  0
   59.7024   33.7572   52.9400 H   0  0  0  0  0  0  0  0  0  0  0  0
   57.8070   33.0640   52.1500 C   0  0  0  0  0  0  0  0  0  0  0  0
   57.3103   34.0365   52.2826 H   0  0  0  0  0  0  0  0  0  0  0  0
   57.1010   31.9870   51.6100 C   0  0  0  0  0  0  0  0  0  0  0  0
   56.0487   32.1128   51.3154 H   0  0  0  0  0  0  0  0  0  0  0  0
   57.7290   30.7490   51.4430 C   0  0  0  0  0  0  0  0  0  0  0  0
   57.1686   29.9037   51.0170 H   0  0  0  0  0  0  0  0  0  0  0  0
   58.1950   29.4660   46.7450 C   0  0  0  0  0  0  0  0  0  0  0  0
   57.3401   29.9842   47.2039 H   0  0  0  0  0  0  0  0  0  0  0  0
  1  2  1  0
  2  3  1  0
  3  4  2  0
  3  5  1  0
  5  6  2  0
  6  7  1  0
  7  8  1  0
  8  9  1  0
  8 10  2  0
 10 11  1  0
 10 12  1  0
 12 13  1  0
 13 14  2  0
 13 15  1  0
 15 16  1  0
 15 17  1  0
 17 18  1  0
 17 19  1  0
 17 20  1  0
 20 21  1  0
 20 22  1  0
 20 23  1  0
 23 24  1  0
 23 25  1  0
 25 26  1  0
 25 27  1  0
 25 28  1  0
 28 29  1  0
 28 30  1  0
 12 31  2  0
 31 32  1  0
  2 33  2  0
 33 34  1  0
 33 35  1  0
 35 36  2  0
 36 37  1  0
 36 38  1  0
 38 39  1  0
 38 40  2  0
 40 41  1  0
 40 42  1  0
 42 43  1  0
 43 44  1  0
 44 45  2  0
 44 46  2  0
 44 47  1  0
 47 48  1  0
 47 49  1  0
 47 50  1  0
 50 51  2  0
 51 52  1  0
 51 53  1  0
 53 54  1  0
 53 55  2  0
 55 56  1  0
 55 57  1  0
 57 58  1  0
 57 59  2  0
 59 60  1  0
 42 61  2  0
 61 62  1  0
 31  6  1  0
 61 35  1  0
 28 15  1  0
 59 50  1  0
M  CHG  3   7  -1  15   1  43  -1
M  END
>  <UniqueID>  (13) 
13

>  <SMILES>  (13) 
O=C(/C=C\c1cccc([N-]S(=O)(=O)Cc2ccccc2)c1)/N=c1/cc(C(=O)[NH+]2CCNCC2)cc[n-]1

>  <Energy>  (13) 
89.01801872971934

>  <Genealogy>  (13) 
O=C(C=Cc1cccc([N-]S(=O)(=O)Cc2ccccc2)c1)N=c1cc(C(=O)[NH+]2CCNCC2)cc[n-]1 (protonated)
O=C(/C=C\c1cccc([N-]S(=O)(=O)Cc2ccccc2)c1)/N=c1/cc(C(=O)[NH+]2CCNCC2)cc[n-]1 (cis-trans isomerization)
O=C(/C=C\c1cccc([N-]S(=O)(=O)Cc2ccccc2)c1)/N=c1/cc(C(=O)[NH+]2CCNCC2)cc[n-]1 (3D coordinates assigned)
O=C(/C=C\c1cccc([N-]S(=O)(=O)Cc2ccccc2)c1)/N=c1/cc(C(=O)[NH+]2CCNCC2)cc[n-]1 (nonaromatic ring conformer: 89.01801872971934 kcal/mol)

>  <smiles>  (13) 
O=C(C=Cc1cccc(NS(=O)(=O)Cc2ccccc2)c1)N=c1cc(C(=O)N2CCNCC2)cc[nH]1

>  <score_type>  (13) 
oracle

>  <origin>  (13) 
adg

>  <m_score__min__energy>  (13) 
-11.49

>  <m_primary>  (13) 
energy

$$$$
13:0
     RDKit          3D

 47 48  0  0  0  0  0  0  0  0999 V2000
   58.7700   24.7350   45.5980 C   0  0  0  0  0  0  0  0  0  0  0  0
   57.4140   25.2150   45.0520 C   0  0  0  0  0  0  0  0  0  0  0  0
   57.3690   25.0640   43.5250 C   0  0  0  0  0  0  0  0  0  0  0  0
   57.0580   26.6610   45.4980 C   0  0  1  0  0  0  0  0  0  0  0  0
   55.6760   26.7280   45.9790 N   0  0  0  0  0  0  0  0  0  0  0  0
   57.9930   27.1760   46.5610 C   0  0  0  0  0  0  0  0  0  0  0  0
   57.6840   27.0450   47.7770 O   0  0  0  0  0  0  0  0  0  0  0  0
   59.1760   27.8300   46.1930 O   0  0  0  0  0  0  0  0  0  0  0  0
   59.2900   28.6280   45.0180 C   0  0  0  0  0  0  0  0  0  0  0  0
   58.6010   29.9080   45.2020 N   0  0  0  0  0  0  0  0  0  0  0  0
   57.3740   30.2540   44.7410 C   0  0  0  0  0  0  0  0  0  0  0  0
   56.4770   29.3560   43.9420 C   0  0  0  0  0  0  0  0  0  0  0  0
   55.1340   29.3640   44.5060 N   0  0  0  0  0  0  0  0  0  0  0  0
   57.0510   31.5370   45.0210 N   0  0  0  0  0  0  0  0  0  0  0  0
   58.1150   32.0010   45.7010 C   0  0  0  0  0  0  0  0  0  0  0  0
   58.2170   33.3460   46.1990 C   0  0  0  0  0  0  0  0  0  0  0  0
   58.2980   34.4280   46.6010 N   0  0  0  0  0  0  0  0  0  0  0  0
   59.0640   31.0120   45.8230 C   0  0  0  0  0  0  0  0  0  0  0  0
   60.6500   31.1560   46.6590 S   0  0  0  0  0  0  0  0  0  0  0  0
   59.8910   31.5150   48.2450 C   0  0  0  0  0  0  0  0  0  0  0  0
   60.0120   32.7940   48.8040 C   0  0  0  0  0  0  0  0  0  0  0  0
   59.4170   33.0800   50.0370 C   0  0  0  0  0  0  0  0  0  0  0  0
   58.7070   32.0870   50.7180 C   0  0  0  0  0  0  0  0  0  0  0  0
   58.5940   30.8020   50.1690 C   0  0  0  0  0  0  0  0  0  0  0  0
   57.8930   29.8020   50.8400 O   0  0  0  0  0  0  0  0  0  0  0  0
   59.1890   30.5180   48.9340 C   0  0  0  0  0  0  0  0  0  0  0  0
   58.7462   24.7434   46.6977 H   0  0  0  0  0  0  0  0  0  0  0  0
   58.9669   23.7125   45.2433 H   0  0  0  0  0  0  0  0  0  0  0  0
   59.5663   25.4059   45.2433 H   0  0  0  0  0  0  0  0  0  0  0  0
   56.6395   24.5687   45.4908 H   0  0  0  0  0  0  0  0  0  0  0  0
   57.0636   24.0393   43.2667 H   0  0  0  0  0  0  0  0  0  0  0  0
   56.6448   25.7788   43.1070 H   0  0  0  0  0  0  0  0  0  0  0  0
   58.3663   25.2657   43.1070 H   0  0  0  0  0  0  0  0  0  0  0  0
   57.1691   27.3041   44.6125 H   0  0  0  0  0  0  0  0  0  0  0  0
   55.6880   27.0970   46.9580 H   0  0  0  0  0  0  0  0  0  0  0  0
   55.1620   27.4420   45.4130 H   0  0  0  0  0  0  0  0  0  0  0  0
   60.3535   28.8155   44.8088 H   0  0  0  0  0  0  0  0  0  0  0  0
   58.8283   28.0917   44.1758 H   0  0  0  0  0  0  0  0  0  0  0  0
   56.4375   29.7123   42.9020 H   0  0  0  0  0  0  0  0  0  0  0  0
   56.8745   28.3307   43.9702 H   0  0  0  0  0  0  0  0  0  0  0  0
   55.0890   28.6110   45.2320 H   0  0  0  0  0  0  0  0  0  0  0  0
   54.9930   30.2710   45.0080 H   0  0  0  0  0  0  0  0  0  0  0  0
   60.5759   33.5745   48.2722 H   0  0  0  0  0  0  0  0  0  0  0  0
   59.5078   34.0867   50.4710 H   0  0  0  0  0  0  0  0  0  0  0  0
   58.2363   32.3141   51.6859 H   0  0  0  0  0  0  0  0  0  0  0  0
   57.4430   29.0440   50.3380 H   0  0  0  0  0  0  0  0  0  0  0  0
   59.1049   29.5092   48.5036 H   0  0  0  0  0  0  0  0  0  0  0  0
  1  2  1  0
  2  3  1  0
  2  4  1  0
  4  5  1  0
  4  6  1  0
  6  7  2  0
  6  8  1  0
  8  9  1  0
  9 10  1  0
 10 11  1  0
 11 12  1  0
 12 13  1  0
 11 14  2  0
 14 15  1  0
 15 16  1  0
 16 17  3  0
 15 18  2  0
 18 19  1  0
 19 20  1  0
 20 21  2  0
 21 22  1  0
 22 23  2  0
 23 24  1  0
 24 25  1  0
 24 26  2  0
 18 10  1  0
 26 20  1  0
  1 27  1  0
  1 28  1  0
  1 29  1  0
  2 30  1  0
  3 31  1  0
  3 32  1  0
  3 33  1  0
  4 34  1  6
  5 35  1  0
  5 36  1  0
  9 37  1  0
  9 38  1  0
 12 39  1  0
 12 40  1  0
 13 41  1  0
 13 42  1  0
 21 43  1  0
 22 44  1  0
 23 45  1  0
 25 46  1  0
 26 47  1  0
M  END
>  <UniqueID>  (14) 
14

>  <SMILES>  (14) 
CC(C)[C@@H](N)C(=O)OCn1c(CN)nc(C#N)c1Sc1cccc(O)c1

>  <Energy>  (14) 
60.66092641213609

>  <Genealogy>  (14) 
CC(C)[C@@H](N)C(=O)OCn1c(CN)nc(C#N)c1Sc1cccc(O)c1 (chirality)
CC(C)[C@@H](N)C(=O)OCn1c(CN)nc(C#N)c1Sc1cccc(O)c1 (3D coordinates assigned)
CC(C)[C@@H](N)C(=O)OCn1c(CN)nc(C#N)c1Sc1cccc(O)c1 (optimized conformer: 60.66092641213609 kcal/mol)

>  <smiles>  (14) 
CC(C)C(N)C(=O)OCn1c(CN)nc(C#N)c1Sc1cccc(O)c1

>  <score_type>  (14) 
oracle

>  <origin>  (14) 
adg

>  <m_score__min__energy>  (14) 
-7.2999999999999998

>  <m_primary>  (14) 
energy

$$$$
14:0
     RDKit          3D

 53 56  0  0  0  0  0  0  0  0999 V2000
   59.4030   29.8530   46.8070 C   0  0  0  0  0  0  0  0  0  0  0  0
   58.9410   30.8550   46.0430 C   0  0  0  0  0  0  0  0  0  0  0  0
   58.2520   30.7270   44.8330 C   0  0  0  0  0  0  0  0  0  0  0  0
   57.9110   29.5870   44.2010 C   0  0  0  0  0  0  0  0  0  0  0  0
   57.4740   28.3620   44.9090 C   0  0  0  0  0  0  0  0  0  0  0  0
   56.1270   28.1480   45.2490 C   0  0  0  0  0  0  0  0  0  0  0  0
   55.1530   29.0880   44.9320 O   0  0  0  0  0  0  0  0  0  0  0  0
   55.7620   27.0020   45.8790 N   0  0  0  0  0  0  0  0  0  0  0  0
   56.6740   26.0410   46.1730 C   0  0  0  0  0  0  0  0  0  0  0  0
   56.2040   24.6740   46.9300 S   0  0  0  0  0  0  0  0  0  0  0  0
   57.9750   26.2110   45.8270 N   0  0  0  0  0  0  0  0  0  0  0  0
   58.3930   27.3410   45.1990 C   0  0  0  0  0  0  0  0  0  0  0  0
   59.6090   27.4630   44.8900 O   0  0  0  0  0  0  0  0  0  0  0  0
   57.9400   32.0160   44.4220 C   0  0  0  0  0  0  0  0  0  0  0  0
   58.4570   32.8710   45.3740 C   0  0  0  0  0  0  0  0  0  0  0  0
   58.3360   34.3640   45.3330 C   0  0  0  0  0  0  0  0  0  0  0  0
   59.0600   32.1690   46.3610 N   0  0  0  0  0  0  0  0  0  0  0  0
   59.7170   32.7320   47.5110 C   0  0  0  0  0  0  0  0  0  0  0  0
   58.9610   33.2070   48.5920 C   0  0  0  0  0  0  0  0  0  0  0  0
   59.5990   33.7500   49.7070 C   0  0  0  0  0  0  0  0  0  0  0  0
   60.9930   33.8290   49.7500 C   0  0  0  0  0  0  0  0  0  0  0  0
   61.7700   33.3700   48.6700 C   0  0  0  0  0  0  0  0  0  0  0  0
   63.2550   33.4570   48.7430 C   0  0  0  0  0  0  0  0  0  0  0  0
   63.8690   34.0860   47.8340 O   0  0  0  0  0  0  0  0  0  0  0  0
   64.0040   32.8790   49.8430 N   0  0  0  0  0  0  0  0  0  0  0  0
   65.4610   32.9910   49.5750 C   0  0  0  0  0  0  0  0  0  0  0  0
   66.3160   32.0340   50.4370 C   0  0  0  0  0  0  0  0  0  0  0  0
   65.5750   31.5890   51.6980 C   0  0  0  0  0  0  0  0  0  0  0  0
   64.2430   30.9030   51.3480 C   0  0  0  0  0  0  0  0  0  0  0  0
   63.6030   31.4730   50.0640 C   0  0  0  0  0  0  0  0  0  0  0  0
   61.1160   32.8160   47.5530 C   0  0  0  0  0  0  0  0  0  0  0  0
   59.9337   30.0758   47.7444 H   0  0  0  0  0  0  0  0  0  0  0  0
   59.2510   28.8090   46.4958 H   0  0  0  0  0  0  0  0  0  0  0  0
   57.9597   29.5651   43.1023 H   0  0  0  0  0  0  0  0  0  0  0  0
   57.3880   32.3005   43.5140 H   0  0  0  0  0  0  0  0  0  0  0  0
   58.3041   34.7576   46.3597 H   0  0  0  0  0  0  0  0  0  0  0  0
   59.2027   34.7877   44.8046 H   0  0  0  0  0  0  0  0  0  0  0  0
   57.4123   34.6426   44.8046 H   0  0  0  0  0  0  0  0  0  0  0  0
   57.8629   33.1513   48.5606 H   0  0  0  0  0  0  0  0  0  0  0  0
   59.0026   34.1172   50.5552 H   0  0  0  0  0  0  0  0  0  0  0  0
   61.4878   34.2537   50.6359 H   0  0  0  0  0  0  0  0  0  0  0  0
   63.7730   33.4010   50.7200 H   0  0  0  0  0  0  0  0  0  0  0  0
   65.6398   32.7598   48.5145 H   0  0  0  0  0  0  0  0  0  0  0  0
   65.7618   34.0175   49.8315 H   0  0  0  0  0  0  0  0  0  0  0  0
   66.5671   31.1452   49.8395 H   0  0  0  0  0  0  0  0  0  0  0  0
   67.2239   32.5724   50.7465 H   0  0  0  0  0  0  0  0  0  0  0  0
   66.2073   30.8819   52.2549 H   0  0  0  0  0  0  0  0  0  0  0  0
   65.3588   32.4790   52.3072 H   0  0  0  0  0  0  0  0  0  0  0  0
   64.4273   29.8283   51.2030 H   0  0  0  0  0  0  0  0  0  0  0  0
   63.5451   31.0857   52.1784 H   0  0  0  0  0  0  0  0  0  0  0  0
   63.9263   30.8686   49.2036 H   0  0  0  0  0  0  0  0  0  0  0  0
   62.5093   31.4371   50.1755 H   0  0  0  0  0  0  0  0  0  0  0  0
   61.7090   32.4450   46.7040 H   0  0  0  0  0  0  0  0  0  0  0  0
  1  2  2  0
  2  3  1  0
  3  4  2  3
  4  5  1  0
  5  6  2  0
  6  7  1  0
  6  8  1  0
  8  9  1  0
  9 10  2  0
  9 11  1  0
 11 12  1  0
 12 13  2  0
  3 14  1  0
 14 15  2  0
 15 16  1  0
 15 17  1  0
 17 18  1  0
 18 19  2  0
 19 20  1  0
 20 21  2  0
 21 22  1  0
 22 23  1  0
 23 24  2  0
 23 25  1  0
 25 26  1  0
 26 27  1  0
 27 28  1  0
 28 29  1  0
 29 30  1  0
 22 31  2  0
 17  2  1  0
 31 18  1  0
 12  5  1  0
 30 25  1  0
  1 32  1  0
  1 33  1  0
  4 34  1  0
 14 35  1  0
 16 36  1  0
 16 37  1  0
 16 38  1  0
 19 39  1  0
 20 40  1  0
 21 41  1  0
 25 42  1  0
 26 43  1  0
 26 44  1  0
 27 45  1  0
 27 46  1  0
 28 47  1  0
 28 48  1  0
 29 49  1  0
 29 50  1  0
 30 51  1  0
 30 52  1  0
 31 53  1  0
M  CHG  4   7  -1   8  -1  11  -1  25   1
M  END
>  <UniqueID>  (15) 
15

>  <SMILES>  (15) 
C=c1c(=Cc2c([O-])[n-]c(=S)[n-]c2=O)cc(C)n1-c1cccc(C(=O)[NH+]2CCCCC2)c1

>  <Energy>  (15) 
110.19318460904292

>  <Genealogy>  (15) 
C=c1c(=Cc2c([O-])[n-]c(=S)[n-]c2=O)cc(C)n1-c1cccc(C(=O)[NH+]2CCCCC2)c1 (protonated)
C=c1c(=Cc2c([O-])[n-]c(=S)[n-]c2=O)cc(C)n1-c1cccc(C(=O)[NH+]2CCCCC2)c1 (3D coordinates assigned)
C=c1c(=Cc2c([O-])[n-]c(=S)[n-]c2=O)cc(C)n1-c1cccc(C(=O)[NH+]2CCCCC2)c1 (nonaromatic ring conformer: 110.19318460904292 kcal/mol)

>  <smiles>  (15) 
C=c1c(=Cc2c(O)[nH]c(=S)[nH]c2=O)cc(C)n1-c1cccc(C(=O)N2CCCCC2)c1

>  <score_type>  (15) 
oracle

>  <origin>  (15) 
adg

>  <m_score__min__energy>  (15) 
-16.120000000000001

>  <m_primary>  (15) 
energy

$$$$
15:0
     RDKit          3D

 44 46  0  0  0  0  0  0  0  0999 V2000
   58.3660   25.5870   48.0050 O   0  0  0  0  0  0  0  0  0  0  0  0
   57.3010   25.3240   47.3850 C   0  0  0  0  0  0  0  0  0  0  0  0
   56.3400   24.3290   47.9520 C   0  0  0  0  0  0  0  0  0  0  0  0
   56.3760   23.0700   47.1400 C   0  0  0  0  0  0  0  0  0  0  0  0
   55.9310   23.0610   45.8110 C   0  0  0  0  0  0  0  0  0  0  0  0
   56.0100   21.8820   45.0660 C   0  0  0  0  0  0  0  0  0  0  0  0
   55.5650   21.8690   43.7490 O   0  0  0  0  0  0  0  0  0  0  0  0
   56.5410   20.7240   45.6510 C   0  0  0  0  0  0  0  0  0  0  0  0
   56.6370   19.5270   44.9420 O   0  0  0  0  0  0  0  0  0  0  0  0
   56.9840   20.7750   46.9760 C   0  0  0  0  0  0  0  0  0  0  0  0
   56.8980   21.9350   47.6820 N   0  0  0  0  0  0  0  0  0  0  0  0
   56.9940   25.9720   46.1450 N   0  0  0  0  0  0  0  0  0  0  0  0
   57.6720   27.1060   45.5830 C   0  0  0  0  0  0  0  0  0  0  0  0
   59.0680   27.1210   45.4170 C   0  0  0  0  0  0  0  0  0  0  0  0
   59.6960   28.2290   44.8450 C   0  0  0  0  0  0  0  0  0  0  0  0
   58.9400   29.3230   44.4210 C   0  0  0  0  0  0  0  0  0  0  0  0
   57.5450   29.3160   44.5570 C   0  0  0  0  0  0  0  0  0  0  0  0
   56.6130   30.7170   44.0030 S   0  0  0  0  0  0  0  0  0  0  0  0
   56.8910   30.9440   42.5430 O   0  0  0  0  0  0  0  0  0  0  0  0
   55.1430   30.4360   44.1520 O   0  0  0  0  0  0  0  0  0  0  0  0
   57.0170   32.1640   44.8940 N   0  0  0  0  0  0  0  0  0  0  0  0
   57.7680   31.8310   46.1130 C   0  0  0  0  0  0  0  0  0  0  0  0
   58.0950   33.1200   46.8970 C   0  0  0  0  0  0  0  0  0  0  0  0
   57.7530   34.2900   46.1750 O   0  0  0  0  0  0  0  0  0  0  0  0
   58.3510   34.2560   44.8930 C   0  0  0  0  0  0  0  0  0  0  0  0
   57.7960   33.0880   44.0530 C   0  0  0  0  0  0  0  0  0  0  0  0
   56.9120   28.1970   45.1340 C   0  0  0  0  0  0  0  0  0  0  0  0
   55.5270   28.1650   45.2730 O   0  0  0  0  0  0  0  0  0  0  0  0
   56.6202   24.1017   48.9911 H   0  0  0  0  0  0  0  0  0  0  0  0
   55.3238   24.7494   47.9260 H   0  0  0  0  0  0  0  0  0  0  0  0
   55.5223   23.9761   45.3577 H   0  0  0  0  0  0  0  0  0  0  0  0
   57.0030   19.4920   43.9980 H   0  0  0  0  0  0  0  0  0  0  0  0
   57.4033   19.8748   47.4491 H   0  0  0  0  0  0  0  0  0  0  0  0
   59.6675   26.2568   45.7389 H   0  0  0  0  0  0  0  0  0  0  0  0
   60.7897   28.2398   44.7282 H   0  0  0  0  0  0  0  0  0  0  0  0
   59.4419   30.1957   43.9776 H   0  0  0  0  0  0  0  0  0  0  0  0
   57.1621   31.1641   46.7440 H   0  0  0  0  0  0  0  0  0  0  0  0
   58.7061   31.3285   45.8346 H   0  0  0  0  0  0  0  0  0  0  0  0
   57.5331   33.1110   47.8426 H   0  0  0  0  0  0  0  0  0  0  0  0
   59.1804   33.1395   47.0747 H   0  0  0  0  0  0  0  0  0  0  0  0
   58.1422   35.2030   44.3738 H   0  0  0  0  0  0  0  0  0  0  0  0
   59.4348   34.1139   45.0164 H   0  0  0  0  0  0  0  0  0  0  0  0
   57.1466   33.4897   43.2612 H   0  0  0  0  0  0  0  0  0  0  0  0
   58.6404   32.5376   43.6126 H   0  0  0  0  0  0  0  0  0  0  0  0
  1  2  2  0
  2  3  1  0
  3  4  1  0
  4  5  2  0
  5  6  1  0
  6  7  1  0
  6  8  2  0
  8  9  1  0
  8 10  1  0
 10 11  2  0
  2 12  1  0
 12 13  1  0
 13 14  2  0
 14 15  1  0
 15 16  2  0
 16 17  1  0
 17 18  1  0
 18 19  2  0
 18 20  2  0
 18 21  1  0
 21 22  1  0
 22 23  1  0
 23 24  1  0
 24 25  1  0
 25 26  1  0
 17 27  2  0
 27 28  1  0
 11  4  1  0
 27 13  1  0
 26 21  1  0
  3 29  1  0
  3 30  1  0
  5 31  1  0
  9 32  1  0
 10 33  1  0
 14 34  1  0
 15 35  1  0
 16 36  1  0
 22 37  1  0
 22 38  1  0
 23 39  1  0
 23 40  1  0
 25 41  1  0
 25 42  1  0
 26 43  1  0
 26 44  1  0
M  CHG  3   7  -1  12  -1  28  -1
M  END
>  <UniqueID>  (16) 
16

>  <SMILES>  (16) 
O=C(Cc1cc([O-])c(O)cn1)[N-]c1cccc(S(=O)(=O)N2CCOCC2)c1[O-]

>  <Energy>  (16) 
56.062170296143655

>  <Genealogy>  (16) 
O=C(Cc1cc([O-])c(O)cn1)[N-]c1cccc(S(=O)(=O)N2CCOCC2)c1[O-] (protonated)
O=C(Cc1cc([O-])c(O)cn1)[N-]c1cccc(S(=O)(=O)N2CCOCC2)c1[O-] (3D coordinates assigned)
O=C(Cc1cc([O-])c(O)cn1)[N-]c1cccc(S(=O)(=O)N2CCOCC2)c1[O-] (nonaromatic ring conformer: 56.062170296143655 kcal/mol)

>  <smiles>  (16) 
O=C(Cc1cc(O)c(O)cn1)Nc1cccc(S(=O)(=O)N2CCOCC2)c1O

>  <score_type>  (16) 
oracle

>  <origin>  (16) 
adg

>  <m_score__min__energy>  (16) 
-16.120000000000001

>  <m_primary>  (16) 
energy

$$$$
16:0
     RDKit          3D

 42 44  0  0  0  0  0  0  0  0999 V2000
   55.3410   29.4380   45.1650 O   0  0  0  0  0  0  0  0  0  0  0  0
   56.3490   28.7260   44.9050 C   0  0  0  0  0  0  0  0  0  0  0  0
   57.2980   29.1570   43.9220 N   0  0  0  0  0  0  0  0  0  0  0  0
   57.4540   30.5450   43.5030 C   0  0  0  0  0  0  0  0  0  0  0  0
   58.0000   31.3730   44.6340 C   0  0  0  0  0  0  0  0  0  0  0  0
   58.8530   30.8020   45.5920 C   0  0  0  0  0  0  0  0  0  0  0  0
   59.3730   31.5840   46.6270 C   0  0  0  0  0  0  0  0  0  0  0  0
   59.0460   32.9450   46.7190 C   0  0  0  0  0  0  0  0  0  0  0  0
   59.6900   33.9270   48.0380 S   0  0  0  0  0  0  0  0  0  0  0  0
   59.2050   35.3410   47.8850 O   0  0  0  0  0  0  0  0  0  0  0  0
   59.1730   33.3970   49.3470 O   0  0  0  0  0  0  0  0  0  0  0  0
   61.4390   33.9110   48.0610 N   0  0  0  0  0  0  0  0  0  0  0  0
   61.9720   33.8470   46.6870 C   0  0  0  0  0  0  0  0  0  0  0  0
   63.4190   33.3280   46.6910 C   0  0  0  0  0  0  0  0  0  0  0  0
   63.5660   32.0230   47.2400 O   0  0  0  0  0  0  0  0  0  0  0  0
   62.5230   31.6550   48.1320 C   0  0  0  0  0  0  0  0  0  0  0  0
   61.9650   32.8420   48.9390 C   0  0  0  0  0  0  0  0  0  0  0  0
   58.2070   33.5190   45.7550 C   0  0  0  0  0  0  0  0  0  0  0  0
   57.6860   32.7380   44.7190 C   0  0  0  0  0  0  0  0  0  0  0  0
   56.5400   27.4480   45.6170 C   0  0  0  0  0  0  0  0  0  0  0  0
   57.8190   26.9650   45.9270 C   0  0  0  0  0  0  0  0  0  0  0  0
   57.9450   25.7530   46.6030 C   0  0  0  0  0  0  0  0  0  0  0  0
   56.7940   25.0490   46.9540 C   0  0  0  0  0  0  0  0  0  0  0  0
   56.8790   23.9510   47.5640 O   0  0  0  0  0  0  0  0  0  0  0  0
   55.5750   25.5550   46.6320 N   0  0  0  0  0  0  0  0  0  0  0  0
   55.4530   26.7160   45.9860 N   0  0  0  0  0  0  0  0  0  0  0  0
   58.1485   30.5911   42.6512 H   0  0  0  0  0  0  0  0  0  0  0  0
   56.4714   30.9431   43.2097 H   0  0  0  0  0  0  0  0  0  0  0  0
   59.1130   29.7351   45.5276 H   0  0  0  0  0  0  0  0  0  0  0  0
   60.0419   31.1301   47.3730 H   0  0  0  0  0  0  0  0  0  0  0  0
   61.3465   33.1689   46.0879 H   0  0  0  0  0  0  0  0  0  0  0  0
   61.9594   34.8583   46.2545 H   0  0  0  0  0  0  0  0  0  0  0  0
   63.7823   33.3091   45.6529 H   0  0  0  0  0  0  0  0  0  0  0  0
   63.9989   34.0090   47.3313 H   0  0  0  0  0  0  0  0  0  0  0  0
   61.7025   31.2140   47.5469 H   0  0  0  0  0  0  0  0  0  0  0  0
   62.9477   30.9413   48.8533 H   0  0  0  0  0  0  0  0  0  0  0  0
   61.1515   32.4809   49.5853 H   0  0  0  0  0  0  0  0  0  0  0  0
   62.7878   33.2651   49.5339 H   0  0  0  0  0  0  0  0  0  0  0  0
   57.9571   34.5886   45.8134 H   0  0  0  0  0  0  0  0  0  0  0  0
   57.0267   33.1958   43.9668 H   0  0  0  0  0  0  0  0  0  0  0  0
   58.7137   27.5367   45.6396 H   0  0  0  0  0  0  0  0  0  0  0  0
   58.9395   25.3570   46.8563 H   0  0  0  0  0  0  0  0  0  0  0  0
  1  2  2  0
  2  3  1  0
  3  4  1  0
  4  5  1  0
  5  6  2  0
  6  7  1  0
  7  8  2  0
  8  9  1  0
  9 10  2  0
  9 11  2  0
  9 12  1  0
 12 13  1  0
 13 14  1  0
 14 15  1  0
 15 16  1  0
 16 17  1  0
  8 18  1  0
 18 19  2  0
  2 20  1  0
 20 21  1  0
 21 22  2  0
 22 23  1  0
 23 24  2  0
 23 25  1  0
 25 26  1  0
 19  5  1  0
 26 20  2  0
 17 12  1  0
  4 27  1  0
  4 28  1  0
  6 29  1  0
  7 30  1  0
 13 31  1  0
 13 32  1  0
 14 33  1  0
 14 34  1  0
 16 35  1  0
 16 36  1  0
 17 37  1  0
 17 38  1  0
 18 39  1  0
 19 40  1  0
 21 41  1  0
 22 42  1  0
M  CHG  2   3  -1  25  -1
M  END
>  <UniqueID>  (17) 
17

>  <SMILES>  (17) 
O=C([N-]Cc1ccc(S(=O)(=O)N2CCOCC2)cc1)c1ccc(=O)[n-]n1

>  <Energy>  (17) 
54.061802050633

>  <Genealogy>  (17) 
O=C([N-]Cc1ccc(S(=O)(=O)N2CCOCC2)cc1)c1ccc(=O)[n-]n1 (protonated)
O=C([N-]Cc1ccc(S(=O)(=O)N2CCOCC2)cc1)c1ccc(=O)[n-]n1 (3D coordinates assigned)
O=C([N-]Cc1ccc(S(=O)(=O)N2CCOCC2)cc1)c1ccc(=O)[n-]n1 (nonaromatic ring conformer: 54.061802050633 kcal/mol)

>  <smiles>  (17) 
O=C(NCc1ccc(S(=O)(=O)N2CCOCC2)cc1)c1ccc(=O)[nH]n1

>  <score_type>  (17) 
oracle

>  <origin>  (17) 
adg

>  <m_score__min__energy>  (17) 
-12.49

>  <m_primary>  (17) 
energy

$$$$
17:0
     RDKit          3D

 74 78  0  0  0  0  0  0  0  0999 V2000
   59.0640   33.3830   51.8160 C   0  0  0  0  0  0  0  0  0  0  0  0
   59.6660   33.8900   50.6410 O   0  0  0  0  0  0  0  0  0  0  0  0
   59.3830   33.3750   49.3950 C   0  0  0  0  0  0  0  0  0  0  0  0
   58.9140   32.1040   49.1540 C   0  0  0  0  0  0  0  0  0  0  0  0
   58.6560   31.6830   47.8420 C   0  0  0  0  0  0  0  0  0  0  0  0
   58.8570   32.5050   46.7560 C   0  0  0  0  0  0  0  0  0  0  0  0
   58.5770   32.1460   45.3630 C   0  0  0  0  0  0  0  0  0  0  0  0
   58.4900   30.7670   45.0320 N   0  0  0  0  0  0  0  0  0  0  0  0
   59.4810   29.8660   45.1460 C   0  0  0  0  0  0  0  0  0  0  0  0
   56.3420   31.1120   44.3880 N   0  0  0  0  0  0  0  0  0  0  0  0
   57.1940   28.9560   44.1420 C   0  0  0  0  0  0  0  0  0  0  0  0
   58.2430   28.0370   44.2680 C   0  0  0  0  0  0  0  0  0  0  0  0
   58.1030   26.6500   43.8420 C   0  0  0  0  0  0  0  0  0  0  0  0
   57.4410   25.7010   44.6680 N   0  0  0  0  0  0  0  0  0  0  0  0
   57.0690   26.1660   45.9930 C   0  0  0  0  0  0  0  0  0  0  0  0
   55.8670   26.0650   46.4010 O   0  0  0  0  0  0  0  0  0  0  0  0
   58.0020   26.7630   46.9170 C   0  0  0  0  0  0  0  0  0  0  0  0
   59.0930   25.9710   47.2820 C   0  0  0  0  0  0  0  0  0  0  0  0
   60.0470   26.4790   48.1310 C   0  0  0  0  0  0  0  0  0  0  0  0
   60.0180   27.7410   48.6660 C   0  0  0  0  0  0  0  0  0  0  0  0
   61.1140   28.2620   49.5130 C   0  0  0  0  0  0  0  0  0  0  0  0
   61.0640   29.6500   49.9430 C   0  0  0  0  0  0  0  0  0  0  0  0
   62.2000   30.4610   50.3360 C   0  0  0  0  0  0  0  0  0  0  0  0
   62.4280   31.7860   49.7900 C   0  0  0  0  0  0  0  0  0  0  0  0
   62.5740   32.8290   50.7320 C   0  0  0  0  0  0  0  0  0  0  0  0
   62.8560   34.1160   50.3620 C   0  0  0  0  0  0  0  0  0  0  0  0
   63.0170   34.4700   49.0180 C   0  0  0  0  0  0  0  0  0  0  0  0
   62.8760   33.4640   48.0940 C   0  0  0  0  0  0  0  0  0  0  0  0
   63.0640   33.8550   46.4120 Cl  0  0  0  0  0  0  0  0  0  0  0  0
   62.5890   32.1640   48.4880 C   0  0  0  0  0  0  0  0  0  0  0  0
   62.4540   31.2340   47.4880 O   0  0  0  0  0  0  0  0  0  0  0  0
   58.9200   28.5290   48.2970 C   0  0  0  0  0  0  0  0  0  0  0  0
   57.9390   28.0280   47.4350 C   0  0  0  0  0  0  0  0  0  0  0  0
   57.1280   24.3290   44.3980 C   0  0  0  0  0  0  0  0  0  0  0  0
   55.7540   23.8600   44.2630 C   0  0  0  0  0  0  0  0  0  0  0  0
   56.6730   23.9090   43.0470 C   0  0  0  0  0  0  0  0  0  0  0  0
   59.3800   28.5750   44.7900 N   0  0  0  0  0  0  0  0  0  0  0  0
   57.3250   30.2770   44.5160 C   0  0  0  0  0  0  0  0  0  0  0  0
   60.5800   30.2810   45.6230 O   0  0  0  0  0  0  0  0  0  0  0  0
   59.3310   33.7810   47.0240 C   0  0  0  0  0  0  0  0  0  0  0  0
   59.5920   34.2200   48.3040 C   0  0  0  0  0  0  0  0  0  0  0  0
   59.5670   33.8066   52.6978 H   0  0  0  0  0  0  0  0  0  0  0  0
   57.9998   33.6610   51.8321 H   0  0  0  0  0  0  0  0  0  0  0  0
   59.1570   32.2871   51.8321 H   0  0  0  0  0  0  0  0  0  0  0  0
   58.7408   31.4155   49.9943 H   0  0  0  0  0  0  0  0  0  0  0  0
   58.2807   30.6626   47.6747 H   0  0  0  0  0  0  0  0  0  0  0  0
   57.6157   32.6079   45.0935 H   0  0  0  0  0  0  0  0  0  0  0  0
   59.4543   32.5064   44.8058 H   0  0  0  0  0  0  0  0  0  0  0  0
   56.0280   31.6050   45.2540 H   0  0  0  0  0  0  0  0  0  0  0  0
   56.2332   28.6128   43.7309 H   0  0  0  0  0  0  0  0  0  0  0  0
   57.5592   26.6682   42.8860 H   0  0  0  0  0  0  0  0  0  0  0  0
   59.1419   26.2887   43.8370 H   0  0  0  0  0  0  0  0  0  0  0  0
   59.1881   24.9468   46.8923 H   0  0  0  0  0  0  0  0  0  0  0  0
   60.8921   25.8282   48.3998 H   0  0  0  0  0  0  0  0  0  0  0  0
   61.1438   27.6424   50.4214 H   0  0  0  0  0  0  0  0  0  0  0  0
   61.9998   28.2154   48.8625 H   0  0  0  0  0  0  0  0  0  0  0  0
   60.5960   30.1937   49.1091 H   0  0  0  0  0  0  0  0  0  0  0  0
   60.5742   29.5265   50.9202 H   0  0  0  0  0  0  0  0  0  0  0  0
   62.1254   30.5866   51.4263 H   0  0  0  0  0  0  0  0  0  0  0  0
   63.0437   29.8922   49.9180 H   0  0  0  0  0  0  0  0  0  0  0  0
   62.4568   32.5982   51.8011 H   0  0  0  0  0  0  0  0  0  0  0  0
   62.9583   34.8889   51.1380 H   0  0  0  0  0  0  0  0  0  0  0  0
   63.2452   35.5030   48.7165 H   0  0  0  0  0  0  0  0  0  0  0  0
   61.7160   31.1760   46.8070 H   0  0  0  0  0  0  0  0  0  0  0  0
   58.8284   29.5526   48.6893 H   0  0  0  0  0  0  0  0  0  0  0  0
   57.0891   28.6719   47.1647 H   0  0  0  0  0  0  0  0  0  0  0  0
   57.9617   24.0431   45.0562 H   0  0  0  0  0  0  0  0  0  0  0  0
   55.4582   22.8909   44.6912 H   0  0  0  0  0  0  0  0  0  0  0  0
   54.7629   24.2695   44.5081 H   0  0  0  0  0  0  0  0  0  0  0  0
   57.0505   22.9785   42.5979 H   0  0  0  0  0  0  0  0  0  0  0  0
   56.6371   24.3674   42.0477 H   0  0  0  0  0  0  0  0  0  0  0  0
   60.2140   27.9890   44.9230 H   0  0  0  0  0  0  0  0  0  0  0  0
   59.5051   34.4683   46.1830 H   0  0  0  0  0  0  0  0  0  0  0  0
   59.9668   35.2413   48.4666 H   0  0  0  0  0  0  0  0  0  0  0  0
  1  2  1  0
  2  3  1  0
  3  4  2  0
  4  5  1  0
  5  6  2  0
  6  7  1  0
  7  8  1  0
  8  9  1  0
  9 10  2  3
  9 11  1  0
 11 12  2  0
 12 13  1  0
 13 14  1  0
 14 15  1  0
 15 16  2  0
 15 17  1  0
 17 18  2  0
 18 19  1  0
 19 20  2  0
 20 21  1  0
 21 22  1  0
 22 23  1  0
 23 24  1  0
 24 25  2  0
 25 26  1  0
 26 27  2  0
 27 28  1  0
 28 29  1  0
 28 30  2  0
 30 31  1  0
 20 32  1  0
 32 33  2  0
 14 34  1  0
 34 35  1  0
 35 36  1  0
 12 37  1  0
 37 38  1  0
 38 39  2  0
  6 40  1  0
 40 41  2  0
 41  3  1  0
 38  8  1  0
 33 17  1  0
 36 34  1  0
 30 24  1  0
  1 42  1  0
  1 43  1  0
  1 44  1  0
  4 45  1  0
  5 46  1  0
  7 47  1  0
  7 48  1  0
 10 49  1  0
 11 50  1  0
 13 51  1  0
 13 52  1  0
 18 53  1  0
 19 54  1  0
 21 55  1  0
 21 56  1  0
 22 57  1  0
 22 58  1  0
 23 59  1  0
 23 60  1  0
 25 61  1  0
 26 62  1  0
 27 63  1  0
 31 64  1  0
 32 65  1  0
 33 66  1  0
 34 67  1  0
 35 68  1  0
 35 69  1  0
 36 70  1  0
 36 71  1  0
 37 72  1  0
 40 73  1  0
 41 74  1  0
M  END
>  <smiles>  (18) 
COc1ccc(Cn2c(=N)cc(CN(C(=O)c3ccc(CCCc4cccc(Cl)c4O)cc3)C3CC3)[nH]c2=O)cc1

>  <score_type>  (18) 
oracle

>  <origin>  (18) 
adg

>  <m_score__min__energy>  (18) 
-9.0999999999999996

>  <m_primary>  (18) 
energy

$$$$
18:0
     RDKit          3D

 77 80  0  0  0  0  0  0  0  0999 V2000
   65.2070   32.9780   49.8920 C   0  0  0  0  0  0  0  0  0  0  0  0
   64.0300   33.2400   49.0000 C   0  0  0  0  0  0  0  0  0  0  0  0
   64.1410   33.0700   47.6150 C   0  0  0  0  0  0  0  0  0  0  0  0
   63.0600   33.3750   46.7830 C   0  0  0  0  0  0  0  0  0  0  0  0
   61.8510   33.8500   47.3190 C   0  0  0  0  0  0  0  0  0  0  0  0
   60.7590   34.2570   46.3630 C   0  0  0  0  0  0  0  0  0  0  0  0
   61.7160   33.9620   48.7320 C   0  0  0  0  0  0  0  0  0  0  0  0
   60.5310   34.3370   49.3880 O   0  0  0  0  0  0  0  0  0  0  0  0
   59.5720   33.4340   49.9370 C   0  0  0  0  0  0  0  0  0  0  0  0
   60.2850   32.1640   50.4110 C   0  0  0  0  0  0  0  0  0  0  0  0
   60.0500   31.0160   49.4460 C   0  0  0  0  0  0  0  0  0  0  0  0
   60.7500   31.0210   48.2290 C   0  0  0  0  0  0  0  0  0  0  0  0
   60.5130   30.0560   47.2510 C   0  0  0  0  0  0  0  0  0  0  0  0
   59.5660   29.0300   47.4570 C   0  0  0  0  0  0  0  0  0  0  0  0
   59.3990   27.8750   46.4480 C   0  0  0  0  0  0  0  0  0  0  0  0
   59.8740   26.5720   47.1240 C   0  0  0  0  0  0  0  0  0  0  0  0
   60.2530   28.0770   45.1660 C   0  0  0  0  0  0  0  0  0  0  0  0
   57.9440   27.7290   46.0210 C   0  0  0  0  0  0  0  0  0  0  0  0
   57.0570   27.4140   46.8530 O   0  0  0  0  0  0  0  0  0  0  0  0
   57.5740   27.9350   44.6530 N   0  0  0  0  0  0  0  0  0  0  0  0
   57.0570   29.4780   44.0710 S   0  0  0  0  0  0  0  0  0  0  0  0
   56.5450   29.3510   42.6620 O   0  0  0  0  0  0  0  0  0  0  0  0
   55.9560   29.9920   44.9550 O   0  0  0  0  0  0  0  0  0  0  0  0
   58.4550   30.5900   44.1370 C   0  0  0  0  0  0  0  0  0  0  0  0
   58.1210   31.8390   44.9000 C   0  0  0  0  0  0  0  0  0  0  0  0
   58.0580   31.8160   46.3060 C   0  0  0  0  0  0  0  0  0  0  0  0
   57.7780   32.9870   47.0200 C   0  0  0  0  0  0  0  0  0  0  0  0
   57.5570   34.1860   46.3370 C   0  0  0  0  0  0  0  0  0  0  0  0
   57.5940   34.2170   44.9370 C   0  0  0  0  0  0  0  0  0  0  0  0
   57.8660   33.0430   44.2180 C   0  0  0  0  0  0  0  0  0  0  0  0
   58.9150   28.9820   48.7080 C   0  0  0  0  0  0  0  0  0  0  0  0
   59.1550   29.9460   49.7050 C   0  0  0  0  0  0  0  0  0  0  0  0
   58.5040   29.7700   51.0170 C   0  0  0  0  0  0  0  0  0  0  0  0
   57.3020   30.1220   51.1700 O   0  0  0  0  0  0  0  0  0  0  0  0
   59.1970   29.0780   52.0640 N   0  0  0  0  0  0  0  0  0  0  0  0
   60.5390   28.5700   51.9920 C   0  0  0  0  0  0  0  0  0  0  0  0
   61.6060   29.4640   52.1500 C   0  0  0  0  0  0  0  0  0  0  0  0
   62.9280   28.9970   52.1370 C   0  0  0  0  0  0  0  0  0  0  0  0
   63.1850   27.6300   52.0290 C   0  0  0  0  0  0  0  0  0  0  0  0
   64.5030   27.1750   52.0840 O   0  0  0  0  0  0  0  0  0  0  0  0
   62.1200   26.7290   51.8680 C   0  0  0  0  0  0  0  0  0  0  0  0
   60.8040   27.1960   51.8340 C   0  0  0  0  0  0  0  0  0  0  0  0
   62.8230   33.6930   49.5460 C   0  0  0  0  0  0  0  0  0  0  0  0
   64.8927   33.0480   50.9438 H   0  0  0  0  0  0  0  0  0  0  0  0
   65.6006   31.9703   49.6932 H   0  0  0  0  0  0  0  0  0  0  0  0
   65.9909   33.7236   49.6932 H   0  0  0  0  0  0  0  0  0  0  0  0
   65.0800   32.6960   47.1809 H   0  0  0  0  0  0  0  0  0  0  0  0
   63.1569   33.2416   45.6954 H   0  0  0  0  0  0  0  0  0  0  0  0
   59.8770   34.5857   46.9323 H   0  0  0  0  0  0  0  0  0  0  0  0
   61.1152   35.0827   45.7295 H   0  0  0  0  0  0  0  0  0  0  0  0
   60.4879   33.3996   45.7295 H   0  0  0  0  0  0  0  0  0  0  0  0
   59.0647   33.9102   50.7890 H   0  0  0  0  0  0  0  0  0  0  0  0
   58.8289   33.1741   49.1687 H   0  0  0  0  0  0  0  0  0  0  0  0
   61.3650   32.3617   50.4787 H   0  0  0  0  0  0  0  0  0  0  0  0
   59.8824   31.8826   51.3952 H   0  0  0  0  0  0  0  0  0  0  0  0
   61.5012   31.8027   48.0432 H   0  0  0  0  0  0  0  0  0  0  0  0
   61.0725   30.0949   46.3047 H   0  0  0  0  0  0  0  0  0  0  0  0
   59.8313   26.6893   48.2169 H   0  0  0  0  0  0  0  0  0  0  0  0
   59.2209   25.7413   46.8185 H   0  0  0  0  0  0  0  0  0  0  0  0
   60.9085   26.3565   46.8185 H   0  0  0  0  0  0  0  0  0  0  0  0
   61.2874   28.3217   45.4492 H   0  0  0  0  0  0  0  0  0  0  0  0
   60.2449   27.1522   44.5705 H   0  0  0  0  0  0  0  0  0  0  0  0
   59.8314   28.9002   44.5705 H   0  0  0  0  0  0  0  0  0  0  0  0
   59.2950   30.0810   44.6323 H   0  0  0  0  0  0  0  0  0  0  0  0
   58.7239   30.8722   43.1084 H   0  0  0  0  0  0  0  0  0  0  0  0
   58.2296   30.8733   46.8463 H   0  0  0  0  0  0  0  0  0  0  0  0
   57.7319   32.9634   48.1188 H   0  0  0  0  0  0  0  0  0  0  0  0
   57.3533   35.1084   46.9006 H   0  0  0  0  0  0  0  0  0  0  0  0
   57.4101   35.1604   44.4020 H   0  0  0  0  0  0  0  0  0  0  0  0
   57.8799   33.0641   43.1183 H   0  0  0  0  0  0  0  0  0  0  0  0
   58.2011   28.1697   48.9093 H   0  0  0  0  0  0  0  0  0  0  0  0
   61.4057   30.5372   52.2849 H   0  0  0  0  0  0  0  0  0  0  0  0
   63.7631   29.7090   52.2120 H   0  0  0  0  0  0  0  0  0  0  0  0
   64.9230   26.9350   52.9730 H   0  0  0  0  0  0  0  0  0  0  0  0
   62.3227   25.6524   51.7684 H   0  0  0  0  0  0  0  0  0  0  0  0
   59.9740   26.4899   51.6837 H   0  0  0  0  0  0  0  0  0  0  0  0
   62.7430   33.8401   50.6332 H   0  0  0  0  0  0  0  0  0  0  0  0
  1  2  1  0
  2  3  2  0
  3  4  1  0
  4  5  2  0
  5  6  1  0
  5  7  1  0
  7  8  1  0
  8  9  1  0
  9 10  1  0
 10 11  1  0
 11 12  2  0
 12 13  1  0
 13 14  2  0
 14 15  1  0
 15 16  1  0
 15 17  1  0
 15 18  1  0
 18 19  2  0
 18 20  1  0
 20 21  1  0
 21 22  2  0
 21 23  2  0
 21 24  1  0
 24 25  1  0
 25 26  2  0
 26 27  1  0
 27 28  2  0
 28 29  1  0
 29 30  2  0
 14 31  1  0
 31 32  2  0
 32 33  1  0
 33 34  2  0
 33 35  1  0
 35 36  1  0
 36 37  2  0
 37 38  1  0
 38 39  2  0
 39 40  1  0
 39 41  1  0
 41 42  2  0
  7 43  2  0
 43  2  1  0
 32 11  1  0
 42 36  1  0
 30 25  1  0
  1 44  1  0
  1 45  1  0
  1 46  1  0
  3 47  1  0
  4 48  1  0
  6 49  1  0
  6 50  1  0
  6 51  1  0
  9 52  1  0
  9 53  1  0
 10 54  1  0
 10 55  1  0
 12 56  1  0
 13 57  1  0
 16 58  1  0
 16 59  1  0
 16 60  1  0
 17 61  1  0
 17 62  1  0
 17 63  1  0
 24 64  1  0
 24 65  1  0
 26 66  1  0
 27 67  1  0
 28 68  1  0
 29 69  1  0
 30 70  1  0
 31 71  1  0
 37 72  1  0
 38 73  1  0
 40 74  1  0
 41 75  1  0
 42 76  1  0
 43 77  1  0
M  CHG  2  20  -1  35  -1
M  END
>  <UniqueID>  (19) 
18

>  <SMILES>  (19) 
Cc1ccc(C)c(OCCc2ccc(C(C)(C)C(=O)[N-]S(=O)(=O)Cc3ccccc3)cc2C(=O)[N-]c2ccc(O)cc2)c1

>  <Energy>  (19) 
99.48888098187416

>  <Genealogy>  (19) 
Cc1ccc(C)c(OCCc2ccc(C(C)(C)C(=O)[N-]S(=O)(=O)Cc3ccccc3)cc2C(=O)[N-]c2ccc(O)cc2)c1 (protonated)
Cc1ccc(C)c(OCCc2ccc(C(C)(C)C(=O)[N-]S(=O)(=O)Cc3ccccc3)cc2C(=O)[N-]c2ccc(O)cc2)c1 (3D coordinates assigned)
Cc1ccc(C)c(OCCc2ccc(C(C)(C)C(=O)[N-]S(=O)(=O)Cc3ccccc3)cc2C(=O)[N-]c2ccc(O)cc2)c1 (optimized conformer: 99.48888098187416 kcal/mol)

>  <smiles>  (19) 
Cc1ccc(C)c(OCCc2ccc(C(C)(C)C(=O)NS(=O)(=O)Cc3ccccc3)cc2C(=O)Nc2ccc(O)cc2)c1

>  <score_type>  (19) 
oracle

>  <origin>  (19) 
adg

>  <m_score__min__energy>  (19) 
-14.380000000000001

>  <m_primary>  (19) 
energy

$$$$
19:0
     RDKit          3D

 57 60  0  0  0  0  0  0  0  0999 V2000
   59.2210   35.2390   44.8980 O   0  0  0  0  0  0  0  0  0  0  0  0
   58.6810   34.4230   45.6940 C   0  0  0  0  0  0  0  0  0  0  0  0
   58.8910   34.6010   47.1710 C   0  0  0  0  0  0  0  0  0  0  0  0
   59.4800   33.4040   47.7720 N   0  0  0  0  0  0  0  0  0  0  0  0
   58.8010   32.4510   48.4520 C   0  0  0  0  0  0  0  0  0  0  0  0
   59.6610   31.4330   48.8490 C   0  0  0  0  0  0  0  0  0  0  0  0
   59.2730   30.2310   49.6110 C   0  0  0  0  0  0  0  0  0  0  0  0
   58.2590   30.2850   50.3580 O   0  0  0  0  0  0  0  0  0  0  0  0
   60.0060   28.9610   49.4890 C   0  0  0  0  0  0  0  0  0  0  0  0
   60.3940   28.3550   50.5240 O   0  0  0  0  0  0  0  0  0  0  0  0
   60.3500   28.4680   48.1880 N   0  0  0  0  0  0  0  0  0  0  0  0
   59.6270   27.4830   47.4350 C   0  0  0  0  0  0  0  0  0  0  0  0
   58.2260   27.4900   47.4870 C   0  0  0  0  0  0  0  0  0  0  0  0
   57.4870   26.5310   46.7860 C   0  0  0  0  0  0  0  0  0  0  0  0
   58.1440   25.5500   46.0390 C   0  0  0  0  0  0  0  0  0  0  0  0
   57.4270   24.6180   45.3650 F   0  0  0  0  0  0  0  0  0  0  0  0
   59.5400   25.5210   45.9990 C   0  0  0  0  0  0  0  0  0  0  0  0
   60.2830   26.4770   46.6990 C   0  0  0  0  0  0  0  0  0  0  0  0
   60.9190   31.8050   48.4010 C   0  0  0  0  0  0  0  0  0  0  0  0
   62.1740   31.2110   48.5620 C   0  0  0  0  0  0  0  0  0  0  0  0
   63.2850   31.8480   47.9830 C   0  0  0  0  0  0  0  0  0  0  0  0
   63.1290   33.0570   47.2760 C   0  0  0  0  0  0  0  0  0  0  0  0
   61.8620   33.6510   47.1520 C   0  0  0  0  0  0  0  0  0  0  0  0
   60.7700   33.0030   47.7410 C   0  0  0  0  0  0  0  0  0  0  0  0
   57.9410   33.3040   45.1810 N   0  0  0  0  0  0  0  0  0  0  0  0
   57.9340   32.9540   43.7630 C   0  0  0  0  0  0  0  0  0  0  0  0
   57.2780   31.5890   43.5480 C   0  0  0  0  0  0  0  0  0  0  0  0
   57.3200   30.8100   44.8100 N   0  0  0  0  0  0  0  0  0  0  0  0
   58.6950   30.5970   45.3090 C   0  0  0  0  0  0  0  0  0  0  0  0
   59.4070   29.4680   44.5430 C   0  0  0  0  0  0  0  0  0  0  0  0
   58.6560   28.2710   44.5910 O   0  0  0  0  0  0  0  0  0  0  0  0
   57.4020   28.4730   43.9690 C   0  0  0  0  0  0  0  0  0  0  0  0
   56.5880   29.5310   44.7270 C   0  0  0  0  0  0  0  0  0  0  0  0
   59.5653   35.4541   47.3369 H   0  0  0  0  0  0  0  0  0  0  0  0
   57.9132   34.7807   47.6417 H   0  0  0  0  0  0  0  0  0  0  0  0
   57.7214   32.4779   48.6611 H   0  0  0  0  0  0  0  0  0  0  0  0
   57.7048   28.2540   48.0825 H   0  0  0  0  0  0  0  0  0  0  0  0
   56.3878   26.5493   46.8230 H   0  0  0  0  0  0  0  0  0  0  0  0
   60.0562   24.7444   45.4155 H   0  0  0  0  0  0  0  0  0  0  0  0
   61.3822   26.4432   46.6747 H   0  0  0  0  0  0  0  0  0  0  0  0
   62.2887   30.2730   49.1250 H   0  0  0  0  0  0  0  0  0  0  0  0
   64.2843   31.3992   48.0825 H   0  0  0  0  0  0  0  0  0  0  0  0
   64.0054   33.5389   46.8181 H   0  0  0  0  0  0  0  0  0  0  0  0
   61.7318   34.5980   46.6077 H   0  0  0  0  0  0  0  0  0  0  0  0
   57.4010   32.6950   45.8340 H   0  0  0  0  0  0  0  0  0  0  0  0
   57.3715   33.7172   43.2052 H   0  0  0  0  0  0  0  0  0  0  0  0
   58.9728   32.9084   43.4041 H   0  0  0  0  0  0  0  0  0  0  0  0
   56.2314   31.7306   43.2403 H   0  0  0  0  0  0  0  0  0  0  0  0
   57.8226   31.0424   42.7640 H   0  0  0  0  0  0  0  0  0  0  0  0
   59.2676   31.5281   45.1861 H   0  0  0  0  0  0  0  0  0  0  0  0
   58.6357   30.3094   46.3691 H   0  0  0  0  0  0  0  0  0  0  0  0
   59.5348   29.7706   43.4932 H   0  0  0  0  0  0  0  0  0  0  0  0
   60.3846   29.2874   45.0138 H   0  0  0  0  0  0  0  0  0  0  0  0
   57.5617   28.8121   42.9348 H   0  0  0  0  0  0  0  0  0  0  0  0
   56.8452   27.5243   43.9763 H   0  0  0  0  0  0  0  0  0  0  0  0
   55.6361   29.6960   44.2010 H   0  0  0  0  0  0  0  0  0  0  0  0
   56.4085   29.1657   45.7489 H   0  0  0  0  0  0  0  0  0  0  0  0
  1  2  2  0
  2  3  1  0
  3  4  1  0
  4  5  1  0
  5  6  2  0
  6  7  1  0
  7  8  2  0
  7  9  1  0
  9 10  2  0
  9 11  1  0
 11 12  1  0
 12 13  2  0
 13 14  1  0
 14 15  2  0
 15 16  1  0
 15 17  1  0
 17 18  2  0
  6 19  1  0
 19 20  2  0
 20 21  1  0
 21 22  2  0
 22 23  1  0
 23 24  2  0
  2 25  1  0
 25 26  1  0
 26 27  1  0
 27 28  1  0
 28 29  1  0
 29 30  1  0
 30 31  1  0
 31 32  1  0
 32 33  1  0
 24  4  1  0
 33 28  1  0
 18 12  1  0
 24 19  1  0
  3 34  1  0
  3 35  1  0
  5 36  1  0
 13 37  1  0
 14 38  1  0
 17 39  1  0
 18 40  1  0
 20 41  1  0
 21 42  1  0
 22 43  1  0
 23 44  1  0
 25 45  1  0
 26 46  1  0
 26 47  1  0
 27 48  1  0
 27 49  1  0
 29 50  1  0
 29 51  1  0
 30 52  1  0
 30 53  1  0
 32 54  1  0
 32 55  1  0
 33 56  1  0
 33 57  1  0
M  CHG  1  11  -1
M  END
>  <UniqueID>  (20) 
19

>  <SMILES>  (20) 
O=C(Cn1cc(C(=O)C(=O)[N-]c2ccc(F)cc2)c2ccccc21)NCCN1CCOCC1

>  <Energy>  (20) 
101.27884867809945

>  <Genealogy>  (20) 
O=C(Cn1cc(C(=O)C(=O)[N-]c2ccc(F)cc2)c2ccccc21)NCCN1CCOCC1 (protonated)
O=C(Cn1cc(C(=O)C(=O)[N-]c2ccc(F)cc2)c2ccccc21)NCCN1CCOCC1 (3D coordinates assigned)
O=C(Cn1cc(C(=O)C(=O)[N-]c2ccc(F)cc2)c2ccccc21)NCCN1CCOCC1 (nonaromatic ring conformer: 101.27884867809945 kcal/mol)

>  <smiles>  (20) 
O=C(Cn1cc(C(=O)C(=O)Nc2ccc(F)cc2)c2ccccc21)NCCN1CCOCC1

>  <score_type>  (20) 
oracle

>  <origin>  (20) 
adg

>  <m_score__min__energy>  (20) 
-9.5999999999999996

>  <m_primary>  (20) 
energy

$$$$
20:0
     RDKit          3D

 48 50  0  0  0  0  0  0  0  0999 V2000
   64.3774   34.7242   47.6831 H   0  0  0  0  0  0  0  0  0  0  0  0
   63.7190   33.8430   47.6910 C   0  0  0  0  0  0  0  0  0  0  0  0
   63.9020   32.8430   48.6500 C   0  0  0  0  0  0  0  0  0  0  0  0
   64.7017   32.9403   49.3990 H   0  0  0  0  0  0  0  0  0  0  0  0
   63.0710   31.7200   48.6590 C   0  0  0  0  0  0  0  0  0  0  0  0
   63.2142   30.9385   49.4198 H   0  0  0  0  0  0  0  0  0  0  0  0
   62.0530   31.5850   47.7000 C   0  0  0  0  0  0  0  0  0  0  0  0
   61.1310   30.3960   47.7320 C   0  0  0  0  0  0  0  0  0  0  0  0
   60.3607   30.5558   48.5008 H   0  0  0  0  0  0  0  0  0  0  0  0
   61.7187   29.4960   47.9657 H   0  0  0  0  0  0  0  0  0  0  0  0
   60.4530   30.2060   46.3700 C   0  0  0  0  0  0  0  0  0  0  0  0
   61.1837   30.4101   45.5735 H   0  0  0  0  0  0  0  0  0  0  0  0
   59.6033   30.9013   46.3030 H   0  0  0  0  0  0  0  0  0  0  0  0
   59.9240   28.7730   46.2100 C   0  0  0  0  0  0  0  0  0  0  0  0
   58.9480   28.6978   46.7117 H   0  0  0  0  0  0  0  0  0  0  0  0
   60.6595   28.0897   46.6597 H   0  0  0  0  0  0  0  0  0  0  0  0
   59.7530   28.3760   44.7290 C   0  0  0  0  0  0  0  0  0  0  0  0
   60.2670   27.4175   44.5647 H   0  0  0  0  0  0  0  0  0  0  0  0
   60.1813   29.1903   44.1261 H   0  0  0  0  0  0  0  0  0  0  0  0
   58.2820   28.2200   44.2960 C   0  0  0  0  0  0  0  0  0  0  0  0
   58.0643   27.1466   44.1942 H   0  0  0  0  0  0  0  0  0  0  0  0
   58.1711   28.7688   43.3492 H   0  0  0  0  0  0  0  0  0  0  0  0
   57.2690   28.8260   45.2790 C   0  0  0  0  0  0  0  0  0  0  0  0
   57.7612   28.9763   46.2512 H   0  0  0  0  0  0  0  0  0  0  0  0
   56.4212   28.1312   45.3707 H   0  0  0  0  0  0  0  0  0  0  0  0
   56.7570   30.1120   44.8020 N   0  0  0  0  0  0  0  0  0  0  0  0
   57.3260   31.2640   45.0010 C   0  0  0  0  0  0  0  0  0  0  0  0
   57.7290   31.5960   46.2540 N   0  0  0  0  0  0  0  0  0  0  0  0
   58.3310   32.7900   46.5200 C   0  0  0  0  0  0  0  0  0  0  0  0
   58.5430   33.6970   45.4660 C   0  0  0  0  0  0  0  0  0  0  0  0
   58.1170   33.3390   44.1790 C   0  0  0  0  0  0  0  0  0  0  0  0
   58.2662   34.0302   43.3364 H   0  0  0  0  0  0  0  0  0  0  0  0
   57.5200   32.1370   43.9760 N   0  0  0  0  0  0  0  0  0  0  0  0
   59.1790   34.9110   45.7440 C   0  0  0  0  0  0  0  0  0  0  0  0
   59.3880   35.7550   44.8300 O   0  0  0  0  0  0  0  0  0  0  0  0
   59.5820   35.1810   47.0120 N   0  0  0  0  0  0  0  0  0  0  0  0
   60.0670   36.0860   47.2120 H   0  0  0  0  0  0  0  0  0  0  0  0
   59.3740   34.2970   48.0270 C   0  0  0  0  0  0  0  0  0  0  0  0
   59.7870   34.5880   49.1830 O   0  0  0  0  0  0  0  0  0  0  0  0
   58.7270   33.1080   47.7950 N   0  0  0  0  0  0  0  0  0  0  0  0
   58.5270   32.1440   48.8890 C   0  0  0  0  0  0  0  0  0  0  0  0
   58.6338   32.6587   49.8553 H   0  0  0  0  0  0  0  0  0  0  0  0
   57.5195   31.7089   48.8147 H   0  0  0  0  0  0  0  0  0  0  0  0
   59.2783   31.3440   48.8147 H   0  0  0  0  0  0  0  0  0  0  0  0
   61.8650   32.6020   46.7470 C   0  0  0  0  0  0  0  0  0  0  0  0
   61.0590   32.5148   46.0035 H   0  0  0  0  0  0  0  0  0  0  0  0
   62.7000   33.7240   46.7420 C   0  0  0  0  0  0  0  0  0  0  0  0
   62.5545   34.5137   45.9902 H   0  0  0  0  0  0  0  0  0  0  0  0
  1  2  1  0
  2  3  2  0
  3  4  1  0
  3  5  1  0
  5  6  1  0
  5  7  2  0
  7  8  1  0
  8  9  1  0
  8 10  1  0
  8 11  1  0
 11 12  1  0
 11 13  1  0
 11 14  1  0
 14 15  1  0
 14 16  1  0
 14 17  1  0
 17 18  1  0
 17 19  1  0
 17 20  1  0
 20 21  1  0
 20 22  1  0
 20 23  1  0
 23 24  1  0
 23 25  1  0
 23 26  1  0
 26 27  2  0
 27 28  1  0
 28 29  2  0
 29 30  1  0
 30 31  2  0
 31 32  1  0
 31 33  1  0
 30 34  1  0
 34 35  2  0
 34 36  1  0
 36 37  1  0
 36 38  1  0
 38 39  2  0
 38 40  1  0
 40 41  1  0
 41 42  1  0
 41 43  1  0
 41 44  1  0
  7 45  1  0
 45 46  1  0
 45 47  2  0
 47 48  1  0
 47  2  1  0
 33 27  1  0
 40 29  1  0
M  CHG  1  33  -1
M  END
>  <UniqueID>  (21) 
20

>  <SMILES>  (21) 
Cn1c(=O)[nH]c(=O)c2c[n-]/c(=N\CCCCCCc3ccccc3)nc21

>  <Energy>  (21) 
51.25523297143811

>  <Genealogy>  (21) 
Cn1c(=O)[nH]c(=O)c2c[n-]c(=NCCCCCCc3ccccc3)nc21 (protonated)
Cn1c(=O)[nH]c(=O)c2c[n-]/c(=N\CCCCCCc3ccccc3)nc21 (cis-trans isomerization)
Cn1c(=O)[nH]c(=O)c2c[n-]/c(=N\CCCCCCc3ccccc3)nc21 (3D coordinates assigned)
Cn1c(=O)[nH]c(=O)c2c[n-]/c(=N\CCCCCCc3ccccc3)nc21 (optimized conformer: 51.25523297143811 kcal/mol)

>  <smiles>  (21) 
Cn1c(=O)[nH]c(=O)c2c[nH]c(=NCCCCCCc3ccccc3)nc21

>  <score_type>  (21) 
oracle

>  <origin>  (21) 
adg

>  <m_score__min__energy>  (21) 
-10.08

>  <m_primary>  (21) 
energy

$$$$
21:0
     RDKit          3D

 47 49  0  0  0  0  0  0  0  0999 V2000
   59.2310   34.8360   47.5000 C   0  0  0  0  0  0  0  0  0  0  0  0
   58.7790   33.7120   46.6060 C   0  0  0  0  0  0  0  0  0  0  0  0
   57.6150   33.8930   45.8400 C   0  0  0  0  0  0  0  0  0  0  0  0
   57.1700   32.8930   44.9740 C   0  0  0  0  0  0  0  0  0  0  0  0
   57.8760   31.6900   44.8620 C   0  0  0  0  0  0  0  0  0  0  0  0
   57.4340   30.6370   43.8820 C   0  0  0  0  0  0  0  0  0  0  0  0
   57.5110   29.3150   44.5010 N   0  0  0  0  0  0  0  0  0  0  0  0
   56.4830   28.5860   44.9880 C   0  0  0  0  0  0  0  0  0  0  0  0
   55.1480   28.9670   44.9150 O   0  0  0  0  0  0  0  0  0  0  0  0
   56.9500   27.4260   45.5720 C   0  0  0  0  0  0  0  0  0  0  0  0
   58.3160   27.4490   45.4500 C   0  0  0  0  0  0  0  0  0  0  0  0
   58.6340   28.6230   44.7970 C   0  0  0  0  0  0  0  0  0  0  0  0
   59.9210   29.0510   44.4910 O   0  0  0  0  0  0  0  0  0  0  0  0
   59.2260   26.3930   45.9890 C   0  0  0  0  0  0  0  0  0  0  0  0
   58.4490   25.2510   46.6120 C   0  0  0  0  0  0  0  0  0  0  0  0
   57.1020   25.2270   46.7330 C   0  0  0  0  0  0  0  0  0  0  0  0
   56.1870   26.3400   46.2590 C   0  0  0  0  0  0  0  0  0  0  0  0
   59.0340   31.4980   45.6270 C   0  0  0  0  0  0  0  0  0  0  0  0
   59.4660   32.4770   46.5330 C   0  0  0  0  0  0  0  0  0  0  0  0
   60.9670   32.1560   47.4860 S   0  0  0  0  0  0  0  0  0  0  0  0
   60.4060   30.7090   48.4890 C   0  0  0  0  0  0  0  0  0  0  0  0
   60.4070   29.4200   47.6500 C   0  0  0  0  0  0  0  0  0  0  0  0
   58.9650   31.0070   48.9390 C   0  0  0  0  0  0  0  0  0  0  0  0
   61.2870   30.5260   49.7380 C   0  0  0  0  0  0  0  0  0  0  0  0
   59.1113   34.5384   48.5522 H   0  0  0  0  0  0  0  0  0  0  0  0
   60.2892   35.0603   47.3005 H   0  0  0  0  0  0  0  0  0  0  0  0
   58.6227   35.7305   47.3005 H   0  0  0  0  0  0  0  0  0  0  0  0
   57.0488   34.8323   45.9237 H   0  0  0  0  0  0  0  0  0  0  0  0
   56.2600   33.0513   44.3767 H   0  0  0  0  0  0  0  0  0  0  0  0
   56.3963   30.8363   43.5763 H   0  0  0  0  0  0  0  0  0  0  0  0
   58.0934   30.6629   43.0019 H   0  0  0  0  0  0  0  0  0  0  0  0
   59.8418   25.9991   45.1670 H   0  0  0  0  0  0  0  0  0  0  0  0
   59.8550   26.8467   46.7691 H   0  0  0  0  0  0  0  0  0  0  0  0
   59.0159   24.3873   46.9896 H   0  0  0  0  0  0  0  0  0  0  0  0
   56.6418   24.3460   47.2042 H   0  0  0  0  0  0  0  0  0  0  0  0
   55.4509   25.9219   45.5566 H   0  0  0  0  0  0  0  0  0  0  0  0
   55.6891   26.7736   47.1388 H   0  0  0  0  0  0  0  0  0  0  0  0
   59.6111   30.5682   45.5155 H   0  0  0  0  0  0  0  0  0  0  0  0
   60.4077   28.5470   48.3192 H   0  0  0  0  0  0  0  0  0  0  0  0
   59.5089   29.3949   47.0154 H   0  0  0  0  0  0  0  0  0  0  0  0
   61.3052   29.3963   47.0154 H   0  0  0  0  0  0  0  0  0  0  0  0
   58.9186   31.0166   50.0380 H   0  0  0  0  0  0  0  0  0  0  0  0
   58.6550   31.9883   48.5504 H   0  0  0  0  0  0  0  0  0  0  0  0
   58.2912   30.2292   48.5504 H   0  0  0  0  0  0  0  0  0  0  0  0
   60.6730   30.6535   50.6417 H   0  0  0  0  0  0  0  0  0  0  0  0
   61.7261   29.5175   49.7324 H   0  0  0  0  0  0  0  0  0  0  0  0
   62.0915   31.2762   49.7324 H   0  0  0  0  0  0  0  0  0  0  0  0
  1  2  1  0
  2  3  2  0
  3  4  1  0
  4  5  2  0
  5  6  1  0
  6  7  1  0
  7  8  1  0
  8  9  1  0
  8 10  2  0
 10 11  1  0
 11 12  2  0
 12 13  1  0
 11 14  1  0
 14 15  1  0
 15 16  2  0
 16 17  1  0
  5 18  1  0
 18 19  2  0
 19 20  1  0
 20 21  1  0
 21 22  1  0
 21 23  1  0
 21 24  1  0
 19  2  1  0
 12  7  1  0
 17 10  1  0
  1 25  1  0
  1 26  1  0
  1 27  1  0
  3 28  1  0
  4 29  1  0
  6 30  1  0
  6 31  1  0
 14 32  1  0
 14 33  1  0
 15 34  1  0
 16 35  1  0
 17 36  1  0
 17 37  1  0
 18 38  1  0
 22 39  1  0
 22 40  1  0
 22 41  1  0
 23 42  1  0
 23 43  1  0
 23 44  1  0
 24 45  1  0
 24 46  1  0
 24 47  1  0
M  CHG  2   9  -1  13  -1
M  END
>  <UniqueID>  (22) 
21

>  <SMILES>  (22) 
Cc1ccc(Cn2c([O-])c3c(c2[O-])CC=CC3)cc1SC(C)(C)C

>  <Energy>  (22) 
73.22191865767687

>  <Genealogy>  (22) 
Cc1ccc(Cn2c([O-])c3c(c2[O-])CC=CC3)cc1SC(C)(C)C (protonated)
Cc1ccc(Cn2c([O-])c3c(c2[O-])CC=CC3)cc1SC(C)(C)C (3D coordinates assigned)
Cc1ccc(Cn2c([O-])c3c(c2[O-])CC=CC3)cc1SC(C)(C)C (nonaromatic ring conformer: 73.22191865767687 kcal/mol)

>  <smiles>  (22) 
Cc1ccc(Cn2c(O)c3c(c2O)CC=CC3)cc1SC(C)(C)C

>  <score_type>  (22) 
oracle

>  <origin>  (22) 
adg

>  <m_score__min__energy>  (22) 
-13.19

>  <m_primary>  (22) 
energy

$$$$
22:0
     RDKit          3D

 26 27  0  0  0  0  0  0  0  0999 V2000
   63.3310   33.5930   46.7380 C   0  0  0  0  0  0  0  0  0  0  0  0
   61.9490   33.7990   47.2690 C   0  0  0  0  0  0  0  0  0  0  0  0
   60.8940   33.6960   46.3690 C   0  0  0  0  0  0  0  0  0  0  0  0
   59.5770   33.8750   46.7940 C   0  0  0  0  0  0  0  0  0  0  0  0
   58.5210   33.7520   45.8020 C   0  0  0  0  0  0  0  0  0  0  0  0
   58.4700   34.6760   44.9220 O   0  0  0  0  0  0  0  0  0  0  0  0
   57.5920   32.6910   45.7780 N   0  0  0  0  0  0  0  0  0  0  0  0
   57.3330   32.0100   44.7190 C   0  0  0  0  0  0  0  0  0  0  0  0
   56.6470   30.8480   44.9160 N   0  0  0  0  0  0  0  0  0  0  0  0
   56.3190   30.0460   43.8710 C   0  0  0  0  0  0  0  0  0  0  0  0
   56.7050   30.4490   42.6050 C   0  0  0  0  0  0  0  0  0  0  0  0
   57.3980   31.6210   42.3850 C   0  0  0  0  0  0  0  0  0  0  0  0
   57.6850   32.3610   43.4790 N   0  0  0  0  0  0  0  0  0  0  0  0
   59.3300   34.1570   48.1290 C   0  0  0  0  0  0  0  0  0  0  0  0
   60.4140   34.2480   48.9760 C   0  0  0  0  0  0  0  0  0  0  0  0
   61.6920   34.0720   48.5560 N   0  0  0  0  0  0  0  0  0  0  0  0
   64.0344   33.4882   47.5772 H   0  0  0  0  0  0  0  0  0  0  0  0
   63.3554   32.6813   46.1230 H   0  0  0  0  0  0  0  0  0  0  0  0
   63.6202   34.4580   46.1230 H   0  0  0  0  0  0  0  0  0  0  0  0
   61.0996   33.4713   45.3120 H   0  0  0  0  0  0  0  0  0  0  0  0
   55.7654   29.1081   44.0254 H   0  0  0  0  0  0  0  0  0  0  0  0
   56.4505   29.8129   41.7444 H   0  0  0  0  0  0  0  0  0  0  0  0
   57.7003   31.9360   41.3753 H   0  0  0  0  0  0  0  0  0  0  0  0
   58.2080   33.2440   43.3260 H   0  0  0  0  0  0  0  0  0  0  0  0
   58.3046   34.3031   48.4994 H   0  0  0  0  0  0  0  0  0  0  0  0
   60.2350   34.4729   50.0378 H   0  0  0  0  0  0  0  0  0  0  0  0
  1  2  1  0
  2  3  2  0
  3  4  1  0
  4  5  1  0
  5  6  2  0
  5  7  1  0
  7  8  2  3
  8  9  1  0
  9 10  2  0
 10 11  1  0
 11 12  2  0
 12 13  1  0
  4 14  2  0
 14 15  1  0
 15 16  2  0
 16  2  1  0
 13  8  1  0
  1 17  1  0
  1 18  1  0
  1 19  1  0
  3 20  1  0
 10 21  1  0
 11 22  1  0
 12 23  1  0
 13 24  1  0
 14 25  1  0
 15 26  1  0
M  END
>  <smiles>  (23) 
Cc1cc(C(=O)N=c2nccc[nH]2)ccn1

>  <score_type>  (23) 
oracle

>  <origin>  (23) 
adg

>  <m_score__min__energy>  (23) 
-6.3600000000000003

>  <m_primary>  (23) 
energy

$$$$
23:0
     RDKit          3D

 42 43  0  0  0  0  0  0  0  0999 V2000
   56.5660   23.7310   43.3620 C   0  0  0  0  0  0  0  0  0  0  0  0
   57.3410   23.9940   44.6490 C   0  0  0  0  0  0  0  0  0  0  0  0
   56.4700   24.4750   45.6710 O   0  0  0  0  0  0  0  0  0  0  0  0
   56.3070   25.8330   45.9720 C   0  0  0  0  0  0  0  0  0  0  0  0
   55.1540   26.3400   46.0130 O   0  0  0  0  0  0  0  0  0  0  0  0
   57.5030   26.6580   46.2340 C   0  0  0  0  0  0  0  0  0  0  0  0
   58.1400   26.7230   47.4610 C   0  0  0  0  0  0  0  0  0  0  0  0
   59.1950   27.5990   47.3140 C   0  0  0  0  0  0  0  0  0  0  0  0
   59.1630   28.0390   46.0060 C   0  0  0  0  0  0  0  0  0  0  0  0
   58.1380   27.4630   45.3440 N   0  0  0  0  0  0  0  0  0  0  0  0
   57.7610   27.7820   43.9620 C   0  0  0  0  0  0  0  0  0  0  0  0
   57.6180   29.2950   43.7610 C   0  0  0  0  0  0  0  0  0  0  0  0
   56.4030   29.8260   44.4760 C   0  0  0  0  0  0  0  0  0  0  0  0
   55.5240   29.0130   44.8710 O   0  0  0  0  0  0  0  0  0  0  0  0
   56.2880   31.2050   44.8450 N   0  0  0  0  0  0  0  0  0  0  0  0
   57.3720   32.0470   45.2540 C   0  0  0  0  0  0  0  0  0  0  0  0
   57.4210   33.3980   44.8760 C   0  0  0  0  0  0  0  0  0  0  0  0
   58.4670   34.2120   45.3190 C   0  0  0  0  0  0  0  0  0  0  0  0
   59.4610   33.6880   46.1520 C   0  0  0  0  0  0  0  0  0  0  0  0
   59.4160   32.3480   46.5540 C   0  0  0  0  0  0  0  0  0  0  0  0
   60.4380   31.8670   47.3890 O   0  0  0  0  0  0  0  0  0  0  0  0
   61.7960   32.2920   47.3240 C   0  0  0  0  0  0  0  0  0  0  0  0
   58.3560   31.5310   46.1090 C   0  0  0  0  0  0  0  0  0  0  0  0
   55.5510   23.3865   43.6091 H   0  0  0  0  0  0  0  0  0  0  0  0
   56.5054   24.6589   42.7743 H   0  0  0  0  0  0  0  0  0  0  0  0
   57.0827   22.9579   42.7743 H   0  0  0  0  0  0  0  0  0  0  0  0
   57.8108   23.0581   44.9856 H   0  0  0  0  0  0  0  0  0  0  0  0
   58.1092   24.7559   44.4506 H   0  0  0  0  0  0  0  0  0  0  0  0
   57.8592   26.1810   48.3761 H   0  0  0  0  0  0  0  0  0  0  0  0
   59.9204   27.8902   48.0880 H   0  0  0  0  0  0  0  0  0  0  0  0
   59.8716   28.7564   45.5664 H   0  0  0  0  0  0  0  0  0  0  0  0
   58.5370   27.4015   43.2816 H   0  0  0  0  0  0  0  0  0  0  0  0
   56.7912   27.3092   43.7478 H   0  0  0  0  0  0  0  0  0  0  0  0
   58.5143   29.7959   44.1557 H   0  0  0  0  0  0  0  0  0  0  0  0
   57.5047   29.4948   42.6852 H   0  0  0  0  0  0  0  0  0  0  0  0
   56.6350   33.8165   44.2302 H   0  0  0  0  0  0  0  0  0  0  0  0
   58.5087   35.2674   45.0119 H   0  0  0  0  0  0  0  0  0  0  0  0
   60.2837   34.3334   46.4935 H   0  0  0  0  0  0  0  0  0  0  0  0
   62.1907   32.4155   48.3433 H   0  0  0  0  0  0  0  0  0  0  0  0
   62.3912   31.5372   46.7893 H   0  0  0  0  0  0  0  0  0  0  0  0
   61.8547   33.2515   46.7893 H   0  0  0  0  0  0  0  0  0  0  0  0
   58.3009   30.4819   46.4350 H   0  0  0  0  0  0  0  0  0  0  0  0
  1  2  1  0
  2  3  1  0
  3  4  1  0
  4  5  2  0
  4  6  1  0
  6  7  2  0
  7  8  1  0
  8  9  2  0
  9 10  1  0
 10 11  1  0
 11 12  1  0
 12 13  1  0
 13 14  2  0
 13 15  1  0
 15 16  1  0
 16 17  2  0
 17 18  1  0
 18 19  2  0
 19 20  1  0
 20 21  1  0
 21 22  1  0
 20 23  2  0
 10  6  1  0
 23 16  1  0
  1 24  1  0
  1 25  1  0
  1 26  1  0
  2 27  1  0
  2 28  1  0
  7 29  1  0
  8 30  1  0
  9 31  1  0
 11 32  1  0
 11 33  1  0
 12 34  1  0
 12 35  1  0
 17 36  1  0
 18 37  1  0
 19 38  1  0
 22 39  1  0
 22 40  1  0
 22 41  1  0
 23 42  1  0
M  CHG  1  15  -1
M  END
>  <UniqueID>  (24) 
22

>  <SMILES>  (24) 
CCOC(=O)c1cccn1CCC(=O)[N-]c1cccc(OC)c1

>  <Energy>  (24) 
66.08298554201424

>  <Genealogy>  (24) 
CCOC(=O)c1cccn1CCC(=O)[N-]c1cccc(OC)c1 (protonated)
CCOC(=O)c1cccn1CCC(=O)[N-]c1cccc(OC)c1 (3D coordinates assigned)
CCOC(=O)c1cccn1CCC(=O)[N-]c1cccc(OC)c1 (optimized conformer: 66.08298554201424 kcal/mol)

>  <smiles>  (24) 
CCOC(=O)c1cccn1CCC(=O)Nc1cccc(OC)c1

>  <score_type>  (24) 
oracle

>  <origin>  (24) 
adg

>  <m_score__min__energy>  (24) 
-8.7899999999999991

>  <m_primary>  (24) 
energy

$$$$
24:0
     RDKit          3D

 45 47  0  0  1  0  0  0  0  0999 V2000
   59.5580   28.7910   48.5630 C   0  0  0  0  0  0  0  0  0  0  0  0
   58.5770   28.1430   47.7410 N   0  0  0  0  0  0  0  0  0  0  0  0
   58.3550   28.5850   46.5400 C   0  0  0  0  0  0  0  0  0  0  0  0
   57.8970   29.8400   46.3440 N   0  0  0  0  0  0  0  0  0  0  0  0
   57.6990   30.2170   45.0610 C   0  0  0  0  0  0  0  0  0  0  0  0
   57.2560   31.3870   44.7710 N   0  0  0  0  0  0  0  0  0  0  0  0
   57.9800   32.5520   45.1120 C   0  0  0  0  0  0  0  0  0  0  0  0
   58.5640   33.5220   44.3370 C   0  0  0  0  0  0  0  0  0  0  0  0
   59.1250   34.4100   45.1920 N   0  0  0  0  0  0  0  0  0  0  0  0
   58.9460   34.0820   46.4400 N   0  0  0  0  0  0  0  0  0  0  0  0
   59.3570   34.7180   47.6760 C   0  0  0  0  0  0  0  0  0  0  0  0
   60.0630   33.7580   48.5710 C   0  0  0  0  0  0  0  0  0  0  0  0
   59.3640   33.1160   49.4060 O   0  0  0  0  0  0  0  0  0  0  0  0
   61.4620   33.5340   48.5320 N   0  0  0  0  0  0  0  0  0  0  0  0
   62.3590   34.2160   47.6000 C   0  0  0  0  0  0  0  0  0  0  0  0
   62.9360   33.0730   46.7690 C   0  0  0  0  0  0  0  0  0  0  0  0
   63.7140   32.2500   47.6150 N   0  0  0  0  0  0  0  0  0  0  0  0
   63.0850   31.7040   48.7760 C   0  0  0  0  0  0  0  0  0  0  0  0
   62.0870   32.5930   49.4320 C   0  0  0  0  0  0  0  0  0  0  0  0
   58.2310   32.9230   46.4190 C   0  0  0  0  0  0  0  0  0  0  0  0
   57.8150   32.2160   47.5440 O   0  0  0  0  0  0  0  0  0  0  0  0
   57.9470   29.3820   44.0190 N   0  0  0  0  0  0  0  0  0  0  0  0
   58.4030   28.1300   44.1840 C   0  0  0  0  0  0  0  0  0  0  0  0
   58.6160   27.7140   45.5030 C   0  0  0  0  0  0  0  0  0  0  0  0
   59.1050   26.3740   45.7610 C   0  0  0  0  0  0  0  0  0  0  0  0
   59.5000   25.3120   45.9840 N   0  0  0  0  0  0  0  0  0  0  0  0
   59.3129   28.6291   49.6231 H   0  0  0  0  0  0  0  0  0  0  0  0
   60.5517   28.3710   48.3481 H   0  0  0  0  0  0  0  0  0  0  0  0
   59.5616   29.8698   48.3481 H   0  0  0  0  0  0  0  0  0  0  0  0
   57.7000   30.5000   47.1400 H   0  0  0  0  0  0  0  0  0  0  0  0
   58.5745   33.5691   43.2381 H   0  0  0  0  0  0  0  0  0  0  0  0
   60.0336   35.5530   47.4414 H   0  0  0  0  0  0  0  0  0  0  0  0
   58.4576   35.0797   48.1958 H   0  0  0  0  0  0  0  0  0  0  0  0
   61.8047   34.9236   46.9659 H   0  0  0  0  0  0  0  0  0  0  0  0
   63.1318   34.8138   48.1054 H   0  0  0  0  0  0  0  0  0  0  0  0
   62.1174   32.4842   46.3294 H   0  0  0  0  0  0  0  0  0  0  0  0
   63.5602   33.4755   45.9576 H   0  0  0  0  0  0  0  0  0  0  0  0
   64.3450   31.5820   47.1250 H   0  0  0  0  0  0  0  0  0  0  0  0
   62.5728   30.7762   48.4813 H   0  0  0  0  0  0  0  0  0  0  0  0
   63.8864   31.5476   49.5131 H   0  0  0  0  0  0  0  0  0  0  0  0
   61.3014   31.9639   49.8759 H   0  0  0  0  0  0  0  0  0  0  0  0
   62.6304   33.1831   50.1847 H   0  0  0  0  0  0  0  0  0  0  0  0
   58.2460   32.4300   48.4230 H   0  0  0  0  0  0  0  0  0  0  0  0
   57.7780   29.7190   43.0260 H   0  0  0  0  0  0  0  0  0  0  0  0
   58.5986   27.4669   43.3284 H   0  0  0  0  0  0  0  0  0  0  0  0
  1  2  1  0
  2  3  2  0
  3  4  1  0
  4  5  1  0
  5  6  2  0
  6  7  1  0
  7  8  1  0
  8  9  2  0
  9 10  1  0
 10 11  1  0
 11 12  1  0
 12 13  2  0
 12 14  1  0
 14 15  1  0
 15 16  1  0
 16 17  1  0
 17 18  1  0
 18 19  1  0
 10 20  1  0
 20 21  1  0
  5 22  1  0
 22 23  1  0
 23 24  2  0
 24 25  1  0
 25 26  3  0
 24  3  1  0
 20  7  2  0
 19 14  1  0
  1 27  1  0
  1 28  1  0
  1 29  1  0
  4 30  1  0
  8 31  1  0
 11 32  1  0
 11 33  1  0
 15 34  1  0
 15 35  1  0
 16 36  1  0
 16 37  1  0
 17 38  1  0
 18 39  1  0
 18 40  1  0
 19 41  1  0
 19 42  1  0
 21 43  1  0
 22 44  1  0
 23 45  1  0
M  END
>  <smiles>  (25) 
CN=c1[nH]c(=Nc2cnn(CC(=O)N3CCNCC3)c2O)[nH]cc1C#N

>  <score_type>  (25) 
oracle

>  <origin>  (25) 
adg

>  <m_score__min__energy>  (25) 
-8.0999999999999996

>  <m_primary>  (25) 
energy

$$$$
25:0
     RDKit          3D

 47 50  0  0  0  0  0  0  0  0999 V2000
   60.1610   28.7230   45.4550 O   0  0  0  0  0  0  0  0  0  0  0  0
   59.2230   28.4540   46.2810 C   0  0  0  0  0  0  0  0  0  0  0  0
   59.5150   27.6560   47.4870 C   0  0  0  0  0  0  0  0  0  0  0  0
   59.6480   28.7940   48.9170 S   0  0  0  0  0  0  0  0  0  0  0  0
   60.7700   30.1220   48.5460 C   0  0  0  0  0  0  0  0  0  0  0  0
   61.6680   30.6070   49.4200 N   0  0  0  0  0  0  0  0  0  0  0  0
   62.3770   31.6030   48.8690 C   0  0  0  0  0  0  0  0  0  0  0  0
   63.4040   32.4170   49.3450 C   0  0  0  0  0  0  0  0  0  0  0  0
   63.9400   33.3770   48.5040 C   0  0  0  0  0  0  0  0  0  0  0  0
   63.4660   33.5310   47.2100 C   0  0  0  0  0  0  0  0  0  0  0  0
   62.4390   32.7090   46.7540 C   0  0  0  0  0  0  0  0  0  0  0  0
   61.8800   31.7300   47.5830 C   0  0  0  0  0  0  0  0  0  0  0  0
   60.8930   30.8200   47.3840 N   0  0  0  0  0  0  0  0  0  0  0  0
   57.8920   28.9080   46.0660 N   0  0  0  0  0  0  0  0  0  0  0  0
   57.5400   29.6800   44.9290 C   0  0  0  0  0  0  0  0  0  0  0  0
   57.0360   28.9790   43.8410 C   0  0  0  0  0  0  0  0  0  0  0  0
   56.6580   29.6090   42.6760 C   0  0  0  0  0  0  0  0  0  0  0  0
   56.8000   30.9770   42.6290 C   0  0  0  0  0  0  0  0  0  0  0  0
   57.3020   31.6670   43.7130 C   0  0  0  0  0  0  0  0  0  0  0  0
   57.6880   31.0730   44.8890 C   0  0  0  0  0  0  0  0  0  0  0  0
   58.2140   31.7120   46.0430 C   0  0  0  0  0  0  0  0  0  0  0  0
   58.2070   31.0330   47.1390 O   0  0  0  0  0  0  0  0  0  0  0  0
   58.7590   33.0120   46.1750 N   0  0  0  0  0  0  0  0  0  0  0  0
   59.2530   33.4590   47.4970 C   0  0  0  0  0  0  0  0  0  0  0  0
   59.2930   34.9640   47.4340 C   0  0  0  0  0  0  0  0  0  0  0  0
   59.6210   35.2090   45.9980 C   0  0  0  0  0  0  0  0  0  0  0  0
   58.9530   34.0790   45.2280 C   0  0  0  0  0  0  0  0  0  0  0  0
   58.7028   26.9348   47.6607 H   0  0  0  0  0  0  0  0  0  0  0  0
   60.4571   27.1037   47.3552 H   0  0  0  0  0  0  0  0  0  0  0  0
   63.7818   32.2984   50.3712 H   0  0  0  0  0  0  0  0  0  0  0  0
   64.7514   34.0253   48.8664 H   0  0  0  0  0  0  0  0  0  0  0  0
   63.8981   34.2967   46.5489 H   0  0  0  0  0  0  0  0  0  0  0  0
   62.0618   32.8308   45.7279 H   0  0  0  0  0  0  0  0  0  0  0  0
   60.3290   30.6580   46.5450 H   0  0  0  0  0  0  0  0  0  0  0  0
   57.1350   28.6870   46.7380 H   0  0  0  0  0  0  0  0  0  0  0  0
   56.9355   27.8859   43.9120 H   0  0  0  0  0  0  0  0  0  0  0  0
   56.2600   29.0434   41.8206 H   0  0  0  0  0  0  0  0  0  0  0  0
   56.5109   31.5247   41.7199 H   0  0  0  0  0  0  0  0  0  0  0  0
   57.3989   32.7596   43.6300 H   0  0  0  0  0  0  0  0  0  0  0  0
   58.5703   33.1271   48.2931 H   0  0  0  0  0  0  0  0  0  0  0  0
   60.2436   33.0372   47.7224 H   0  0  0  0  0  0  0  0  0  0  0  0
   58.3194   35.4007   47.7012 H   0  0  0  0  0  0  0  0  0  0  0  0
   60.0095   35.4172   48.1349 H   0  0  0  0  0  0  0  0  0  0  0  0
   59.2236   36.1821   45.6738 H   0  0  0  0  0  0  0  0  0  0  0  0
   60.7073   35.2323   45.8265 H   0  0  0  0  0  0  0  0  0  0  0  0
   57.9855   34.4118   44.8241 H   0  0  0  0  0  0  0  0  0  0  0  0
   59.5683   33.7539   44.3761 H   0  0  0  0  0  0  0  0  0  0  0  0
  1  2  2  0
  2  3  1  0
  3  4  1  0
  4  5  1  0
  5  6  2  0
  6  7  1  0
  7  8  2  0
  8  9  1  0
  9 10  2  0
 10 11  1  0
 11 12  2  0
 12 13  1  0
  2 14  1  0
 14 15  1  0
 15 16  2  0
 16 17  1  0
 17 18  2  0
 18 19  1  0
 19 20  2  0
 20 21  1  0
 21 22  2  0
 21 23  1  0
 23 24  1  0
 24 25  1  0
 25 26  1  0
 26 27  1  0
 13  5  1  0
 20 15  1  0
 27 23  1  0
 12  7  1  0
  3 28  1  0
  3 29  1  0
  8 30  1  0
  9 31  1  0
 10 32  1  0
 11 33  1  0
 13 34  1  0
 14 35  1  0
 16 36  1  0
 17 37  1  0
 18 38  1  0
 19 39  1  0
 24 40  1  0
 24 41  1  0
 25 42  1  0
 25 43  1  0
 26 44  1  0
 26 45  1  0
 27 46  1  0
 27 47  1  0
M  END
>  <smiles>  (26) 
O=C(CSc1nc2ccccc2[nH]1)Nc1ccccc1C(=O)N1CCCC1

>  <score_type>  (26) 
oracle

>  <origin>  (26) 
adg

>  <m_score__min__energy>  (26) 
-9.25

>  <m_primary>  (26) 
energy

$$$$
26:0
     RDKit          3D

 36 37  0  0  0  0  0  0  0  0999 V2000
   58.1770   32.0980   49.7790 C   0  0  0  0  0  0  0  0  0  0  0  0
   59.0770   32.8240   48.8560 C   0  0  0  0  0  0  0  0  0  0  0  0
   60.3340   33.1590   49.1580 N   0  0  0  0  0  0  0  0  0  0  0  0
   60.9060   33.7730   48.0760 C   0  0  0  0  0  0  0  0  0  0  0  0
   62.3290   34.1570   47.9700 C   0  0  0  0  0  0  0  0  0  0  0  0
   63.2310   32.9610   47.7230 C   0  0  0  0  0  0  0  0  0  0  0  0
   64.1250   32.7760   48.9870 C   0  0  0  0  0  0  0  0  0  0  0  0
   62.4790   31.6700   47.5360 C   0  0  0  0  0  0  0  0  0  0  0  0
   59.9000   33.7780   47.1320 C   0  0  0  0  0  0  0  0  0  0  0  0
   60.0550   34.4030   45.7530 C   0  0  0  0  0  0  0  0  0  0  0  0
   58.4960   34.3440   44.8940 S   0  0  0  0  0  0  0  0  0  0  0  0
   57.9830   32.6940   44.5390 C   0  0  0  0  0  0  0  0  0  0  0  0
   57.1510   31.9910   45.3470 N   0  0  0  0  0  0  0  0  0  0  0  0
   56.9030   30.7910   44.7330 C   0  0  0  0  0  0  0  0  0  0  0  0
   56.1700   29.8190   45.1060 N   0  0  0  0  0  0  0  0  0  0  0  0
   57.5980   30.8090   43.5820 N   0  0  0  0  0  0  0  0  0  0  0  0
   58.2580   31.9590   43.4510 N   0  0  0  0  0  0  0  0  0  0  0  0
   58.7990   33.2050   47.6050 N   0  0  0  0  0  0  0  0  0  0  0  0
   58.4575   32.3243   50.8183 H   0  0  0  0  0  0  0  0  0  0  0  0
   57.1383   32.4140   49.6025 H   0  0  0  0  0  0  0  0  0  0  0  0
   58.2661   31.0159   49.6025 H   0  0  0  0  0  0  0  0  0  0  0  0
   62.4433   34.8647   47.1357 H   0  0  0  0  0  0  0  0  0  0  0  0
   62.6272   34.6120   48.9261 H   0  0  0  0  0  0  0  0  0  0  0  0
   63.7956   33.1654   46.8013 H   0  0  0  0  0  0  0  0  0  0  0  0
   63.5119   32.9029   49.8915 H   0  0  0  0  0  0  0  0  0  0  0  0
   64.5649   31.7678   48.9806 H   0  0  0  0  0  0  0  0  0  0  0  0
   64.9289   33.5268   48.9806 H   0  0  0  0  0  0  0  0  0  0  0  0
   62.2310   31.2443   48.5195 H   0  0  0  0  0  0  0  0  0  0  0  0
   61.5522   31.8633   46.9759 H   0  0  0  0  0  0  0  0  0  0  0  0
   63.1044   30.9592   46.9759 H   0  0  0  0  0  0  0  0  0  0  0  0
   60.3755   35.4499   45.8591 H   0  0  0  0  0  0  0  0  0  0  0  0
   60.8098   33.8440   45.1805 H   0  0  0  0  0  0  0  0  0  0  0  0
   55.6830   29.7150   46.0010 H   0  0  0  0  0  0  0  0  0  0  0  0
   57.6640   30.0660   42.8410 H   0  0  0  0  0  0  0  0  0  0  0  0
   58.8740   32.2330   42.6540 H   0  0  0  0  0  0  0  0  0  0  0  0
   57.9270   33.0990   47.0490 H   0  0  0  0  0  0  0  0  0  0  0  0
  1  2  1  0
  2  3  2  0
  3  4  1  0
  4  5  1  0
  5  6  1  0
  6  7  1  0
  6  8  1  0
  4  9  2  0
  9 10  1  0
 10 11  1  0
 11 12  1  0
 12 13  2  0
 13 14  1  0
 14 15  2  3
 14 16  1  0
 16 17  1  0
  9 18  1  0
 18  2  1  0
 17 12  1  0
  1 19  1  0
  1 20  1  0
  1 21  1  0
  5 22  1  0
  5 23  1  0
  6 24  1  0
  7 25  1  0
  7 26  1  0
  7 27  1  0
  8 28  1  0
  8 29  1  0
  8 30  1  0
 10 31  1  0
 10 32  1  0
 15 33  1  0
 16 34  1  0
 17 35  1  0
 18 36  1  0
M  END
>  <smiles>  (27) 
Cc1nc(CC(C)C)c(CSc2nc(=N)[nH][nH]2)[nH]1

>  <score_type>  (27) 
oracle

>  <origin>  (27) 
adg

>  <m_score__min__energy>  (27) 
-6.4500000000000002

>  <m_primary>  (27) 
energy

$$$$
27:0
     RDKit          3D

 55 57  0  0  0  0  0  0  0  0999 V2000
   55.1740   30.0890   44.0320 C   0  0  0  0  0  0  0  0  0  0  0  0
   55.6200   28.9790   44.8650 N   0  0  0  0  0  0  0  0  0  0  0  0
   56.9630   28.4810   44.9030 C   0  0  0  0  0  0  0  0  0  0  0  0
   57.4200   27.8820   43.8940 O   0  0  0  0  0  0  0  0  0  0  0  0
   57.8350   28.6790   46.0810 C   0  0  0  0  0  0  0  0  0  0  0  0
   58.3690   27.5590   46.7550 C   0  0  0  0  0  0  0  0  0  0  0  0
   58.0300   26.2360   46.3040 N   0  0  0  0  0  0  0  0  0  0  0  0
   56.4540   25.5100   46.3840 S   0  0  0  0  0  0  0  0  0  0  0  0
   56.2120   24.3910   45.0200 C   0  0  0  0  0  0  0  0  0  0  0  0
   56.2940   24.7860   47.6930 O   0  0  0  0  0  0  0  0  0  0  0  0
   55.4190   26.5970   46.3090 O   0  0  0  0  0  0  0  0  0  0  0  0
   59.2410   27.7610   47.8420 C   0  0  0  0  0  0  0  0  0  0  0  0
   59.5760   29.0510   48.2510 C   0  0  0  0  0  0  0  0  0  0  0  0
   59.0310   30.1540   47.6030 C   0  0  0  0  0  0  0  0  0  0  0  0
   58.1370   29.9820   46.5420 C   0  0  0  0  0  0  0  0  0  0  0  0
   57.5720   31.1250   45.9630 O   0  0  0  0  0  0  0  0  0  0  0  0
   58.1240   32.4140   46.0320 C   0  0  0  0  0  0  0  0  0  0  0  0
   58.3420   33.1110   44.8410 C   0  0  0  0  0  0  0  0  0  0  0  0
   58.9100   34.3850   44.8810 C   0  0  0  0  0  0  0  0  0  0  0  0
   59.2580   34.9390   46.0720 N   0  0  0  0  0  0  0  0  0  0  0  0
   59.0720   34.2850   47.2530 C   0  0  0  0  0  0  0  0  0  0  0  0
   59.3870   34.8400   48.3880 N   0  0  0  0  0  0  0  0  0  0  0  0
   60.0190   34.1940   49.5060 C   0  0  0  0  0  0  0  0  0  0  0  0
   59.2710   33.6470   50.5640 C   0  0  0  0  0  0  0  0  0  0  0  0
   59.9190   33.0630   51.6560 C   0  0  0  0  0  0  0  0  0  0  0  0
   61.3150   33.0320   51.7100 C   0  0  0  0  0  0  0  0  0  0  0  0
   62.0730   33.5810   50.6660 C   0  0  0  0  0  0  0  0  0  0  0  0
   63.5740   33.5800   50.7390 C   0  0  0  0  0  0  0  0  0  0  0  0
   64.2750   33.0360   49.1890 S   0  0  0  0  0  0  0  0  0  0  0  0
   63.4010   31.5910   48.6290 C   0  0  0  0  0  0  0  0  0  0  0  0
   64.1420   34.1250   48.1630 O   0  0  0  0  0  0  0  0  0  0  0  0
   65.7280   32.6970   49.3760 O   0  0  0  0  0  0  0  0  0  0  0  0
   61.4180   34.1780   49.5760 C   0  0  0  0  0  0  0  0  0  0  0  0
   58.4930   33.0090   47.2520 C   0  0  0  0  0  0  0  0  0  0  0  0
   54.8409   30.9181   44.6736 H   0  0  0  0  0  0  0  0  0  0  0  0
   56.0057   30.4281   43.3969 H   0  0  0  0  0  0  0  0  0  0  0  0
   54.3389   29.7584   43.3969 H   0  0  0  0  0  0  0  0  0  0  0  0
   55.9943   23.3842   45.4059 H   0  0  0  0  0  0  0  0  0  0  0  0
   55.3683   24.7386   44.4058 H   0  0  0  0  0  0  0  0  0  0  0  0
   57.1240   24.3590   44.4058 H   0  0  0  0  0  0  0  0  0  0  0  0
   59.6613   26.8940   48.3727 H   0  0  0  0  0  0  0  0  0  0  0  0
   60.2736   29.1967   49.0889 H   0  0  0  0  0  0  0  0  0  0  0  0
   59.3051   31.1687   47.9274 H   0  0  0  0  0  0  0  0  0  0  0  0
   58.0674   32.6580   43.8770 H   0  0  0  0  0  0  0  0  0  0  0  0
   59.0763   34.9417   43.9469 H   0  0  0  0  0  0  0  0  0  0  0  0
   58.1719   33.6789   50.5319 H   0  0  0  0  0  0  0  0  0  0  0  0
   59.3285   32.6266   52.4751 H   0  0  0  0  0  0  0  0  0  0  0  0
   61.8206   32.5757   52.5738 H   0  0  0  0  0  0  0  0  0  0  0  0
   63.9265   34.5987   50.9580 H   0  0  0  0  0  0  0  0  0  0  0  0
   63.8911   32.8898   51.5347 H   0  0  0  0  0  0  0  0  0  0  0  0
   63.0519   31.0139   49.4980 H   0  0  0  0  0  0  0  0  0  0  0  0
   62.5368   31.8977   48.0214 H   0  0  0  0  0  0  0  0  0  0  0  0
   64.0739   30.9680   48.0214 H   0  0  0  0  0  0  0  0  0  0  0  0
   62.0092   34.6372   48.7700 H   0  0  0  0  0  0  0  0  0  0  0  0
   58.3280   32.4757   48.1998 H   0  0  0  0  0  0  0  0  0  0  0  0
  1  2  1  0
  2  3  1  0
  3  4  2  0
  3  5  1  0
  5  6  2  0
  6  7  1  0
  7  8  1  0
  8  9  1  0
  8 10  2  0
  8 11  2  0
  6 12  1  0
 12 13  2  0
 13 14  1  0
 14 15  2  0
 15 16  1  0
 16 17  1  0
 17 18  1  0
 18 19  2  0
 19 20  1  0
 20 21  1  0
 21 22  2  3
 22 23  1  0
 23 24  2  0
 24 25  1  0
 25 26  2  0
 26 27  1  0
 27 28  1  0
 28 29  1  0
 29 30  1  0
 29 31  2  0
 29 32  2  0
 27 33  2  0
 21 34  1  0
 15  5  1  0
 34 17  2  0
 33 23  1  0
  1 35  1  0
  1 36  1  0
  1 37  1  0
  9 38  1  0
  9 39  1  0
  9 40  1  0
 12 41  1  0
 13 42  1  0
 14 43  1  0
 18 44  1  0
 19 45  1  0
 24 46  1  0
 25 47  1  0
 26 48  1  0
 28 49  1  0
 28 50  1  0
 30 51  1  0
 30 52  1  0
 30 53  1  0
 33 54  1  0
 34 55  1  0
M  CHG  3   2  -1   7  -1  20  -1
M  END
>  <UniqueID>  (28) 
23

>  <SMILES>  (28) 
C[N-]C(=O)c1c([N-]S(C)(=O)=O)cccc1Oc1cc[n-]c(=Nc2cccc(CS(C)(=O)=O)c2)c1

>  <Energy>  (28) 
68.13342007877114

>  <Genealogy>  (28) 
C[N-]C(=O)c1c([N-]S(C)(=O)=O)cccc1Oc1cc[n-]c(=Nc2cccc(CS(C)(=O)=O)c2)c1 (protonated)
C[N-]C(=O)c1c([N-]S(C)(=O)=O)cccc1Oc1cc[n-]c(=Nc2cccc(CS(C)(=O)=O)c2)c1 (3D coordinates assigned)
C[N-]C(=O)c1c([N-]S(C)(=O)=O)cccc1Oc1cc[n-]c(=Nc2cccc(CS(C)(=O)=O)c2)c1 (optimized conformer: 68.13342007877114 kcal/mol)

>  <smiles>  (28) 
CNC(=O)c1c(NS(C)(=O)=O)cccc1Oc1cc[nH]c(=Nc2cccc(CS(C)(=O)=O)c2)c1

>  <score_type>  (28) 
oracle

>  <origin>  (28) 
adg

>  <m_score__min__energy>  (28) 
-14.25

>  <m_primary>  (28) 
energy

$$$$
28:0
     RDKit          3D

 28 30  0  0  0  0  0  0  0  0999 V2000
   54.4770   24.5210   46.1120 O   0  0  0  0  0  0  0  0  0  0  0  0
   55.4020   25.3430   45.8820 C   0  0  0  0  0  0  0  0  0  0  0  0
   55.1560   26.7050   45.9940 O   0  0  0  0  0  0  0  0  0  0  0  0
   56.7680   24.8540   45.5260 C   0  0  0  0  0  0  0  0  0  0  0  0
   58.0340   25.6740   46.5530 S   0  0  0  0  0  0  0  0  0  0  0  0
   58.0580   27.1800   45.5850 C   0  0  0  0  0  0  0  0  0  0  0  0
   58.1290   27.2060   44.2390 N   0  0  0  0  0  0  0  0  0  0  0  0
   58.1260   28.4430   43.7430 N   0  0  0  0  0  0  0  0  0  0  0  0
   58.0530   29.4190   44.6820 C   0  0  0  0  0  0  0  0  0  0  0  0
   58.0090   30.8640   44.3620 C   0  0  0  0  0  0  0  0  0  0  0  0
   57.7090   31.4060   43.1110 C   0  0  0  0  0  0  0  0  0  0  0  0
   57.7310   32.7550   43.1570 N   0  0  0  0  0  0  0  0  0  0  0  0
   58.0430   33.0820   44.4200 C   0  0  0  0  0  0  0  0  0  0  0  0
   58.1860   34.3670   44.9390 C   0  0  0  0  0  0  0  0  0  0  0  0
   58.5310   34.4970   46.2940 C   0  0  0  0  0  0  0  0  0  0  0  0
   58.7310   33.3520   47.0910 C   0  0  0  0  0  0  0  0  0  0  0  0
   58.5810   32.0650   46.5440 C   0  0  0  0  0  0  0  0  0  0  0  0
   58.2280   31.9590   45.1940 C   0  0  0  0  0  0  0  0  0  0  0  0
   57.9790   28.7330   46.2230 S   0  0  0  0  0  0  0  0  0  0  0  0
   56.8171   23.7676   45.6912 H   0  0  0  0  0  0  0  0  0  0  0  0
   56.9635   25.0884   44.4692 H   0  0  0  0  0  0  0  0  0  0  0  0
   58.1790   28.6180   42.7160 H   0  0  0  0  0  0  0  0  0  0  0  0
   57.4853   30.8147   42.2108 H   0  0  0  0  0  0  0  0  0  0  0  0
   57.5470   33.4090   42.3630 H   0  0  0  0  0  0  0  0  0  0  0  0
   58.0332   35.2536   44.3060 H   0  0  0  0  0  0  0  0  0  0  0  0
   58.6458   35.4979   46.7357 H   0  0  0  0  0  0  0  0  0  0  0  0
   59.0067   33.4659   48.1498 H   0  0  0  0  0  0  0  0  0  0  0  0
   58.7368   31.1671   47.1600 H   0  0  0  0  0  0  0  0  0  0  0  0
  1  2  2  0
  2  3  1  0
  2  4  1  0
  4  5  1  0
  5  6  1  0
  6  7  2  0
  7  8  1  0
  8  9  2  0
  9 10  1  0
 10 11  2  0
 11 12  1  0
 12 13  1  0
 13 14  2  0
 14 15  1  0
 15 16  2  0
 16 17  1  0
 17 18  2  0
  9 19  1  0
 19  6  1  0
 18 10  1  0
 18 13  1  0
  4 20  1  0
  4 21  1  0
  8 22  1  0
 11 23  1  0
 12 24  1  0
 14 25  1  0
 15 26  1  0
 16 27  1  0
 17 28  1  0
M  CHG  2   3  -1   8   1
M  END
>  <UniqueID>  (29) 
24

>  <SMILES>  (29) 
O=C([O-])CSc1n[nH+]c(-c2c[nH]c3ccccc23)s1

>  <Energy>  (29) 
94.35088048052592

>  <Genealogy>  (29) 
O=C([O-])CSc1n[nH+]c(-c2c[nH]c3ccccc23)s1 (protonated)
O=C([O-])CSc1n[nH+]c(-c2c[nH]c3ccccc23)s1 (3D coordinates assigned)
O=C([O-])CSc1n[nH+]c(-c2c[nH]c3ccccc23)s1 (optimized conformer: 94.35088048052592 kcal/mol)

>  <smiles>  (29) 
O=C(O)CSc1nnc(-c2c[nH]c3ccccc23)s1

>  <score_type>  (29) 
oracle

>  <origin>  (29) 
adg

>  <m_score__min__energy>  (29) 
-9.1099999999999994

>  <m_primary>  (29) 
energy

$$$$
29:0
     RDKit          3D

100103  0  0  0  0  0  0  0  0999 V2000
   62.6720   32.9220   51.3470 H   0  0  0  0  0  0  0  0  0  0  0  0
   62.5260   32.1090   51.9270 O   0  0  0  0  0  0  0  0  0  0  0  0
   61.3640   31.3250   51.9130 C   0  0  0  0  0  0  0  0  0  0  0  0
   61.4420   29.9160   51.7860 C   0  0  0  0  0  0  0  0  0  0  0  0
   62.7690   29.2660   51.7020 C   0  0  0  0  0  0  0  0  0  0  0  0
   62.8990   28.2313   52.0520 H   0  0  0  0  0  0  0  0  0  0  0  0
   63.7800   29.9200   51.2140 N   0  0  0  0  0  0  0  0  0  0  0  0
   64.9720   30.2580   51.9850 C   0  0  0  0  0  0  0  0  0  0  0  0
   64.7056   30.9988   52.7533 H   0  0  0  0  0  0  0  0  0  0  0  0
   65.3592   29.3408   52.4527 H   0  0  0  0  0  0  0  0  0  0  0  0
   66.0650   30.8450   51.0780 C   0  0  0  0  0  0  0  0  0  0  0  0
   67.0492   30.5480   51.4694 H   0  0  0  0  0  0  0  0  0  0  0  0
   65.9087   30.4563   50.0609 H   0  0  0  0  0  0  0  0  0  0  0  0
   65.9970   32.3790   51.0170 C   0  0  0  0  0  0  0  0  0  0  0  0
   66.1012   32.7893   52.0323 H   0  0  0  0  0  0  0  0  0  0  0  0
   66.8119   32.7523   50.3793 H   0  0  0  0  0  0  0  0  0  0  0  0
   64.7080   32.8010   50.4510 N   0  0  0  0  0  0  0  0  0  0  0  0
   64.0340   32.0070   50.5680 H   0  0  0  0  0  0  0  0  0  0  0  0
   64.8060   33.0840   49.0080 C   0  0  0  0  0  0  0  0  0  0  0  0
   65.7310   33.6486   48.8191 H   0  0  0  0  0  0  0  0  0  0  0  0
   64.8096   32.1227   48.4732 H   0  0  0  0  0  0  0  0  0  0  0  0
   63.6070   33.9080   48.4970 C   0  0  0  0  0  0  0  0  0  0  0  0
   63.8479   34.9753   48.6101 H   0  0  0  0  0  0  0  0  0  0  0  0
   63.4463   33.6180   47.4482 H   0  0  0  0  0  0  0  0  0  0  0  0
   62.2900   33.6280   49.2420 C   0  0  0  0  0  0  0  0  0  0  0  0
   62.3370   34.0867   50.2407 H   0  0  0  0  0  0  0  0  0  0  0  0
   61.4602   34.0560   48.6604 H   0  0  0  0  0  0  0  0  0  0  0  0
   62.0640   32.1800   49.3870 N   0  0  0  0  0  0  0  0  0  0  0  0
   62.9030   31.7610   49.8500 H   0  0  0  0  0  0  0  0  0  0  0  0
   61.8830   31.5450   48.0760 C   0  0  0  0  0  0  0  0  0  0  0  0
   61.9167   32.3159   47.2921 H   0  0  0  0  0  0  0  0  0  0  0  0
   62.6884   30.8122   47.9201 H   0  0  0  0  0  0  0  0  0  0  0  0
   60.5310   30.8200   48.0150 C   0  0  0  0  0  0  0  0  0  0  0  0
   60.1913   30.7933   46.9691 H   0  0  0  0  0  0  0  0  0  0  0  0
   60.6752   29.8066   48.4178 H   0  0  0  0  0  0  0  0  0  0  0  0
   59.4540   31.5150   48.8670 C   0  0  0  0  0  0  0  0  0  0  0  0
   58.4644   31.1685   48.5344 H   0  0  0  0  0  0  0  0  0  0  0  0
   59.6437   31.2551   49.9189 H   0  0  0  0  0  0  0  0  0  0  0  0
   59.5010   32.9840   48.7560 N   0  0  0  0  0  0  0  0  0  0  0  0
   59.0490   33.3990   49.6040 H   0  0  0  0  0  0  0  0  0  0  0  0
   58.8760   33.5520   47.5450 C   0  0  0  0  0  0  0  0  0  0  0  0
   58.4136   34.5123   47.8171 H   0  0  0  0  0  0  0  0  0  0  0  0
   59.6795   33.6519   46.8004 H   0  0  0  0  0  0  0  0  0  0  0  0
   57.7920   32.6640   46.8970 C   0  0  0  0  0  0  0  0  0  0  0  0
   57.9665   31.6215   47.2015 H   0  0  0  0  0  0  0  0  0  0  0  0
   56.8161   33.0378   47.2402 H   0  0  0  0  0  0  0  0  0  0  0  0
   57.7910   32.7300   45.3670 C   0  0  0  0  0  0  0  0  0  0  0  0
   57.3678   33.6923   45.0431 H   0  0  0  0  0  0  0  0  0  0  0  0
   58.8232   32.6367   44.9983 H   0  0  0  0  0  0  0  0  0  0  0  0
   56.9840   31.6380   44.8260 N   0  0  0  0  0  0  0  0  0  0  0  0
   57.0510   31.2290   43.4570 C   0  0  0  0  0  0  0  0  0  0  0  0
   57.5310   32.0000   42.5820 O   0  0  0  0  0  0  0  0  0  0  0  0
   56.5590   29.8740   43.0610 C   0  0  0  0  0  0  0  0  0  0  0  0
   55.4863   29.9296   42.8239 H   0  0  0  0  0  0  0  0  0  0  0  0
   57.1158   29.5287   42.1774 H   0  0  0  0  0  0  0  0  0  0  0  0
   56.7660   28.9290   44.1650 N   0  0  0  0  0  0  0  0  0  0  0  0
   56.8500   29.4680   45.0600 H   0  0  0  0  0  0  0  0  0  0  0  0
   57.9580   28.0880   43.9550 C   0  0  0  0  0  0  0  0  0  0  0  0
   57.7425   27.3708   43.1493 H   0  0  0  0  0  0  0  0  0  0  0  0
   58.7909   28.7592   43.6984 H   0  0  0  0  0  0  0  0  0  0  0  0
   58.3760   27.2980   45.2180 C   0  0  0  0  0  0  0  0  0  0  0  0
   58.4584   26.2337   44.9526 H   0  0  0  0  0  0  0  0  0  0  0  0
   59.3343   27.7155   45.5607 H   0  0  0  0  0  0  0  0  0  0  0  0
   57.3800   27.4350   46.3780 C   0  0  0  0  0  0  0  0  0  0  0  0
   57.6768   26.7582   47.1928 H   0  0  0  0  0  0  0  0  0  0  0  0
   57.3847   28.4764   46.7321 H   0  0  0  0  0  0  0  0  0  0  0  0
   56.0320   27.0910   45.9330 N   0  0  0  0  0  0  0  0  0  0  0  0
   55.5070   25.9120   46.0610 C   0  0  0  0  0  0  0  0  0  0  0  0
   56.1490   24.8700   46.6600 N   0  0  0  0  0  0  0  0  0  0  0  0
   55.2360   23.8910   46.5800 C   0  0  0  0  0  0  0  0  0  0  0  0
   55.3470   22.5830   47.0460 C   0  0  0  0  0  0  0  0  0  0  0  0
   56.2668   22.2298   47.5351 H   0  0  0  0  0  0  0  0  0  0  0  0
   54.2430   21.7290   46.8700 C   0  0  0  0  0  0  0  0  0  0  0  0
   54.2946   20.6894   47.2256 H   0  0  0  0  0  0  0  0  0  0  0  0
   53.0690   22.1970   46.2400 C   0  0  0  0  0  0  0  0  0  0  0  0
   52.2085   21.5226   46.1181 H   0  0  0  0  0  0  0  0  0  0  0  0
   52.9920   23.5260   45.7650 C   0  0  0  0  0  0  0  0  0  0  0  0
   51.7360   24.0570   45.1350 C   0  0  0  0  0  0  0  0  0  0  0  0
   51.0288   24.3560   45.9227 H   0  0  0  0  0  0  0  0  0  0  0  0
   51.9795   24.9292   44.5105 H   0  0  0  0  0  0  0  0  0  0  0  0
   51.2800   23.2747   44.5105 H   0  0  0  0  0  0  0  0  0  0  0  0
   54.1070   24.3450   45.9640 C   0  0  0  0  0  0  0  0  0  0  0  0
   54.2530   25.6360   45.6220 N   0  0  0  0  0  0  0  0  0  0  0  0
   60.2550   29.1390   51.7830 C   0  0  0  0  0  0  0  0  0  0  0  0
   60.2980   27.6390   51.5800 C   0  0  0  0  0  0  0  0  0  0  0  0
   60.3124   27.1368   52.5586 H   0  0  0  0  0  0  0  0  0  0  0  0
   59.4086   27.3195   51.0170 H   0  0  0  0  0  0  0  0  0  0  0  0
   61.2042   27.3710   51.0170 H   0  0  0  0  0  0  0  0  0  0  0  0
   59.0140   29.7640   51.9980 C   0  0  0  0  0  0  0  0  0  0  0  0
   57.8580   28.9900   52.0890 O   0  0  0  0  0  0  0  0  0  0  0  0
   58.9300   31.1600   52.1260 C   0  0  0  0  0  0  0  0  0  0  0  0
   57.6800   31.7780   52.3180 C   0  0  0  0  0  0  0  0  0  0  0  0
   56.7710   31.1615   52.3778 H   0  0  0  0  0  0  0  0  0  0  0  0
   57.5830   33.1630   52.4330 C   0  0  0  0  0  0  0  0  0  0  0  0
   56.6004   33.6345   52.5817 H   0  0  0  0  0  0  0  0  0  0  0  0
   58.7270   33.9500   52.3600 C   0  0  0  0  0  0  0  0  0  0  0  0
   58.6425   35.0432   52.4488 H   0  0  0  0  0  0  0  0  0  0  0  0
   59.9830   33.3660   52.1750 C   0  0  0  0  0  0  0  0  0  0  0  0
   61.0900   34.2070   52.1150 O   0  0  0  0  0  0  0  0  0  0  0  0
   60.1060   31.9560   52.0600 C   0  0  0  0  0  0  0  0  0  0  0  0
  1  2  1  0
  2  3  1  0
  3  4  2  0
  4  5  1  0
  5  6  1  0
  5  7  2  3
  7  8  1  0
  8  9  1  0
  8 10  1  0
  8 11  1  0
 11 12  1  0
 11 13  1  0
 11 14  1  0
 14 15  1  0
 14 16  1  0
 14 17  1  0
 17 18  1  0
 17 19  1  0
 19 20  1  0
 19 21  1  0
 19 22  1  0
 22 23  1  0
 22 24  1  0
 22 25  1  0
 25 26  1  0
 25 27  1  0
 25 28  1  0
 28 29  1  0
 28 30  1  0
 30 31  1  0
 30 32  1  0
 30 33  1  0
 33 34  1  0
 33 35  1  0
 33 36  1  0
 36 37  1  0
 36 38  1  0
 36 39  1  0
 39 40  1  0
 39 41  1  0
 41 42  1  0
 41 43  1  0
 41 44  1  0
 44 45  1  0
 44 46  1  0
 44 47  1  0
 47 48  1  0
 47 49  1  0
 47 50  1  0
 50 51  1  0
 51 52  2  0
 51 53  1  0
 53 54  1  0
 53 55  1  0
 53 56  1  0
 56 57  1  0
 56 58  1  0
 58 59  1  0
 58 60  1  0
 58 61  1  0
 61 62  1  0
 61 63  1  0
 61 64  1  0
 64 65  1  0
 64 66  1  0
 64 67  1  0
 67 68  2  0
 68 69  1  0
 69 70  1  0
 70 71  2  0
 71 72  1  0
 71 73  1  0
 73 74  1  0
 73 75  2  0
 75 76  1  0
 75 77  1  0
 77 78  1  0
 78 79  1  0
 78 80  1  0
 78 81  1  0
 77 82  2  0
 82 83  1  0
  4 84  1  0
 84 85  1  0
 85 86  1  0
 85 87  1  0
 85 88  1  0
 84 89  2  0
 89 90  1  0
 89 91  1  0
 91 92  2  0
 92 93  1  0
 92 94  1  0
 94 95  1  0
 94 96  2  0
 96 97  1  0
 96 98  1  0
 98 99  1  0
 98100  2  0
100  3  1  0
 83 68  1  0
100 91  1  0
 82 70  1  0
M  CHG  5  50  -1  69  -1  83  -1  90  -1  99  -1
M  END
>  <UniqueID>  (30) 
25

>  <SMILES>  (30) 
Cc1c(C=NCCCNCCCNCCCNCCC[N-]C(=O)CNCCC/N=c2\[n-]c3cccc(C)c3[n-]2)c(O)c2c([O-])cccc2c1[O-]

>  <Energy>  (30) 
133.93699351842847

>  <Genealogy>  (30) 
Cc1c(C=NCCCNCCCNCCCNCCC[N-]C(=O)CNCCCN=c2[n-]c3cccc(C)c3[n-]2)c(O)c2c([O-])cccc2c1[O-] (protonated)
Cc1c(C=NCCCNCCCNCCCNCCC[N-]C(=O)CNCCC/N=c2\[n-]c3cccc(C)c3[n-]2)c(O)c2c([O-])cccc2c1[O-] (cis-trans isomerization)
Cc1c(C=NCCCNCCCNCCCNCCC[N-]C(=O)CNCCC/N=c2\[n-]c3cccc(C)c3[n-]2)c(O)c2c([O-])cccc2c1[O-] (3D coordinates assigned)
Cc1c(C=NCCCNCCCNCCCNCCC[N-]C(=O)CNCCC/N=c2\[n-]c3cccc(C)c3[n-]2)c(O)c2c([O-])cccc2c1[O-] (optimized conformer: 133.93699351842847 kcal/mol)

>  <smiles>  (30) 
Cc1c(C=NCCCNCCCNCCCNCCCNC(=O)CNCCCN=c2[nH]c3cccc(C)c3[nH]2)c(O)c2c(O)cccc2c1O

>  <score_type>  (30) 
oracle

>  <origin>  (30) 
adg

>  <m_score__min__energy>  (30) 
-18.550000000000001

>  <m_primary>  (30) 
energy

$$$$
30:0
     RDKit          3D

 29 30  0  0  0  0  0  0  0  0999 V2000
   54.2560   24.4890   47.1040 H   0  0  0  0  0  0  0  0  0  0  0  0
   55.1840   24.0920   47.0190 O   0  0  0  0  0  0  0  0  0  0  0  0
   56.2790   24.8520   46.6080 C   0  0  0  0  0  0  0  0  0  0  0  0
   56.0740   26.1580   46.1440 C   0  0  0  0  0  0  0  0  0  0  0  0
   54.7890   26.6860   46.0910 O   0  0  0  0  0  0  0  0  0  0  0  0
   57.1600   26.9390   45.7330 C   0  0  0  0  0  0  0  0  0  0  0  0
   56.9893   27.9585   45.3569 H   0  0  0  0  0  0  0  0  0  0  0  0
   58.4650   26.4290   45.7980 C   0  0  0  0  0  0  0  0  0  0  0  0
   59.5900   27.2690   45.3320 C   0  0  0  0  0  0  0  0  0  0  0  0
   60.5952   27.0172   45.7011 H   0  0  0  0  0  0  0  0  0  0  0  0
   59.4840   28.3140   44.4950 C   0  0  0  0  0  0  0  0  0  0  0  0
   59.8452   28.1751   43.4653 H   0  0  0  0  0  0  0  0  0  0  0  0
   58.9210   29.6370   44.8450 C   0  0  0  0  0  0  0  0  0  0  0  0
   57.8700   30.2070   44.1050 C   0  0  0  0  0  0  0  0  0  0  0  0
   57.4368   29.6569   43.2566 H   0  0  0  0  0  0  0  0  0  0  0  0
   57.3730   31.4690   44.4420 C   0  0  0  0  0  0  0  0  0  0  0  0
   56.5397   31.8985   43.8666 H   0  0  0  0  0  0  0  0  0  0  0  0
   57.9290   32.1940   45.5100 C   0  0  0  0  0  0  0  0  0  0  0  0
   57.4140   33.4930   45.8550 N   0  0  0  0  0  0  0  0  0  0  0  0
   57.2460   33.8150   47.0490 O   0  0  0  0  0  0  0  0  0  0  0  0
   57.0940   34.4030   44.8720 O   0  0  0  0  0  0  0  0  0  0  0  0
   59.0020   31.6340   46.2270 C   0  0  0  0  0  0  0  0  0  0  0  0
   59.4540   32.1935   47.0593 H   0  0  0  0  0  0  0  0  0  0  0  0
   59.4980   30.3710   45.8890 C   0  0  0  0  0  0  0  0  0  0  0  0
   60.3476   29.9508   46.4472 H   0  0  0  0  0  0  0  0  0  0  0  0
   58.6650   25.1080   46.2340 C   0  0  0  0  0  0  0  0  0  0  0  0
   59.6807   24.6861   46.2506 H   0  0  0  0  0  0  0  0  0  0  0  0
   57.5810   24.3260   46.6470 C   0  0  0  0  0  0  0  0  0  0  0  0
   57.8040   23.0270   47.0900 O   0  0  0  0  0  0  0  0  0  0  0  0
  1  2  1  0
  2  3  1  0
  3  4  2  0
  4  5  1  0
  4  6  1  0
  6  7  1  0
  6  8  2  0
  8  9  1  0
  9 10  1  0
  9 11  2  0
 11 12  1  0
 11 13  1  0
 13 14  2  0
 14 15  1  0
 14 16  1  0
 16 17  1  0
 16 18  2  0
 18 19  1  0
 19 20  2  0
 19 21  1  0
 18 22  1  0
 22 23  1  0
 22 24  2  0
 24 25  1  0
  8 26  1  0
 26 27  1  0
 26 28  2  0
 28 29  1  0
 28  3  1  0
 24 13  1  0
M  CHG  4   5  -1  19   1  21  -1  29  -1
M  END
>  <UniqueID>  (31) 
26

>  <SMILES>  (31) 
O=[N+]([O-])c1ccc(/C=C\c2cc([O-])c(O)c([O-])c2)cc1

>  <Energy>  (31) 
41.052563114575065

>  <Genealogy>  (31) 
O=[N+]([O-])c1ccc(C=Cc2cc([O-])c(O)c([O-])c2)cc1 (protonated)
O=[N+]([O-])c1ccc(/C=C\c2cc([O-])c(O)c([O-])c2)cc1 (cis-trans isomerization)
O=[N+]([O-])c1ccc(/C=C\c2cc([O-])c(O)c([O-])c2)cc1 (3D coordinates assigned)
O=[N+]([O-])c1ccc(/C=C\c2cc([O-])c(O)c([O-])c2)cc1 (optimized conformer: 41.052563114575065 kcal/mol)

>  <smiles>  (31) 
O=[N+]([O-])c1ccc(C=Cc2cc(O)c(O)c(O)c2)cc1

>  <score_type>  (31) 
oracle

>  <origin>  (31) 
adg

>  <m_score__min__energy>  (31) 
-12.619999999999999

>  <m_primary>  (31) 
energy

$$$$
31:0
     RDKit          3D

 60 63  0  0  0  0  0  0  0  0999 V2000
   53.7670   23.8766   46.3992 H   0  0  0  0  0  0  0  0  0  0  0  0
   54.6550   24.2470   45.8660 C   0  0  0  0  0  0  0  0  0  0  0  0
   55.3260   25.3290   46.3350 N   0  0  0  0  0  0  0  0  0  0  0  0
   56.4190   25.8490   45.7120 C   0  0  0  0  0  0  0  0  0  0  0  0
   56.9970   26.8740   46.2780 N   0  0  0  0  0  0  0  0  0  0  0  0
   58.1620   26.9330   47.1170 C   0  0  0  0  0  0  0  0  0  0  0  0
   58.4270   25.9230   47.8260 O   0  0  0  0  0  0  0  0  0  0  0  0
   58.9560   28.1820   47.2970 C   0  0  0  0  0  0  0  0  0  0  0  0
   58.8780   28.9420   48.4810 C   0  0  0  0  0  0  0  0  0  0  0  0
   58.1771   28.6447   49.2749 H   0  0  0  0  0  0  0  0  0  0  0  0
   59.6850   30.0720   48.6550 C   0  0  0  0  0  0  0  0  0  0  0  0
   59.5992   30.6680   49.5756 H   0  0  0  0  0  0  0  0  0  0  0  0
   60.6030   30.4500   47.6630 C   0  0  0  0  0  0  0  0  0  0  0  0
   61.7000   31.8110   47.9370 S   0  0  0  0  0  0  0  0  0  0  0  0
   62.7690   31.7900   46.8780 O   0  0  0  0  0  0  0  0  0  0  0  0
   62.3740   31.6370   49.2690 O   0  0  0  0  0  0  0  0  0  0  0  0
   60.8890   33.3640   47.9320 N   0  0  0  0  0  0  0  0  0  0  0  0
   61.1940   34.1690   46.7460 C   0  0  0  0  0  0  0  0  0  0  0  0
   61.7540   35.0687   47.0410 H   0  0  0  0  0  0  0  0  0  0  0  0
   61.8065   33.5881   46.0407 H   0  0  0  0  0  0  0  0  0  0  0  0
   59.8830   34.5710   46.0930 C   0  0  0  0  0  0  0  0  0  0  0  0
   59.8961   35.6381   45.8264 H   0  0  0  0  0  0  0  0  0  0  0  0
   59.6993   34.0139   45.1624 H   0  0  0  0  0  0  0  0  0  0  0  0
   58.8230   34.2980   47.1330 C   0  0  0  0  0  0  0  0  0  0  0  0
   58.5980   35.2090   47.7070 H   0  0  0  0  0  0  0  0  0  0  0  0
   57.8728   33.9712   46.6854 H   0  0  0  0  0  0  0  0  0  0  0  0
   59.4330   33.2370   48.0290 C   0  0  0  0  0  0  0  0  0  0  0  0
   59.1107   33.3929   49.0691 H   0  0  0  0  0  0  0  0  0  0  0  0
   59.1096   32.2330   47.7168 H   0  0  0  0  0  0  0  0  0  0  0  0
   60.6810   29.7020   46.4840 C   0  0  0  0  0  0  0  0  0  0  0  0
   61.3888   29.9978   45.6956 H   0  0  0  0  0  0  0  0  0  0  0  0
   59.8660   28.5810   46.3000 C   0  0  0  0  0  0  0  0  0  0  0  0
   59.9367   28.0045   45.3658 H   0  0  0  0  0  0  0  0  0  0  0  0
   56.9050   25.2210   44.5340 C   0  0  0  0  0  0  0  0  0  0  0  0
   58.0620   25.7030   43.8960 O   0  0  0  0  0  0  0  0  0  0  0  0
   58.1180   26.8060   42.9900 C   0  0  0  0  0  0  0  0  0  0  0  0
   59.0437   26.7396   42.3995 H   0  0  0  0  0  0  0  0  0  0  0  0
   57.2370   26.7640   42.3326 H   0  0  0  0  0  0  0  0  0  0  0  0
   58.1000   28.1400   43.7450 C   0  0  0  0  0  0  0  0  0  0  0  0
   57.9058   27.9465   44.8103 H   0  0  0  0  0  0  0  0  0  0  0  0
   59.0762   28.6289   43.6106 H   0  0  0  0  0  0  0  0  0  0  0  0
   57.0120   29.0720   43.2000 C   0  0  0  0  0  0  0  0  0  0  0  0
   56.9744   28.9843   42.1041 H   0  0  0  0  0  0  0  0  0  0  0  0
   56.0432   28.7840   43.6341 H   0  0  0  0  0  0  0  0  0  0  0  0
   57.3030   30.4560   43.5630 N   0  0  0  0  0  0  0  0  0  0  0  0
   57.3780   30.9510   44.8830 C   0  0  0  0  0  0  0  0  0  0  0  0
   57.1690   30.2310   45.9010 O   0  0  0  0  0  0  0  0  0  0  0  0
   57.7090   32.3880   44.9420 C   0  0  0  0  0  0  0  0  0  0  0  0
   58.6776   32.5494   45.4377 H   0  0  0  0  0  0  0  0  0  0  0  0
   56.9794   32.9747   45.5195 H   0  0  0  0  0  0  0  0  0  0  0  0
   57.7730   32.7960   43.4630 C   0  0  0  0  0  0  0  0  0  0  0  0
   58.7469   33.2575   43.2428 H   0  0  0  0  0  0  0  0  0  0  0  0
   56.9852   33.5272   43.2290 H   0  0  0  0  0  0  0  0  0  0  0  0
   57.5940   31.5180   42.6200 C   0  0  0  0  0  0  0  0  0  0  0  0
   58.5166   31.2940   42.0645 H   0  0  0  0  0  0  0  0  0  0  0  0
   56.7881   31.6324   41.8801 H   0  0  0  0  0  0  0  0  0  0  0  0
   56.2180   24.0870   44.0510 C   0  0  0  0  0  0  0  0  0  0  0  0
   56.5765   23.5776   43.1444 H   0  0  0  0  0  0  0  0  0  0  0  0
   55.0900   23.6070   44.7120 C   0  0  0  0  0  0  0  0  0  0  0  0
   54.5494   22.7308   44.3247 H   0  0  0  0  0  0  0  0  0  0  0  0
  1  2  1  0
  2  3  1  0
  3  4  1  0
  4  5  2  0
  5  6  1  0
  6  7  2  0
  6  8  1  0
  8  9  2  0
  9 10  1  0
  9 11  1  0
 11 12  1  0
 11 13  2  0
 13 14  1  0
 14 15  2  0
 14 16  2  0
 14 17  1  0
 17 18  1  0
 18 19  1  0
 18 20  1  0
 18 21  1  0
 21 22  1  0
 21 23  1  0
 21 24  1  0
 24 25  1  0
 24 26  1  0
 24 27  1  0
 27 28  1  0
 27 29  1  0
 13 30  1  0
 30 31  1  0
 30 32  2  0
 32 33  1  0
  4 34  1  0
 34 35  1  0
 35 36  1  0
 36 37  1  0
 36 38  1  0
 36 39  1  0
 39 40  1  0
 39 41  1  0
 39 42  1  0
 42 43  1  0
 42 44  1  0
 42 45  1  0
 45 46  1  0
 46 47  2  0
 46 48  1  0
 48 49  1  0
 48 50  1  0
 48 51  1  0
 51 52  1  0
 51 53  1  0
 51 54  1  0
 54 55  1  0
 54 56  1  0
 34 57  2  0
 57 58  1  0
 57 59  1  0
 59 60  1  0
 59  2  2  0
 32  8  1  0
 54 45  1  0
 27 17  1  0
M  CHG  1   3  -1
M  END
>  <UniqueID>  (32) 
27

>  <SMILES>  (32) 
O=C(/N=c1/[n-]cccc1OCCCN1CCCC1=O)c1ccc(S(=O)(=O)N2CCCC2)cc1

>  <Energy>  (32) 
77.33729113271583

>  <Genealogy>  (32) 
O=C(N=c1[n-]cccc1OCCCN1CCCC1=O)c1ccc(S(=O)(=O)N2CCCC2)cc1 (protonated)
O=C(/N=c1/[n-]cccc1OCCCN1CCCC1=O)c1ccc(S(=O)(=O)N2CCCC2)cc1 (cis-trans isomerization)
O=C(/N=c1/[n-]cccc1OCCCN1CCCC1=O)c1ccc(S(=O)(=O)N2CCCC2)cc1 (3D coordinates assigned)
O=C(/N=c1/[n-]cccc1OCCCN1CCCC1=O)c1ccc(S(=O)(=O)N2CCCC2)cc1 (nonaromatic ring conformer: 77.33729113271583 kcal/mol)

>  <smiles>  (32) 
O=C(N=c1[nH]cccc1OCCCN1CCCC1=O)c1ccc(S(=O)(=O)N2CCCC2)cc1

>  <score_type>  (32) 
oracle

>  <origin>  (32) 
adg

>  <m_score__min__energy>  (32) 
-11.59

>  <m_primary>  (32) 
energy

$$$$
32:0
     RDKit          3D

 56 58  0  0  0  0  0  0  0  0999 V2000
   57.7700   30.7470   46.1800 C   0  0  0  0  0  0  0  0  0  0  0  0
   56.9190   30.7920   45.0570 O   0  0  0  0  0  0  0  0  0  0  0  0
   57.3980   29.8980   44.0750 C   0  0  0  0  0  0  0  0  0  0  0  0
   58.5280   29.0480   44.6650 C   0  0  0  0  0  0  0  0  0  0  0  0
   57.9750   27.9390   45.4650 N   0  0  0  0  0  0  0  0  0  0  0  0
   56.6540   27.6310   45.2660 C   0  0  0  0  0  0  0  0  0  0  0  0
   56.0300   26.6210   45.9940 C   0  0  0  0  0  0  0  0  0  0  0  0
   54.6850   26.3370   45.7780 O   0  0  0  0  0  0  0  0  0  0  0  0
   56.7630   25.9010   46.9320 C   0  0  0  0  0  0  0  0  0  0  0  0
   56.2190   24.9800   47.5960 O   0  0  0  0  0  0  0  0  0  0  0  0
   58.1080   26.2050   47.1330 C   0  0  0  0  0  0  0  0  0  0  0  0
   58.7160   27.2460   46.4060 C   0  0  0  0  0  0  0  0  0  0  0  0
   60.1920   27.5130   46.6650 C   0  0  0  0  0  0  0  0  0  0  0  0
   60.4180   28.2020   47.9380 N   0  0  0  0  0  0  0  0  0  0  0  0
   60.6500   29.6150   48.0740 C   0  0  0  0  0  0  0  0  0  0  0  0
   60.2420   30.3290   49.2140 C   0  0  0  0  0  0  0  0  0  0  0  0
   60.3260   31.7230   49.2410 C   0  0  0  0  0  0  0  0  0  0  0  0
   60.8120   32.4270   48.1280 C   0  0  0  0  0  0  0  0  0  0  0  0
   60.7310   33.9390   48.0810 C   0  0  0  0  0  0  0  0  0  0  0  0
   59.4620   34.4460   47.5050 N   0  0  0  0  0  0  0  0  0  0  0  0
   59.6310   35.3900   46.3720 C   0  0  0  0  0  0  0  0  0  0  0  0
   59.3180   34.7350   45.0180 C   0  0  0  0  0  0  0  0  0  0  0  0
   57.8670   34.2030   44.9660 C   0  0  0  0  0  0  0  0  0  0  0  0
   57.8090   33.0590   44.1540 O   0  0  0  0  0  0  0  0  0  0  0  0
   57.3180   33.8630   46.3690 C   0  0  0  0  0  0  0  0  0  0  0  0
   58.4420   33.3900   47.2980 C   0  0  0  0  0  0  0  0  0  0  0  0
   61.3390   31.7050   47.0460 C   0  0  0  0  0  0  0  0  0  0  0  0
   61.2580   30.3120   47.0200 C   0  0  0  0  0  0  0  0  0  0  0  0
   57.1663   30.7789   47.0990 H   0  0  0  0  0  0  0  0  0  0  0  0
   58.3564   29.8166   46.1586 H   0  0  0  0  0  0  0  0  0  0  0  0
   58.4513   31.6104   46.1586 H   0  0  0  0  0  0  0  0  0  0  0  0
   56.5789   29.2416   43.7461 H   0  0  0  0  0  0  0  0  0  0  0  0
   57.7791   30.4682   43.2150 H   0  0  0  0  0  0  0  0  0  0  0  0
   59.1365   28.6359   43.8465 H   0  0  0  0  0  0  0  0  0  0  0  0
   59.1482   29.6820   45.3157 H   0  0  0  0  0  0  0  0  0  0  0  0
   56.0760   28.1923   44.5171 H   0  0  0  0  0  0  0  0  0  0  0  0
   58.6968   25.6294   47.8624 H   0  0  0  0  0  0  0  0  0  0  0  0
   60.7273   26.5522   46.6830 H   0  0  0  0  0  0  0  0  0  0  0  0
   60.5622   28.1645   45.8597 H   0  0  0  0  0  0  0  0  0  0  0  0
   60.4780   27.6090   48.7970 H   0  0  0  0  0  0  0  0  0  0  0  0
   59.8546   29.7871   50.0894 H   0  0  0  0  0  0  0  0  0  0  0  0
   60.0094   32.2725   50.1398 H   0  0  0  0  0  0  0  0  0  0  0  0
   60.8264   34.3248   49.1067 H   0  0  0  0  0  0  0  0  0  0  0  0
   61.5445   34.2863   47.4272 H   0  0  0  0  0  0  0  0  0  0  0  0
   58.9523   36.2433   46.5179 H   0  0  0  0  0  0  0  0  0  0  0  0
   60.6826   35.7124   46.3556 H   0  0  0  0  0  0  0  0  0  0  0  0
   59.4538   35.4806   44.2207 H   0  0  0  0  0  0  0  0  0  0  0  0
   60.0019   33.8845   44.8805 H   0  0  0  0  0  0  0  0  0  0  0  0
   57.2400   35.0028   44.5449 H   0  0  0  0  0  0  0  0  0  0  0  0
   57.0240   32.5310   44.4590 H   0  0  0  0  0  0  0  0  0  0  0  0
   56.8492   34.7603   46.7992 H   0  0  0  0  0  0  0  0  0  0  0  0
   56.5803   33.0531   46.2703 H   0  0  0  0  0  0  0  0  0  0  0  0
   58.0088   33.1168   48.2715 H   0  0  0  0  0  0  0  0  0  0  0  0
   58.9337   32.5249   46.8291 H   0  0  0  0  0  0  0  0  0  0  0  0
   61.8188   32.2403   46.2134 H   0  0  0  0  0  0  0  0  0  0  0  0
   61.6741   29.7567   46.1665 H   0  0  0  0  0  0  0  0  0  0  0  0
  1  2  1  0
  2  3  1  0
  3  4  1  0
  4  5  1  0
  5  6  1  0
  6  7  2  0
  7  8  1  0
  7  9  1  0
  9 10  2  0
  9 11  1  0
 11 12  2  0
 12 13  1  0
 13 14  1  0
 14 15  1  0
 15 16  2  0
 16 17  1  0
 17 18  2  0
 18 19  1  0
 19 20  1  0
 20 21  1  0
 21 22  1  0
 22 23  1  0
 23 24  1  0
 23 25  1  0
 25 26  1  0
 18 27  1  0
 27 28  2  0
 12  5  1  0
 28 15  1  0
 26 20  1  0
  1 29  1  0
  1 30  1  0
  1 31  1  0
  3 32  1  0
  3 33  1  0
  4 34  1  0
  4 35  1  0
  6 36  1  0
 11 37  1  0
 13 38  1  0
 13 39  1  0
 14 40  1  0
 16 41  1  0
 17 42  1  0
 19 43  1  0
 19 44  1  0
 21 45  1  0
 21 46  1  0
 22 47  1  0
 22 48  1  0
 23 49  1  0
 24 50  1  0
 25 51  1  0
 25 52  1  0
 26 53  1  0
 26 54  1  0
 27 55  1  0
 28 56  1  0
M  CHG  1   8  -1
M  END
>  <UniqueID>  (33) 
28

>  <SMILES>  (33) 
COCCn1cc([O-])c(=O)cc1CNc1ccc(CN2CCC(O)CC2)cc1

>  <Energy>  (33) 
66.94160298213376

>  <Genealogy>  (33) 
COCCn1cc([O-])c(=O)cc1CNc1ccc(CN2CCC(O)CC2)cc1 (protonated)
COCCn1cc([O-])c(=O)cc1CNc1ccc(CN2CCC(O)CC2)cc1 (3D coordinates assigned)
COCCn1cc([O-])c(=O)cc1CNc1ccc(CN2CCC(O)CC2)cc1 (nonaromatic ring conformer: 66.94160298213376 kcal/mol)

>  <smiles>  (33) 
COCCn1cc(O)c(=O)cc1CNc1ccc(CN2CCC(O)CC2)cc1

>  <score_type>  (33) 
oracle

>  <origin>  (33) 
adg

>  <m_score__min__energy>  (33) 
-11.720000000000001

>  <m_primary>  (33) 
energy

$$$$
33:0
     RDKit          3D

 55 58  0  0  0  0  0  0  0  0999 V2000
   60.7370   28.2580   48.8990 O   0  0  0  0  0  0  0  0  0  0  0  0
   60.3530   29.4430   48.7180 C   0  0  0  0  0  0  0  0  0  0  0  0
   58.9240   29.6850   48.3050 C   0  0  0  0  0  0  0  0  0  0  0  0
   58.5750   28.9290   47.1020 N   0  0  0  0  0  0  0  0  0  0  0  0
   59.2730   29.0890   45.8580 C   0  0  0  0  0  0  0  0  0  0  0  0
   60.2330   29.9010   45.7670 O   0  0  0  0  0  0  0  0  0  0  0  0
   58.8970   28.2490   44.6710 C   0  0  0  0  0  0  0  0  0  0  0  0
   57.8400   27.2380   45.0430 C   0  0  0  0  0  0  0  0  0  0  0  0
   58.1020   25.8660   44.9050 C   0  0  0  0  0  0  0  0  0  0  0  0
   57.1130   24.9260   45.2210 C   0  0  0  0  0  0  0  0  0  0  0  0
   57.3520   23.5490   45.1000 C   0  0  0  0  0  0  0  0  0  0  0  0
   56.3450   22.6340   45.4220 C   0  0  0  0  0  0  0  0  0  0  0  0
   55.0980   23.0880   45.8650 C   0  0  0  0  0  0  0  0  0  0  0  0
   54.8520   24.4580   45.9890 C   0  0  0  0  0  0  0  0  0  0  0  0
   55.8540   25.3810   45.6700 C   0  0  0  0  0  0  0  0  0  0  0  0
   55.6180   26.7150   45.7850 N   0  0  0  0  0  0  0  0  0  0  0  0
   56.5640   27.6440   45.4840 C   0  0  0  0  0  0  0  0  0  0  0  0
   56.2850   28.8670   45.6030 O   0  0  0  0  0  0  0  0  0  0  0  0
   61.2850   30.5100   48.9510 N   0  0  0  0  0  0  0  0  0  0  0  0
   61.5020   31.6510   48.1120 C   0  0  0  0  0  0  0  0  0  0  0  0
   62.8100   31.9790   47.7400 C   0  0  0  0  0  0  0  0  0  0  0  0
   63.0520   33.0800   46.9130 C   0  0  0  0  0  0  0  0  0  0  0  0
   61.9860   33.8460   46.4360 C   0  0  0  0  0  0  0  0  0  0  0  0
   60.6700   33.5100   46.7780 C   0  0  0  0  0  0  0  0  0  0  0  0
   59.3350   34.4540   46.1270 S   0  0  0  0  0  0  0  0  0  0  0  0
   58.0820   34.2340   46.9260 O   0  0  0  0  0  0  0  0  0  0  0  0
   59.6970   35.9110   46.1900 O   0  0  0  0  0  0  0  0  0  0  0  0
   59.0470   34.0090   44.4750 N   0  0  0  0  0  0  0  0  0  0  0  0
   58.3150   33.0040   44.1020 C   0  0  0  0  0  0  0  0  0  0  0  0
   58.1250   32.5420   42.7030 C   0  0  0  0  0  0  0  0  0  0  0  0
   57.2690   31.2750   42.8620 C   0  0  0  0  0  0  0  0  0  0  0  0
   56.8240   31.2100   44.3340 C   0  0  0  0  0  0  0  0  0  0  0  0
   57.5730   32.2380   45.0250 N   0  0  0  0  0  0  0  0  0  0  0  0
   60.4290   32.4060   47.6090 C   0  0  0  0  0  0  0  0  0  0  0  0
   58.2586   29.3776   49.1252 H   0  0  0  0  0  0  0  0  0  0  0  0
   58.8067   30.7562   48.0840 H   0  0  0  0  0  0  0  0  0  0  0  0
   57.7750   28.2590   47.1540 H   0  0  0  0  0  0  0  0  0  0  0  0
   58.5076   28.9019   43.8760 H   0  0  0  0  0  0  0  0  0  0  0  0
   59.7912   27.7119   44.3218 H   0  0  0  0  0  0  0  0  0  0  0  0
   59.0861   25.5283   44.5479 H   0  0  0  0  0  0  0  0  0  0  0  0
   58.3315   23.1892   44.7519 H   0  0  0  0  0  0  0  0  0  0  0  0
   56.5337   21.5545   45.3268 H   0  0  0  0  0  0  0  0  0  0  0  0
   54.3087   22.3643   46.1165 H   0  0  0  0  0  0  0  0  0  0  0  0
   53.8702   24.8109   46.3375 H   0  0  0  0  0  0  0  0  0  0  0  0
   63.6513   31.3684   48.0995 H   0  0  0  0  0  0  0  0  0  0  0  0
   64.0838   33.3434   46.6375 H   0  0  0  0  0  0  0  0  0  0  0  0
   62.1804   34.7151   45.7903 H   0  0  0  0  0  0  0  0  0  0  0  0
   57.5985   33.3008   42.1055 H   0  0  0  0  0  0  0  0  0  0  0  0
   59.0739   32.3573   42.1781 H   0  0  0  0  0  0  0  0  0  0  0  0
   56.3891   31.3293   42.2041 H   0  0  0  0  0  0  0  0  0  0  0  0
   57.8433   30.3780   42.5870 H   0  0  0  0  0  0  0  0  0  0  0  0
   55.7443   31.4042   44.4155 H   0  0  0  0  0  0  0  0  0  0  0  0
   57.0111   30.2163   44.7671 H   0  0  0  0  0  0  0  0  0  0  0  0
   57.5100   32.4340   46.0490 H   0  0  0  0  0  0  0  0  0  0  0  0
   59.3961   32.1302   47.8679 H   0  0  0  0  0  0  0  0  0  0  0  0
  1  2  2  0
  2  3  1  0
  3  4  1  0
  4  5  1  0
  5  6  2  0
  5  7  1  0
  7  8  1  0
  8  9  2  0
  9 10  1  0
 10 11  2  0
 11 12  1  0
 12 13  2  0
 13 14  1  0
 14 15  2  0
 15 16  1  0
 16 17  1  0
 17 18  2  0
  2 19  1  0
 19 20  1  0
 20 21  2  0
 21 22  1  0
 22 23  2  0
 23 24  1  0
 24 25  1  0
 25 26  2  0
 25 27  2  0
 25 28  1  0
 28 29  2  3
 29 30  1  0
 30 31  1  0
 31 32  1  0
 32 33  1  0
 24 34  2  0
 17  8  1  0
 34 20  1  0
 15 10  1  0
 33 29  1  0
  3 35  1  0
  3 36  1  0
  4 37  1  0
  7 38  1  0
  7 39  1  0
  9 40  1  0
 11 41  1  0
 12 42  1  0
 13 43  1  0
 14 44  1  0
 21 45  1  0
 22 46  1  0
 23 47  1  0
 30 48  1  0
 30 49  1  0
 31 50  1  0
 31 51  1  0
 32 52  1  0
 32 53  1  0
 33 54  1  0
 34 55  1  0
M  CHG  2  16  -1  19  -1
M  END
>  <UniqueID>  (34) 
29

>  <SMILES>  (34) 
O=C(CNC(=O)Cc1cc2ccccc2[n-]c1=O)[N-]c1cccc(S(=O)(=O)N=C2CCCN2)c1

>  <Energy>  (34) 
70.57132801287325

>  <Genealogy>  (34) 
O=C(CNC(=O)Cc1cc2ccccc2[n-]c1=O)[N-]c1cccc(S(=O)(=O)N=C2CCCN2)c1 (protonated)
O=C(CNC(=O)Cc1cc2ccccc2[n-]c1=O)[N-]c1cccc(S(=O)(=O)N=C2CCCN2)c1 (3D coordinates assigned)
O=C(CNC(=O)Cc1cc2ccccc2[n-]c1=O)[N-]c1cccc(S(=O)(=O)N=C2CCCN2)c1 (nonaromatic ring conformer: 70.57132801287325 kcal/mol)

>  <smiles>  (34) 
O=C(Cc1cc2ccccc2[nH]c1=O)NCC(=O)Nc1cccc(S(=O)(=O)N=C2CCCN2)c1

>  <score_type>  (34) 
oracle

>  <origin>  (34) 
adg

>  <m_score__min__energy>  (34) 
-13.539999999999999

>  <m_primary>  (34) 
energy

$$$$
34:0
     RDKit          3D

 47 49  0  0  0  0  0  0  0  0999 V2000
   54.2255   24.6791   46.2012 H   0  0  0  0  0  0  0  0  0  0  0  0
   55.2200   25.0400   45.9000 C   0  0  0  0  0  0  0  0  0  0  0  0
   57.6700   31.7490   45.7480 N   0  0  0  0  0  0  0  0  0  0  0  0
   57.6280   31.2760   44.4830 C   0  0  0  0  0  0  0  0  0  0  0  0
   57.2550   30.0740   44.1590 N   0  0  0  0  0  0  0  0  0  0  0  0
   56.3890   29.2110   44.9170 C   0  0  0  0  0  0  0  0  0  0  0  0
   55.1440   29.3550   44.8060 O   0  0  0  0  0  0  0  0  0  0  0  0
   56.8930   28.1600   45.7530 N   0  0  0  0  0  0  0  0  0  0  0  0
   56.7310   26.8680   45.6380 C   0  0  0  0  0  0  0  0  0  0  0  0
   55.5190   26.3600   45.9900 N   0  0  0  0  0  0  0  0  0  0  0  0
   58.1060   33.0370   45.7820 C   0  0  0  0  0  0  0  0  0  0  0  0
   58.1840   33.8060   47.0590 C   0  0  0  0  0  0  0  0  0  0  0  0
   58.1136   33.1122   47.9097 H   0  0  0  0  0  0  0  0  0  0  0  0
   59.1415   34.3456   47.1042 H   0  0  0  0  0  0  0  0  0  0  0  0
   57.3544   34.5269   47.1042 H   0  0  0  0  0  0  0  0  0  0  0  0
   58.4030   33.5950   44.5410 C   0  0  0  0  0  0  0  0  0  0  0  0
   58.7559   34.6212   44.3611 H   0  0  0  0  0  0  0  0  0  0  0  0
   58.1270   32.4230   43.3650 S   0  0  0  0  0  0  0  0  0  0  0  0
   57.7510   25.9810   45.1910 C   0  0  0  0  0  0  0  0  0  0  0  0
   59.0330   26.4760   44.8910 O   0  0  0  0  0  0  0  0  0  0  0  0
   59.4180   27.8400   44.6950 C   0  0  0  0  0  0  0  0  0  0  0  0
   59.9737   27.9208   43.7491 H   0  0  0  0  0  0  0  0  0  0  0  0
   58.5050   28.4531   44.6705 H   0  0  0  0  0  0  0  0  0  0  0  0
   60.3110   28.3540   45.8450 C   0  0  2  0  0  0  0  0  0  0  0  0
   61.3365   28.0253   45.6205 H   0  0  0  0  0  0  0  0  0  0  0  0
   59.9600   27.7220   47.2150 C   0  0  0  0  0  0  0  0  0  0  0  0
   59.3712   26.8083   47.0464 H   0  0  0  0  0  0  0  0  0  0  0  0
   60.8994   27.4924   47.7392 H   0  0  0  0  0  0  0  0  0  0  0  0
   59.1450   28.6860   48.0890 C   0  0  0  0  0  0  0  0  0  0  0  0
   58.2167   28.9473   47.5598 H   0  0  0  0  0  0  0  0  0  0  0  0
   58.9295   28.1820   49.0427 H   0  0  0  0  0  0  0  0  0  0  0  0
   59.8960   29.9340   48.3870 N   0  0  2  0  0  0  0  0  0  0  0  0
   60.5070   29.7420   49.2170 H   0  0  0  0  0  0  0  0  0  0  0  0
   58.9590   30.9990   48.7860 C   0  0  0  0  0  0  0  0  0  0  0  0
   58.9113   31.0532   49.8836 H   0  0  0  0  0  0  0  0  0  0  0  0
   59.3074   31.9627   48.3861 H   0  0  0  0  0  0  0  0  0  0  0  0
   57.9588   30.7762   48.3861 H   0  0  0  0  0  0  0  0  0  0  0  0
   60.7810   30.3920   47.2770 C   0  0  0  0  0  0  0  0  0  0  0  0
   60.7967   31.4919   47.2703 H   0  0  0  0  0  0  0  0  0  0  0  0
   61.7821   29.9723   47.4551 H   0  0  0  0  0  0  0  0  0  0  0  0
   60.3090   29.8990   45.9020 C   0  0  0  0  0  0  0  0  0  0  0  0
   59.2885   30.2658   45.7177 H   0  0  0  0  0  0  0  0  0  0  0  0
   60.9968   30.2821   45.1338 H   0  0  0  0  0  0  0  0  0  0  0  0
   57.4340   24.6120   45.0710 C   0  0  0  0  0  0  0  0  0  0  0  0
   58.1901   23.9080   44.6932 H   0  0  0  0  0  0  0  0  0  0  0  0
   56.1710   24.1440   45.4270 C   0  0  0  0  0  0  0  0  0  0  0  0
   55.9288   23.0750   45.3345 H   0  0  0  0  0  0  0  0  0  0  0  0
  1  2  1  0
  2  3  1  0
  3  4  1  0
  4  5  2  0
  5  6  1  0
  6  7  2  0
  6  8  1  0
  8  9  2  0
  9 10  1  0
 10 11  1  0
 11 12  1  0
 12 13  1  0
 12 14  1  0
 12 15  1  0
 11 16  2  0
 16 17  1  0
 16 18  1  0
  4 19  1  0
 19 20  1  0
 20 21  1  0
 21 22  1  0
 21 23  1  0
 21 24  1  0
 24 25  1  1
 24 26  1  0
 26 27  1  0
 26 28  1  0
 26 29  1  0
 29 30  1  0
 29 31  1  0
 29 32  1  0
 32 33  1  6
 32 34  1  0
 34 35  1  0
 34 36  1  0
 34 37  1  0
 32 38  1  0
 38 39  1  0
 38 40  1  0
 38 41  1  0
 41 42  1  0
 41 43  1  0
 19 44  2  0
 44 45  1  0
 44 46  1  0
 46 47  1  0
 46  2  2  0
 18  9  1  0
 41 24  1  0
M  CHG  3   3  -1  10  -1  32   1
M  END
>  <UniqueID>  (35) 
30

>  <SMILES>  (35) 
Cc1cs/c(=N/C(=O)/N=c2/[n-]cccc2OCC2CC[NH+](C)CC2)[n-]1

>  <Energy>  (35) 
98.88198744576555

>  <Genealogy>  (35) 
Cc1csc(=NC(=O)N=c2[n-]cccc2OCC2CC[NH+](C)CC2)[n-]1 (protonated)
Cc1cs/c(=N/C(=O)/N=c2/[n-]cccc2OCC2CC[NH+](C)CC2)[n-]1 (cis-trans isomerization)
Cc1cs/c(=N/C(=O)/N=c2/[n-]cccc2OCC2CC[NH+](C)CC2)[n-]1 (3D coordinates assigned)
Cc1cs/c(=N/C(=O)/N=c2/[n-]cccc2OCC2CC[NH+](C)CC2)[n-]1 (nonaromatic ring conformer: 98.88198744576555 kcal/mol)

>  <smiles>  (35) 
Cc1csc(=NC(=O)N=c2[nH]cccc2OCC2CCN(C)CC2)[nH]1

>  <score_type>  (35) 
oracle

>  <origin>  (35) 
adg

>  <m_score__min__energy>  (35) 
-9.6799999999999997

>  <m_primary>  (35) 
energy

$$$$
35:0
     RDKit          3D

 40 42  0  0  0  0  0  0  0  0999 V2000
   59.6530   36.2090   45.0730 O   0  0  0  0  0  0  0  0  0  0  0  0
   59.4060   35.1350   45.5970 C   0  0  0  0  0  0  0  0  0  0  0  0
   59.2720   33.9020   44.7510 C   0  0  0  0  0  0  0  0  0  0  0  0
   57.5200   33.5330   44.3800 S   0  0  0  0  0  0  0  0  0  0  0  0
   57.6430   31.7800   44.7330 C   0  0  0  0  0  0  0  0  0  0  0  0
   56.5390   30.9950   44.6610 N   0  0  0  0  0  0  0  0  0  0  0  0
   56.6090   29.6620   44.9070 C   0  0  0  0  0  0  0  0  0  0  0  0
   55.5650   28.9640   44.8170 O   0  0  0  0  0  0  0  0  0  0  0  0
   57.8390   29.0730   45.2510 C   0  0  0  0  0  0  0  0  0  0  0  0
   58.9760   29.9070   45.3010 C   0  0  0  0  0  0  0  0  0  0  0  0
   58.8420   31.2370   45.0600 N   0  0  0  0  0  0  0  0  0  0  0  0
   60.3280   29.3820   45.7050 C   0  0  0  0  0  0  0  0  0  0  0  0
   60.4470   27.8670   45.5200 C   0  0  0  0  0  0  0  0  0  0  0  0
   59.2440   27.1600   46.1450 C   0  0  0  0  0  0  0  0  0  0  0  0
   57.9480   27.5750   45.4400 C   0  0  0  0  0  0  0  0  0  0  0  0
   59.2840   35.0370   47.3870 S   0  0  0  0  0  0  0  0  0  0  0  0
   59.5300   33.2280   47.4630 C   0  0  0  0  0  0  0  0  0  0  0  0
   60.9980   32.9090   47.4250 C   0  0  0  0  0  0  0  0  0  0  0  0
   61.4750   31.7090   47.9790 C   0  0  0  0  0  0  0  0  0  0  0  0
   62.8430   31.4200   47.9660 C   0  0  0  0  0  0  0  0  0  0  0  0
   63.7440   32.3240   47.3950 C   0  0  0  0  0  0  0  0  0  0  0  0
   63.2780   33.5170   46.8340 C   0  0  0  0  0  0  0  0  0  0  0  0
   61.9110   33.8120   46.8520 C   0  0  0  0  0  0  0  0  0  0  0  0
   59.8130   34.0563   43.8057 H   0  0  0  0  0  0  0  0  0  0  0  0
   59.6936   33.0527   45.3086 H   0  0  0  0  0  0  0  0  0  0  0  0
   61.0958   29.8740   45.0899 H   0  0  0  0  0  0  0  0  0  0  0  0
   60.4658   29.6003   46.7743 H   0  0  0  0  0  0  0  0  0  0  0  0
   60.4865   27.6346   44.4456 H   0  0  0  0  0  0  0  0  0  0  0  0
   61.3647   27.5170   46.0153 H   0  0  0  0  0  0  0  0  0  0  0  0
   59.3747   26.0719   46.0500 H   0  0  0  0  0  0  0  0  0  0  0  0
   59.1774   27.4442   47.2056 H   0  0  0  0  0  0  0  0  0  0  0  0
   57.9149   27.0924   44.4521 H   0  0  0  0  0  0  0  0  0  0  0  0
   57.1081   27.2586   46.0760 H   0  0  0  0  0  0  0  0  0  0  0  0
   59.0966   32.8399   48.3966 H   0  0  0  0  0  0  0  0  0  0  0  0
   59.0352   32.7588   46.5999 H   0  0  0  0  0  0  0  0  0  0  0  0
   60.7687   30.9934   48.4251 H   0  0  0  0  0  0  0  0  0  0  0  0
   63.2106   30.4809   48.4052 H   0  0  0  0  0  0  0  0  0  0  0  0
   64.8202   32.0965   47.3871 H   0  0  0  0  0  0  0  0  0  0  0  0
   63.9869   34.2239   46.3783 H   0  0  0  0  0  0  0  0  0  0  0  0
   61.5484   34.7546   46.4160 H   0  0  0  0  0  0  0  0  0  0  0  0
  1  2  2  0
  2  3  1  0
  3  4  1  0
  4  5  1  0
  5  6  2  0
  6  7  1  0
  7  8  2  0
  7  9  1  0
  9 10  2  0
 10 11  1  0
 10 12  1  0
 12 13  1  0
 13 14  1  0
 14 15  1  0
  2 16  1  0
 16 17  1  0
 17 18  1  0
 18 19  2  0
 19 20  1  0
 20 21  2  0
 21 22  1  0
 22 23  2  0
 11  5  1  0
 23 18  1  0
 15  9  1  0
  3 24  1  0
  3 25  1  0
 12 26  1  0
 12 27  1  0
 13 28  1  0
 13 29  1  0
 14 30  1  0
 14 31  1  0
 15 32  1  0
 15 33  1  0
 17 34  1  0
 17 35  1  0
 19 36  1  0
 20 37  1  0
 21 38  1  0
 22 39  1  0
 23 40  1  0
M  CHG  1  11  -1
M  END
>  <UniqueID>  (36) 
31

>  <SMILES>  (36) 
O=C(CSc1nc(=O)c2c([n-]1)CCCC2)SCc1ccccc1

>  <Energy>  (36) 
31.813391359530137

>  <Genealogy>  (36) 
O=C(CSc1nc(=O)c2c([n-]1)CCCC2)SCc1ccccc1 (protonated)
O=C(CSc1nc(=O)c2c([n-]1)CCCC2)SCc1ccccc1 (3D coordinates assigned)
O=C(CSc1nc(=O)c2c([n-]1)CCCC2)SCc1ccccc1 (nonaromatic ring conformer: 31.813391359530137 kcal/mol)

>  <smiles>  (36) 
O=C(CSc1nc(=O)c2c([nH]1)CCCC2)SCc1ccccc1

>  <score_type>  (36) 
oracle

>  <origin>  (36) 
adg

>  <m_score__min__energy>  (36) 
-10.17

>  <m_primary>  (36) 
energy

$$$$
36:0
     RDKit          3D

 52 54  0  0  0  0  0  0  0  0999 V2000
   59.4590   28.1900   44.1620 C   0  0  0  0  0  0  0  0  0  0  0  0
   58.1310   28.7810   44.4160 C   0  0  0  0  0  0  0  0  0  0  0  0
   57.3750   29.3370   43.4460 N   0  0  0  0  0  0  0  0  0  0  0  0
   56.2210   29.7890   43.9760 C   0  0  0  0  0  0  0  0  0  0  0  0
   56.2790   29.5020   45.2870 N   0  0  0  0  0  0  0  0  0  0  0  0
   57.4260   28.8850   45.6060 C   0  0  0  0  0  0  0  0  0  0  0  0
   57.9350   28.3730   46.8930 C   0  0  0  0  0  0  0  0  0  0  0  0
   59.2810   28.5370   47.1320 O   0  0  0  0  0  0  0  0  0  0  0  0
   59.9510   29.2470   48.0860 C   0  0  0  0  0  0  0  0  0  0  0  0
   60.2500   28.8220   49.3570 C   0  0  0  0  0  0  0  0  0  0  0  0
   60.9310   29.5830   50.2830 C   0  0  0  0  0  0  0  0  0  0  0  0
   61.3480   30.8660   49.9190 C   0  0  0  0  0  0  0  0  0  0  0  0
   61.0590   31.3140   48.6490 C   0  0  0  0  0  0  0  0  0  0  0  0
   61.4920   32.6520   48.2630 N   0  0  0  0  0  0  0  0  0  0  0  0
   60.5630   33.6700   48.4960 C   0  0  0  0  0  0  0  0  0  0  0  0
   60.0240   33.6630   49.6720 O   0  0  0  0  0  0  0  0  0  0  0  0
   60.1190   34.7320   47.6060 C   0  0  0  0  0  0  0  0  0  0  0  0
   59.1610   34.1890   46.5650 C   0  0  0  0  0  0  0  0  0  0  0  0
   59.5140   34.2270   45.2120 C   0  0  0  0  0  0  0  0  0  0  0  0
   58.6280   33.7260   44.2670 C   0  0  0  0  0  0  0  0  0  0  0  0
   57.4190   33.2020   44.6870 C   0  0  0  0  0  0  0  0  0  0  0  0
   57.0540   33.1560   46.0180 C   0  0  0  0  0  0  0  0  0  0  0  0
   57.9530   33.6630   46.9610 C   0  0  0  0  0  0  0  0  0  0  0  0
   63.0590   32.7610   47.6070 S   0  0  0  0  0  0  0  0  0  0  0  0
   64.2930   33.1400   48.8020 C   0  0  0  0  0  0  0  0  0  0  0  0
   63.4790   31.4730   46.9410 O   0  0  0  0  0  0  0  0  0  0  0  0
   63.0710   33.8970   46.6070 O   0  0  0  0  0  0  0  0  0  0  0  0
   60.3770   30.5280   47.7500 C   0  0  0  0  0  0  0  0  0  0  0  0
   60.0880   31.0620   46.3890 C   0  0  0  0  0  0  0  0  0  0  0  0
   59.9521   27.9706   45.1205 H   0  0  0  0  0  0  0  0  0  0  0  0
   59.3423   27.2589   43.5881 H   0  0  0  0  0  0  0  0  0  0  0  0
   60.0726   28.9000   43.5881 H   0  0  0  0  0  0  0  0  0  0  0  0
   55.3994   30.2905   43.4436 H   0  0  0  0  0  0  0  0  0  0  0  0
   55.5360   29.7200   45.9930 H   0  0  0  0  0  0  0  0  0  0  0  0
   57.3881   28.8875   47.6968 H   0  0  0  0  0  0  0  0  0  0  0  0
   57.7772   27.2850   46.8555 H   0  0  0  0  0  0  0  0  0  0  0  0
   59.9266   27.8135   49.6542 H   0  0  0  0  0  0  0  0  0  0  0  0
   61.1418   29.1883   51.2879 H   0  0  0  0  0  0  0  0  0  0  0  0
   61.8942   31.5033   50.6300 H   0  0  0  0  0  0  0  0  0  0  0  0
   59.6101   35.5088   48.1956 H   0  0  0  0  0  0  0  0  0  0  0  0
   60.9957   35.1561   47.0946 H   0  0  0  0  0  0  0  0  0  0  0  0
   60.4811   34.6484   44.9004 H   0  0  0  0  0  0  0  0  0  0  0  0
   58.8848   33.7458   43.1976 H   0  0  0  0  0  0  0  0  0  0  0  0
   56.7223   32.8072   43.9328 H   0  0  0  0  0  0  0  0  0  0  0  0
   56.0863   32.7337   46.3266 H   0  0  0  0  0  0  0  0  0  0  0  0
   57.6921   33.6412   48.0294 H   0  0  0  0  0  0  0  0  0  0  0  0
   63.8767   33.0122   49.8121 H   0  0  0  0  0  0  0  0  0  0  0  0
   65.1506   32.4639   48.6706 H   0  0  0  0  0  0  0  0  0  0  0  0
   64.6233   34.1810   48.6706 H   0  0  0  0  0  0  0  0  0  0  0  0
   59.5661   32.0263   46.4767 H   0  0  0  0  0  0  0  0  0  0  0  0
   61.0322   31.2044   45.8429 H   0  0  0  0  0  0  0  0  0  0  0  0
   59.4524   30.3494   45.8429 H   0  0  0  0  0  0  0  0  0  0  0  0
  1  2  1  0
  2  3  1  0
  3  4  2  0
  4  5  1  0
  5  6  1  0
  6  7  1  0
  7  8  1  0
  8  9  1  0
  9 10  2  0
 10 11  1  0
 11 12  2  0
 12 13  1  0
 13 14  1  0
 14 15  1  0
 15 16  2  0
 15 17  1  0
 17 18  1  0
 18 19  2  0
 19 20  1  0
 20 21  2  0
 21 22  1  0
 22 23  2  0
 14 24  1  0
 24 25  1  0
 24 26  2  0
 24 27  2  0
 13 28  2  0
 28 29  1  0
  6  2  2  0
 28  9  1  0
 23 18  1  0
  1 30  1  0
  1 31  1  0
  1 32  1  0
  4 33  1  0
  5 34  1  0
  7 35  1  0
  7 36  1  0
 10 37  1  0
 11 38  1  0
 12 39  1  0
 17 40  1  0
 17 41  1  0
 19 42  1  0
 20 43  1  0
 21 44  1  0
 22 45  1  0
 23 46  1  0
 25 47  1  0
 25 48  1  0
 25 49  1  0
 29 50  1  0
 29 51  1  0
 29 52  1  0
M  END
>  <smiles>  (37) 
Cc1nc[nH]c1COc1cccc(N(C(=O)Cc2ccccc2)S(C)(=O)=O)c1C

>  <score_type>  (37) 
oracle

>  <origin>  (37) 
adg

>  <m_score__min__energy>  (37) 
-8.8100000000000005

>  <m_primary>  (37) 
energy

$$$$
37:0
     RDKit          3D

 33 33  0  0  0  0  0  0  0  0999 V2000
   57.3177   27.1332   44.0924 H   0  0  0  0  0  0  0  0  0  0  0  0
   57.7000   27.0330   45.1190 C   0  0  0  0  0  0  0  0  0  0  0  0
   58.5150   27.9470   45.5670 N   0  0  0  0  0  0  0  0  0  0  0  0
   58.6490   29.3130   45.0590 C   0  0  0  0  0  0  0  0  0  0  0  0
   58.3448   29.3361   44.0021 H   0  0  0  0  0  0  0  0  0  0  0  0
   59.6984   29.6261   45.1626 H   0  0  0  0  0  0  0  0  0  0  0  0
   57.7680   30.2790   45.8560 C   0  0  0  0  0  0  0  0  0  0  0  0
   58.3932   30.8434   46.5635 H   0  0  0  0  0  0  0  0  0  0  0  0
   57.0081   29.7051   46.4066 H   0  0  0  0  0  0  0  0  0  0  0  0
   57.0920   31.2250   44.9340 N   0  0  0  0  0  0  0  0  0  0  0  0
   57.8200   32.5080   44.7900 C   0  0  0  0  0  0  0  0  0  0  0  0
   57.6817   32.8700   43.7605 H   0  0  0  0  0  0  0  0  0  0  0  0
   58.8738   32.3036   45.0304 H   0  0  0  0  0  0  0  0  0  0  0  0
   57.3500   33.6080   45.7560 C   0  0  0  0  0  0  0  0  0  0  0  0
   57.4939   33.2711   46.7932 H   0  0  0  0  0  0  0  0  0  0  0  0
   57.9358   34.5228   45.5829 H   0  0  0  0  0  0  0  0  0  0  0  0
   56.2840   33.8170   45.5829 H   0  0  0  0  0  0  0  0  0  0  0  0
   56.7210   30.6210   43.6380 C   0  0  0  0  0  0  0  0  0  0  0  0
   56.5325   31.4206   42.9065 H   0  0  0  0  0  0  0  0  0  0  0  0
   57.5464   29.9802   43.2942 H   0  0  0  0  0  0  0  0  0  0  0  0
   55.4640   29.7700   43.7870 C   0  0  0  0  0  0  0  0  0  0  0  0
   55.2457   29.6222   44.8549 H   0  0  0  0  0  0  0  0  0  0  0  0
   54.6164   30.2808   43.3068 H   0  0  0  0  0  0  0  0  0  0  0  0
   55.6234   28.7933   43.3068 H   0  0  0  0  0  0  0  0  0  0  0  0
   57.2630   25.8690   45.9190 C   0  0  0  0  0  0  0  0  0  0  0  0
   55.9300   25.7530   46.3380 C   0  0  0  0  0  0  0  0  0  0  0  0
   54.9910   26.7170   45.9890 O   0  0  0  0  0  0  0  0  0  0  0  0
   55.5450   24.6910   47.0910 N   0  0  0  0  0  0  0  0  0  0  0  0
   56.4360   23.7380   47.4670 C   0  0  0  0  0  0  0  0  0  0  0  0
   55.9430   22.4710   48.3680 S   0  0  0  0  0  0  0  0  0  0  0  0
   57.7410   23.8480   47.1060 N   0  0  0  0  0  0  0  0  0  0  0  0
   58.1760   24.8920   46.3540 C   0  0  0  0  0  0  0  0  0  0  0  0
   59.3990   24.9810   46.0690 O   0  0  0  0  0  0  0  0  0  0  0  0
  1  2  1  0
  2  3  2  0
  3  4  1  0
  4  5  1  0
  4  6  1  0
  4  7  1  0
  7  8  1  0
  7  9  1  0
  7 10  1  0
 10 11  1  0
 11 12  1  0
 11 13  1  0
 11 14  1  0
 14 15  1  0
 14 16  1  0
 14 17  1  0
 10 18  1  0
 18 19  1  0
 18 20  1  0
 18 21  1  0
 21 22  1  0
 21 23  1  0
 21 24  1  0
  2 25  1  0
 25 26  2  0
 26 27  1  0
 26 28  1  0
 28 29  1  0
 29 30  2  0
 29 31  1  0
 31 32  1  0
 32 33  2  0
 32 25  1  0
M  CHG  3  27  -1  28  -1  31  -1
M  END
>  <UniqueID>  (38) 
32

>  <SMILES>  (38) 
CCN(CC)CC/N=C\c1c([O-])[n-]c(=S)[n-]c1=O

>  <Energy>  (38) 
40.29824533402387

>  <Genealogy>  (38) 
CCN(CC)CCN=Cc1c([O-])[n-]c(=S)[n-]c1=O (protonated)
CCN(CC)CC/N=C\c1c([O-])[n-]c(=S)[n-]c1=O (cis-trans isomerization)
CCN(CC)CC/N=C\c1c([O-])[n-]c(=S)[n-]c1=O (3D coordinates assigned)
CCN(CC)CC/N=C\c1c([O-])[n-]c(=S)[n-]c1=O (optimized conformer: 40.29824533402387 kcal/mol)

>  <smiles>  (38) 
CCN(CC)CCN=Cc1c(O)[nH]c(=S)[nH]c1=O

>  <score_type>  (38) 
oracle

>  <origin>  (38) 
adg

>  <m_score__min__energy>  (38) 
-14.08

>  <m_primary>  (38) 
energy

$$$$
38:0
     RDKit          3D

 53 56  0  0  0  0  0  0  0  0999 V2000
   61.8120   34.1170   49.9920 O   0  0  0  0  0  0  0  0  0  0  0  0
   61.3790   34.1970   48.8120 C   0  0  0  0  0  0  0  0  0  0  0  0
   59.9500   34.6030   48.5650 C   0  0  0  0  0  0  0  0  0  0  0  0
   59.5800   34.4150   47.1610 N   0  0  0  0  0  0  0  0  0  0  0  0
   59.7100   35.3360   46.1750 C   0  0  0  0  0  0  0  0  0  0  0  0
   59.2080   34.8440   44.9760 C   0  0  0  0  0  0  0  0  0  0  0  0
   58.7470   33.5770   45.2670 C   0  0  0  0  0  0  0  0  0  0  0  0
   58.1280   32.6340   44.4510 C   0  0  0  0  0  0  0  0  0  0  0  0
   57.7350   31.4110   45.0340 C   0  0  0  0  0  0  0  0  0  0  0  0
   56.9510   30.1700   44.0620 S   0  0  0  0  0  0  0  0  0  0  0  0
   56.9450   30.5760   42.6120 O   0  0  0  0  0  0  0  0  0  0  0  0
   55.5270   30.0270   44.5270 O   0  0  0  0  0  0  0  0  0  0  0  0
   57.7930   28.6510   44.2500 N   0  0  0  0  0  0  0  0  0  0  0  0
   57.1010   27.7720   45.2260 C   0  0  0  0  0  0  0  0  0  0  0  0
   57.7770   27.7550   46.6050 C   0  0  0  0  0  0  0  0  0  0  0  0
   59.2390   27.2870   46.5010 C   0  0  0  0  0  0  0  0  0  0  0  0
   59.8930   27.6710   45.1610 C   0  0  0  0  0  0  0  0  0  0  0  0
   59.2200   28.9050   44.5530 C   0  0  0  0  0  0  0  0  0  0  0  0
   57.9780   31.1720   46.4070 C   0  0  0  0  0  0  0  0  0  0  0  0
   58.6040   32.1460   47.2060 C   0  0  0  0  0  0  0  0  0  0  0  0
   58.9820   33.3460   46.5980 C   0  0  0  0  0  0  0  0  0  0  0  0
   62.2610   33.8540   47.7340 N   0  0  0  0  0  0  0  0  0  0  0  0
   63.0060   32.6040   47.6090 C   0  0  0  0  0  0  0  0  0  0  0  0
   62.3030   31.4890   48.3380 C   0  0  0  0  0  0  0  0  0  0  0  0
   62.5660   31.2520   49.6990 C   0  0  0  0  0  0  0  0  0  0  0  0
   61.9120   30.2160   50.3740 C   0  0  0  0  0  0  0  0  0  0  0  0
   60.9840   29.4160   49.7020 C   0  0  0  0  0  0  0  0  0  0  0  0
   60.7100   29.6480   48.3520 C   0  0  0  0  0  0  0  0  0  0  0  0
   61.3650   30.6780   47.6680 C   0  0  0  0  0  0  0  0  0  0  0  0
   61.0840   30.8900   46.3580 F   0  0  0  0  0  0  0  0  0  0  0  0
   59.2890   33.9899   49.1952 H   0  0  0  0  0  0  0  0  0  0  0  0
   59.8437   35.6694   48.8129 H   0  0  0  0  0  0  0  0  0  0  0  0
   60.1518   36.3349   46.3057 H   0  0  0  0  0  0  0  0  0  0  0  0
   59.1836   35.3558   44.0026 H   0  0  0  0  0  0  0  0  0  0  0  0
   57.9508   32.8364   43.3844 H   0  0  0  0  0  0  0  0  0  0  0  0
   56.0674   28.1284   45.3470 H   0  0  0  0  0  0  0  0  0  0  0  0
   57.1388   26.7468   44.8291 H   0  0  0  0  0  0  0  0  0  0  0  0
   57.7542   28.7699   47.0285 H   0  0  0  0  0  0  0  0  0  0  0  0
   57.2312   27.0528   47.2524 H   0  0  0  0  0  0  0  0  0  0  0  0
   59.8145   27.7470   47.3178 H   0  0  0  0  0  0  0  0  0  0  0  0
   59.2416   26.1891   46.5689 H   0  0  0  0  0  0  0  0  0  0  0  0
   60.9578   27.8892   45.3303 H   0  0  0  0  0  0  0  0  0  0  0  0
   59.7773   26.8297   44.4618 H   0  0  0  0  0  0  0  0  0  0  0  0
   59.2909   29.7389   45.2668 H   0  0  0  0  0  0  0  0  0  0  0  0
   59.7343   29.1501   43.6120 H   0  0  0  0  0  0  0  0  0  0  0  0
   57.6742   30.2142   46.8546 H   0  0  0  0  0  0  0  0  0  0  0  0
   58.7900   31.9686   48.2755 H   0  0  0  0  0  0  0  0  0  0  0  0
   63.0932   32.3407   46.5445 H   0  0  0  0  0  0  0  0  0  0  0  0
   64.0036   32.7416   48.0515 H   0  0  0  0  0  0  0  0  0  0  0  0
   63.2892   31.8841   50.2351 H   0  0  0  0  0  0  0  0  0  0  0  0
   62.1287   30.0306   51.4364 H   0  0  0  0  0  0  0  0  0  0  0  0
   60.4693   28.6036   50.2360 H   0  0  0  0  0  0  0  0  0  0  0  0
   59.9772   29.0191   47.8252 H   0  0  0  0  0  0  0  0  0  0  0  0
  1  2  2  0
  2  3  1  0
  3  4  1  0
  4  5  1  0
  5  6  2  0
  6  7  1  0
  7  8  2  0
  8  9  1  0
  9 10  1  0
 10 11  2  0
 10 12  2  0
 10 13  1  0
 13 14  1  0
 14 15  1  0
 15 16  1  0
 16 17  1  0
 17 18  1  0
  9 19  2  0
 19 20  1  0
 20 21  2  0
  2 22  1  0
 22 23  1  0
 23 24  1  0
 24 25  2  0
 25 26  1  0
 26 27  2  0
 27 28  1  0
 28 29  2  0
 29 30  1  0
 21  4  1  0
 29 24  1  0
 21  7  1  0
 18 13  1  0
  3 31  1  0
  3 32  1  0
  5 33  1  0
  6 34  1  0
  8 35  1  0
 14 36  1  0
 14 37  1  0
 15 38  1  0
 15 39  1  0
 16 40  1  0
 16 41  1  0
 17 42  1  0
 17 43  1  0
 18 44  1  0
 18 45  1  0
 19 46  1  0
 20 47  1  0
 23 48  1  0
 23 49  1  0
 25 50  1  0
 26 51  1  0
 27 52  1  0
 28 53  1  0
M  CHG  1  22  -1
M  END
>  <UniqueID>  (39) 
33

>  <SMILES>  (39) 
O=C(Cn1ccc2cc(S(=O)(=O)N3CCCCC3)ccc21)[N-]Cc1ccccc1F

>  <Energy>  (39) 
91.93837090503878

>  <Genealogy>  (39) 
O=C(Cn1ccc2cc(S(=O)(=O)N3CCCCC3)ccc21)[N-]Cc1ccccc1F (protonated)
O=C(Cn1ccc2cc(S(=O)(=O)N3CCCCC3)ccc21)[N-]Cc1ccccc1F (3D coordinates assigned)
O=C(Cn1ccc2cc(S(=O)(=O)N3CCCCC3)ccc21)[N-]Cc1ccccc1F (nonaromatic ring conformer: 91.93837090503878 kcal/mol)

>  <smiles>  (39) 
O=C(Cn1ccc2cc(S(=O)(=O)N3CCCCC3)ccc21)NCc1ccccc1F

>  <score_type>  (39) 
oracle

>  <origin>  (39) 
adg

>  <m_score__min__energy>  (39) 
-11.449999999999999

>  <m_primary>  (39) 
energy

$$$$
39:0
     RDKit          3D

 55 57  0  0  0  0  0  0  0  0999 V2000
   61.1550   29.8320   47.7830 O   0  0  0  0  0  0  0  0  0  0  0  0
   60.2240   28.9940   47.9100 C   0  0  0  0  0  0  0  0  0  0  0  0
   59.2640   29.1310   49.0540 C   0  0  0  0  0  0  0  0  0  0  0  0
   59.1520   30.5280   49.4670 N   0  0  0  0  0  0  0  0  0  0  0  0
   58.3910   30.9210   50.6160 C   0  0  0  0  0  0  0  0  0  0  0  0
   57.4140   30.2200   50.9990 O   0  0  0  0  0  0  0  0  0  0  0  0
   58.7370   32.1750   51.3570 C   0  0  0  0  0  0  0  0  0  0  0  0
   60.0420   32.6600   50.9020 N   0  0  0  0  0  0  0  0  0  0  0  0
   59.8790   33.4940   49.3860 S   0  0  0  0  0  0  0  0  0  0  0  0
   59.6200   34.9510   49.6540 O   0  0  0  0  0  0  0  0  0  0  0  0
   58.7210   32.9420   48.6000 O   0  0  0  0  0  0  0  0  0  0  0  0
   61.3710   33.3270   48.4640 C   0  0  0  0  0  0  0  0  0  0  0  0
   61.4840   33.9170   47.1960 C   0  0  0  0  0  0  0  0  0  0  0  0
   62.6700   33.7920   46.4660 C   0  0  0  0  0  0  0  0  0  0  0  0
   63.7550   33.0900   47.0050 C   0  0  0  0  0  0  0  0  0  0  0  0
   63.6520   32.5090   48.2730 C   0  0  0  0  0  0  0  0  0  0  0  0
   62.4630   32.6240   49.0020 C   0  0  0  0  0  0  0  0  0  0  0  0
   60.0810   27.9180   46.9740 N   0  0  0  0  0  0  0  0  0  0  0  0
   58.8640   27.2240   46.6640 C   0  0  0  0  0  0  0  0  0  0  0  0
   58.6660   25.9690   47.2540 C   0  0  0  0  0  0  0  0  0  0  0  0
   57.4800   25.2650   47.0460 C   0  0  0  0  0  0  0  0  0  0  0  0
   56.4590   25.8300   46.2810 C   0  0  0  0  0  0  0  0  0  0  0  0
   56.6300   27.0920   45.7080 C   0  0  0  0  0  0  0  0  0  0  0  0
   57.8380   27.7930   45.8650 C   0  0  0  0  0  0  0  0  0  0  0  0
   57.9550   29.1560   45.2970 C   0  0  0  0  0  0  0  0  0  0  0  0
   59.0660   29.5310   44.8370 O   0  0  0  0  0  0  0  0  0  0  0  0
   56.8510   30.0750   45.2590 N   0  0  0  0  0  0  0  0  0  0  0  0
   56.6490   31.1670   44.3050 C   0  0  0  0  0  0  0  0  0  0  0  0
   57.4190   32.3900   44.7160 C   0  0  0  0  0  0  0  0  0  0  0  0
   58.5180   32.8360   43.9570 C   0  0  0  0  0  0  0  0  0  0  0  0
   59.2380   33.9650   44.3600 C   0  0  0  0  0  0  0  0  0  0  0  0
   58.8660   34.6610   45.5150 C   0  0  0  0  0  0  0  0  0  0  0  0
   57.7730   34.2250   46.2700 C   0  0  0  0  0  0  0  0  0  0  0  0
   57.0530   33.0920   45.8760 C   0  0  0  0  0  0  0  0  0  0  0  0
   58.2745   28.7661   48.7413 H   0  0  0  0  0  0  0  0  0  0  0  0
   59.6371   28.5391   49.9028 H   0  0  0  0  0  0  0  0  0  0  0  0
   59.8230   31.2120   49.0480 H   0  0  0  0  0  0  0  0  0  0  0  0
   57.9717   32.9406   51.1617 H   0  0  0  0  0  0  0  0  0  0  0  0
   58.7764   31.9669   52.4364 H   0  0  0  0  0  0  0  0  0  0  0  0
   60.6374   34.4793   46.7751 H   0  0  0  0  0  0  0  0  0  0  0  0
   62.7507   34.2457   45.4672 H   0  0  0  0  0  0  0  0  0  0  0  0
   64.6886   32.9955   46.4310 H   0  0  0  0  0  0  0  0  0  0  0  0
   64.5062   31.9612   48.6976 H   0  0  0  0  0  0  0  0  0  0  0  0
   62.3828   32.1635   49.9977 H   0  0  0  0  0  0  0  0  0  0  0  0
   59.4534   25.5345   47.8874 H   0  0  0  0  0  0  0  0  0  0  0  0
   57.3496   24.2648   47.4849 H   0  0  0  0  0  0  0  0  0  0  0  0
   55.5182   25.2807   46.1291 H   0  0  0  0  0  0  0  0  0  0  0  0
   55.8109   27.5420   45.1279 H   0  0  0  0  0  0  0  0  0  0  0  0
   56.9909   30.8439   43.3107 H   0  0  0  0  0  0  0  0  0  0  0  0
   55.5784   31.4183   44.2814 H   0  0  0  0  0  0  0  0  0  0  0  0
   58.8108   32.2951   43.0450 H   0  0  0  0  0  0  0  0  0  0  0  0
   60.0992   34.3067   43.7672 H   0  0  0  0  0  0  0  0  0  0  0  0
   59.4326   35.5501   45.8288 H   0  0  0  0  0  0  0  0  0  0  0  0
   57.4783   34.7743   47.1763 H   0  0  0  0  0  0  0  0  0  0  0  0
   56.1974   32.7499   46.4768 H   0  0  0  0  0  0  0  0  0  0  0  0
  1  2  2  0
  2  3  1  0
  3  4  1  0
  4  5  1  0
  5  6  2  0
  5  7  1  0
  7  8  1  0
  8  9  1  0
  9 10  2  0
  9 11  2  0
  9 12  1  0
 12 13  2  0
 13 14  1  0
 14 15  2  0
 15 16  1  0
 16 17  2  0
  2 18  1  0
 18 19  1  0
 19 20  2  0
 20 21  1  0
 21 22  2  0
 22 23  1  0
 23 24  2  0
 24 25  1  0
 25 26  2  0
 25 27  1  0
 27 28  1  0
 28 29  1  0
 29 30  2  0
 30 31  1  0
 31 32  2  0
 32 33  1  0
 33 34  2  0
 17 12  1  0
 24 19  1  0
 34 29  1  0
  3 35  1  0
  3 36  1  0
  4 37  1  0
  7 38  1  0
  7 39  1  0
 13 40  1  0
 14 41  1  0
 15 42  1  0
 16 43  1  0
 17 44  1  0
 20 45  1  0
 21 46  1  0
 22 47  1  0
 23 48  1  0
 28 49  1  0
 28 50  1  0
 30 51  1  0
 31 52  1  0
 32 53  1  0
 33 54  1  0
 34 55  1  0
M  CHG  3   8  -1  18  -1  27  -1
M  END
>  <UniqueID>  (40) 
34

>  <SMILES>  (40) 
O=C(CNC(=O)C[N-]S(=O)(=O)c1ccccc1)[N-]c1ccccc1C(=O)[N-]Cc1ccccc1

>  <Energy>  (40) 
59.82857474225719

>  <Genealogy>  (40) 
O=C(CNC(=O)C[N-]S(=O)(=O)c1ccccc1)[N-]c1ccccc1C(=O)[N-]Cc1ccccc1 (protonated)
O=C(CNC(=O)C[N-]S(=O)(=O)c1ccccc1)[N-]c1ccccc1C(=O)[N-]Cc1ccccc1 (3D coordinates assigned)
O=C(CNC(=O)C[N-]S(=O)(=O)c1ccccc1)[N-]c1ccccc1C(=O)[N-]Cc1ccccc1 (optimized conformer: 59.82857474225719 kcal/mol)

>  <smiles>  (40) 
O=C(CNS(=O)(=O)c1ccccc1)NCC(=O)Nc1ccccc1C(=O)NCc1ccccc1

>  <score_type>  (40) 
oracle

>  <origin>  (40) 
adg

>  <m_score__min__energy>  (40) 
-14.51

>  <m_primary>  (40) 
energy

$$$$
40:0
     RDKit          3D

 41 43  0  0  0  0  0  0  0  0999 V2000
   56.4810   24.8920   46.7720 C   0  0  0  0  0  0  0  0  0  0  0  0
   56.3010   26.2210   46.1050 C   0  0  0  0  0  0  0  0  0  0  0  0
   55.1420   26.7030   46.0090 O   0  0  0  0  0  0  0  0  0  0  0  0
   57.4010   26.9450   45.5390 N   0  0  0  0  0  0  0  0  0  0  0  0
   57.7190   28.3270   45.7540 C   0  0  0  0  0  0  0  0  0  0  0  0
   58.4590   28.7490   46.8700 C   0  0  0  0  0  0  0  0  0  0  0  0
   58.7230   30.1070   47.0690 C   0  0  0  0  0  0  0  0  0  0  0  0
   58.2390   31.0660   46.1610 C   0  0  0  0  0  0  0  0  0  0  0  0
   58.5100   32.5090   46.3670 C   0  0  0  0  0  0  0  0  0  0  0  0
   58.8700   33.2840   45.3310 C   0  0  0  0  0  0  0  0  0  0  0  0
   59.2180   34.7030   45.5200 C   0  0  0  0  0  0  0  0  0  0  0  0
   59.4730   35.4150   44.5130 O   0  0  0  0  0  0  0  0  0  0  0  0
   59.2760   35.3170   46.8930 C   0  0  0  0  0  0  0  0  0  0  0  0
   59.2600   34.2690   48.0300 C   0  0  2  0  0  0  0  0  0  0  0  0
   60.6330   33.7210   48.4010 C   0  0  0  0  0  0  0  0  0  0  0  0
   61.6790   33.8110   47.4610 C   0  0  0  0  0  0  0  0  0  0  0  0
   62.9670   33.3750   47.7830 C   0  0  0  0  0  0  0  0  0  0  0  0
   63.2350   32.8530   49.0510 C   0  0  0  0  0  0  0  0  0  0  0  0
   64.8530   32.3120   49.4550 Cl  0  0  0  0  0  0  0  0  0  0  0  0
   62.2120   32.7690   49.9990 C   0  0  0  0  0  0  0  0  0  0  0  0
   60.9210   33.2040   49.6810 C   0  0  0  0  0  0  0  0  0  0  0  0
   58.2710   33.1280   47.7260 C   0  0  0  0  0  0  0  0  0  0  0  0
   57.4740   30.6420   45.0630 C   0  0  0  0  0  0  0  0  0  0  0  0
   57.2090   29.2830   44.8690 C   0  0  0  0  0  0  0  0  0  0  0  0
   56.4631   25.0243   47.8639 H   0  0  0  0  0  0  0  0  0  0  0  0
   55.6660   24.2173   46.4710 H   0  0  0  0  0  0  0  0  0  0  0  0
   57.4461   24.4584   46.4710 H   0  0  0  0  0  0  0  0  0  0  0  0
   58.8328   28.0073   47.5912 H   0  0  0  0  0  0  0  0  0  0  0  0
   59.3126   30.4276   47.9406 H   0  0  0  0  0  0  0  0  0  0  0  0
   58.9058   32.8504   44.3207 H   0  0  0  0  0  0  0  0  0  0  0  0
   60.2013   35.9063   46.9737 H   0  0  0  0  0  0  0  0  0  0  0  0
   58.3775   35.9406   47.0105 H   0  0  0  0  0  0  0  0  0  0  0  0
   58.9126   34.8146   48.9198 H   0  0  0  0  0  0  0  0  0  0  0  0
   61.4795   34.2289   46.4632 H   0  0  0  0  0  0  0  0  0  0  0  0
   63.7719   33.4429   47.0363 H   0  0  0  0  0  0  0  0  0  0  0  0
   62.4223   32.3597   50.9981 H   0  0  0  0  0  0  0  0  0  0  0  0
   60.1235   33.1422   50.4361 H   0  0  0  0  0  0  0  0  0  0  0  0
   58.3827   32.3488   48.4943 H   0  0  0  0  0  0  0  0  0  0  0  0
   57.2561   33.5522   47.7291 H   0  0  0  0  0  0  0  0  0  0  0  0
   57.0809   31.3830   44.3514 H   0  0  0  0  0  0  0  0  0  0  0  0
   56.5950   28.9631   44.0142 H   0  0  0  0  0  0  0  0  0  0  0  0
  1  2  1  0
  2  3  2  0
  2  4  1  0
  4  5  1  0
  5  6  2  0
  6  7  1  0
  7  8  2  0
  8  9  1  0
  9 10  2  0
 10 11  1  0
 11 12  2  0
 11 13  1  0
 13 14  1  0
 14 15  1  0
 15 16  2  0
 16 17  1  0
 17 18  2  0
 18 19  1  0
 18 20  1  0
 20 21  2  0
 14 22  1  0
  8 23  1  0
 23 24  2  0
 24  5  1  0
 22  9  1  0
 21 15  1  0
  1 25  1  0
  1 26  1  0
  1 27  1  0
  6 28  1  0
  7 29  1  0
 10 30  1  0
 13 31  1  0
 13 32  1  0
 14 33  1  1
 16 34  1  0
 17 35  1  0
 20 36  1  0
 21 37  1  0
 22 38  1  0
 22 39  1  0
 23 40  1  0
 24 41  1  0
M  CHG  1   4  -1
M  END
>  <UniqueID>  (41) 
35

>  <SMILES>  (41) 
CC(=O)[N-]c1ccc(C2=CC(=O)C[C@H](c3ccc(Cl)cc3)C2)cc1

>  <Energy>  (41) 
53.45344886312458

>  <Genealogy>  (41) 
CC(=O)[N-]c1ccc(C2=CC(=O)CC(c3ccc(Cl)cc3)C2)cc1 (protonated)
CC(=O)[N-]c1ccc(C2=CC(=O)C[C@H](c3ccc(Cl)cc3)C2)cc1 (chirality)
CC(=O)[N-]c1ccc(C2=CC(=O)C[C@H](c3ccc(Cl)cc3)C2)cc1 (3D coordinates assigned)
CC(=O)[N-]c1ccc(C2=CC(=O)C[C@H](c3ccc(Cl)cc3)C2)cc1 (nonaromatic ring conformer: 53.45344886312458 kcal/mol)

>  <smiles>  (41) 
CC(=O)Nc1ccc(C2=CC(=O)CC(c3ccc(Cl)cc3)C2)cc1

>  <score_type>  (41) 
oracle

>  <origin>  (41) 
adg

>  <m_score__min__energy>  (41) 
-10.390000000000001

>  <m_primary>  (41) 
energy

$$$$
41:0
     RDKit          3D

 34 35  0  0  0  0  0  0  0  0999 V2000
   56.9920   29.1517   43.5070 H   0  0  0  0  0  0  0  0  0  0  0  0
   56.6740   29.1630   44.5600 C   0  0  0  0  0  0  0  0  0  0  0  0
   55.4580   29.3440   44.8330 O   0  0  0  0  0  0  0  0  0  0  0  0
   57.6860   28.9650   45.6230 C   0  0  0  0  0  0  0  0  0  0  0  0
   58.0120   30.1190   46.4950 C   0  0  0  0  0  0  0  0  0  0  0  0
   57.3244   30.3497   47.3220 H   0  0  0  0  0  0  0  0  0  0  0  0
   59.0920   30.9000   46.3400 C   0  0  0  0  0  0  0  0  0  0  0  0
   60.0777   30.4480   46.5246 H   0  0  0  0  0  0  0  0  0  0  0  0
   59.0560   32.3250   45.9390 C   0  0  0  0  0  0  0  0  0  0  0  0
   60.0850   33.2110   46.3120 C   0  0  0  0  0  0  0  0  0  0  0  0
   60.9423   32.8402   46.8930 H   0  0  0  0  0  0  0  0  0  0  0  0
   60.0230   34.5590   45.9480 C   0  0  0  0  0  0  0  0  0  0  0  0
   60.8378   35.2420   46.2302 H   0  0  0  0  0  0  0  0  0  0  0  0
   58.9290   35.0400   45.2270 C   0  0  0  0  0  0  0  0  0  0  0  0
   58.8854   36.1000   44.9364 H   0  0  0  0  0  0  0  0  0  0  0  0
   57.8890   34.1760   44.8740 C   0  0  0  0  0  0  0  0  0  0  0  0
   57.0239   34.5595   44.3132 H   0  0  0  0  0  0  0  0  0  0  0  0
   57.9450   32.8240   45.2320 C   0  0  0  0  0  0  0  0  0  0  0  0
   56.8980   31.9810   44.8740 O   0  0  0  0  0  0  0  0  0  0  0  0
   58.2920   27.7710   45.7710 C   0  0  0  0  0  0  0  0  0  0  0  0
   59.2752   27.6331   45.2975 H   0  0  0  0  0  0  0  0  0  0  0  0
   57.7260   26.6340   46.5260 C   0  0  0  0  0  0  0  0  0  0  0  0
   57.8780   26.6180   47.7770 O   0  0  0  0  0  0  0  0  0  0  0  0
   57.0300   25.5000   45.8710 C   0  0  0  0  0  0  0  0  0  0  0  0
   57.7780   24.3900   45.4410 C   0  0  0  0  0  0  0  0  0  0  0  0
   58.8678   24.3759   45.5897 H   0  0  0  0  0  0  0  0  0  0  0  0
   57.1480   23.3040   44.8260 C   0  0  0  0  0  0  0  0  0  0  0  0
   57.7414   22.4365   44.5016 H   0  0  0  0  0  0  0  0  0  0  0  0
   55.7670   23.3190   44.6230 C   0  0  0  0  0  0  0  0  0  0  0  0
   55.1430   22.2380   44.0140 O   0  0  0  0  0  0  0  0  0  0  0  0
   55.0130   24.4220   45.0290 C   0  0  0  0  0  0  0  0  0  0  0  0
   53.9253   24.4323   44.8651 H   0  0  0  0  0  0  0  0  0  0  0  0
   55.6360   25.5150   45.6440 C   0  0  0  0  0  0  0  0  0  0  0  0
   54.8620   26.6120   46.0090 O   0  0  0  0  0  0  0  0  0  0  0  0
  1  2  1  0
  2  3  2  0
  2  4  1  0
  4  5  1  0
  5  6  1  0
  5  7  2  3
  7  8  1  0
  7  9  1  0
  9 10  2  0
 10 11  1  0
 10 12  1  0
 12 13  1  0
 12 14  2  0
 14 15  1  0
 14 16  1  0
 16 17  1  0
 16 18  2  0
 18 19  1  0
  4 20  2  0
 20 21  1  0
 20 22  1  0
 22 23  2  0
 22 24  1  0
 24 25  2  0
 25 26  1  0
 25 27  1  0
 27 28  1  0
 27 29  2  0
 29 30  1  0
 29 31  1  0
 31 32  1  0
 31 33  2  0
 33 34  1  0
 18  9  1  0
 33 24  1  0
M  CHG  3  19  -1  30  -1  34  -1
M  END
>  <UniqueID>  (42) 
36

>  <SMILES>  (42) 
O=C/C(C=Cc1ccccc1[O-])=C/C(=O)c1ccc([O-])cc1[O-]

>  <Energy>  (42) 
55.466097152787675

>  <Genealogy>  (42) 
O=CC(C=Cc1ccccc1[O-])=CC(=O)c1ccc([O-])cc1[O-] (protonated)
O=C/C(C=Cc1ccccc1[O-])=C/C(=O)c1ccc([O-])cc1[O-] (cis-trans isomerization)
O=C/C(C=Cc1ccccc1[O-])=C/C(=O)c1ccc([O-])cc1[O-] (3D coordinates assigned)
O=C/C(C=Cc1ccccc1[O-])=C/C(=O)c1ccc([O-])cc1[O-] (optimized conformer: 55.466097152787675 kcal/mol)

>  <smiles>  (42) 
O=CC(C=Cc1ccccc1O)=CC(=O)c1ccc(O)cc1O

>  <score_type>  (42) 
oracle

>  <origin>  (42) 
adg

>  <m_score__min__energy>  (42) 
-15.92

>  <m_primary>  (42) 
energy

$$$$
42:0
     RDKit          3D

 24 25  0  0  0  0  0  0  0  0999 V2000
   54.8500   22.5410   46.3910 O   0  0  0  0  0  0  0  0  0  0  0  0
   55.9700   23.0010   46.7390 C   0  0  0  0  0  0  0  0  0  0  0  0
   56.8060   22.1950   47.5020 O   0  0  0  0  0  0  0  0  0  0  0  0
   56.3880   24.3770   46.3430 C   0  0  0  0  0  0  0  0  0  0  0  0
   57.7520   24.7430   46.3020 C   0  0  0  0  0  0  0  0  0  0  0  0
   58.7480   23.8240   46.6360 O   0  0  0  0  0  0  0  0  0  0  0  0
   58.1200   26.0400   45.9260 C   0  0  0  0  0  0  0  0  0  0  0  0
   57.1340   26.9790   45.5970 C   0  0  0  0  0  0  0  0  0  0  0  0
   57.4900   28.3670   45.2040 C   0  0  0  0  0  0  0  0  0  0  0  0
   58.8390   28.7690   45.1590 C   0  0  0  0  0  0  0  0  0  0  0  0
   59.1800   30.0770   44.8050 C   0  0  0  0  0  0  0  0  0  0  0  0
   58.1810   31.0020   44.4950 C   0  0  0  0  0  0  0  0  0  0  0  0
   56.8390   30.6200   44.5400 C   0  0  0  0  0  0  0  0  0  0  0  0
   56.4880   29.3110   44.8900 C   0  0  0  0  0  0  0  0  0  0  0  0
   55.1430   28.9580   44.9050 O   0  0  0  0  0  0  0  0  0  0  0  0
   55.8280   26.6070   45.6390 N   0  0  0  0  0  0  0  0  0  0  0  0
   55.4300   25.3580   45.9950 C   0  0  0  0  0  0  0  0  0  0  0  0
   54.1980   25.0950   46.0010 O   0  0  0  0  0  0  0  0  0  0  0  0
   58.5390   22.9640   47.1280 H   0  0  0  0  0  0  0  0  0  0  0  0
   59.1827   26.3217   45.8889 H   0  0  0  0  0  0  0  0  0  0  0  0
   59.6314   28.0467   45.4048 H   0  0  0  0  0  0  0  0  0  0  0  0
   60.2373   30.3785   44.7705 H   0  0  0  0  0  0  0  0  0  0  0  0
   58.4512   32.0310   44.2155 H   0  0  0  0  0  0  0  0  0  0  0  0
   56.0535   31.3514   44.2992 H   0  0  0  0  0  0  0  0  0  0  0  0
  1  2  2  0
  2  3  1  0
  2  4  1  0
  4  5  2  0
  5  6  1  0
  5  7  1  0
  7  8  2  0
  8  9  1  0
  9 10  2  0
 10 11  1  0
 11 12  2  0
 12 13  1  0
 13 14  2  0
 14 15  1  0
  8 16  1  0
 16 17  1  0
 17 18  2  0
 17  4  1  0
 14  9  1  0
  6 19  1  0
  7 20  1  0
 10 21  1  0
 11 22  1  0
 12 23  1  0
 13 24  1  0
M  CHG  3   3  -1  15  -1  16  -1
M  END
>  <UniqueID>  (43) 
37

>  <SMILES>  (43) 
O=C([O-])c1c(O)cc(-c2ccccc2[O-])[n-]c1=O

>  <Energy>  (43) 
35.25286437708216

>  <Genealogy>  (43) 
O=C([O-])c1c(O)cc(-c2ccccc2[O-])[n-]c1=O (protonated)
O=C([O-])c1c(O)cc(-c2ccccc2[O-])[n-]c1=O (3D coordinates assigned)
O=C([O-])c1c(O)cc(-c2ccccc2[O-])[n-]c1=O (optimized conformer: 35.25286437708216 kcal/mol)

>  <smiles>  (43) 
O=C(O)c1c(O)cc(-c2ccccc2O)[nH]c1=O

>  <score_type>  (43) 
oracle

>  <origin>  (43) 
adg

>  <m_score__min__energy>  (43) 
-13.19

>  <m_primary>  (43) 
energy

$$$$
43:0
     RDKit          3D

 56 60  0  0  0  0  0  0  0  0999 V2000
   56.6108   30.8409   41.3401 H   0  0  0  0  0  0  0  0  0  0  0  0
   57.0190   31.2140   42.2910 C   0  0  0  0  0  0  0  0  0  0  0  0
   56.7940   30.5020   43.4800 C   0  0  0  0  0  0  0  0  0  0  0  0
   56.2065   29.5722   43.4600 H   0  0  0  0  0  0  0  0  0  0  0  0
   57.3160   30.9730   44.6920 C   0  0  0  0  0  0  0  0  0  0  0  0
   57.1392   30.4090   45.6197 H   0  0  0  0  0  0  0  0  0  0  0  0
   58.0660   32.1650   44.7290 C   0  0  0  0  0  0  0  0  0  0  0  0
   58.6110   32.6470   45.9790 N   0  0  0  0  0  0  0  0  0  0  0  0
   60.0230   33.0330   46.0700 C   0  0  0  0  0  0  0  0  0  0  0  0
   60.3366   33.4843   45.1171 H   0  0  0  0  0  0  0  0  0  0  0  0
   60.6232   32.1358   46.2816 H   0  0  0  0  0  0  0  0  0  0  0  0
   60.2340   34.0510   47.2060 C   0  0  0  0  0  0  0  0  0  0  0  0
   59.7373   34.9918   46.9265 H   0  0  0  0  0  0  0  0  0  0  0  0
   61.3199   34.1727   47.3325 H   0  0  0  0  0  0  0  0  0  0  0  0
   59.6910   33.6040   48.5130 N   0  0  0  0  0  0  0  0  0  0  0  0
   60.9640   33.1680   49.6450 S   0  0  0  0  0  0  0  0  0  0  0  0
   62.2930   33.1510   48.9390 O   0  0  0  0  0  0  0  0  0  0  0  0
   61.0420   34.2140   50.7240 O   0  0  0  0  0  0  0  0  0  0  0  0
   60.6780   31.5850   50.3830 C   0  0  0  0  0  0  0  0  0  0  0  0
   60.3530   31.4880   51.7570 C   0  0  0  0  0  0  0  0  0  0  0  0
   60.1749   32.4037   52.3399 H   0  0  0  0  0  0  0  0  0  0  0  0
   60.2550   30.2300   52.3870 C   0  0  0  0  0  0  0  0  0  0  0  0
   60.0330   30.1505   53.4614 H   0  0  0  0  0  0  0  0  0  0  0  0
   60.4470   29.0950   51.6110 C   0  0  0  0  0  0  0  0  0  0  0  0
   60.4600   27.8150   52.0490 N   0  0  0  0  0  0  0  0  0  0  0  0
   60.7270   27.0840   50.9420 C   0  0  0  0  0  0  0  0  0  0  0  0
   60.8440   25.6930   50.9520 O   0  0  0  0  0  0  0  0  0  0  0  0
   60.8630   27.8900   49.8210 C   0  0  0  0  0  0  0  0  0  0  0  0
   61.1210   27.4310   48.4910 N   0  0  0  0  0  0  0  0  0  0  0  0
   60.3460   27.7370   47.5220 N   0  0  0  0  0  0  0  0  0  0  0  0
   59.8540   26.7330   46.6280 C   0  0  0  0  0  0  0  0  0  0  0  0
   60.6710   25.9750   46.0290 O   0  0  0  0  0  0  0  0  0  0  0  0
   58.3960   26.5960   46.3930 C   0  0  0  0  0  0  0  0  0  0  0  0
   57.7300   25.4040   46.7330 C   0  0  0  0  0  0  0  0  0  0  0  0
   58.2957   24.5610   47.1564 H   0  0  0  0  0  0  0  0  0  0  0  0
   56.3440   25.2880   46.5330 C   0  0  0  0  0  0  0  0  0  0  0  0
   55.8310   24.3509   46.7950 H   0  0  0  0  0  0  0  0  0  0  0  0
   55.6090   26.3600   46.0010 C   0  0  0  0  0  0  0  0  0  0  0  0
   54.2320   26.2430   45.8100 O   0  0  0  0  0  0  0  0  0  0  0  0
   56.2620   27.5520   45.6620 C   0  0  0  0  0  0  0  0  0  0  0  0
   55.5340   28.6240   45.1400 O   0  0  0  0  0  0  0  0  0  0  0  0
   57.6470   27.6680   45.8480 C   0  0  0  0  0  0  0  0  0  0  0  0
   58.1574   28.6013   45.5678 H   0  0  0  0  0  0  0  0  0  0  0  0
   60.6980   29.1840   50.2620 C   0  0  0  0  0  0  0  0  0  0  0  0
   60.8320   30.4160   49.6160 C   0  0  0  0  0  0  0  0  0  0  0  0
   61.0514   30.4699   48.5395 H   0  0  0  0  0  0  0  0  0  0  0  0
   58.6760   32.5340   48.4320 C   0  0  0  0  0  0  0  0  0  0  0  0
   58.0444   32.5753   49.3317 H   0  0  0  0  0  0  0  0  0  0  0  0
   59.2033   31.5714   48.3587 H   0  0  0  0  0  0  0  0  0  0  0  0
   57.7840   32.6790   47.1950 C   0  0  0  0  0  0  0  0  0  0  0  0
   57.2437   33.6359   47.2443 H   0  0  0  0  0  0  0  0  0  0  0  0
   57.0636   31.8482   47.1668 H   0  0  0  0  0  0  0  0  0  0  0  0
   58.2820   32.8740   43.5250 C   0  0  0  0  0  0  0  0  0  0  0  0
   58.8633   33.8078   43.5382 H   0  0  0  0  0  0  0  0  0  0  0  0
   57.7620   32.3970   42.3170 C   0  0  0  0  0  0  0  0  0  0  0  0
   57.9385   32.9546   41.3854 H   0  0  0  0  0  0  0  0  0  0  0  0
  1  2  1  0
  2  3  2  0
  3  4  1  0
  3  5  1  0
  5  6  1  0
  5  7  2  0
  7  8  1  0
  8  9  1  0
  9 10  1  0
  9 11  1  0
  9 12  1  0
 12 13  1  0
 12 14  1  0
 12 15  1  0
 15 16  1  0
 16 17  2  0
 16 18  2  0
 16 19  1  0
 19 20  2  0
 20 21  1  0
 20 22  1  0
 22 23  1  0
 22 24  2  0
 24 25  1  0
 25 26  1  0
 26 27  1  0
 26 28  2  0
 28 29  1  0
 29 30  2  0
 30 31  1  0
 31 32  2  0
 31 33  1  0
 33 34  2  0
 34 35  1  0
 34 36  1  0
 36 37  1  0
 36 38  2  0
 38 39  1  0
 38 40  1  0
 40 41  1  0
 40 42  2  0
 42 43  1  0
 28 44  1  0
 44 45  2  0
 45 46  1  0
 15 47  1  0
 47 48  1  0
 47 49  1  0
 47 50  1  0
 50 51  1  0
 50 52  1  0
  7 53  1  0
 53 54  1  0
 53 55  2  0
 55 56  1  0
 55  2  1  0
 50  8  1  0
 45 19  1  0
 44 24  1  0
 42 33  1  0
M  CHG  4  25  -1  27  -1  39  -1  41  -1
M  END
>  <UniqueID>  (44) 
38

>  <SMILES>  (44) 
O=C(/N=N/c1c([O-])[n-]c2ccc(S(=O)(=O)N3CCN(c4ccccc4)CC3)cc12)c1ccc([O-])c([O-])c1

>  <Energy>  (44) 
107.9011121621419

>  <Genealogy>  (44) 
O=C(N=Nc1c([O-])[n-]c2ccc(S(=O)(=O)N3CCN(c4ccccc4)CC3)cc12)c1ccc([O-])c([O-])c1 (protonated)
O=C(/N=N/c1c([O-])[n-]c2ccc(S(=O)(=O)N3CCN(c4ccccc4)CC3)cc12)c1ccc([O-])c([O-])c1 (cis-trans isomerization)
O=C(/N=N/c1c([O-])[n-]c2ccc(S(=O)(=O)N3CCN(c4ccccc4)CC3)cc12)c1ccc([O-])c([O-])c1 (3D coordinates assigned)
O=C(/N=N/c1c([O-])[n-]c2ccc(S(=O)(=O)N3CCN(c4ccccc4)CC3)cc12)c1ccc([O-])c([O-])c1 (nonaromatic ring conformer: 107.9011121621419 kcal/mol)

>  <smiles>  (44) 
O=C(N=Nc1c(O)[nH]c2ccc(S(=O)(=O)N3CCN(c4ccccc4)CC3)cc12)c1ccc(O)c(O)c1

>  <score_type>  (44) 
oracle

>  <origin>  (44) 
adg

>  <m_score__min__energy>  (44) 
-19.699999999999999

>  <m_primary>  (44) 
energy

$$$$
44:0
     RDKit          3D

 76 80  0  0  0  0  0  0  0  0999 V2000
   59.2490   35.1370   45.8160 C   0  0  0  0  0  0  0  0  0  0  0  0
   58.8890   33.7230   45.8290 N   0  0  0  0  0  0  0  0  0  0  0  0
   58.1160   33.1140   44.9010 C   0  0  0  0  0  0  0  0  0  0  0  0
   57.6950   31.8920   45.3860 C   0  0  0  0  0  0  0  0  0  0  0  0
   56.5870   31.1470   44.8690 N   0  0  0  0  0  0  0  0  0  0  0  0
   56.5410   29.7130   44.9460 C   0  0  0  0  0  0  0  0  0  0  0  0
   55.4250   29.1250   44.9210 O   0  0  0  0  0  0  0  0  0  0  0  0
   57.7800   28.9220   45.0790 C   0  0  0  0  0  0  0  0  0  0  0  0
   58.8660   29.1360   44.2170 C   0  0  0  0  0  0  0  0  0  0  0  0
   60.0870   28.4990   44.4600 C   0  0  0  0  0  0  0  0  0  0  0  0
   60.2280   27.6460   45.5590 C   0  0  0  0  0  0  0  0  0  0  0  0
   59.1360   27.3920   46.4010 C   0  0  0  0  0  0  0  0  0  0  0  0
   59.2760   26.5460   47.5990 C   0  0  0  0  0  0  0  0  0  0  0  0
   58.3850   25.6920   47.8680 O   0  0  0  0  0  0  0  0  0  0  0  0
   60.4050   26.7150   48.4680 N   0  0  0  0  0  0  0  0  0  0  0  0
   60.3850   27.5150   49.6560 C   0  0  0  0  0  0  0  0  0  0  0  0
   59.8000   28.7610   49.8030 C   0  0  0  0  0  0  0  0  0  0  0  0
   60.1840   29.2140   51.0520 C   0  0  0  0  0  0  0  0  0  0  0  0
   59.8290   30.5500   51.5860 C   0  0  0  0  0  0  0  0  0  0  0  0
   60.2450   31.5770   50.9890 O   0  0  0  0  0  0  0  0  0  0  0  0
   59.0400   30.7150   52.7710 N   0  0  0  0  0  0  0  0  0  0  0  0
   57.6480   30.3970   52.9080 C   0  0  0  0  0  0  0  0  0  0  0  0
   57.2080   29.5120   53.9030 C   0  0  0  0  0  0  0  0  0  0  0  0
   55.8440   29.2310   54.0270 C   0  0  0  0  0  0  0  0  0  0  0  0
   54.9500   29.8000   53.1790 N   0  0  0  0  0  0  0  0  0  0  0  0
   55.3420   30.6470   52.1890 C   0  0  0  0  0  0  0  0  0  0  0  0
   54.4690   31.1450   51.4290 O   0  0  0  0  0  0  0  0  0  0  0  0
   56.7090   30.9600   52.0200 C   0  0  0  0  0  0  0  0  0  0  0  0
   57.1300   31.8710   50.9900 N   0  0  0  0  0  0  0  0  0  0  0  0
   60.9840   28.2930   51.6530 N   0  0  0  0  0  0  0  0  0  0  0  0
   61.6350   28.3630   52.9580 C   0  0  0  0  0  0  0  0  0  0  0  0
   61.1030   27.2530   50.8000 C   0  0  0  0  0  0  0  0  0  0  0  0
   57.9070   28.0130   46.1370 C   0  0  0  0  0  0  0  0  0  0  0  0
   58.2180   31.7470   46.6580 C   0  0  0  0  0  0  0  0  0  0  0  0
   58.9660   32.8850   46.8910 C   0  0  0  0  0  0  0  0  0  0  0  0
   59.5440   33.2290   48.1980 C   0  0  0  0  0  0  0  0  0  0  0  0
   58.7960   33.2630   49.2100 O   0  0  0  0  0  0  0  0  0  0  0  0
   60.9490   33.4540   48.3580 N   0  0  0  0  0  0  0  0  0  0  0  0
   62.0040   32.6360   47.7580 C   0  0  0  0  0  0  0  0  0  0  0  0
   63.3870   33.2160   48.0890 C   0  0  0  0  0  0  0  0  0  0  0  0
   64.1080   32.3740   49.0750 N   0  0  0  0  0  0  0  0  0  0  0  0
   65.2770   33.0770   49.6650 C   0  0  0  0  0  0  0  0  0  0  0  0
   64.9220   33.8380   50.9590 C   0  0  0  0  0  0  0  0  0  0  0  0
   63.5570   34.2140   50.9620 O   0  0  0  0  0  0  0  0  0  0  0  0
   62.7300   33.0610   51.0520 C   0  0  0  0  0  0  0  0  0  0  0  0
   63.2010   31.9020   50.1420 C   0  0  0  0  0  0  0  0  0  0  0  0
   59.3417   35.5013   46.8498 H   0  0  0  0  0  0  0  0  0  0  0  0
   60.2087   35.2662   45.2942 H   0  0  0  0  0  0  0  0  0  0  0  0
   58.4679   35.7094   45.2942 H   0  0  0  0  0  0  0  0  0  0  0  0
   57.8624   33.5279   43.9139 H   0  0  0  0  0  0  0  0  0  0  0  0
   58.7571   29.8046   43.3503 H   0  0  0  0  0  0  0  0  0  0  0  0
   60.9386   28.6694   43.7849 H   0  0  0  0  0  0  0  0  0  0  0  0
   61.1995   27.1724   45.7638 H   0  0  0  0  0  0  0  0  0  0  0  0
   59.1610   29.2834   49.0758 H   0  0  0  0  0  0  0  0  0  0  0  0
   57.9330   29.0409   54.5830 H   0  0  0  0  0  0  0  0  0  0  0  0
   55.4944   28.5468   54.8141 H   0  0  0  0  0  0  0  0  0  0  0  0
   56.4510   32.2980   50.3180 H   0  0  0  0  0  0  0  0  0  0  0  0
   58.1430   32.0860   50.8540 H   0  0  0  0  0  0  0  0  0  0  0  0
   60.8768   28.2815   53.7508 H   0  0  0  0  0  0  0  0  0  0  0  0
   62.3553   27.5371   53.0532 H   0  0  0  0  0  0  0  0  0  0  0  0
   62.1633   29.3231   53.0532 H   0  0  0  0  0  0  0  0  0  0  0  0
   61.6838   26.3384   50.9902 H   0  0  0  0  0  0  0  0  0  0  0  0
   57.0345   27.7842   46.7666 H   0  0  0  0  0  0  0  0  0  0  0  0
   58.0690   30.8997   47.3435 H   0  0  0  0  0  0  0  0  0  0  0  0
   61.9369   31.6116   48.1531 H   0  0  0  0  0  0  0  0  0  0  0  0
   61.8724   32.6301   46.6659 H   0  0  0  0  0  0  0  0  0  0  0  0
   63.9813   33.2727   47.1651 H   0  0  0  0  0  0  0  0  0  0  0  0
   63.2464   34.2156   48.5262 H   0  0  0  0  0  0  0  0  0  0  0  0
   66.0549   32.3343   49.8955 H   0  0  0  0  0  0  0  0  0  0  0  0
   65.6264   33.8165   48.9294 H   0  0  0  0  0  0  0  0  0  0  0  0
   65.1193   33.1889   51.8249 H   0  0  0  0  0  0  0  0  0  0  0  0
   65.5386   34.7473   51.0141 H   0  0  0  0  0  0  0  0  0  0  0  0
   62.7314   32.7100   52.0945 H   0  0  0  0  0  0  0  0  0  0  0  0
   61.7239   33.3527   50.7162 H   0  0  0  0  0  0  0  0  0  0  0  0
   63.7310   31.1597   50.7569 H   0  0  0  0  0  0  0  0  0  0  0  0
   62.3136   31.4603   49.6650 H   0  0  0  0  0  0  0  0  0  0  0  0
  1  2  1  0
  2  3  1  0
  3  4  2  0
  4  5  1  0
  5  6  1  0
  6  7  2  0
  6  8  1  0
  8  9  2  0
  9 10  1  0
 10 11  2  0
 11 12  1  0
 12 13  1  0
 13 14  2  0
 13 15  1  0
 15 16  1  0
 16 17  1  0
 17 18  2  0
 18 19  1  0
 19 20  2  0
 19 21  1  0
 21 22  1  0
 22 23  1  0
 23 24  2  0
 24 25  1  0
 25 26  1  0
 26 27  2  0
 26 28  1  0
 28 29  1  0
 18 30  1  0
 30 31  1  0
 30 32  1  0
 12 33  2  0
  4 34  1  0
 34 35  2  0
 35 36  1  0
 36 37  2  0
 36 38  1  0
 38 39  1  0
 39 40  1  0
 40 41  1  0
 41 42  1  0
 42 43  1  0
 43 44  1  0
 44 45  1  0
 45 46  1  0
 35  2  1  0
 46 41  1  0
 33  8  1  0
 32 16  2  0
 28 22  2  0
  1 47  1  0
  1 48  1  0
  1 49  1  0
  3 50  1  0
  9 51  1  0
 10 52  1  0
 11 53  1  0
 17 54  1  0
 23 55  1  0
 24 56  1  0
 29 57  1  0
 29 58  1  0
 31 59  1  0
 31 60  1  0
 31 61  1  0
 32 62  1  0
 33 63  1  0
 34 64  1  0
 39 65  1  0
 39 66  1  0
 40 67  1  0
 40 68  1  0
 42 69  1  0
 42 70  1  0
 43 71  1  0
 43 72  1  0
 45 73  1  0
 45 74  1  0
 46 75  1  0
 46 76  1  0
M  CHG  5   5  -1  15  -1  21  -1  25  -1  38  -1
M  END
>  <UniqueID>  (45) 
39

>  <SMILES>  (45) 
Cn1cc([N-]C(=O)c2cccc(C(=O)[N-]c3cc(C(=O)[N-]c4cc[n-]c(=O)c4N)n(C)c3)c2)cc1C(=O)[N-]CCN1CCOCC1

>  <Energy>  (45) 
175.0420425989379

>  <Genealogy>  (45) 
Cn1cc([N-]C(=O)c2cccc(C(=O)[N-]c3cc(C(=O)[N-]c4cc[n-]c(=O)c4N)n(C)c3)c2)cc1C(=O)[N-]CCN1CCOCC1 (protonated)
Cn1cc([N-]C(=O)c2cccc(C(=O)[N-]c3cc(C(=O)[N-]c4cc[n-]c(=O)c4N)n(C)c3)c2)cc1C(=O)[N-]CCN1CCOCC1 (3D coordinates assigned)
Cn1cc([N-]C(=O)c2cccc(C(=O)[N-]c3cc(C(=O)[N-]c4cc[n-]c(=O)c4N)n(C)c3)c2)cc1C(=O)[N-]CCN1CCOCC1 (nonaromatic ring conformer: 175.0420425989379 kcal/mol)

>  <smiles>  (45) 
Cn1cc(NC(=O)c2cccc(C(=O)Nc3cc(C(=O)Nc4cc[nH]c(=O)c4N)n(C)c3)c2)cc1C(=O)NCCN1CCOCC1

>  <score_type>  (45) 
oracle

>  <origin>  (45) 
adg

>  <m_score__min__energy>  (45) 
-18.899999999999999

>  <m_primary>  (45) 
energy

$$$$
45:0
     RDKit          3D

 47 50  0  0  0  0  0  0  0  0999 V2000
   57.8000   27.9170   43.9230 C   0  0  0  0  0  0  0  0  0  0  0  0
   58.1020   27.1530   44.9850 C   0  0  0  0  0  0  0  0  0  0  0  0
   57.8380   25.7830   45.1570 C   0  0  0  0  0  0  0  0  0  0  0  0
   57.1170   24.9170   44.4170 C   0  0  0  0  0  0  0  0  0  0  0  0
   55.7450   24.4650   44.7190 C   0  0  0  0  0  0  0  0  0  0  0  0
   55.1740   23.3410   44.0840 C   0  0  0  0  0  0  0  0  0  0  0  0
   55.8770   22.5890   43.1420 O   0  0  0  0  0  0  0  0  0  0  0  0
   53.9020   22.9770   44.3880 N   0  0  0  0  0  0  0  0  0  0  0  0
   53.1580   23.6810   45.2790 C   0  0  0  0  0  0  0  0  0  0  0  0
   51.6330   23.2120   45.6180 S   0  0  0  0  0  0  0  0  0  0  0  0
   53.6780   24.7810   45.8790 N   0  0  0  0  0  0  0  0  0  0  0  0
   54.9450   25.1910   45.6160 C   0  0  0  0  0  0  0  0  0  0  0  0
   55.3950   26.2180   46.1920 O   0  0  0  0  0  0  0  0  0  0  0  0
   58.4740   25.4090   46.3300 C   0  0  0  0  0  0  0  0  0  0  0  0
   59.0530   26.5460   46.8530 C   0  0  0  0  0  0  0  0  0  0  0  0
   59.8360   26.5900   48.1300 C   0  0  0  0  0  0  0  0  0  0  0  0
   58.8320   27.6020   46.0400 N   0  0  0  0  0  0  0  0  0  0  0  0
   59.2960   28.9460   46.2670 C   0  0  0  0  0  0  0  0  0  0  0  0
   60.6600   29.1970   46.4770 C   0  0  0  0  0  0  0  0  0  0  0  0
   61.1080   30.5020   46.7040 C   0  0  0  0  0  0  0  0  0  0  0  0
   60.2040   31.5710   46.7120 C   0  0  0  0  0  0  0  0  0  0  0  0
   60.6910   32.8640   46.9560 O   0  0  0  0  0  0  0  0  0  0  0  0
   61.7280   33.1870   47.8430 C   0  0  0  0  0  0  0  0  0  0  0  0
   61.4040   33.7950   49.0630 C   0  0  0  0  0  0  0  0  0  0  0  0
   62.4080   34.1170   49.9810 C   0  0  0  0  0  0  0  0  0  0  0  0
   63.7430   33.8220   49.6900 C   0  0  0  0  0  0  0  0  0  0  0  0
   64.0740   33.1970   48.4850 C   0  0  0  0  0  0  0  0  0  0  0  0
   63.0720   32.8740   47.5650 C   0  0  0  0  0  0  0  0  0  0  0  0
   58.8330   31.3150   46.5250 C   0  0  0  0  0  0  0  0  0  0  0  0
   58.3850   30.0110   46.2990 C   0  0  0  0  0  0  0  0  0  0  0  0
   58.0664   28.9842   43.9197 H   0  0  0  0  0  0  0  0  0  0  0  0
   57.2862   27.4757   43.0563 H   0  0  0  0  0  0  0  0  0  0  0  0
   57.5918   24.5128   43.5108 H   0  0  0  0  0  0  0  0  0  0  0  0
   56.1690   22.9630   42.2480 H   0  0  0  0  0  0  0  0  0  0  0  0
   58.5101   24.3979   46.7616 H   0  0  0  0  0  0  0  0  0  0  0  0
   59.1452   26.5512   48.9852 H   0  0  0  0  0  0  0  0  0  0  0  0
   60.5191   25.7288   48.1711 H   0  0  0  0  0  0  0  0  0  0  0  0
   60.4184   27.5223   48.1711 H   0  0  0  0  0  0  0  0  0  0  0  0
   61.3793   28.3649   46.4631 H   0  0  0  0  0  0  0  0  0  0  0  0
   62.1779   30.6899   46.8774 H   0  0  0  0  0  0  0  0  0  0  0  0
   60.3537   34.0203   49.2999 H   0  0  0  0  0  0  0  0  0  0  0  0
   62.1473   34.6028   50.9329 H   0  0  0  0  0  0  0  0  0  0  0  0
   64.5331   34.0820   50.4098 H   0  0  0  0  0  0  0  0  0  0  0  0
   65.1240   32.9588   48.2599 H   0  0  0  0  0  0  0  0  0  0  0  0
   63.3347   32.3738   46.6212 H   0  0  0  0  0  0  0  0  0  0  0  0
   58.1113   32.1446   46.5569 H   0  0  0  0  0  0  0  0  0  0  0  0
   57.3128   29.8192   46.1455 H   0  0  0  0  0  0  0  0  0  0  0  0
  1  2  2  0
  2  3  1  0
  3  4  2  3
  4  5  1  0
  5  6  2  0
  6  7  1  0
  6  8  1  0
  8  9  1  0
  9 10  2  0
  9 11  1  0
 11 12  1  0
 12 13  2  0
  3 14  1  0
 14 15  2  0
 15 16  1  0
 15 17  1  0
 17 18  1  0
 18 19  2  0
 19 20  1  0
 20 21  2  0
 21 22  1  0
 22 23  1  0
 23 24  2  0
 24 25  1  0
 25 26  2  0
 26 27  1  0
 27 28  2  0
 21 29  1  0
 29 30  2  0
 17  2  1  0
 30 18  1  0
 12  5  1  0
 28 23  1  0
  1 31  1  0
  1 32  1  0
  4 33  1  0
  7 34  1  0
 14 35  1  0
 16 36  1  0
 16 37  1  0
 16 38  1  0
 19 39  1  0
 20 40  1  0
 24 41  1  0
 25 42  1  0
 26 43  1  0
 27 44  1  0
 28 45  1  0
 29 46  1  0
 30 47  1  0
M  CHG  2   8  -1  11  -1
M  END
>  <UniqueID>  (46) 
40

>  <SMILES>  (46) 
C=c1c(=Cc2c(O)[n-]c(=S)[n-]c2=O)cc(C)n1-c1ccc(Oc2ccccc2)cc1

>  <Energy>  (46) 
107.15708613237577

>  <Genealogy>  (46) 
C=c1c(=Cc2c(O)[n-]c(=S)[n-]c2=O)cc(C)n1-c1ccc(Oc2ccccc2)cc1 (protonated)
C=c1c(=Cc2c(O)[n-]c(=S)[n-]c2=O)cc(C)n1-c1ccc(Oc2ccccc2)cc1 (3D coordinates assigned)
C=c1c(=Cc2c(O)[n-]c(=S)[n-]c2=O)cc(C)n1-c1ccc(Oc2ccccc2)cc1 (optimized conformer: 107.15708613237577 kcal/mol)

>  <smiles>  (46) 
C=c1c(=Cc2c(O)[nH]c(=S)[nH]c2=O)cc(C)n1-c1ccc(Oc2ccccc2)cc1

>  <score_type>  (46) 
oracle

>  <origin>  (46) 
adg

>  <m_score__min__energy>  (46) 
-12.81

>  <m_primary>  (46) 
energy

$$$$
46:0
     RDKit          3D

 42 43  0  0  0  0  0  0  0  0999 V2000
   60.5390   29.2890   48.0040 C   0  0  0  0  0  0  0  0  0  0  0  0
   61.4590   30.3440   47.7440 O   0  0  0  0  0  0  0  0  0  0  0  0
   61.1130   31.5930   47.2060 C   0  0  0  0  0  0  0  0  0  0  0  0
   59.8380   31.8370   46.6550 C   0  0  0  0  0  0  0  0  0  0  0  0
   59.5310   33.0820   46.0900 C   0  0  0  0  0  0  0  0  0  0  0  0
   57.9410   33.3870   45.3880 S   0  0  0  0  0  0  0  0  0  0  0  0
   57.9130   34.7980   44.8720 O   0  0  0  0  0  0  0  0  0  0  0  0
   56.8790   33.2510   46.4420 O   0  0  0  0  0  0  0  0  0  0  0  0
   57.5830   32.3000   44.0740 N   0  0  0  0  0  0  0  0  0  0  0  0
   56.6260   31.2620   44.4630 C   0  0  0  0  0  0  0  0  0  0  0  0
   57.2500   29.9000   44.4500 C   0  0  0  0  0  0  0  0  0  0  0  0
   58.4510   29.7700   44.0900 O   0  0  0  0  0  0  0  0  0  0  0  0
   56.5370   28.8060   45.0450 N   0  0  0  0  0  0  0  0  0  0  0  0
   56.9830   27.7270   45.6300 C   0  0  0  0  0  0  0  0  0  0  0  0
   58.3250   27.6470   45.8550 N   0  0  0  0  0  0  0  0  0  0  0  0
   58.9090   26.5740   46.4480 C   0  0  0  0  0  0  0  0  0  0  0  0
   58.1300   25.4970   46.8610 C   0  0  0  0  0  0  0  0  0  0  0  0
   56.7510   25.5470   46.6770 C   0  0  0  0  0  0  0  0  0  0  0  0
   56.1580   26.6630   46.0780 C   0  0  0  0  0  0  0  0  0  0  0  0
   54.7720   26.7020   45.9960 O   0  0  0  0  0  0  0  0  0  0  0  0
   60.5050   34.0840   46.0560 C   0  0  0  0  0  0  0  0  0  0  0  0
   61.7700   33.8540   46.5960 C   0  0  0  0  0  0  0  0  0  0  0  0
   62.0750   32.6250   47.1950 C   0  0  0  0  0  0  0  0  0  0  0  0
   63.3890   32.4250   47.7410 N   0  0  0  0  0  0  0  0  0  0  0  0
   63.8510   33.0740   48.9340 C   0  0  0  0  0  0  0  0  0  0  0  0
   65.1910   32.7310   49.4980 C   0  0  0  0  0  0  0  0  0  0  0  0
   63.1680   33.9870   49.4730 O   0  0  0  0  0  0  0  0  0  0  0  0
   60.4265   29.1600   49.0906 H   0  0  0  0  0  0  0  0  0  0  0  0
   59.5629   29.5362   47.5611 H   0  0  0  0  0  0  0  0  0  0  0  0
   60.9167   28.3556   47.5611 H   0  0  0  0  0  0  0  0  0  0  0  0
   59.0773   31.0425   46.6689 H   0  0  0  0  0  0  0  0  0  0  0  0
   56.2601   31.4768   45.4779 H   0  0  0  0  0  0  0  0  0  0  0  0
   55.7999   31.2676   43.7367 H   0  0  0  0  0  0  0  0  0  0  0  0
   59.9980   26.5560   46.6020 H   0  0  0  0  0  0  0  0  0  0  0  0
   58.5981   24.6174   47.3269 H   0  0  0  0  0  0  0  0  0  0  0  0
   56.1245   24.7043   47.0045 H   0  0  0  0  0  0  0  0  0  0  0  0
   60.2726   35.0583   45.6013 H   0  0  0  0  0  0  0  0  0  0  0  0
   62.5343   34.6438   46.5512 H   0  0  0  0  0  0  0  0  0  0  0  0
   64.0890   31.9060   47.1630 H   0  0  0  0  0  0  0  0  0  0  0  0
   65.1406   32.7439   50.5968 H   0  0  0  0  0  0  0  0  0  0  0  0
   65.4869   31.7282   49.1563 H   0  0  0  0  0  0  0  0  0  0  0  0
   65.9323   33.4683   49.1563 H   0  0  0  0  0  0  0  0  0  0  0  0
  1  2  1  0
  2  3  1  0
  3  4  2  0
  4  5  1  0
  5  6  1  0
  6  7  2  0
  6  8  2  0
  6  9  1  0
  9 10  1  0
 10 11  1  0
 11 12  2  0
 11 13  1  0
 13 14  2  3
 14 15  1  0
 15 16  1  0
 16 17  2  0
 17 18  1  0
 18 19  2  0
 19 20  1  0
  5 21  2  0
 21 22  1  0
 22 23  2  0
 23 24  1  0
 24 25  1  0
 25 26  1  0
 25 27  2  0
 23  3  1  0
 19 14  1  0
  1 28  1  0
  1 29  1  0
  1 30  1  0
  4 31  1  0
 10 32  1  0
 10 33  1  0
 16 34  1  0
 17 35  1  0
 18 36  1  0
 21 37  1  0
 22 38  1  0
 24 39  1  0
 26 40  1  0
 26 41  1  0
 26 42  1  0
M  CHG  3   9  -1  15  -1  20  -1
M  END
>  <UniqueID>  (47) 
41

>  <SMILES>  (47) 
COc1cc(S(=O)(=O)[N-]CC(=O)N=c2[n-]cccc2[O-])ccc1NC(C)=O

>  <Energy>  (47) 
53.346310023634636

>  <Genealogy>  (47) 
COc1cc(S(=O)(=O)[N-]CC(=O)N=c2[n-]cccc2[O-])ccc1NC(C)=O (protonated)
COc1cc(S(=O)(=O)[N-]CC(=O)N=c2[n-]cccc2[O-])ccc1NC(C)=O (3D coordinates assigned)
COc1cc(S(=O)(=O)[N-]CC(=O)N=c2[n-]cccc2[O-])ccc1NC(C)=O (optimized conformer: 53.346310023634636 kcal/mol)

>  <smiles>  (47) 
COc1cc(S(=O)(=O)NCC(=O)N=c2[nH]cccc2O)ccc1NC(C)=O

>  <score_type>  (47) 
oracle

>  <origin>  (47) 
adg

>  <m_score__min__energy>  (47) 
-14.890000000000001

>  <m_primary>  (47) 
energy

$$$$
47:0
     RDKit          3D

 41 43  0  0  0  0  0  0  0  0999 V2000
   54.7700   29.6970   43.8500 N   0  0  0  0  0  0  0  0  0  0  0  0
   56.4670   29.9910   43.9870 S   0  0  0  0  0  0  0  0  0  0  0  0
   56.6980   31.0870   44.9870 O   0  0  0  0  0  0  0  0  0  0  0  0
   57.0200   30.4140   42.6550 O   0  0  0  0  0  0  0  0  0  0  0  0
   57.2760   28.5300   44.5190 C   0  0  0  0  0  0  0  0  0  0  0  0
   58.2470   27.8420   43.8050 C   0  0  0  0  0  0  0  0  0  0  0  0
   58.7180   26.7070   44.4760 C   0  0  0  0  0  0  0  0  0  0  0  0
   58.1150   26.5150   45.7140 C   0  0  0  0  0  0  0  0  0  0  0  0
   58.4100   25.3990   46.6670 C   0  0  0  0  0  0  0  0  0  0  0  0
   58.8120   25.9110   47.9790 N   0  0  0  0  0  0  0  0  0  0  0  0
   60.2960   26.8180   47.8870 S   0  0  0  0  0  0  0  0  0  0  0  0
   61.1870   26.2160   46.8370 O   0  0  0  0  0  0  0  0  0  0  0  0
   61.0010   26.7350   49.2110 O   0  0  0  0  0  0  0  0  0  0  0  0
   59.9850   28.5150   47.5220 C   0  0  0  0  0  0  0  0  0  0  0  0
   60.3770   29.0670   46.2960 C   0  0  0  0  0  0  0  0  0  0  0  0
   60.1050   30.4070   46.0070 C   0  0  0  0  0  0  0  0  0  0  0  0
   59.4410   31.2180   46.9450 C   0  0  0  0  0  0  0  0  0  0  0  0
   59.1430   32.5970   46.6480 N   0  0  0  0  0  0  0  0  0  0  0  0
   58.6610   33.0790   45.3620 C   0  0  0  0  0  0  0  0  0  0  0  0
   58.7140   34.6160   45.4360 C   0  0  0  0  0  0  0  0  0  0  0  0
   58.9400   34.9890   46.9070 C   0  0  0  0  0  0  0  0  0  0  0  0
   59.2520   33.6920   47.5410 C   0  0  0  0  0  0  0  0  0  0  0  0
   59.5160   33.5670   48.7660 O   0  0  0  0  0  0  0  0  0  0  0  0
   59.0360   30.6510   48.1670 C   0  0  0  0  0  0  0  0  0  0  0  0
   59.3110   29.3120   48.4540 C   0  0  0  0  0  0  0  0  0  0  0  0
   56.9940   27.7440   45.9770 S   0  0  0  0  0  0  0  0  0  0  0  0
   54.4410   29.3650   44.7840 H   0  0  0  0  0  0  0  0  0  0  0  0
   58.6090   28.1558   42.8148 H   0  0  0  0  0  0  0  0  0  0  0  0
   59.4867   26.0357   44.0656 H   0  0  0  0  0  0  0  0  0  0  0  0
   57.5079   24.7807   46.7848 H   0  0  0  0  0  0  0  0  0  0  0  0
   59.2396   24.8036   46.2579 H   0  0  0  0  0  0  0  0  0  0  0  0
   60.9013   28.4430   45.5572 H   0  0  0  0  0  0  0  0  0  0  0  0
   60.4123   30.8304   45.0394 H   0  0  0  0  0  0  0  0  0  0  0  0
   59.3072   32.7132   44.5504 H   0  0  0  0  0  0  0  0  0  0  0  0
   57.6417   32.7212   45.1547 H   0  0  0  0  0  0  0  0  0  0  0  0
   59.5420   34.9952   44.8190 H   0  0  0  0  0  0  0  0  0  0  0  0
   57.7804   35.0587   45.0587 H   0  0  0  0  0  0  0  0  0  0  0  0
   59.7804   35.6910   47.0111 H   0  0  0  0  0  0  0  0  0  0  0  0
   58.0747   35.4938   47.3615 H   0  0  0  0  0  0  0  0  0  0  0  0
   58.4983   31.2672   48.9026 H   0  0  0  0  0  0  0  0  0  0  0  0
   58.9965   28.8823   49.4165 H   0  0  0  0  0  0  0  0  0  0  0  0
  1  2  1  0
  2  3  2  0
  2  4  2  0
  2  5  1  0
  5  6  2  0
  6  7  1  0
  7  8  2  0
  8  9  1  0
  9 10  1  0
 10 11  1  0
 11 12  2  0
 11 13  2  0
 11 14  1  0
 14 15  2  0
 15 16  1  0
 16 17  2  0
 17 18  1  0
 18 19  1  0
 19 20  1  0
 20 21  1  0
 21 22  1  0
 22 23  2  0
 17 24  1  0
 24 25  2  0
  8 26  1  0
 26  5  1  0
 25 14  1  0
 22 18  1  0
  1 27  1  0
  6 28  1  0
  7 29  1  0
  9 30  1  0
  9 31  1  0
 15 32  1  0
 16 33  1  0
 19 34  1  0
 19 35  1  0
 20 36  1  0
 20 37  1  0
 21 38  1  0
 21 39  1  0
 24 40  1  0
 25 41  1  0
M  CHG  2   1  -1  10  -1
M  END
>  <UniqueID>  (48) 
42

>  <SMILES>  (48) 
[NH-]S(=O)(=O)c1ccc(C[N-]S(=O)(=O)c2ccc(N3CCCC3=O)cc2)s1

>  <Energy>  (48) 
76.12000177979147

>  <Genealogy>  (48) 
[NH-]S(=O)(=O)c1ccc(C[N-]S(=O)(=O)c2ccc(N3CCCC3=O)cc2)s1 (protonated)
[NH-]S(=O)(=O)c1ccc(C[N-]S(=O)(=O)c2ccc(N3CCCC3=O)cc2)s1 (3D coordinates assigned)
[NH-]S(=O)(=O)c1ccc(C[N-]S(=O)(=O)c2ccc(N3CCCC3=O)cc2)s1 (nonaromatic ring conformer: 76.12000177979147 kcal/mol)

>  <smiles>  (48) 
NS(=O)(=O)c1ccc(CNS(=O)(=O)c2ccc(N3CCCC3=O)cc2)s1

>  <score_type>  (48) 
oracle

>  <origin>  (48) 
adg

>  <m_score__min__energy>  (48) 
-13.01

>  <m_primary>  (48) 
energy

$$$$
48:0
     RDKit          3D

 55 58  0  0  0  0  0  0  0  0999 V2000
   62.9770   33.7590   46.5720 C   0  0  0  0  0  0  0  0  0  0  0  0
   63.1040   32.3950   46.9590 O   0  0  0  0  0  0  0  0  0  0  0  0
   62.0680   31.6240   47.5120 C   0  0  0  0  0  0  0  0  0  0  0  0
   61.4340   30.6010   46.7770 C   0  0  0  0  0  0  0  0  0  0  0  0
   60.3860   29.8700   47.3410 C   0  0  0  0  0  0  0  0  0  0  0  0
   59.9580   30.1480   48.6390 C   0  0  0  0  0  0  0  0  0  0  0  0
   60.5780   31.1560   49.3790 C   0  0  0  0  0  0  0  0  0  0  0  0
   61.6440   31.8920   48.8320 C   0  0  0  0  0  0  0  0  0  0  0  0
   62.2430   33.0270   49.6250 C   0  0  0  0  0  0  0  0  0  0  0  0
   61.4630   34.2390   49.4120 N   0  0  0  0  0  0  0  0  0  0  0  0
   60.0370   34.2050   49.3270 C   0  0  0  0  0  0  0  0  0  0  0  0
   59.3570   34.3170   50.3830 O   0  0  0  0  0  0  0  0  0  0  0  0
   59.3680   34.1120   48.0100 C   0  0  0  0  0  0  0  0  0  0  0  0
   58.2940   33.2250   47.8190 C   0  0  0  0  0  0  0  0  0  0  0  0
   57.7370   33.0520   46.5520 C   0  0  0  0  0  0  0  0  0  0  0  0
   58.2480   33.7560   45.4500 C   0  0  0  0  0  0  0  0  0  0  0  0
   57.7240   33.5520   44.1300 N   0  0  0  0  0  0  0  0  0  0  0  0
   57.7650   32.3110   43.4160 C   0  0  0  0  0  0  0  0  0  0  0  0
   58.1540   32.3080   42.2180 O   0  0  0  0  0  0  0  0  0  0  0  0
   57.4110   31.0360   44.0670 C   0  0  0  0  0  0  0  0  0  0  0  0
   58.2710   29.9920   44.3360 C   0  0  0  0  0  0  0  0  0  0  0  0
   57.4600   29.0470   44.9410 C   0  0  0  0  0  0  0  0  0  0  0  0
   57.8330   27.7040   45.4490 C   0  0  0  0  0  0  0  0  0  0  0  0
   59.1990   27.3980   45.5700 C   0  0  0  0  0  0  0  0  0  0  0  0
   59.6100   26.1530   46.0410 C   0  0  0  0  0  0  0  0  0  0  0  0
   58.6670   25.1930   46.3990 C   0  0  0  0  0  0  0  0  0  0  0  0
   57.2950   25.4710   46.3020 C   0  0  0  0  0  0  0  0  0  0  0  0
   56.3020   24.4160   46.7100 C   0  0  0  0  0  0  0  0  0  0  0  0
   56.8720   26.7410   45.8390 C   0  0  0  0  0  0  0  0  0  0  0  0
   55.5120   27.0650   45.7870 O   0  0  0  0  0  0  0  0  0  0  0  0
   56.2440   29.5390   45.0250 O   0  0  0  0  0  0  0  0  0  0  0  0
   56.1760   30.7310   44.5100 N   0  0  0  0  0  0  0  0  0  0  0  0
   59.2750   34.6850   45.6450 C   0  0  0  0  0  0  0  0  0  0  0  0
   59.8390   34.8570   46.9130 C   0  0  0  0  0  0  0  0  0  0  0  0
   62.9182   34.3911   47.4703 H   0  0  0  0  0  0  0  0  0  0  0  0
   63.8516   34.0532   45.9733 H   0  0  0  0  0  0  0  0  0  0  0  0
   62.0631   33.8867   45.9733 H   0  0  0  0  0  0  0  0  0  0  0  0
   61.7670   30.3773   45.7528 H   0  0  0  0  0  0  0  0  0  0  0  0
   59.8973   29.0736   46.7605 H   0  0  0  0  0  0  0  0  0  0  0  0
   59.1309   29.5722   49.0800 H   0  0  0  0  0  0  0  0  0  0  0  0
   60.2297   31.3766   50.3988 H   0  0  0  0  0  0  0  0  0  0  0  0
   62.2351   32.7701   50.6946 H   0  0  0  0  0  0  0  0  0  0  0  0
   63.2782   33.1967   49.2940 H   0  0  0  0  0  0  0  0  0  0  0  0
   57.8903   32.6637   48.6745 H   0  0  0  0  0  0  0  0  0  0  0  0
   56.8927   32.3602   46.4154 H   0  0  0  0  0  0  0  0  0  0  0  0
   59.3477   29.9257   44.1206 H   0  0  0  0  0  0  0  0  0  0  0  0
   59.9519   28.1495   45.2899 H   0  0  0  0  0  0  0  0  0  0  0  0
   60.6829   25.9276   46.1304 H   0  0  0  0  0  0  0  0  0  0  0  0
   59.0002   24.2090   46.7607 H   0  0  0  0  0  0  0  0  0  0  0  0
   56.2528   24.3637   47.8077 H   0  0  0  0  0  0  0  0  0  0  0  0
   55.3097   24.6722   46.3103 H   0  0  0  0  0  0  0  0  0  0  0  0
   56.6178   23.4411   46.3103 H   0  0  0  0  0  0  0  0  0  0  0  0
   55.1430   27.8360   45.2450 H   0  0  0  0  0  0  0  0  0  0  0  0
   59.6407   35.2830   44.7973 H   0  0  0  0  0  0  0  0  0  0  0  0
   60.6564   35.5795   47.0539 H   0  0  0  0  0  0  0  0  0  0  0  0
  1  2  1  0
  2  3  1  0
  3  4  2  0
  4  5  1  0
  5  6  2  0
  6  7  1  0
  7  8  2  0
  8  9  1  0
  9 10  1  0
 10 11  1  0
 11 12  2  0
 11 13  1  0
 13 14  2  0
 14 15  1  0
 15 16  2  0
 16 17  1  0
 17 18  1  0
 18 19  2  0
 18 20  1  0
 20 21  1  0
 21 22  2  0
 22 23  1  0
 23 24  2  0
 24 25  1  0
 25 26  2  0
 26 27  1  0
 27 28  1  0
 27 29  2  0
 29 30  1  0
 22 31  1  0
 31 32  1  0
 16 33  1  0
 33 34  2  0
  8  3  1  0
 34 13  1  0
 32 20  2  0
 29 23  1  0
  1 35  1  0
  1 36  1  0
  1 37  1  0
  4 38  1  0
  5 39  1  0
  6 40  1  0
  7 41  1  0
  9 42  1  0
  9 43  1  0
 14 44  1  0
 15 45  1  0
 21 46  1  0
 24 47  1  0
 25 48  1  0
 26 49  1  0
 28 50  1  0
 28 51  1  0
 28 52  1  0
 30 53  1  0
 33 54  1  0
 34 55  1  0
M  CHG  2  10  -1  17  -1
M  END
>  <UniqueID>  (49) 
43

>  <SMILES>  (49) 
COc1ccccc1C[N-]C(=O)c1ccc([N-]C(=O)c2cc(-c3cccc(C)c3O)on2)cc1

>  <Energy>  (49) 
100.29640711789887

>  <Genealogy>  (49) 
COc1ccccc1C[N-]C(=O)c1ccc([N-]C(=O)c2cc(-c3cccc(C)c3O)on2)cc1 (protonated)
COc1ccccc1C[N-]C(=O)c1ccc([N-]C(=O)c2cc(-c3cccc(C)c3O)on2)cc1 (3D coordinates assigned)
COc1ccccc1C[N-]C(=O)c1ccc([N-]C(=O)c2cc(-c3cccc(C)c3O)on2)cc1 (optimized conformer: 100.29640711789887 kcal/mol)

>  <smiles>  (49) 
COc1ccccc1CNC(=O)c1ccc(NC(=O)c2cc(-c3cccc(C)c3O)on2)cc1

>  <score_type>  (49) 
oracle

>  <origin>  (49) 
adg

>  <m_score__min__energy>  (49) 
-13.050000000000001

>  <m_primary>  (49) 
energy

$$$$
49:0
     RDKit          3D

 48 50  0  0  0  0  0  0  0  0999 V2000
   57.5262   31.6972   41.8555 H   0  0  0  0  0  0  0  0  0  0  0  0
   57.1870   31.1780   42.7640 C   0  0  0  0  0  0  0  0  0  0  0  0
   56.6440   29.5880   42.8490 S   0  0  0  0  0  0  0  0  0  0  0  0
   56.3610   29.6680   44.5010 C   0  0  0  0  0  0  0  0  0  0  0  0
   55.8990   28.6750   45.2000 N   0  0  0  0  0  0  0  0  0  0  0  0
   56.6420   27.5200   45.6200 C   0  0  0  0  0  0  0  0  0  0  0  0
   56.0920   26.5880   46.2670 O   0  0  0  0  0  0  0  0  0  0  0  0
   58.0830   27.4000   45.2380 C   0  0  0  0  0  0  0  0  0  0  0  0
   58.4485   26.3969   45.5031 H   0  0  0  0  0  0  0  0  0  0  0  0
   58.1852   27.5580   44.1542 H   0  0  0  0  0  0  0  0  0  0  0  0
   58.8880   28.4290   45.9640 C   0  0  0  0  0  0  0  0  0  0  0  0
   58.8900   28.6670   47.6280 S   0  0  0  0  0  0  0  0  0  0  0  0
   60.0700   29.8660   47.6390 C   0  0  0  0  0  0  0  0  0  0  0  0
   60.4477   30.3896   48.5296 H   0  0  0  0  0  0  0  0  0  0  0  0
   60.4860   30.0820   46.3310 C   0  0  0  0  0  0  0  0  0  0  0  0
   61.2563   30.8182   46.0579 H   0  0  0  0  0  0  0  0  0  0  0  0
   59.8320   29.2740   45.3940 C   0  0  0  0  0  0  0  0  0  0  0  0
   60.0440   29.3049   44.3151 H   0  0  0  0  0  0  0  0  0  0  0  0
   56.6660   30.8820   45.0090 N   0  0  0  0  0  0  0  0  0  0  0  0
   57.1320   31.7220   44.0450 C   0  0  0  0  0  0  0  0  0  0  0  0
   57.5310   33.1340   44.3570 C   0  0  0  0  0  0  0  0  0  0  0  0
   56.6418   33.7022   44.6676 H   0  0  0  0  0  0  0  0  0  0  0  0
   57.9731   33.5879   43.4578 H   0  0  0  0  0  0  0  0  0  0  0  0
   58.5280   33.1560   45.4460 N   0  0  0  0  0  0  0  0  0  0  0  0
   57.8520   33.0950   46.7640 C   0  0  0  0  0  0  0  0  0  0  0  0
   57.4321   32.0872   46.8983 H   0  0  0  0  0  0  0  0  0  0  0  0
   57.0673   33.8659   46.7719 H   0  0  0  0  0  0  0  0  0  0  0  0
   58.8120   33.3920   47.9390 C   0  0  0  0  0  0  0  0  0  0  0  0
   58.6207   32.6720   48.7484 H   0  0  0  0  0  0  0  0  0  0  0  0
   58.6317   34.4214   48.2822 H   0  0  0  0  0  0  0  0  0  0  0  0
   60.2820   33.2770   47.5040 C   0  0  0  0  0  0  0  0  0  0  0  0
   60.4555   32.2467   47.1599 H   0  0  0  0  0  0  0  0  0  0  0  0
   61.2130   33.5340   48.6580 C   0  0  0  0  0  0  0  0  0  0  0  0
   60.8130   33.3740   49.8440 O   0  0  0  0  0  0  0  0  0  0  0  0
   62.5470   33.9820   48.4030 N   0  0  0  0  0  0  0  0  0  0  0  0
   63.6050   33.0900   47.9490 C   0  0  0  0  0  0  0  0  0  0  0  0
   64.2067   33.5980   47.1809 H   0  0  0  0  0  0  0  0  0  0  0  0
   63.1561   32.1795   47.5253 H   0  0  0  0  0  0  0  0  0  0  0  0
   64.4970   32.7120   49.1210 C   0  0  0  0  0  0  0  0  0  0  0  0
   63.9761   32.9327   50.0644 H   0  0  0  0  0  0  0  0  0  0  0  0
   64.7297   31.6379   49.0732 H   0  0  0  0  0  0  0  0  0  0  0  0
   65.4305   33.2919   49.0732 H   0  0  0  0  0  0  0  0  0  0  0  0
   60.5780   34.2340   46.3300 C   0  0  0  0  0  0  0  0  0  0  0  0
   61.4488   33.8547   45.7752 H   0  0  0  0  0  0  0  0  0  0  0  0
   60.7729   35.2318   46.7500 H   0  0  0  0  0  0  0  0  0  0  0  0
   59.3880   34.3550   45.3610 C   0  0  0  0  0  0  0  0  0  0  0  0
   59.7668   34.4568   44.3333 H   0  0  0  0  0  0  0  0  0  0  0  0
   58.7940   35.2393   45.6353 H   0  0  0  0  0  0  0  0  0  0  0  0
  1  2  1  0
  2  3  1  0
  3  4  1  0
  4  5  2  0
  5  6  1  0
  6  7  2  0
  6  8  1  0
  8  9  1  0
  8 10  1  0
  8 11  1  0
 11 12  1  0
 12 13  1  0
 13 14  1  0
 13 15  2  0
 15 16  1  0
 15 17  1  0
 17 18  1  0
  4 19  1  0
 19 20  1  0
 20 21  1  0
 21 22  1  0
 21 23  1  0
 21 24  1  0
 24 25  1  0
 25 26  1  0
 25 27  1  0
 25 28  1  0
 28 29  1  0
 28 30  1  0
 28 31  1  0
 31 32  1  0
 31 33  1  0
 33 34  2  0
 33 35  1  0
 35 36  1  0
 36 37  1  0
 36 38  1  0
 36 39  1  0
 39 40  1  0
 39 41  1  0
 39 42  1  0
 31 43  1  0
 43 44  1  0
 43 45  1  0
 43 46  1  0
 46 47  1  0
 46 48  1  0
 20  2  2  0
 46 24  1  0
 17 11  2  0
M  CHG  2  19  -1  35  -1
M  END
>  <UniqueID>  (50) 
44

>  <SMILES>  (50) 
CC[N-]C(=O)C1CCN(Cc2cs/c(=N/C(=O)Cc3cccs3)[n-]2)CC1

>  <Energy>  (50) 
102.18731435249646

>  <Genealogy>  (50) 
CC[N-]C(=O)C1CCN(Cc2csc(=NC(=O)Cc3cccs3)[n-]2)CC1 (protonated)
CC[N-]C(=O)C1CCN(Cc2cs/c(=N/C(=O)Cc3cccs3)[n-]2)CC1 (cis-trans isomerization)
CC[N-]C(=O)C1CCN(Cc2cs/c(=N/C(=O)Cc3cccs3)[n-]2)CC1 (3D coordinates assigned)
CC[N-]C(=O)C1CCN(Cc2cs/c(=N/C(=O)Cc3cccs3)[n-]2)CC1 (nonaromatic ring conformer: 102.18731435249646 kcal/mol)

>  <smiles>  (50) 
CCNC(=O)C1CCN(Cc2csc(=NC(=O)Cc3cccs3)[nH]2)CC1

>  <score_type>  (50) 
oracle

>  <origin>  (50) 
adg

>  <m_score__min__energy>  (50) 
-11.130000000000001

>  <m_primary>  (50) 
energy

$$$$
50:0
     RDKit          3D

 40 43  0  0  0  0  0  0  0  0999 V2000
   57.2777   25.4905   47.8969 H   0  0  0  0  0  0  0  0  0  0  0  0
   56.8580   25.3810   46.8860 C   0  0  0  0  0  0  0  0  0  0  0  0
   55.9700   24.3980   46.6820 C   0  0  0  0  0  0  0  0  0  0  0  0
   54.7450   24.6020   45.9810 N   0  0  0  0  0  0  0  0  0  0  0  0
   54.1540   23.3020   45.9770 C   0  0  0  0  0  0  0  0  0  0  0  0
   53.0370   23.0600   45.4520 O   0  0  0  0  0  0  0  0  0  0  0  0
   54.9250   22.3300   46.6030 O   0  0  0  0  0  0  0  0  0  0  0  0
   56.0630   22.9820   47.0390 C   0  0  0  0  0  0  0  0  0  0  0  0
   57.0380   22.4000   47.5830 O   0  0  0  0  0  0  0  0  0  0  0  0
   57.3110   26.3260   45.8480 C   0  0  0  0  0  0  0  0  0  0  0  0
   57.6470   25.8810   44.5610 C   0  0  0  0  0  0  0  0  0  0  0  0
   57.5375   24.8174   44.3025 H   0  0  0  0  0  0  0  0  0  0  0  0
   58.1200   26.7840   43.6070 C   0  0  0  0  0  0  0  0  0  0  0  0
   58.3676   26.4319   42.5947 H   0  0  0  0  0  0  0  0  0  0  0  0
   58.2800   28.1330   43.9330 C   0  0  0  0  0  0  0  0  0  0  0  0
   58.6467   28.8391   43.1734 H   0  0  0  0  0  0  0  0  0  0  0  0
   57.9750   28.5940   45.2270 C   0  0  0  0  0  0  0  0  0  0  0  0
   58.1580   30.0220   45.5840 C   0  0  0  0  0  0  0  0  0  0  0  0
   57.3400   30.9460   45.1820 N   0  0  0  0  0  0  0  0  0  0  0  0
   57.7450   32.2140   45.7540 C   0  0  2  0  0  0  0  0  0  0  0  0
   57.1244   32.4253   46.6373 H   0  0  0  0  0  0  0  0  0  0  0  0
   57.5240   33.4490   44.8740 C   0  0  0  0  0  0  0  0  0  0  0  0
   57.7246   33.1854   43.8251 H   0  0  0  0  0  0  0  0  0  0  0  0
   56.4830   33.7847   44.9912 H   0  0  0  0  0  0  0  0  0  0  0  0
   58.4750   34.6080   45.3010 C   0  0  0  0  0  0  0  0  0  0  0  0
   59.3284   34.6298   44.6073 H   0  0  0  0  0  0  0  0  0  0  0  0
   57.8840   35.5352   45.2704 H   0  0  0  0  0  0  0  0  0  0  0  0
   59.0240   34.4680   46.7500 C   0  0  0  0  0  0  0  0  0  0  0  0
   59.7699   35.2593   46.9159 H   0  0  0  0  0  0  0  0  0  0  0  0
   58.1618   34.5520   47.4280 H   0  0  0  0  0  0  0  0  0  0  0  0
   59.6960   33.0910   47.0400 C   0  0  0  0  0  0  0  0  0  0  0  0
   60.7881   33.1995   46.9656 H   0  0  0  0  0  0  0  0  0  0  0  0
   59.4126   32.7655   48.0518 H   0  0  0  0  0  0  0  0  0  0  0  0
   59.2250   32.0340   46.0320 C   0  0  1  0  0  0  0  0  0  0  0  0
   59.9338   32.2198   45.2116 H   0  0  0  0  0  0  0  0  0  0  0  0
   59.3040   30.5600   46.3980 C   0  0  0  0  0  0  0  0  0  0  0  0
   60.2634   30.1156   46.0944 H   0  0  0  0  0  0  0  0  0  0  0  0
   59.2441   30.3482   47.4758 H   0  0  0  0  0  0  0  0  0  0  0  0
   57.5020   27.6750   46.1830 C   0  0  0  0  0  0  0  0  0  0  0  0
   57.2797   28.0185   47.2041 H   0  0  0  0  0  0  0  0  0  0  0  0
  1  2  1  0
  2  3  2  0
  3  4  1  0
  4  5  1  0
  5  6  2  0
  5  7  1  0
  7  8  1  0
  8  9  2  0
  2 10  1  0
 10 11  2  0
 11 12  1  0
 11 13  1  0
 13 14  1  0
 13 15  2  0
 15 16  1  0
 15 17  1  0
 17 18  1  0
 18 19  2  0
 19 20  1  0
 20 21  1  1
 20 22  1  0
 22 23  1  0
 22 24  1  0
 22 25  1  0
 25 26  1  0
 25 27  1  0
 25 28  1  0
 28 29  1  0
 28 30  1  0
 28 31  1  0
 31 32  1  0
 31 33  1  0
 31 34  1  0
 34 35  1  6
 34 36  1  0
 36 37  1  0
 36 38  1  0
 17 39  2  0
 39 40  1  0
  8  3  1  0
 39 10  1  0
 36 18  1  0
 34 20  1  0
M  CHG  1   4  -1
M  END
>  <UniqueID>  (51) 
45

>  <SMILES>  (51) 
O=C1[N-]/C(=C/c2cccc(C3=N[C@@H]4CCCC[C@H]4C3)c2)C(=O)O1

>  <Energy>  (51) 
97.28470056636438

>  <Genealogy>  (51) 
O=C1[N-]C(=Cc2cccc(C3=NC4CCCCC4C3)c2)C(=O)O1 (protonated)
O=C1[N-]C(=Cc2cccc(C3=N[C@@H]4CCCC[C@H]4C3)c2)C(=O)O1 (chirality)
O=C1[N-]/C(=C/c2cccc(C3=N[C@@H]4CCCC[C@H]4C3)c2)C(=O)O1 (cis-trans isomerization)
O=C1[N-]/C(=C/c2cccc(C3=N[C@@H]4CCCC[C@H]4C3)c2)C(=O)O1 (3D coordinates assigned)
O=C1[N-]/C(=C/c2cccc(C3=N[C@@H]4CCCC[C@H]4C3)c2)C(=O)O1 (nonaromatic ring conformer: 97.28470056636438 kcal/mol)

>  <smiles>  (51) 
O=C1NC(=Cc2cccc(C3=NC4CCCCC4C3)c2)C(=O)O1

>  <score_type>  (51) 
oracle

>  <origin>  (51) 
adg

>  <m_score__min__energy>  (51) 
-10.630000000000001

>  <m_primary>  (51) 
energy

$$$$
51:0
     RDKit          3D

 61 64  0  0  0  0  0  0  0  0999 V2000
   55.5880   22.7000   42.7340 N   0  0  0  0  0  0  0  0  0  0  0  0
   56.1610   23.0540   43.8400 C   0  0  0  0  0  0  0  0  0  0  0  0
   55.9230   24.2860   44.3700 N   0  0  0  0  0  0  0  0  0  0  0  0
   56.5080   24.7060   45.5270 C   0  0  0  0  0  0  0  0  0  0  0  0
   56.1830   26.0120   46.0300 N   0  0  0  0  0  0  0  0  0  0  0  0
   56.9660   27.0540   46.0410 C   0  0  0  0  0  0  0  0  0  0  0  0
   57.7300   27.3280   47.1820 C   0  0  0  0  0  0  0  0  0  0  0  0
   58.5480   28.4610   47.2070 C   0  0  0  0  0  0  0  0  0  0  0  0
   59.3500   28.7360   48.3560 N   0  0  0  0  0  0  0  0  0  0  0  0
   59.3060   30.2970   49.0990 S   0  0  0  0  0  0  0  0  0  0  0  0
   60.6920   30.8820   49.1020 O   0  0  0  0  0  0  0  0  0  0  0  0
   58.4000   31.2120   48.3180 O   0  0  0  0  0  0  0  0  0  0  0  0
   58.7260   30.1400   50.7560 C   0  0  0  0  0  0  0  0  0  0  0  0
   57.6350   30.9040   51.2020 C   0  0  0  0  0  0  0  0  0  0  0  0
   57.1970   30.7950   52.5270 C   0  0  0  0  0  0  0  0  0  0  0  0
   57.8510   29.9310   53.4140 C   0  0  0  0  0  0  0  0  0  0  0  0
   58.9470   29.1780   52.9770 C   0  0  0  0  0  0  0  0  0  0  0  0
   59.3840   29.2810   51.6510 C   0  0  0  0  0  0  0  0  0  0  0  0
   58.5890   29.3160   46.0990 C   0  0  0  0  0  0  0  0  0  0  0  0
   59.3760   30.4230   46.1210 F   0  0  0  0  0  0  0  0  0  0  0  0
   57.8120   29.0130   44.9710 C   0  0  0  0  0  0  0  0  0  0  0  0
   57.8040   29.9080   43.7640 C   0  0  0  0  0  0  0  0  0  0  0  0
   57.1750   31.2430   44.0790 C   0  0  0  0  0  0  0  0  0  0  0  0
   56.1560   31.2870   44.7510 O   0  0  0  0  0  0  0  0  0  0  0  0
   57.7580   32.5190   43.5430 C   0  0  0  0  0  0  0  0  0  0  0  0
   57.6190   33.5650   44.5490 N   0  0  0  0  0  0  0  0  0  0  0  0
   58.0400   33.4960   45.9200 C   0  0  0  0  0  0  0  0  0  0  0  0
   57.2030   33.0970   46.7720 O   0  0  0  0  0  0  0  0  0  0  0  0
   59.4030   33.8660   46.3750 C   0  0  0  0  0  0  0  0  0  0  0  0
   59.9640   34.9010   45.9290 O   0  0  0  0  0  0  0  0  0  0  0  0
   60.0700   33.0560   47.3620 N   0  0  0  0  0  0  0  0  0  0  0  0
   61.4490   33.2190   47.7430 C   0  0  0  0  0  0  0  0  0  0  0  0
   62.4540   32.9860   46.7920 C   0  0  0  0  0  0  0  0  0  0  0  0
   63.8020   33.1560   47.1260 C   0  0  0  0  0  0  0  0  0  0  0  0
   64.1570   33.5810   48.4080 C   0  0  0  0  0  0  0  0  0  0  0  0
   63.1640   33.8420   49.3550 C   0  0  0  0  0  0  0  0  0  0  0  0
   61.8150   33.6700   49.0260 C   0  0  0  0  0  0  0  0  0  0  0  0
   57.0210   27.9070   44.9790 N   0  0  0  0  0  0  0  0  0  0  0  0
   57.3510   23.8250   46.2310 C   0  0  0  0  0  0  0  0  0  0  0  0
   57.6130   22.5590   45.7040 C   0  0  0  0  0  0  0  0  0  0  0  0
   57.0230   22.1690   44.4990 C   0  0  0  0  0  0  0  0  0  0  0  0
   57.2770   20.9360   43.9900 F   0  0  0  0  0  0  0  0  0  0  0  0
   56.1100   22.6840   41.8300 H   0  0  0  0  0  0  0  0  0  0  0  0
   57.6867   26.6565   48.0522 H   0  0  0  0  0  0  0  0  0  0  0  0
   57.1241   31.5888   50.5092 H   0  0  0  0  0  0  0  0  0  0  0  0
   56.3378   31.3889   52.8720 H   0  0  0  0  0  0  0  0  0  0  0  0
   57.5035   29.8441   54.4540 H   0  0  0  0  0  0  0  0  0  0  0  0
   59.4652   28.5049   53.6759 H   0  0  0  0  0  0  0  0  0  0  0  0
   60.2449   28.6876   51.3094 H   0  0  0  0  0  0  0  0  0  0  0  0
   58.8396   30.0691   43.4299 H   0  0  0  0  0  0  0  0  0  0  0  0
   57.2128   29.4221   42.9738 H   0  0  0  0  0  0  0  0  0  0  0  0
   58.8229   32.3691   43.3118 H   0  0  0  0  0  0  0  0  0  0  0  0
   57.2268   32.8132   42.6258 H   0  0  0  0  0  0  0  0  0  0  0  0
   59.4980   32.3780   47.9110 H   0  0  0  0  0  0  0  0  0  0  0  0
   62.1799   32.6671   45.7756 H   0  0  0  0  0  0  0  0  0  0  0  0
   64.5830   32.9547   46.3780 H   0  0  0  0  0  0  0  0  0  0  0  0
   65.2171   33.7100   48.6716 H   0  0  0  0  0  0  0  0  0  0  0  0
   63.4434   34.1838   50.3625 H   0  0  0  0  0  0  0  0  0  0  0  0
   61.0371   33.8879   49.7725 H   0  0  0  0  0  0  0  0  0  0  0  0
   57.7992   24.1315   47.1877 H   0  0  0  0  0  0  0  0  0  0  0  0
   58.2835   21.8690   46.2371 H   0  0  0  0  0  0  0  0  0  0  0  0
  1  2  2  3
  2  3  1  0
  3  4  1  0
  4  5  1  0
  5  6  2  3
  6  7  1  0
  7  8  2  0
  8  9  1  0
  9 10  1  0
 10 11  2  0
 10 12  2  0
 10 13  1  0
 13 14  2  0
 14 15  1  0
 15 16  2  0
 16 17  1  0
 17 18  2  0
  8 19  1  0
 19 20  1  0
 19 21  2  0
 21 22  1  0
 22 23  1  0
 23 24  2  0
 23 25  1  0
 25 26  1  0
 26 27  1  0
 27 28  2  0
 27 29  1  0
 29 30  2  0
 29 31  1  0
 31 32  1  0
 32 33  2  0
 33 34  1  0
 34 35  2  0
 35 36  1  0
 36 37  2  0
 21 38  1  0
  4 39  2  0
 39 40  1  0
 40 41  2  0
 41 42  1  0
 41  2  1  0
 38  6  1  0
 18 13  1  0
 37 32  1  0
  1 43  1  0
  7 44  1  0
 14 45  1  0
 15 46  1  0
 16 47  1  0
 17 48  1  0
 18 49  1  0
 22 50  1  0
 22 51  1  0
 25 52  1  0
 25 53  1  0
 31 54  1  0
 33 55  1  0
 34 56  1  0
 35 57  1  0
 36 58  1  0
 37 59  1  0
 39 60  1  0
 40 61  1  0
M  CHG  4   3  -1   9  -1  26  -1  38  -1
M  END
>  <UniqueID>  (52) 
46

>  <SMILES>  (52) 
N=c1[n-]c(N=c2cc([N-]S(=O)(=O)c3ccccc3)c(F)c(CC(=O)C[N-]C(=O)C(=O)Nc3ccccc3)[n-]2)ccc1F

>  <Energy>  (52) 
82.79725561497564

>  <Genealogy>  (52) 
N=c1[n-]c(N=c2cc([N-]S(=O)(=O)c3ccccc3)c(F)c(CC(=O)C[N-]C(=O)C(=O)Nc3ccccc3)[n-]2)ccc1F (protonated)
N=c1[n-]c(N=c2cc([N-]S(=O)(=O)c3ccccc3)c(F)c(CC(=O)C[N-]C(=O)C(=O)Nc3ccccc3)[n-]2)ccc1F (3D coordinates assigned)
N=c1[n-]c(N=c2cc([N-]S(=O)(=O)c3ccccc3)c(F)c(CC(=O)C[N-]C(=O)C(=O)Nc3ccccc3)[n-]2)ccc1F (optimized conformer: 82.79725561497564 kcal/mol)

>  <smiles>  (52) 
N=c1[nH]c(N=c2cc(NS(=O)(=O)c3ccccc3)c(F)c(CC(=O)CNC(=O)C(=O)Nc3ccccc3)[nH]2)ccc1F

>  <score_type>  (52) 
oracle

>  <origin>  (52) 
adg

>  <m_score__min__energy>  (52) 
-15.779999999999999

>  <m_primary>  (52) 
energy

$$$$
52:0
     RDKit          3D

 49 51  0  0  0  0  0  0  0  0999 V2000
   59.1680   23.4930   45.9740 O   0  0  0  0  0  0  0  0  0  0  0  0
   58.1500   24.2410   45.9640 C   0  0  0  0  0  0  0  0  0  0  0  0
   56.8860   23.6630   45.8050 C   0  0  0  0  0  0  0  0  0  0  0  0
   55.7470   24.4730   45.7850 C   0  0  0  0  0  0  0  0  0  0  0  0
   54.4040   23.8880   45.5910 C   0  0  0  0  0  0  0  0  0  0  0  0
   53.4300   24.4650   44.8750 C   0  0  0  0  0  0  0  0  0  0  0  0
   52.5470   23.7360   43.9010 C   0  0  0  0  0  0  0  0  0  0  0  0
   51.5120   23.0470   44.5940 O   0  0  0  0  0  0  0  0  0  0  0  0
   51.7170   22.4620   45.8270 N   0  0  0  0  0  0  0  0  0  0  0  0
   52.5060   21.5060   45.9590 O   0  0  0  0  0  0  0  0  0  0  0  0
   51.0080   22.9100   46.9140 O   0  0  0  0  0  0  0  0  0  0  0  0
   55.8900   25.8510   45.9830 C   0  0  0  0  0  0  0  0  0  0  0  0
   54.7770   26.6850   46.0150 O   0  0  0  0  0  0  0  0  0  0  0  0
   57.1670   26.3970   46.1370 C   0  0  0  0  0  0  0  0  0  0  0  0
   58.2790   25.6000   46.1100 N   0  0  0  0  0  0  0  0  0  0  0  0
   59.6120   26.2150   46.2460 C   0  0  0  0  0  0  0  0  0  0  0  0
   59.5050   27.7110   46.4160 C   0  0  0  0  0  0  0  0  0  0  0  0
   58.9340   28.2500   47.5800 C   0  0  0  0  0  0  0  0  0  0  0  0
   58.8140   29.6320   47.7310 C   0  0  0  0  0  0  0  0  0  0  0  0
   59.2600   30.5000   46.7280 C   0  0  0  0  0  0  0  0  0  0  0  0
   59.1310   31.9110   46.9370 N   0  0  0  0  0  0  0  0  0  0  0  0
   58.4190   33.0310   45.8150 S   0  0  0  0  0  0  0  0  0  0  0  0
   57.3480   33.8210   46.5140 O   0  0  0  0  0  0  0  0  0  0  0  0
   59.4820   33.9720   45.3220 O   0  0  0  0  0  0  0  0  0  0  0  0
   57.7470   32.1660   44.4360 C   0  0  0  0  0  0  0  0  0  0  0  0
   56.9570   31.0240   44.6380 C   0  0  0  0  0  0  0  0  0  0  0  0
   56.4110   30.3430   43.5440 C   0  0  0  0  0  0  0  0  0  0  0  0
   56.6500   30.8060   42.2450 C   0  0  0  0  0  0  0  0  0  0  0  0
   57.4340   31.9450   42.0400 C   0  0  0  0  0  0  0  0  0  0  0  0
   57.9780   32.6270   43.1320 C   0  0  0  0  0  0  0  0  0  0  0  0
   59.8270   29.9630   45.5580 C   0  0  0  0  0  0  0  0  0  0  0  0
   59.9380   28.5790   45.4010 C   0  0  0  0  0  0  0  0  0  0  0  0
   56.7886   22.5728   45.6959 H   0  0  0  0  0  0  0  0  0  0  0  0
   54.1908   22.9181   46.0641 H   0  0  0  0  0  0  0  0  0  0  0  0
   53.2653   25.5444   45.0087 H   0  0  0  0  0  0  0  0  0  0  0  0
   52.0983   24.4603   43.2053 H   0  0  0  0  0  0  0  0  0  0  0  0
   53.1533   23.0059   43.3448 H   0  0  0  0  0  0  0  0  0  0  0  0
   57.2798   27.4816   46.2818 H   0  0  0  0  0  0  0  0  0  0  0  0
   60.1164   25.7886   47.1256 H   0  0  0  0  0  0  0  0  0  0  0  0
   60.1877   26.0073   45.3320 H   0  0  0  0  0  0  0  0  0  0  0  0
   58.5795   27.5795   48.3768 H   0  0  0  0  0  0  0  0  0  0  0  0
   58.3646   30.0430   48.6470 H   0  0  0  0  0  0  0  0  0  0  0  0
   56.7663   30.6629   45.6594 H   0  0  0  0  0  0  0  0  0  0  0  0
   55.7953   29.4457   43.7047 H   0  0  0  0  0  0  0  0  0  0  0  0
   56.2203   30.2728   41.3841 H   0  0  0  0  0  0  0  0  0  0  0  0
   57.6231   32.3050   41.0179 H   0  0  0  0  0  0  0  0  0  0  0  0
   58.5886   33.5272   42.9682 H   0  0  0  0  0  0  0  0  0  0  0  0
   60.1843   30.6350   44.7638 H   0  0  0  0  0  0  0  0  0  0  0  0
   60.3675   28.1668   44.4760 H   0  0  0  0  0  0  0  0  0  0  0  0
  1  2  2  0
  2  3  1  0
  3  4  2  0
  4  5  1  0
  5  6  2  3
  6  7  1  0
  7  8  1  0
  8  9  1  0
  9 10  2  0
  9 11  1  0
  4 12  1  0
 12 13  1  0
 12 14  2  0
 14 15  1  0
 15 16  1  0
 16 17  1  0
 17 18  2  0
 18 19  1  0
 19 20  2  0
 20 21  1  0
 21 22  1  0
 22 23  2  0
 22 24  2  0
 22 25  1  0
 25 26  2  0
 26 27  1  0
 27 28  2  0
 28 29  1  0
 29 30  2  0
 20 31  1  0
 31 32  2  0
 15  2  1  0
 32 17  1  0
 30 25  1  0
  3 33  1  0
  5 34  1  0
  6 35  1  0
  7 36  1  0
  7 37  1  0
 14 38  1  0
 16 39  1  0
 16 40  1  0
 18 41  1  0
 19 42  1  0
 26 43  1  0
 27 44  1  0
 28 45  1  0
 29 46  1  0
 30 47  1  0
 31 48  1  0
 32 49  1  0
M  CHG  4   9   1  11  -1  13  -1  21  -1
M  END
>  <UniqueID>  (53) 
47

>  <SMILES>  (53) 
O=c1cc(C=CCO[N+](=O)[O-])c([O-])cn1Cc1ccc([N-]S(=O)(=O)c2ccccc2)cc1

>  <Energy>  (53) 
58.374788891614

>  <Genealogy>  (53) 
O=c1cc(C=CCO[N+](=O)[O-])c([O-])cn1Cc1ccc([N-]S(=O)(=O)c2ccccc2)cc1 (protonated)
O=c1cc(C=CCO[N+](=O)[O-])c([O-])cn1Cc1ccc([N-]S(=O)(=O)c2ccccc2)cc1 (3D coordinates assigned)
O=c1cc(C=CCO[N+](=O)[O-])c([O-])cn1Cc1ccc([N-]S(=O)(=O)c2ccccc2)cc1 (optimized conformer: 58.374788891614 kcal/mol)

>  <smiles>  (53) 
O=c1cc(C=CCO[N+](=O)[O-])c(O)cn1Cc1ccc(NS(=O)(=O)c2ccccc2)cc1

>  <score_type>  (53) 
oracle

>  <origin>  (53) 
adg

>  <m_score__min__energy>  (53) 
-14.16

>  <m_primary>  (53) 
energy

$$$$
53:0
     RDKit          3D

 43 45  0  0  0  0  0  0  0  0999 V2000
   63.7970   33.2380   47.0890 N   0  0  0  0  0  0  0  0  0  0  0  0
   62.5980   32.7480   47.1570 C   0  0  0  0  0  0  0  0  0  0  0  0
   62.3640   31.4370   47.5680 C   0  0  0  0  0  0  0  0  0  0  0  0
   61.0360   31.0350   47.5980 C   0  0  0  0  0  0  0  0  0  0  0  0
   60.7500   29.6880   48.0170 N   0  0  0  0  0  0  0  0  0  0  0  0
   60.0180   31.8360   47.2570 N   0  0  0  0  0  0  0  0  0  0  0  0
   60.3020   33.0940   46.8670 C   0  0  0  0  0  0  0  0  0  0  0  0
   58.8910   34.1190   46.4250 S   0  0  0  0  0  0  0  0  0  0  0  0
   58.6910   34.1850   44.6240 C   0  0  0  0  0  0  0  0  0  0  0  0
   58.0850   32.8820   44.1830 C   0  0  0  0  0  0  0  0  0  0  0  0
   57.8260   32.6790   42.8360 C   0  0  0  0  0  0  0  0  0  0  0  0
   57.2650   31.4930   42.4030 C   0  0  0  0  0  0  0  0  0  0  0  0
   56.9770   30.5300   43.3610 C   0  0  0  0  0  0  0  0  0  0  0  0
   57.2390   30.7390   44.7100 C   0  0  0  0  0  0  0  0  0  0  0  0
   56.9030   29.6910   45.6040 N   0  0  0  0  0  0  0  0  0  0  0  0
   57.9520   28.4220   46.0530 S   0  0  0  0  0  0  0  0  0  0  0  0
   59.3410   28.6200   45.5230 O   0  0  0  0  0  0  0  0  0  0  0  0
   58.1050   28.3310   47.5600 O   0  0  0  0  0  0  0  0  0  0  0  0
   57.4000   26.8520   45.5090 C   0  0  0  0  0  0  0  0  0  0  0  0
   57.8680   26.2470   44.3630 C   0  0  0  0  0  0  0  0  0  0  0  0
   57.3470   24.9930   44.0310 C   0  0  0  0  0  0  0  0  0  0  0  0
   56.3930   24.3720   44.8240 C   0  0  0  0  0  0  0  0  0  0  0  0
   55.9190   24.9890   45.9900 C   0  0  0  0  0  0  0  0  0  0  0  0
   56.4390   26.2300   46.3110 C   0  0  0  0  0  0  0  0  0  0  0  0
   57.8070   31.9410   45.1480 C   0  0  0  0  0  0  0  0  0  0  0  0
   61.5690   33.5700   46.8080 N   0  0  0  0  0  0  0  0  0  0  0  0
   64.6160   32.6710   46.7990 H   0  0  0  0  0  0  0  0  0  0  0  0
   63.1837   30.7606   47.8519 H   0  0  0  0  0  0  0  0  0  0  0  0
   60.0940   29.1350   47.3920 H   0  0  0  0  0  0  0  0  0  0  0  0
   61.1640   29.2800   48.8880 H   0  0  0  0  0  0  0  0  0  0  0  0
   59.0610   31.4440   47.3110 H   0  0  0  0  0  0  0  0  0  0  0  0
   58.0268   35.0183   44.3512 H   0  0  0  0  0  0  0  0  0  0  0  0
   59.6632   34.3429   44.1341 H   0  0  0  0  0  0  0  0  0  0  0  0
   58.0686   33.4669   42.1078 H   0  0  0  0  0  0  0  0  0  0  0  0
   57.0541   31.3179   41.3377 H   0  0  0  0  0  0  0  0  0  0  0  0
   56.5296   29.5764   43.0440 H   0  0  0  0  0  0  0  0  0  0  0  0
   55.9250   29.7170   46.0130 H   0  0  0  0  0  0  0  0  0  0  0  0
   58.6254   26.7339   43.7312 H   0  0  0  0  0  0  0  0  0  0  0  0
   57.7014   24.4874   43.1206 H   0  0  0  0  0  0  0  0  0  0  0  0
   56.0042   23.3845   44.5346 H   0  0  0  0  0  0  0  0  0  0  0  0
   55.1626   24.5050   46.6253 H   0  0  0  0  0  0  0  0  0  0  0  0
   56.0875   26.7400   47.2200 H   0  0  0  0  0  0  0  0  0  0  0  0
   58.0207   32.1245   46.2113 H   0  0  0  0  0  0  0  0  0  0  0  0
  1  2  2  3
  2  3  1  0
  3  4  2  0
  4  5  1  0
  4  6  1  0
  6  7  1  0
  7  8  1  0
  8  9  1  0
  9 10  1  0
 10 11  2  0
 11 12  1  0
 12 13  2  0
 13 14  1  0
 14 15  1  0
 15 16  1  0
 16 17  2  0
 16 18  2  0
 16 19  1  0
 19 20  2  0
 20 21  1  0
 21 22  2  0
 22 23  1  0
 23 24  2  0
 14 25  2  0
  7 26  2  0
 26  2  1  0
 25 10  1  0
 24 19  1  0
  1 27  1  0
  3 28  1  0
  5 29  1  0
  5 30  1  0
  6 31  1  0
  9 32  1  0
  9 33  1  0
 11 34  1  0
 12 35  1  0
 13 36  1  0
 15 37  1  0
 20 38  1  0
 21 39  1  0
 22 40  1  0
 23 41  1  0
 24 42  1  0
 25 43  1  0
M  END
>  <smiles>  (54) 
N=c1cc(N)[nH]c(SCc2cccc(NS(=O)(=O)c3ccccc3)c2)n1

>  <score_type>  (54) 
oracle

>  <origin>  (54) 
adg

>  <m_score__min__energy>  (54) 
-10.130000000000001

>  <m_primary>  (54) 
energy

$$$$
54:0
     RDKit          3D

 41 44  0  0  0  0  0  0  0  0999 V2000
   53.0260   28.5070   53.0360 C   0  0  0  0  0  0  0  0  0  0  0  0
   54.1930   29.0620   52.6930 C   0  0  0  0  0  0  0  0  0  0  0  0
   55.3700   28.5720   53.1510 N   0  0  0  0  0  0  0  0  0  0  0  0
   56.3120   29.4580   52.7940 C   0  0  0  0  0  0  0  0  0  0  0  0
   57.6720   29.3950   53.0840 C   0  0  0  0  0  0  0  0  0  0  0  0
   58.4940   30.4400   52.6300 C   0  0  0  0  0  0  0  0  0  0  0  0
   57.9510   31.5230   51.9030 C   0  0  0  0  0  0  0  0  0  0  0  0
   58.8320   32.5710   51.4770 N   0  0  0  0  0  0  0  0  0  0  0  0
   59.8440   32.5090   50.0700 S   0  0  0  0  0  0  0  0  0  0  0  0
   59.4280   33.5880   49.1130 O   0  0  0  0  0  0  0  0  0  0  0  0
   61.2710   32.7450   50.4780 O   0  0  0  0  0  0  0  0  0  0  0  0
   59.6660   30.9480   49.2740 C   0  0  0  0  0  0  0  0  0  0  0  0
   58.9420   30.8620   48.0790 C   0  0  0  0  0  0  0  0  0  0  0  0
   58.7740   29.6260   47.4460 C   0  0  0  0  0  0  0  0  0  0  0  0
   59.3260   28.4720   48.0070 C   0  0  0  0  0  0  0  0  0  0  0  0
   60.0490   28.5530   49.2020 C   0  0  0  0  0  0  0  0  0  0  0  0
   60.5950   27.4060   49.7600 O   0  0  0  0  0  0  0  0  0  0  0  0
   60.2210   29.7880   49.8340 C   0  0  0  0  0  0  0  0  0  0  0  0
   56.5650   31.5520   51.6220 C   0  0  0  0  0  0  0  0  0  0  0  0
   55.7690   30.5050   52.0990 C   0  0  0  0  0  0  0  0  0  0  0  0
   54.4040   30.2640   51.9820 C   0  0  0  0  0  0  0  0  0  0  0  0
   53.5400   31.0570   51.3190 C   0  0  0  0  0  0  0  0  0  0  0  0
   52.3230   31.6590   51.8890 C   0  0  0  0  0  0  0  0  0  0  0  0
   51.8850   31.4420   53.1410 N   0  0  0  0  0  0  0  0  0  0  0  0
   50.6860   32.0630   53.1660 C   0  0  0  0  0  0  0  0  0  0  0  0
   49.9630   32.0980   54.1930 O   0  0  0  0  0  0  0  0  0  0  0  0
   50.3210   32.6370   52.0000 N   0  0  0  0  0  0  0  0  0  0  0  0
   51.3610   32.3610   51.1960 C   0  0  0  0  0  0  0  0  0  0  0  0
   51.4170   32.7450   49.8600 O   0  0  0  0  0  0  0  0  0  0  0  0
   52.0841   28.9242   52.6503 H   0  0  0  0  0  0  0  0  0  0  0  0
   53.0078   27.6332   53.7039 H   0  0  0  0  0  0  0  0  0  0  0  0
   55.5160   27.7090   53.7230 H   0  0  0  0  0  0  0  0  0  0  0  0
   58.0910   28.5514   53.6522 H   0  0  0  0  0  0  0  0  0  0  0  0
   59.5729   30.4147   52.8430 H   0  0  0  0  0  0  0  0  0  0  0  0
   58.5040   31.7689   47.6366 H   0  0  0  0  0  0  0  0  0  0  0  0
   58.2067   29.5627   46.5057 H   0  0  0  0  0  0  0  0  0  0  0  0
   59.1923   27.5001   47.5095 H   0  0  0  0  0  0  0  0  0  0  0  0
   60.7924   29.8501   50.7719 H   0  0  0  0  0  0  0  0  0  0  0  0
   56.1241   32.3769   51.0431 H   0  0  0  0  0  0  0  0  0  0  0  0
   53.7622   31.2729   50.2635 H   0  0  0  0  0  0  0  0  0  0  0  0
   52.2970   32.9740   49.4140 H   0  0  0  0  0  0  0  0  0  0  0  0
  1  2  2  0
  2  3  1  0
  3  4  1  0
  4  5  2  0
  5  6  1  0
  6  7  2  0
  7  8  1  0
  8  9  1  0
  9 10  2  0
  9 11  2  0
  9 12  1  0
 12 13  2  0
 13 14  1  0
 14 15  2  0
 15 16  1  0
 16 17  1  0
 16 18  2  0
  7 19  1  0
 19 20  2  0
 20 21  1  0
 21 22  2  3
 22 23  1  0
 23 24  1  0
 24 25  1  0
 25 26  2  0
 25 27  1  0
 27 28  1  0
 28 29  1  0
 21  2  1  0
 28 23  2  0
 20  4  1  0
 18 12  1  0
  1 30  1  0
  1 31  1  0
  3 32  1  0
  5 33  1  0
  6 34  1  0
 13 35  1  0
 14 36  1  0
 15 37  1  0
 18 38  1  0
 19 39  1  0
 22 40  1  0
 29 41  1  0
M  CHG  4   8  -1  17  -1  24  -1  27  -1
M  END
>  <UniqueID>  (55) 
48

>  <SMILES>  (55) 
C=c1[nH]c2ccc([N-]S(=O)(=O)c3cccc([O-])c3)cc2c1=Cc1[n-]c(=O)[n-]c1O

>  <Energy>  (55) 
122.60240324941839

>  <Genealogy>  (55) 
C=c1[nH]c2ccc([N-]S(=O)(=O)c3cccc([O-])c3)cc2c1=Cc1[n-]c(=O)[n-]c1O (protonated)
C=c1[nH]c2ccc([N-]S(=O)(=O)c3cccc([O-])c3)cc2c1=Cc1[n-]c(=O)[n-]c1O (3D coordinates assigned)
C=c1[nH]c2ccc([N-]S(=O)(=O)c3cccc([O-])c3)cc2c1=Cc1[n-]c(=O)[n-]c1O (optimized conformer: 122.60240324941839 kcal/mol)

>  <smiles>  (55) 
C=c1[nH]c2ccc(NS(=O)(=O)c3cccc(O)c3)cc2c1=Cc1[nH]c(=O)[nH]c1O

>  <score_type>  (55) 
oracle

>  <origin>  (55) 
adg

>  <m_score__min__energy>  (55) 
-16.25

>  <m_primary>  (55) 
energy

$$$$
55:0
     RDKit          3D

 55 57  0  0  0  0  0  0  0  0999 V2000
   52.1430   23.4490   44.9180 C   0  0  0  0  0  0  0  0  0  0  0  0
   53.4690   22.9640   44.7160 O   0  0  0  0  0  0  0  0  0  0  0  0
   54.6250   23.7530   44.7810 C   0  0  0  0  0  0  0  0  0  0  0  0
   54.7020   24.8760   45.6250 C   0  0  0  0  0  0  0  0  0  0  0  0
   55.8650   25.6370   45.6900 C   0  0  0  0  0  0  0  0  0  0  0  0
   56.9830   25.2790   44.9280 C   0  0  0  0  0  0  0  0  0  0  0  0
   58.2520   26.0860   45.0190 C   0  0  0  0  0  0  0  0  0  0  0  0
   58.0840   27.4920   44.4360 C   0  0  0  0  0  0  0  0  0  0  0  0
   57.2640   28.3270   45.3090 N   0  0  0  0  0  0  0  0  0  0  0  0
   56.3830   29.3480   44.8440 C   0  0  0  0  0  0  0  0  0  0  0  0
   55.1500   29.1280   44.7470 O   0  0  0  0  0  0  0  0  0  0  0  0
   56.9350   30.6510   44.4720 C   0  0  0  0  0  0  0  0  0  0  0  0
   57.4820   30.9890   43.2500 C   0  0  0  0  0  0  0  0  0  0  0  0
   57.8770   32.3040   43.3700 C   0  0  0  0  0  0  0  0  0  0  0  0
   57.5470   32.6790   44.6590 C   0  0  0  0  0  0  0  0  0  0  0  0
   57.8050   34.0130   45.2740 C   0  0  0  0  0  0  0  0  0  0  0  0
   59.1520   33.9050   46.4360 S   0  0  0  0  0  0  0  0  0  0  0  0
   58.8970   34.8290   47.5910 O   0  0  0  0  0  0  0  0  0  0  0  0
   60.4190   34.3290   45.7460 O   0  0  0  0  0  0  0  0  0  0  0  0
   59.3130   32.2530   47.0320 C   0  0  0  0  0  0  0  0  0  0  0  0
   58.7680   31.9050   48.2760 C   0  0  0  0  0  0  0  0  0  0  0  0
   58.8760   30.5960   48.7530 C   0  0  0  0  0  0  0  0  0  0  0  0
   59.5420   29.6210   47.9950 C   0  0  0  0  0  0  0  0  0  0  0  0
   59.6370   28.2110   48.5080 C   0  0  0  0  0  0  0  0  0  0  0  0
   60.0920   29.9710   46.7510 C   0  0  0  0  0  0  0  0  0  0  0  0
   59.9730   31.2770   46.2700 C   0  0  0  0  0  0  0  0  0  0  0  0
   56.9890   31.6740   45.2910 O   0  0  0  0  0  0  0  0  0  0  0  0
   56.9270   24.1410   44.1120 C   0  0  0  0  0  0  0  0  0  0  0  0
   55.7480   23.3910   44.0060 C   0  0  0  0  0  0  0  0  0  0  0  0
   55.7440   22.2910   43.1360 O   0  0  0  0  0  0  0  0  0  0  0  0
   56.8580   21.4200   42.9620 C   0  0  0  0  0  0  0  0  0  0  0  0
   51.9401   23.5232   45.9966 H   0  0  0  0  0  0  0  0  0  0  0  0
   52.0417   24.4424   44.4566 H   0  0  0  0  0  0  0  0  0  0  0  0
   51.4246   22.7554   44.4566 H   0  0  0  0  0  0  0  0  0  0  0  0
   53.8337   25.1553   46.2399 H   0  0  0  0  0  0  0  0  0  0  0  0
   55.9058   26.5221   46.3418 H   0  0  0  0  0  0  0  0  0  0  0  0
   58.5419   26.1729   46.0765 H   0  0  0  0  0  0  0  0  0  0  0  0
   59.0258   25.5672   44.4342 H   0  0  0  0  0  0  0  0  0  0  0  0
   59.0753   27.9551   44.3229 H   0  0  0  0  0  0  0  0  0  0  0  0
   57.5834   27.4087   43.4601 H   0  0  0  0  0  0  0  0  0  0  0  0
   57.5817   30.3433   42.3651 H   0  0  0  0  0  0  0  0  0  0  0  0
   58.3557   32.9263   42.5996 H   0  0  0  0  0  0  0  0  0  0  0  0
   58.0636   34.7334   44.4840 H   0  0  0  0  0  0  0  0  0  0  0  0
   56.8999   34.3451   45.8036 H   0  0  0  0  0  0  0  0  0  0  0  0
   58.2526   32.6665   48.8798 H   0  0  0  0  0  0  0  0  0  0  0  0
   58.4375   30.3291   49.7259 H   0  0  0  0  0  0  0  0  0  0  0  0
   59.6364   28.2202   49.6080 H   0  0  0  0  0  0  0  0  0  0  0  0
   58.7760   27.6302   48.1457 H   0  0  0  0  0  0  0  0  0  0  0  0
   60.5682   27.7510   48.1457 H   0  0  0  0  0  0  0  0  0  0  0  0
   60.6189   29.2131   46.1527 H   0  0  0  0  0  0  0  0  0  0  0  0
   60.3982   31.5412   45.2905 H   0  0  0  0  0  0  0  0  0  0  0  0
   57.8195   23.8327   43.5478 H   0  0  0  0  0  0  0  0  0  0  0  0
   57.2445   21.1178   43.9466 H   0  0  0  0  0  0  0  0  0  0  0  0
   56.5416   20.5273   42.4026 H   0  0  0  0  0  0  0  0  0  0  0  0
   57.6480   21.9424   42.4026 H   0  0  0  0  0  0  0  0  0  0  0  0
  1  2  1  0
  2  3  1  0
  3  4  2  0
  4  5  1  0
  5  6  2  0
  6  7  1  0
  7  8  1  0
  8  9  1  0
  9 10  1  0
 10 11  2  0
 10 12  1  0
 12 13  2  0
 13 14  1  0
 14 15  2  0
 15 16  1  0
 16 17  1  0
 17 18  2  0
 17 19  2  0
 17 20  1  0
 20 21  2  0
 21 22  1  0
 22 23  2  0
 23 24  1  0
 23 25  1  0
 25 26  2  0
 15 27  1  0
  6 28  1  0
 28 29  2  0
 29 30  1  0
 30 31  1  0
 29  3  1  0
 27 12  1  0
 26 20  1  0
  1 32  1  0
  1 33  1  0
  1 34  1  0
  4 35  1  0
  5 36  1  0
  7 37  1  0
  7 38  1  0
  8 39  1  0
  8 40  1  0
 13 41  1  0
 14 42  1  0
 16 43  1  0
 16 44  1  0
 21 45  1  0
 22 46  1  0
 24 47  1  0
 24 48  1  0
 24 49  1  0
 25 50  1  0
 26 51  1  0
 28 52  1  0
 31 53  1  0
 31 54  1  0
 31 55  1  0
M  CHG  1   9  -1
M  END
>  <UniqueID>  (56) 
49

>  <SMILES>  (56) 
COc1ccc(CC[N-]C(=O)c2ccc(CS(=O)(=O)c3ccc(C)cc3)o2)cc1OC

>  <Energy>  (56) 
72.12166667134281

>  <Genealogy>  (56) 
COc1ccc(CC[N-]C(=O)c2ccc(CS(=O)(=O)c3ccc(C)cc3)o2)cc1OC (protonated)
COc1ccc(CC[N-]C(=O)c2ccc(CS(=O)(=O)c3ccc(C)cc3)o2)cc1OC (3D coordinates assigned)
COc1ccc(CC[N-]C(=O)c2ccc(CS(=O)(=O)c3ccc(C)cc3)o2)cc1OC (optimized conformer: 72.12166667134281 kcal/mol)

>  <smiles>  (56) 
COc1ccc(CCNC(=O)c2ccc(CS(=O)(=O)c3ccc(C)cc3)o2)cc1OC

>  <score_type>  (56) 
oracle

>  <origin>  (56) 
adg

>  <m_score__min__energy>  (56) 
-11.380000000000001

>  <m_primary>  (56) 
energy

$$$$
56:0
     RDKit          3D

 30 31  0  0  1  0  0  0  0  0999 V2000
   60.2320   22.1030   45.2510 N   0  0  0  0  0  0  0  0  0  0  0  0
   58.5390   22.1590   45.0640 S   0  0  0  0  0  0  0  0  0  0  0  0
   58.1430   21.4900   43.7710 O   0  0  0  0  0  0  0  0  0  0  0  0
   57.7970   21.4850   46.1800 O   0  0  0  0  0  0  0  0  0  0  0  0
   58.0990   23.8540   44.9910 C   0  0  0  0  0  0  0  0  0  0  0  0
   57.6860   24.6210   44.1380 N   0  0  0  0  0  0  0  0  0  0  0  0
   57.4150   25.8690   44.2760 N   0  0  0  0  0  0  0  0  0  0  0  0
   57.6030   26.3900   45.4780 C   0  0  0  0  0  0  0  0  0  0  0  0
   57.4450   27.5650   45.9790 N   0  0  0  0  0  0  0  0  0  0  0  0
   56.9680   28.5830   45.1060 C   0  0  0  0  0  0  0  0  0  0  0  0
   55.7470   28.8680   45.1320 O   0  0  0  0  0  0  0  0  0  0  0  0
   57.8600   29.3200   44.1650 C   0  0  0  0  0  0  0  0  0  0  0  0
   57.0230   30.8900   43.7490 S   0  0  0  0  0  0  0  0  0  0  0  0
   57.7100   32.2380   44.7030 C   0  0  0  0  0  0  0  0  0  0  0  0
   57.7780   32.0750   46.0750 C   0  0  0  0  0  0  0  0  0  0  0  0
   58.3020   33.0830   46.8760 C   0  0  0  0  0  0  0  0  0  0  0  0
   58.7370   34.2220   46.2600 C   0  0  0  0  0  0  0  0  0  0  0  0
   58.6770   34.3970   44.9080 C   0  0  0  0  0  0  0  0  0  0  0  0
   58.1590   33.4000   44.1100 C   0  0  0  0  0  0  0  0  0  0  0  0
   58.2170   24.9580   46.4770 S   0  0  0  0  0  0  0  0  0  0  0  0
   60.4890   21.0970   45.3470 H   0  0  0  0  0  0  0  0  0  0  0  0
   60.7260   22.5770   44.4700 H   0  0  0  0  0  0  0  0  0  0  0  0
   57.0540   26.4700   43.4660 H   0  0  0  0  0  0  0  0  0  0  0  0
   58.8284   29.5244   44.6451 H   0  0  0  0  0  0  0  0  0  0  0  0
   58.0497   28.7256   43.2591 H   0  0  0  0  0  0  0  0  0  0  0  0
   57.4157   31.1434   46.5343 H   0  0  0  0  0  0  0  0  0  0  0  0
   58.3642   32.9675   47.9681 H   0  0  0  0  0  0  0  0  0  0  0  0
   59.1525   35.0309   46.8789 H   0  0  0  0  0  0  0  0  0  0  0  0
   59.0412   35.3315   44.4563 H   0  0  0  0  0  0  0  0  0  0  0  0
   58.1044   33.5284   43.0189 H   0  0  0  0  0  0  0  0  0  0  0  0
  1  2  1  0
  2  3  2  0
  2  4  2  0
  2  5  1  0
  5  6  2  0
  6  7  1  0
  7  8  1  0
  8  9  2  0
  9 10  1  0
 10 11  2  0
 10 12  1  0
 12 13  1  0
 13 14  1  0
 14 15  2  0
 15 16  1  0
 16 17  2  0
 17 18  1  0
 18 19  2  0
  8 20  1  0
 20  5  1  0
 19 14  1  0
  1 21  1  0
  1 22  1  0
  7 23  1  0
 12 24  1  0
 12 25  1  0
 15 26  1  0
 16 27  1  0
 17 28  1  0
 18 29  1  0
 19 30  1  0
M  END
>  <smiles>  (57) 
NS(=O)(=O)c1n[nH]c(=NC(=O)CSc2ccccc2)s1

>  <score_type>  (57) 
oracle

>  <origin>  (57) 
adg

>  <m_score__min__energy>  (57) 
-7.9800000000000004

>  <m_primary>  (57) 
energy

$$$$
57:0
     RDKit          3D

 45 47  0  0  0  0  0  0  0  0999 V2000
   55.8650   29.4100   42.9520 O   0  0  0  0  0  0  0  0  0  0  0  0
   55.9640   29.7720   44.1550 C   0  0  0  0  0  0  0  0  0  0  0  0
   56.2310   31.2060   44.4780 C   0  0  0  0  0  0  0  0  0  0  0  0
   57.7090   31.8040   43.5870 S   0  0  0  0  0  0  0  0  0  0  0  0
   58.4670   32.5860   45.0150 C   0  0  0  0  0  0  0  0  0  0  0  0
   58.8520   31.8150   46.1180 C   0  0  0  0  0  0  0  0  0  0  0  0
   59.4210   32.4290   47.2380 C   0  0  0  0  0  0  0  0  0  0  0  0
   59.6040   33.8170   47.2620 C   0  0  0  0  0  0  0  0  0  0  0  0
   60.2870   34.5890   48.6800 Cl  0  0  0  0  0  0  0  0  0  0  0  0
   59.2190   34.5890   46.1600 C   0  0  0  0  0  0  0  0  0  0  0  0
   58.6470   33.9750   45.0410 C   0  0  0  0  0  0  0  0  0  0  0  0
   55.8160   28.8290   45.2230 N   0  0  0  0  0  0  0  0  0  0  0  0
   56.6980   27.7410   45.5390 C   0  0  0  0  0  0  0  0  0  0  0  0
   58.0930   27.9130   45.6080 C   0  0  0  0  0  0  0  0  0  0  0  0
   58.9150   26.8510   45.9830 C   0  0  0  0  0  0  0  0  0  0  0  0
   58.3580   25.6140   46.3070 C   0  0  0  0  0  0  0  0  0  0  0  0
   56.9690   25.4290   46.2670 C   0  0  0  0  0  0  0  0  0  0  0  0
   56.2880   23.8680   46.7440 S   0  0  0  0  0  0  0  0  0  0  0  0
   57.0580   23.3250   47.9160 O   0  0  0  0  0  0  0  0  0  0  0  0
   54.8690   24.0750   47.1940 O   0  0  0  0  0  0  0  0  0  0  0  0
   56.2960   22.6990   45.4360 N   0  0  0  0  0  0  0  0  0  0  0  0
   56.4050   21.3010   45.9030 C   0  0  0  0  0  0  0  0  0  0  0  0
   57.8290   20.7360   45.7820 C   0  0  0  0  0  0  0  0  0  0  0  0
   58.7830   21.7710   45.8430 O   0  0  0  0  0  0  0  0  0  0  0  0
   58.6970   22.5620   44.6760 C   0  0  0  0  0  0  0  0  0  0  0  0
   57.2590   23.0460   44.3760 C   0  0  0  0  0  0  0  0  0  0  0  0
   56.1400   26.4980   45.8750 C   0  0  0  0  0  0  0  0  0  0  0  0
   54.7600   26.3380   45.8280 O   0  0  0  0  0  0  0  0  0  0  0  0
   55.3614   31.8109   44.1816 H   0  0  0  0  0  0  0  0  0  0  0  0
   56.4089   31.2977   45.5596 H   0  0  0  0  0  0  0  0  0  0  0  0
   58.7068   30.7247   46.1037 H   0  0  0  0  0  0  0  0  0  0  0  0
   59.7255   31.8203   48.1021 H   0  0  0  0  0  0  0  0  0  0  0  0
   59.3663   35.6790   46.1739 H   0  0  0  0  0  0  0  0  0  0  0  0
   58.3377   34.5844   44.1791 H   0  0  0  0  0  0  0  0  0  0  0  0
   58.5369   28.8897   45.3650 H   0  0  0  0  0  0  0  0  0  0  0  0
   60.0055   26.9891   46.0234 H   0  0  0  0  0  0  0  0  0  0  0  0
   59.0127   24.7785   46.5957 H   0  0  0  0  0  0  0  0  0  0  0  0
   56.1002   21.2596   46.9591 H   0  0  0  0  0  0  0  0  0  0  0  0
   55.7529   20.6888   45.2627 H   0  0  0  0  0  0  0  0  0  0  0  0
   58.0087   20.0304   46.6066 H   0  0  0  0  0  0  0  0  0  0  0  0
   57.9248   20.2238   44.8132 H   0  0  0  0  0  0  0  0  0  0  0  0
   59.3438   23.4428   44.8016 H   0  0  0  0  0  0  0  0  0  0  0  0
   59.0152   21.9347   43.8303 H   0  0  0  0  0  0  0  0  0  0  0  0
   57.2750   24.1400   44.2628 H   0  0  0  0  0  0  0  0  0  0  0  0
   56.9292   22.5399   43.4567 H   0  0  0  0  0  0  0  0  0  0  0  0
  1  2  2  0
  2  3  1  0
  3  4  1  0
  4  5  1  0
  5  6  2  0
  6  7  1  0
  7  8  2  0
  8  9  1  0
  8 10  1  0
 10 11  2  0
  2 12  1  0
 12 13  1  0
 13 14  2  0
 14 15  1  0
 15 16  2  0
 16 17  1  0
 17 18  1  0
 18 19  2  0
 18 20  2  0
 18 21  1  0
 21 22  1  0
 22 23  1  0
 23 24  1  0
 24 25  1  0
 25 26  1  0
 17 27  2  0
 27 28  1  0
 11  5  1  0
 27 13  1  0
 26 21  1  0
  3 29  1  0
  3 30  1  0
  6 31  1  0
  7 32  1  0
 10 33  1  0
 11 34  1  0
 14 35  1  0
 15 36  1  0
 16 37  1  0
 22 38  1  0
 22 39  1  0
 23 40  1  0
 23 41  1  0
 25 42  1  0
 25 43  1  0
 26 44  1  0
 26 45  1  0
M  CHG  2  12  -1  28  -1
M  END
>  <UniqueID>  (58) 
50

>  <SMILES>  (58) 
O=C(CSc1ccc(Cl)cc1)[N-]c1cccc(S(=O)(=O)N2CCOCC2)c1[O-]

>  <Energy>  (58) 
53.16895440076267

>  <Genealogy>  (58) 
O=C(CSc1ccc(Cl)cc1)[N-]c1cccc(S(=O)(=O)N2CCOCC2)c1[O-] (protonated)
O=C(CSc1ccc(Cl)cc1)[N-]c1cccc(S(=O)(=O)N2CCOCC2)c1[O-] (3D coordinates assigned)
O=C(CSc1ccc(Cl)cc1)[N-]c1cccc(S(=O)(=O)N2CCOCC2)c1[O-] (nonaromatic ring conformer: 53.16895440076267 kcal/mol)

>  <smiles>  (58) 
O=C(CSc1ccc(Cl)cc1)Nc1cccc(S(=O)(=O)N2CCOCC2)c1O

>  <score_type>  (58) 
oracle

>  <origin>  (58) 
adg

>  <m_score__min__energy>  (58) 
-15.789999999999999

>  <m_primary>  (58) 
energy

$$$$
58:0
     RDKit          3D

 28 29  0  0  0  0  0  0  0  0999 V2000
   54.4440   22.2240   48.7390 C   0  0  0  0  0  0  0  0  0  0  0  0
   55.7030   22.5810   47.5330 S   0  0  0  0  0  0  0  0  0  0  0  0
   55.6820   21.5570   46.4320 O   0  0  0  0  0  0  0  0  0  0  0  0
   57.0440   22.5350   48.2090 O   0  0  0  0  0  0  0  0  0  0  0  0
   55.4670   24.1680   46.8730 N   0  0  0  0  0  0  0  0  0  0  0  0
   56.5000   25.0620   46.4350 C   0  0  0  0  0  0  0  0  0  0  0  0
   57.8550   24.6890   46.4340 C   0  0  0  0  0  0  0  0  0  0  0  0
   58.8310   25.5860   46.0010 C   0  0  0  0  0  0  0  0  0  0  0  0
   58.4710   26.8610   45.5660 C   0  0  0  0  0  0  0  0  0  0  0  0
   57.1230   27.2610   45.5570 C   0  0  0  0  0  0  0  0  0  0  0  0
   56.7730   28.6250   45.0890 C   0  0  0  0  0  0  0  0  0  0  0  0
   55.5150   29.0570   44.8710 N   0  0  0  0  0  0  0  0  0  0  0  0
   55.6020   30.3110   44.4660 N   0  0  0  0  0  0  0  0  0  0  0  0
   56.9110   30.6160   44.4450 C   0  0  0  0  0  0  0  0  0  0  0  0
   57.4420   31.9280   44.0470 C   0  0  0  0  0  0  0  0  0  0  0  0
   58.2200   32.0710   42.8590 N   0  0  0  0  0  0  0  0  0  0  0  0
   57.2070   32.9380   44.7630 O   0  0  0  0  0  0  0  0  0  0  0  0
   57.6870   29.5850   44.8300 N   0  0  0  0  0  0  0  0  0  0  0  0
   56.1380   26.3480   45.9990 C   0  0  0  0  0  0  0  0  0  0  0  0
   54.7920   26.7050   46.0060 O   0  0  0  0  0  0  0  0  0  0  0  0
   54.8608   22.3422   49.7501 H   0  0  0  0  0  0  0  0  0  0  0  0
   53.6015   22.9187   48.6062 H   0  0  0  0  0  0  0  0  0  0  0  0
   54.0915   21.1905   48.6062 H   0  0  0  0  0  0  0  0  0  0  0  0
   58.1469   23.6852   46.7762 H   0  0  0  0  0  0  0  0  0  0  0  0
   59.8894   25.2865   46.0026 H   0  0  0  0  0  0  0  0  0  0  0  0
   59.2490   27.5606   45.2266 H   0  0  0  0  0  0  0  0  0  0  0  0
   58.5920   33.0070   42.5850 H   0  0  0  0  0  0  0  0  0  0  0  0
   58.4290   31.2500   42.2470 H   0  0  0  0  0  0  0  0  0  0  0  0
  1  2  1  0
  2  3  2  0
  2  4  2  0
  2  5  1  0
  5  6  1  0
  6  7  2  0
  7  8  1  0
  8  9  2  0
  9 10  1  0
 10 11  1  0
 11 12  2  0
 12 13  1  0
 13 14  1  0
 14 15  1  0
 15 16  1  0
 15 17  2  0
 14 18  2  0
 10 19  2  0
 19 20  1  0
 19  6  1  0
 18 11  1  0
  1 21  1  0
  1 22  1  0
  1 23  1  0
  7 24  1  0
  8 25  1  0
  9 26  1  0
 16 27  1  0
 16 28  1  0
M  CHG  3   5  -1  13  -1  20  -1
M  END
>  <UniqueID>  (59) 
51

>  <SMILES>  (59) 
CS(=O)(=O)[N-]c1cccc(-c2n[n-]c(C(N)=O)n2)c1[O-]

>  <Energy>  (59) 
59.50943384948368

>  <Genealogy>  (59) 
CS(=O)(=O)[N-]c1cccc(-c2n[n-]c(C(N)=O)n2)c1[O-] (protonated)
CS(=O)(=O)[N-]c1cccc(-c2n[n-]c(C(N)=O)n2)c1[O-] (3D coordinates assigned)
CS(=O)(=O)[N-]c1cccc(-c2n[n-]c(C(N)=O)n2)c1[O-] (optimized conformer: 59.50943384948368 kcal/mol)

>  <smiles>  (59) 
CS(=O)(=O)Nc1cccc(-c2n[nH]c(C(N)=O)n2)c1O

>  <score_type>  (59) 
oracle

>  <origin>  (59) 
adg

>  <m_score__min__energy>  (59) 
-14.44

>  <m_primary>  (59) 
energy

$$$$
59:0
     RDKit          3D

 40 41  0  0  0  0  0  0  0  0999 V2000
   55.5260   26.8840   45.6890 N   0  0  0  0  0  0  0  0  0  0  0  0
   57.1280   26.2500   45.5640 S   0  0  0  0  0  0  0  0  0  0  0  0
   57.1810   24.9060   46.2340 O   0  0  0  0  0  0  0  0  0  0  0  0
   57.4910   26.0850   44.1150 O   0  0  0  0  0  0  0  0  0  0  0  0
   58.2610   27.3610   46.3260 C   0  0  0  0  0  0  0  0  0  0  0  0
   58.1210   27.7200   47.6740 C   0  0  0  0  0  0  0  0  0  0  0  0
   59.0270   28.6080   48.2630 C   0  0  0  0  0  0  0  0  0  0  0  0
   60.0780   29.1530   47.5080 C   0  0  0  0  0  0  0  0  0  0  0  0
   61.0320   30.1440   48.1230 C   0  0  0  0  0  0  0  0  0  0  0  0
   61.7050   30.9230   47.0850 N   0  0  0  0  0  0  0  0  0  0  0  0
   61.5870   32.3410   46.9100 C   0  0  0  0  0  0  0  0  0  0  0  0
   62.6200   33.0540   46.9920 O   0  0  0  0  0  0  0  0  0  0  0  0
   60.2970   32.9810   46.5990 C   0  0  0  0  0  0  0  0  0  0  0  0
   60.0760   34.3290   46.9160 C   0  0  0  0  0  0  0  0  0  0  0  0
   58.8410   34.9200   46.6420 C   0  0  0  0  0  0  0  0  0  0  0  0
   57.8210   34.1730   46.0510 C   0  0  0  0  0  0  0  0  0  0  0  0
   58.0310   32.8200   45.7210 C   0  0  0  0  0  0  0  0  0  0  0  0
   57.0370   32.0190   45.1360 O   0  0  0  0  0  0  0  0  0  0  0  0
   57.2200   31.1800   43.9950 C   0  0  0  0  0  0  0  0  0  0  0  0
   56.5620   29.8490   44.2010 C   0  0  0  0  0  0  0  0  0  0  0  0
   57.1110   28.6710   43.6120 N   0  0  0  0  0  0  0  0  0  0  0  0
   55.5010   29.7730   44.8770 O   0  0  0  0  0  0  0  0  0  0  0  0
   59.2770   32.2380   45.9870 C   0  0  0  0  0  0  0  0  0  0  0  0
   60.2170   28.7880   46.1600 C   0  0  0  0  0  0  0  0  0  0  0  0
   59.3130   27.8990   45.5730 C   0  0  0  0  0  0  0  0  0  0  0  0
   55.5220   27.8040   45.1940 H   0  0  0  0  0  0  0  0  0  0  0  0
   57.2963   27.3021   48.2701 H   0  0  0  0  0  0  0  0  0  0  0  0
   58.9157   28.8807   49.3228 H   0  0  0  0  0  0  0  0  0  0  0  0
   60.4716   30.8253   48.7801 H   0  0  0  0  0  0  0  0  0  0  0  0
   61.7896   29.5948   48.7014 H   0  0  0  0  0  0  0  0  0  0  0  0
   60.8771   34.9219   47.3814 H   0  0  0  0  0  0  0  0  0  0  0  0
   58.6715   35.9775   46.8927 H   0  0  0  0  0  0  0  0  0  0  0  0
   56.8487   34.6430   45.8420 H   0  0  0  0  0  0  0  0  0  0  0  0
   56.7779   31.6682   43.1140 H   0  0  0  0  0  0  0  0  0  0  0  0
   58.2979   31.0205   43.8443 H   0  0  0  0  0  0  0  0  0  0  0  0
   56.6460   27.7470   43.7510 H   0  0  0  0  0  0  0  0  0  0  0  0
   57.9840   28.7200   43.0400 H   0  0  0  0  0  0  0  0  0  0  0  0
   59.4573   31.1880   45.7132 H   0  0  0  0  0  0  0  0  0  0  0  0
   61.0417   29.2039   45.5626 H   0  0  0  0  0  0  0  0  0  0  0  0
   59.4277   27.6203   44.5151 H   0  0  0  0  0  0  0  0  0  0  0  0
  1  2  1  0
  2  3  2  0
  2  4  2  0
  2  5  1  0
  5  6  2  0
  6  7  1  0
  7  8  2  0
  8  9  1  0
  9 10  1  0
 10 11  1  0
 11 12  2  0
 11 13  1  0
 13 14  2  0
 14 15  1  0
 15 16  2  0
 16 17  1  0
 17 18  1  0
 18 19  1  0
 19 20  1  0
 20 21  1  0
 20 22  2  0
 17 23  2  0
  8 24  1  0
 24 25  2  0
 25  5  1  0
 23 13  1  0
  1 26  1  0
  6 27  1  0
  7 28  1  0
  9 29  1  0
  9 30  1  0
 14 31  1  0
 15 32  1  0
 16 33  1  0
 19 34  1  0
 19 35  1  0
 21 36  1  0
 21 37  1  0
 23 38  1  0
 24 39  1  0
 25 40  1  0
M  CHG  2   1  -1  10  -1
M  END
>  <UniqueID>  (60) 
52

>  <SMILES>  (60) 
[NH-]S(=O)(=O)c1ccc(C[N-]C(=O)c2cccc(OCC(N)=O)c2)cc1

>  <Energy>  (60) 
38.06702114306643

>  <Genealogy>  (60) 
[NH-]S(=O)(=O)c1ccc(C[N-]C(=O)c2cccc(OCC(N)=O)c2)cc1 (protonated)
[NH-]S(=O)(=O)c1ccc(C[N-]C(=O)c2cccc(OCC(N)=O)c2)cc1 (3D coordinates assigned)
[NH-]S(=O)(=O)c1ccc(C[N-]C(=O)c2cccc(OCC(N)=O)c2)cc1 (optimized conformer: 38.06702114306643 kcal/mol)

>  <smiles>  (60) 
NC(=O)COc1cccc(C(=O)NCc2ccc(S(N)(=O)=O)cc2)c1

>  <score_type>  (60) 
oracle

>  <origin>  (60) 
adg

>  <m_score__min__energy>  (60) 
-12.050000000000001

>  <m_primary>  (60) 
energy

$$$$
60:0
     RDKit          3D

 45 47  0  0  0  0  0  0  0  0999 V2000
   55.8220   29.0340   53.4390 O   0  0  0  0  0  0  0  0  0  0  0  0
   55.7550   29.8400   52.4730 C   0  0  0  0  0  0  0  0  0  0  0  0
   54.5010   30.6630   52.3060 C   0  0  0  0  0  0  0  0  0  0  0  0
   53.3430   29.8330   51.7360 C   0  0  0  0  0  0  0  0  0  0  0  0
   52.4310   30.6540   50.8620 C   0  0  0  0  0  0  0  0  0  0  0  0
   52.2030   31.9580   51.1680 N   0  0  0  0  0  0  0  0  0  0  0  0
   51.4050   32.7170   50.4160 N   0  0  0  0  0  0  0  0  0  0  0  0
   50.7990   32.2100   49.3130 C   0  0  0  0  0  0  0  0  0  0  0  0
   50.0530   32.9380   48.6090 O   0  0  0  0  0  0  0  0  0  0  0  0
   51.0020   30.9130   48.9710 N   0  0  0  0  0  0  0  0  0  0  0  0
   51.8060   30.1190   49.7230 C   0  0  0  0  0  0  0  0  0  0  0  0
   51.9800   28.9160   49.3900 O   0  0  0  0  0  0  0  0  0  0  0  0
   56.9200   30.0310   51.6580 N   0  0  0  0  0  0  0  0  0  0  0  0
   57.6970   31.2300   51.5300 C   0  0  0  0  0  0  0  0  0  0  0  0
   58.3090   31.5670   50.3130 C   0  0  0  0  0  0  0  0  0  0  0  0
   59.0620   32.7420   50.1970 C   0  0  0  0  0  0  0  0  0  0  0  0
   59.7900   33.1560   48.6470 S   0  0  0  0  0  0  0  0  0  0  0  0
   61.0040   34.0050   48.9010 O   0  0  0  0  0  0  0  0  0  0  0  0
   60.2130   31.9060   47.9240 O   0  0  0  0  0  0  0  0  0  0  0  0
   58.6450   34.0400   47.6680 N   0  0  0  0  0  0  0  0  0  0  0  0
   57.8150   33.1000   46.8910 C   0  0  0  0  0  0  0  0  0  0  0  0
   57.1830   33.8060   45.6790 C   0  0  0  0  0  0  0  0  0  0  0  0
   58.1240   34.3690   44.7720 O   0  0  0  0  0  0  0  0  0  0  0  0
   59.4020   34.6030   45.3460 C   0  0  0  0  0  0  0  0  0  0  0  0
   59.3310   35.0420   46.8200 C   0  0  0  0  0  0  0  0  0  0  0  0
   59.2340   33.5680   51.3150 C   0  0  0  0  0  0  0  0  0  0  0  0
   58.6730   33.2110   52.5420 C   0  0  0  0  0  0  0  0  0  0  0  0
   57.9180   32.0390   52.6610 C   0  0  0  0  0  0  0  0  0  0  0  0
   57.3900   31.7040   53.9090 O   0  0  0  0  0  0  0  0  0  0  0  0
   54.2037   31.0612   53.2874 H   0  0  0  0  0  0  0  0  0  0  0  0
   54.7187   31.4758   51.5975 H   0  0  0  0  0  0  0  0  0  0  0  0
   53.7587   29.0084   51.1383 H   0  0  0  0  0  0  0  0  0  0  0  0
   52.7500   29.4549   52.5818 H   0  0  0  0  0  0  0  0  0  0  0  0
   58.1964   30.9030   49.4433 H   0  0  0  0  0  0  0  0  0  0  0  0
   58.4443   32.2699   46.5376 H   0  0  0  0  0  0  0  0  0  0  0  0
   57.0105   32.7205   47.5382 H   0  0  0  0  0  0  0  0  0  0  0  0
   56.5741   33.0715   45.1316 H   0  0  0  0  0  0  0  0  0  0  0  0
   56.5896   34.6426   46.0764 H   0  0  0  0  0  0  0  0  0  0  0  0
   59.9884   33.6743   45.2852 H   0  0  0  0  0  0  0  0  0  0  0  0
   59.8697   35.4232   44.7817 H   0  0  0  0  0  0  0  0  0  0  0  0
   60.3544   35.1846   47.1972 H   0  0  0  0  0  0  0  0  0  0  0  0
   58.7539   35.9773   46.8672 H   0  0  0  0  0  0  0  0  0  0  0  0
   59.8122   34.4995   51.2258 H   0  0  0  0  0  0  0  0  0  0  0  0
   58.8253   33.8548   53.4208 H   0  0  0  0  0  0  0  0  0  0  0  0
   56.8860   30.8410   54.0700 H   0  0  0  0  0  0  0  0  0  0  0  0
  1  2  2  0
  2  3  1  0
  3  4  1  0
  4  5  1  0
  5  6  2  0
  6  7  1  0
  7  8  1  0
  8  9  2  0
  8 10  1  0
 10 11  1  0
 11 12  2  0
  2 13  1  0
 13 14  1  0
 14 15  2  0
 15 16  1  0
 16 17  1  0
 17 18  2  0
 17 19  2  0
 17 20  1  0
 20 21  1  0
 21 22  1  0
 22 23  1  0
 23 24  1  0
 24 25  1  0
 16 26  2  0
 26 27  1  0
 27 28  2  0
 28 29  1  0
 11  5  1  0
 28 14  1  0
 25 20  1  0
  3 30  1  0
  3 31  1  0
  4 32  1  0
  4 33  1  0
 15 34  1  0
 21 35  1  0
 21 36  1  0
 22 37  1  0
 22 38  1  0
 24 39  1  0
 24 40  1  0
 25 41  1  0
 25 42  1  0
 26 43  1  0
 27 44  1  0
 29 45  1  0
M  CHG  3   7  -1  10  -1  13  -1
M  END
>  <UniqueID>  (61) 
53

>  <SMILES>  (61) 
O=C(CCc1n[n-]c(=O)[n-]c1=O)[N-]c1cc(S(=O)(=O)N2CCOCC2)ccc1O

>  <Energy>  (61) 
61.05323884746038

>  <Genealogy>  (61) 
O=C(CCc1n[n-]c(=O)[n-]c1=O)[N-]c1cc(S(=O)(=O)N2CCOCC2)ccc1O (protonated)
O=C(CCc1n[n-]c(=O)[n-]c1=O)[N-]c1cc(S(=O)(=O)N2CCOCC2)ccc1O (3D coordinates assigned)
O=C(CCc1n[n-]c(=O)[n-]c1=O)[N-]c1cc(S(=O)(=O)N2CCOCC2)ccc1O (nonaromatic ring conformer: 61.05323884746038 kcal/mol)

>  <smiles>  (61) 
O=C(CCc1n[nH]c(=O)[nH]c1=O)Nc1cc(S(=O)(=O)N2CCOCC2)ccc1O

>  <score_type>  (61) 
oracle

>  <origin>  (61) 
adg

>  <m_score__min__energy>  (61) 
-15.08

>  <m_primary>  (61) 
energy

$$$$
61:0
     RDKit          3D

 54 57  0  0  0  0  0  0  0  0999 V2000
   57.2990   33.2600   45.3370 C   0  0  0  0  0  0  0  0  0  0  0  0
   58.3900   33.8860   46.0810 N   0  0  0  0  0  0  0  0  0  0  0  0
   59.1750   34.9230   45.6980 C   0  0  0  0  0  0  0  0  0  0  0  0
   59.0980   35.4670   44.5630 O   0  0  0  0  0  0  0  0  0  0  0  0
   60.0520   35.3360   46.6470 N   0  0  0  0  0  0  0  0  0  0  0  0
   59.7770   34.5090   47.6760 C   0  0  0  0  0  0  0  0  0  0  0  0
   60.3700   34.4980   48.9350 C   0  0  0  0  0  0  0  0  0  0  0  0
   59.8970   33.5630   49.8840 C   0  0  0  0  0  0  0  0  0  0  0  0
   60.4980   33.5230   51.2640 C   0  0  0  0  0  0  0  0  0  0  0  0
   61.7320   32.7410   51.2740 N   0  0  0  0  0  0  0  0  0  0  0  0
   62.9560   33.1030   50.6200 C   0  0  0  0  0  0  0  0  0  0  0  0
   63.8100   33.7640   51.2690 O   0  0  0  0  0  0  0  0  0  0  0  0
   63.2720   32.6440   49.2180 C   0  0  0  0  0  0  0  0  0  0  0  0
   62.2680   31.6380   48.7160 C   0  0  0  0  0  0  0  0  0  0  0  0
   61.7780   31.7210   47.4050 C   0  0  0  0  0  0  0  0  0  0  0  0
   60.8700   30.7720   46.9300 C   0  0  0  0  0  0  0  0  0  0  0  0
   60.4430   29.7140   47.7530 C   0  0  0  0  0  0  0  0  0  0  0  0
   59.4810   28.7010   47.2470 C   0  0  0  0  0  0  0  0  0  0  0  0
   59.6730   27.3350   47.5220 C   0  0  0  0  0  0  0  0  0  0  0  0
   58.7680   26.3840   47.0420 C   0  0  0  0  0  0  0  0  0  0  0  0
   57.6650   26.7810   46.2850 C   0  0  0  0  0  0  0  0  0  0  0  0
   57.4530   28.1420   46.0030 C   0  0  0  0  0  0  0  0  0  0  0  0
   56.3360   28.6000   45.2300 N   0  0  0  0  0  0  0  0  0  0  0  0
   56.3650   29.8820   44.0610 S   0  0  0  0  0  0  0  0  0  0  0  0
   58.0220   30.5080   43.8730 C   0  0  0  0  0  0  0  0  0  0  0  0
   55.9030   29.3390   42.7380 O   0  0  0  0  0  0  0  0  0  0  0  0
   55.4330   30.9830   44.4820 O   0  0  0  0  0  0  0  0  0  0  0  0
   58.3640   29.0920   46.4860 C   0  0  0  0  0  0  0  0  0  0  0  0
   60.9470   29.6290   49.0640 C   0  0  0  0  0  0  0  0  0  0  0  0
   61.8540   30.5810   49.5400 C   0  0  0  0  0  0  0  0  0  0  0  0
   58.8580   32.6630   49.5300 C   0  0  0  0  0  0  0  0  0  0  0  0
   58.2820   32.7010   48.2470 C   0  0  0  0  0  0  0  0  0  0  0  0
   58.7750   33.6420   47.3440 C   0  0  0  0  0  0  0  0  0  0  0  0
   56.5673   32.8402   46.0430 H   0  0  0  0  0  0  0  0  0  0  0  0
   56.8073   34.0133   44.7040 H   0  0  0  0  0  0  0  0  0  0  0  0
   57.7012   32.4553   44.7040 H   0  0  0  0  0  0  0  0  0  0  0  0
   61.1827   35.1962   49.1843 H   0  0  0  0  0  0  0  0  0  0  0  0
   60.7200   34.5499   51.5898 H   0  0  0  0  0  0  0  0  0  0  0  0
   59.7772   33.0499   51.9471 H   0  0  0  0  0  0  0  0  0  0  0  0
   63.2663   33.5167   48.5484 H   0  0  0  0  0  0  0  0  0  0  0  0
   64.2603   32.1613   49.2320 H   0  0  0  0  0  0  0  0  0  0  0  0
   62.1104   32.5376   46.7472 H   0  0  0  0  0  0  0  0  0  0  0  0
   60.4851   30.8526   45.9027 H   0  0  0  0  0  0  0  0  0  0  0  0
   60.5399   27.0134   48.1179 H   0  0  0  0  0  0  0  0  0  0  0  0
   58.9260   25.3179   47.2620 H   0  0  0  0  0  0  0  0  0  0  0  0
   56.9590   26.0266   45.9076 H   0  0  0  0  0  0  0  0  0  0  0  0
   58.4655   30.6755   44.8656 H   0  0  0  0  0  0  0  0  0  0  0  0
   58.6293   29.7773   43.3187 H   0  0  0  0  0  0  0  0  0  0  0  0
   57.9945   31.4577   43.3187 H   0  0  0  0  0  0  0  0  0  0  0  0
   58.2032   30.1579   46.2669 H   0  0  0  0  0  0  0  0  0  0  0  0
   60.6248   28.8068   49.7199 H   0  0  0  0  0  0  0  0  0  0  0  0
   62.2445   30.5006   50.5652 H   0  0  0  0  0  0  0  0  0  0  0  0
   58.4996   31.9285   50.2662 H   0  0  0  0  0  0  0  0  0  0  0  0
   57.4713   32.0126   47.9662 H   0  0  0  0  0  0  0  0  0  0  0  0
  1  2  1  0
  2  3  1  0
  3  4  2  0
  3  5  1  0
  5  6  1  0
  6  7  2  0
  7  8  1  0
  8  9  1  0
  9 10  1  0
 10 11  1  0
 11 12  2  0
 11 13  1  0
 13 14  1  0
 14 15  2  0
 15 16  1  0
 16 17  2  0
 17 18  1  0
 18 19  2  0
 19 20  1  0
 20 21  2  0
 21 22  1  0
 22 23  1  0
 23 24  1  0
 24 25  1  0
 24 26  2  0
 24 27  2  0
 22 28  2  0
 17 29  1  0
 29 30  2  0
  8 31  2  0
 31 32  1  0
 32 33  2  0
 33  2  1  0
 33  6  1  0
 30 14  1  0
 28 18  1  0
  1 34  1  0
  1 35  1  0
  1 36  1  0
  7 37  1  0
  9 38  1  0
  9 39  1  0
 13 40  1  0
 13 41  1  0
 15 42  1  0
 16 43  1  0
 19 44  1  0
 20 45  1  0
 21 46  1  0
 25 47  1  0
 25 48  1  0
 25 49  1  0
 28 50  1  0
 29 51  1  0
 30 52  1  0
 31 53  1  0
 32 54  1  0
M  CHG  3   5  -1  10  -1  23  -1
M  END
>  <UniqueID>  (62) 
54

>  <SMILES>  (62) 
Cn1c(=O)[n-]c2cc(C[N-]C(=O)Cc3ccc(-c4cccc([N-]S(C)(=O)=O)c4)cc3)ccc21

>  <Energy>  (62) 
98.03612822291225

>  <Genealogy>  (62) 
Cn1c(=O)[n-]c2cc(C[N-]C(=O)Cc3ccc(-c4cccc([N-]S(C)(=O)=O)c4)cc3)ccc21 (protonated)
Cn1c(=O)[n-]c2cc(C[N-]C(=O)Cc3ccc(-c4cccc([N-]S(C)(=O)=O)c4)cc3)ccc21 (3D coordinates assigned)
Cn1c(=O)[n-]c2cc(C[N-]C(=O)Cc3ccc(-c4cccc([N-]S(C)(=O)=O)c4)cc3)ccc21 (optimized conformer: 98.03612822291225 kcal/mol)

>  <smiles>  (62) 
Cn1c(=O)[nH]c2cc(CNC(=O)Cc3ccc(-c4cccc(NS(C)(=O)=O)c4)cc3)ccc21

>  <score_type>  (62) 
oracle

>  <origin>  (62) 
adg

>  <m_score__min__energy>  (62) 
-14.23

>  <m_primary>  (62) 
energy

$$$$
62:0
     RDKit          3D

 51 54  0  0  0  0  0  0  0  0999 V2000
   57.7470   30.2570   45.7130 O   0  0  0  0  0  0  0  0  0  0  0  0
   56.8260   29.9080   44.9210 C   0  0  0  0  0  0  0  0  0  0  0  0
   56.1460   30.9410   44.0770 C   0  0  0  0  0  0  0  0  0  0  0  0
   57.3720   31.8020   43.0320 S   0  0  0  0  0  0  0  0  0  0  0  0
   57.9620   32.8550   44.3540 C   0  0  0  0  0  0  0  0  0  0  0  0
   57.4480   34.0690   44.6220 N   0  0  0  0  0  0  0  0  0  0  0  0
   58.1550   34.5610   45.6240 N   0  0  0  0  0  0  0  0  0  0  0  0
   59.0800   33.6300   45.9400 C   0  0  0  0  0  0  0  0  0  0  0  0
   60.1100   33.8060   46.9880 C   0  0  0  0  0  0  0  0  0  0  0  0
   61.4770   33.7180   46.6690 C   0  0  0  0  0  0  0  0  0  0  0  0
   62.4480   33.8530   47.6650 C   0  0  0  0  0  0  0  0  0  0  0  0
   62.0630   34.0790   48.9900 C   0  0  0  0  0  0  0  0  0  0  0  0
   60.7060   34.1690   49.3190 C   0  0  0  0  0  0  0  0  0  0  0  0
   59.7320   34.0330   48.3270 C   0  0  0  0  0  0  0  0  0  0  0  0
   58.9890   32.5320   45.1620 N   0  0  0  0  0  0  0  0  0  0  0  0
   56.4140   28.5350   44.8430 N   0  0  0  0  0  0  0  0  0  0  0  0
   56.8660   27.5390   45.7710 C   0  0  0  0  0  0  0  0  0  0  0  0
   58.1700   27.6120   46.2770 C   0  0  0  0  0  0  0  0  0  0  0  0
   58.6350   26.6540   47.1880 C   0  0  0  0  0  0  0  0  0  0  0  0
   60.2650   26.7740   47.8530 S   0  0  0  0  0  0  0  0  0  0  0  0
   61.2200   26.0640   46.9310 O   0  0  0  0  0  0  0  0  0  0  0  0
   60.3130   26.0980   49.1990 O   0  0  0  0  0  0  0  0  0  0  0  0
   60.7310   28.4520   47.9980 N   0  0  0  0  0  0  0  0  0  0  0  0
   60.7310   29.0900   46.6690 C   0  0  0  0  0  0  0  0  0  0  0  0
   60.7950   30.6290   46.7900 C   0  0  0  0  0  0  0  0  0  0  0  0
   61.1890   31.0170   48.0910 O   0  0  0  0  0  0  0  0  0  0  0  0
   60.1910   30.6410   49.0240 C   0  0  0  0  0  0  0  0  0  0  0  0
   59.8030   29.1480   48.9040 C   0  0  0  0  0  0  0  0  0  0  0  0
   57.8010   25.5960   47.5660 C   0  0  0  0  0  0  0  0  0  0  0  0
   56.5060   25.5030   47.0470 C   0  0  0  0  0  0  0  0  0  0  0  0
   56.0350   26.4680   46.1510 C   0  0  0  0  0  0  0  0  0  0  0  0
   54.7550   26.3420   45.6250 O   0  0  0  0  0  0  0  0  0  0  0  0
   55.3992   30.4519   43.4342 H   0  0  0  0  0  0  0  0  0  0  0  0
   55.6525   31.6740   44.7321 H   0  0  0  0  0  0  0  0  0  0  0  0
   61.7842   33.5416   45.6276 H   0  0  0  0  0  0  0  0  0  0  0  0
   63.5148   33.7815   47.4066 H   0  0  0  0  0  0  0  0  0  0  0  0
   62.8271   34.1861   49.7740 H   0  0  0  0  0  0  0  0  0  0  0  0
   60.4053   34.3474   50.3620 H   0  0  0  0  0  0  0  0  0  0  0  0
   58.6666   34.1033   48.5915 H   0  0  0  0  0  0  0  0  0  0  0  0
   55.8740   28.2280   44.0040 H   0  0  0  0  0  0  0  0  0  0  0  0
   58.8345   28.4280   45.9567 H   0  0  0  0  0  0  0  0  0  0  0  0
   61.6050   28.7377   46.1015 H   0  0  0  0  0  0  0  0  0  0  0  0
   59.7988   28.8190   46.1517 H   0  0  0  0  0  0  0  0  0  0  0  0
   61.5229   31.0175   46.0624 H   0  0  0  0  0  0  0  0  0  0  0  0
   59.7943   31.0391   46.5890 H   0  0  0  0  0  0  0  0  0  0  0  0
   60.5694   30.8270   50.0400 H   0  0  0  0  0  0  0  0  0  0  0  0
   59.2922   31.2389   48.8125 H   0  0  0  0  0  0  0  0  0  0  0  0
   59.8471   28.6802   49.8986 H   0  0  0  0  0  0  0  0  0  0  0  0
   58.7831   29.0741   48.4986 H   0  0  0  0  0  0  0  0  0  0  0  0
   58.1649   24.8358   48.2729 H   0  0  0  0  0  0  0  0  0  0  0  0
   55.8552   24.6676   47.3446 H   0  0  0  0  0  0  0  0  0  0  0  0
  1  2  2  0
  2  3  1  0
  3  4  1  0
  4  5  1  0
  5  6  2  0
  6  7  1  0
  7  8  1  0
  8  9  1  0
  9 10  2  0
 10 11  1  0
 11 12  2  0
 12 13  1  0
 13 14  2  0
  8 15  2  0
  2 16  1  0
 16 17  1  0
 17 18  2  0
 18 19  1  0
 19 20  1  0
 20 21  2  0
 20 22  2  0
 20 23  1  0
 23 24  1  0
 24 25  1  0
 25 26  1  0
 26 27  1  0
 27 28  1  0
 19 29  2  0
 29 30  1  0
 30 31  2  0
 31 32  1  0
 15  5  1  0
 31 17  1  0
 14  9  1  0
 28 23  1  0
  3 33  1  0
  3 34  1  0
 10 35  1  0
 11 36  1  0
 12 37  1  0
 13 38  1  0
 14 39  1  0
 16 40  1  0
 18 41  1  0
 24 42  1  0
 24 43  1  0
 25 44  1  0
 25 45  1  0
 27 46  1  0
 27 47  1  0
 28 48  1  0
 28 49  1  0
 29 50  1  0
 30 51  1  0
M  CHG  2   7  -1  32  -1
M  END
>  <UniqueID>  (63) 
55

>  <SMILES>  (63) 
O=C(CSc1n[n-]c(-c2ccccc2)n1)Nc1cc(S(=O)(=O)N2CCOCC2)ccc1[O-]

>  <Energy>  (63) 
94.02432464457796

>  <Genealogy>  (63) 
O=C(CSc1n[n-]c(-c2ccccc2)n1)Nc1cc(S(=O)(=O)N2CCOCC2)ccc1[O-] (protonated)
O=C(CSc1n[n-]c(-c2ccccc2)n1)Nc1cc(S(=O)(=O)N2CCOCC2)ccc1[O-] (3D coordinates assigned)
O=C(CSc1n[n-]c(-c2ccccc2)n1)Nc1cc(S(=O)(=O)N2CCOCC2)ccc1[O-] (nonaromatic ring conformer: 94.02432464457796 kcal/mol)

>  <smiles>  (63) 
O=C(CSc1n[nH]c(-c2ccccc2)n1)Nc1cc(S(=O)(=O)N2CCOCC2)ccc1O

>  <score_type>  (63) 
oracle

>  <origin>  (63) 
adg

>  <m_score__min__energy>  (63) 
-13.08

>  <m_primary>  (63) 
energy

$$$$
63:0
     RDKit          3D

 69 73  0  0  0  0  0  0  0  0999 V2000
   56.7010   23.3470   41.8510 H   0  0  0  0  0  0  0  0  0  0  0  0
   56.5410   22.4900   42.4260 N   0  0  0  0  0  0  0  0  0  0  0  0
   55.9050   22.5140   43.5530 C   0  0  0  0  0  0  0  0  0  0  0  0
   55.9930   21.4470   44.3930 N   0  0  0  0  0  0  0  0  0  0  0  0
   55.3530   21.4210   45.5920 C   0  0  0  0  0  0  0  0  0  0  0  0
   55.4405   20.5381   46.2423 H   0  0  0  0  0  0  0  0  0  0  0  0
   54.5850   22.5130   45.9990 C   0  0  0  0  0  0  0  0  0  0  0  0
   54.0762   22.4991   46.9742 H   0  0  0  0  0  0  0  0  0  0  0  0
   54.4660   23.6280   45.1570 C   0  0  0  0  0  0  0  0  0  0  0  0
   53.6830   24.8360   45.5880 C   0  0  0  0  0  0  0  0  0  0  0  0
   53.1645   24.6202   46.5338 H   0  0  0  0  0  0  0  0  0  0  0  0
   52.9410   25.0901   44.8167 H   0  0  0  0  0  0  0  0  0  0  0  0
   54.5950   25.9550   45.7770 N   0  0  0  0  0  0  0  0  0  0  0  0
   55.9110   25.8930   46.3440 C   0  0  0  0  0  0  0  0  0  0  0  0
   56.1570   24.9860   47.1820 O   0  0  0  0  0  0  0  0  0  0  0  0
   56.9820   26.8500   45.9990 C   0  0  0  0  0  0  0  0  0  0  0  0
   58.3040   26.6210   46.1570 N   0  0  0  0  0  0  0  0  0  0  0  0
   58.9520   27.7050   45.7590 N   0  0  0  0  0  0  0  0  0  0  0  0
   60.4070   27.8220   45.7370 C   0  0  0  0  0  0  0  0  0  0  0  0
   60.7880   27.8526   46.7684 H   0  0  0  0  0  0  0  0  0  0  0  0
   60.8366   26.9555   45.2130 H   0  0  0  0  0  0  0  0  0  0  0  0
   60.6927   28.7460   45.2130 H   0  0  0  0  0  0  0  0  0  0  0  0
   58.0650   28.6240   45.3350 C   0  0  0  0  0  0  0  0  0  0  0  0
   58.4130   29.7620   44.8030 N   0  0  0  0  0  0  0  0  0  0  0  0
   57.7980   31.0370   45.0420 C   0  0  0  0  0  0  0  0  0  0  0  0
   56.6640   31.3010   44.5550 O   0  0  0  0  0  0  0  0  0  0  0  0
   58.4640   32.0300   45.9060 C   0  0  0  0  0  0  0  0  0  0  0  0
   59.1940   31.7310   47.0430 C   0  0  0  0  0  0  0  0  0  0  0  0
   59.4184   30.7295   47.4387 H   0  0  0  0  0  0  0  0  0  0  0  0
   59.5840   32.9400   47.5810 C   0  0  0  0  0  0  0  0  0  0  0  0
   60.3610   33.0820   48.8210 C   0  0  0  0  0  0  0  0  0  0  0  0
   59.8020   32.8150   49.9170 O   0  0  0  0  0  0  0  0  0  0  0  0
   61.7360   33.5220   48.7970 N   0  0  0  0  0  0  0  0  0  0  0  0
   62.2910   34.2770   49.9360 C   0  0  0  0  0  0  0  0  0  0  0  0
   62.4925   35.3138   49.6285 H   0  0  0  0  0  0  0  0  0  0  0  0
   61.5699   34.2812   50.7666 H   0  0  0  0  0  0  0  0  0  0  0  0
   63.5710   33.6240   50.3770 C   0  0  0  0  0  0  0  0  0  0  0  0
   63.8680   33.4100   51.7330 C   0  0  0  0  0  0  0  0  0  0  0  0
   63.1695   33.7501   52.5117 H   0  0  0  0  0  0  0  0  0  0  0  0
   65.0550   32.7630   52.0890 C   0  0  0  0  0  0  0  0  0  0  0  0
   65.2845   32.5835   53.1497 H   0  0  0  0  0  0  0  0  0  0  0  0
   65.9520   32.3430   51.1010 C   0  0  0  0  0  0  0  0  0  0  0  0
   66.8867   31.8386   51.3871 H   0  0  0  0  0  0  0  0  0  0  0  0
   65.6630   32.5630   49.7500 C   0  0  0  0  0  0  0  0  0  0  0  0
   66.3771   32.2468   48.9753 H   0  0  0  0  0  0  0  0  0  0  0  0
   64.4620   33.1870   49.3850 C   0  0  0  0  0  0  0  0  0  0  0  0
   64.1100   33.4390   47.9460 C   0  0  0  0  0  0  0  0  0  0  0  0
   64.2856   34.4991   47.7109 H   0  0  0  0  0  0  0  0  0  0  0  0
   64.7389   32.7995   47.3093 H   0  0  0  0  0  0  0  0  0  0  0  0
   62.6200   33.0980   47.6820 C   0  0  2  0  0  0  0  0  0  0  0  0
   62.5409   32.0034   47.6074 H   0  0  0  0  0  0  0  0  0  0  0  0
   62.1630   33.7370   46.3680 C   0  0  0  0  0  0  0  0  0  0  0  0
   61.5357   34.6141   46.5855 H   0  0  0  0  0  0  0  0  0  0  0  0
   63.0430   34.0505   45.7872 H   0  0  0  0  0  0  0  0  0  0  0  0
   61.5819   33.0056   45.7872 H   0  0  0  0  0  0  0  0  0  0  0  0
   59.1330   33.9660   46.8280 N   0  0  0  0  0  0  0  0  0  0  0  0
   59.2950   35.3940   47.1140 C   0  0  0  0  0  0  0  0  0  0  0  0
   59.3127   35.5502   48.2027 H   0  0  0  0  0  0  0  0  0  0  0  0
   60.2394   35.7506   46.6770 H   0  0  0  0  0  0  0  0  0  0  0  0
   58.4545   35.9531   46.6770 H   0  0  0  0  0  0  0  0  0  0  0  0
   58.4310   33.4180   45.8060 C   0  0  0  0  0  0  0  0  0  0  0  0
   57.7180   34.2040   44.7400 C   0  0  0  0  0  0  0  0  0  0  0  0
   57.0504   34.9400   45.2118 H   0  0  0  0  0  0  0  0  0  0  0  0
   58.4563   34.7269   44.1143 H   0  0  0  0  0  0  0  0  0  0  0  0
   57.1259   33.5200   44.1143 H   0  0  0  0  0  0  0  0  0  0  0  0
   56.7820   28.1210   45.4800 C   0  0  0  0  0  0  0  0  0  0  0  0
   55.8284   28.6139   45.2399 H   0  0  0  0  0  0  0  0  0  0  0  0
   55.1370   23.6280   43.9230 C   0  0  0  0  0  0  0  0  0  0  0  0
   55.0607   24.4957   43.2513 H   0  0  0  0  0  0  0  0  0  0  0  0
  1  2  1  0
  2  3  2  3
  3  4  1  0
  4  5  1  0
  5  6  1  0
  5  7  2  0
  7  8  1  0
  7  9  1  0
  9 10  1  0
 10 11  1  0
 10 12  1  0
 10 13  1  0
 13 14  1  0
 14 15  2  0
 14 16  1  0
 16 17  1  0
 17 18  1  0
 18 19  1  0
 19 20  1  0
 19 21  1  0
 19 22  1  0
 18 23  1  0
 23 24  2  0
 24 25  1  0
 25 26  2  0
 25 27  1  0
 27 28  1  0
 28 29  1  0
 28 30  2  0
 30 31  1  0
 31 32  2  0
 31 33  1  0
 33 34  1  0
 34 35  1  0
 34 36  1  0
 34 37  1  0
 37 38  2  0
 38 39  1  0
 38 40  1  0
 40 41  1  0
 40 42  2  0
 42 43  1  0
 42 44  1  0
 44 45  1  0
 44 46  2  0
 46 47  1  0
 47 48  1  0
 47 49  1  0
 47 50  1  0
 50 51  1  6
 50 52  1  0
 52 53  1  0
 52 54  1  0
 52 55  1  0
 30 56  1  0
 56 57  1  0
 57 58  1  0
 57 59  1  0
 57 60  1  0
 56 61  1  0
 61 62  1  0
 62 63  1  0
 62 64  1  0
 62 65  1  0
 23 66  1  0
 66 67  1  0
  9 68  2  0
 68 69  1  0
 68  3  1  0
 66 16  2  0
 61 27  2  0
 50 33  1  0
 46 37  1  0
M  CHG  3   4  -1  13  -1  17  -1
M  END
>  <UniqueID>  (64) 
56

>  <SMILES>  (64) 
Cc1c(C(=O)/N=c2\cc(C(=O)[N-]Cc3cc[n-]c(=N)c3)[n-]n2C)cc(C(=O)N2Cc3ccccc3C[C@@H]2C)n1C

>  <Energy>  (64) 
146.1958466303788

>  <Genealogy>  (64) 
Cc1c(C(=O)N=c2cc(C(=O)[N-]Cc3cc[n-]c(=N)c3)[n-]n2C)cc(C(=O)N2Cc3ccccc3CC2C)n1C (protonated)
Cc1c(C(=O)N=c2cc(C(=O)[N-]Cc3cc[n-]c(=N)c3)[n-]n2C)cc(C(=O)N2Cc3ccccc3C[C@@H]2C)n1C (chirality)
Cc1c(C(=O)/N=c2\cc(C(=O)[N-]Cc3cc[n-]c(=N)c3)[n-]n2C)cc(C(=O)N2Cc3ccccc3C[C@@H]2C)n1C (cis-trans isomerization)
Cc1c(C(=O)/N=c2\cc(C(=O)[N-]Cc3cc[n-]c(=N)c3)[n-]n2C)cc(C(=O)N2Cc3ccccc3C[C@@H]2C)n1C (3D coordinates assigned)
Cc1c(C(=O)/N=c2\cc(C(=O)[N-]Cc3cc[n-]c(=N)c3)[n-]n2C)cc(C(=O)N2Cc3ccccc3C[C@@H]2C)n1C (nonaromatic ring conformer: 146.1958466303788 kcal/mol)

>  <smiles>  (64) 
Cc1c(C(=O)N=c2cc(C(=O)NCc3cc[nH]c(=N)c3)[nH]n2C)cc(C(=O)N2Cc3ccccc3CC2C)n1C

>  <score_type>  (64) 
oracle

>  <origin>  (64) 
adg

>  <m_score__min__energy>  (64) 
-17.07

>  <m_primary>  (64) 
energy

$$$$
64:0
     RDKit          3D

 46 48  0  0  0  0  0  0  0  0999 V2000
   63.3717   33.7978   46.3393 H   0  0  0  0  0  0  0  0  0  0  0  0
   62.4460   33.5150   46.8620 C   0  0  0  0  0  0  0  0  0  0  0  0
   61.2160   33.9950   46.4090 C   0  0  0  0  0  0  0  0  0  0  0  0
   61.1733   34.6548   45.5299 H   0  0  0  0  0  0  0  0  0  0  0  0
   60.0370   33.6370   47.0730 C   0  0  0  0  0  0  0  0  0  0  0  0
   58.4580   34.2550   46.4900 S   0  0  0  0  0  0  0  0  0  0  0  0
   58.0970   32.7480   45.5880 C   0  0  0  0  0  0  0  0  0  0  0  0
   57.7720   32.8080   44.2270 C   0  0  0  0  0  0  0  0  0  0  0  0
   57.7385   33.7797   43.7126 H   0  0  0  0  0  0  0  0  0  0  0  0
   57.4900   31.6340   43.5210 C   0  0  0  0  0  0  0  0  0  0  0  0
   57.2353   31.6847   42.4521 H   0  0  0  0  0  0  0  0  0  0  0  0
   57.5310   30.3920   44.1720 C   0  0  0  0  0  0  0  0  0  0  0  0
   57.2390   29.1920   43.4530 N   0  0  0  0  0  0  0  0  0  0  0  0
   56.4300   28.5890   43.7240 H   0  0  0  0  0  0  0  0  0  0  0  0
   57.8200   28.9040   42.6330 H   0  0  0  0  0  0  0  0  0  0  0  0
   57.8530   30.3360   45.5360 C   0  0  0  0  0  0  0  0  0  0  0  0
   57.8854   29.3654   46.0526 H   0  0  0  0  0  0  0  0  0  0  0  0
   58.1330   31.5110   46.2410 C   0  0  0  0  0  0  0  0  0  0  0  0
   58.3821   31.4626   47.3113 H   0  0  0  0  0  0  0  0  0  0  0  0
   60.0920   32.7940   48.1890 C   0  0  0  0  0  0  0  0  0  0  0  0
   59.1631   32.5093   48.7047 H   0  0  0  0  0  0  0  0  0  0  0  0
   61.3280   32.3080   48.6560 C   0  0  0  0  0  0  0  0  0  0  0  0
   61.3840   31.4300   49.8010 N   0  0  0  0  0  0  0  0  0  0  0  0
   60.9910   31.9070   50.6450 H   0  0  0  0  0  0  0  0  0  0  0  0
   62.3820   31.2150   50.0200 H   0  0  0  0  0  0  0  0  0  0  0  0
   60.6270   30.2230   49.5600 C   0  0  0  0  0  0  0  0  0  0  0  0
   60.6960   29.5180   48.0790 S   0  0  0  0  0  0  0  0  0  0  0  0
   59.4820   29.9090   50.3700 N   0  0  0  0  0  0  0  0  0  0  0  0
   58.7210   30.7520   51.0020 C   0  0  0  0  0  0  0  0  0  0  0  0
   59.1660   31.9960   51.3330 N   0  0  0  0  0  0  0  0  0  0  0  0
   58.3930   32.8870   52.0110 C   0  0  0  0  0  0  0  0  0  0  0  0
   58.9310   34.2540   52.3010 C   0  0  0  0  0  0  0  0  0  0  0  0
   58.9892   34.4018   53.3895 H   0  0  0  0  0  0  0  0  0  0  0  0
   59.9353   34.3533   51.8633 H   0  0  0  0  0  0  0  0  0  0  0  0
   58.2638   35.0111   51.8633 H   0  0  0  0  0  0  0  0  0  0  0  0
   57.0890   32.5330   52.3810 C   0  0  0  0  0  0  0  0  0  0  0  0
   56.4449   33.2573   52.9011 H   0  0  0  0  0  0  0  0  0  0  0  0
   56.6110   31.2500   52.0840 C   0  0  0  0  0  0  0  0  0  0  0  0
   55.2090   30.8630   52.4520 C   0  0  0  0  0  0  0  0  0  0  0  0
   55.1116   30.8361   53.5473 H   0  0  0  0  0  0  0  0  0  0  0  0
   54.5048   31.6003   52.0392 H   0  0  0  0  0  0  0  0  0  0  0  0
   54.9827   29.8688   52.0392 H   0  0  0  0  0  0  0  0  0  0  0  0
   57.4330   30.3570   51.3830 C   0  0  0  0  0  0  0  0  0  0  0  0
   57.0676   29.3500   51.1332 H   0  0  0  0  0  0  0  0  0  0  0  0
   62.5040   32.6760   47.9780 C   0  0  0  0  0  0  0  0  0  0  0  0
   63.4766   32.3006   48.3288 H   0  0  0  0  0  0  0  0  0  0  0  0
  1  2  1  0
  2  3  2  0
  3  4  1  0
  3  5  1  0
  5  6  1  0
  6  7  1  0
  7  8  2  0
  8  9  1  0
  8 10  1  0
 10 11  1  0
 10 12  2  0
 12 13  1  0
 13 14  1  0
 13 15  1  0
 12 16  1  0
 16 17  1  0
 16 18  2  0
 18 19  1  0
  5 20  2  0
 20 21  1  0
 20 22  1  0
 22 23  1  0
 23 24  1  0
 23 25  1  0
 23 26  1  0
 26 27  2  0
 26 28  1  0
 28 29  2  0
 29 30  1  0
 30 31  1  0
 31 32  1  0
 32 33  1  0
 32 34  1  0
 32 35  1  0
 31 36  2  0
 36 37  1  0
 36 38  1  0
 38 39  1  0
 39 40  1  0
 39 41  1  0
 39 42  1  0
 38 43  2  0
 43 44  1  0
 22 45  2  0
 45 46  1  0
 45  2  1  0
 18  7  1  0
 43 29  1  0
M  CHG  2  23   1  30  -1
M  END
>  <UniqueID>  (65) 
57

>  <SMILES>  (65) 
Cc1cc(C)[n-]/c(=N\C(=S)[NH2+]c2cccc(Sc3ccc(N)cc3)c2)c1

>  <Energy>  (65) 
48.77051409593047

>  <Genealogy>  (65) 
Cc1cc(C)[n-]c(=NC(=S)[NH2+]c2cccc(Sc3ccc(N)cc3)c2)c1 (protonated)
Cc1cc(C)[n-]/c(=N\C(=S)[NH2+]c2cccc(Sc3ccc(N)cc3)c2)c1 (cis-trans isomerization)
Cc1cc(C)[n-]/c(=N\C(=S)[NH2+]c2cccc(Sc3ccc(N)cc3)c2)c1 (3D coordinates assigned)
Cc1cc(C)[n-]/c(=N\C(=S)[NH2+]c2cccc(Sc3ccc(N)cc3)c2)c1 (optimized conformer: 48.77051409593047 kcal/mol)

>  <smiles>  (65) 
Cc1cc(C)[nH]c(=NC(=S)Nc2cccc(Sc3ccc(N)cc3)c2)c1

>  <score_type>  (65) 
oracle

>  <origin>  (65) 
adg

>  <m_score__min__energy>  (65) 
-9.5600000000000005

>  <m_primary>  (65) 
energy

$$$$
65:0
     RDKit          3D

 68 72  0  0  0  0  0  0  0  0999 V2000
   57.7640   30.6980   44.4750 C   0  0  0  0  0  0  0  0  0  0  0  0
   57.5510   29.4070   45.1250 N   0  0  0  0  0  0  0  0  0  0  0  0
   56.4620   28.6270   44.9690 C   0  0  0  0  0  0  0  0  0  0  0  0
   56.5960   27.4980   45.7540 C   0  0  0  0  0  0  0  0  0  0  0  0
   55.6310   26.4630   45.9640 N   0  0  0  0  0  0  0  0  0  0  0  0
   55.9070   25.1030   46.3220 C   0  0  0  0  0  0  0  0  0  0  0  0
   55.8840   24.7810   47.5410 O   0  0  0  0  0  0  0  0  0  0  0  0
   56.2400   24.0690   45.3170 C   0  0  0  0  0  0  0  0  0  0  0  0
   57.5890   23.7790   45.0560 C   0  0  0  0  0  0  0  0  0  0  0  0
   57.9320   22.8230   44.1000 C   0  0  0  0  0  0  0  0  0  0  0  0
   56.9210   22.1650   43.3990 C   0  0  0  0  0  0  0  0  0  0  0  0
   55.6170   22.4640   43.6440 N   0  0  0  0  0  0  0  0  0  0  0  0
   55.2500   23.3950   44.5680 C   0  0  0  0  0  0  0  0  0  0  0  0
   53.5390   23.7670   44.7290 Cl  0  0  0  0  0  0  0  0  0  0  0  0
   57.8020   27.5840   46.4130 C   0  0  0  0  0  0  0  0  0  0  0  0
   58.3770   28.7740   45.9960 C   0  0  0  0  0  0  0  0  0  0  0  0
   59.7160   29.2550   46.4180 C   0  0  0  0  0  0  0  0  0  0  0  0
   60.2980   30.1560   45.7580 O   0  0  0  0  0  0  0  0  0  0  0  0
   60.4050   28.6510   47.5200 N   0  0  0  0  0  0  0  0  0  0  0  0
   60.0140   28.8460   48.8820 C   0  0  0  0  0  0  0  0  0  0  0  0
   58.9240   29.5680   49.3200 C   0  0  0  0  0  0  0  0  0  0  0  0
   58.9190   29.4440   50.7030 C   0  0  0  0  0  0  0  0  0  0  0  0
   57.9290   30.0720   51.6190 C   0  0  0  0  0  0  0  0  0  0  0  0
   56.9460   29.4020   52.0370 O   0  0  0  0  0  0  0  0  0  0  0  0
   58.0890   31.4120   52.0980 N   0  0  0  0  0  0  0  0  0  0  0  0
   59.0400   32.3540   51.5970 C   0  0  0  0  0  0  0  0  0  0  0  0
   59.9650   33.0730   52.3310 C   0  0  0  0  0  0  0  0  0  0  0  0
   60.6650   33.8650   51.4980 N   0  0  0  0  0  0  0  0  0  0  0  0
   60.1910   33.6500   50.2530 C   0  0  0  0  0  0  0  0  0  0  0  0
   60.6380   34.3890   49.0620 C   0  0  0  0  0  0  0  0  0  0  0  0
   61.8720   34.5380   48.8470 O   0  0  0  0  0  0  0  0  0  0  0  0
   59.6660   34.8850   48.1300 N   0  0  0  0  0  0  0  0  0  0  0  0
   59.2590   34.3010   47.0360 C   0  0  0  0  0  0  0  0  0  0  0  0
   58.2880   33.1600   47.1420 C   0  0  0  0  0  0  0  0  0  0  0  0
   57.0160   33.4560   46.3260 C   0  0  0  0  0  0  0  0  0  0  0  0
   57.2830   34.1300   44.9550 C   0  0  0  0  0  0  0  0  0  0  0  0
   58.7690   34.1470   44.5640 C   0  0  0  0  0  0  0  0  0  0  0  0
   59.6230   34.8110   45.6580 C   0  0  0  0  0  0  0  0  0  0  0  0
   59.1840   32.6990   50.2720 C   0  0  0  0  0  0  0  0  0  0  0  0
   59.9870   28.6960   51.0930 N   0  0  0  0  0  0  0  0  0  0  0  0
   60.3810   28.3330   52.4540 C   0  0  0  0  0  0  0  0  0  0  0  0
   60.6590   28.3350   49.9800 C   0  0  0  0  0  0  0  0  0  0  0  0
   57.8926   31.4772   45.2407 H   0  0  0  0  0  0  0  0  0  0  0  0
   58.6661   30.6482   43.8475 H   0  0  0  0  0  0  0  0  0  0  0  0
   56.8937   30.9406   43.8475 H   0  0  0  0  0  0  0  0  0  0  0  0
   55.6034   28.8537   44.3198 H   0  0  0  0  0  0  0  0  0  0  0  0
   58.3793   24.3085   45.6083 H   0  0  0  0  0  0  0  0  0  0  0  0
   58.9885   22.5903   43.9009 H   0  0  0  0  0  0  0  0  0  0  0  0
   57.1787   21.4040   42.6477 H   0  0  0  0  0  0  0  0  0  0  0  0
   58.2225   26.8577   47.1241 H   0  0  0  0  0  0  0  0  0  0  0  0
   58.2064   30.1269   48.7014 H   0  0  0  0  0  0  0  0  0  0  0  0
   60.1060   33.0082   53.4200 H   0  0  0  0  0  0  0  0  0  0  0  0
   61.4300   34.5230   51.7740 H   0  0  0  0  0  0  0  0  0  0  0  0
   58.7611   32.2451   46.7557 H   0  0  0  0  0  0  0  0  0  0  0  0
   58.0100   33.0266   48.1979 H   0  0  0  0  0  0  0  0  0  0  0  0
   56.4920   32.5056   46.1470 H   0  0  0  0  0  0  0  0  0  0  0  0
   56.4195   34.1667   46.9169 H   0  0  0  0  0  0  0  0  0  0  0  0
   56.7250   33.5814   44.1819 H   0  0  0  0  0  0  0  0  0  0  0  0
   56.9565   35.1771   45.0382 H   0  0  0  0  0  0  0  0  0  0  0  0
   59.1137   33.1127   44.4177 H   0  0  0  0  0  0  0  0  0  0  0  0
   58.8790   34.7266   43.6356 H   0  0  0  0  0  0  0  0  0  0  0  0
   60.6835   34.5919   45.4650 H   0  0  0  0  0  0  0  0  0  0  0  0
   59.4343   35.8944   45.6314 H   0  0  0  0  0  0  0  0  0  0  0  0
   58.6208   32.3045   49.4134 H   0  0  0  0  0  0  0  0  0  0  0  0
   59.7700   28.8959   53.1750 H   0  0  0  0  0  0  0  0  0  0  0  0
   60.2261   27.2545   52.6053 H   0  0  0  0  0  0  0  0  0  0  0  0
   61.4432   28.5756   52.6053 H   0  0  0  0  0  0  0  0  0  0  0  0
   61.5764   27.7285   49.9566 H   0  0  0  0  0  0  0  0  0  0  0  0
  1  2  1  0
  2  3  1  0
  3  4  2  0
  4  5  1  0
  5  6  1  0
  6  7  2  0
  6  8  1  0
  8  9  2  0
  9 10  1  0
 10 11  2  0
 11 12  1  0
 12 13  2  0
 13 14  1  0
  4 15  1  0
 15 16  2  0
 16 17  1  0
 17 18  2  0
 17 19  1  0
 19 20  1  0
 20 21  1  0
 21 22  2  0
 22 23  1  0
 23 24  2  0
 23 25  1  0
 25 26  1  0
 26 27  2  0
 27 28  1  0
 28 29  1  0
 29 30  1  0
 30 31  2  0
 30 32  1  0
 32 33  2  3
 33 34  1  0
 34 35  1  0
 35 36  1  0
 36 37  1  0
 37 38  1  0
 29 39  2  0
 22 40  1  0
 40 41  1  0
 40 42  1  0
 16  2  1  0
 42 20  2  0
 13  8  1  0
 39 26  1  0
 38 33  1  0
  1 43  1  0
  1 44  1  0
  1 45  1  0
  3 46  1  0
  9 47  1  0
 10 48  1  0
 11 49  1  0
 15 50  1  0
 21 51  1  0
 27 52  1  0
 28 53  1  0
 34 54  1  0
 34 55  1  0
 35 56  1  0
 35 57  1  0
 36 58  1  0
 36 59  1  0
 37 60  1  0
 37 61  1  0
 38 62  1  0
 38 63  1  0
 39 64  1  0
 41 65  1  0
 41 66  1  0
 41 67  1  0
 42 68  1  0
M  CHG  3   5  -1  19  -1  25  -1
M  END
>  <UniqueID>  (66) 
58

>  <SMILES>  (66) 
Cn1cc([N-]C(=O)c2cccnc2Cl)cc1C(=O)[N-]c1cc(C(=O)[N-]c2c[nH]c(C(=O)N=C3CCCCC3)c2)n(C)c1

>  <Energy>  (66) 
174.3854005190139

>  <Genealogy>  (66) 
Cn1cc([N-]C(=O)c2cccnc2Cl)cc1C(=O)[N-]c1cc(C(=O)[N-]c2c[nH]c(C(=O)N=C3CCCCC3)c2)n(C)c1 (protonated)
Cn1cc([N-]C(=O)c2cccnc2Cl)cc1C(=O)[N-]c1cc(C(=O)[N-]c2c[nH]c(C(=O)N=C3CCCCC3)c2)n(C)c1 (3D coordinates assigned)
Cn1cc([N-]C(=O)c2cccnc2Cl)cc1C(=O)[N-]c1cc(C(=O)[N-]c2c[nH]c(C(=O)N=C3CCCCC3)c2)n(C)c1 (nonaromatic ring conformer: 174.3854005190139 kcal/mol)

>  <smiles>  (66) 
Cn1cc(NC(=O)c2cccnc2Cl)cc1C(=O)Nc1cc(C(=O)Nc2c[nH]c(C(=O)N=C3CCCCC3)c2)n(C)c1

>  <score_type>  (66) 
oracle

>  <origin>  (66) 
adg

>  <m_score__min__energy>  (66) 
-14.08

>  <m_primary>  (66) 
energy

$$$$
66:0
     RDKit          3D

 61 64  0  0  0  0  0  0  0  0999 V2000
   58.8900   28.2610   48.0730 C   0  0  0  0  0  0  0  0  0  0  0  0
   58.0770   27.1160   47.4610 C   0  0  0  0  0  0  0  0  0  0  0  0
   58.1730   26.9990   45.9200 C   0  0  2  0  0  0  0  0  0  0  0  0
   58.0890   25.5430   45.4500 C   0  0  0  0  0  0  0  0  0  0  0  0
   58.9720   24.5800   45.9850 C   0  0  0  0  0  0  0  0  0  0  0  0
   58.8910   23.2410   45.5920 C   0  0  0  0  0  0  0  0  0  0  0  0
   57.9140   22.8330   44.6830 C   0  0  0  0  0  0  0  0  0  0  0  0
   57.0050   23.7610   44.1750 C   0  0  0  0  0  0  0  0  0  0  0  0
   57.0840   25.1030   44.5580 C   0  0  0  0  0  0  0  0  0  0  0  0
   59.4620   27.5650   45.5020 N   0  0  0  0  0  0  0  0  0  0  0  0
   59.2110   28.6550   44.6300 C   0  0  0  0  0  0  0  0  0  0  0  0
   60.1290   29.3620   44.1370 O   0  0  0  0  0  0  0  0  0  0  0  0
   57.8370   28.8850   44.3970 N   0  0  0  0  0  0  0  0  0  0  0  0
   57.2470   30.1210   43.8900 C   0  0  0  0  0  0  0  0  0  0  0  0
   57.4620   31.2330   44.8700 C   0  0  0  0  0  0  0  0  0  0  0  0
   56.5570   32.0960   45.0320 O   0  0  0  0  0  0  0  0  0  0  0  0
   58.7220   31.3580   45.5500 N   0  0  0  0  0  0  0  0  0  0  0  0
   58.9930   32.3450   46.5600 C   0  0  0  0  0  0  0  0  0  0  0  0
   59.1110   31.9710   47.9100 C   0  0  0  0  0  0  0  0  0  0  0  0
   59.4190   32.9240   48.8890 C   0  0  0  0  0  0  0  0  0  0  0  0
   59.5480   32.4480   50.5840 S   0  0  0  0  0  0  0  0  0  0  0  0
   60.7750   31.5970   50.7640 O   0  0  0  0  0  0  0  0  0  0  0  0
   59.7080   33.6790   51.4340 O   0  0  0  0  0  0  0  0  0  0  0  0
   58.1460   31.5510   51.1150 N   0  0  0  0  0  0  0  0  0  0  0  0
   58.5530   30.2480   51.6800 C   0  0  0  0  0  0  0  0  0  0  0  0
   57.3920   29.5330   52.4060 C   0  0  0  0  0  0  0  0  0  0  0  0
   56.0350   30.1510   52.0570 C   0  0  0  0  0  0  0  0  0  0  0  0
   56.0140   31.6590   52.3610 C   0  0  0  0  0  0  0  0  0  0  0  0
   57.3750   32.3320   52.0980 C   0  0  0  0  0  0  0  0  0  0  0  0
   59.6260   34.2580   48.5150 C   0  0  0  0  0  0  0  0  0  0  0  0
   59.5200   34.6360   47.1770 C   0  0  0  0  0  0  0  0  0  0  0  0
   59.2070   33.6890   46.1980 C   0  0  0  0  0  0  0  0  0  0  0  0
   59.0460   34.2210   44.5300 Cl  0  0  0  0  0  0  0  0  0  0  0  0
   57.1900   27.9210   45.2180 C   0  0  0  0  0  0  0  0  0  0  0  0
   55.9400   27.9050   45.3790 O   0  0  0  0  0  0  0  0  0  0  0  0
   58.8447   28.1972   49.1702 H   0  0  0  0  0  0  0  0  0  0  0  0
   59.9369   28.1840   47.7441 H   0  0  0  0  0  0  0  0  0  0  0  0
   58.4722   29.2240   47.7441 H   0  0  0  0  0  0  0  0  0  0  0  0
   58.4339   26.1718   47.8982 H   0  0  0  0  0  0  0  0  0  0  0  0
   57.0224   27.3304   47.6889 H   0  0  0  0  0  0  0  0  0  0  0  0
   59.7318   24.8867   46.7189 H   0  0  0  0  0  0  0  0  0  0  0  0
   59.6001   22.5061   46.0008 H   0  0  0  0  0  0  0  0  0  0  0  0
   57.8608   21.7806   44.3674 H   0  0  0  0  0  0  0  0  0  0  0  0
   56.2243   23.4361   43.4715 H   0  0  0  0  0  0  0  0  0  0  0  0
   56.3557   25.8253   44.1608 H   0  0  0  0  0  0  0  0  0  0  0  0
   57.7196   30.3837   42.9321 H   0  0  0  0  0  0  0  0  0  0  0  0
   56.1668   29.9718   43.7456 H   0  0  0  0  0  0  0  0  0  0  0  0
   59.4990   30.7200   45.2610 H   0  0  0  0  0  0  0  0  0  0  0  0
   58.9601   30.9207   48.1999 H   0  0  0  0  0  0  0  0  0  0  0  0
   58.9085   29.6038   50.8623 H   0  0  0  0  0  0  0  0  0  0  0  0
   59.3460   30.4356   52.4189 H   0  0  0  0  0  0  0  0  0  0  0  0
   57.3868   28.4733   52.1111 H   0  0  0  0  0  0  0  0  0  0  0  0
   57.5482   29.6418   53.4894 H   0  0  0  0  0  0  0  0  0  0  0  0
   55.8364   29.9984   50.9859 H   0  0  0  0  0  0  0  0  0  0  0  0
   55.2626   29.6622   52.6690 H   0  0  0  0  0  0  0  0  0  0  0  0
   55.2550   32.1369   51.7241 H   0  0  0  0  0  0  0  0  0  0  0  0
   55.7807   31.7819   53.4289 H   0  0  0  0  0  0  0  0  0  0  0  0
   57.2093   33.3466   51.7068 H   0  0  0  0  0  0  0  0  0  0  0  0
   57.9398   32.3812   53.0406 H   0  0  0  0  0  0  0  0  0  0  0  0
   59.8729   35.0097   49.2792 H   0  0  0  0  0  0  0  0  0  0  0  0
   59.6836   35.6853   46.8905 H   0  0  0  0  0  0  0  0  0  0  0  0
  1  2  1  0
  3  2  1  1
  3  4  1  0
  4  5  2  0
  5  6  1  0
  6  7  2  0
  7  8  1  0
  8  9  2  0
  3 10  1  0
 10 11  1  0
 11 12  2  0
 11 13  1  0
 13 14  1  0
 14 15  1  0
 15 16  2  0
 15 17  1  0
 17 18  1  0
 18 19  2  0
 19 20  1  0
 20 21  1  0
 21 22  2  0
 21 23  2  0
 21 24  1  0
 24 25  1  0
 25 26  1  0
 26 27  1  0
 27 28  1  0
 28 29  1  0
 20 30  2  0
 30 31  1  0
 31 32  2  0
 32 33  1  0
 13 34  1  0
 34 35  2  0
 34  3  1  0
  9  4  1  0
 32 18  1  0
 29 24  1  0
  1 36  1  0
  1 37  1  0
  1 38  1  0
  2 39  1  0
  2 40  1  0
  5 41  1  0
  6 42  1  0
  7 43  1  0
  8 44  1  0
  9 45  1  0
 14 46  1  0
 14 47  1  0
 17 48  1  0
 19 49  1  0
 25 50  1  0
 25 51  1  0
 26 52  1  0
 26 53  1  0
 27 54  1  0
 27 55  1  0
 28 56  1  0
 28 57  1  0
 29 58  1  0
 29 59  1  0
 30 60  1  0
 31 61  1  0
M  CHG  1  10  -1
M  END
>  <UniqueID>  (67) 
59

>  <SMILES>  (67) 
CC[C@]1(c2ccccc2)[N-]C(=O)N(CC(=O)Nc2cc(S(=O)(=O)N3CCCCC3)ccc2Cl)C1=O

>  <Energy>  (67) 
88.8879364885053

>  <Genealogy>  (67) 
CCC1(c2ccccc2)[N-]C(=O)N(CC(=O)Nc2cc(S(=O)(=O)N3CCCCC3)ccc2Cl)C1=O (protonated)
CC[C@]1(c2ccccc2)[N-]C(=O)N(CC(=O)Nc2cc(S(=O)(=O)N3CCCCC3)ccc2Cl)C1=O (chirality)
CC[C@]1(c2ccccc2)[N-]C(=O)N(CC(=O)Nc2cc(S(=O)(=O)N3CCCCC3)ccc2Cl)C1=O (3D coordinates assigned)
CC[C@]1(c2ccccc2)[N-]C(=O)N(CC(=O)Nc2cc(S(=O)(=O)N3CCCCC3)ccc2Cl)C1=O (nonaromatic ring conformer: 88.8879364885053 kcal/mol)

>  <smiles>  (67) 
CCC1(c2ccccc2)NC(=O)N(CC(=O)Nc2cc(S(=O)(=O)N3CCCCC3)ccc2Cl)C1=O

>  <score_type>  (67) 
oracle

>  <origin>  (67) 
adg

>  <m_score__min__energy>  (67) 
-11.58

>  <m_primary>  (67) 
energy

$$$$
67:0
     RDKit          3D

 84 87  0  0  0  0  0  0  0  0999 V2000
   55.5790   29.3500   44.8000 N   0  0  0  0  0  0  0  0  0  0  0  0
   55.6160   30.0380   43.5140 C   0  0  0  0  0  0  0  0  0  0  0  0
   56.9860   30.6840   43.2760 C   0  0  0  0  0  0  0  0  0  0  0  0
   57.4370   31.4880   44.4630 C   0  0  0  0  0  0  0  0  0  0  0  0
   57.1000   31.1180   45.6220 O   0  0  0  0  0  0  0  0  0  0  0  0
   58.2040   32.6900   44.2720 N   0  0  0  0  0  0  0  0  0  0  0  0
   58.8500   33.4010   45.3450 C   0  0  0  0  0  0  0  0  0  0  0  0
   58.1820   34.4140   46.0570 C   0  0  0  0  0  0  0  0  0  0  0  0
   58.8380   35.1070   47.0800 C   0  0  0  0  0  0  0  0  0  0  0  0
   60.1600   34.7960   47.4020 C   0  0  0  0  0  0  0  0  0  0  0  0
   60.8300   33.7760   46.7130 C   0  0  0  0  0  0  0  0  0  0  0  0
   62.5230   33.4130   47.0790 S   0  0  0  0  0  0  0  0  0  0  0  0
   63.3900   33.8530   45.9350 O   0  0  0  0  0  0  0  0  0  0  0  0
   62.9180   34.2010   48.2960 O   0  0  0  0  0  0  0  0  0  0  0  0
   62.8300   31.7250   47.3870 N   0  0  0  0  0  0  0  0  0  0  0  0
   61.8870   31.1320   48.3430 C   0  0  2  0  0  0  0  0  0  0  0  0
   60.4440   31.3960   47.8740 C   0  0  0  0  0  0  0  0  0  0  0  0
   59.8050   30.1260   47.3680 C   0  0  0  0  0  0  0  0  0  0  0  0
   59.8340   29.8210   45.9980 C   0  0  0  0  0  0  0  0  0  0  0  0
   59.1870   28.6820   45.5160 C   0  0  0  0  0  0  0  0  0  0  0  0
   58.5020   27.8310   46.3940 C   0  0  0  0  0  0  0  0  0  0  0  0
   57.7620   26.6360   45.8640 C   0  0  0  0  0  0  0  0  0  0  0  0
   56.3670   26.9840   45.6200 N   0  0  0  0  0  0  0  0  0  0  0  0
   58.4540   28.1470   47.7610 C   0  0  0  0  0  0  0  0  0  0  0  0
   59.1010   29.2870   48.2460 C   0  0  0  0  0  0  0  0  0  0  0  0
   62.1650   31.6160   49.7510 C   0  0  0  0  0  0  0  0  0  0  0  0
   62.7650   30.8200   50.5300 O   0  0  0  0  0  0  0  0  0  0  0  0
   61.9280   32.9750   50.1890 N   0  0  0  0  0  0  0  0  0  0  0  0
   62.9290   33.6150   51.0630 C   0  0  0  0  0  0  0  0  0  0  0  0
   62.4270   33.7020   52.5250 C   0  0  0  0  0  0  0  0  0  0  0  0
   61.1550   32.8600   52.7510 C   0  0  0  0  0  0  0  0  0  0  0  0
   60.6850   32.9300   54.2200 C   0  0  0  0  0  0  0  0  0  0  0  0
   59.2600   32.4600   54.3790 C   0  0  0  0  0  0  0  0  0  0  0  0
   58.5580   32.9360   55.3090 O   0  0  0  0  0  0  0  0  0  0  0  0
   58.6940   31.4860   53.4830 N   0  0  0  0  0  0  0  0  0  0  0  0
   59.3870   30.2210   53.2160 C   0  0  0  0  0  0  0  0  0  0  0  0
   59.0470   29.7360   51.8010 C   0  0  0  0  0  0  0  0  0  0  0  0
   57.6480   29.7090   51.5900 O   0  0  0  0  0  0  0  0  0  0  0  0
   57.1260   31.0240   51.6680 C   0  0  0  0  0  0  0  0  0  0  0  0
   57.2870   31.5830   53.0860 C   0  0  0  0  0  0  0  0  0  0  0  0
   60.0430   33.2950   51.7670 C   0  0  0  0  0  0  0  0  0  0  0  0
   60.5640   33.5000   50.3280 C   0  0  0  0  0  0  0  0  0  0  0  0
   60.1620   33.0650   45.7060 C   0  0  0  0  0  0  0  0  0  0  0  0
   56.5580   29.0870   45.0600 H   0  0  0  0  0  0  0  0  0  0  0  0
   55.2670   30.0420   45.5220 H   0  0  0  0  0  0  0  0  0  0  0  0
   55.4162   29.3123   42.7119 H   0  0  0  0  0  0  0  0  0  0  0  0
   54.8514   30.8288   43.5173 H   0  0  0  0  0  0  0  0  0  0  0  0
   57.7241   29.8921   43.0809 H   0  0  0  0  0  0  0  0  0  0  0  0
   56.8990   31.3636   42.4154 H   0  0  0  0  0  0  0  0  0  0  0  0
   58.1570   33.1500   43.3360 H   0  0  0  0  0  0  0  0  0  0  0  0
   57.1396   34.6622   45.8083 H   0  0  0  0  0  0  0  0  0  0  0  0
   58.3106   35.8990   47.6320 H   0  0  0  0  0  0  0  0  0  0  0  0
   60.6768   35.3524   48.1978 H   0  0  0  0  0  0  0  0  0  0  0  0
   62.0223   30.0408   48.3749 H   0  0  0  0  0  0  0  0  0  0  0  0
   59.8556   31.7843   48.7184 H   0  0  0  0  0  0  0  0  0  0  0  0
   60.4678   32.1297   47.0548 H   0  0  0  0  0  0  0  0  0  0  0  0
   60.3691   30.4828   45.3011 H   0  0  0  0  0  0  0  0  0  0  0  0
   59.2149   28.4510   44.4409 H   0  0  0  0  0  0  0  0  0  0  0  0
   58.2261   26.3078   44.9222 H   0  0  0  0  0  0  0  0  0  0  0  0
   57.8084   25.8237   46.6043 H   0  0  0  0  0  0  0  0  0  0  0  0
   56.1440   27.8190   46.2070 H   0  0  0  0  0  0  0  0  0  0  0  0
   56.2790   27.2930   44.6230 H   0  0  0  0  0  0  0  0  0  0  0  0
   57.9041   27.4937   48.4543 H   0  0  0  0  0  0  0  0  0  0  0  0
   59.0584   29.5274   49.3186 H   0  0  0  0  0  0  0  0  0  0  0  0
   63.8567   33.0245   51.0374 H   0  0  0  0  0  0  0  0  0  0  0  0
   63.1072   34.6366   50.6961 H   0  0  0  0  0  0  0  0  0  0  0  0
   63.2190   33.3355   53.1947 H   0  0  0  0  0  0  0  0  0  0  0  0
   62.1806   34.7528   52.7373 H   0  0  0  0  0  0  0  0  0  0  0  0
   61.3945   31.8060   52.5469 H   0  0  0  0  0  0  0  0  0  0  0  0
   61.3397   32.2935   54.8334 H   0  0  0  0  0  0  0  0  0  0  0  0
   60.7353   33.9801   54.5438 H   0  0  0  0  0  0  0  0  0  0  0  0
   60.4731   30.3740   53.2993 H   0  0  0  0  0  0  0  0  0  0  0  0
   59.0640   29.4662   53.9481 H   0  0  0  0  0  0  0  0  0  0  0  0
   59.5069   30.4160   51.0688 H   0  0  0  0  0  0  0  0  0  0  0  0
   59.4365   28.7143   51.6808 H   0  0  0  0  0  0  0  0  0  0  0  0
   57.6663   31.6704   50.9607 H   0  0  0  0  0  0  0  0  0  0  0  0
   56.0556   30.9971   51.4160 H   0  0  0  0  0  0  0  0  0  0  0  0
   56.9708   32.6364   53.1047 H   0  0  0  0  0  0  0  0  0  0  0  0
   56.6642   31.0053   53.7849 H   0  0  0  0  0  0  0  0  0  0  0  0
   59.2640   32.5185   51.7515 H   0  0  0  0  0  0  0  0  0  0  0  0
   59.6497   34.2606   52.1175 H   0  0  0  0  0  0  0  0  0  0  0  0
   59.9012   32.9731   49.6258 H   0  0  0  0  0  0  0  0  0  0  0  0
   60.5761   34.5775   50.1069 H   0  0  0  0  0  0  0  0  0  0  0  0
   60.6724   32.2357   45.1944 H   0  0  0  0  0  0  0  0  0  0  0  0
  1  2  1  0
  2  3  1  0
  3  4  1  0
  4  5  2  0
  4  6  1  0
  6  7  1  0
  7  8  2  0
  8  9  1  0
  9 10  2  0
 10 11  1  0
 11 12  1  0
 12 13  2  0
 12 14  2  0
 12 15  1  0
 15 16  1  0
 16 17  1  0
 17 18  1  0
 18 19  2  0
 19 20  1  0
 20 21  2  0
 21 22  1  0
 22 23  1  0
 21 24  1  0
 24 25  2  0
 16 26  1  0
 26 27  2  0
 26 28  1  0
 28 29  1  0
 29 30  1  0
 30 31  1  0
 31 32  1  0
 32 33  1  0
 33 34  2  0
 33 35  1  0
 35 36  1  0
 36 37  1  0
 37 38  1  0
 38 39  1  0
 39 40  1  0
 31 41  1  0
 41 42  1  0
 11 43  2  0
 43  7  1  0
 25 18  1  0
 42 28  1  0
 40 35  1  0
  1 44  1  0
  1 45  1  0
  2 46  1  0
  2 47  1  0
  3 48  1  0
  3 49  1  0
  6 50  1  0
  8 51  1  0
  9 52  1  0
 10 53  1  0
 16 54  1  1
 17 55  1  0
 17 56  1  0
 19 57  1  0
 20 58  1  0
 22 59  1  0
 22 60  1  0
 23 61  1  0
 23 62  1  0
 24 63  1  0
 25 64  1  0
 29 65  1  0
 29 66  1  0
 30 67  1  0
 30 68  1  0
 31 69  1  0
 32 70  1  0
 32 71  1  0
 36 72  1  0
 36 73  1  0
 37 74  1  0
 37 75  1  0
 39 76  1  0
 39 77  1  0
 40 78  1  0
 40 79  1  0
 41 80  1  0
 41 81  1  0
 42 82  1  0
 42 83  1  0
 43 84  1  0
M  CHG  1  15  -1
M  END
>  <UniqueID>  (68) 
60

>  <SMILES>  (68) 
NCCC(=O)Nc1cccc(S(=O)(=O)[N-][C@H](Cc2ccc(CN)cc2)C(=O)N2CCC(CC(=O)N3CCOCC3)CC2)c1

>  <Energy>  (68) 
91.16297930765693

>  <Genealogy>  (68) 
NCCC(=O)Nc1cccc(S(=O)(=O)[N-]C(Cc2ccc(CN)cc2)C(=O)N2CCC(CC(=O)N3CCOCC3)CC2)c1 (protonated)
NCCC(=O)Nc1cccc(S(=O)(=O)[N-][C@H](Cc2ccc(CN)cc2)C(=O)N2CCC(CC(=O)N3CCOCC3)CC2)c1 (chirality)
NCCC(=O)Nc1cccc(S(=O)(=O)[N-][C@H](Cc2ccc(CN)cc2)C(=O)N2CCC(CC(=O)N3CCOCC3)CC2)c1 (3D coordinates assigned)
NCCC(=O)Nc1cccc(S(=O)(=O)[N-][C@H](Cc2ccc(CN)cc2)C(=O)N2CCC(CC(=O)N3CCOCC3)CC2)c1 (nonaromatic ring conformer: 91.16297930765693 kcal/mol)

>  <smiles>  (68) 
NCCC(=O)Nc1cccc(S(=O)(=O)NC(Cc2ccc(CN)cc2)C(=O)N2CCC(CC(=O)N3CCOCC3)CC2)c1

>  <score_type>  (68) 
oracle

>  <origin>  (68) 
adg

>  <m_score__min__energy>  (68) 
-12.039999999999999

>  <m_primary>  (68) 
energy

$$$$
68:0
     RDKit          3D

 54 55  0  0  0  0  0  0  0  0999 V2000
   60.7740   31.8290   51.5130 C   0  0  0  0  0  0  0  0  0  0  0  0
   61.8140   31.1560   50.7290 N   0  0  0  0  0  0  0  0  0  0  0  0
   61.4380   30.0080   49.9040 C   0  0  0  0  0  0  0  0  0  0  0  0
   63.2110   31.4520   50.9290 C   0  0  0  0  0  0  0  0  0  0  0  0
   64.0560   30.5200   50.9070 O   0  0  0  0  0  0  0  0  0  0  0  0
   63.6920   32.8230   51.1830 C   0  0  0  0  0  0  0  0  0  0  0  0
   63.6200   33.8280   50.2990 C   0  0  0  0  0  0  0  0  0  0  0  0
   62.7650   33.8140   49.0990 C   0  0  0  0  0  0  0  0  0  0  0  0
   63.3010   33.4040   47.8710 C   0  0  0  0  0  0  0  0  0  0  0  0
   62.5220   33.4470   46.7130 C   0  0  0  0  0  0  0  0  0  0  0  0
   61.1790   33.8540   46.7800 C   0  0  0  0  0  0  0  0  0  0  0  0
   60.3700   33.9660   45.6030 N   0  0  0  0  0  0  0  0  0  0  0  0
   58.6770   33.5920   45.5960 S   0  0  0  0  0  0  0  0  0  0  0  0
   57.9790   34.3580   46.6820 O   0  0  0  0  0  0  0  0  0  0  0  0
   58.0860   33.9710   44.2690 O   0  0  0  0  0  0  0  0  0  0  0  0
   58.5100   31.8560   45.8260 C   0  0  0  0  0  0  0  0  0  0  0  0
   58.7510   31.2750   47.0740 C   0  0  0  0  0  0  0  0  0  0  0  0
   58.7500   29.8850   47.2180 C   0  0  0  0  0  0  0  0  0  0  0  0
   58.5170   29.0570   46.1060 C   0  0  0  0  0  0  0  0  0  0  0  0
   58.5730   27.5820   46.2260 C   0  0  0  0  0  0  0  0  0  0  0  0
   59.5610   27.0430   46.7960 O   0  0  0  0  0  0  0  0  0  0  0  0
   57.5010   26.7620   45.7240 N   0  0  0  0  0  0  0  0  0  0  0  0
   57.5560   25.3000   45.7690 C   0  0  1  0  0  0  0  0  0  0  0  0
   57.4820   24.8560   47.1680 C   0  0  0  0  0  0  0  0  0  0  0  0
   57.4240   24.5050   48.2680 N   0  0  0  0  0  0  0  0  0  0  0  0
   56.4010   24.6860   44.9650 C   0  0  0  0  0  0  0  0  0  0  0  0
   55.0790   25.0020   45.5970 C   0  0  0  0  0  0  0  0  0  0  0  0
   54.7680   26.3430   45.9660 N   0  0  0  0  0  0  0  0  0  0  0  0
   54.2250   24.0920   45.7630 O   0  0  0  0  0  0  0  0  0  0  0  0
   58.2340   29.6490   44.8670 C   0  0  0  0  0  0  0  0  0  0  0  0
   58.2470   31.0390   44.7300 C   0  0  0  0  0  0  0  0  0  0  0  0
   60.6270   34.2040   48.0180 C   0  0  0  0  0  0  0  0  0  0  0  0
   61.4160   34.1920   49.1710 C   0  0  0  0  0  0  0  0  0  0  0  0
   60.9795   31.6960   52.5854 H   0  0  0  0  0  0  0  0  0  0  0  0
   60.7690   32.9020   51.2709 H   0  0  0  0  0  0  0  0  0  0  0  0
   59.7931   31.3939   51.2709 H   0  0  0  0  0  0  0  0  0  0  0  0
   61.1617   29.1644   50.5536 H   0  0  0  0  0  0  0  0  0  0  0  0
   60.5812   30.2777   49.2690 H   0  0  0  0  0  0  0  0  0  0  0  0
   62.2883   29.7186   49.2690 H   0  0  0  0  0  0  0  0  0  0  0  0
   64.1404   33.0352   52.1648 H   0  0  0  0  0  0  0  0  0  0  0  0
   64.2382   34.7195   50.4808 H   0  0  0  0  0  0  0  0  0  0  0  0
   64.3400   33.0467   47.8190 H   0  0  0  0  0  0  0  0  0  0  0  0
   62.9610   33.1614   45.7457 H   0  0  0  0  0  0  0  0  0  0  0  0
   58.9425   31.9153   47.9477 H   0  0  0  0  0  0  0  0  0  0  0  0
   58.9323   29.4367   48.2058 H   0  0  0  0  0  0  0  0  0  0  0  0
   56.6030   27.2180   45.4370 H   0  0  0  0  0  0  0  0  0  0  0  0
   58.5032   24.9654   45.3208 H   0  0  0  0  0  0  0  0  0  0  0  0
   56.4177   25.0930   43.9432 H   0  0  0  0  0  0  0  0  0  0  0  0
   56.5285   23.5936   44.9468 H   0  0  0  0  0  0  0  0  0  0  0  0
   53.8400   26.5880   46.3740 H   0  0  0  0  0  0  0  0  0  0  0  0
   58.0006   29.0157   43.9985 H   0  0  0  0  0  0  0  0  0  0  0  0
   58.0477   31.4920   43.7476 H   0  0  0  0  0  0  0  0  0  0  0  0
   59.5668   34.4899   48.0833 H   0  0  0  0  0  0  0  0  0  0  0  0
   60.9781   34.4798   50.1381 H   0  0  0  0  0  0  0  0  0  0  0  0
  1  2  1  0
  2  3  1  0
  2  4  1  0
  4  5  2  0
  4  6  1  0
  6  7  2  3
  7  8  1  0
  8  9  2  0
  9 10  1  0
 10 11  2  0
 11 12  1  0
 12 13  1  0
 13 14  2  0
 13 15  2  0
 13 16  1  0
 16 17  2  0
 17 18  1  0
 18 19  2  0
 19 20  1  0
 20 21  2  0
 20 22  1  0
 22 23  1  0
 23 24  1  0
 24 25  3  0
 23 26  1  0
 26 27  1  0
 27 28  1  0
 27 29  2  0
 19 30  1  0
 30 31  2  0
 11 32  1  0
 32 33  2  0
 33  8  1  0
 31 16  1  0
  1 34  1  0
  1 35  1  0
  1 36  1  0
  3 37  1  0
  3 38  1  0
  3 39  1  0
  6 40  1  0
  7 41  1  0
  9 42  1  0
 10 43  1  0
 17 44  1  0
 18 45  1  0
 22 46  1  0
 23 47  1  6
 26 48  1  0
 26 49  1  0
 28 50  1  0
 30 51  1  0
 31 52  1  0
 32 53  1  0
 33 54  1  0
M  CHG  2  12  -1  28  -1
M  END
>  <UniqueID>  (69) 
61

>  <SMILES>  (69) 
CN(C)C(=O)C=Cc1ccc([N-]S(=O)(=O)c2ccc(C(=O)N[C@@H](C#N)CC([NH-])=O)cc2)cc1

>  <Energy>  (69) 
59.47590790127166

>  <Genealogy>  (69) 
CN(C)C(=O)C=Cc1ccc([N-]S(=O)(=O)c2ccc(C(=O)NC(C#N)CC([NH-])=O)cc2)cc1 (protonated)
CN(C)C(=O)C=Cc1ccc([N-]S(=O)(=O)c2ccc(C(=O)N[C@@H](C#N)CC([NH-])=O)cc2)cc1 (chirality)
CN(C)C(=O)C=Cc1ccc([N-]S(=O)(=O)c2ccc(C(=O)N[C@@H](C#N)CC([NH-])=O)cc2)cc1 (3D coordinates assigned)
CN(C)C(=O)C=Cc1ccc([N-]S(=O)(=O)c2ccc(C(=O)N[C@@H](C#N)CC([NH-])=O)cc2)cc1 (optimized conformer: 59.47590790127166 kcal/mol)

>  <smiles>  (69) 
CN(C)C(=O)C=Cc1ccc(NS(=O)(=O)c2ccc(C(=O)NC(C#N)CC(N)=O)cc2)cc1

>  <score_type>  (69) 
oracle

>  <origin>  (69) 
adg

>  <m_score__min__energy>  (69) 
-13.550000000000001

>  <m_primary>  (69) 
energy

$$$$
69:0
     RDKit          3D

 76 80  0  0  0  0  0  0  0  0999 V2000
   59.3910   34.9530   46.6380 C   0  0  0  0  0  0  0  0  0  0  0  0
   58.3700   34.4280   45.9530 C   0  0  0  0  0  0  0  0  0  0  0  0
   57.5630   33.2260   46.3930 C   0  0  0  0  0  0  0  0  0  0  0  0
   58.2990   31.9450   46.3230 N   0  0  0  0  0  0  0  0  0  0  0  0
   59.4190   31.6790   47.2140 C   0  0  0  0  0  0  0  0  0  0  0  0
   60.5420   31.3780   46.7240 O   0  0  0  0  0  0  0  0  0  0  0  0
   59.2750   31.6280   48.7220 C   0  0  2  0  0  0  0  0  0  0  0  0
   59.2750   33.0390   49.3510 C   0  0  0  0  0  0  0  0  0  0  0  0
   59.1480   32.9760   50.8490 C   0  0  0  0  0  0  0  0  0  0  0  0
   60.0040   33.5790   51.7650 C   0  0  0  0  0  0  0  0  0  0  0  0
   59.6710   33.2290   53.0270 N   0  0  0  0  0  0  0  0  0  0  0  0
   58.6190   32.4010   52.9180 C   0  0  0  0  0  0  0  0  0  0  0  0
   57.9560   31.7410   53.9520 C   0  0  0  0  0  0  0  0  0  0  0  0
   56.8950   30.8850   53.6120 C   0  0  0  0  0  0  0  0  0  0  0  0
   56.5190   30.7120   52.2610 C   0  0  0  0  0  0  0  0  0  0  0  0
   57.2070   31.3890   51.2380 C   0  0  0  0  0  0  0  0  0  0  0  0
   58.2650   32.2240   51.6040 C   0  0  0  0  0  0  0  0  0  0  0  0
   60.3900   30.8480   49.2520 N   0  0  0  0  0  0  0  0  0  0  0  0
   61.6820   31.3920   49.5340 C   0  0  0  0  0  0  0  0  0  0  0  0
   62.0960   31.4570   50.7230 O   0  0  0  0  0  0  0  0  0  0  0  0
   62.4730   31.8330   48.4640 O   0  0  0  0  0  0  0  0  0  0  0  0
   63.1000   33.1190   48.3420 C   0  0  0  0  0  0  0  0  0  0  0  0
   63.2440   33.4150   46.8410 C   0  0  0  0  0  0  0  0  0  0  0  0
   62.2260   34.2130   48.9840 C   0  0  0  0  0  0  0  0  0  0  0  0
   64.5010   33.0960   48.9810 C   0  0  0  0  0  0  0  0  0  0  0  0
   57.9050   30.9040   45.3390 C   0  0  2  0  0  0  0  0  0  0  0  0
   58.8920   29.7570   45.3780 C   0  0  0  0  0  0  0  0  0  0  0  0
   59.9940   29.6470   44.5320 C   0  0  0  0  0  0  0  0  0  0  0  0
   60.5950   28.4480   44.6780 N   0  0  0  0  0  0  0  0  0  0  0  0
   59.8790   27.7830   45.5980 C   0  0  0  0  0  0  0  0  0  0  0  0
   60.0980   26.4800   46.0490 C   0  0  0  0  0  0  0  0  0  0  0  0
   59.2040   25.9530   46.9970 C   0  0  0  0  0  0  0  0  0  0  0  0
   58.1190   26.7250   47.4600 C   0  0  0  0  0  0  0  0  0  0  0  0
   57.9160   28.0320   46.9820 C   0  0  0  0  0  0  0  0  0  0  0  0
   58.8240   28.5410   46.0490 C   0  0  0  0  0  0  0  0  0  0  0  0
   57.6220   31.4590   43.9530 C   0  0  0  0  0  0  0  0  0  0  0  0
   58.1930   32.5840   43.3820 C   0  0  0  0  0  0  0  0  0  0  0  0
   57.8290   32.6720   42.0870 N   0  0  0  0  0  0  0  0  0  0  0  0
   57.0670   31.5800   41.8780 C   0  0  0  0  0  0  0  0  0  0  0  0
   56.9510   30.8100   42.9780 N   0  0  0  0  0  0  0  0  0  0  0  0
   56.2640   29.5230   43.0450 C   0  0  0  0  0  0  0  0  0  0  0  0
   59.9245   35.8305   46.2438 H   0  0  0  0  0  0  0  0  0  0  0  0
   59.6976   34.5075   47.5959 H   0  0  0  0  0  0  0  0  0  0  0  0
   58.0966   34.9046   45.0000 H   0  0  0  0  0  0  0  0  0  0  0  0
   57.2457   33.3855   47.4341 H   0  0  0  0  0  0  0  0  0  0  0  0
   56.7146   33.1423   45.6979 H   0  0  0  0  0  0  0  0  0  0  0  0
   58.3102   31.1640   48.9746 H   0  0  0  0  0  0  0  0  0  0  0  0
   60.2171   33.5450   49.0933 H   0  0  0  0  0  0  0  0  0  0  0  0
   58.4112   33.5930   48.9548 H   0  0  0  0  0  0  0  0  0  0  0  0
   60.8360   34.2476   51.4990 H   0  0  0  0  0  0  0  0  0  0  0  0
   60.1570   33.5190   53.9040 H   0  0  0  0  0  0  0  0  0  0  0  0
   58.2542   31.8859   55.0008 H   0  0  0  0  0  0  0  0  0  0  0  0
   56.3533   30.3458   54.4031 H   0  0  0  0  0  0  0  0  0  0  0  0
   55.6829   30.0436   52.0077 H   0  0  0  0  0  0  0  0  0  0  0  0
   56.9209   31.2648   50.1832 H   0  0  0  0  0  0  0  0  0  0  0  0
   63.7215   34.3966   46.7050 H   0  0  0  0  0  0  0  0  0  0  0  0
   63.8644   32.6373   46.3718 H   0  0  0  0  0  0  0  0  0  0  0  0
   62.2491   33.4231   46.3718 H   0  0  0  0  0  0  0  0  0  0  0  0
   62.2878   34.1357   50.0795 H   0  0  0  0  0  0  0  0  0  0  0  0
   62.5848   35.2029   48.6655 H   0  0  0  0  0  0  0  0  0  0  0  0
   61.1814   34.0817   48.6655 H   0  0  0  0  0  0  0  0  0  0  0  0
   64.4043   33.0976   50.0767 H   0  0  0  0  0  0  0  0  0  0  0  0
   65.0350   32.1890   48.6613 H   0  0  0  0  0  0  0  0  0  0  0  0
   65.0644   33.9850   48.6613 H   0  0  0  0  0  0  0  0  0  0  0  0
   56.9295   30.4928   45.6379 H   0  0  0  0  0  0  0  0  0  0  0  0
   60.3288   30.4323   43.8384 H   0  0  0  0  0  0  0  0  0  0  0  0
   61.4280   28.0990   44.1530 H   0  0  0  0  0  0  0  0  0  0  0  0
   60.9436   25.8845   45.6742 H   0  0  0  0  0  0  0  0  0  0  0  0
   59.3518   24.9324   47.3798 H   0  0  0  0  0  0  0  0  0  0  0  0
   57.4254   26.3015   48.2013 H   0  0  0  0  0  0  0  0  0  0  0  0
   57.0666   28.6367   47.3325 H   0  0  0  0  0  0  0  0  0  0  0  0
   58.8452   33.2981   43.9061 H   0  0  0  0  0  0  0  0  0  0  0  0
   56.5917   31.3431   40.9147 H   0  0  0  0  0  0  0  0  0  0  0  0
   56.1139   29.2418   44.0978 H   0  0  0  0  0  0  0  0  0  0  0  0
   55.2880   29.6018   42.5438 H   0  0  0  0  0  0  0  0  0  0  0  0
   56.8726   28.7559   42.5438 H   0  0  0  0  0  0  0  0  0  0  0  0
  1  2  2  0
  2  3  1  0
  3  4  1  0
  4  5  1  0
  5  6  2  0
  5  7  1  0
  7  8  1  0
  8  9  1  0
  9 10  2  0
 10 11  1  0
 11 12  1  0
 12 13  2  0
 13 14  1  0
 14 15  2  0
 15 16  1  0
 16 17  2  0
  7 18  1  0
 18 19  1  0
 19 20  2  0
 19 21  1  0
 21 22  1  0
 22 23  1  0
 22 24  1  0
 22 25  1  0
  4 26  1  0
 26 27  1  0
 27 28  2  0
 28 29  1  0
 29 30  1  0
 30 31  2  0
 31 32  1  0
 32 33  2  0
 33 34  1  0
 34 35  2  0
 26 36  1  0
 36 37  2  0
 37 38  1  0
 38 39  2  0
 39 40  1  0
 40 41  1  0
 17  9  1  0
 35 27  1  0
 40 36  1  0
 17 12  1  0
 35 30  1  0
  1 42  1  0
  1 43  1  0
  2 44  1  0
  3 45  1  0
  3 46  1  0
  7 47  1  6
  8 48  1  0
  8 49  1  0
 10 50  1  0
 11 51  1  0
 13 52  1  0
 14 53  1  0
 15 54  1  0
 16 55  1  0
 23 56  1  0
 23 57  1  0
 23 58  1  0
 24 59  1  0
 24 60  1  0
 24 61  1  0
 25 62  1  0
 25 63  1  0
 25 64  1  0
 26 65  1  1
 28 66  1  0
 29 67  1  0
 31 68  1  0
 32 69  1  0
 33 70  1  0
 34 71  1  0
 37 72  1  0
 39 73  1  0
 41 74  1  0
 41 75  1  0
 41 76  1  0
M  CHG  1  18  -1
M  END
>  <UniqueID>  (70) 
62

>  <SMILES>  (70) 
C=CCN(C(=O)[C@H](Cc1c[nH]c2ccccc12)[N-]C(=O)OC(C)(C)C)[C@H](c1c[nH]c2ccccc12)c1cncn1C

>  <Energy>  (70) 
166.6861031475364

>  <Genealogy>  (70) 
C=CCN(C(=O)C(Cc1c[nH]c2ccccc12)[N-]C(=O)OC(C)(C)C)C(c1c[nH]c2ccccc12)c1cncn1C (protonated)
C=CCN(C(=O)[C@H](Cc1c[nH]c2ccccc12)[N-]C(=O)OC(C)(C)C)[C@H](c1c[nH]c2ccccc12)c1cncn1C (chirality)
C=CCN(C(=O)[C@H](Cc1c[nH]c2ccccc12)[N-]C(=O)OC(C)(C)C)[C@H](c1c[nH]c2ccccc12)c1cncn1C (3D coordinates assigned)
C=CCN(C(=O)[C@H](Cc1c[nH]c2ccccc12)[N-]C(=O)OC(C)(C)C)[C@H](c1c[nH]c2ccccc12)c1cncn1C (optimized conformer: 166.6861031475364 kcal/mol)

>  <smiles>  (70) 
C=CCN(C(=O)C(Cc1c[nH]c2ccccc12)NC(=O)OC(C)(C)C)C(c1c[nH]c2ccccc12)c1cncn1C

>  <score_type>  (70) 
oracle

>  <origin>  (70) 
adg

>  <m_score__min__energy>  (70) 
-10.029999999999999

>  <m_primary>  (70) 
energy

$$$$
70:0
     RDKit          3D

 38 40  0  0  0  0  0  0  0  0999 V2000
   63.5950   31.6570   48.0160 N   0  0  0  0  0  0  0  0  0  0  0  0
   61.9600   32.1430   47.7340 S   0  0  0  0  0  0  0  0  0  0  0  0
   61.8920   33.0010   46.5030 O   0  0  0  0  0  0  0  0  0  0  0  0
   61.4880   32.9400   48.9190 O   0  0  0  0  0  0  0  0  0  0  0  0
   60.9380   30.7230   47.5170 C   0  0  0  0  0  0  0  0  0  0  0  0
   59.9130   30.4370   48.4280 C   0  0  0  0  0  0  0  0  0  0  0  0
   59.0940   29.3200   48.2390 C   0  0  0  0  0  0  0  0  0  0  0  0
   59.2900   28.4710   47.1370 C   0  0  0  0  0  0  0  0  0  0  0  0
   58.4250   27.2790   46.9500 C   0  0  0  0  0  0  0  0  0  0  0  0
   58.6380   26.2460   47.6370 O   0  0  0  0  0  0  0  0  0  0  0  0
   57.3030   27.2880   46.0520 N   0  0  0  0  0  0  0  0  0  0  0  0
   56.8830   28.3170   45.3740 C   0  0  0  0  0  0  0  0  0  0  0  0
   57.6520   29.2390   44.6910 C   0  0  0  0  0  0  0  0  0  0  0  0
   56.7100   30.1150   44.1920 C   0  0  0  0  0  0  0  0  0  0  0  0
   57.0040   31.3680   43.4290 C   0  0  0  0  0  0  0  0  0  0  0  0
   57.6490   32.3820   44.3340 C   0  0  0  0  0  0  0  0  0  0  0  0
   58.5270   33.3450   43.8080 C   0  0  0  0  0  0  0  0  0  0  0  0
   59.1790   34.2430   44.6580 C   0  0  0  0  0  0  0  0  0  0  0  0
   58.9650   34.1820   46.0380 C   0  0  0  0  0  0  0  0  0  0  0  0
   58.1020   33.2200   46.5700 C   0  0  0  0  0  0  0  0  0  0  0  0
   57.4490   32.3180   45.7240 C   0  0  0  0  0  0  0  0  0  0  0  0
   55.4720   29.7110   44.5440 N   0  0  0  0  0  0  0  0  0  0  0  0
   55.6140   28.6230   45.2450 O   0  0  0  0  0  0  0  0  0  0  0  0
   60.3050   28.7770   46.2140 C   0  0  0  0  0  0  0  0  0  0  0  0
   61.1260   29.8910   46.4060 C   0  0  0  0  0  0  0  0  0  0  0  0
   64.1520   31.9410   47.1790 H   0  0  0  0  0  0  0  0  0  0  0  0
   59.7520   31.0939   49.2955 H   0  0  0  0  0  0  0  0  0  0  0  0
   58.2903   29.1043   48.9583 H   0  0  0  0  0  0  0  0  0  0  0  0
   58.7454   29.2678   44.5738 H   0  0  0  0  0  0  0  0  0  0  0  0
   57.6854   31.1365   42.5971 H   0  0  0  0  0  0  0  0  0  0  0  0
   56.0631   31.7810   43.0365 H   0  0  0  0  0  0  0  0  0  0  0  0
   58.7019   33.3923   42.7230 H   0  0  0  0  0  0  0  0  0  0  0  0
   59.8611   34.9983   44.2405 H   0  0  0  0  0  0  0  0  0  0  0  0
   59.4760   34.8914   46.7055 H   0  0  0  0  0  0  0  0  0  0  0  0
   57.9361   33.1722   47.6564 H   0  0  0  0  0  0  0  0  0  0  0  0
   56.7773   31.5566   46.1472 H   0  0  0  0  0  0  0  0  0  0  0  0
   60.4540   28.1344   45.3337 H   0  0  0  0  0  0  0  0  0  0  0  0
   61.9231   30.1155   45.6819 H   0  0  0  0  0  0  0  0  0  0  0  0
  1  2  1  0
  2  3  2  0
  2  4  2  0
  2  5  1  0
  5  6  2  0
  6  7  1  0
  7  8  2  0
  8  9  1  0
  9 10  2  0
  9 11  1  0
 11 12  2  3
 12 13  1  0
 13 14  2  0
 14 15  1  0
 15 16  1  0
 16 17  2  0
 17 18  1  0
 18 19  2  0
 19 20  1  0
 20 21  2  0
 14 22  1  0
 22 23  1  0
  8 24  1  0
 24 25  2  0
 25  5  1  0
 23 12  1  0
 21 16  1  0
  1 26  1  0
  6 27  1  0
  7 28  1  0
 13 29  1  0
 15 30  1  0
 15 31  1  0
 17 32  1  0
 18 33  1  0
 19 34  1  0
 20 35  1  0
 21 36  1  0
 24 37  1  0
 25 38  1  0
M  CHG  2   1  -1  22  -1
M  END
>  <UniqueID>  (71) 
63

>  <SMILES>  (71) 
[NH-]S(=O)(=O)c1ccc(C(=O)N=c2cc(Cc3ccccc3)[n-]o2)cc1

>  <Energy>  (71) 
76.28268335736632

>  <Genealogy>  (71) 
[NH-]S(=O)(=O)c1ccc(C(=O)N=c2cc(Cc3ccccc3)[n-]o2)cc1 (protonated)
[NH-]S(=O)(=O)c1ccc(C(=O)N=c2cc(Cc3ccccc3)[n-]o2)cc1 (3D coordinates assigned)
[NH-]S(=O)(=O)c1ccc(C(=O)N=c2cc(Cc3ccccc3)[n-]o2)cc1 (optimized conformer: 76.28268335736632 kcal/mol)

>  <smiles>  (71) 
NS(=O)(=O)c1ccc(C(=O)N=c2cc(Cc3ccccc3)[nH]o2)cc1

>  <score_type>  (71) 
oracle

>  <origin>  (71) 
adg

>  <m_score__min__energy>  (71) 
-12.779999999999999

>  <m_primary>  (71) 
energy

$$$$
71:0
     RDKit          3D

 58 61  0  0  0  0  0  0  0  0999 V2000
   55.2120   26.6070   46.2080 N   0  0  0  0  0  0  0  0  0  0  0  0
   56.6000   26.7530   45.8810 C   0  0  0  0  0  0  0  0  0  0  0  0
   57.4810   25.6910   46.1310 C   0  0  0  0  0  0  0  0  0  0  0  0
   58.8390   25.8110   45.8180 C   0  0  0  0  0  0  0  0  0  0  0  0
   59.3240   26.9870   45.2470 C   0  0  0  0  0  0  0  0  0  0  0  0
   58.4560   28.0510   44.9910 C   0  0  0  0  0  0  0  0  0  0  0  0
   57.0920   27.9530   45.3230 C   0  0  0  0  0  0  0  0  0  0  0  0
   56.1890   29.0390   45.0610 N   0  0  0  0  0  0  0  0  0  0  0  0
   56.5290   30.3030   44.4740 C   0  0  0  0  0  0  0  0  0  0  0  0
   56.0380   30.5970   43.3510 O   0  0  0  0  0  0  0  0  0  0  0  0
   57.3940   31.2870   45.1690 C   0  0  0  0  0  0  0  0  0  0  0  0
   57.4920   32.6030   44.6860 C   0  0  0  0  0  0  0  0  0  0  0  0
   58.3050   33.5380   45.3340 C   0  0  0  0  0  0  0  0  0  0  0  0
   59.0380   33.1700   46.4720 C   0  0  0  0  0  0  0  0  0  0  0  0
   59.9020   34.1740   47.1850 C   0  0  0  0  0  0  0  0  0  0  0  0
   59.3630   34.4290   48.5230 N   0  0  0  0  0  0  0  0  0  0  0  0
   60.0900   33.3440   49.6700 S   0  0  0  0  0  0  0  0  0  0  0  0
   60.8930   34.1380   50.6610 O   0  0  0  0  0  0  0  0  0  0  0  0
   61.0090   32.3970   48.9470 O   0  0  0  0  0  0  0  0  0  0  0  0
   58.8450   32.4460   50.5360 C   0  0  0  0  0  0  0  0  0  0  0  0
   58.1370   33.0290   51.5930 C   0  0  0  0  0  0  0  0  0  0  0  0
   57.1560   32.2970   52.2640 C   0  0  0  0  0  0  0  0  0  0  0  0
   56.8910   30.9710   51.8760 C   0  0  0  0  0  0  0  0  0  0  0  0
   55.8720   30.1840   52.5290 N   0  0  0  0  0  0  0  0  0  0  0  0
   54.4650   30.5170   52.2760 C   0  0  0  0  0  0  0  0  0  0  0  0
   53.5330   29.6510   53.1250 C   0  0  0  0  0  0  0  0  0  0  0  0
   53.9210   28.2420   53.0150 N   0  0  0  0  0  0  0  0  0  0  0  0
   55.2730   27.9760   53.5460 C   0  0  0  0  0  0  0  0  0  0  0  0
   56.2150   29.2010   53.5690 C   0  0  0  0  0  0  0  0  0  0  0  0
   57.5920   30.4330   50.8380 N   0  0  0  0  0  0  0  0  0  0  0  0
   58.5510   31.1290   50.1710 C   0  0  0  0  0  0  0  0  0  0  0  0
   58.9290   31.8630   46.9680 C   0  0  0  0  0  0  0  0  0  0  0  0
   58.1060   30.9310   46.3280 C   0  0  0  0  0  0  0  0  0  0  0  0
   54.6160   27.4470   46.3710 H   0  0  0  0  0  0  0  0  0  0  0  0
   54.7680   25.6660   46.2940 H   0  0  0  0  0  0  0  0  0  0  0  0
   57.1022   24.7588   46.5755 H   0  0  0  0  0  0  0  0  0  0  0  0
   59.5255   24.9762   46.0227 H   0  0  0  0  0  0  0  0  0  0  0  0
   60.3916   27.0769   44.9978 H   0  0  0  0  0  0  0  0  0  0  0  0
   58.8410   28.9711   44.5271 H   0  0  0  0  0  0  0  0  0  0  0  0
   56.9249   32.8998   43.7914 H   0  0  0  0  0  0  0  0  0  0  0  0
   58.3701   34.5666   44.9497 H   0  0  0  0  0  0  0  0  0  0  0  0
   60.9250   33.7792   47.2723 H   0  0  0  0  0  0  0  0  0  0  0  0
   59.9156   35.1135   46.6131 H   0  0  0  0  0  0  0  0  0  0  0  0
   59.6430   35.3970   48.8070 H   0  0  0  0  0  0  0  0  0  0  0  0
   58.3536   34.0643   51.8951 H   0  0  0  0  0  0  0  0  0  0  0  0
   56.5934   32.7543   53.0913 H   0  0  0  0  0  0  0  0  0  0  0  0
   54.2963   31.5755   52.5232 H   0  0  0  0  0  0  0  0  0  0  0  0
   54.2467   30.3284   51.2145 H   0  0  0  0  0  0  0  0  0  0  0  0
   53.5999   29.9664   54.1767 H   0  0  0  0  0  0  0  0  0  0  0  0
   52.5005   29.7708   52.7650 H   0  0  0  0  0  0  0  0  0  0  0  0
   53.8950   27.9690   52.0030 H   0  0  0  0  0  0  0  0  0  0  0  0
   55.1687   27.6056   54.5765 H   0  0  0  0  0  0  0  0  0  0  0  0
   55.7337   27.2449   52.8654 H   0  0  0  0  0  0  0  0  0  0  0  0
   56.1415   29.6862   54.5535 H   0  0  0  0  0  0  0  0  0  0  0  0
   57.2374   28.8452   53.3741 H   0  0  0  0  0  0  0  0  0  0  0  0
   59.0968   30.6545   49.3422 H   0  0  0  0  0  0  0  0  0  0  0  0
   59.4938   31.5693   47.8651 H   0  0  0  0  0  0  0  0  0  0  0  0
   58.0150   29.9127   46.7340 H   0  0  0  0  0  0  0  0  0  0  0  0
  1  2  1  0
  2  3  2  0
  3  4  1  0
  4  5  2  0
  5  6  1  0
  6  7  2  0
  7  8  1  0
  8  9  1  0
  9 10  2  0
  9 11  1  0
 11 12  2  0
 12 13  1  0
 13 14  2  0
 14 15  1  0
 15 16  1  0
 16 17  1  0
 17 18  2  0
 17 19  2  0
 17 20  1  0
 20 21  2  0
 21 22  1  0
 22 23  2  0
 23 24  1  0
 24 25  1  0
 25 26  1  0
 26 27  1  0
 27 28  1  0
 28 29  1  0
 23 30  1  0
 30 31  2  0
 14 32  1  0
 32 33  2  0
  7  2  1  0
 33 11  1  0
 31 20  1  0
 29 24  1  0
  1 34  1  0
  1 35  1  0
  3 36  1  0
  4 37  1  0
  5 38  1  0
  6 39  1  0
 12 40  1  0
 13 41  1  0
 15 42  1  0
 15 43  1  0
 16 44  1  0
 21 45  1  0
 22 46  1  0
 25 47  1  0
 25 48  1  0
 26 49  1  0
 26 50  1  0
 27 51  1  0
 28 52  1  0
 28 53  1  0
 29 54  1  0
 29 55  1  0
 31 56  1  0
 32 57  1  0
 33 58  1  0
M  CHG  1   8  -1
M  END
>  <UniqueID>  (72) 
64

>  <SMILES>  (72) 
Nc1ccccc1[N-]C(=O)c1ccc(CNS(=O)(=O)c2ccc(N3CCNCC3)nc2)cc1

>  <Energy>  (72) 
72.83969879176202

>  <Genealogy>  (72) 
Nc1ccccc1[N-]C(=O)c1ccc(CNS(=O)(=O)c2ccc(N3CCNCC3)nc2)cc1 (protonated)
Nc1ccccc1[N-]C(=O)c1ccc(CNS(=O)(=O)c2ccc(N3CCNCC3)nc2)cc1 (3D coordinates assigned)
Nc1ccccc1[N-]C(=O)c1ccc(CNS(=O)(=O)c2ccc(N3CCNCC3)nc2)cc1 (nonaromatic ring conformer: 72.83969879176202 kcal/mol)

>  <smiles>  (72) 
Nc1ccccc1NC(=O)c1ccc(CNS(=O)(=O)c2ccc(N3CCNCC3)nc2)cc1

>  <score_type>  (72) 
oracle

>  <origin>  (72) 
adg

>  <m_score__min__energy>  (72) 
-11.74

>  <m_primary>  (72) 
energy

$$$$
72:0
     RDKit          3D

 34 36  0  0  0  0  0  0  0  0999 V2000
   64.6080   31.3930   51.3530 C   0  0  0  0  0  0  0  0  0  0  0  0
   64.8280   32.4860   49.9650 S   0  0  0  0  0  0  0  0  0  0  0  0
   66.2900   32.7430   49.7270 O   0  0  0  0  0  0  0  0  0  0  0  0
   64.1520   33.7930   50.2700 O   0  0  0  0  0  0  0  0  0  0  0  0
   64.1060   31.8020   48.5450 N   0  0  0  0  0  0  0  0  0  0  0  0
   63.0050   32.3550   47.8120 C   0  0  0  0  0  0  0  0  0  0  0  0
   62.9700   33.7030   47.4140 C   0  0  0  0  0  0  0  0  0  0  0  0
   61.8780   34.1950   46.6960 C   0  0  0  0  0  0  0  0  0  0  0  0
   60.8100   33.3540   46.3740 C   0  0  0  0  0  0  0  0  0  0  0  0
   60.8190   32.0050   46.7760 C   0  0  0  0  0  0  0  0  0  0  0  0
   59.7040   31.0840   46.4410 C   0  0  0  0  0  0  0  0  0  0  0  0
   58.5710   31.5190   45.7320 C   0  0  0  0  0  0  0  0  0  0  0  0
   57.5510   30.6110   45.4440 C   0  0  0  0  0  0  0  0  0  0  0  0
   56.5380   31.0090   44.8090 O   0  0  0  0  0  0  0  0  0  0  0  0
   57.6700   29.2730   45.8710 C   0  0  0  0  0  0  0  0  0  0  0  0
   56.6860   28.2900   45.6200 C   0  0  0  0  0  0  0  0  0  0  0  0
   55.5220   28.5900   44.9200 O   0  0  0  0  0  0  0  0  0  0  0  0
   56.8740   26.9810   46.0820 C   0  0  0  0  0  0  0  0  0  0  0  0
   58.0270   26.6380   46.7900 C   0  0  0  0  0  0  0  0  0  0  0  0
   58.2030   25.3370   47.2440 O   0  0  0  0  0  0  0  0  0  0  0  0
   59.0050   27.6030   47.0420 C   0  0  0  0  0  0  0  0  0  0  0  0
   58.8370   28.9140   46.5880 C   0  0  0  0  0  0  0  0  0  0  0  0
   59.7810   29.8160   46.8380 O   0  0  0  0  0  0  0  0  0  0  0  0
   61.9310   31.5170   47.4870 C   0  0  0  0  0  0  0  0  0  0  0  0
   64.7222   31.9605   52.2883 H   0  0  0  0  0  0  0  0  0  0  0  0
   63.6024   30.9488   51.3141 H   0  0  0  0  0  0  0  0  0  0  0  0
   65.3634   30.5943   51.3141 H   0  0  0  0  0  0  0  0  0  0  0  0
   63.8052   34.3720   47.6689 H   0  0  0  0  0  0  0  0  0  0  0  0
   61.8587   35.2492   46.3826 H   0  0  0  0  0  0  0  0  0  0  0  0
   59.9567   33.7484   45.8028 H   0  0  0  0  0  0  0  0  0  0  0  0
   58.4889   32.5666   45.4068 H   0  0  0  0  0  0  0  0  0  0  0  0
   56.1070   26.2174   45.8853 H   0  0  0  0  0  0  0  0  0  0  0  0
   59.9122   27.3296   47.6008 H   0  0  0  0  0  0  0  0  0  0  0  0
   61.9571   30.4606   47.7924 H   0  0  0  0  0  0  0  0  0  0  0  0
  1  2  1  0
  2  3  2  0
  2  4  2  0
  2  5  1  0
  5  6  1  0
  6  7  2  0
  7  8  1  0
  8  9  2  0
  9 10  1  0
 10 11  1  0
 11 12  2  0
 12 13  1  0
 13 14  2  0
 13 15  1  0
 15 16  2  0
 16 17  1  0
 16 18  1  0
 18 19  2  0
 19 20  1  0
 19 21  1  0
 21 22  2  0
 22 23  1  0
 10 24  2  0
 24  6  1  0
 23 11  1  0
 22 15  1  0
  1 25  1  0
  1 26  1  0
  1 27  1  0
  7 28  1  0
  8 29  1  0
  9 30  1  0
 12 31  1  0
 18 32  1  0
 21 33  1  0
 24 34  1  0
M  CHG  3   5  -1  17  -1  20  -1
M  END
>  <UniqueID>  (73) 
65

>  <SMILES>  (73) 
CS(=O)(=O)[N-]c1cccc(-c2cc(=O)c3c([O-])cc([O-])cc3o2)c1

>  <Energy>  (73) 
46.31761939210523

>  <Genealogy>  (73) 
CS(=O)(=O)[N-]c1cccc(-c2cc(=O)c3c([O-])cc([O-])cc3o2)c1 (protonated)
CS(=O)(=O)[N-]c1cccc(-c2cc(=O)c3c([O-])cc([O-])cc3o2)c1 (3D coordinates assigned)
CS(=O)(=O)[N-]c1cccc(-c2cc(=O)c3c([O-])cc([O-])cc3o2)c1 (optimized conformer: 46.31761939210523 kcal/mol)

>  <smiles>  (73) 
CS(=O)(=O)Nc1cccc(-c2cc(=O)c3c(O)cc(O)cc3o2)c1

>  <score_type>  (73) 
oracle

>  <origin>  (73) 
adg

>  <m_score__min__energy>  (73) 
-12.390000000000001

>  <m_primary>  (73) 
energy

$$$$
73:0
     RDKit          3D

 41 43  0  0  0  0  0  0  0  0999 V2000
   59.1350   25.1140   45.7810 O   0  0  0  0  0  0  0  0  0  0  0  0
   58.5550   26.1530   45.3670 C   0  0  0  0  0  0  0  0  0  0  0  0
   59.3380   27.4250   45.2250 C   0  0  0  0  0  0  0  0  0  0  0  0
   59.0530   28.5640   46.6330 S   0  0  0  0  0  0  0  0  0  0  0  0
   57.8390   29.5690   45.7830 C   0  0  0  0  0  0  0  0  0  0  0  0
   58.0860   30.8850   45.5600 N   0  0  0  0  0  0  0  0  0  0  0  0
   57.2210   31.6500   44.8440 C   0  0  0  0  0  0  0  0  0  0  0  0
   57.5920   33.0630   44.5040 C   0  0  0  0  0  0  0  0  0  0  0  0
   58.4390   33.6400   45.6060 C   0  0  0  0  0  0  0  0  0  0  0  0
   59.5930   34.3820   45.3030 C   0  0  0  0  0  0  0  0  0  0  0  0
   60.3970   34.8820   46.3300 C   0  0  0  0  0  0  0  0  0  0  0  0
   60.0640   34.6380   47.6660 C   0  0  0  0  0  0  0  0  0  0  0  0
   58.9310   33.8830   47.9750 C   0  0  0  0  0  0  0  0  0  0  0  0
   58.1200   33.3850   46.9490 C   0  0  0  0  0  0  0  0  0  0  0  0
   56.0510   31.0720   44.3320 C   0  0  0  0  0  0  0  0  0  0  0  0
   55.8180   29.7170   44.5730 C   0  0  0  0  0  0  0  0  0  0  0  0
   54.7840   29.1630   44.1220 O   0  0  0  0  0  0  0  0  0  0  0  0
   56.7140   28.9920   45.2890 N   0  0  0  0  0  0  0  0  0  0  0  0
   57.1430   26.1540   45.1170 N   0  0  0  0  0  0  0  0  0  0  0  0
   56.3000   24.9980   45.2450 C   0  0  0  0  0  0  0  0  0  0  0  0
   56.8480   23.7310   45.0020 C   0  0  0  0  0  0  0  0  0  0  0  0
   56.0540   22.5840   45.0940 C   0  0  0  0  0  0  0  0  0  0  0  0
   54.7070   22.6950   45.4460 C   0  0  0  0  0  0  0  0  0  0  0  0
   54.1550   23.9490   45.7200 C   0  0  0  0  0  0  0  0  0  0  0  0
   54.9490   25.0990   45.6360 C   0  0  0  0  0  0  0  0  0  0  0  0
   54.3900   26.3290   45.9640 O   0  0  0  0  0  0  0  0  0  0  0  0
   60.4092   27.1797   45.1772 H   0  0  0  0  0  0  0  0  0  0  0  0
   59.0053   27.9293   44.3058 H   0  0  0  0  0  0  0  0  0  0  0  0
   58.1586   33.0763   43.5612 H   0  0  0  0  0  0  0  0  0  0  0  0
   56.6779   33.6645   44.3919 H   0  0  0  0  0  0  0  0  0  0  0  0
   59.8642   34.5698   44.2536 H   0  0  0  0  0  0  0  0  0  0  0  0
   61.2947   35.4694   46.0871 H   0  0  0  0  0  0  0  0  0  0  0  0
   60.6941   35.0405   48.4728 H   0  0  0  0  0  0  0  0  0  0  0  0
   58.6757   33.6795   49.0254 H   0  0  0  0  0  0  0  0  0  0  0  0
   57.2280   32.7907   47.1962 H   0  0  0  0  0  0  0  0  0  0  0  0
   55.3332   31.6723   43.7537 H   0  0  0  0  0  0  0  0  0  0  0  0
   56.6770   27.0720   44.9540 H   0  0  0  0  0  0  0  0  0  0  0  0
   57.9115   23.6384   44.7367 H   0  0  0  0  0  0  0  0  0  0  0  0
   56.4898   21.5950   44.8893 H   0  0  0  0  0  0  0  0  0  0  0  0
   54.0796   21.7936   45.5076 H   0  0  0  0  0  0  0  0  0  0  0  0
   53.0951   24.0328   46.0021 H   0  0  0  0  0  0  0  0  0  0  0  0
  1  2  2  0
  2  3  1  0
  3  4  1  0
  4  5  1  0
  5  6  2  0
  6  7  1  0
  7  8  1  0
  8  9  1  0
  9 10  2  0
 10 11  1  0
 11 12  2  0
 12 13  1  0
 13 14  2  0
  7 15  2  0
 15 16  1  0
 16 17  2  0
 16 18  1  0
  2 19  1  0
 19 20  1  0
 20 21  2  0
 21 22  1  0
 22 23  2  0
 23 24  1  0
 24 25  2  0
 25 26  1  0
 18  5  1  0
 25 20  1  0
 14  9  1  0
  3 27  1  0
  3 28  1  0
  8 29  1  0
  8 30  1  0
 10 31  1  0
 11 32  1  0
 12 33  1  0
 13 34  1  0
 14 35  1  0
 15 36  1  0
 19 37  1  0
 21 38  1  0
 22 39  1  0
 23 40  1  0
 24 41  1  0
M  CHG  2  18  -1  26  -1
M  END
>  <UniqueID>  (74) 
66

>  <SMILES>  (74) 
O=C(CSc1nc(Cc2ccccc2)cc(=O)[n-]1)Nc1ccccc1[O-]

>  <Energy>  (74) 
40.20218037874711

>  <Genealogy>  (74) 
O=C(CSc1nc(Cc2ccccc2)cc(=O)[n-]1)Nc1ccccc1[O-] (protonated)
O=C(CSc1nc(Cc2ccccc2)cc(=O)[n-]1)Nc1ccccc1[O-] (3D coordinates assigned)
O=C(CSc1nc(Cc2ccccc2)cc(=O)[n-]1)Nc1ccccc1[O-] (optimized conformer: 40.20218037874711 kcal/mol)

>  <smiles>  (74) 
O=C(CSc1nc(Cc2ccccc2)cc(=O)[nH]1)Nc1ccccc1O

>  <score_type>  (74) 
oracle

>  <origin>  (74) 
adg

>  <m_score__min__energy>  (74) 
-13.859999999999999

>  <m_primary>  (74) 
energy

$$$$
74:0
     RDKit          3D

 64 69  0  0  1  0  0  0  0  0999 V2000
   60.3250   30.7700   46.9650 O   0  0  0  0  0  0  0  0  0  0  0  0
   60.5930   30.0060   47.9300 C   0  0  0  0  0  0  0  0  0  0  0  0
   59.9360   28.7560   48.0800 N   0  0  0  0  0  0  0  0  0  0  0  0
   58.9410   28.3010   47.1470 C   0  0  0  0  0  0  0  0  0  0  0  0
   58.7080   26.9490   47.0500 C   0  0  0  0  0  0  0  0  0  0  0  0
   57.7640   26.4160   46.1750 C   0  0  0  0  0  0  0  0  0  0  0  0
   57.0370   27.3070   45.3740 C   0  0  0  0  0  0  0  0  0  0  0  0
   57.2670   28.6620   45.4680 C   0  0  0  0  0  0  0  0  0  0  0  0
   56.5770   29.6320   44.6900 N   0  0  0  0  0  0  0  0  0  0  0  0
   57.1460   30.7300   44.3230 C   0  0  0  0  0  0  0  0  0  0  0  0
   57.4200   31.7650   45.2180 C   0  0  0  0  0  0  0  0  0  0  0  0
   58.0430   32.9390   44.7700 C   0  0  0  0  0  0  0  0  0  0  0  0
   58.2750   33.9030   45.7090 O   0  0  0  0  0  0  0  0  0  0  0  0
   58.8570   33.7750   46.9350 C   0  0  0  0  0  0  0  0  0  0  0  0
   58.1330   33.0980   47.9260 C   0  0  0  0  0  0  0  0  0  0  0  0
   58.6330   32.9150   49.1990 C   0  0  0  0  0  0  0  0  0  0  0  0
   59.8670   33.4020   49.5060 C   0  0  0  0  0  0  0  0  0  0  0  0
   60.3820   33.2310   50.7680 C   0  0  0  0  0  0  0  0  0  0  0  0
   59.6880   32.5360   51.8420 C   0  0  0  0  0  0  0  0  0  0  0  0
   59.2190   33.2240   52.7720 O   0  0  0  0  0  0  0  0  0  0  0  0
   59.5120   31.1340   51.8970 N   0  0  0  0  0  0  0  0  0  0  0  0
   58.7860   30.5910   53.0410 C   0  0  0  0  0  0  0  0  0  0  0  0
   57.3410   30.6140   52.6130 C   0  0  0  0  0  0  0  0  0  0  0  0
   56.6890   31.8290   52.3850 C   0  0  0  0  0  0  0  0  0  0  0  0
   55.4280   31.4920   52.0230 N   0  0  0  0  0  0  0  0  0  0  0  0
   55.3200   30.1440   52.0310 C   0  0  0  0  0  0  0  0  0  0  0  0
   56.5140   29.5980   52.4000 N   0  0  0  0  0  0  0  0  0  0  0  0
   61.6460   33.7350   51.0820 C   0  0  0  0  0  0  0  0  0  0  0  0
   62.4030   34.4130   50.1340 C   0  0  0  0  0  0  0  0  0  0  0  0
   61.8540   34.5610   48.8890 C   0  0  0  0  0  0  0  0  0  0  0  0
   60.6100   34.0650   48.5830 C   0  0  0  0  0  0  0  0  0  0  0  0
   60.0910   34.2410   47.3060 C   0  0  0  0  0  0  0  0  0  0  0  0
   58.3410   32.9890   43.4720 N   0  0  0  0  0  0  0  0  0  0  0  0
   58.0860   32.0050   42.5930 C   0  0  0  0  0  0  0  0  0  0  0  0
   57.4860   30.8750   43.0310 N   0  0  0  0  0  0  0  0  0  0  0  0
   58.2210   29.1550   46.3560 C   0  0  0  0  0  0  0  0  0  0  0  0
   61.5970   30.4220   48.9070 C   0  0  0  0  0  0  0  0  0  0  0  0
   62.6530   31.2850   48.6910 C   0  0  0  0  0  0  0  0  0  0  0  0
   63.3220   31.3710   49.8900 C   0  0  0  0  0  0  0  0  0  0  0  0
   62.6650   30.5700   50.7950 C   0  0  0  0  0  0  0  0  0  0  0  0
   61.6590   30.0370   50.1640 O   0  0  0  0  0  0  0  0  0  0  0  0
   60.1510   28.1060   48.8860 H   0  0  0  0  0  0  0  0  0  0  0  0
   59.2878   26.2640   47.6861 H   0  0  0  0  0  0  0  0  0  0  0  0
   57.5947   25.3308   46.1148 H   0  0  0  0  0  0  0  0  0  0  0  0
   56.2829   26.9245   44.6704 H   0  0  0  0  0  0  0  0  0  0  0  0
   57.1465   31.6598   46.2782 H   0  0  0  0  0  0  0  0  0  0  0  0
   57.1367   32.7008   47.6817 H   0  0  0  0  0  0  0  0  0  0  0  0
   58.0412   32.3816   49.9575 H   0  0  0  0  0  0  0  0  0  0  0  0
   59.8960   30.5470   51.1380 H   0  0  0  0  0  0  0  0  0  0  0  0
   59.1119   29.5627   53.2564 H   0  0  0  0  0  0  0  0  0  0  0  0
   58.9602   31.1686   53.9608 H   0  0  0  0  0  0  0  0  0  0  0  0
   57.1094   32.8411   52.4792 H   0  0  0  0  0  0  0  0  0  0  0  0
   54.6920   32.2100   51.7850 H   0  0  0  0  0  0  0  0  0  0  0  0
   54.4116   29.5769   51.7794 H   0  0  0  0  0  0  0  0  0  0  0  0
   62.0488   33.5931   52.0957 H   0  0  0  0  0  0  0  0  0  0  0  0
   63.3993   34.8130   50.3736 H   0  0  0  0  0  0  0  0  0  0  0  0
   62.4244   35.0915   48.1123 H   0  0  0  0  0  0  0  0  0  0  0  0
   60.6969   34.7775   46.5609 H   0  0  0  0  0  0  0  0  0  0  0  0
   58.3610   32.1170   41.5338 H   0  0  0  0  0  0  0  0  0  0  0  0
   57.3120   30.1430   42.3030 H   0  0  0  0  0  0  0  0  0  0  0  0
   58.3968   30.2389   46.4218 H   0  0  0  0  0  0  0  0  0  0  0  0
   62.9073   31.7987   47.7522 H   0  0  0  0  0  0  0  0  0  0  0  0
   64.2212   31.9725   50.0893 H   0  0  0  0  0  0  0  0  0  0  0  0
   62.9373   30.4106   51.8488 H   0  0  0  0  0  0  0  0  0  0  0  0
  1  2  2  0
  2  3  1  0
  3  4  1  0
  4  5  2  0
  5  6  1  0
  6  7  2  0
  7  8  1  0
  8  9  1  0
  9 10  2  0
 10 11  1  0
 11 12  2  0
 12 13  1  0
 13 14  1  0
 14 15  2  0
 15 16  1  0
 16 17  2  0
 17 18  1  0
 18 19  1  0
 19 20  2  0
 19 21  1  0
 21 22  1  0
 22 23  1  0
 23 24  2  0
 24 25  1  0
 25 26  1  0
 26 27  2  0
 18 28  2  0
 28 29  1  0
 29 30  2  0
 30 31  1  0
 31 32  2  0
 12 33  1  0
 33 34  2  0
 34 35  1  0
  8 36  2  0
  2 37  1  0
 37 38  2  0
 38 39  1  0
 39 40  2  0
 40 41  1  0
 36  4  1  0
 41 37  1  0
 35 10  1  0
 32 14  1  0
 31 17  1  0
 27 23  1  0
  3 42  1  0
  5 43  1  0
  6 44  1  0
  7 45  1  0
 11 46  1  0
 15 47  1  0
 16 48  1  0
 21 49  1  0
 22 50  1  0
 22 51  1  0
 24 52  1  0
 25 53  1  0
 26 54  1  0
 28 55  1  0
 29 56  1  0
 30 57  1  0
 32 58  1  0
 34 59  1  0
 35 60  1  0
 36 61  1  0
 38 62  1  0
 39 63  1  0
 40 64  1  0
M  END
>  <smiles>  (75) 
O=C(Nc1cccc(N=c2cc(Oc3ccc4c(C(=O)NCc5c[nH]cn5)cccc4c3)nc[nH]2)c1)c1ccco1

>  <score_type>  (75) 
oracle

>  <origin>  (75) 
adg

>  <m_score__min__energy>  (75) 
-11.06

>  <m_primary>  (75) 
energy

$$$$
75:0
     RDKit          3D

 37 39  0  0  0  0  0  0  0  0999 V2000
   55.1460   27.4590   45.3110 H   0  0  0  0  0  0  0  0  0  0  0  0
   54.9970   26.7160   45.9830 O   0  0  0  0  0  0  0  0  0  0  0  0
   55.9980   25.7940   46.2810 C   0  0  0  0  0  0  0  0  0  0  0  0
   55.8510   24.8130   47.1870 N   0  0  0  0  0  0  0  0  0  0  0  0
   57.0260   24.1530   47.1060 C   0  0  0  0  0  0  0  0  0  0  0  0
   57.2850   23.1410   47.8070 O   0  0  0  0  0  0  0  0  0  0  0  0
   57.8980   24.6550   46.2050 N   0  0  0  0  0  0  0  0  0  0  0  0
   57.2480   25.7180   45.7020 C   0  0  0  0  0  0  0  0  0  0  0  0
   57.7650   26.5360   44.5960 C   0  0  0  0  0  0  0  0  0  0  0  0
   58.2207   26.0021   43.7491 H   0  0  0  0  0  0  0  0  0  0  0  0
   57.7310   27.8810   44.5260 C   0  0  0  0  0  0  0  0  0  0  0  0
   57.3370   28.5570   43.3810 C   0  0  0  0  0  0  0  0  0  0  0  0
   57.0606   28.1062   42.4164 H   0  0  0  0  0  0  0  0  0  0  0  0
   57.3580   29.9030   43.6830 C   0  0  0  0  0  0  0  0  0  0  0  0
   56.9750   31.0000   42.7380 C   0  0  0  0  0  0  0  0  0  0  0  0
   56.6655   31.8864   43.3112 H   0  0  0  0  0  0  0  0  0  0  0  0
   57.8370   31.2557   42.1044 H   0  0  0  0  0  0  0  0  0  0  0  0
   56.1411   30.6636   42.1044 H   0  0  0  0  0  0  0  0  0  0  0  0
   57.7720   30.0920   44.9540 N   0  0  0  0  0  0  0  0  0  0  0  0
   57.9410   31.3730   45.5830 C   0  0  0  0  0  0  0  0  0  0  0  0
   56.9170   32.2700   45.5610 N   0  0  0  0  0  0  0  0  0  0  0  0
   57.0270   33.5000   46.1240 C   0  0  0  0  0  0  0  0  0  0  0  0
   56.1772   34.1976   46.0898 H   0  0  0  0  0  0  0  0  0  0  0  0
   58.2160   33.8810   46.7460 C   0  0  0  0  0  0  0  0  0  0  0  0
   58.3066   34.8743   47.2099 H   0  0  0  0  0  0  0  0  0  0  0  0
   59.2890   32.9900   46.7740 C   0  0  0  0  0  0  0  0  0  0  0  0
   60.2321   33.2813   47.2596 H   0  0  0  0  0  0  0  0  0  0  0  0
   59.1670   31.7190   46.1820 C   0  0  0  0  0  0  0  0  0  0  0  0
   60.2220   30.7960   46.1590 O   0  0  0  0  0  0  0  0  0  0  0  0
   61.3130   30.7980   47.0740 C   0  0  0  0  0  0  0  0  0  0  0  0
   60.9275   30.7973   48.1042 H   0  0  0  0  0  0  0  0  0  0  0  0
   61.9288   29.9010   46.9123 H   0  0  0  0  0  0  0  0  0  0  0  0
   61.9255   31.6973   46.9123 H   0  0  0  0  0  0  0  0  0  0  0  0
   58.0250   28.8680   45.4840 C   0  0  0  0  0  0  0  0  0  0  0  0
   58.5400   28.6900   46.7110 C   0  0  0  0  0  0  0  0  0  0  0  0
   58.7211   29.5575   47.3626 H   0  0  0  0  0  0  0  0  0  0  0  0
   58.7808   27.6766   47.0647 H   0  0  0  0  0  0  0  0  0  0  0  0
  1  2  1  0
  2  3  1  0
  3  4  1  0
  4  5  1  0
  5  6  2  0
  5  7  1  0
  7  8  1  0
  8  9  1  0
  9 10  1  0
  9 11  2  0
 11 12  1  0
 12 13  1  0
 12 14  2  0
 14 15  1  0
 15 16  1  0
 15 17  1  0
 15 18  1  0
 14 19  1  0
 19 20  1  0
 20 21  2  0
 21 22  1  0
 22 23  1  0
 22 24  2  0
 24 25  1  0
 24 26  1  0
 26 27  1  0
 26 28  2  0
 28 29  1  0
 29 30  1  0
 30 31  1  0
 30 32  1  0
 30 33  1  0
 19 34  1  0
 34 35  2  0
 35 36  1  0
 35 37  1  0
  8  3  2  0
 34 11  1  0
 28 20  1  0
M  CHG  2   4  -1   7  -1
M  END
>  <UniqueID>  (76) 
67

>  <SMILES>  (76) 
C=c1/c(=C\c2[n-]c(=O)[n-]c2O)cc(C)n1-c1ncccc1OC

>  <Energy>  (76) 
114.67844832325916

>  <Genealogy>  (76) 
C=c1c(=Cc2[n-]c(=O)[n-]c2O)cc(C)n1-c1ncccc1OC (protonated)
C=c1/c(=C\c2[n-]c(=O)[n-]c2O)cc(C)n1-c1ncccc1OC (cis-trans isomerization)
C=c1/c(=C\c2[n-]c(=O)[n-]c2O)cc(C)n1-c1ncccc1OC (3D coordinates assigned)
C=c1/c(=C\c2[n-]c(=O)[n-]c2O)cc(C)n1-c1ncccc1OC (optimized conformer: 114.67844832325916 kcal/mol)

>  <smiles>  (76) 
C=c1c(=Cc2[nH]c(=O)[nH]c2O)cc(C)n1-c1ncccc1OC

>  <score_type>  (76) 
oracle

>  <origin>  (76) 
adg

>  <m_score__min__energy>  (76) 
-12.130000000000001

>  <m_primary>  (76) 
energy

$$$$
76:0
     RDKit          3D

 68 71  0  0  0  0  0  0  0  0999 V2000
   68.9820   33.0510   51.5020 H   0  0  0  0  0  0  0  0  0  0  0  0
   68.2520   32.3510   51.5260 O   0  0  0  0  0  0  0  0  0  0  0  0
   66.9230   32.6110   51.1790 C   0  0  0  0  0  0  0  0  0  0  0  0
   66.2120   31.6130   50.5040 C   0  0  0  0  0  0  0  0  0  0  0  0
   66.7130   30.6691   50.2430 H   0  0  0  0  0  0  0  0  0  0  0  0
   64.8750   31.8030   50.1590 C   0  0  0  0  0  0  0  0  0  0  0  0
   64.3314   31.0125   49.6208 H   0  0  0  0  0  0  0  0  0  0  0  0
   64.2190   32.9960   50.4940 C   0  0  0  0  0  0  0  0  0  0  0  0
   62.7620   33.1840   50.1550 C   0  0  0  0  0  0  0  0  0  0  0  0
   62.2977   33.8197   50.9233 H   0  0  0  0  0  0  0  0  0  0  0  0
   62.2897   32.1911   50.1219 H   0  0  0  0  0  0  0  0  0  0  0  0
   62.5790   33.8220   48.8320 N   0  0  0  0  0  0  0  0  0  0  0  0
   61.1680   34.2220   48.6380 C   0  0  0  0  0  0  0  0  0  0  0  0
   61.0420   35.2550   48.9944 H   0  0  0  0  0  0  0  0  0  0  0  0
   60.9400   34.1334   47.5655 H   0  0  0  0  0  0  0  0  0  0  0  0
   60.2030   33.3280   49.3890 C   0  0  0  0  0  0  0  0  0  0  0  0
   59.7150   33.7630   50.6330 C   0  0  0  0  0  0  0  0  0  0  0  0
   60.0256   34.7418   51.0272 H   0  0  0  0  0  0  0  0  0  0  0  0
   58.8400   32.9660   51.3740 C   0  0  0  0  0  0  0  0  0  0  0  0
   58.4598   33.3219   52.3429 H   0  0  0  0  0  0  0  0  0  0  0  0
   58.4480   31.7210   50.8880 C   0  0  0  0  0  0  0  0  0  0  0  0
   57.7641   31.0916   51.4764 H   0  0  0  0  0  0  0  0  0  0  0  0
   58.9220   31.2720   49.6560 C   0  0  0  0  0  0  0  0  0  0  0  0
   58.6245   30.2794   49.2870 H   0  0  0  0  0  0  0  0  0  0  0  0
   59.7750   32.0740   48.8820 C   0  0  0  0  0  0  0  0  0  0  0  0
   60.3800   31.3920   47.3220 S   0  0  0  0  0  0  0  0  0  0  0  0
   59.1980   32.2580   46.2750 C   0  0  0  0  0  0  0  0  0  0  0  0
   59.3120   33.6470   46.1400 C   0  0  0  0  0  0  0  0  0  0  0  0
   60.1040   34.1855   46.6811 H   0  0  0  0  0  0  0  0  0  0  0  0
   58.4280   34.3520   45.3240 C   0  0  0  0  0  0  0  0  0  0  0  0
   58.5247   35.4429   45.2213 H   0  0  0  0  0  0  0  0  0  0  0  0
   57.4210   33.6730   44.6380 C   0  0  0  0  0  0  0  0  0  0  0  0
   56.7132   34.2319   44.0082 H   0  0  0  0  0  0  0  0  0  0  0  0
   57.3090   32.2830   44.7490 C   0  0  0  0  0  0  0  0  0  0  0  0
   56.5082   31.7539   44.2116 H   0  0  0  0  0  0  0  0  0  0  0  0
   58.2160   31.5580   45.5450 C   0  0  0  0  0  0  0  0  0  0  0  0
   58.1250   30.1340   45.6880 N   0  0  0  0  0  0  0  0  0  0  0  0
   56.9570   29.3140   45.5760 C   0  0  0  0  0  0  0  0  0  0  0  0
   55.9610   29.7090   44.9110 O   0  0  0  0  0  0  0  0  0  0  0  0
   56.9960   28.0010   46.1600 N   0  0  0  0  0  0  0  0  0  0  0  0
   56.8550   26.8230   45.6160 C   0  0  0  0  0  0  0  0  0  0  0  0
   55.7830   26.0750   45.9990 N   0  0  0  0  0  0  0  0  0  0  0  0
   55.5290   24.8400   45.4900 C   0  0  0  0  0  0  0  0  0  0  0  0
   54.6483   24.2751   45.8295 H   0  0  0  0  0  0  0  0  0  0  0  0
   56.3880   24.2890   44.5350 C   0  0  0  0  0  0  0  0  0  0  0  0
   56.1260   22.9790   43.9900 C   0  0  0  0  0  0  0  0  0  0  0  0
   55.9150   21.9280   43.5540 N   0  0  0  0  0  0  0  0  0  0  0  0
   57.4950   25.0290   44.1080 C   0  0  0  0  0  0  0  0  0  0  0  0
   58.1792   24.6101   43.3554 H   0  0  0  0  0  0  0  0  0  0  0  0
   57.7330   26.3030   44.6380 C   0  0  0  0  0  0  0  0  0  0  0  0
   58.5956   26.8939   44.2963 H   0  0  0  0  0  0  0  0  0  0  0  0
   63.1400   33.0300   47.7030 C   0  0  0  0  0  0  0  0  0  0  0  0
   62.4525   32.1971   47.4942 H   0  0  0  0  0  0  0  0  0  0  0  0
   64.1386   32.6980   48.0233 H   0  0  0  0  0  0  0  0  0  0  0  0
   63.3430   33.8190   46.4030 C   0  0  0  0  0  0  0  0  0  0  0  0
   63.6105   34.8586   46.6430 H   0  0  0  0  0  0  0  0  0  0  0  0
   64.1518   33.3582   45.8169 H   0  0  0  0  0  0  0  0  0  0  0  0
   62.4122   33.8058   45.8169 H   0  0  0  0  0  0  0  0  0  0  0  0
   64.9240   33.9990   51.1740 C   0  0  0  0  0  0  0  0  0  0  0  0
   64.4071   34.9259   51.4632 H   0  0  0  0  0  0  0  0  0  0  0  0
   66.2850   33.8340   51.4910 C   0  0  0  0  0  0  0  0  0  0  0  0
   67.0120   34.9590   52.1780 C   0  0  0  0  0  0  0  0  0  0  0  0
   66.6067   35.9214   51.8323 H   0  0  0  0  0  0  0  0  0  0  0  0
   66.8757   34.8706   53.2659 H   0  0  0  0  0  0  0  0  0  0  0  0
   68.4330   34.8900   51.8620 N   0  0  0  0  0  0  0  0  0  0  0  0
   68.9430   35.1850   50.5620 C   0  0  0  0  0  0  0  0  0  0  0  0
   69.1671   36.2270   50.2899 H   0  0  0  0  0  0  0  0  0  0  0  0
   69.1400   34.2650   49.7210 O   0  0  0  0  0  0  0  0  0  0  0  0
  1  2  1  0
  2  3  1  0
  3  4  2  0
  4  5  1  0
  4  6  1  0
  6  7  1  0
  6  8  2  0
  8  9  1  0
  9 10  1  0
  9 11  1  0
  9 12  1  0
 12 13  1  0
 13 14  1  0
 13 15  1  0
 13 16  1  0
 16 17  2  0
 17 18  1  0
 17 19  1  0
 19 20  1  0
 19 21  2  0
 21 22  1  0
 21 23  1  0
 23 24  1  0
 23 25  2  0
 25 26  1  0
 26 27  1  0
 27 28  2  0
 28 29  1  0
 28 30  1  0
 30 31  1  0
 30 32  2  0
 32 33  1  0
 32 34  1  0
 34 35  1  0
 34 36  2  0
 36 37  1  0
 37 38  1  0
 38 39  2  0
 38 40  1  0
 40 41  2  0
 41 42  1  0
 42 43  1  0
 43 44  1  0
 43 45  2  0
 45 46  1  0
 46 47  3  0
 45 48  1  0
 48 49  1  0
 48 50  2  0
 50 51  1  0
 12 52  1  0
 52 53  1  0
 52 54  1  0
 52 55  1  0
 55 56  1  0
 55 57  1  0
 55 58  1  0
  8 59  1  0
 59 60  1  0
 59 61  2  0
 61 62  1  0
 62 63  1  0
 62 64  1  0
 62 65  1  0
 65 66  1  0
 66 67  1  0
 66 68  2  0
 61  3  1  0
 25 16  1  0
 36 27  1  0
 50 41  1  0
M  CHG  3  37  -1  42  -1  65  -1
M  END
>  <UniqueID>  (77) 
68

>  <SMILES>  (77) 
CCN(Cc1ccc(O)c(C[N-]C=O)c1)Cc1ccccc1Sc1ccccc1[N-]C(=O)/N=c1\ccc(C#N)c[n-]1

>  <Energy>  (77) 
82.88486171694822

>  <Genealogy>  (77) 
CCN(Cc1ccc(O)c(C[N-]C=O)c1)Cc1ccccc1Sc1ccccc1[N-]C(=O)N=c1ccc(C#N)c[n-]1 (protonated)
CCN(Cc1ccc(O)c(C[N-]C=O)c1)Cc1ccccc1Sc1ccccc1[N-]C(=O)/N=c1\ccc(C#N)c[n-]1 (cis-trans isomerization)
CCN(Cc1ccc(O)c(C[N-]C=O)c1)Cc1ccccc1Sc1ccccc1[N-]C(=O)/N=c1\ccc(C#N)c[n-]1 (3D coordinates assigned)
CCN(Cc1ccc(O)c(C[N-]C=O)c1)Cc1ccccc1Sc1ccccc1[N-]C(=O)/N=c1\ccc(C#N)c[n-]1 (optimized conformer: 82.88486171694822 kcal/mol)

>  <smiles>  (77) 
CCN(Cc1ccc(O)c(CNC=O)c1)Cc1ccccc1Sc1ccccc1NC(=O)N=c1ccc(C#N)c[nH]1

>  <score_type>  (77) 
oracle

>  <origin>  (77) 
adg

>  <m_score__min__energy>  (77) 
-15.67

>  <m_primary>  (77) 
energy

$$$$
77:0
     RDKit          3D

 40 42  0  0  0  0  0  0  0  0999 V2000
   55.5470   28.5820   53.3470 O   0  0  0  0  0  0  0  0  0  0  0  0
   55.1100   29.5610   52.6840 C   0  0  0  0  0  0  0  0  0  0  0  0
   55.9020   30.7450   52.5000 N   0  0  0  0  0  0  0  0  0  0  0  0
   56.9150   30.9450   51.7020 C   0  0  0  0  0  0  0  0  0  0  0  0
   57.4400   32.2250   51.4240 C   0  0  0  0  0  0  0  0  0  0  0  0
   58.5310   32.3480   50.5610 C   0  0  0  0  0  0  0  0  0  0  0  0
   59.0970   31.2170   49.9720 C   0  0  0  0  0  0  0  0  0  0  0  0
   60.2280   31.3690   49.1030 N   0  0  0  0  0  0  0  0  0  0  0  0
   60.1890   31.4540   47.6720 C   0  0  0  0  0  0  0  0  0  0  0  0
   60.8100   30.5860   47.0010 O   0  0  0  0  0  0  0  0  0  0  0  0
   59.4940   32.5560   46.9660 C   0  0  0  0  0  0  0  0  0  0  0  0
   60.1740   33.7340   46.6170 C   0  0  0  0  0  0  0  0  0  0  0  0
   59.4940   34.7530   45.9460 C   0  0  0  0  0  0  0  0  0  0  0  0
   58.1830   34.6000   45.6240 N   0  0  0  0  0  0  0  0  0  0  0  0
   57.5000   33.4670   45.9370 C   0  0  0  0  0  0  0  0  0  0  0  0
   58.1430   32.4230   46.6070 C   0  0  0  0  0  0  0  0  0  0  0  0
   58.5770   29.9560   50.3030 C   0  0  0  0  0  0  0  0  0  0  0  0
   57.5150   29.8570   51.1460 N   0  0  0  0  0  0  0  0  0  0  0  0
   53.7750   29.5410   52.1740 N   0  0  0  0  0  0  0  0  0  0  0  0
   52.9500   30.7340   52.0170 C   0  0  0  0  0  0  0  0  0  0  0  0
   52.2410   30.7110   50.6880 C   0  0  0  0  0  0  0  0  0  0  0  0
   52.4940   29.6750   49.7720 C   0  0  0  0  0  0  0  0  0  0  0  0
   51.8250   29.6380   48.5460 C   0  0  0  0  0  0  0  0  0  0  0  0
   50.8990   30.6310   48.2220 C   0  0  0  0  0  0  0  0  0  0  0  0
   50.6370   31.6640   49.1270 C   0  0  0  0  0  0  0  0  0  0  0  0
   51.3010   31.7070   50.3570 C   0  0  0  0  0  0  0  0  0  0  0  0
   51.0230   32.7400   51.2460 O   0  0  0  0  0  0  0  0  0  0  0  0
   56.9933   33.1190   51.8835 H   0  0  0  0  0  0  0  0  0  0  0  0
   58.9468   33.3430   50.3442 H   0  0  0  0  0  0  0  0  0  0  0  0
   61.2376   33.8538   46.8709 H   0  0  0  0  0  0  0  0  0  0  0  0
   60.0207   35.6807   45.6779 H   0  0  0  0  0  0  0  0  0  0  0  0
   56.4391   33.3720   45.6623 H   0  0  0  0  0  0  0  0  0  0  0  0
   57.5939   31.5019   46.8519 H   0  0  0  0  0  0  0  0  0  0  0  0
   59.0292   29.0469   49.8799 H   0  0  0  0  0  0  0  0  0  0  0  0
   52.2044   30.7680   52.8250 H   0  0  0  0  0  0  0  0  0  0  0  0
   53.5962   31.6231   52.0613 H   0  0  0  0  0  0  0  0  0  0  0  0
   53.2224   28.8895   50.0218 H   0  0  0  0  0  0  0  0  0  0  0  0
   52.0285   28.8243   47.8343 H   0  0  0  0  0  0  0  0  0  0  0  0
   50.3756   30.6008   47.2550 H   0  0  0  0  0  0  0  0  0  0  0  0
   49.9063   32.4453   48.8707 H   0  0  0  0  0  0  0  0  0  0  0  0
  1  2  2  0
  2  3  1  0
  3  4  2  3
  4  5  1  0
  5  6  2  0
  6  7  1  0
  7  8  1  0
  8  9  1  0
  9 10  2  0
  9 11  1  0
 11 12  2  0
 12 13  1  0
 13 14  2  0
 14 15  1  0
 15 16  2  0
  7 17  2  0
 17 18  1  0
  2 19  1  0
 19 20  1  0
 20 21  1  0
 21 22  2  0
 22 23  1  0
 23 24  2  0
 24 25  1  0
 25 26  2  0
 26 27  1  0
 18  4  1  0
 26 21  1  0
 16 11  1  0
  5 28  1  0
  6 29  1  0
 12 30  1  0
 13 31  1  0
 15 32  1  0
 16 33  1  0
 17 34  1  0
 20 35  1  0
 20 36  1  0
 22 37  1  0
 23 38  1  0
 24 39  1  0
 25 40  1  0
M  CHG  4   8  -1  18  -1  19  -1  27  -1
M  END
>  <UniqueID>  (78) 
69

>  <SMILES>  (78) 
O=C(N=c1ccc([N-]C(=O)c2ccncc2)c[n-]1)[N-]Cc1ccccc1[O-]

>  <Energy>  (78) 
57.3316435001463

>  <Genealogy>  (78) 
O=C(N=c1ccc([N-]C(=O)c2ccncc2)c[n-]1)[N-]Cc1ccccc1[O-] (protonated)
O=C(N=c1ccc([N-]C(=O)c2ccncc2)c[n-]1)[N-]Cc1ccccc1[O-] (3D coordinates assigned)
O=C(N=c1ccc([N-]C(=O)c2ccncc2)c[n-]1)[N-]Cc1ccccc1[O-] (optimized conformer: 57.3316435001463 kcal/mol)

>  <smiles>  (78) 
O=C(N=c1ccc(NC(=O)c2ccncc2)c[nH]1)NCc1ccccc1O

>  <score_type>  (78) 
oracle

>  <origin>  (78) 
adg

>  <m_score__min__energy>  (78) 
-14.77

>  <m_primary>  (78) 
energy

$$$$
78:0
     RDKit          3D

 52 55  0  0  0  0  0  0  0  0999 V2000
   58.0602   34.0523   52.6883 H   0  0  0  0  0  0  0  0  0  0  0  0
   57.8410   33.0510   52.2890 C   0  0  0  0  0  0  0  0  0  0  0  0
   56.6600   32.4040   52.3950 N   0  0  0  0  0  0  0  0  0  0  0  0
   56.8760   31.2260   51.7620 C   0  0  0  0  0  0  0  0  0  0  0  0
   55.9650   30.3120   51.6010 N   0  0  0  0  0  0  0  0  0  0  0  0
   54.6120   30.3310   52.0790 C   0  0  0  0  0  0  0  0  0  0  0  0
   54.1430   29.3960   53.0170 C   0  0  0  0  0  0  0  0  0  0  0  0
   54.8356   28.6590   53.4496 H   0  0  0  0  0  0  0  0  0  0  0  0
   52.8010   29.3990   53.4020 C   0  0  0  0  0  0  0  0  0  0  0  0
   52.4406   28.6694   54.1421 H   0  0  0  0  0  0  0  0  0  0  0  0
   51.9150   30.3270   52.8490 C   0  0  0  0  0  0  0  0  0  0  0  0
   50.8582   30.3234   53.1542 H   0  0  0  0  0  0  0  0  0  0  0  0
   52.3660   31.2640   51.9060 C   0  0  0  0  0  0  0  0  0  0  0  0
   51.4160   32.2170   51.2950 C   0  0  0  0  0  0  0  0  0  0  0  0
   51.6060   32.5940   50.1100 O   0  0  0  0  0  0  0  0  0  0  0  0
   50.2690   32.7060   51.9990 N   0  0  0  0  0  0  0  0  0  0  0  0
   50.3250   33.4620   53.2450 C   0  0  0  0  0  0  0  0  0  0  0  0
   50.2736   32.7685   54.0973 H   0  0  0  0  0  0  0  0  0  0  0  0
   51.2675   34.0275   53.2887 H   0  0  0  0  0  0  0  0  0  0  0  0
   49.4761   34.1602   53.2887 H   0  0  0  0  0  0  0  0  0  0  0  0
   53.7120   31.2410   51.5100 C   0  0  0  0  0  0  0  0  0  0  0  0
   54.0647   31.9464   50.7432 H   0  0  0  0  0  0  0  0  0  0  0  0
   58.1230   31.1030   51.2620 N   0  0  0  0  0  0  0  0  0  0  0  0
   58.6970   29.9720   50.5320 C   0  0  0  0  0  0  0  0  0  0  0  0
   59.7128   29.7778   50.9066 H   0  0  0  0  0  0  0  0  0  0  0  0
   58.0594   29.0891   50.6870 H   0  0  0  0  0  0  0  0  0  0  0  0
   58.7620   30.2720   49.0560 C   0  0  0  0  0  0  0  0  0  0  0  0
   58.8230   29.2280   48.1200 C   0  0  0  0  0  0  0  0  0  0  0  0
   58.8140   28.1833   48.4644 H   0  0  0  0  0  0  0  0  0  0  0  0
   58.8950   29.5080   46.7550 C   0  0  0  0  0  0  0  0  0  0  0  0
   58.9680   28.6831   46.0309 H   0  0  0  0  0  0  0  0  0  0  0  0
   58.8750   30.8270   46.3030 C   0  0  0  0  0  0  0  0  0  0  0  0
   58.9046   31.0383   45.2239 H   0  0  0  0  0  0  0  0  0  0  0  0
   58.8170   31.8890   47.2260 C   0  0  0  0  0  0  0  0  0  0  0  0
   58.6720   33.2510   46.8020 N   0  0  0  0  0  0  0  0  0  0  0  0
   59.6780   34.2670   46.8900 C   0  0  0  0  0  0  0  0  0  0  0  0
   59.4260   35.4110   46.4340 O   0  0  0  0  0  0  0  0  0  0  0  0
   60.9770   34.0130   47.5480 C   0  0  0  0  0  0  0  0  0  0  0  0
   61.1250   34.2170   48.9320 C   0  0  0  0  0  0  0  0  0  0  0  0
   60.2796   34.6001   49.5223 H   0  0  0  0  0  0  0  0  0  0  0  0
   62.3420   33.9350   49.5610 C   0  0  0  0  0  0  0  0  0  0  0  0
   62.4518   34.0996   50.6431 H   0  0  0  0  0  0  0  0  0  0  0  0
   63.4220   33.4430   48.8150 C   0  0  0  0  0  0  0  0  0  0  0  0
   64.9390   33.0630   49.6140 Cl  0  0  0  0  0  0  0  0  0  0  0  0
   63.2880   33.2480   47.4370 C   0  0  0  0  0  0  0  0  0  0  0  0
   64.1372   32.8679   46.8502 H   0  0  0  0  0  0  0  0  0  0  0  0
   62.0750   33.5360   46.8050 C   0  0  0  0  0  0  0  0  0  0  0  0
   61.9769   33.3891   45.7193 H   0  0  0  0  0  0  0  0  0  0  0  0
   58.7770   31.6040   48.5990 C   0  0  0  0  0  0  0  0  0  0  0  0
   58.7571   32.4293   49.3260 H   0  0  0  0  0  0  0  0  0  0  0  0
   58.7250   32.2530   51.6000 C   0  0  0  0  0  0  0  0  0  0  0  0
   60.0400   32.5790   51.2900 O   0  0  0  0  0  0  0  0  0  0  0  0
  1  2  1  0
  2  3  1  0
  3  4  1  0
  4  5  2  0
  5  6  1  0
  6  7  2  0
  7  8  1  0
  7  9  1  0
  9 10  1  0
  9 11  2  0
 11 12  1  0
 11 13  1  0
 13 14  1  0
 14 15  2  0
 14 16  1  0
 16 17  1  0
 17 18  1  0
 17 19  1  0
 17 20  1  0
 13 21  2  0
 21 22  1  0
  4 23  1  0
 23 24  1  0
 24 25  1  0
 24 26  1  0
 24 27  1  0
 27 28  2  0
 28 29  1  0
 28 30  1  0
 30 31  1  0
 30 32  2  0
 32 33  1  0
 32 34  1  0
 34 35  1  0
 35 36  1  0
 36 37  2  0
 36 38  1  0
 38 39  2  0
 39 40  1  0
 39 41  1  0
 41 42  1  0
 41 43  2  0
 43 44  1  0
 43 45  1  0
 45 46  1  0
 45 47  2  0
 47 48  1  0
 34 49  2  0
 49 50  1  0
 23 51  1  0
 51 52  1  0
 51  2  2  0
 21  6  1  0
 49 27  1  0
 47 38  1  0
M  CHG  4   3  -1  16  -1  35  -1  52  -1
M  END
>  <UniqueID>  (79) 
70

>  <SMILES>  (79) 
C[N-]C(=O)c1cccc(/N=c2\[n-]cc([O-])n2Cc2cccc([N-]C(=O)c3ccc(Cl)cc3)c2)c1

>  <Energy>  (79) 
104.17001819672191

>  <Genealogy>  (79) 
C[N-]C(=O)c1cccc(N=c2[n-]cc([O-])n2Cc2cccc([N-]C(=O)c3ccc(Cl)cc3)c2)c1 (protonated)
C[N-]C(=O)c1cccc(/N=c2\[n-]cc([O-])n2Cc2cccc([N-]C(=O)c3ccc(Cl)cc3)c2)c1 (cis-trans isomerization)
C[N-]C(=O)c1cccc(/N=c2\[n-]cc([O-])n2Cc2cccc([N-]C(=O)c3ccc(Cl)cc3)c2)c1 (3D coordinates assigned)
C[N-]C(=O)c1cccc(/N=c2\[n-]cc([O-])n2Cc2cccc([N-]C(=O)c3ccc(Cl)cc3)c2)c1 (optimized conformer: 104.17001819672191 kcal/mol)

>  <smiles>  (79) 
CNC(=O)c1cccc(N=c2[nH]cc(O)n2Cc2cccc(NC(=O)c3ccc(Cl)cc3)c2)c1

>  <score_type>  (79) 
oracle

>  <origin>  (79) 
adg

>  <m_score__min__energy>  (79) 
-15.67

>  <m_primary>  (79) 
energy

$$$$
79:0
     RDKit          3D

 47 49  0  0  0  0  0  0  0  0999 V2000
   64.0960   32.0130   48.9670 C   0  0  0  0  0  0  0  0  0  0  0  0
   63.0410   32.8050   48.2670 C   0  0  0  0  0  0  0  0  0  0  0  0
   63.3150   33.9600   47.8390 O   0  0  0  0  0  0  0  0  0  0  0  0
   61.7540   32.2210   48.0160 N   0  0  0  0  0  0  0  0  0  0  0  0
   60.6520   32.9550   47.4540 C   0  0  0  0  0  0  0  0  0  0  0  0
   60.8970   33.9210   46.4630 C   0  0  0  0  0  0  0  0  0  0  0  0
   59.8570   34.7080   45.9650 C   0  0  0  0  0  0  0  0  0  0  0  0
   58.5640   34.5510   46.4590 C   0  0  0  0  0  0  0  0  0  0  0  0
   58.3020   33.6030   47.4480 C   0  0  0  0  0  0  0  0  0  0  0  0
   59.3340   32.7880   47.9540 C   0  0  0  0  0  0  0  0  0  0  0  0
   59.0010   31.7580   48.9690 C   0  0  0  0  0  0  0  0  0  0  0  0
   58.1110   31.9860   49.8330 O   0  0  0  0  0  0  0  0  0  0  0  0
   59.7510   30.5370   49.0160 N   0  0  0  0  0  0  0  0  0  0  0  0
   59.6070   29.4130   48.1360 C   0  0  0  0  0  0  0  0  0  0  0  0
   60.4420   28.2840   48.2250 C   0  0  0  0  0  0  0  0  0  0  0  0
   60.2480   27.1970   47.3680 C   0  0  0  0  0  0  0  0  0  0  0  0
   59.2170   27.2200   46.4260 C   0  0  0  0  0  0  0  0  0  0  0  0
   58.3700   28.3330   46.3390 C   0  0  0  0  0  0  0  0  0  0  0  0
   57.0480   28.3600   45.1760 S   0  0  0  0  0  0  0  0  0  0  0  0
   55.9690   27.4100   45.6160 O   0  0  0  0  0  0  0  0  0  0  0  0
   57.5660   27.9350   43.8310 O   0  0  0  0  0  0  0  0  0  0  0  0
   56.4160   29.9730   45.0900 N   0  0  0  0  0  0  0  0  0  0  0  0
   56.9690   30.9400   44.4230 C   0  0  0  0  0  0  0  0  0  0  0  0
   57.0100   32.3630   44.8410 C   0  0  0  0  0  0  0  0  0  0  0  0
   57.7860   33.0470   43.7040 C   0  0  0  0  0  0  0  0  0  0  0  0
   58.1220   31.9670   42.6590 C   0  0  0  0  0  0  0  0  0  0  0  0
   57.6050   30.7210   43.1850 N   0  0  0  0  0  0  0  0  0  0  0  0
   58.5600   29.4190   47.2050 C   0  0  0  0  0  0  0  0  0  0  0  0
   63.9663   32.1104   50.0550 H   0  0  0  0  0  0  0  0  0  0  0  0
   64.0102   30.9544   48.6808 H   0  0  0  0  0  0  0  0  0  0  0  0
   65.0886   32.3909   48.6808 H   0  0  0  0  0  0  0  0  0  0  0  0
   61.6220   31.2070   48.2310 H   0  0  0  0  0  0  0  0  0  0  0  0
   61.9176   34.0582   46.0762 H   0  0  0  0  0  0  0  0  0  0  0  0
   60.0588   35.4531   45.1814 H   0  0  0  0  0  0  0  0  0  0  0  0
   57.7476   35.1762   46.0682 H   0  0  0  0  0  0  0  0  0  0  0  0
   57.2792   33.4905   47.8369 H   0  0  0  0  0  0  0  0  0  0  0  0
   61.2498   28.2568   48.9712 H   0  0  0  0  0  0  0  0  0  0  0  0
   60.9094   26.3207   47.4356 H   0  0  0  0  0  0  0  0  0  0  0  0
   59.0697   26.3635   45.7517 H   0  0  0  0  0  0  0  0  0  0  0  0
   55.9945   32.7767   44.9288 H   0  0  0  0  0  0  0  0  0  0  0  0
   57.4767   32.5074   45.8265 H   0  0  0  0  0  0  0  0  0  0  0  0
   57.1671   33.8329   43.2464 H   0  0  0  0  0  0  0  0  0  0  0  0
   58.7048   33.5143   44.0880 H   0  0  0  0  0  0  0  0  0  0  0  0
   57.6418   32.2037   41.6981 H   0  0  0  0  0  0  0  0  0  0  0  0
   59.2055   31.9071   42.4787 H   0  0  0  0  0  0  0  0  0  0  0  0
   57.6790   29.7960   42.7050 H   0  0  0  0  0  0  0  0  0  0  0  0
   57.8813   30.2831   47.1531 H   0  0  0  0  0  0  0  0  0  0  0  0
  1  2  1  0
  2  3  2  0
  2  4  1  0
  4  5  1  0
  5  6  2  0
  6  7  1  0
  7  8  2  0
  8  9  1  0
  9 10  2  0
 10 11  1  0
 11 12  2  0
 11 13  1  0
 13 14  1  0
 14 15  2  0
 15 16  1  0
 16 17  2  0
 17 18  1  0
 18 19  1  0
 19 20  2  0
 19 21  2  0
 19 22  1  0
 22 23  2  3
 23 24  1  0
 24 25  1  0
 25 26  1  0
 26 27  1  0
 18 28  2  0
 10  5  1  0
 28 14  1  0
 27 23  1  0
  1 29  1  0
  1 30  1  0
  1 31  1  0
  4 32  1  0
  6 33  1  0
  7 34  1  0
  8 35  1  0
  9 36  1  0
 15 37  1  0
 16 38  1  0
 17 39  1  0
 24 40  1  0
 24 41  1  0
 25 42  1  0
 25 43  1  0
 26 44  1  0
 26 45  1  0
 27 46  1  0
 28 47  1  0
M  CHG  1  13  -1
M  END
>  <UniqueID>  (80) 
71

>  <SMILES>  (80) 
CC(=O)Nc1ccccc1C(=O)[N-]c1cccc(S(=O)(=O)N=C2CCCN2)c1

>  <Energy>  (80) 
66.81731135813565

>  <Genealogy>  (80) 
CC(=O)Nc1ccccc1C(=O)[N-]c1cccc(S(=O)(=O)N=C2CCCN2)c1 (protonated)
CC(=O)Nc1ccccc1C(=O)[N-]c1cccc(S(=O)(=O)N=C2CCCN2)c1 (3D coordinates assigned)
CC(=O)Nc1ccccc1C(=O)[N-]c1cccc(S(=O)(=O)N=C2CCCN2)c1 (nonaromatic ring conformer: 66.81731135813565 kcal/mol)

>  <smiles>  (80) 
CC(=O)Nc1ccccc1C(=O)Nc1cccc(S(=O)(=O)N=C2CCCN2)c1

>  <score_type>  (80) 
oracle

>  <origin>  (80) 
adg

>  <m_score__min__energy>  (80) 
-11.18

>  <m_primary>  (80) 
energy

$$$$
80:0
     RDKit          3D

 45 49  0  0  0  0  0  0  0  0999 V2000
   55.7510   30.3890   44.5050 O   0  0  0  0  0  0  0  0  0  0  0  0
   56.8450   31.0130   44.4550 C   0  0  0  0  0  0  0  0  0  0  0  0
   58.0290   30.3710   43.7850 C   0  0  0  0  0  0  0  0  0  0  0  0
   58.6100   29.3420   44.6490 N   0  0  0  0  0  0  0  0  0  0  0  0
   59.9280   29.1930   44.9260 C   0  0  0  0  0  0  0  0  0  0  0  0
   60.1360   28.0800   45.7330 C   0  0  0  0  0  0  0  0  0  0  0  0
   58.8840   27.5390   45.9360 C   0  0  0  0  0  0  0  0  0  0  0  0
   58.4980   26.4070   46.6510 C   0  0  0  0  0  0  0  0  0  0  0  0
   57.1310   26.0780   46.6680 C   0  0  0  0  0  0  0  0  0  0  0  0
   56.1920   26.8750   45.9720 C   0  0  0  0  0  0  0  0  0  0  0  0
   54.8460   26.5340   45.9940 O   0  0  0  0  0  0  0  0  0  0  0  0
   56.6150   28.0120   45.2570 C   0  0  0  0  0  0  0  0  0  0  0  0
   57.9790   28.3190   45.2630 C   0  0  0  0  0  0  0  0  0  0  0  0
   56.9110   32.3320   45.0090 N   0  0  0  0  0  0  0  0  0  0  0  0
   57.9530   32.8540   45.8460 C   0  0  0  0  0  0  0  0  0  0  0  0
   57.9130   34.2120   46.2160 C   0  0  0  0  0  0  0  0  0  0  0  0
   58.8990   34.7500   47.0570 C   0  0  0  0  0  0  0  0  0  0  0  0
   59.9120   33.9120   47.5270 C   0  0  0  0  0  0  0  0  0  0  0  0
   59.9420   32.5820   47.1940 C   0  0  0  0  0  0  0  0  0  0  0  0
   58.9660   32.0220   46.3660 C   0  0  0  0  0  0  0  0  0  0  0  0
   61.0660   31.8680   47.8440 C   0  0  0  0  0  0  0  0  0  0  0  0
   61.9100   33.0070   48.4960 C   0  0  0  0  0  0  0  0  0  0  0  0
   61.0140   34.2850   48.4450 C   0  0  0  0  0  0  0  0  0  0  0  0
   63.1620   33.2430   47.6550 C   0  0  0  0  0  0  0  0  0  0  0  0
   63.0420   33.5420   46.4360 O   0  0  0  0  0  0  0  0  0  0  0  0
   64.4760   33.1350   48.2020 N   0  0  0  0  0  0  0  0  0  0  0  0
   64.6890   32.8000   49.5660 C   0  0  0  0  0  0  0  0  0  0  0  0
   65.8600   32.7130   50.0180 O   0  0  0  0  0  0  0  0  0  0  0  0
   63.5780   32.5640   50.4200 N   0  0  0  0  0  0  0  0  0  0  0  0
   62.2350   32.6540   49.9430 C   0  0  0  0  0  0  0  0  0  0  0  0
   61.2950   32.4320   50.7550 O   0  0  0  0  0  0  0  0  0  0  0  0
   57.7047   29.9100   42.8404 H   0  0  0  0  0  0  0  0  0  0  0  0
   58.7887   31.1420   43.5889 H   0  0  0  0  0  0  0  0  0  0  0  0
   60.7234   29.8603   44.5627 H   0  0  0  0  0  0  0  0  0  0  0  0
   61.0946   27.7100   46.1257 H   0  0  0  0  0  0  0  0  0  0  0  0
   59.2376   25.7916   47.1841 H   0  0  0  0  0  0  0  0  0  0  0  0
   56.7892   25.1942   47.2267 H   0  0  0  0  0  0  0  0  0  0  0  0
   55.8949   28.6390   44.7109 H   0  0  0  0  0  0  0  0  0  0  0  0
   57.1028   34.8559   45.8430 H   0  0  0  0  0  0  0  0  0  0  0  0
   58.8743   35.8125   47.3408 H   0  0  0  0  0  0  0  0  0  0  0  0
   58.9873   30.9493   46.1235 H   0  0  0  0  0  0  0  0  0  0  0  0
   60.6955   31.1692   48.6085 H   0  0  0  0  0  0  0  0  0  0  0  0
   61.6490   31.2617   47.1351 H   0  0  0  0  0  0  0  0  0  0  0  0
   60.6248   34.5301   49.4442 H   0  0  0  0  0  0  0  0  0  0  0  0
   61.5643   35.1754   48.1070 H   0  0  0  0  0  0  0  0  0  0  0  0
  1  2  2  0
  2  3  1  0
  3  4  1  0
  4  5  1  0
  5  6  2  0
  6  7  1  0
  7  8  2  0
  8  9  1  0
  9 10  2  0
 10 11  1  0
 10 12  1  0
 12 13  2  0
  2 14  1  0
 14 15  1  0
 15 16  2  0
 16 17  1  0
 17 18  2  0
 18 19  1  0
 19 20  2  0
 19 21  1  0
 21 22  1  0
 22 23  1  0
 22 24  1  0
 24 25  2  0
 24 26  1  0
 26 27  1  0
 27 28  2  0
 27 29  1  0
 29 30  1  0
 30 31  2  0
 13  4  1  0
 20 15  1  0
 30 22  1  0
 13  7  1  0
 23 18  1  0
  3 32  1  0
  3 33  1  0
  5 34  1  0
  6 35  1  0
  8 36  1  0
  9 37  1  0
 12 38  1  0
 16 39  1  0
 17 40  1  0
 20 41  1  0
 21 42  1  0
 21 43  1  0
 23 44  1  0
 23 45  1  0
M  CHG  4  11  -1  14  -1  26  -1  29  -1
M  END
>  <UniqueID>  (81) 
72

>  <SMILES>  (81) 
O=C(Cn1ccc2ccc([O-])cc21)[N-]c1ccc2c(c1)CC1(C2)C(=O)[N-]C(=O)[N-]C1=O

>  <Energy>  (81) 
99.31635416595995

>  <Genealogy>  (81) 
O=C(Cn1ccc2ccc([O-])cc21)[N-]c1ccc2c(c1)CC1(C2)C(=O)[N-]C(=O)[N-]C1=O (protonated)
O=C(Cn1ccc2ccc([O-])cc21)[N-]c1ccc2c(c1)CC1(C2)C(=O)[N-]C(=O)[N-]C1=O (3D coordinates assigned)
O=C(Cn1ccc2ccc([O-])cc21)[N-]c1ccc2c(c1)CC1(C2)C(=O)[N-]C(=O)[N-]C1=O (nonaromatic ring conformer: 99.31635416595995 kcal/mol)

>  <smiles>  (81) 
O=C(Cn1ccc2ccc(O)cc21)Nc1ccc2c(c1)CC1(C2)C(=O)NC(=O)NC1=O

>  <score_type>  (81) 
oracle

>  <origin>  (81) 
adg

>  <m_score__min__energy>  (81) 
-16.57

>  <m_primary>  (81) 
energy

$$$$
81:0
     RDKit          3D

 58 61  0  0  0  0  0  0  0  0999 V2000
   56.3120   29.3330   42.6220 C   0  0  0  0  0  0  0  0  0  0  0  0
   56.9500   30.3970   43.4640 C   0  0  0  0  0  0  0  0  0  0  0  0
   57.3970   31.5860   42.8690 C   0  0  0  0  0  0  0  0  0  0  0  0
   57.9950   32.5830   43.6470 C   0  0  0  0  0  0  0  0  0  0  0  0
   58.1670   32.3940   45.0240 C   0  0  0  0  0  0  0  0  0  0  0  0
   58.8420   33.6760   46.0240 S   0  0  0  0  0  0  0  0  0  0  0  0
   57.7490   34.6190   46.4380 O   0  0  0  0  0  0  0  0  0  0  0  0
   59.8760   34.4450   45.2490 O   0  0  0  0  0  0  0  0  0  0  0  0
   59.5620   32.9870   47.4360 N   0  0  0  0  0  0  0  0  0  0  0  0
   60.9750   32.8000   47.5180 C   0  0  0  0  0  0  0  0  0  0  0  0
   61.8080   33.9260   47.5350 C   0  0  0  0  0  0  0  0  0  0  0  0
   63.1960   33.7790   47.5450 C   0  0  0  0  0  0  0  0  0  0  0  0
   63.7620   32.5030   47.5280 C   0  0  0  0  0  0  0  0  0  0  0  0
   62.9430   31.3720   47.5120 C   0  0  0  0  0  0  0  0  0  0  0  0
   61.5430   31.5040   47.5240 C   0  0  0  0  0  0  0  0  0  0  0  0
   60.7060   30.2800   47.5020 C   0  0  0  0  0  0  0  0  0  0  0  0
   59.9750   30.0170   48.4940 O   0  0  0  0  0  0  0  0  0  0  0  0
   60.7350   29.3560   46.4080 N   0  0  0  0  0  0  0  0  0  0  0  0
   59.7360   28.3720   46.1110 C   0  0  0  0  0  0  0  0  0  0  0  0
   59.4550   27.9770   44.7920 C   0  0  0  0  0  0  0  0  0  0  0  0
   58.4560   27.0360   44.5340 C   0  0  0  0  0  0  0  0  0  0  0  0
   57.7170   26.4800   45.5880 C   0  0  0  0  0  0  0  0  0  0  0  0
   56.6470   25.4540   45.3200 C   0  0  0  0  0  0  0  0  0  0  0  0
   57.2210   24.2650   44.6750 N   0  0  0  0  0  0  0  0  0  0  0  0
   56.7120   23.8080   43.3730 C   0  0  0  0  0  0  0  0  0  0  0  0
   56.7360   22.3010   43.2850 C   0  0  0  0  0  0  0  0  0  0  0  0
   55.9050   21.7250   42.6010 O   0  0  0  0  0  0  0  0  0  0  0  0
   57.7870   21.4920   44.0060 C   0  0  0  0  0  0  0  0  0  0  0  0
   58.9060   22.3720   44.5790 C   0  0  0  0  0  0  0  0  0  0  0  0
   58.3270   23.5650   45.2760 C   0  0  0  0  0  0  0  0  0  0  0  0
   58.8270   23.9580   46.3650 O   0  0  0  0  0  0  0  0  0  0  0  0
   57.9960   26.8770   46.9060 C   0  0  0  0  0  0  0  0  0  0  0  0
   58.9890   27.8290   47.1620 C   0  0  0  0  0  0  0  0  0  0  0  0
   57.7360   31.2010   45.6180 C   0  0  0  0  0  0  0  0  0  0  0  0
   57.1350   30.2050   44.8420 C   0  0  0  0  0  0  0  0  0  0  0  0
   55.8565   28.5733   43.2742 H   0  0  0  0  0  0  0  0  0  0  0  0
   55.5354   29.7844   41.9870 H   0  0  0  0  0  0  0  0  0  0  0  0
   57.0760   28.8607   41.9870 H   0  0  0  0  0  0  0  0  0  0  0  0
   57.2768   31.7351   41.7858 H   0  0  0  0  0  0  0  0  0  0  0  0
   58.3312   33.5184   43.1758 H   0  0  0  0  0  0  0  0  0  0  0  0
   61.3653   34.9330   47.5405 H   0  0  0  0  0  0  0  0  0  0  0  0
   63.8434   34.6680   47.5663 H   0  0  0  0  0  0  0  0  0  0  0  0
   64.8560   32.3881   47.5272 H   0  0  0  0  0  0  0  0  0  0  0  0
   63.3965   30.3701   47.4898 H   0  0  0  0  0  0  0  0  0  0  0  0
   60.0253   28.4116   43.9578 H   0  0  0  0  0  0  0  0  0  0  0  0
   58.2477   26.7293   43.4984 H   0  0  0  0  0  0  0  0  0  0  0  0
   56.1817   25.1596   46.2723 H   0  0  0  0  0  0  0  0  0  0  0  0
   55.8944   25.8933   44.6487 H   0  0  0  0  0  0  0  0  0  0  0  0
   55.6774   24.1599   43.2469 H   0  0  0  0  0  0  0  0  0  0  0  0
   57.3557   24.2170   42.5803 H   0  0  0  0  0  0  0  0  0  0  0  0
   57.3082   20.9457   44.8320 H   0  0  0  0  0  0  0  0  0  0  0  0
   58.2397   20.8025   43.2782 H   0  0  0  0  0  0  0  0  0  0  0  0
   59.4975   21.7846   45.2967 H   0  0  0  0  0  0  0  0  0  0  0  0
   59.5466   22.7168   43.7540 H   0  0  0  0  0  0  0  0  0  0  0  0
   57.4311   26.4373   47.7412 H   0  0  0  0  0  0  0  0  0  0  0  0
   59.1834   28.1523   48.1953 H   0  0  0  0  0  0  0  0  0  0  0  0
   57.8708   31.0470   46.6988 H   0  0  0  0  0  0  0  0  0  0  0  0
   56.8059   29.2672   45.3134 H   0  0  0  0  0  0  0  0  0  0  0  0
  1  2  1  0
  2  3  2  0
  3  4  1  0
  4  5  2  0
  5  6  1  0
  6  7  2  0
  6  8  2  0
  6  9  1  0
  9 10  1  0
 10 11  2  0
 11 12  1  0
 12 13  2  0
 13 14  1  0
 14 15  2  0
 15 16  1  0
 16 17  2  0
 16 18  1  0
 18 19  1  0
 19 20  2  0
 20 21  1  0
 21 22  2  0
 22 23  1  0
 23 24  1  0
 24 25  1  0
 25 26  1  0
 26 27  2  0
 26 28  1  0
 28 29  1  0
 29 30  1  0
 30 31  2  0
 22 32  1  0
 32 33  2  0
  5 34  1  0
 34 35  2  0
 35  2  1  0
 15 10  1  0
 33 19  1  0
 30 24  1  0
  1 36  1  0
  1 37  1  0
  1 38  1  0
  3 39  1  0
  4 40  1  0
 11 41  1  0
 12 42  1  0
 13 43  1  0
 14 44  1  0
 20 45  1  0
 21 46  1  0
 23 47  1  0
 23 48  1  0
 25 49  1  0
 25 50  1  0
 28 51  1  0
 28 52  1  0
 29 53  1  0
 29 54  1  0
 32 55  1  0
 33 56  1  0
 34 57  1  0
 35 58  1  0
M  CHG  2   9  -1  18  -1
M  END
>  <UniqueID>  (82) 
73

>  <SMILES>  (82) 
Cc1ccc(S(=O)(=O)[N-]c2ccccc2C(=O)[N-]c2ccc(CN3CC(=O)CCC3=O)cc2)cc1

>  <Energy>  (82) 
74.12655709216789

>  <Genealogy>  (82) 
Cc1ccc(S(=O)(=O)[N-]c2ccccc2C(=O)[N-]c2ccc(CN3CC(=O)CCC3=O)cc2)cc1 (protonated)
Cc1ccc(S(=O)(=O)[N-]c2ccccc2C(=O)[N-]c2ccc(CN3CC(=O)CCC3=O)cc2)cc1 (3D coordinates assigned)
Cc1ccc(S(=O)(=O)[N-]c2ccccc2C(=O)[N-]c2ccc(CN3CC(=O)CCC3=O)cc2)cc1 (nonaromatic ring conformer: 74.12655709216789 kcal/mol)

>  <smiles>  (82) 
Cc1ccc(S(=O)(=O)Nc2ccccc2C(=O)Nc2ccc(CN3CC(=O)CCC3=O)cc2)cc1

>  <score_type>  (82) 
oracle

>  <origin>  (82) 
adg

>  <m_score__min__energy>  (82) 
-13.85

>  <m_primary>  (82) 
energy

$$$$
82:0
     RDKit          3D

 45 47  0  0  0  0  0  0  0  0999 V2000
   59.3060   22.2090   44.8110 C   0  0  0  0  0  0  0  0  0  0  0  0
   59.2130   23.4490   45.5050 O   0  0  0  0  0  0  0  0  0  0  0  0
   58.0420   24.2140   45.6070 C   0  0  0  0  0  0  0  0  0  0  0  0
   56.8160   23.5860   45.3690 C   0  0  0  0  0  0  0  0  0  0  0  0
   55.6210   24.3010   45.4740 C   0  0  0  0  0  0  0  0  0  0  0  0
   55.6380   25.6580   45.8080 C   0  0  0  0  0  0  0  0  0  0  0  0
   54.4320   26.3290   45.9700 O   0  0  0  0  0  0  0  0  0  0  0  0
   56.8680   26.3150   46.0100 C   0  0  0  0  0  0  0  0  0  0  0  0
   56.9380   27.7050   46.3600 N   0  0  0  0  0  0  0  0  0  0  0  0
   56.6290   28.7990   45.4870 C   0  0  0  0  0  0  0  0  0  0  0  0
   55.5250   28.8230   44.8770 O   0  0  0  0  0  0  0  0  0  0  0  0
   57.6280   29.8700   45.2620 C   0  0  0  0  0  0  0  0  0  0  0  0
   57.2640   31.0850   44.8360 C   0  0  0  0  0  0  0  0  0  0  0  0
   58.3240   32.1110   44.5480 C   0  0  0  0  0  0  0  0  0  0  0  0
   59.3810   32.1480   45.5880 N   0  0  0  0  0  0  0  0  0  0  0  0
   59.0340   33.3790   46.7810 S   0  0  0  0  0  0  0  0  0  0  0  0
   58.6700   34.6600   46.0820 O   0  0  0  0  0  0  0  0  0  0  0  0
   57.8820   32.9430   47.6450 O   0  0  0  0  0  0  0  0  0  0  0  0
   60.4410   33.6310   47.8090 C   0  0  0  0  0  0  0  0  0  0  0  0
   61.7240   33.6360   47.2440 C   0  0  0  0  0  0  0  0  0  0  0  0
   62.8470   33.8370   48.0530 C   0  0  0  0  0  0  0  0  0  0  0  0
   62.6930   34.0300   49.4290 C   0  0  0  0  0  0  0  0  0  0  0  0
   61.4160   34.0210   49.9970 C   0  0  0  0  0  0  0  0  0  0  0  0
   60.2910   33.8210   49.1900 C   0  0  0  0  0  0  0  0  0  0  0  0
   59.6790   30.8480   46.2480 C   0  0  0  0  0  0  0  0  0  0  0  0
   59.0960   29.6350   45.5050 C   0  0  0  0  0  0  0  0  0  0  0  0
   58.0610   25.5840   45.9370 C   0  0  0  0  0  0  0  0  0  0  0  0
   59.3677   21.3857   45.5379 H   0  0  0  0  0  0  0  0  0  0  0  0
   58.4154   22.0746   44.1795 H   0  0  0  0  0  0  0  0  0  0  0  0
   60.2067   22.2089   44.1795 H   0  0  0  0  0  0  0  0  0  0  0  0
   56.7923   22.5204   45.0969 H   0  0  0  0  0  0  0  0  0  0  0  0
   54.6619   23.7938   45.2930 H   0  0  0  0  0  0  0  0  0  0  0  0
   56.2006   31.3303   44.6980 H   0  0  0  0  0  0  0  0  0  0  0  0
   58.7902   31.8736   43.5804 H   0  0  0  0  0  0  0  0  0  0  0  0
   57.8371   33.0973   44.5332 H   0  0  0  0  0  0  0  0  0  0  0  0
   61.8477   33.4815   46.1620 H   0  0  0  0  0  0  0  0  0  0  0  0
   63.8522   33.8432   47.6063 H   0  0  0  0  0  0  0  0  0  0  0  0
   63.5767   34.1889   50.0645 H   0  0  0  0  0  0  0  0  0  0  0  0
   61.2954   34.1714   51.0800 H   0  0  0  0  0  0  0  0  0  0  0  0
   59.2871   33.8128   49.6396 H   0  0  0  0  0  0  0  0  0  0  0  0
   60.7710   30.7291   46.3056 H   0  0  0  0  0  0  0  0  0  0  0  0
   59.2091   30.8748   47.2422 H   0  0  0  0  0  0  0  0  0  0  0  0
   59.6137   29.5078   44.5428 H   0  0  0  0  0  0  0  0  0  0  0  0
   59.2325   28.7267   46.1103 H   0  0  0  0  0  0  0  0  0  0  0  0
   59.0201   26.0834   46.1389 H   0  0  0  0  0  0  0  0  0  0  0  0
  1  2  1  0
  2  3  1  0
  3  4  2  0
  4  5  1  0
  5  6  2  0
  6  7  1  0
  6  8  1  0
  8  9  1  0
  9 10  1  0
 10 11  2  0
 10 12  1  0
 12 13  2  0
 13 14  1  0
 14 15  1  0
 15 16  1  0
 16 17  2  0
 16 18  2  0
 16 19  1  0
 19 20  2  0
 20 21  1  0
 21 22  2  0
 22 23  1  0
 23 24  2  0
 15 25  1  0
 25 26  1  0
  8 27  2  0
 27  3  1  0
 26 12  1  0
 24 19  1  0
  1 28  1  0
  1 29  1  0
  1 30  1  0
  4 31  1  0
  5 32  1  0
 13 33  1  0
 14 34  1  0
 14 35  1  0
 20 36  1  0
 21 37  1  0
 22 38  1  0
 23 39  1  0
 24 40  1  0
 25 41  1  0
 25 42  1  0
 26 43  1  0
 26 44  1  0
 27 45  1  0
M  CHG  2   7  -1   9  -1
M  END
>  <UniqueID>  (83) 
74

>  <SMILES>  (83) 
COc1ccc([O-])c([N-]C(=O)C2=CCN(S(=O)(=O)c3ccccc3)CC2)c1

>  <Energy>  (83) 
59.688535678716256

>  <Genealogy>  (83) 
COc1ccc([O-])c([N-]C(=O)C2=CCN(S(=O)(=O)c3ccccc3)CC2)c1 (protonated)
COc1ccc([O-])c([N-]C(=O)C2=CCN(S(=O)(=O)c3ccccc3)CC2)c1 (3D coordinates assigned)
COc1ccc([O-])c([N-]C(=O)C2=CCN(S(=O)(=O)c3ccccc3)CC2)c1 (nonaromatic ring conformer: 59.688535678716256 kcal/mol)

>  <smiles>  (83) 
COc1ccc(O)c(NC(=O)C2=CCN(S(=O)(=O)c3ccccc3)CC2)c1

>  <score_type>  (83) 
oracle

>  <origin>  (83) 
adg

>  <m_score__min__energy>  (83) 
-14.890000000000001

>  <m_primary>  (83) 
energy

$$$$
83:0
     RDKit          3D

 44 46  0  0  0  0  0  0  0  0999 V2000
   55.7880   29.3140   45.8230 H   0  0  0  0  0  0  0  0  0  0  0  0
   55.4970   29.0030   44.8690 N   0  0  0  0  0  0  0  0  0  0  0  0
   56.7680   29.4280   43.7690 S   0  0  0  0  0  0  0  0  0  0  0  0
   57.8150   28.3500   43.7460 O   0  0  0  0  0  0  0  0  0  0  0  0
   56.1850   29.5700   42.3880 O   0  0  0  0  0  0  0  0  0  0  0  0
   57.5010   30.9480   44.2930 C   0  0  0  0  0  0  0  0  0  0  0  0
   57.9090   31.1230   45.6250 C   0  0  0  0  0  0  0  0  0  0  0  0
   57.7280   30.0910   46.5550 O   0  0  0  0  0  0  0  0  0  0  0  0
   58.7810   29.3970   47.1530 C   0  0  0  0  0  0  0  0  0  0  0  0
   59.9600   29.8500   47.0950 O   0  0  0  0  0  0  0  0  0  0  0  0
   58.5720   28.0950   47.6950 N   0  0  0  0  0  0  0  0  0  0  0  0
   58.2710   26.9170   46.9320 C   0  0  0  0  0  0  0  0  0  0  0  0
   56.9630   26.7400   46.4740 C   0  0  0  0  0  0  0  0  0  0  0  0
   56.1753   27.4460   46.7759 H   0  0  0  0  0  0  0  0  0  0  0  0
   56.6530   25.6650   45.6310 C   0  0  0  0  0  0  0  0  0  0  0  0
   55.6244   25.5384   45.2622 H   0  0  0  0  0  0  0  0  0  0  0  0
   57.6420   24.7530   45.2560 C   0  0  0  0  0  0  0  0  0  0  0  0
   57.3909   23.9095   44.5962 H   0  0  0  0  0  0  0  0  0  0  0  0
   58.9470   24.9120   45.7180 C   0  0  0  0  0  0  0  0  0  0  0  0
   59.7228   24.1857   45.4339 H   0  0  0  0  0  0  0  0  0  0  0  0
   59.2720   25.9960   46.5440 C   0  0  0  0  0  0  0  0  0  0  0  0
   60.5640   26.1610   46.9170 F   0  0  0  0  0  0  0  0  0  0  0  0
   58.4680   32.3050   46.0130 N   0  0  0  0  0  0  0  0  0  0  0  0
   58.6760   33.3370   45.1520 C   0  0  0  0  0  0  0  0  0  0  0  0
   59.1680   34.4490   45.6250 N   0  0  0  0  0  0  0  0  0  0  0  0
   59.4900   34.7320   47.0210 C   0  0  0  0  0  0  0  0  0  0  0  0
   59.8139   35.7786   47.1196 H   0  0  0  0  0  0  0  0  0  0  0  0
   58.6008   34.5678   47.6474 H   0  0  0  0  0  0  0  0  0  0  0  0
   60.5970   33.8190   47.4640 C   0  0  0  0  0  0  0  0  0  0  0  0
   60.4150   32.9380   48.5430 C   0  0  0  0  0  0  0  0  0  0  0  0
   59.4504   32.9102   49.0710 H   0  0  0  0  0  0  0  0  0  0  0  0
   61.4570   32.0950   48.9490 C   0  0  0  0  0  0  0  0  0  0  0  0
   61.3012   31.3888   49.7778 H   0  0  0  0  0  0  0  0  0  0  0  0
   62.6910   32.1500   48.3040 C   0  0  0  0  0  0  0  0  0  0  0  0
   63.5081   31.4880   48.6266 H   0  0  0  0  0  0  0  0  0  0  0  0
   62.8940   33.0440   47.2480 C   0  0  0  0  0  0  0  0  0  0  0  0
   64.1390   33.1090   46.6370 O   0  0  0  0  0  0  0  0  0  0  0  0
   64.8010   32.3440   46.6950 H   0  0  0  0  0  0  0  0  0  0  0  0
   61.8440   33.8700   46.8190 C   0  0  0  0  0  0  0  0  0  0  0  0
   61.9976   34.5592   45.9755 H   0  0  0  0  0  0  0  0  0  0  0  0
   58.3280   33.1780   43.7980 C   0  0  0  0  0  0  0  0  0  0  0  0
   58.5173   33.9880   43.0782 H   0  0  0  0  0  0  0  0  0  0  0  0
   57.7390   31.9810   43.3740 C   0  0  0  0  0  0  0  0  0  0  0  0
   57.4620   31.8500   42.3175 H   0  0  0  0  0  0  0  0  0  0  0  0
  1  2  1  0
  2  3  1  0
  3  4  2  0
  3  5  2  0
  3  6  1  0
  6  7  2  0
  7  8  1  0
  8  9  1  0
  9 10  2  0
  9 11  1  0
 11 12  1  0
 12 13  2  0
 13 14  1  0
 13 15  1  0
 15 16  1  0
 15 17  2  0
 17 18  1  0
 17 19  1  0
 19 20  1  0
 19 21  2  0
 21 22  1  0
  7 23  1  0
 23 24  1  0
 24 25  2  0
 25 26  1  0
 26 27  1  0
 26 28  1  0
 26 29  1  0
 29 30  2  0
 30 31  1  0
 30 32  1  0
 32 33  1  0
 32 34  2  0
 34 35  1  0
 34 36  1  0
 36 37  1  0
 37 38  1  0
 36 39  2  0
 39 40  1  0
 24 41  1  0
 41 42  1  0
 41 43  2  0
 43 44  1  0
 43  6  1  0
 21 12  1  0
 39 29  1  0
M  CHG  3   2  -1  11  -1  23  -1
M  END
>  <UniqueID>  (84) 
75

>  <SMILES>  (84) 
[NH-]S(=O)(=O)c1cc/c(=N\Cc2cccc(O)c2)[n-]c1OC(=O)[N-]c1ccccc1F

>  <Energy>  (84) 
55.5400510494561

>  <Genealogy>  (84) 
[NH-]S(=O)(=O)c1ccc(=NCc2cccc(O)c2)[n-]c1OC(=O)[N-]c1ccccc1F (protonated)
[NH-]S(=O)(=O)c1cc/c(=N\Cc2cccc(O)c2)[n-]c1OC(=O)[N-]c1ccccc1F (cis-trans isomerization)
[NH-]S(=O)(=O)c1cc/c(=N\Cc2cccc(O)c2)[n-]c1OC(=O)[N-]c1ccccc1F (3D coordinates assigned)
[NH-]S(=O)(=O)c1cc/c(=N\Cc2cccc(O)c2)[n-]c1OC(=O)[N-]c1ccccc1F (optimized conformer: 55.5400510494561 kcal/mol)

>  <smiles>  (84) 
NS(=O)(=O)c1ccc(=NCc2cccc(O)c2)[nH]c1OC(=O)Nc1ccccc1F

>  <score_type>  (84) 
oracle

>  <origin>  (84) 
adg

>  <m_score__min__energy>  (84) 
-14.220000000000001

>  <m_primary>  (84) 
energy

$$$$
84:0
     RDKit          3D

 44 45  0  0  0  0  0  0  0  0999 V2000
   63.4310   33.8430   46.5550 C   0  0  0  0  0  0  0  0  0  0  0  0
   62.3050   33.2130   47.2720 C   0  0  0  0  0  0  0  0  0  0  0  0
   61.8230   33.8070   48.4190 C   0  0  0  0  0  0  0  0  0  0  0  0
   60.7600   33.1740   49.0590 C   0  0  0  0  0  0  0  0  0  0  0  0
   60.1550   33.7240   50.3080 C   0  0  0  0  0  0  0  0  0  0  0  0
   60.2720   32.0350   48.5310 N   0  0  0  0  0  0  0  0  0  0  0  0
   60.7580   31.4760   47.4160 C   0  0  0  0  0  0  0  0  0  0  0  0
   60.3050   30.3880   46.8950 N   0  0  0  0  0  0  0  0  0  0  0  0
   59.1830   29.7480   47.4720 C   0  0  0  0  0  0  0  0  0  0  0  0
   58.5750   30.1720   48.4880 O   0  0  0  0  0  0  0  0  0  0  0  0
   58.6880   28.4900   46.8350 C   0  0  0  0  0  0  0  0  0  0  0  0
   57.7580   28.7860   45.6940 C   0  0  0  0  0  0  0  0  0  0  0  0
   58.3110   29.7290   44.7780 N   0  0  0  0  0  0  0  0  0  0  0  0
   57.1420   30.5880   43.8480 S   0  0  0  0  0  0  0  0  0  0  0  0
   55.8680   30.7890   44.5950 O   0  0  0  0  0  0  0  0  0  0  0  0
   56.8880   29.7600   42.6050 O   0  0  0  0  0  0  0  0  0  0  0  0
   57.8060   32.1710   43.4140 C   0  0  0  0  0  0  0  0  0  0  0  0
   58.1260   32.9730   44.6280 C   0  0  0  0  0  0  0  0  0  0  0  0
   57.4990   32.7010   45.8340 C   0  0  0  0  0  0  0  0  0  0  0  0
   57.8290   33.4710   46.9320 C   0  0  0  0  0  0  0  0  0  0  0  0
   58.7600   34.4950   46.8430 C   0  0  0  0  0  0  0  0  0  0  0  0
   59.3670   34.7370   45.6150 C   0  0  0  0  0  0  0  0  0  0  0  0
   59.0670   33.9930   44.5040 C   0  0  0  0  0  0  0  0  0  0  0  0
   61.7880   32.0780   46.7830 N   0  0  0  0  0  0  0  0  0  0  0  0
   64.1503   34.2455   47.2834 H   0  0  0  0  0  0  0  0  0  0  0  0
   63.9294   33.0927   45.9236 H   0  0  0  0  0  0  0  0  0  0  0  0
   63.0524   34.6603   45.9236 H   0  0  0  0  0  0  0  0  0  0  0  0
   62.2580   34.7383   48.8108 H   0  0  0  0  0  0  0  0  0  0  0  0
   60.6484   33.2754   51.1828 H   0  0  0  0  0  0  0  0  0  0  0  0
   60.2895   34.8155   50.3308 H   0  0  0  0  0  0  0  0  0  0  0  0
   59.0812   33.4864   50.3308 H   0  0  0  0  0  0  0  0  0  0  0  0
   59.4790   31.5810   49.0280 H   0  0  0  0  0  0  0  0  0  0  0  0
   59.5478   27.9172   46.4572 H   0  0  0  0  0  0  0  0  0  0  0  0
   58.1370   27.9114   47.5910 H   0  0  0  0  0  0  0  0  0  0  0  0
   57.5491   27.8499   45.1555 H   0  0  0  0  0  0  0  0  0  0  0  0
   56.8386   29.2214   46.1124 H   0  0  0  0  0  0  0  0  0  0  0  0
   59.0780   30.3170   45.1150 H   0  0  0  0  0  0  0  0  0  0  0  0
   58.7252   32.0258   42.8275 H   0  0  0  0  0  0  0  0  0  0  0  0
   57.0522   32.7152   42.8261 H   0  0  0  0  0  0  0  0  0  0  0  0
   56.7575   31.8925   45.9144 H   0  0  0  0  0  0  0  0  0  0  0  0
   57.3430   33.2677   47.8977 H   0  0  0  0  0  0  0  0  0  0  0  0
   59.0130   35.1027   47.7243 H   0  0  0  0  0  0  0  0  0  0  0  0
   60.1071   35.5467   45.5336 H   0  0  0  0  0  0  0  0  0  0  0  0
   59.5562   34.1957   43.5398 H   0  0  0  0  0  0  0  0  0  0  0  0
  1  2  1  0
  2  3  1  0
  3  4  2  0
  4  5  1  0
  4  6  1  0
  6  7  1  0
  7  8  2  3
  8  9  1  0
  9 10  2  0
  9 11  1  0
 11 12  1  0
 12 13  1  0
 13 14  1  0
 14 15  2  0
 14 16  2  0
 14 17  1  0
 17 18  1  0
 18 19  2  0
 19 20  1  0
 20 21  2  0
 21 22  1  0
 22 23  2  0
  7 24  1  0
 24  2  2  0
 23 18  1  0
  1 25  1  0
  1 26  1  0
  1 27  1  0
  3 28  1  0
  5 29  1  0
  5 30  1  0
  5 31  1  0
  6 32  1  0
 11 33  1  0
 11 34  1  0
 12 35  1  0
 12 36  1  0
 13 37  1  0
 17 38  1  0
 17 39  1  0
 19 40  1  0
 20 41  1  0
 21 42  1  0
 22 43  1  0
 23 44  1  0
M  END
>  <smiles>  (85) 
Cc1cc(C)[nH]c(=NC(=O)CCNS(=O)(=O)Cc2ccccc2)n1

>  <score_type>  (85) 
oracle

>  <origin>  (85) 
adg

>  <m_score__min__energy>  (85) 
-7.9299999999999997

>  <m_primary>  (85) 
energy

$$$$
85:0
     RDKit          3D

 37 39  0  0  1  0  0  0  0  0999 V2000
   55.5900   29.8320   43.6610 C   0  0  0  0  0  0  0  0  0  0  0  0
   55.3750   28.8630   44.6720 O   0  0  0  0  0  0  0  0  0  0  0  0
   56.3990   28.3150   45.4170 C   0  0  0  0  0  0  0  0  0  0  0  0
   57.6240   28.9770   45.6180 C   0  0  0  0  0  0  0  0  0  0  0  0
   58.5870   28.3690   46.3690 C   0  0  0  0  0  0  0  0  0  0  0  0
   59.7870   28.9920   46.5780 C   0  0  0  0  0  0  0  0  0  0  0  0
   60.0800   30.0990   46.1290 N   0  0  0  0  0  0  0  0  0  0  0  0
   59.7170   31.3640   46.4530 C   0  0  0  0  0  0  0  0  0  0  0  0
   60.4310   32.0780   47.4330 C   0  0  0  0  0  0  0  0  0  0  0  0
   60.1380   33.3950   47.6910 C   0  0  0  0  0  0  0  0  0  0  0  0
   59.1420   34.0340   46.9940 C   0  0  0  0  0  0  0  0  0  0  0  0
   58.8080   35.3720   47.2200 O   0  0  0  0  0  0  0  0  0  0  0  0
   58.4430   33.3430   46.0350 C   0  0  0  0  0  0  0  0  0  0  0  0
   57.3610   34.0220   45.2710 C   0  0  0  0  0  0  0  0  0  0  0  0
   58.6900   32.0200   45.7320 C   0  0  0  0  0  0  0  0  0  0  0  0
   60.7250   28.3460   47.3360 N   0  0  0  0  0  0  0  0  0  0  0  0
   60.5200   27.1400   47.8770 C   0  0  0  0  0  0  0  0  0  0  0  0
   59.3540   26.5110   47.6860 N   0  0  0  0  0  0  0  0  0  0  0  0
   58.4140   27.1400   46.9360 C   0  0  0  0  0  0  0  0  0  0  0  0
   57.2370   26.4880   46.7510 C   0  0  0  0  0  0  0  0  0  0  0  0
   56.2680   27.0970   45.9990 C   0  0  0  0  0  0  0  0  0  0  0  0
   55.0740   26.4190   45.8190 O   0  0  0  0  0  0  0  0  0  0  0  0
   55.8059   30.8053   44.1259 H   0  0  0  0  0  0  0  0  0  0  0  0
   56.4423   29.5270   43.0361 H   0  0  0  0  0  0  0  0  0  0  0  0
   54.6887   29.9161   43.0361 H   0  0  0  0  0  0  0  0  0  0  0  0
   57.8024   29.9687   45.1768 H   0  0  0  0  0  0  0  0  0  0  0  0
   61.2311   31.5770   47.9976 H   0  0  0  0  0  0  0  0  0  0  0  0
   60.7042   33.9408   48.4601 H   0  0  0  0  0  0  0  0  0  0  0  0
   59.5690   36.0230   47.3040 H   0  0  0  0  0  0  0  0  0  0  0  0
   56.6436   34.4722   45.9728 H   0  0  0  0  0  0  0  0  0  0  0  0
   57.7973   34.8085   44.6378 H   0  0  0  0  0  0  0  0  0  0  0  0
   56.8425   33.2870   44.6378 H   0  0  0  0  0  0  0  0  0  0  0  0
   58.1105   31.4942   44.9589 H   0  0  0  0  0  0  0  0  0  0  0  0
   61.6590   28.7830   47.5260 H   0  0  0  0  0  0  0  0  0  0  0  0
   61.3092   26.6654   48.4786 H   0  0  0  0  0  0  0  0  0  0  0  0
   57.0664   25.4957   47.1941 H   0  0  0  0  0  0  0  0  0  0  0  0
   54.3790   26.7190   45.1710 H   0  0  0  0  0  0  0  0  0  0  0  0
  1  2  1  0
  2  3  1  0
  3  4  2  0
  4  5  1  0
  5  6  1  0
  6  7  2  0
  7  8  1  0
  8  9  2  0
  9 10  1  0
 10 11  2  0
 11 12  1  0
 11 13  1  0
 13 14  1  0
 13 15  2  0
  6 16  1  0
 16 17  1  0
 17 18  2  0
 18 19  1  0
 19 20  1  0
 20 21  2  0
 21 22  1  0
 21  3  1  0
 19  5  2  0
 15  8  1  0
  1 23  1  0
  1 24  1  0
  1 25  1  0
  4 26  1  0
  9 27  1  0
 10 28  1  0
 12 29  1  0
 14 30  1  0
 14 31  1  0
 14 32  1  0
 15 33  1  0
 16 34  1  0
 17 35  1  0
 20 36  1  0
 22 37  1  0
M  END
>  <smiles>  (86) 
COc1cc2c(=Nc3ccc(O)c(C)c3)[nH]cnc2cc1O

>  <score_type>  (86) 
oracle

>  <origin>  (86) 
adg

>  <m_score__min__energy>  (86) 
-7.0899999999999999

>  <m_primary>  (86) 
energy

$$$$
86:0
     RDKit          3D

 65 68  0  0  0  0  0  0  0  0999 V2000
   57.8240   31.8990   43.1910 C   0  0  0  0  0  0  0  0  0  0  0  0
   57.7570   31.7730   44.6570 C   0  0  0  0  0  0  0  0  0  0  0  0
   56.9760   30.9410   45.1780 O   0  0  0  0  0  0  0  0  0  0  0  0
   58.5990   32.6160   45.5000 N   0  0  0  0  0  0  0  0  0  0  0  0
   58.4500   32.4070   46.9030 C   0  0  0  0  0  0  0  0  0  0  0  0
   59.0530   33.3860   47.8410 C   0  0  0  0  0  0  0  0  0  0  0  0
   60.4850   33.3800   48.0690 C   0  0  0  0  0  0  0  0  0  0  0  0
   61.1510   32.8800   49.1700 C   0  0  0  0  0  0  0  0  0  0  0  0
   60.5460   32.5380   50.4410 C   0  0  0  0  0  0  0  0  0  0  0  0
   59.3350   31.9560   50.6590 C   0  0  0  0  0  0  0  0  0  0  0  0
   58.7540   31.7550   51.9110 C   0  0  0  0  0  0  0  0  0  0  0  0
   57.4500   31.1190   52.0480 C   0  0  0  0  0  0  0  0  0  0  0  0
   57.3570   29.7550   52.2450 C   0  0  0  0  0  0  0  0  0  0  0  0
   56.1570   29.1280   52.3760 N   0  0  0  0  0  0  0  0  0  0  0  0
   61.2720   33.8740   47.0070 C   0  0  0  0  0  0  0  0  0  0  0  0
   53.8440   29.2920   52.4340 N   0  0  0  0  0  0  0  0  0  0  0  0
   55.0600   31.1880   52.1220 N   0  0  0  0  0  0  0  0  0  0  0  0
   56.2600   31.8160   51.9920 C   0  0  0  0  0  0  0  0  0  0  0  0
   59.4100   32.1560   53.0450 C   0  0  0  0  0  0  0  0  0  0  0  0
   60.6360   32.7480   52.8720 C   0  0  0  0  0  0  0  0  0  0  0  0
   61.2140   32.9480   51.6160 C   0  0  0  0  0  0  0  0  0  0  0  0
   62.4460   33.5600   51.6210 O   0  0  0  0  0  0  0  0  0  0  0  0
   63.4820   33.0940   52.4450 C   0  0  0  0  0  0  0  0  0  0  0  0
   64.7820   32.8500   51.7610 C   0  0  0  0  0  0  0  0  0  0  0  0
   65.3110   34.0030   50.9750 C   0  0  0  0  0  0  0  0  0  0  0  0
   66.7870   33.7360   50.7120 C   0  0  0  0  0  0  0  0  0  0  0  0
   66.8470   32.5400   49.8830 N   0  0  0  0  0  0  0  0  0  0  0  0
   66.2670   31.3990   50.5210 C   0  0  0  0  0  0  0  0  0  0  0  0
   64.8140   31.6040   50.9390 C   0  0  0  0  0  0  0  0  0  0  0  0
   62.5180   32.9000   49.1270 N   0  0  0  0  0  0  0  0  0  0  0  0
   63.2220   33.3750   48.0960 C   0  0  0  0  0  0  0  0  0  0  0  0
   64.5250   33.3780   48.0580 N   0  0  0  0  0  0  0  0  0  0  0  0
   62.6060   33.8690   47.0220 N   0  0  0  0  0  0  0  0  0  0  0  0
   55.0030   29.8540   52.3130 C   0  0  0  0  0  0  0  0  0  0  0  0
   60.7340   34.3590   45.9720 O   0  0  0  0  0  0  0  0  0  0  0  0
   58.3253   32.8417   42.9265 H   0  0  0  0  0  0  0  0  0  0  0  0
   58.3914   31.0530   42.7758 H   0  0  0  0  0  0  0  0  0  0  0  0
   56.8054   31.8964   42.7758 H   0  0  0  0  0  0  0  0  0  0  0  0
   59.1990   33.2550   44.9820 H   0  0  0  0  0  0  0  0  0  0  0  0
   57.3705   32.3812   47.1129 H   0  0  0  0  0  0  0  0  0  0  0  0
   59.0081   31.4785   47.0937 H   0  0  0  0  0  0  0  0  0  0  0  0
   58.7948   34.3871   47.4654 H   0  0  0  0  0  0  0  0  0  0  0  0
   58.6389   33.0917   48.8167 H   0  0  0  0  0  0  0  0  0  0  0  0
   58.7699   31.6174   49.7781 H   0  0  0  0  0  0  0  0  0  0  0  0
   58.2798   29.1587   52.2975 H   0  0  0  0  0  0  0  0  0  0  0  0
   53.6580   28.3900   51.9320 H   0  0  0  0  0  0  0  0  0  0  0  0
   54.2090   31.7900   52.0660 H   0  0  0  0  0  0  0  0  0  0  0  0
   56.2823   32.9050   51.8386 H   0  0  0  0  0  0  0  0  0  0  0  0
   58.9754   32.0106   54.0450 H   0  0  0  0  0  0  0  0  0  0  0  0
   61.1888   33.0802   53.7631 H   0  0  0  0  0  0  0  0  0  0  0  0
   63.6492   33.8409   53.2350 H   0  0  0  0  0  0  0  0  0  0  0  0
   63.1509   32.1159   52.8240 H   0  0  0  0  0  0  0  0  0  0  0  0
   65.4659   32.7097   52.6111 H   0  0  0  0  0  0  0  0  0  0  0  0
   64.7687   34.0886   50.0218 H   0  0  0  0  0  0  0  0  0  0  0  0
   65.1793   34.9440   51.5293 H   0  0  0  0  0  0  0  0  0  0  0  0
   67.2396   34.5882   50.1838 H   0  0  0  0  0  0  0  0  0  0  0  0
   67.3410   33.5978   51.6522 H   0  0  0  0  0  0  0  0  0  0  0  0
   66.3740   32.7220   48.9730 H   0  0  0  0  0  0  0  0  0  0  0  0
   66.3112   30.5504   49.8225 H   0  0  0  0  0  0  0  0  0  0  0  0
   66.8436   31.2161   51.4397 H   0  0  0  0  0  0  0  0  0  0  0  0
   64.1754   31.7181   50.0507 H   0  0  0  0  0  0  0  0  0  0  0  0
   64.4381   30.7414   51.5088 H   0  0  0  0  0  0  0  0  0  0  0  0
   63.1000   32.4960   49.9030 H   0  0  0  0  0  0  0  0  0  0  0  0
   65.0550   32.6300   48.5400 H   0  0  0  0  0  0  0  0  0  0  0  0
   63.1590   34.2460   46.2100 H   0  0  0  0  0  0  0  0  0  0  0  0
  1  2  1  0
  2  3  2  0
  2  4  1  0
  4  5  1  0
  5  6  1  0
  6  7  1  0
  7  8  2  0
  8  9  1  0
  9 10  2  0
 10 11  1  0
 11 12  1  0
 12 13  1  0
 13 14  2  0
 14 15  1  0
 15 16  2  3
 15 17  1  0
 17 18  1  0
 11 19  2  0
 19 20  1  0
 20 21  2  0
 21 22  1  0
 22 23  1  0
 23 24  1  0
 24 25  1  0
 25 26  1  0
 26 27  1  0
 27 28  1  0
 28 29  1  0
  8 30  1  0
 30 31  1  0
 31 32  2  3
 31 33  1  0
 33 34  1  0
 34 35  2  0
 34  7  1  0
 21  9  1  0
 29 24  1  0
 18 12  2  0
  1 36  1  0
  1 37  1  0
  1 38  1  0
  4 39  1  0
  5 40  1  0
  5 41  1  0
  6 42  1  0
  6 43  1  0
 10 44  1  0
 13 45  1  0
 16 46  1  0
 17 47  1  0
 18 48  1  0
 19 49  1  0
 20 50  1  0
 23 51  1  0
 23 52  1  0
 24 53  1  0
 25 54  1  0
 25 55  1  0
 26 56  1  0
 26 57  1  0
 27 58  1  0
 28 59  1  0
 28 60  1  0
 29 61  1  0
 29 62  1  0
 30 63  1  0
 32 64  1  0
 33 65  1  0
M  END
>  <smiles>  (87) 
CC(=O)NCCc1c(-c2cc(-c3cnc(=N)[nH]c3)ccc2OCC2CCNCC2)[nH]c(=N)[nH]c1=O

>  <score_type>  (87) 
oracle

>  <origin>  (87) 
adg

>  <m_score__min__energy>  (87) 
-9.0099999999999998

>  <m_primary>  (87) 
energy

$$$$
87:0
     RDKit          3D

 40 42  0  0  0  0  0  0  0  0999 V2000
   60.0210   27.2480   45.0420 O   0  0  0  0  0  0  0  0  0  0  0  0
   58.8760   26.8630   45.4000 C   0  0  0  0  0  0  0  0  0  0  0  0
   58.0790   27.7060   46.3450 C   0  0  0  0  0  0  0  0  0  0  0  0
   58.3010   29.1360   46.0890 N   0  0  0  0  0  0  0  0  0  0  0  0
   57.7310   29.7460   44.9210 C   0  0  0  0  0  0  0  0  0  0  0  0
   58.4710   30.6840   44.1830 C   0  0  0  0  0  0  0  0  0  0  0  0
   57.9270   31.2710   43.0360 C   0  0  0  0  0  0  0  0  0  0  0  0
   56.6380   30.9260   42.6190 C   0  0  0  0  0  0  0  0  0  0  0  0
   55.8920   29.9970   43.3480 C   0  0  0  0  0  0  0  0  0  0  0  0
   56.4300   29.4090   44.4990 C   0  0  0  0  0  0  0  0  0  0  0  0
   55.6640   28.5050   45.2240 O   0  0  0  0  0  0  0  0  0  0  0  0
   58.9770   30.1610   47.3290 S   0  0  0  0  0  0  0  0  0  0  0  0
   58.1870   29.9810   48.5950 O   0  0  0  0  0  0  0  0  0  0  0  0
   60.4080   29.7770   47.5880 O   0  0  0  0  0  0  0  0  0  0  0  0
   58.9450   31.8490   46.8230 C   0  0  0  0  0  0  0  0  0  0  0  0
   57.7160   32.4960   46.6370 C   0  0  0  0  0  0  0  0  0  0  0  0
   57.6810   33.8440   46.2620 C   0  0  0  0  0  0  0  0  0  0  0  0
   58.8740   34.5470   46.0650 C   0  0  0  0  0  0  0  0  0  0  0  0
   60.1020   33.9020   46.2400 C   0  0  0  0  0  0  0  0  0  0  0  0
   60.1390   32.5560   46.6150 C   0  0  0  0  0  0  0  0  0  0  0  0
   58.3180   25.6270   44.9250 N   0  0  0  0  0  0  0  0  0  0  0  0
   57.2440   25.0300   45.3550 C   0  0  0  0  0  0  0  0  0  0  0  0
   56.0280   25.6130   45.3030 N   0  0  0  0  0  0  0  0  0  0  0  0
   55.0530   24.8290   45.8380 C   0  0  0  0  0  0  0  0  0  0  0  0
   55.4930   23.6030   46.3250 C   0  0  0  0  0  0  0  0  0  0  0  0
   57.1570   23.5090   46.0800 S   0  0  0  0  0  0  0  0  0  0  0  0
   57.0104   27.4790   46.2162 H   0  0  0  0  0  0  0  0  0  0  0  0
   58.3994   27.4797   47.3727 H   0  0  0  0  0  0  0  0  0  0  0  0
   59.4850   30.9588   44.5091 H   0  0  0  0  0  0  0  0  0  0  0  0
   58.5132   32.0039   42.4622 H   0  0  0  0  0  0  0  0  0  0  0  0
   56.2109   31.3866   41.7160 H   0  0  0  0  0  0  0  0  0  0  0  0
   54.8786   29.7265   43.0167 H   0  0  0  0  0  0  0  0  0  0  0  0
   56.7767   31.9433   46.7860 H   0  0  0  0  0  0  0  0  0  0  0  0
   56.7148   34.3508   46.1221 H   0  0  0  0  0  0  0  0  0  0  0  0
   58.8461   35.6070   45.7725 H   0  0  0  0  0  0  0  0  0  0  0  0
   61.0401   34.4544   46.0824 H   0  0  0  0  0  0  0  0  0  0  0  0
   61.1066   32.0497   46.7474 H   0  0  0  0  0  0  0  0  0  0  0  0
   55.8500   26.5610   44.9050 H   0  0  0  0  0  0  0  0  0  0  0  0
   53.9990   25.1407   45.8819 H   0  0  0  0  0  0  0  0  0  0  0  0
   54.8640   22.8293   46.7894 H   0  0  0  0  0  0  0  0  0  0  0  0
  1  2  2  0
  2  3  1  0
  3  4  1  0
  4  5  1  0
  5  6  2  0
  6  7  1  0
  7  8  2  0
  8  9  1  0
  9 10  2  0
 10 11  1  0
  4 12  1  0
 12 13  2  0
 12 14  2  0
 12 15  1  0
 15 16  2  0
 16 17  1  0
 17 18  2  0
 18 19  1  0
 19 20  2  0
  2 21  1  0
 21 22  2  3
 22 23  1  0
 23 24  1  0
 24 25  2  0
 25 26  1  0
 10  5  1  0
 20 15  1  0
 26 22  1  0
  3 27  1  0
  3 28  1  0
  6 29  1  0
  7 30  1  0
  8 31  1  0
  9 32  1  0
 16 33  1  0
 17 34  1  0
 18 35  1  0
 19 36  1  0
 20 37  1  0
 23 38  1  0
 24 39  1  0
 25 40  1  0
M  CHG  1  11  -1
M  END
>  <UniqueID>  (88) 
76

>  <SMILES>  (88) 
O=C(CN(c1ccccc1[O-])S(=O)(=O)c1ccccc1)N=c1[nH]ccs1

>  <Energy>  (88) 
79.10940582890257

>  <Genealogy>  (88) 
O=C(CN(c1ccccc1[O-])S(=O)(=O)c1ccccc1)N=c1[nH]ccs1 (protonated)
O=C(CN(c1ccccc1[O-])S(=O)(=O)c1ccccc1)N=c1[nH]ccs1 (3D coordinates assigned)
O=C(CN(c1ccccc1[O-])S(=O)(=O)c1ccccc1)N=c1[nH]ccs1 (optimized conformer: 79.10940582890257 kcal/mol)

>  <smiles>  (88) 
O=C(CN(c1ccccc1O)S(=O)(=O)c1ccccc1)N=c1[nH]ccs1

>  <score_type>  (88) 
oracle

>  <origin>  (88) 
adg

>  <m_score__min__energy>  (88) 
-11.98

>  <m_primary>  (88) 
energy

$$$$
88:0
     RDKit          3D

 51 54  0  0  0  0  0  0  0  0999 V2000
   57.1710   30.4320   51.2060 O   0  0  0  0  0  0  0  0  0  0  0  0
   58.1580   30.7920   50.5080 C   0  0  0  0  0  0  0  0  0  0  0  0
   58.4580   32.1870   50.3560 N   0  0  0  0  0  0  0  0  0  0  0  0
   58.8910   32.8350   49.1510 C   0  0  0  0  0  0  0  0  0  0  0  0
   58.2440   32.6130   47.9220 C   0  0  0  0  0  0  0  0  0  0  0  0
   58.7320   33.1940   46.7390 C   0  0  0  0  0  0  0  0  0  0  0  0
   58.0760   32.8960   45.4510 C   0  0  0  0  0  0  0  0  0  0  0  0
   58.1940   33.6910   44.4790 O   0  0  0  0  0  0  0  0  0  0  0  0
   57.3400   31.7160   45.3080 O   0  0  0  0  0  0  0  0  0  0  0  0
   57.5100   30.8180   44.2160 C   0  0  0  0  0  0  0  0  0  0  0  0
   57.5670   29.4210   44.7450 C   0  0  0  0  0  0  0  0  0  0  0  0
   58.6800   28.7410   44.9140 O   0  0  0  0  0  0  0  0  0  0  0  0
   58.3660   27.5320   45.3230 C   0  0  0  0  0  0  0  0  0  0  0  0
   59.3050   26.5420   45.5900 O   0  0  0  0  0  0  0  0  0  0  0  0
   56.9930   27.3900   45.4330 C   0  0  0  0  0  0  0  0  0  0  0  0
   56.2330   26.1820   45.7910 C   0  0  0  0  0  0  0  0  0  0  0  0
   54.9900   26.2580   45.9840 O   0  0  0  0  0  0  0  0  0  0  0  0
   56.9160   24.9330   45.9510 N   0  0  0  0  0  0  0  0  0  0  0  0
   56.9440   23.8550   45.0030 C   0  0  0  0  0  0  0  0  0  0  0  0
   57.9330   22.8710   45.1330 C   0  0  0  0  0  0  0  0  0  0  0  0
   58.0120   21.8200   44.2120 C   0  0  0  0  0  0  0  0  0  0  0  0
   57.1110   21.7570   43.1450 C   0  0  0  0  0  0  0  0  0  0  0  0
   56.1370   22.7480   42.9940 C   0  0  0  0  0  0  0  0  0  0  0  0
   56.0550   23.7980   43.9140 C   0  0  0  0  0  0  0  0  0  0  0  0
   56.4870   28.6200   45.0620 C   0  0  0  0  0  0  0  0  0  0  0  0
   55.1460   28.9770   44.9940 O   0  0  0  0  0  0  0  0  0  0  0  0
   59.8790   34.0020   46.7940 C   0  0  0  0  0  0  0  0  0  0  0  0
   60.5250   34.2230   48.0120 C   0  0  0  0  0  0  0  0  0  0  0  0
   60.0430   33.6350   49.1840 C   0  0  0  0  0  0  0  0  0  0  0  0
   60.7130   33.8440   50.3840 O   0  0  0  0  0  0  0  0  0  0  0  0
   59.0320   29.7730   49.8820 C   0  0  0  0  0  0  0  0  0  0  0  0
   59.9710   29.0650   50.6550 C   0  0  0  0  0  0  0  0  0  0  0  0
   60.7860   28.0910   50.0660 C   0  0  0  0  0  0  0  0  0  0  0  0
   60.6690   27.8120   48.7030 C   0  0  0  0  0  0  0  0  0  0  0  0
   59.7400   28.5060   47.9250 C   0  0  0  0  0  0  0  0  0  0  0  0
   58.9250   29.4800   48.5080 C   0  0  0  0  0  0  0  0  0  0  0  0
   57.3466   31.9779   47.8864 H   0  0  0  0  0  0  0  0  0  0  0  0
   56.6626   30.9160   43.5215 H   0  0  0  0  0  0  0  0  0  0  0  0
   58.4417   31.0530   43.6806 H   0  0  0  0  0  0  0  0  0  0  0  0
   58.6517   22.9248   45.9640 H   0  0  0  0  0  0  0  0  0  0  0  0
   58.7828   21.0438   44.3277 H   0  0  0  0  0  0  0  0  0  0  0  0
   57.1686   20.9278   42.4245 H   0  0  0  0  0  0  0  0  0  0  0  0
   55.4334   22.7019   42.1497 H   0  0  0  0  0  0  0  0  0  0  0  0
   55.2935   24.5814   43.7859 H   0  0  0  0  0  0  0  0  0  0  0  0
   60.2699   34.4624   45.8746 H   0  0  0  0  0  0  0  0  0  0  0  0
   61.4184   34.8637   48.0489 H   0  0  0  0  0  0  0  0  0  0  0  0
   60.0653   29.2785   51.7300 H   0  0  0  0  0  0  0  0  0  0  0  0
   61.5193   27.5450   50.6777 H   0  0  0  0  0  0  0  0  0  0  0  0
   61.3088   27.0452   48.2418 H   0  0  0  0  0  0  0  0  0  0  0  0
   59.6496   28.2856   46.8511 H   0  0  0  0  0  0  0  0  0  0  0  0
   58.1944   30.0220   47.8896 H   0  0  0  0  0  0  0  0  0  0  0  0
  1  2  2  0
  2  3  1  0
  3  4  1  0
  4  5  2  0
  5  6  1  0
  6  7  1  0
  7  8  2  0
  7  9  1  0
  9 10  1  0
 10 11  1  0
 11 12  1  0
 12 13  1  0
 13 14  1  0
 13 15  2  0
 15 16  1  0
 16 17  2  0
 16 18  1  0
 18 19  1  0
 19 20  2  0
 20 21  1  0
 21 22  2  0
 22 23  1  0
 23 24  2  0
 15 25  1  0
 25 26  1  0
  6 27  2  0
 27 28  1  0
 28 29  2  0
 29 30  1  0
  2 31  1  0
 31 32  2  0
 32 33  1  0
 33 34  2  0
 34 35  1  0
 35 36  2  0
 29  4  1  0
 36 31  1  0
 25 11  2  0
 24 19  1  0
  5 37  1  0
 10 38  1  0
 10 39  1  0
 20 40  1  0
 21 41  1  0
 22 42  1  0
 23 43  1  0
 24 44  1  0
 27 45  1  0
 28 46  1  0
 32 47  1  0
 33 48  1  0
 34 49  1  0
 35 50  1  0
 36 51  1  0
M  CHG  5   3  -1  14  -1  18  -1  26  -1  30  -1
M  END
>  <UniqueID>  (89) 
77

>  <SMILES>  (89) 
O=C([N-]c1cc(C(=O)OCc2oc([O-])c(C(=O)[N-]c3ccccc3)c2[O-])ccc1[O-])c1ccccc1

>  <Energy>  (89) 
95.58922856027452

>  <Genealogy>  (89) 
O=C([N-]c1cc(C(=O)OCc2oc([O-])c(C(=O)[N-]c3ccccc3)c2[O-])ccc1[O-])c1ccccc1 (protonated)
O=C([N-]c1cc(C(=O)OCc2oc([O-])c(C(=O)[N-]c3ccccc3)c2[O-])ccc1[O-])c1ccccc1 (3D coordinates assigned)
O=C([N-]c1cc(C(=O)OCc2oc([O-])c(C(=O)[N-]c3ccccc3)c2[O-])ccc1[O-])c1ccccc1 (optimized conformer: 95.58922856027452 kcal/mol)

>  <smiles>  (89) 
O=C(Nc1cc(C(=O)OCc2oc(O)c(C(=O)Nc3ccccc3)c2O)ccc1O)c1ccccc1

>  <score_type>  (89) 
oracle

>  <origin>  (89) 
adg

>  <m_score__min__energy>  (89) 
-17.52

>  <m_primary>  (89) 
energy

$$$$
89:0
     RDKit          3D

 35 37  0  0  0  0  0  0  0  0999 V2000
   56.6390   22.5640   42.9500 C   0  0  0  0  0  0  0  0  0  0  0  0
   56.7050   23.5200   44.1370 C   0  0  0  0  0  0  0  0  0  0  0  0
   55.3540   23.6750   44.7750 C   0  0  0  0  0  0  0  0  0  0  0  0
   54.3230   22.8550   44.5040 N   0  0  0  0  0  0  0  0  0  0  0  0
   53.3040   23.3910   45.2040 C   0  0  0  0  0  0  0  0  0  0  0  0
   52.1480   22.8940   45.2080 O   0  0  0  0  0  0  0  0  0  0  0  0
   53.6200   24.5040   45.8930 N   0  0  0  0  0  0  0  0  0  0  0  0
   54.9240   24.6930   45.6150 C   0  0  0  0  0  0  0  0  0  0  0  0
   55.7300   25.8140   46.1550 C   0  0  0  0  0  0  0  0  0  0  0  0
   56.4980   25.6050   47.1290 O   0  0  0  0  0  0  0  0  0  0  0  0
   55.6640   27.1460   45.6210 N   0  0  0  0  0  0  0  0  0  0  0  0
   56.7810   28.0600   45.3980 C   0  0  0  0  0  0  0  0  0  0  0  0
   56.3670   29.2110   44.4760 C   0  0  0  0  0  0  0  0  0  0  0  0
   57.0560   30.4740   44.8830 C   0  0  0  0  0  0  0  0  0  0  0  0
   56.6340   31.7010   44.4760 N   0  0  0  0  0  0  0  0  0  0  0  0
   57.4830   32.5230   45.1090 C   0  0  0  0  0  0  0  0  0  0  0  0
   57.5180   33.9140   45.0610 C   0  0  0  0  0  0  0  0  0  0  0  0
   58.5030   34.5690   45.8230 C   0  0  0  0  0  0  0  0  0  0  0  0
   59.4140   33.8230   46.6070 C   0  0  0  0  0  0  0  0  0  0  0  0
   59.3450   32.4170   46.6330 C   0  0  0  0  0  0  0  0  0  0  0  0
   58.3590   31.8040   45.8640 C   0  0  0  0  0  0  0  0  0  0  0  0
   58.1070   30.4930   45.7450 N   0  0  0  0  0  0  0  0  0  0  0  0
   56.5676   21.5292   43.3162 H   0  0  0  0  0  0  0  0  0  0  0  0
   55.7549   22.7986   42.3390 H   0  0  0  0  0  0  0  0  0  0  0  0
   57.5469   22.6749   42.3390 H   0  0  0  0  0  0  0  0  0  0  0  0
   57.4113   23.1227   44.8808 H   0  0  0  0  0  0  0  0  0  0  0  0
   57.0395   24.5044   43.7778 H   0  0  0  0  0  0  0  0  0  0  0  0
   57.1083   28.4718   46.3641 H   0  0  0  0  0  0  0  0  0  0  0  0
   57.6014   27.5039   44.9208 H   0  0  0  0  0  0  0  0  0  0  0  0
   56.6435   28.9641   43.4404 H   0  0  0  0  0  0  0  0  0  0  0  0
   55.2792   29.3563   44.5506 H   0  0  0  0  0  0  0  0  0  0  0  0
   56.8010   34.4809   44.4490 H   0  0  0  0  0  0  0  0  0  0  0  0
   58.5650   35.6672   45.8090 H   0  0  0  0  0  0  0  0  0  0  0  0
   60.1804   34.3442   47.1995 H   0  0  0  0  0  0  0  0  0  0  0  0
   60.0452   31.8237   47.2393 H   0  0  0  0  0  0  0  0  0  0  0  0
  1  2  1  0
  2  3  1  0
  3  4  1  0
  4  5  1  0
  5  6  2  0
  5  7  1  0
  7  8  1  0
  8  9  1  0
  9 10  2  0
  9 11  1  0
 11 12  1  0
 12 13  1  0
 13 14  1  0
 14 15  2  0
 15 16  1  0
 16 17  2  0
 17 18  1  0
 18 19  2  0
 19 20  1  0
 20 21  2  0
 21 22  1  0
  8  3  2  0
 22 14  1  0
 21 16  1  0
  1 23  1  0
  1 24  1  0
  1 25  1  0
  2 26  1  0
  2 27  1  0
 12 28  1  0
 12 29  1  0
 13 30  1  0
 13 31  1  0
 17 32  1  0
 18 33  1  0
 19 34  1  0
 20 35  1  0
M  CHG  4   4  -1   7  -1  11  -1  22  -1
M  END
>  <UniqueID>  (90) 
78

>  <SMILES>  (90) 
CCc1[n-]c(=O)[n-]c1C(=O)[N-]CCc1nc2ccccc2[n-]1

>  <Energy>  (90) 
94.60025621024333

>  <Genealogy>  (90) 
CCc1[n-]c(=O)[n-]c1C(=O)[N-]CCc1nc2ccccc2[n-]1 (protonated)
CCc1[n-]c(=O)[n-]c1C(=O)[N-]CCc1nc2ccccc2[n-]1 (3D coordinates assigned)
CCc1[n-]c(=O)[n-]c1C(=O)[N-]CCc1nc2ccccc2[n-]1 (optimized conformer: 94.60025621024333 kcal/mol)

>  <smiles>  (90) 
CCc1[nH]c(=O)[nH]c1C(=O)NCCc1nc2ccccc2[nH]1

>  <score_type>  (90) 
oracle

>  <origin>  (90) 
adg

>  <m_score__min__energy>  (90) 
-14.949999999999999

>  <m_primary>  (90) 
energy

$$$$
90:0
     RDKit          3D

 53 55  0  0  0  0  0  0  0  0999 V2000
   59.9300   21.4660   43.4500 C   0  0  0  0  0  0  0  0  0  0  0  0
   59.0560   22.3540   44.2860 C   0  0  0  0  0  0  0  0  0  0  0  0
   59.6250   23.1860   45.2630 C   0  0  0  0  0  0  0  0  0  0  0  0
   58.8170   24.0400   46.0200 C   0  0  0  0  0  0  0  0  0  0  0  0
   57.4340   24.0830   45.7950 C   0  0  0  0  0  0  0  0  0  0  0  0
   56.4000   25.1340   46.7570 S   0  0  0  0  0  0  0  0  0  0  0  0
   55.9130   24.3770   47.9600 O   0  0  0  0  0  0  0  0  0  0  0  0
   55.2080   25.5860   45.9610 O   0  0  0  0  0  0  0  0  0  0  0  0
   57.3040   26.5180   47.2730 N   0  0  0  0  0  0  0  0  0  0  0  0
   57.3670   27.7120   46.4870 C   0  0  0  0  0  0  0  0  0  0  0  0
   56.6930   27.8020   45.4250 O   0  0  0  0  0  0  0  0  0  0  0  0
   58.1720   28.8140   46.9350 N   0  0  0  0  0  0  0  0  0  0  0  0
   58.4840   29.9750   46.1460 C   0  0  0  0  0  0  0  0  0  0  0  0
   58.6010   29.8590   44.5070 S   0  0  0  0  0  0  0  0  0  0  0  0
   58.9640   31.1530   46.8140 N   0  0  0  0  0  0  0  0  0  0  0  0
   59.0440   32.4510   46.2010 C   0  0  0  0  0  0  0  0  0  0  0  0
   58.0340   32.8810   45.3250 C   0  0  0  0  0  0  0  0  0  0  0  0
   58.0650   34.1690   44.7850 C   0  0  0  0  0  0  0  0  0  0  0  0
   59.0970   35.0440   45.1250 C   0  0  0  0  0  0  0  0  0  0  0  0
   60.1020   34.6340   46.0030 C   0  0  0  0  0  0  0  0  0  0  0  0
   60.0880   33.3380   46.5470 C   0  0  0  0  0  0  0  0  0  0  0  0
   61.1540   32.9220   47.4190 N   0  0  0  0  0  0  0  0  0  0  0  0
   61.9520   31.7320   47.0940 C   0  0  0  0  0  0  0  0  0  0  0  0
   63.4310   32.0080   47.3760 C   0  0  0  0  0  0  0  0  0  0  0  0
   63.6840   32.5190   48.8130 C   0  0  0  0  0  0  0  0  0  0  0  0
   62.4070   32.9510   49.5560 C   0  0  0  0  0  0  0  0  0  0  0  0
   61.4410   33.7000   48.6320 C   0  0  0  0  0  0  0  0  0  0  0  0
   56.8660   23.2640   44.8120 C   0  0  0  0  0  0  0  0  0  0  0  0
   57.6740   22.4100   44.0550 C   0  0  0  0  0  0  0  0  0  0  0  0
   60.5489   20.8372   44.1069 H   0  0  0  0  0  0  0  0  0  0  0  0
   59.3008   20.8249   42.8151 H   0  0  0  0  0  0  0  0  0  0  0  0
   60.5810   22.0849   42.8151 H   0  0  0  0  0  0  0  0  0  0  0  0
   60.7115   23.1661   45.4339 H   0  0  0  0  0  0  0  0  0  0  0  0
   59.2675   24.6793   46.7936 H   0  0  0  0  0  0  0  0  0  0  0  0
   57.8480   26.4550   48.1640 H   0  0  0  0  0  0  0  0  0  0  0  0
   58.5070   28.7950   47.9240 H   0  0  0  0  0  0  0  0  0  0  0  0
   59.2770   31.0630   47.8070 H   0  0  0  0  0  0  0  0  0  0  0  0
   57.2124   32.1985   45.0621 H   0  0  0  0  0  0  0  0  0  0  0  0
   57.2753   34.4934   44.0914 H   0  0  0  0  0  0  0  0  0  0  0  0
   59.1189   36.0586   44.7006 H   0  0  0  0  0  0  0  0  0  0  0  0
   60.9105   35.3301   46.2710 H   0  0  0  0  0  0  0  0  0  0  0  0
   61.6142   30.8860   47.7105 H   0  0  0  0  0  0  0  0  0  0  0  0
   61.8242   31.4882   46.0290 H   0  0  0  0  0  0  0  0  0  0  0  0
   63.9961   31.0755   47.2304 H   0  0  0  0  0  0  0  0  0  0  0  0
   63.7577   32.7970   46.6826 H   0  0  0  0  0  0  0  0  0  0  0  0
   64.1630   31.7127   49.3878 H   0  0  0  0  0  0  0  0  0  0  0  0
   64.3203   33.4121   48.7265 H   0  0  0  0  0  0  0  0  0  0  0  0
   61.9028   32.0558   49.9489 H   0  0  0  0  0  0  0  0  0  0  0  0
   62.6972   33.6293   50.3719 H   0  0  0  0  0  0  0  0  0  0  0  0
   60.4999   33.8846   49.1707 H   0  0  0  0  0  0  0  0  0  0  0  0
   61.9102   34.6491   48.3337 H   0  0  0  0  0  0  0  0  0  0  0  0
   55.7808   23.2923   44.6346 H   0  0  0  0  0  0  0  0  0  0  0  0
   57.2234   21.7791   43.2746 H   0  0  0  0  0  0  0  0  0  0  0  0
  1  2  1  0
  2  3  2  0
  3  4  1  0
  4  5  2  0
  5  6  1  0
  6  7  2  0
  6  8  2  0
  6  9  1  0
  9 10  1  0
 10 11  2  0
 10 12  1  0
 12 13  1  0
 13 14  2  0
 13 15  1  0
 15 16  1  0
 16 17  2  0
 17 18  1  0
 18 19  2  0
 19 20  1  0
 20 21  2  0
 21 22  1  0
 22 23  1  0
 23 24  1  0
 24 25  1  0
 25 26  1  0
 26 27  1  0
  5 28  1  0
 28 29  2  0
 29  2  1  0
 21 16  1  0
 27 22  1  0
  1 30  1  0
  1 31  1  0
  1 32  1  0
  3 33  1  0
  4 34  1  0
  9 35  1  0
 12 36  1  0
 15 37  1  0
 17 38  1  0
 18 39  1  0
 19 40  1  0
 20 41  1  0
 23 42  1  0
 23 43  1  0
 24 44  1  0
 24 45  1  0
 25 46  1  0
 25 47  1  0
 26 48  1  0
 26 49  1  0
 27 50  1  0
 27 51  1  0
 28 52  1  0
 29 53  1  0
M  END
>  <UniqueID>  (91) 
79

>  <SMILES>  (91) 
Cc1ccc(S(=O)(=O)NC(=O)NC(=S)Nc2ccccc2N2CCCCC2)cc1

>  <Energy>  (91) 
66.59829093183117

>  <Genealogy>  (91) 
Cc1ccc(S(=O)(=O)NC(=O)NC(=S)Nc2ccccc2N2CCCCC2)cc1 (3D coordinates assigned)
Cc1ccc(S(=O)(=O)NC(=O)NC(=S)Nc2ccccc2N2CCCCC2)cc1 (nonaromatic ring conformer: 66.59829093183117 kcal/mol)

>  <smiles>  (91) 
Cc1ccc(S(=O)(=O)NC(=O)NC(=S)Nc2ccccc2N2CCCCC2)cc1

>  <score_type>  (91) 
oracle

>  <origin>  (91) 
adg

>  <m_score__min__energy>  (91) 
-9.2400000000000002

>  <m_primary>  (91) 
energy

$$$$
91:0
     RDKit          3D

 42 43  0  0  0  0  0  0  0  0999 V2000
   55.7324   24.9415   46.2316 H   0  0  0  0  0  0  0  0  0  0  0  0
   56.3850   25.8220   46.1380 C   0  0  0  0  0  0  0  0  0  0  0  0
   55.8780   26.9980   45.6850 N   0  0  0  0  0  0  0  0  0  0  0  0
   56.6440   28.1190   45.5510 C   0  0  0  0  0  0  0  0  0  0  0  0
   56.1260   29.2380   45.1270 N   0  0  0  0  0  0  0  0  0  0  0  0
   56.3610   29.8960   43.8710 C   0  0  0  0  0  0  0  0  0  0  0  0
   55.9170   29.3580   42.8200 O   0  0  0  0  0  0  0  0  0  0  0  0
   57.0860   31.2140   43.7740 C   0  0  0  0  0  0  0  0  0  0  0  0
   58.1676   31.0258   43.7060 H   0  0  0  0  0  0  0  0  0  0  0  0
   56.7311   31.7450   42.8784 H   0  0  0  0  0  0  0  0  0  0  0  0
   56.8180   32.0440   44.9450 N   0  0  0  0  0  0  0  0  0  0  0  0
   57.4300   33.3050   45.2540 C   0  0  0  0  0  0  0  0  0  0  0  0
   56.6870   34.2670   45.5850 O   0  0  0  0  0  0  0  0  0  0  0  0
   58.9200   33.5300   45.1900 C   0  0  0  0  0  0  0  0  0  0  0  0
   59.4249   32.6900   45.6895 H   0  0  0  0  0  0  0  0  0  0  0  0
   59.2013   33.5992   44.1288 H   0  0  0  0  0  0  0  0  0  0  0  0
   59.3480   34.8330   45.8690 C   0  0  0  0  0  0  0  0  0  0  0  0
   59.2819   35.6576   45.1439 H   0  0  0  0  0  0  0  0  0  0  0  0
   58.6817   35.0243   46.7231 H   0  0  0  0  0  0  0  0  0  0  0  0
   60.7200   34.7300   46.3550 N   0  0  0  0  0  0  0  0  0  0  0  0
   61.2030   33.7100   47.2400 C   0  0  0  0  0  0  0  0  0  0  0  0
   62.4000   33.3330   47.1310 O   0  0  0  0  0  0  0  0  0  0  0  0
   60.3590   33.1210   48.3000 C   0  0  0  0  0  0  0  0  0  0  0  0
   59.7160   31.8930   48.0790 C   0  0  0  0  0  0  0  0  0  0  0  0
   59.8623   31.3632   47.1261 H   0  0  0  0  0  0  0  0  0  0  0  0
   58.8910   31.3390   49.0620 C   0  0  0  0  0  0  0  0  0  0  0  0
   58.3989   30.3712   48.8855 H   0  0  0  0  0  0  0  0  0  0  0  0
   58.6910   32.0150   50.2700 C   0  0  0  0  0  0  0  0  0  0  0  0
   57.5550   31.2640   51.6090 Br  0  0  0  0  0  0  0  0  0  0  0  0
   59.3210   33.2430   50.4940 C   0  0  0  0  0  0  0  0  0  0  0  0
   59.1648   33.7745   51.4443 H   0  0  0  0  0  0  0  0  0  0  0  0
   60.1490   33.7970   49.5130 C   0  0  0  0  0  0  0  0  0  0  0  0
   60.6378   34.7660   49.6919 H   0  0  0  0  0  0  0  0  0  0  0  0
   58.0070   28.0720   45.9120 C   0  0  0  0  0  0  0  0  0  0  0  0
   58.9010   29.2710   45.7520 C   0  0  0  0  0  0  0  0  0  0  0  0
   59.1849   29.6517   46.7442 H   0  0  0  0  0  0  0  0  0  0  0  0
   59.8060   28.9822   45.1974 H   0  0  0  0  0  0  0  0  0  0  0  0
   58.3659   30.0559   45.1974 H   0  0  0  0  0  0  0  0  0  0  0  0
   58.5440   26.8570   46.3660 C   0  0  0  0  0  0  0  0  0  0  0  0
   59.6101   26.7934   46.6295 H   0  0  0  0  0  0  0  0  0  0  0  0
   57.7310   25.7310   46.4840 C   0  0  0  0  0  0  0  0  0  0  0  0
   58.1483   24.7801   46.8468 H   0  0  0  0  0  0  0  0  0  0  0  0
  1  2  1  0
  2  3  1  0
  3  4  1  0
  4  5  2  0
  5  6  1  0
  6  7  2  0
  6  8  1  0
  8  9  1  0
  8 10  1  0
  8 11  1  0
 11 12  1  0
 12 13  2  0
 12 14  1  0
 14 15  1  0
 14 16  1  0
 14 17  1  0
 17 18  1  0
 17 19  1  0
 17 20  1  0
 20 21  1  0
 21 22  2  0
 21 23  1  0
 23 24  2  0
 24 25  1  0
 24 26  1  0
 26 27  1  0
 26 28  2  0
 28 29  1  0
 28 30  1  0
 30 31  1  0
 30 32  2  0
 32 33  1  0
  4 34  1  0
 34 35  1  0
 35 36  1  0
 35 37  1  0
 35 38  1  0
 34 39  2  0
 39 40  1  0
 39 41  1  0
 41 42  1  0
 41  2  2  0
 32 23  1  0
M  CHG  3   3  -1  11  -1  20  -1
M  END
>  <UniqueID>  (92) 
80

>  <SMILES>  (92) 
Cc1ccc[n-]/c1=N\C(=O)C[N-]C(=O)CC[N-]C(=O)c1ccc(Br)cc1

>  <Energy>  (92) 
45.26680467867476

>  <Genealogy>  (92) 
Cc1ccc[n-]c1=NC(=O)C[N-]C(=O)CC[N-]C(=O)c1ccc(Br)cc1 (protonated)
Cc1ccc[n-]/c1=N\C(=O)C[N-]C(=O)CC[N-]C(=O)c1ccc(Br)cc1 (cis-trans isomerization)
Cc1ccc[n-]/c1=N\C(=O)C[N-]C(=O)CC[N-]C(=O)c1ccc(Br)cc1 (3D coordinates assigned)
Cc1ccc[n-]/c1=N\C(=O)C[N-]C(=O)CC[N-]C(=O)c1ccc(Br)cc1 (optimized conformer: 45.26680467867476 kcal/mol)

>  <smiles>  (92) 
Cc1ccc[nH]c1=NC(=O)CNC(=O)CCNC(=O)c1ccc(Br)cc1

>  <score_type>  (92) 
oracle

>  <origin>  (92) 
adg

>  <m_score__min__energy>  (92) 
-13.08

>  <m_primary>  (92) 
energy

$$$$
92:0
     RDKit          3D

 39 41  0  0  0  0  0  0  0  0999 V2000
   60.0932   28.2205   44.4707 H   0  0  0  0  0  0  0  0  0  0  0  0
   59.6840   28.1330   45.4880 C   0  0  0  0  0  0  0  0  0  0  0  0
   60.4050   28.5040   46.5030 N   0  0  0  0  0  0  0  0  0  0  0  0
   60.3160   29.7580   47.2010 C   0  0  0  0  0  0  0  0  0  0  0  0
   61.2480   30.7560   46.8900 C   0  0  0  0  0  0  0  0  0  0  0  0
   62.0138   30.5666   46.1234 H   0  0  0  0  0  0  0  0  0  0  0  0
   61.2140   31.9910   47.5450 C   0  0  0  0  0  0  0  0  0  0  0  0
   61.9491   32.7680   47.2883 H   0  0  0  0  0  0  0  0  0  0  0  0
   60.2480   32.2420   48.5260 C   0  0  0  0  0  0  0  0  0  0  0  0
   60.2080   33.8020   49.3400 S   0  0  0  0  0  0  0  0  0  0  0  0
   59.5270   33.6840   50.6750 O   0  0  0  0  0  0  0  0  0  0  0  0
   61.6160   34.2820   49.5480 O   0  0  0  0  0  0  0  0  0  0  0  0
   59.3490   34.9560   48.3710 N   0  0  0  0  0  0  0  0  0  0  0  0
   58.9820   34.7210   47.1490 C   0  0  0  0  0  0  0  0  0  0  0  0
   59.5590   35.2880   46.0660 N   0  0  0  0  0  0  0  0  0  0  0  0
   58.9700   34.8670   44.9160 C   0  0  0  0  0  0  0  0  0  0  0  0
   59.2957   35.2148   43.9246 H   0  0  0  0  0  0  0  0  0  0  0  0
   57.9250   33.9640   45.0840 C   0  0  0  0  0  0  0  0  0  0  0  0
   57.3284   33.5110   44.2785 H   0  0  0  0  0  0  0  0  0  0  0  0
   57.7310   33.6840   46.7340 S   0  0  0  0  0  0  0  0  0  0  0  0
   59.3250   31.2420   48.8590 C   0  0  0  0  0  0  0  0  0  0  0  0
   58.5710   31.4300   49.6376 H   0  0  0  0  0  0  0  0  0  0  0  0
   59.3580   30.0060   48.2060 C   0  0  0  0  0  0  0  0  0  0  0  0
   58.6337   29.2238   48.4773 H   0  0  0  0  0  0  0  0  0  0  0  0
   58.3140   27.5920   45.6830 C   0  0  0  0  0  0  0  0  0  0  0  0
   58.0650   26.2770   46.1650 C   0  0  0  0  0  0  0  0  0  0  0  0
   59.2050   25.3790   46.6000 C   0  0  0  0  0  0  0  0  0  0  0  0
   59.2470   25.3459   47.6987 H   0  0  0  0  0  0  0  0  0  0  0  0
   59.0421   24.3640   46.2086 H   0  0  0  0  0  0  0  0  0  0  0  0
   60.1536   25.7751   46.2086 H   0  0  0  0  0  0  0  0  0  0  0  0
   56.7290   25.8150   46.2290 C   0  0  0  0  0  0  0  0  0  0  0  0
   56.4090   24.4640   46.6360 C   0  0  0  0  0  0  0  0  0  0  0  0
   56.1530   23.3830   46.9600 N   0  0  0  0  0  0  0  0  0  0  0  0
   55.6810   26.6800   45.8910 C   0  0  0  0  0  0  0  0  0  0  0  0
   54.3600   26.2480   45.9640 O   0  0  0  0  0  0  0  0  0  0  0  0
   55.9440   27.9500   45.4920 N   0  0  0  0  0  0  0  0  0  0  0  0
   55.1440   28.5790   45.2530 H   0  0  0  0  0  0  0  0  0  0  0  0
   57.2140   28.4200   45.3760 C   0  0  0  0  0  0  0  0  0  0  0  0
   57.3980   29.6020   44.9740 O   0  0  0  0  0  0  0  0  0  0  0  0
  1  2  1  0
  2  3  2  3
  3  4  1  0
  4  5  2  0
  5  6  1  0
  5  7  1  0
  7  8  1  0
  7  9  2  0
  9 10  1  0
 10 11  2  0
 10 12  2  0
 10 13  1  0
 13 14  2  0
 14 15  1  0
 15 16  1  0
 16 17  1  0
 16 18  2  0
 18 19  1  0
 18 20  1  0
  9 21  1  0
 21 22  1  0
 21 23  2  0
 23 24  1  0
  2 25  1  0
 25 26  2  0
 26 27  1  0
 27 28  1  0
 27 29  1  0
 27 30  1  0
 26 31  1  0
 31 32  1  0
 32 33  3  0
 31 34  2  0
 34 35  1  0
 34 36  1  0
 36 37  1  0
 36 38  1  0
 38 39  2  0
 23  4  1  0
 38 25  1  0
 20 14  1  0
M  CHG  2  15  -1  35  -1
M  END
>  <UniqueID>  (93) 
81

>  <SMILES>  (93) 
Cc1c(C#N)c([O-])[nH]c(=O)c1C=Nc1ccc(S(=O)(=O)/N=c2\[n-]ccs2)cc1

>  <Energy>  (93) 
85.31919819686189

>  <Genealogy>  (93) 
Cc1c(C#N)c([O-])[nH]c(=O)c1C=Nc1ccc(S(=O)(=O)N=c2[n-]ccs2)cc1 (protonated)
Cc1c(C#N)c([O-])[nH]c(=O)c1C=Nc1ccc(S(=O)(=O)/N=c2\[n-]ccs2)cc1 (cis-trans isomerization)
Cc1c(C#N)c([O-])[nH]c(=O)c1C=Nc1ccc(S(=O)(=O)/N=c2\[n-]ccs2)cc1 (3D coordinates assigned)
Cc1c(C#N)c([O-])[nH]c(=O)c1C=Nc1ccc(S(=O)(=O)/N=c2\[n-]ccs2)cc1 (optimized conformer: 85.31919819686189 kcal/mol)

>  <smiles>  (93) 
Cc1c(C#N)c(O)[nH]c(=O)c1C=Nc1ccc(S(=O)(=O)N=c2[nH]ccs2)cc1

>  <score_type>  (93) 
oracle

>  <origin>  (93) 
adg

>  <m_score__min__energy>  (93) 
-12.33

>  <m_primary>  (93) 
energy

$$$$
93:0
     RDKit          3D

 59 63  0  0  0  0  0  0  0  0999 V2000
   68.6330   33.6500   50.9120 C   0  0  0  0  0  0  0  0  0  0  0  0
   67.1770   33.4100   50.5010 C   0  0  0  0  0  0  0  0  0  0  0  0
   66.2180   34.3470   51.2680 C   0  0  0  0  0  0  0  0  0  0  0  0
   64.8520   33.7070   51.5980 C   0  0  0  0  0  0  0  0  0  0  0  0
   64.3840   32.7290   50.5940 N   0  0  0  0  0  0  0  0  0  0  0  0
   63.5320   33.4680   49.2560 S   0  0  0  0  0  0  0  0  0  0  0  0
   64.5140   33.8030   48.1680 O   0  0  0  0  0  0  0  0  0  0  0  0
   62.9060   34.7540   49.7190 O   0  0  0  0  0  0  0  0  0  0  0  0
   62.2690   32.4260   48.5960 C   0  0  0  0  0  0  0  0  0  0  0  0
   61.6780   32.7270   47.3630 C   0  0  0  0  0  0  0  0  0  0  0  0
   60.6870   31.8970   46.8330 C   0  0  0  0  0  0  0  0  0  0  0  0
   60.2550   30.7600   47.5400 C   0  0  0  0  0  0  0  0  0  0  0  0
   59.2130   29.8640   46.9810 C   0  0  0  0  0  0  0  0  0  0  0  0
   58.0990   30.3480   46.6390 O   0  0  0  0  0  0  0  0  0  0  0  0
   59.4740   28.4640   46.7810 N   0  0  0  0  0  0  0  0  0  0  0  0
   58.4400   27.4740   46.6450 C   0  0  0  0  0  0  0  0  0  0  0  0
   57.3360   27.6780   45.7990 C   0  0  0  0  0  0  0  0  0  0  0  0
   56.3340   26.7090   45.6970 C   0  0  0  0  0  0  0  0  0  0  0  0
   56.4090   25.5230   46.4470 C   0  0  0  0  0  0  0  0  0  0  0  0
   55.3500   24.4950   46.3370 C   0  0  0  0  0  0  0  0  0  0  0  0
   54.0950   24.7720   45.8860 N   0  0  0  0  0  0  0  0  0  0  0  0
   53.4900   23.5780   45.9480 C   0  0  0  0  0  0  0  0  0  0  0  0
   52.1770   23.2680   45.6000 C   0  0  0  0  0  0  0  0  0  0  0  0
   51.7600   21.9320   45.7500 C   0  0  0  0  0  0  0  0  0  0  0  0
   52.6580   20.9530   46.2360 C   0  0  0  0  0  0  0  0  0  0  0  0
   53.9790   21.3050   46.5770 C   0  0  0  0  0  0  0  0  0  0  0  0
   54.3540   22.6380   46.4160 C   0  0  0  0  0  0  0  0  0  0  0  0
   55.5470   23.1910   46.6720 N   0  0  0  0  0  0  0  0  0  0  0  0
   57.5020   25.3310   47.3090 C   0  0  0  0  0  0  0  0  0  0  0  0
   58.5030   26.3010   47.4120 C   0  0  0  0  0  0  0  0  0  0  0  0
   60.8430   30.4720   48.7840 C   0  0  0  0  0  0  0  0  0  0  0  0
   61.8350   31.3030   49.3110 C   0  0  0  0  0  0  0  0  0  0  0  0
   65.3680   31.7040   50.1690 C   0  0  0  0  0  0  0  0  0  0  0  0
   66.7860   31.9440   50.7040 C   0  0  0  0  0  0  0  0  0  0  0  0
   68.7070   33.6622   52.0094 H   0  0  0  0  0  0  0  0  0  0  0  0
   69.2649   32.8439   50.5108 H   0  0  0  0  0  0  0  0  0  0  0  0
   68.9727   34.6163   50.5108 H   0  0  0  0  0  0  0  0  0  0  0  0
   67.0884   33.6421   49.4294 H   0  0  0  0  0  0  0  0  0  0  0  0
   66.7008   34.6399   52.2120 H   0  0  0  0  0  0  0  0  0  0  0  0
   66.0184   35.2073   50.6122 H   0  0  0  0  0  0  0  0  0  0  0  0
   64.9366   33.1933   52.5670 H   0  0  0  0  0  0  0  0  0  0  0  0
   64.1150   34.5235   51.6120 H   0  0  0  0  0  0  0  0  0  0  0  0
   61.9958   33.6222   46.8083 H   0  0  0  0  0  0  0  0  0  0  0  0
   60.2412   32.1342   45.8557 H   0  0  0  0  0  0  0  0  0  0  0  0
   60.4600   28.1680   46.6090 H   0  0  0  0  0  0  0  0  0  0  0  0
   57.2603   28.6062   45.2136 H   0  0  0  0  0  0  0  0  0  0  0  0
   55.4799   26.8761   45.0243 H   0  0  0  0  0  0  0  0  0  0  0  0
   51.4907   24.0398   45.2215 H   0  0  0  0  0  0  0  0  0  0  0  0
   50.7302   21.6477   45.4879 H   0  0  0  0  0  0  0  0  0  0  0  0
   52.3232   19.9112   46.3483 H   0  0  0  0  0  0  0  0  0  0  0  0
   54.6887   20.5552   46.9565 H   0  0  0  0  0  0  0  0  0  0  0  0
   57.5703   24.4104   47.9072 H   0  0  0  0  0  0  0  0  0  0  0  0
   59.3468   26.1434   48.0998 H   0  0  0  0  0  0  0  0  0  0  0  0
   60.5193   29.5845   49.3476 H   0  0  0  0  0  0  0  0  0  0  0  0
   62.2770   31.0740   50.2919 H   0  0  0  0  0  0  0  0  0  0  0  0
   65.0236   30.7231   50.5285 H   0  0  0  0  0  0  0  0  0  0  0  0
   65.4279   31.7544   49.0718 H   0  0  0  0  0  0  0  0  0  0  0  0
   66.8169   31.7033   51.7769 H   0  0  0  0  0  0  0  0  0  0  0  0
   67.4929   31.3013   50.1588 H   0  0  0  0  0  0  0  0  0  0  0  0
  1  2  1  0
  2  3  1  0
  3  4  1  0
  4  5  1  0
  5  6  1  0
  6  7  2  0
  6  8  2  0
  6  9  1  0
  9 10  2  0
 10 11  1  0
 11 12  2  0
 12 13  1  0
 13 14  2  0
 13 15  1  0
 15 16  1  0
 16 17  2  0
 17 18  1  0
 18 19  2  0
 19 20  1  0
 20 21  2  0
 21 22  1  0
 22 23  2  0
 23 24  1  0
 24 25  2  0
 25 26  1  0
 26 27  2  0
 27 28  1  0
 19 29  1  0
 29 30  2  0
 12 31  1  0
 31 32  2  0
  5 33  1  0
 33 34  1  0
 34  2  1  0
 32  9  1  0
 30 16  1  0
 28 20  1  0
 27 22  1  0
  1 35  1  0
  1 36  1  0
  1 37  1  0
  2 38  1  0
  3 39  1  0
  3 40  1  0
  4 41  1  0
  4 42  1  0
 10 43  1  0
 11 44  1  0
 15 45  1  0
 17 46  1  0
 18 47  1  0
 23 48  1  0
 24 49  1  0
 25 50  1  0
 26 51  1  0
 29 52  1  0
 30 53  1  0
 31 54  1  0
 32 55  1  0
 33 56  1  0
 33 57  1  0
 34 58  1  0
 34 59  1  0
M  CHG  1  28  -1
M  END
>  <UniqueID>  (94) 
82

>  <SMILES>  (94) 
CC1CCN(S(=O)(=O)c2ccc(C(=O)Nc3ccc(-c4nc5ccccc5[n-]4)cc3)cc2)CC1

>  <Energy>  (94) 
111.4538690805838

>  <Genealogy>  (94) 
CC1CCN(S(=O)(=O)c2ccc(C(=O)Nc3ccc(-c4nc5ccccc5[n-]4)cc3)cc2)CC1 (protonated)
CC1CCN(S(=O)(=O)c2ccc(C(=O)Nc3ccc(-c4nc5ccccc5[n-]4)cc3)cc2)CC1 (3D coordinates assigned)
CC1CCN(S(=O)(=O)c2ccc(C(=O)Nc3ccc(-c4nc5ccccc5[n-]4)cc3)cc2)CC1 (nonaromatic ring conformer: 111.4538690805838 kcal/mol)

>  <smiles>  (94) 
CC1CCN(S(=O)(=O)c2ccc(C(=O)Nc3ccc(-c4nc5ccccc5[nH]4)cc3)cc2)CC1

>  <score_type>  (94) 
oracle

>  <origin>  (94) 
adg

>  <m_score__min__energy>  (94) 
-9.3000000000000007

>  <m_primary>  (94) 
energy

$$$$
94:0
     RDKit          3D

 45 47  0  0  0  0  0  0  0  0999 V2000
   56.1380   32.2850   52.3480 O   0  0  0  0  0  0  0  0  0  0  0  0
   57.0010   31.5960   51.7370 C   0  0  0  0  0  0  0  0  0  0  0  0
   56.8470   30.2100   51.6350 O   0  0  0  0  0  0  0  0  0  0  0  0
   56.9800   29.3340   52.7510 C   0  0  0  0  0  0  0  0  0  0  0  0
   55.6710   29.2960   53.5350 C   0  0  0  0  0  0  0  0  0  0  0  0
   54.6640   30.1500   52.9060 N   0  0  0  0  0  0  0  0  0  0  0  0
   53.3930   30.4220   53.5150 C   0  0  0  0  0  0  0  0  0  0  0  0
   53.1360   29.9810   54.6680 O   0  0  0  0  0  0  0  0  0  0  0  0
   52.3810   31.2200   52.8030 C   0  0  0  0  0  0  0  0  0  0  0  0
   51.2570   31.7840   53.3800 C   0  0  0  0  0  0  0  0  0  0  0  0
   50.5870   32.4330   52.3660 C   0  0  0  0  0  0  0  0  0  0  0  0
   51.3410   32.2270   51.2330 C   0  0  0  0  0  0  0  0  0  0  0  0
   51.0210   32.7160   49.9730 O   0  0  0  0  0  0  0  0  0  0  0  0
   52.4380   31.4890   51.4810 N   0  0  0  0  0  0  0  0  0  0  0  0
   58.1790   32.2510   51.1270 C   0  0  0  0  0  0  0  0  0  0  0  0
   58.9400   33.1720   51.8680 C   0  0  0  0  0  0  0  0  0  0  0  0
   60.0560   33.7880   51.2990 C   0  0  0  0  0  0  0  0  0  0  0  0
   60.4260   33.4970   49.9850 C   0  0  0  0  0  0  0  0  0  0  0  0
   59.6730   32.5910   49.2240 C   0  0  0  0  0  0  0  0  0  0  0  0
   60.0930   32.2470   47.8200 C   0  0  0  0  0  0  0  0  0  0  0  0
   59.3270   33.0810   46.8300 C   0  0  0  0  0  0  0  0  0  0  0  0
   58.0470   32.6830   46.4070 C   0  0  0  0  0  0  0  0  0  0  0  0
   57.3510   33.4400   45.4590 C   0  0  0  0  0  0  0  0  0  0  0  0
   57.9310   34.5930   44.9220 C   0  0  0  0  0  0  0  0  0  0  0  0
   59.2080   34.9880   45.3280 C   0  0  0  0  0  0  0  0  0  0  0  0
   59.9080   34.2340   46.2750 C   0  0  0  0  0  0  0  0  0  0  0  0
   58.5570   31.9630   49.8020 C   0  0  0  0  0  0  0  0  0  0  0  0
   57.2220   28.3219   52.3944 H   0  0  0  0  0  0  0  0  0  0  0  0
   57.7858   29.6980   53.4054 H   0  0  0  0  0  0  0  0  0  0  0  0
   55.2986   28.2614   53.5651 H   0  0  0  0  0  0  0  0  0  0  0  0
   55.8595   29.6649   54.5540 H   0  0  0  0  0  0  0  0  0  0  0  0
   54.9040   30.6020   51.9950 H   0  0  0  0  0  0  0  0  0  0  0  0
   50.9581   31.7259   54.4370 H   0  0  0  0  0  0  0  0  0  0  0  0
   49.6463   32.9976   52.4453 H   0  0  0  0  0  0  0  0  0  0  0  0
   58.6540   33.4089   52.9034 H   0  0  0  0  0  0  0  0  0  0  0  0
   60.6460   34.5054   51.8883 H   0  0  0  0  0  0  0  0  0  0  0  0
   61.3110   33.9798   49.5449 H   0  0  0  0  0  0  0  0  0  0  0  0
   61.1692   32.4428   47.7043 H   0  0  0  0  0  0  0  0  0  0  0  0
   59.8826   31.1837   47.6326 H   0  0  0  0  0  0  0  0  0  0  0  0
   57.5909   31.7726   46.8232 H   0  0  0  0  0  0  0  0  0  0  0  0
   56.3469   33.1280   45.1359 H   0  0  0  0  0  0  0  0  0  0  0  0
   57.3814   35.1897   44.1791 H   0  0  0  0  0  0  0  0  0  0  0  0
   59.6638   35.8939   44.9019 H   0  0  0  0  0  0  0  0  0  0  0  0
   60.9163   34.5442   46.5865 H   0  0  0  0  0  0  0  0  0  0  0  0
   57.9733   31.2396   49.2137 H   0  0  0  0  0  0  0  0  0  0  0  0
  1  2  2  0
  2  3  1  0
  3  4  1  0
  4  5  1  0
  5  6  1  0
  6  7  1  0
  7  8  2  0
  7  9  1  0
  9 10  2  0
 10 11  1  0
 11 12  2  0
 12 13  1  0
 12 14  1  0
  2 15  1  0
 15 16  2  0
 16 17  1  0
 17 18  2  0
 18 19  1  0
 19 20  1  0
 20 21  1  0
 21 22  2  0
 22 23  1  0
 23 24  2  0
 24 25  1  0
 25 26  2  0
 19 27  2  0
 14  9  1  0
 27 15  1  0
 26 21  1  0
  4 28  1  0
  4 29  1  0
  5 30  1  0
  5 31  1  0
  6 32  1  0
 10 33  1  0
 11 34  1  0
 16 35  1  0
 17 36  1  0
 18 37  1  0
 20 38  1  0
 20 39  1  0
 22 40  1  0
 23 41  1  0
 24 42  1  0
 25 43  1  0
 26 44  1  0
 27 45  1  0
M  CHG  2  13  -1  14  -1
M  END
>  <UniqueID>  (95) 
83

>  <SMILES>  (95) 
O=C(OCCNC(=O)c1ccc([O-])[n-]1)c1cccc(Cc2ccccc2)c1

>  <Energy>  (95) 
64.09817533659073

>  <Genealogy>  (95) 
O=C(OCCNC(=O)c1ccc([O-])[n-]1)c1cccc(Cc2ccccc2)c1 (protonated)
O=C(OCCNC(=O)c1ccc([O-])[n-]1)c1cccc(Cc2ccccc2)c1 (3D coordinates assigned)
O=C(OCCNC(=O)c1ccc([O-])[n-]1)c1cccc(Cc2ccccc2)c1 (optimized conformer: 64.09817533659073 kcal/mol)

>  <smiles>  (95) 
O=C(OCCNC(=O)c1ccc(O)[nH]1)c1cccc(Cc2ccccc2)c1

>  <score_type>  (95) 
oracle

>  <origin>  (95) 
adg

>  <m_score__min__energy>  (95) 
-15.279999999999999

>  <m_primary>  (95) 
energy

$$$$
