0:0
     RDKit          3D

 47 49  0  0  0  0  0  0  0  0999 V2000
   55.1600   26.4100   46.0000 N   0  0  0  0  0  0  0  0  0  0  0  0
   56.8170   25.9340   46.0790 S   0  0  0  0  0  0  0  0  0  0  0  0
   57.0320   24.7190   45.2220 O   0  0  0  0  0  0  0  0  0  0  0  0
   57.1760   25.5940   47.4980 O   0  0  0  0  0  0  0  0  0  0  0  0
   57.8330   27.2500   45.4970 C   0  0  0  0  0  0  0  0  0  0  0  0
   59.2280   27.1260   45.5050 C   0  0  0  0  0  0  0  0  0  0  0  0
   60.0260   28.1740   45.0370 C   0  0  0  0  0  0  0  0  0  0  0  0
   59.4350   29.3480   44.5610 C   0  0  0  0  0  0  0  0  0  0  0  0
   58.0410   29.4810   44.5550 C   0  0  0  0  0  0  0  0  0  0  0  0
   57.2810   30.9390   43.9250 S   0  0  0  0  0  0  0  0  0  0  0  0
   58.1890   31.5530   42.8980 O   0  0  0  0  0  0  0  0  0  0  0  0
   55.9600   30.6150   43.2830 O   0  0  0  0  0  0  0  0  0  0  0  0
   57.0240   32.0700   45.2150 N   0  0  0  0  0  0  0  0  0  0  0  0
   58.0250   33.0080   45.6450 C   0  0  0  0  0  0  0  0  0  0  0  0
   58.3040   34.1750   44.9120 C   0  0  0  0  0  0  0  0  0  0  0  0
   59.2650   35.0810   45.3670 C   0  0  0  0  0  0  0  0  0  0  0  0
   59.9610   34.8300   46.5510 C   0  0  0  0  0  0  0  0  0  0  0  0
   59.7040   33.6640   47.2840 C   0  0  0  0  0  0  0  0  0  0  0  0
   60.5460   33.3500   48.7990 S   0  0  0  0  0  0  0  0  0  0  0  0
   61.1480   34.6380   49.2860 O   0  0  0  0  0  0  0  0  0  0  0  0
   59.5700   32.8560   49.8310 O   0  0  0  0  0  0  0  0  0  0  0  0
   61.8020   32.1630   48.5180 N   0  0  0  0  0  0  0  0  0  0  0  0
   62.9290   32.3150   49.4640 C   0  0  0  0  0  0  0  0  0  0  0  0
   64.1140   33.0920   48.8610 C   0  0  0  0  0  0  0  0  0  0  0  0
   63.6550   34.0400   47.9250 O   0  0  0  0  0  0  0  0  0  0  0  0
   63.1370   33.3870   46.7790 C   0  0  0  0  0  0  0  0  0  0  0  0
   62.2480   32.1640   47.1140 C   0  0  0  0  0  0  0  0  0  0  0  0
   58.7390   32.7560   46.8270 C   0  0  0  0  0  0  0  0  0  0  0  0
   57.2440   28.4330   45.0350 C   0  0  0  0  0  0  0  0  0  0  0  0
   55.1390   27.4550   46.0150 H   0  0  0  0  0  0  0  0  0  0  0  0
   59.6959   26.2037   45.8797 H   0  0  0  0  0  0  0  0  0  0  0  0
   61.1215   28.0746   45.0433 H   0  0  0  0  0  0  0  0  0  0  0  0
   60.0663   30.1691   44.1904 H   0  0  0  0  0  0  0  0  0  0  0  0
   56.0460   32.1730   45.5700 H   0  0  0  0  0  0  0  0  0  0  0  0
   57.7628   34.3755   43.9756 H   0  0  0  0  0  0  0  0  0  0  0  0
   59.4739   35.9945   44.7910 H   0  0  0  0  0  0  0  0  0  0  0  0
   60.7125   35.5490   46.9090 H   0  0  0  0  0  0  0  0  0  0  0  0
   62.5710   32.8546   50.3532 H   0  0  0  0  0  0  0  0  0  0  0  0
   63.2883   31.3063   49.7157 H   0  0  0  0  0  0  0  0  0  0  0  0
   64.6548   33.6105   49.6664 H   0  0  0  0  0  0  0  0  0  0  0  0
   64.7831   32.3830   48.3516 H   0  0  0  0  0  0  0  0  0  0  0  0
   62.5346   34.1096   46.2090 H   0  0  0  0  0  0  0  0  0  0  0  0
   63.9966   33.0141   46.2028 H   0  0  0  0  0  0  0  0  0  0  0  0
   61.3624   32.1816   46.4618 H   0  0  0  0  0  0  0  0  0  0  0  0
   62.8493   31.2573   46.9520 H   0  0  0  0  0  0  0  0  0  0  0  0
   58.5395   31.8381   47.3995 H   0  0  0  0  0  0  0  0  0  0  0  0
   56.1494   28.5405   45.0488 H   0  0  0  0  0  0  0  0  0  0  0  0
  1  2  1  0
  2  3  2  0
  2  4  2  0
  2  5  1  0
  5  6  2  0
  6  7  1  0
  7  8  2  0
  8  9  1  0
  9 10  1  0
 10 11  2  0
 10 12  2  0
 10 13  1  0
 13 14  1  0
 14 15  2  0
 15 16  1  0
 16 17  2  0
 17 18  1  0
 18 19  1  0
 19 20  2  0
 19 21  2  0
 19 22  1  0
 22 23  1  0
 23 24  1  0
 24 25  1  0
 25 26  1  0
 26 27  1  0
 18 28  2  0
  9 29  2  0
 29  5  1  0
 28 14  1  0
 27 22  1  0
  1 30  1  0
  6 31  1  0
  7 32  1  0
  8 33  1  0
 13 34  1  0
 15 35  1  0
 16 36  1  0
 17 37  1  0
 23 38  1  0
 23 39  1  0
 24 40  1  0
 24 41  1  0
 26 42  1  0
 26 43  1  0
 27 44  1  0
 27 45  1  0
 28 46  1  0
 29 47  1  0
M  CHG  1   1  -1
M  END
>  <UniqueID>  (1) 
1

>  <SMILES>  (1) 
[NH-]S(=O)(=O)c1cccc(S(=O)(=O)Nc2cccc(S(=O)(=O)N3CCOCC3)c2)c1

>  <Energy>  (1) 
60.57909469410225

>  <Genealogy>  (1) 
[NH-]S(=O)(=O)c1cccc(S(=O)(=O)Nc2cccc(S(=O)(=O)N3CCOCC3)c2)c1 (protonated)
[NH-]S(=O)(=O)c1cccc(S(=O)(=O)Nc2cccc(S(=O)(=O)N3CCOCC3)c2)c1 (3D coordinates assigned)
[NH-]S(=O)(=O)c1cccc(S(=O)(=O)Nc2cccc(S(=O)(=O)N3CCOCC3)c2)c1 (nonaromatic ring conformer: 60.57909469410225 kcal/mol)

>  <smiles>  (1) 
NS(=O)(=O)c1cccc(S(=O)(=O)Nc2cccc(S(=O)(=O)N3CCOCC3)c2)c1

>  <score_type>  (1) 
oracle

>  <origin>  (1) 
adg

>  <m_score__min__energy>  (1) 
-13.220000000000001

>  <m_primary>  (1) 
energy

$$$$
1:0
     RDKit          3D

 41 43  0  0  0  0  0  0  0  0999 V2000
   55.9540   29.9790   44.8560 O   0  0  0  0  0  0  0  0  0  0  0  0
   57.1190   29.5600   44.9600 C   0  0  0  0  0  0  0  0  0  0  0  0
   57.3510   28.1050   44.7970 C   0  0  0  0  0  0  0  0  0  0  0  0
   57.6760   27.2380   46.3110 S   0  0  0  0  0  0  0  0  0  0  0  0
   59.4010   27.2350   46.7360 C   0  0  0  0  0  0  0  0  0  0  0  0
   59.9940   28.5170   47.1360 C   0  0  0  0  0  0  0  0  0  0  0  0
   59.8810   29.1100   48.3760 C   0  0  0  0  0  0  0  0  0  0  0  0
   60.6020   30.2620   48.3140 N   0  0  0  0  0  0  0  0  0  0  0  0
   61.1380   30.3730   47.0860 C   0  0  0  0  0  0  0  0  0  0  0  0
   60.7680   29.3130   46.3710 N   0  0  0  0  0  0  0  0  0  0  0  0
   58.2050   30.4160   45.2230 N   0  0  0  0  0  0  0  0  0  0  0  0
   58.1520   31.8100   45.4020 C   0  0  0  0  0  0  0  0  0  0  0  0
   57.5030   32.7070   44.5940 C   0  0  0  0  0  0  0  0  0  0  0  0
   57.5000   34.0750   44.8480 C   0  0  0  0  0  0  0  0  0  0  0  0
   58.1540   34.5880   45.9320 C   0  0  0  0  0  0  0  0  0  0  0  0
   58.8120   33.6990   46.7580 C   0  0  0  0  0  0  0  0  0  0  0  0
   59.6840   34.3050   48.1920 S   0  0  0  0  0  0  0  0  0  0  0  0
   61.4020   33.8580   48.1520 C   0  0  0  0  0  0  0  0  0  0  0  0
   62.0120   33.8120   46.8940 C   0  0  0  0  0  0  0  0  0  0  0  0
   63.3460   33.4720   46.7600 C   0  0  0  0  0  0  0  0  0  0  0  0
   64.0830   33.1770   47.8890 C   0  0  0  0  0  0  0  0  0  0  0  0
   63.4700   33.2240   49.1450 C   0  0  0  0  0  0  0  0  0  0  0  0
   62.1370   33.5620   49.2880 C   0  0  0  0  0  0  0  0  0  0  0  0
   58.8130   32.3510   46.5030 C   0  0  0  0  0  0  0  0  0  0  0  0
   56.4560   27.6641   44.3338 H   0  0  0  0  0  0  0  0  0  0  0  0
   58.2528   27.9994   44.1760 H   0  0  0  0  0  0  0  0  0  0  0  0
   59.5349   26.5329   47.5721 H   0  0  0  0  0  0  0  0  0  0  0  0
   59.9220   26.9581   45.8077 H   0  0  0  0  0  0  0  0  0  0  0  0
   59.3202   28.7280   49.2418 H   0  0  0  0  0  0  0  0  0  0  0  0
   60.6900   30.9100   49.1220 H   0  0  0  0  0  0  0  0  0  0  0  0
   61.7735   31.1984   46.7327 H   0  0  0  0  0  0  0  0  0  0  0  0
   59.1550   29.9410   45.2900 H   0  0  0  0  0  0  0  0  0  0  0  0
   56.9643   32.3313   43.7116 H   0  0  0  0  0  0  0  0  0  0  0  0
   56.9639   34.7523   44.1669 H   0  0  0  0  0  0  0  0  0  0  0  0
   58.1562   35.6684   46.1388 H   0  0  0  0  0  0  0  0  0  0  0  0
   61.4214   34.0500   45.9971 H   0  0  0  0  0  0  0  0  0  0  0  0
   63.8141   33.4371   45.7652 H   0  0  0  0  0  0  0  0  0  0  0  0
   65.1457   32.9067   47.8014 H   0  0  0  0  0  0  0  0  0  0  0  0
   64.0626   32.9863   50.0407 H   0  0  0  0  0  0  0  0  0  0  0  0
   61.6699   33.5951   50.2833 H   0  0  0  0  0  0  0  0  0  0  0  0
   59.3509   31.6781   47.1871 H   0  0  0  0  0  0  0  0  0  0  0  0
  1  2  2  0
  2  3  1  0
  3  4  1  0
  4  5  1  0
  5  6  1  0
  6  7  2  0
  7  8  1  0
  8  9  1  0
  9 10  2  0
  2 11  1  0
 11 12  1  0
 12 13  2  0
 13 14  1  0
 14 15  2  0
 15 16  1  0
 16 17  1  0
 17 18  1  0
 18 19  2  0
 19 20  1  0
 20 21  2  0
 21 22  1  0
 22 23  2  0
 16 24  2  0
 10  6  1  0
 24 12  1  0
 23 18  1  0
  3 25  1  0
  3 26  1  0
  5 27  1  0
  5 28  1  0
  7 29  1  0
  8 30  1  0
  9 31  1  0
 11 32  1  0
 13 33  1  0
 14 34  1  0
 15 35  1  0
 19 36  1  0
 20 37  1  0
 21 38  1  0
 22 39  1  0
 23 40  1  0
 24 41  1  0
M  END
>  <smiles>  (2) 
O=C(CSCc1c[nH]cn1)Nc1cccc(Sc2ccccc2)c1

>  <score_type>  (2) 
oracle

>  <origin>  (2) 
adg

>  <m_score__min__energy>  (2) 
-8.1999999999999993

>  <m_primary>  (2) 
energy

$$$$
2:0
     RDKit          3D

 48 51  0  0  0  0  0  0  0  0999 V2000
   57.6720   28.2910   44.3730 C   0  0  0  0  0  0  0  0  0  0  0  0
   58.0570   27.3900   45.2910 C   0  0  0  0  0  0  0  0  0  0  0  0
   57.6980   26.0310   45.3630 C   0  0  0  0  0  0  0  0  0  0  0  0
   56.9910   25.2530   44.5210 C   0  0  0  0  0  0  0  0  0  0  0  0
   55.7260   24.5650   44.8400 C   0  0  0  0  0  0  0  0  0  0  0  0
   54.6960   25.2220   45.5350 C   0  0  0  0  0  0  0  0  0  0  0  0
   54.8610   26.5300   45.9760 O   0  0  0  0  0  0  0  0  0  0  0  0
   53.5260   24.5790   45.7770 N   0  0  0  0  0  0  0  0  0  0  0  0
   53.3220   23.3080   45.3440 C   0  0  0  0  0  0  0  0  0  0  0  0
   52.2300   22.7300   45.5830 O   0  0  0  0  0  0  0  0  0  0  0  0
   54.2920   22.6620   44.6460 N   0  0  0  0  0  0  0  0  0  0  0  0
   55.4810   23.2620   44.3790 C   0  0  0  0  0  0  0  0  0  0  0  0
   56.3570   22.6370   43.7230 O   0  0  0  0  0  0  0  0  0  0  0  0
   58.2510   25.5470   46.5380 C   0  0  0  0  0  0  0  0  0  0  0  0
   58.9440   26.5890   47.1160 C   0  0  0  0  0  0  0  0  0  0  0  0
   59.7230   26.4920   48.3930 C   0  0  0  0  0  0  0  0  0  0  0  0
   58.8370   27.7020   46.3590 N   0  0  0  0  0  0  0  0  0  0  0  0
   59.4030   28.9840   46.6820 C   0  0  0  0  0  0  0  0  0  0  0  0
   58.5860   30.0080   47.1770 C   0  0  0  0  0  0  0  0  0  0  0  0
   59.1300   31.2610   47.4790 C   0  0  0  0  0  0  0  0  0  0  0  0
   60.5040   31.5100   47.2900 C   0  0  0  0  0  0  0  0  0  0  0  0
   61.0830   32.7990   47.5930 N   0  0  0  0  0  0  0  0  0  0  0  0
   61.1280   33.3330   48.9630 C   0  0  0  0  0  0  0  0  0  0  0  0
   62.0930   34.5220   49.0170 C   0  0  0  0  0  0  0  0  0  0  0  0
   63.3710   34.2140   48.2170 C   0  0  0  0  0  0  0  0  0  0  0  0
   63.0600   33.5210   46.8690 C   0  0  0  0  0  0  0  0  0  0  0  0
   61.6740   33.5260   46.6020 O   0  0  0  0  0  0  0  0  0  0  0  0
   61.3130   30.4770   46.7810 C   0  0  0  0  0  0  0  0  0  0  0  0
   60.7670   29.2270   46.4800 C   0  0  0  0  0  0  0  0  0  0  0  0
   58.0310   29.3288   44.4366 H   0  0  0  0  0  0  0  0  0  0  0  0
   56.9976   27.9913   43.5573 H   0  0  0  0  0  0  0  0  0  0  0  0
   57.3925   25.1189   43.5057 H   0  0  0  0  0  0  0  0  0  0  0  0
   58.1551   24.5253   46.9342 H   0  0  0  0  0  0  0  0  0  0  0  0
   59.0368   26.5774   49.2485 H   0  0  0  0  0  0  0  0  0  0  0  0
   60.2409   25.5224   48.4338 H   0  0  0  0  0  0  0  0  0  0  0  0
   60.4629   27.3050   48.4338 H   0  0  0  0  0  0  0  0  0  0  0  0
   57.5118   29.8263   47.3290 H   0  0  0  0  0  0  0  0  0  0  0  0
   58.4796   32.0586   47.8673 H   0  0  0  0  0  0  0  0  0  0  0  0
   60.1220   33.6636   49.2608 H   0  0  0  0  0  0  0  0  0  0  0  0
   61.4750   32.5480   49.6510 H   0  0  0  0  0  0  0  0  0  0  0  0
   61.6013   35.4073   48.5875 H   0  0  0  0  0  0  0  0  0  0  0  0
   62.3661   34.7119   50.0655 H   0  0  0  0  0  0  0  0  0  0  0  0
   63.9005   35.1572   48.0172 H   0  0  0  0  0  0  0  0  0  0  0  0
   63.9891   33.5289   48.8158 H   0  0  0  0  0  0  0  0  0  0  0  0
   63.5831   34.0546   46.0618 H   0  0  0  0  0  0  0  0  0  0  0  0
   63.4005   32.4766   46.9267 H   0  0  0  0  0  0  0  0  0  0  0  0
   62.3862   30.6558   46.6185 H   0  0  0  0  0  0  0  0  0  0  0  0
   61.4119   28.4296   46.0823 H   0  0  0  0  0  0  0  0  0  0  0  0
  1  2  2  0
  2  3  1  0
  3  4  2  3
  4  5  1  0
  5  6  2  0
  6  7  1  0
  6  8  1  0
  8  9  1  0
  9 10  2  0
  9 11  1  0
 11 12  1  0
 12 13  2  0
  3 14  1  0
 14 15  2  0
 15 16  1  0
 15 17  1  0
 17 18  1  0
 18 19  2  0
 19 20  1  0
 20 21  2  0
 21 22  1  0
 22 23  1  0
 23 24  1  0
 24 25  1  0
 25 26  1  0
 26 27  1  0
 21 28  1  0
 28 29  2  0
 17  2  1  0
 29 18  1  0
 12  5  1  0
 27 22  1  0
  1 30  1  0
  1 31  1  0
  4 32  1  0
 14 33  1  0
 16 34  1  0
 16 35  1  0
 16 36  1  0
 19 37  1  0
 20 38  1  0
 23 39  1  0
 23 40  1  0
 24 41  1  0
 24 42  1  0
 25 43  1  0
 25 44  1  0
 26 45  1  0
 26 46  1  0
 28 47  1  0
 29 48  1  0
M  CHG  3   7  -1   8  -1  11  -1
M  END
>  <UniqueID>  (3) 
2

>  <SMILES>  (3) 
C=c1c(=Cc2c([O-])[n-]c(=O)[n-]c2=O)cc(C)n1-c1ccc(N2CCCCO2)cc1

>  <Energy>  (3) 
105.50719770769142

>  <Genealogy>  (3) 
C=c1c(=Cc2c([O-])[n-]c(=O)[n-]c2=O)cc(C)n1-c1ccc(N2CCCCO2)cc1 (protonated)
C=c1c(=Cc2c([O-])[n-]c(=O)[n-]c2=O)cc(C)n1-c1ccc(N2CCCCO2)cc1 (3D coordinates assigned)
C=c1c(=Cc2c([O-])[n-]c(=O)[n-]c2=O)cc(C)n1-c1ccc(N2CCCCO2)cc1 (nonaromatic ring conformer: 105.50719770769142 kcal/mol)

>  <smiles>  (3) 
C=c1c(=Cc2c(O)[nH]c(=O)[nH]c2=O)cc(C)n1-c1ccc(N2CCCCO2)cc1

>  <score_type>  (3) 
oracle

>  <origin>  (3) 
adg

>  <m_score__min__energy>  (3) 
-15.890000000000001

>  <m_primary>  (3) 
energy

$$$$
3:0
     RDKit          3D

 57 60  0  0  0  0  0  0  0  0999 V2000
   58.9700   28.6350   47.1430 C   0  0  0  0  0  0  0  0  0  0  0  0
   58.4250   29.2720   46.0940 C   0  0  0  0  0  0  0  0  0  0  0  0
   57.6540   28.7090   45.0610 C   0  0  0  0  0  0  0  0  0  0  0  0
   57.3880   27.4240   44.7520 C   0  0  0  0  0  0  0  0  0  0  0  0
   57.2700   26.3180   45.7220 C   0  0  0  0  0  0  0  0  0  0  0  0
   56.0370   26.0040   46.3170 C   0  0  0  0  0  0  0  0  0  0  0  0
   54.8880   26.7110   45.9820 O   0  0  0  0  0  0  0  0  0  0  0  0
   55.9610   25.0040   47.2320 N   0  0  0  0  0  0  0  0  0  0  0  0
   57.0680   24.3070   47.6010 C   0  0  0  0  0  0  0  0  0  0  0  0
   56.9740   23.3830   48.4480 O   0  0  0  0  0  0  0  0  0  0  0  0
   58.2750   24.6130   47.0610 N   0  0  0  0  0  0  0  0  0  0  0  0
   58.4020   25.6040   46.1410 C   0  0  0  0  0  0  0  0  0  0  0  0
   59.5400   25.8660   45.6660 O   0  0  0  0  0  0  0  0  0  0  0  0
   57.1590   29.7720   44.3230 C   0  0  0  0  0  0  0  0  0  0  0  0
   57.6780   30.9220   44.8780 C   0  0  0  0  0  0  0  0  0  0  0  0
   57.4040   32.3070   44.3730 C   0  0  0  0  0  0  0  0  0  0  0  0
   58.4410   30.6240   45.9530 N   0  0  0  0  0  0  0  0  0  0  0  0
   59.1150   31.5780   46.7940 C   0  0  0  0  0  0  0  0  0  0  0  0
   58.3770   32.4380   47.6190 C   0  0  0  0  0  0  0  0  0  0  0  0
   59.0320   33.3660   48.4300 C   0  0  0  0  0  0  0  0  0  0  0  0
   60.4270   33.4470   48.4200 C   0  0  0  0  0  0  0  0  0  0  0  0
   61.1830   32.6010   47.5890 C   0  0  0  0  0  0  0  0  0  0  0  0
   62.6630   32.6800   47.5940 C   0  0  0  0  0  0  0  0  0  0  0  0
   63.2650   32.9980   46.5320 O   0  0  0  0  0  0  0  0  0  0  0  0
   63.4280   32.4270   48.7860 N   0  0  0  0  0  0  0  0  0  0  0  0
   63.1720   31.2400   49.6100 C   0  0  0  0  0  0  0  0  0  0  0  0
   63.2750   31.5830   51.1110 C   0  0  0  0  0  0  0  0  0  0  0  0
   64.2440   32.6670   51.4230 N   0  0  0  0  0  0  0  0  0  0  0  0
   63.5820   33.9490   51.7530 C   0  0  0  0  0  0  0  0  0  0  0  0
   62.0810   33.8480   51.5000 C   0  0  0  0  0  0  0  0  0  0  0  0
   65.2770   32.8300   50.3790 C   0  0  0  0  0  0  0  0  0  0  0  0
   64.6510   33.2000   49.0260 C   0  0  0  0  0  0  0  0  0  0  0  0
   60.5150   31.6570   46.7890 C   0  0  0  0  0  0  0  0  0  0  0  0
   59.5551   29.1981   47.8850 H   0  0  0  0  0  0  0  0  0  0  0  0
   58.8314   27.5501   47.2603 H   0  0  0  0  0  0  0  0  0  0  0  0
   57.2472   27.1796   43.6888 H   0  0  0  0  0  0  0  0  0  0  0  0
   56.4811   29.7100   43.4589 H   0  0  0  0  0  0  0  0  0  0  0  0
   57.2692   32.9883   45.2260 H   0  0  0  0  0  0  0  0  0  0  0  0
   58.2520   32.6487   43.7613 H   0  0  0  0  0  0  0  0  0  0  0  0
   56.4898   32.3001   43.7613 H   0  0  0  0  0  0  0  0  0  0  0  0
   57.2785   32.3813   47.6272 H   0  0  0  0  0  0  0  0  0  0  0  0
   58.4484   34.0356   49.0789 H   0  0  0  0  0  0  0  0  0  0  0  0
   60.9369   34.1769   49.0660 H   0  0  0  0  0  0  0  0  0  0  0  0
   62.1615   30.8625   49.3947 H   0  0  0  0  0  0  0  0  0  0  0  0
   63.9253   30.4750   49.3704 H   0  0  0  0  0  0  0  0  0  0  0  0
   62.2810   31.8971   51.4622 H   0  0  0  0  0  0  0  0  0  0  0  0
   63.6394   30.6774   51.6181 H   0  0  0  0  0  0  0  0  0  0  0  0
   63.7566   34.1857   52.8130 H   0  0  0  0  0  0  0  0  0  0  0  0
   64.0003   34.7429   51.1168 H   0  0  0  0  0  0  0  0  0  0  0  0
   61.5486   33.8122   52.4619 H   0  0  0  0  0  0  0  0  0  0  0  0
   61.7457   34.7256   50.9278 H   0  0  0  0  0  0  0  0  0  0  0  0
   61.8663   32.9334   50.9278 H   0  0  0  0  0  0  0  0  0  0  0  0
   65.9705   33.6279   50.6829 H   0  0  0  0  0  0  0  0  0  0  0  0
   65.8088   31.8739   50.2651 H   0  0  0  0  0  0  0  0  0  0  0  0
   64.4055   34.2722   49.0240 H   0  0  0  0  0  0  0  0  0  0  0  0
   65.3741   32.9698   48.2297 H   0  0  0  0  0  0  0  0  0  0  0  0
   61.0966   30.9736   46.1528 H   0  0  0  0  0  0  0  0  0  0  0  0
  1  2  2  0
  2  3  1  0
  3  4  2  3
  4  5  1  0
  5  6  2  0
  6  7  1  0
  6  8  1  0
  8  9  1  0
  9 10  2  0
  9 11  1  0
 11 12  1  0
 12 13  2  0
  3 14  1  0
 14 15  2  0
 15 16  1  0
 15 17  1  0
 17 18  1  0
 18 19  2  0
 19 20  1  0
 20 21  2  0
 21 22  1  0
 22 23  1  0
 23 24  2  0
 23 25  1  0
 25 26  1  0
 26 27  1  0
 27 28  1  0
 28 29  1  0
 29 30  1  0
 28 31  1  0
 31 32  1  0
 22 33  2  0
 17  2  1  0
 33 18  1  0
 12  5  1  0
 32 25  1  0
  1 34  1  0
  1 35  1  0
  4 36  1  0
 14 37  1  0
 16 38  1  0
 16 39  1  0
 16 40  1  0
 19 41  1  0
 20 42  1  0
 21 43  1  0
 26 44  1  0
 26 45  1  0
 27 46  1  0
 27 47  1  0
 29 48  1  0
 29 49  1  0
 30 50  1  0
 30 51  1  0
 30 52  1  0
 31 53  1  0
 31 54  1  0
 32 55  1  0
 32 56  1  0
 33 57  1  0
M  CHG  3   7  -1   8  -1  11  -1
M  END
>  <UniqueID>  (4) 
3

>  <SMILES>  (4) 
C=c1c(=Cc2c([O-])[n-]c(=O)[n-]c2=O)cc(C)n1-c1cccc(C(=O)N2CCN(CC)CC2)c1

>  <Energy>  (4) 
117.62338330376221

>  <Genealogy>  (4) 
C=c1c(=Cc2c([O-])[n-]c(=O)[n-]c2=O)cc(C)n1-c1cccc(C(=O)N2CCN(CC)CC2)c1 (protonated)
C=c1c(=Cc2c([O-])[n-]c(=O)[n-]c2=O)cc(C)n1-c1cccc(C(=O)N2CCN(CC)CC2)c1 (3D coordinates assigned)
C=c1c(=Cc2c([O-])[n-]c(=O)[n-]c2=O)cc(C)n1-c1cccc(C(=O)N2CCN(CC)CC2)c1 (nonaromatic ring conformer: 117.62338330376221 kcal/mol)

>  <smiles>  (4) 
C=c1c(=Cc2c(O)[nH]c(=O)[nH]c2=O)cc(C)n1-c1cccc(C(=O)N2CCN(CC)CC2)c1

>  <score_type>  (4) 
oracle

>  <origin>  (4) 
adg

>  <m_score__min__energy>  (4) 
-17.52

>  <m_primary>  (4) 
energy

$$$$
4:0
     RDKit          3D

 58 61  0  0  0  0  0  0  0  0999 V2000
   61.2160   34.5544   48.2837 H   0  0  0  0  0  0  0  0  0  0  0  0
   60.1620   34.2650   48.4070 C   0  0  0  0  0  0  0  0  0  0  0  0
   59.7210   33.9770   49.6410 C   0  0  0  0  0  0  0  0  0  0  0  0
   59.6787   34.7872   50.3839 H   0  0  0  0  0  0  0  0  0  0  0  0
   59.2880   32.6200   50.0520 C   0  0  0  0  0  0  0  0  0  0  0  0
   58.3760   32.4110   51.1040 C   0  0  0  0  0  0  0  0  0  0  0  0
   57.9695   33.2718   51.6552 H   0  0  0  0  0  0  0  0  0  0  0  0
   57.9850   31.1160   51.4510 C   0  0  0  0  0  0  0  0  0  0  0  0
   57.2728   30.9615   52.2750 H   0  0  0  0  0  0  0  0  0  0  0  0
   58.4930   30.0180   50.7580 C   0  0  0  0  0  0  0  0  0  0  0  0
   58.1787   29.0015   51.0373 H   0  0  0  0  0  0  0  0  0  0  0  0
   59.4040   30.2030   49.7050 C   0  0  0  0  0  0  0  0  0  0  0  0
   59.9510   29.0420   48.9620 C   0  0  0  0  0  0  0  0  0  0  0  0
   60.3280   28.0240   49.5990 O   0  0  0  0  0  0  0  0  0  0  0  0
   60.1100   29.0590   47.5370 N   0  0  0  0  0  0  0  0  0  0  0  0
   59.0630   28.9080   46.5660 C   0  0  0  0  0  0  0  0  0  0  0  0
   58.2490   29.9890   46.1860 C   0  0  0  0  0  0  0  0  0  0  0  0
   58.4080   30.9802   46.6358 H   0  0  0  0  0  0  0  0  0  0  0  0
   57.2390   29.8080   45.2390 C   0  0  0  0  0  0  0  0  0  0  0  0
   56.4480   30.8840   44.8570 O   0  0  0  0  0  0  0  0  0  0  0  0
   57.0210   28.5470   44.6780 C   0  0  0  0  0  0  0  0  0  0  0  0
   56.2344   28.4145   43.9206 H   0  0  0  0  0  0  0  0  0  0  0  0
   57.8000   27.4470   45.0750 C   0  0  0  0  0  0  0  0  0  0  0  0
   57.5520   26.1060   44.4900 C   0  0  0  0  0  0  0  0  0  0  0  0
   57.8240   25.8930   43.2780 O   0  0  0  0  0  0  0  0  0  0  0  0
   57.0810   25.0130   45.2900 N   0  0  0  0  0  0  0  0  0  0  0  0
   55.8990   24.4690   45.2220 C   0  0  0  0  0  0  0  0  0  0  0  0
   54.6780   25.0370   45.5350 C   0  0  0  0  0  0  0  0  0  0  0  0
   54.4140   26.3240   45.9860 O   0  0  0  0  0  0  0  0  0  0  0  0
   53.7490   24.0510   45.2680 C   0  0  0  0  0  0  0  0  0  0  0  0
   52.2710   24.1350   45.4980 C   0  0  0  0  0  0  0  0  0  0  0  0
   51.7674   24.3427   44.5423 H   0  0  0  0  0  0  0  0  0  0  0  0
   52.0689   24.9423   46.2173 H   0  0  0  0  0  0  0  0  0  0  0  0
   51.7430   22.8250   46.0680 C   0  0  0  0  0  0  0  0  0  0  0  0
   51.7610   22.8696   47.1669 H   0  0  0  0  0  0  0  0  0  0  0  0
   50.7103   22.6654   45.7244 H   0  0  0  0  0  0  0  0  0  0  0  0
   52.3764   21.9939   45.7244 H   0  0  0  0  0  0  0  0  0  0  0  0
   54.3830   22.9440   44.8230 N   0  0  0  0  0  0  0  0  0  0  0  0
   55.6810   23.2110   44.7860 N   0  0  0  0  0  0  0  0  0  0  0  0
   56.6930   22.2550   44.3550 C   0  0  0  0  0  0  0  0  0  0  0  0
   57.1706   21.8038   45.2373 H   0  0  0  0  0  0  0  0  0  0  0  0
   56.2194   21.4669   43.7512 H   0  0  0  0  0  0  0  0  0  0  0  0
   57.4529   22.7727   43.7512 H   0  0  0  0  0  0  0  0  0  0  0  0
   58.8230   27.6410   46.0220 C   0  0  0  0  0  0  0  0  0  0  0  0
   59.4407   26.7874   46.3380 H   0  0  0  0  0  0  0  0  0  0  0  0
   59.7790   31.5090   49.3450 C   0  0  0  0  0  0  0  0  0  0  0  0
   60.4653   31.6634   48.4994 H   0  0  0  0  0  0  0  0  0  0  0  0
   59.3010   34.2130   47.2010 C   0  0  0  0  0  0  0  0  0  0  0  0
   59.6870   34.9400   46.0630 C   0  0  0  0  0  0  0  0  0  0  0  0
   60.6178   35.5260   46.0798 H   0  0  0  0  0  0  0  0  0  0  0  0
   58.8980   34.9250   44.9090 C   0  0  0  0  0  0  0  0  0  0  0  0
   59.2136   35.4914   44.0204 H   0  0  0  0  0  0  0  0  0  0  0  0
   57.7100   34.1920   44.8830 C   0  0  0  0  0  0  0  0  0  0  0  0
   57.0929   34.1768   43.9725 H   0  0  0  0  0  0  0  0  0  0  0  0
   57.3050   33.4780   46.0130 C   0  0  0  0  0  0  0  0  0  0  0  0
   56.3657   32.9059   45.9933 H   0  0  0  0  0  0  0  0  0  0  0  0
   58.0910   33.4890   47.1690 C   0  0  0  0  0  0  0  0  0  0  0  0
   57.7641   32.9301   48.0583 H   0  0  0  0  0  0  0  0  0  0  0  0
  1  2  1  0
  2  3  2  0
  3  4  1  0
  3  5  1  0
  5  6  2  0
  6  7  1  0
  6  8  1  0
  8  9  1  0
  8 10  2  0
 10 11  1  0
 10 12  1  0
 12 13  1  0
 13 14  2  0
 13 15  1  0
 15 16  1  0
 16 17  2  0
 17 18  1  0
 17 19  1  0
 19 20  1  0
 19 21  2  0
 21 22  1  0
 21 23  1  0
 23 24  1  0
 24 25  2  0
 24 26  1  0
 26 27  2  3
 27 28  1  0
 28 29  1  0
 28 30  2  0
 30 31  1  0
 31 32  1  0
 31 33  1  0
 31 34  1  0
 34 35  1  0
 34 36  1  0
 34 37  1  0
 30 38  1  0
 38 39  1  0
 39 40  1  0
 40 41  1  0
 40 42  1  0
 40 43  1  0
 23 44  2  0
 44 45  1  0
 12 46  2  0
 46 47  1  0
  2 48  1  0
 48 49  2  0
 49 50  1  0
 49 51  1  0
 51 52  1  0
 51 53  2  0
 53 54  1  0
 53 55  1  0
 55 56  1  0
 55 57  2  0
 57 58  1  0
 46  5  1  0
 57 48  1  0
 44 16  1  0
 39 27  1  0
M  CHG  4  15  -1  20  -1  29  -1  38  -1
M  END
>  <UniqueID>  (5) 
4

>  <SMILES>  (5) 
CCc1[n-]n(C)c(=NC(=O)c2cc([O-])cc([N-]C(=O)c3cccc(/C=C/c4ccccc4)c3)c2)c1[O-]

>  <Energy>  (5) 
113.13060193188942

>  <Genealogy>  (5) 
CCc1[n-]n(C)c(=NC(=O)c2cc([O-])cc([N-]C(=O)c3cccc(C=Cc4ccccc4)c3)c2)c1[O-] (protonated)
CCc1[n-]n(C)c(=NC(=O)c2cc([O-])cc([N-]C(=O)c3cccc(/C=C/c4ccccc4)c3)c2)c1[O-] (cis-trans isomerization)
CCc1[n-]n(C)c(=NC(=O)c2cc([O-])cc([N-]C(=O)c3cccc(/C=C/c4ccccc4)c3)c2)c1[O-] (3D coordinates assigned)
CCc1[n-]n(C)c(=NC(=O)c2cc([O-])cc([N-]C(=O)c3cccc(/C=C/c4ccccc4)c3)c2)c1[O-] (optimized conformer: 113.13060193188942 kcal/mol)

>  <smiles>  (5) 
CCc1[nH]n(C)c(=NC(=O)c2cc(O)cc(NC(=O)c3cccc(C=Cc4ccccc4)c3)c2)c1O

>  <score_type>  (5) 
oracle

>  <origin>  (5) 
adg

>  <m_score__min__energy>  (5) 
-18.23

>  <m_primary>  (5) 
energy

$$$$
5:0
     RDKit          3D

 35 37  0  0  0  0  0  0  0  0999 V2000
   55.9100   28.2740   45.2080 O   0  0  0  0  0  0  0  0  0  0  0  0
   56.9460   27.8540   45.7940 C   0  0  0  0  0  0  0  0  0  0  0  0
   57.9340   28.7800   46.2620 N   0  0  0  0  0  0  0  0  0  0  0  0
   58.7590   29.5940   45.3760 C   0  0  0  0  0  0  0  0  0  0  0  0
   58.3180   31.0310   45.4340 C   0  0  0  0  0  0  0  0  0  0  0  0
   58.3570   31.7350   46.6460 C   0  0  0  0  0  0  0  0  0  0  0  0
   57.9230   33.0610   46.6970 C   0  0  0  0  0  0  0  0  0  0  0  0
   57.4490   33.6710   45.5350 C   0  0  0  0  0  0  0  0  0  0  0  0
   57.4100   32.9750   44.3670 N   0  0  0  0  0  0  0  0  0  0  0  0
   57.8270   31.6830   44.2920 C   0  0  0  0  0  0  0  0  0  0  0  0
   57.1460   26.3910   45.9950 C   0  0  0  0  0  0  0  0  0  0  0  0
   55.9650   25.6300   46.1610 C   0  0  0  0  0  0  0  0  0  0  0  0
   54.7750   26.3460   45.9890 O   0  0  0  0  0  0  0  0  0  0  0  0
   55.8280   24.2520   46.4770 C   0  0  0  0  0  0  0  0  0  0  0  0
   54.5030   23.7830   46.7040 C   0  0  0  0  0  0  0  0  0  0  0  0
   54.2290   22.4560   47.0100 C   0  0  0  0  0  0  0  0  0  0  0  0
   55.2600   21.5400   47.1000 C   0  0  0  0  0  0  0  0  0  0  0  0
   56.5730   21.9460   46.8880 C   0  0  0  0  0  0  0  0  0  0  0  0
   57.5720   20.9740   46.9910 O   0  0  0  0  0  0  0  0  0  0  0  0
   56.8790   23.2960   46.5780 C   0  0  0  0  0  0  0  0  0  0  0  0
   58.1880   23.5530   46.3780 N   0  0  0  0  0  0  0  0  0  0  0  0
   58.9420   24.6350   46.1120 C   0  0  0  0  0  0  0  0  0  0  0  0
   60.1820   24.4360   45.9950 O   0  0  0  0  0  0  0  0  0  0  0  0
   58.4830   25.9440   45.9800 C   0  0  0  0  0  0  0  0  0  0  0  0
   59.3820   26.8220   45.8260 O   0  0  0  0  0  0  0  0  0  0  0  0
   59.8105   29.5232   45.6911 H   0  0  0  0  0  0  0  0  0  0  0  0
   58.6515   29.2259   44.3450 H   0  0  0  0  0  0  0  0  0  0  0  0
   58.7294   31.2427   47.5564 H   0  0  0  0  0  0  0  0  0  0  0  0
   57.9544   33.6195   47.6441 H   0  0  0  0  0  0  0  0  0  0  0  0
   57.1065   34.7159   45.5636 H   0  0  0  0  0  0  0  0  0  0  0  0
   57.7794   31.1467   43.3328 H   0  0  0  0  0  0  0  0  0  0  0  0
   53.6679   24.4957   46.6347 H   0  0  0  0  0  0  0  0  0  0  0  0
   53.1911   22.1341   47.1807 H   0  0  0  0  0  0  0  0  0  0  0  0
   55.0418   20.4888   47.3395 H   0  0  0  0  0  0  0  0  0  0  0  0
   58.5520   21.1970   47.1190 H   0  0  0  0  0  0  0  0  0  0  0  0
  1  2  2  0
  2  3  1  0
  3  4  1  0
  4  5  1  0
  5  6  2  0
  6  7  1  0
  7  8  2  0
  8  9  1  0
  9 10  2  0
  2 11  1  0
 11 12  2  0
 12 13  1  0
 12 14  1  0
 14 15  2  0
 15 16  1  0
 16 17  2  0
 17 18  1  0
 18 19  1  0
 18 20  2  0
 20 21  1  0
 21 22  1  0
 22 23  2  0
 22 24  1  0
 24 25  2  0
 10  5  1  0
 24 11  1  0
 20 14  1  0
  4 26  1  0
  4 27  1  0
  6 28  1  0
  7 29  1  0
  8 30  1  0
 10 31  1  0
 15 32  1  0
 16 33  1  0
 17 34  1  0
 19 35  1  0
M  CHG  3   3  -1  13  -1  21  -1
M  END
>  <UniqueID>  (6) 
5

>  <SMILES>  (6) 
O=C([N-]Cc1cccnc1)c1c([O-])c2cccc(O)c2[n-]c(=O)c1=O

>  <Energy>  (6) 
80.84696709112109

>  <Genealogy>  (6) 
O=C([N-]Cc1cccnc1)c1c([O-])c2cccc(O)c2[n-]c(=O)c1=O (protonated)
O=C([N-]Cc1cccnc1)c1c([O-])c2cccc(O)c2[n-]c(=O)c1=O (3D coordinates assigned)
O=C([N-]Cc1cccnc1)c1c([O-])c2cccc(O)c2[n-]c(=O)c1=O (optimized conformer: 80.84696709112109 kcal/mol)

>  <smiles>  (6) 
O=C(NCc1cccnc1)c1c(O)c2cccc(O)c2[nH]c(=O)c1=O

>  <score_type>  (6) 
oracle

>  <origin>  (6) 
adg

>  <m_score__min__energy>  (6) 
-13.369999999999999

>  <m_primary>  (6) 
energy

$$$$
6:0
     RDKit          3D

 31 31  0  0  0  0  0  0  0  0999 V2000
   54.2980   25.0570   45.6150 C   0  0  0  0  0  0  0  0  0  0  0  0
   54.8360   26.3440   45.9020 O   0  0  0  0  0  0  0  0  0  0  0  0
   56.1970   26.6030   46.1320 C   0  0  0  0  0  0  0  0  0  0  0  0
   56.8970   27.6070   45.4350 C   0  0  0  0  0  0  0  0  0  0  0  0
   58.2620   27.8250   45.6780 C   0  0  0  0  0  0  0  0  0  0  0  0
   58.9590   28.9070   44.9480 C   0  0  0  0  0  0  0  0  0  0  0  0
   58.3740   29.7950   44.1290 C   0  0  0  0  0  0  0  0  0  0  0  0
   57.2780   30.7110   44.5010 C   0  0  0  0  0  0  0  0  0  0  0  0
   56.1740   30.2180   44.8550 O   0  0  0  0  0  0  0  0  0  0  0  0
   57.4040   32.2060   44.3770 C   0  0  0  0  0  0  0  0  0  0  0  0
   57.8820   32.7970   45.6740 C   0  0  0  0  0  0  0  0  0  0  0  0
   58.4500   34.1830   45.7240 C   0  0  0  0  0  0  0  0  0  0  0  0
   57.7800   32.1530   46.7070 O   0  0  0  0  0  0  0  0  0  0  0  0
   58.9160   27.0630   46.6600 C   0  0  0  0  0  0  0  0  0  0  0  0
   58.2260   26.0670   47.3530 C   0  0  0  0  0  0  0  0  0  0  0  0
   56.8700   25.8320   47.0900 C   0  0  0  0  0  0  0  0  0  0  0  0
   56.1840   24.8370   47.7810 O   0  0  0  0  0  0  0  0  0  0  0  0
   54.0789   24.5328   46.5569 H   0  0  0  0  0  0  0  0  0  0  0  0
   53.3711   25.1685   45.0332 H   0  0  0  0  0  0  0  0  0  0  0  0
   55.0284   24.4757   45.0332 H   0  0  0  0  0  0  0  0  0  0  0  0
   56.3694   28.2255   44.6940 H   0  0  0  0  0  0  0  0  0  0  0  0
   60.0468   28.9905   45.0881 H   0  0  0  0  0  0  0  0  0  0  0  0
   58.7423   29.8442   43.0937 H   0  0  0  0  0  0  0  0  0  0  0  0
   58.1251   32.4450   43.5814 H   0  0  0  0  0  0  0  0  0  0  0  0
   56.4190   32.6297   44.1314 H   0  0  0  0  0  0  0  0  0  0  0  0
   58.5758   34.4901   46.7727 H   0  0  0  0  0  0  0  0  0  0  0  0
   59.4266   34.1975   45.2180 H   0  0  0  0  0  0  0  0  0  0  0  0
   57.7645   34.8787   45.2180 H   0  0  0  0  0  0  0  0  0  0  0  0
   59.9763   27.2519   46.8839 H   0  0  0  0  0  0  0  0  0  0  0  0
   58.7494   25.4636   48.1093 H   0  0  0  0  0  0  0  0  0  0  0  0
   55.1730   24.8400   47.8520 H   0  0  0  0  0  0  0  0  0  0  0  0
  1  2  1  0
  2  3  1  0
  3  4  2  0
  4  5  1  0
  5  6  1  0
  6  7  2  3
  7  8  1  0
  8  9  2  0
  8 10  1  0
 10 11  1  0
 11 12  1  0
 11 13  2  0
  5 14  2  0
 14 15  1  0
 15 16  2  0
 16 17  1  0
 16  3  1  0
  1 18  1  0
  1 19  1  0
  1 20  1  0
  4 21  1  0
  6 22  1  0
  7 23  1  0
 10 24  1  0
 10 25  1  0
 12 26  1  0
 12 27  1  0
 12 28  1  0
 14 29  1  0
 15 30  1  0
 17 31  1  0
M  END
>  <UniqueID>  (7) 
6

>  <SMILES>  (7) 
COc1cc(C=CC(=O)CC(C)=O)ccc1O

>  <Energy>  (7) 
33.21650689590896

>  <Genealogy>  (7) 
COc1cc(C=CC(=O)CC(C)=O)ccc1O (3D coordinates assigned)
COc1cc(C=CC(=O)CC(C)=O)ccc1O (optimized conformer: 33.21650689590896 kcal/mol)

>  <smiles>  (7) 
COc1cc(C=CC(=O)CC(C)=O)ccc1O

>  <score_type>  (7) 
oracle

>  <origin>  (7) 
adg

>  <m_score__min__energy>  (7) 
-6.7199999999999998

>  <m_primary>  (7) 
energy

$$$$
7:0
     RDKit          3D

 48 50  0  0  0  0  0  0  0  0999 V2000
   55.8690   29.3690   45.1130 O   0  0  0  0  0  0  0  0  0  0  0  0
   57.0210   29.0960   44.6800 C   0  0  0  0  0  0  0  0  0  0  0  0
   57.5680   27.7120   44.8520 C   0  0  0  0  0  0  0  0  0  0  0  0
   57.4770   27.3410   46.2590 N   0  0  0  0  0  0  0  0  0  0  0  0
   58.5720   27.4790   47.1700 C   0  0  0  0  0  0  0  0  0  0  0  0
   58.9490   26.4860   47.8490 O   0  0  0  0  0  0  0  0  0  0  0  0
   59.2970   28.7660   47.2740 C   0  0  0  0  0  0  0  0  0  0  0  0
   60.1950   29.1610   46.2680 C   0  0  0  0  0  0  0  0  0  0  0  0
   60.8000   30.4200   46.3120 C   0  0  0  0  0  0  0  0  0  0  0  0
   60.5120   31.3050   47.3580 C   0  0  0  0  0  0  0  0  0  0  0  0
   61.1850   32.9340   47.3550 S   0  0  0  0  0  0  0  0  0  0  0  0
   60.4840   33.7620   48.3960 O   0  0  0  0  0  0  0  0  0  0  0  0
   60.9240   33.5650   46.0160 O   0  0  0  0  0  0  0  0  0  0  0  0
   62.9090   32.9410   47.6720 N   0  0  0  0  0  0  0  0  0  0  0  0
   63.4020   31.6470   48.1930 C   0  0  0  0  0  0  0  0  0  0  0  0
   63.6320   31.6610   49.7130 C   0  0  0  0  0  0  0  0  0  0  0  0
   62.7580   32.5710   50.3360 O   0  0  0  0  0  0  0  0  0  0  0  0
   63.1300   33.8930   49.9990 C   0  0  0  0  0  0  0  0  0  0  0  0
   63.3320   34.1010   48.4790 C   0  0  0  0  0  0  0  0  0  0  0  0
   59.6480   30.9030   48.3840 C   0  0  0  0  0  0  0  0  0  0  0  0
   59.0410   29.6450   48.3420 C   0  0  0  0  0  0  0  0  0  0  0  0
   57.8380   30.1210   44.1020 N   0  0  0  0  0  0  0  0  0  0  0  0
   57.8510   31.4790   44.5790 C   0  0  0  0  0  0  0  0  0  0  0  0
   57.7910   31.7540   45.9590 C   0  0  0  0  0  0  0  0  0  0  0  0
   57.8500   33.0720   46.4220 C   0  0  0  0  0  0  0  0  0  0  0  0
   57.9830   34.1260   45.5180 C   0  0  0  0  0  0  0  0  0  0  0  0
   58.0570   33.8660   44.1480 C   0  0  0  0  0  0  0  0  0  0  0  0
   57.9970   32.5500   43.6730 C   0  0  0  0  0  0  0  0  0  0  0  0
   58.0800   32.2790   41.9370 Cl  0  0  0  0  0  0  0  0  0  0  0  0
   56.9830   27.0054   44.2450 H   0  0  0  0  0  0  0  0  0  0  0  0
   58.6180   27.6824   44.5254 H   0  0  0  0  0  0  0  0  0  0  0  0
   60.4235   28.4742   45.4397 H   0  0  0  0  0  0  0  0  0  0  0  0
   61.5052   30.7168   45.5217 H   0  0  0  0  0  0  0  0  0  0  0  0
   62.6610   30.8689   47.9576 H   0  0  0  0  0  0  0  0  0  0  0  0
   64.3723   31.4474   47.7148 H   0  0  0  0  0  0  0  0  0  0  0  0
   63.4522   30.6532   50.1155 H   0  0  0  0  0  0  0  0  0  0  0  0
   64.6686   31.9701   49.9128 H   0  0  0  0  0  0  0  0  0  0  0  0
   62.3403   34.5769   50.3435 H   0  0  0  0  0  0  0  0  0  0  0  0
   64.0945   34.0957   50.4876 H   0  0  0  0  0  0  0  0  0  0  0  0
   62.7460   34.9774   48.1652 H   0  0  0  0  0  0  0  0  0  0  0  0
   64.4096   34.2417   48.3089 H   0  0  0  0  0  0  0  0  0  0  0  0
   59.4462   31.5805   49.2268 H   0  0  0  0  0  0  0  0  0  0  0  0
   58.3587   29.3402   49.1492 H   0  0  0  0  0  0  0  0  0  0  0  0
   58.5230   29.8380   43.3660 H   0  0  0  0  0  0  0  0  0  0  0  0
   57.6971   30.9263   46.6774 H   0  0  0  0  0  0  0  0  0  0  0  0
   57.7914   33.2781   47.5009 H   0  0  0  0  0  0  0  0  0  0  0  0
   58.0296   35.1621   45.8844 H   0  0  0  0  0  0  0  0  0  0  0  0
   58.1630   34.6995   43.4380 H   0  0  0  0  0  0  0  0  0  0  0  0
  1  2  2  0
  2  3  1  0
  3  4  1  0
  4  5  1  0
  5  6  2  0
  5  7  1  0
  7  8  2  0
  8  9  1  0
  9 10  2  0
 10 11  1  0
 11 12  2  0
 11 13  2  0
 11 14  1  0
 14 15  1  0
 15 16  1  0
 16 17  1  0
 17 18  1  0
 18 19  1  0
 10 20  1  0
 20 21  2  0
  2 22  1  0
 22 23  1  0
 23 24  2  0
 24 25  1  0
 25 26  2  0
 26 27  1  0
 27 28  2  0
 28 29  1  0
 21  7  1  0
 28 23  1  0
 19 14  1  0
  3 30  1  0
  3 31  1  0
  8 32  1  0
  9 33  1  0
 15 34  1  0
 15 35  1  0
 16 36  1  0
 16 37  1  0
 18 38  1  0
 18 39  1  0
 19 40  1  0
 19 41  1  0
 20 42  1  0
 21 43  1  0
 22 44  1  0
 24 45  1  0
 25 46  1  0
 26 47  1  0
 27 48  1  0
M  CHG  1   4  -1
M  END
>  <UniqueID>  (8) 
7

>  <SMILES>  (8) 
O=C(C[N-]C(=O)c1ccc(S(=O)(=O)N2CCOCC2)cc1)Nc1ccccc1Cl

>  <Energy>  (8) 
62.12082056112091

>  <Genealogy>  (8) 
O=C(C[N-]C(=O)c1ccc(S(=O)(=O)N2CCOCC2)cc1)Nc1ccccc1Cl (protonated)
O=C(C[N-]C(=O)c1ccc(S(=O)(=O)N2CCOCC2)cc1)Nc1ccccc1Cl (3D coordinates assigned)
O=C(C[N-]C(=O)c1ccc(S(=O)(=O)N2CCOCC2)cc1)Nc1ccccc1Cl (nonaromatic ring conformer: 62.12082056112091 kcal/mol)

>  <smiles>  (8) 
O=C(CNC(=O)c1ccc(S(=O)(=O)N2CCOCC2)cc1)Nc1ccccc1Cl

>  <score_type>  (8) 
oracle

>  <origin>  (8) 
adg

>  <m_score__min__energy>  (8) 
-10.56

>  <m_primary>  (8) 
energy

$$$$
8:0
     RDKit          3D

 38 40  0  0  0  0  0  0  0  0999 V2000
   58.1190   31.1210   50.8780 C   0  0  0  0  0  0  0  0  0  0  0  0
   58.7200   31.5970   52.1960 C   0  0  0  0  0  0  0  0  0  0  0  0
   57.9190   31.1810   53.3020 O   0  0  0  0  0  0  0  0  0  0  0  0
   57.7830   29.8650   53.7730 C   0  0  0  0  0  0  0  0  0  0  0  0
   58.6120   29.3840   54.7500 N   0  0  0  0  0  0  0  0  0  0  0  0
   58.4910   28.1190   55.2290 C   0  0  0  0  0  0  0  0  0  0  0  0
   57.5080   27.2830   54.7160 C   0  0  0  0  0  0  0  0  0  0  0  0
   56.6900   27.7420   53.7400 N   0  0  0  0  0  0  0  0  0  0  0  0
   56.7850   29.0040   53.2420 C   0  0  0  0  0  0  0  0  0  0  0  0
   55.9370   29.3410   52.3080 N   0  0  0  0  0  0  0  0  0  0  0  0
   54.8030   30.6580   52.2370 S   0  0  0  0  0  0  0  0  0  0  0  0
   55.5310   31.9400   52.5330 O   0  0  0  0  0  0  0  0  0  0  0  0
   54.2590   30.7410   50.8390 O   0  0  0  0  0  0  0  0  0  0  0  0
   53.4380   30.4450   53.3520 C   0  0  0  0  0  0  0  0  0  0  0  0
   53.7260   30.1240   54.6870 C   0  0  0  0  0  0  0  0  0  0  0  0
   52.6980   29.8900   55.6030 C   0  0  0  0  0  0  0  0  0  0  0  0
   51.3690   29.9700   55.1950 C   0  0  0  0  0  0  0  0  0  0  0  0
   51.0610   30.2950   53.8730 C   0  0  0  0  0  0  0  0  0  0  0  0
   52.0830   30.5540   52.9450 C   0  0  0  0  0  0  0  0  0  0  0  0
   51.6900   30.9190   51.5740 C   0  0  0  0  0  0  0  0  0  0  0  0
   51.8440   30.1110   50.5110 N   0  0  0  0  0  0  0  0  0  0  0  0
   51.3140   30.8270   49.4960 C   0  0  0  0  0  0  0  0  0  0  0  0
   51.2830   30.4040   48.3110 O   0  0  0  0  0  0  0  0  0  0  0  0
   50.8150   32.0310   49.8520 N   0  0  0  0  0  0  0  0  0  0  0  0
   51.0530   32.0690   51.1720 C   0  0  0  0  0  0  0  0  0  0  0  0
   50.6690   33.1200   51.9950 O   0  0  0  0  0  0  0  0  0  0  0  0
   57.2717   30.4500   51.0825 H   0  0  0  0  0  0  0  0  0  0  0  0
   57.7682   31.9889   50.3003 H   0  0  0  0  0  0  0  0  0  0  0  0
   58.8835   30.5808   50.3003 H   0  0  0  0  0  0  0  0  0  0  0  0
   59.7301   31.1750   52.3042 H   0  0  0  0  0  0  0  0  0  0  0  0
   58.7612   32.6962   52.1863 H   0  0  0  0  0  0  0  0  0  0  0  0
   59.3700   29.9740   55.1540 H   0  0  0  0  0  0  0  0  0  0  0  0
   59.1673   27.7589   56.0183 H   0  0  0  0  0  0  0  0  0  0  0  0
   57.3952   26.2580   55.0989 H   0  0  0  0  0  0  0  0  0  0  0  0
   54.7734   30.0558   55.0160 H   0  0  0  0  0  0  0  0  0  0  0  0
   52.9383   29.6423   56.6475 H   0  0  0  0  0  0  0  0  0  0  0  0
   50.5607   29.7768   55.9156 H   0  0  0  0  0  0  0  0  0  0  0  0
   50.0092   30.3487   53.5553 H   0  0  0  0  0  0  0  0  0  0  0  0
  1  2  1  0
  2  3  1  0
  3  4  1  0
  4  5  2  0
  5  6  1  0
  6  7  2  0
  7  8  1  0
  8  9  1  0
  9 10  2  3
 10 11  1  0
 11 12  2  0
 11 13  2  0
 11 14  1  0
 14 15  2  0
 15 16  1  0
 16 17  2  0
 17 18  1  0
 18 19  2  0
 19 20  1  0
 20 21  1  0
 21 22  1  0
 22 23  2  0
 22 24  1  0
 24 25  1  0
 25 26  1  0
  9  4  1  0
 19 14  1  0
 25 20  2  0
  1 27  1  0
  1 28  1  0
  1 29  1  0
  2 30  1  0
  2 31  1  0
  5 32  1  0
  6 33  1  0
  7 34  1  0
 15 35  1  0
 16 36  1  0
 17 37  1  0
 18 38  1  0
M  CHG  5   5   1   8  -1  21  -1  24  -1  26  -1
M  END
>  <UniqueID>  (9) 
8

>  <SMILES>  (9) 
CCOc1[nH+]cc[n-]c1=NS(=O)(=O)c1ccccc1-c1[n-]c(=O)[n-]c1[O-]

>  <Energy>  (9) 
83.83027472995921

>  <Genealogy>  (9) 
CCOc1[nH+]cc[n-]c1=NS(=O)(=O)c1ccccc1-c1[n-]c(=O)[n-]c1[O-] (protonated)
CCOc1[nH+]cc[n-]c1=NS(=O)(=O)c1ccccc1-c1[n-]c(=O)[n-]c1[O-] (3D coordinates assigned)
CCOc1[nH+]cc[n-]c1=NS(=O)(=O)c1ccccc1-c1[n-]c(=O)[n-]c1[O-] (optimized conformer: 83.83027472995921 kcal/mol)

>  <smiles>  (9) 
CCOc1ncc[nH]c1=NS(=O)(=O)c1ccccc1-c1[nH]c(=O)[nH]c1O

>  <score_type>  (9) 
oracle

>  <origin>  (9) 
adg

>  <m_score__min__energy>  (9) 
-15.16

>  <m_primary>  (9) 
energy

$$$$
9:0
     RDKit          3D

 62 65  0  0  0  0  0  0  0  0999 V2000
   61.4510   30.3110   46.6920 O   0  0  0  0  0  0  0  0  0  0  0  0
   60.4640   29.6070   47.0160 C   0  0  0  0  0  0  0  0  0  0  0  0
   59.8790   28.7820   46.0050 N   0  0  0  0  0  0  0  0  0  0  0  0
   58.9200   27.7410   46.2050 C   0  0  0  0  0  0  0  0  0  0  0  0
   59.3560   26.5180   46.7340 C   0  0  0  0  0  0  0  0  0  0  0  0
   58.4490   25.4990   47.0000 C   0  0  0  0  0  0  0  0  0  0  0  0
   57.0920   25.6940   46.7520 C   0  0  0  0  0  0  0  0  0  0  0  0
   56.6350   26.9150   46.2440 C   0  0  0  0  0  0  0  0  0  0  0  0
   55.2780   27.0720   45.9880 O   0  0  0  0  0  0  0  0  0  0  0  0
   57.5440   27.9620   45.9820 C   0  0  0  0  0  0  0  0  0  0  0  0
   57.0510   29.2680   45.4820 C   0  0  0  0  0  0  0  0  0  0  0  0
   55.9350   29.3300   44.9020 O   0  0  0  0  0  0  0  0  0  0  0  0
   57.8470   30.4540   45.6540 N   0  0  0  0  0  0  0  0  0  0  0  0
   57.3810   31.7840   45.3680 C   0  0  0  0  0  0  0  0  0  0  0  0
   56.2630   31.9610   44.8110 O   0  0  0  0  0  0  0  0  0  0  0  0
   58.2210   32.9620   45.6880 C   0  0  0  0  0  0  0  0  0  0  0  0
   58.8030   33.6910   44.6380 C   0  0  0  0  0  0  0  0  0  0  0  0
   59.6150   34.7960   44.9040 C   0  0  0  0  0  0  0  0  0  0  0  0
   59.8520   35.1880   46.2230 C   0  0  0  0  0  0  0  0  0  0  0  0
   59.2670   34.4860   47.2750 C   0  0  0  0  0  0  0  0  0  0  0  0
   58.4380   33.3830   47.0200 C   0  0  0  0  0  0  0  0  0  0  0  0
   57.8180   32.7260   48.0840 O   0  0  0  0  0  0  0  0  0  0  0  0
   60.0370   29.5980   48.4410 C   0  0  0  0  0  0  0  0  0  0  0  0
   60.9600   29.2100   49.4270 C   0  0  0  0  0  0  0  0  0  0  0  0
   60.6050   29.2120   50.7790 C   0  0  0  0  0  0  0  0  0  0  0  0
   59.3190   29.6070   51.1720 C   0  0  0  0  0  0  0  0  0  0  0  0
   58.9260   29.5900   52.6290 C   0  0  0  0  0  0  0  0  0  0  0  0
   58.9940   30.9270   53.2360 N   0  0  0  0  0  0  0  0  0  0  0  0
   60.3710   31.3170   53.5810 C   0  0  0  0  0  0  0  0  0  0  0  0
   60.6500   32.7630   53.1680 C   0  0  0  0  0  0  0  0  0  0  0  0
   60.8490   32.8660   51.7230 N   0  0  0  0  0  0  0  0  0  0  0  0
   62.1140   32.6840   51.0270 C   0  0  0  0  0  0  0  0  0  0  0  0
   61.7750   32.8610   49.5220 C   0  0  0  0  0  0  0  0  0  0  0  0
   60.3630   32.9950   49.4590 O   0  0  0  0  0  0  0  0  0  0  0  0
   59.8460   32.9970   50.7350 C   0  0  0  0  0  0  0  0  0  0  0  0
   58.6170   33.0880   50.9830 O   0  0  0  0  0  0  0  0  0  0  0  0
   58.3950   30.0060   50.1930 C   0  0  0  0  0  0  0  0  0  0  0  0
   58.7550   30.0140   48.8440 C   0  0  0  0  0  0  0  0  0  0  0  0
   60.4254   26.3636   46.9403 H   0  0  0  0  0  0  0  0  0  0  0  0
   58.8022   24.5396   47.4059 H   0  0  0  0  0  0  0  0  0  0  0  0
   56.3763   24.8841   46.9566 H   0  0  0  0  0  0  0  0  0  0  0  0
   58.8450   30.3290   45.9440 H   0  0  0  0  0  0  0  0  0  0  0  0
   58.6177   33.3890   43.5966 H   0  0  0  0  0  0  0  0  0  0  0  0
   60.0680   35.3577   44.0738 H   0  0  0  0  0  0  0  0  0  0  0  0
   60.5008   36.0514   46.4318 H   0  0  0  0  0  0  0  0  0  0  0  0
   59.4564   34.7987   48.3125 H   0  0  0  0  0  0  0  0  0  0  0  0
   58.2990   32.5600   48.9620 H   0  0  0  0  0  0  0  0  0  0  0  0
   61.9735   28.9011   49.1315 H   0  0  0  0  0  0  0  0  0  0  0  0
   61.3384   28.9021   51.5380 H   0  0  0  0  0  0  0  0  0  0  0  0
   57.8958   29.2139   52.7141 H   0  0  0  0  0  0  0  0  0  0  0  0
   59.6340   28.9393   53.1631 H   0  0  0  0  0  0  0  0  0  0  0  0
   58.5970   31.6310   52.5730 H   0  0  0  0  0  0  0  0  0  0  0  0
   60.5110   31.2197   54.6677 H   0  0  0  0  0  0  0  0  0  0  0  0
   61.0677   30.6577   53.0425 H   0  0  0  0  0  0  0  0  0  0  0  0
   59.7955   33.3916   53.4592 H   0  0  0  0  0  0  0  0  0  0  0  0
   61.5668   33.1011   53.6731 H   0  0  0  0  0  0  0  0  0  0  0  0
   62.8450   33.4399   51.3500 H   0  0  0  0  0  0  0  0  0  0  0  0
   62.5626   31.7017   51.2363 H   0  0  0  0  0  0  0  0  0  0  0  0
   62.2639   33.7616   49.1222 H   0  0  0  0  0  0  0  0  0  0  0  0
   62.1289   32.0087   48.9233 H   0  0  0  0  0  0  0  0  0  0  0  0
   57.3818   30.3140   50.4905 H   0  0  0  0  0  0  0  0  0  0  0  0
   58.0288   30.3490   48.0887 H   0  0  0  0  0  0  0  0  0  0  0  0
  1  2  2  0
  2  3  1  0
  3  4  1  0
  4  5  2  0
  5  6  1  0
  6  7  2  0
  7  8  1  0
  8  9  1  0
  8 10  2  0
 10 11  1  0
 11 12  2  0
 11 13  1  0
 13 14  1  0
 14 15  2  0
 14 16  1  0
 16 17  2  0
 17 18  1  0
 18 19  2  0
 19 20  1  0
 20 21  2  0
 21 22  1  0
  2 23  1  0
 23 24  2  0
 24 25  1  0
 25 26  2  0
 26 27  1  0
 27 28  1  0
 28 29  1  0
 29 30  1  0
 30 31  1  0
 31 32  1  0
 32 33  1  0
 33 34  1  0
 34 35  1  0
 35 36  2  0
 26 37  1  0
 37 38  2  0
 10  4  1  0
 21 16  1  0
 38 23  1  0
 35 31  1  0
  5 39  1  0
  6 40  1  0
  7 41  1  0
 13 42  1  0
 17 43  1  0
 18 44  1  0
 19 45  1  0
 20 46  1  0
 22 47  1  0
 24 48  1  0
 25 49  1  0
 27 50  1  0
 27 51  1  0
 28 52  1  0
 29 53  1  0
 29 54  1  0
 30 55  1  0
 30 56  1  0
 32 57  1  0
 32 58  1  0
 33 59  1  0
 33 60  1  0
 37 61  1  0
 38 62  1  0
M  CHG  2   3  -1   9  -1
M  END
>  <UniqueID>  (10) 
9

>  <SMILES>  (10) 
O=C([N-]c1cccc([O-])c1C(=O)NC(=O)c1ccccc1O)c1ccc(CNCCN2CCOC2=O)cc1

>  <Energy>  (10) 
101.26732693086402

>  <Genealogy>  (10) 
O=C([N-]c1cccc([O-])c1C(=O)NC(=O)c1ccccc1O)c1ccc(CNCCN2CCOC2=O)cc1 (protonated)
O=C([N-]c1cccc([O-])c1C(=O)NC(=O)c1ccccc1O)c1ccc(CNCCN2CCOC2=O)cc1 (3D coordinates assigned)
O=C([N-]c1cccc([O-])c1C(=O)NC(=O)c1ccccc1O)c1ccc(CNCCN2CCOC2=O)cc1 (nonaromatic ring conformer: 101.26732693086402 kcal/mol)

>  <smiles>  (10) 
O=C(Nc1cccc(O)c1C(=O)NC(=O)c1ccccc1O)c1ccc(CNCCN2CCOC2=O)cc1

>  <score_type>  (10) 
oracle

>  <origin>  (10) 
adg

>  <m_score__min__energy>  (10) 
-13.289999999999999

>  <m_primary>  (10) 
energy

$$$$
10:0
     RDKit          3D

 49 52  0  0  0  0  0  0  0  0999 V2000
   59.6710   27.0980   47.3410 C   0  0  0  0  0  0  0  0  0  0  0  0
   59.0270   28.0800   46.6890 C   0  0  0  0  0  0  0  0  0  0  0  0
   58.2030   27.9490   45.5600 C   0  0  0  0  0  0  0  0  0  0  0  0
   57.6610   26.8580   44.9850 C   0  0  0  0  0  0  0  0  0  0  0  0
   57.0350   25.7330   45.7000 C   0  0  0  0  0  0  0  0  0  0  0  0
   57.6900   24.6420   46.1370 N   0  0  0  0  0  0  0  0  0  0  0  0
   56.7490   23.9750   46.8390 C   0  0  0  0  0  0  0  0  0  0  0  0
   56.9780   22.8720   47.4020 O   0  0  0  0  0  0  0  0  0  0  0  0
   55.5470   24.5880   46.9030 N   0  0  0  0  0  0  0  0  0  0  0  0
   55.7520   25.7060   46.1880 C   0  0  0  0  0  0  0  0  0  0  0  0
   54.7860   26.6840   45.9900 O   0  0  0  0  0  0  0  0  0  0  0  0
   57.9960   29.2320   45.0800 C   0  0  0  0  0  0  0  0  0  0  0  0
   58.6210   30.0930   45.9580 C   0  0  0  0  0  0  0  0  0  0  0  0
   58.6540   31.5840   45.8120 C   0  0  0  0  0  0  0  0  0  0  0  0
   59.2420   29.3980   46.9360 N   0  0  0  0  0  0  0  0  0  0  0  0
   60.0530   29.9620   47.9810 C   0  0  0  0  0  0  0  0  0  0  0  0
   61.1970   30.7050   47.6580 C   0  0  0  0  0  0  0  0  0  0  0  0
   62.0230   31.2130   48.6690 C   0  0  0  0  0  0  0  0  0  0  0  0
   63.4840   32.1150   48.2460 S   0  0  0  0  0  0  0  0  0  0  0  0
   64.0700   31.5420   46.9850 O   0  0  0  0  0  0  0  0  0  0  0  0
   64.4870   31.9200   49.3470 O   0  0  0  0  0  0  0  0  0  0  0  0
   63.2120   33.8350   48.0330 N   0  0  0  0  0  0  0  0  0  0  0  0
   62.8380   34.2160   46.6590 C   0  0  0  0  0  0  0  0  0  0  0  0
   61.4140   33.7840   46.2820 C   0  0  0  0  0  0  0  0  0  0  0  0
   60.4590   34.0510   47.3530 N   0  0  0  0  0  0  0  0  0  0  0  0
   60.8680   34.2280   48.7110 C   0  0  0  0  0  0  0  0  0  0  0  0
   60.0020   34.2890   49.6230 O   0  0  0  0  0  0  0  0  0  0  0  0
   62.3190   34.4120   49.0510 C   0  0  0  0  0  0  0  0  0  0  0  0
   61.6600   31.0290   50.0120 C   0  0  0  0  0  0  0  0  0  0  0  0
   60.5130   30.3010   50.3380 C   0  0  0  0  0  0  0  0  0  0  0  0
   59.7150   29.7590   49.3280 C   0  0  0  0  0  0  0  0  0  0  0  0
   58.6050   29.0510   49.6570 F   0  0  0  0  0  0  0  0  0  0  0  0
   60.2902   27.3346   48.2188 H   0  0  0  0  0  0  0  0  0  0  0  0
   59.5792   26.0572   46.9971 H   0  0  0  0  0  0  0  0  0  0  0  0
   57.6884   26.8027   43.8867 H   0  0  0  0  0  0  0  0  0  0  0  0
   57.4399   29.5107   44.1727 H   0  0  0  0  0  0  0  0  0  0  0  0
   58.6643   32.0498   46.8084 H   0  0  0  0  0  0  0  0  0  0  0  0
   59.5589   31.8785   45.2602 H   0  0  0  0  0  0  0  0  0  0  0  0
   57.7630   31.9182   45.2602 H   0  0  0  0  0  0  0  0  0  0  0  0
   61.4479   30.8905   46.6032 H   0  0  0  0  0  0  0  0  0  0  0  0
   62.9080   35.3099   46.5675 H   0  0  0  0  0  0  0  0  0  0  0  0
   63.5293   33.7011   45.9756 H   0  0  0  0  0  0  0  0  0  0  0  0
   61.1022   34.3354   45.3827 H   0  0  0  0  0  0  0  0  0  0  0  0
   61.4254   32.6992   46.1002 H   0  0  0  0  0  0  0  0  0  0  0  0
   59.4400   33.9430   47.1460 H   0  0  0  0  0  0  0  0  0  0  0  0
   62.5283   35.4886   49.1350 H   0  0  0  0  0  0  0  0  0  0  0  0
   62.5099   33.8888   49.9996 H   0  0  0  0  0  0  0  0  0  0  0  0
   62.2810   31.4597   50.8113 H   0  0  0  0  0  0  0  0  0  0  0  0
   60.2377   30.1543   51.3928 H   0  0  0  0  0  0  0  0  0  0  0  0
  1  2  2  0
  2  3  1  0
  3  4  2  3
  4  5  1  0
  5  6  1  0
  6  7  1  0
  7  8  2  0
  7  9  1  0
  9 10  1  0
 10 11  1  0
  3 12  1  0
 12 13  2  0
 13 14  1  0
 13 15  1  0
 15 16  1  0
 16 17  2  0
 17 18  1  0
 18 19  1  0
 19 20  2  0
 19 21  2  0
 19 22  1  0
 22 23  1  0
 23 24  1  0
 24 25  1  0
 25 26  1  0
 26 27  2  0
 26 28  1  0
 18 29  2  0
 29 30  1  0
 30 31  2  0
 31 32  1  0
 15  2  1  0
 31 16  1  0
 10  5  2  0
 28 22  1  0
  1 33  1  0
  1 34  1  0
  4 35  1  0
 12 36  1  0
 14 37  1  0
 14 38  1  0
 14 39  1  0
 17 40  1  0
 23 41  1  0
 23 42  1  0
 24 43  1  0
 24 44  1  0
 25 45  1  0
 28 46  1  0
 28 47  1  0
 29 48  1  0
 30 49  1  0
M  CHG  3   6  -1   9  -1  11  -1
M  END
>  <UniqueID>  (11) 
10

>  <SMILES>  (11) 
C=c1c(=Cc2[n-]c(=O)[n-]c2[O-])cc(C)n1-c1cc(S(=O)(=O)N2CCNC(=O)C2)ccc1F

>  <Energy>  (11) 
128.92953709145036

>  <Genealogy>  (11) 
C=c1c(=Cc2[n-]c(=O)[n-]c2[O-])cc(C)n1-c1cc(S(=O)(=O)N2CCNC(=O)C2)ccc1F (protonated)
C=c1c(=Cc2[n-]c(=O)[n-]c2[O-])cc(C)n1-c1cc(S(=O)(=O)N2CCNC(=O)C2)ccc1F (3D coordinates assigned)
C=c1c(=Cc2[n-]c(=O)[n-]c2[O-])cc(C)n1-c1cc(S(=O)(=O)N2CCNC(=O)C2)ccc1F (nonaromatic ring conformer: 128.92953709145036 kcal/mol)

>  <smiles>  (11) 
C=c1c(=Cc2[nH]c(=O)[nH]c2O)cc(C)n1-c1cc(S(=O)(=O)N2CCNC(=O)C2)ccc1F

>  <score_type>  (11) 
oracle

>  <origin>  (11) 
adg

>  <m_score__min__energy>  (11) 
-16.949999999999999

>  <m_primary>  (11) 
energy

$$$$
11:0
     RDKit          3D

 50 52  0  0  0  0  0  0  0  0999 V2000
   58.9650   26.4890   47.8680 C   0  0  0  0  0  0  0  0  0  0  0  0
   58.6980   26.3150   46.5640 C   0  0  0  0  0  0  0  0  0  0  0  0
   57.7190   25.4800   46.0110 C   0  0  0  0  0  0  0  0  0  0  0  0
   56.8520   24.6950   46.6830 C   0  0  0  0  0  0  0  0  0  0  0  0
   55.5470   24.2570   46.1570 C   0  0  0  0  0  0  0  0  0  0  0  0
   54.5610   25.1920   45.8150 C   0  0  0  0  0  0  0  0  0  0  0  0
   54.7790   26.5530   45.9990 O   0  0  0  0  0  0  0  0  0  0  0  0
   53.3780   24.7700   45.3000 N   0  0  0  0  0  0  0  0  0  0  0  0
   53.1340   23.4500   45.0960 C   0  0  0  0  0  0  0  0  0  0  0  0
   52.0300   23.0820   44.6200 O   0  0  0  0  0  0  0  0  0  0  0  0
   54.0830   22.5280   45.3990 N   0  0  0  0  0  0  0  0  0  0  0  0
   55.2820   22.9010   45.9170 C   0  0  0  0  0  0  0  0  0  0  0  0
   56.1440   22.0210   46.1820 O   0  0  0  0  0  0  0  0  0  0  0  0
   57.8470   25.6720   44.6290 C   0  0  0  0  0  0  0  0  0  0  0  0
   57.0240   25.0810   43.5230 C   0  0  0  0  0  0  0  0  0  0  0  0
   58.8390   26.5530   44.4020 N   0  0  0  0  0  0  0  0  0  0  0  0
   59.3560   26.9400   45.5570 N   0  0  0  0  0  0  0  0  0  0  0  0
   60.4070   27.9590   45.6620 C   0  0  0  0  0  0  0  0  0  0  0  0
   59.7980   29.3370   45.6300 C   0  0  0  0  0  0  0  0  0  0  0  0
   60.1540   30.3000   46.5870 C   0  0  0  0  0  0  0  0  0  0  0  0
   59.5490   31.5610   46.5790 C   0  0  0  0  0  0  0  0  0  0  0  0
   58.5860   31.8730   45.6100 C   0  0  0  0  0  0  0  0  0  0  0  0
   57.7560   33.4250   45.6370 S   0  0  0  0  0  0  0  0  0  0  0  0
   56.2710   33.1910   45.6070 O   0  0  0  0  0  0  0  0  0  0  0  0
   58.1360   34.2590   44.4460 O   0  0  0  0  0  0  0  0  0  0  0  0
   58.1760   34.2620   47.0920 N   0  0  0  0  0  0  0  0  0  0  0  0
   59.4910   34.7700   47.3250 C   0  0  0  0  0  0  0  0  0  0  0  0
   59.9470   35.6980   46.6020 O   0  0  0  0  0  0  0  0  0  0  0  0
   60.2980   34.2160   48.4660 C   0  0  0  0  0  0  0  0  0  0  0  0
   61.7030   33.7670   48.0500 C   0  0  0  0  0  0  0  0  0  0  0  0
   61.8910   32.4460   48.4170 F   0  0  0  0  0  0  0  0  0  0  0  0
   61.8560   33.8750   46.6780 F   0  0  0  0  0  0  0  0  0  0  0  0
   62.6600   34.5430   48.6830 F   0  0  0  0  0  0  0  0  0  0  0  0
   58.2420   30.9210   44.6430 C   0  0  0  0  0  0  0  0  0  0  0  0
   58.8460   29.6600   44.6500 C   0  0  0  0  0  0  0  0  0  0  0  0
   59.7646   27.1776   48.1786 H   0  0  0  0  0  0  0  0  0  0  0  0
   58.3842   25.9430   48.6260 H   0  0  0  0  0  0  0  0  0  0  0  0
   57.1382   24.3595   47.6907 H   0  0  0  0  0  0  0  0  0  0  0  0
   56.2017   24.4905   43.9532 H   0  0  0  0  0  0  0  0  0  0  0  0
   56.6095   25.8891   42.9024 H   0  0  0  0  0  0  0  0  0  0  0  0
   57.6573   24.4300   42.9024 H   0  0  0  0  0  0  0  0  0  0  0  0
   59.1460   26.9070   43.4680 H   0  0  0  0  0  0  0  0  0  0  0  0
   60.9514   27.8238   46.6082 H   0  0  0  0  0  0  0  0  0  0  0  0
   61.0985   27.8514   44.8133 H   0  0  0  0  0  0  0  0  0  0  0  0
   60.9126   30.0618   47.3471 H   0  0  0  0  0  0  0  0  0  0  0  0
   59.8297   32.3093   47.3348 H   0  0  0  0  0  0  0  0  0  0  0  0
   60.3938   34.9948   49.2369 H   0  0  0  0  0  0  0  0  0  0  0  0
   59.7682   33.3274   48.8398 H   0  0  0  0  0  0  0  0  0  0  0  0
   57.4937   31.1659   43.8748 H   0  0  0  0  0  0  0  0  0  0  0  0
   58.5742   28.9181   43.8847 H   0  0  0  0  0  0  0  0  0  0  0  0
  1  2  2  0
  2  3  1  0
  3  4  2  3
  4  5  1  0
  5  6  2  0
  6  7  1  0
  6  8  1  0
  8  9  1  0
  9 10  2  0
  9 11  1  0
 11 12  1  0
 12 13  2  0
  3 14  1  0
 14 15  1  0
 14 16  2  0
 16 17  1  0
 17 18  1  0
 18 19  1  0
 19 20  2  0
 20 21  1  0
 21 22  2  0
 22 23  1  0
 23 24  2  0
 23 25  2  0
 23 26  1  0
 26 27  1  0
 27 28  2  0
 27 29  1  0
 29 30  1  0
 30 31  1  0
 30 32  1  0
 30 33  1  0
 22 34  1  0
 34 35  2  0
 17  2  1  0
 35 19  1  0
 12  5  1  0
  1 36  1  0
  1 37  1  0
  4 38  1  0
 15 39  1  0
 15 40  1  0
 15 41  1  0
 16 42  1  0
 18 43  1  0
 18 44  1  0
 20 45  1  0
 21 46  1  0
 29 47  1  0
 29 48  1  0
 34 49  1  0
 35 50  1  0
M  CHG  5   7  -1   8  -1  11  -1  16   1  26  -1
M  END
>  <UniqueID>  (12) 
11

>  <SMILES>  (12) 
C=c1c(=Cc2c([O-])[n-]c(=O)[n-]c2=O)c(C)[nH+]n1Cc1ccc(S(=O)(=O)[N-]C(=O)CC(F)(F)F)cc1

>  <Energy>  (12) 
96.38807453707673

>  <Genealogy>  (12) 
C=c1c(=Cc2c([O-])[n-]c(=O)[n-]c2=O)c(C)[nH+]n1Cc1ccc(S(=O)(=O)[N-]C(=O)CC(F)(F)F)cc1 (protonated)
C=c1c(=Cc2c([O-])[n-]c(=O)[n-]c2=O)c(C)[nH+]n1Cc1ccc(S(=O)(=O)[N-]C(=O)CC(F)(F)F)cc1 (3D coordinates assigned)
C=c1c(=Cc2c([O-])[n-]c(=O)[n-]c2=O)c(C)[nH+]n1Cc1ccc(S(=O)(=O)[N-]C(=O)CC(F)(F)F)cc1 (optimized conformer: 96.38807453707673 kcal/mol)

>  <smiles>  (12) 
C=c1c(=Cc2c(O)[nH]c(=O)[nH]c2=O)c(C)nn1Cc1ccc(S(=O)(=O)NC(=O)CC(F)(F)F)cc1

>  <score_type>  (12) 
oracle

>  <origin>  (12) 
adg

>  <m_score__min__energy>  (12) 
-15.67

>  <m_primary>  (12) 
energy

$$$$
12:0
     RDKit          3D

 59 63  0  0  0  0  0  0  0  0999 V2000
   55.1400   29.3210   44.8120 N   0  0  0  0  0  0  0  0  0  0  0  0
   56.6980   29.9830   44.4710 S   0  0  0  0  0  0  0  0  0  0  0  0
   56.6860   31.4600   44.7600 O   0  0  0  0  0  0  0  0  0  0  0  0
   57.0220   29.7800   43.0180 O   0  0  0  0  0  0  0  0  0  0  0  0
   57.9090   29.1910   45.4740 C   0  0  0  0  0  0  0  0  0  0  0  0
   58.0050   27.7950   45.4890 C   0  0  0  0  0  0  0  0  0  0  0  0
   58.9590   27.1660   46.2910 C   0  0  0  0  0  0  0  0  0  0  0  0
   59.8230   27.9270   47.0830 C   0  0  0  0  0  0  0  0  0  0  0  0
   59.7440   29.3340   47.0790 C   0  0  0  0  0  0  0  0  0  0  0  0
   60.6450   30.1650   47.9170 C   0  0  0  0  0  0  0  0  0  0  0  0
   61.5540   31.0780   47.3520 C   0  0  0  0  0  0  0  0  0  0  0  0
   62.3570   31.8570   48.1870 C   0  0  0  0  0  0  0  0  0  0  0  0
   62.2540   31.7280   49.5720 C   0  0  0  0  0  0  0  0  0  0  0  0
   61.3430   30.8090   50.1070 C   0  0  0  0  0  0  0  0  0  0  0  0
   61.1760   30.6750   51.5930 C   0  0  0  0  0  0  0  0  0  0  0  0
   59.8850   31.2500   52.0320 N   0  0  0  0  0  0  0  0  0  0  0  0
   59.9760   32.6900   52.3730 C   0  0  0  0  0  0  0  0  0  0  0  0
   60.1450   33.5850   51.1300 C   0  0  0  0  0  0  0  0  0  0  0  0
   59.3550   33.0720   49.9160 C   0  0  0  0  0  0  0  0  0  0  0  0
   58.2110   32.1570   50.3440 C   0  0  0  0  0  0  0  0  0  0  0  0
   58.7610   30.9240   51.1040 C   0  0  2  0  0  0  0  0  0  0  0  0
   57.6620   30.2400   51.8700 C   0  0  0  0  0  0  0  0  0  0  0  0
   56.3450   30.4400   51.6020 N   0  0  0  0  0  0  0  0  0  0  0  0
   55.7330   29.6000   52.4500 C   0  0  0  0  0  0  0  0  0  0  0  0
   54.3570   29.3570   52.5920 C   0  0  0  0  0  0  0  0  0  0  0  0
   53.3330   30.0880   51.8150 C   0  0  0  0  0  0  0  0  0  0  0  0
   53.6830   31.1820   50.9650 N   0  0  0  0  0  0  0  0  0  0  0  0
   52.1200   29.7580   51.9180 O   0  0  0  0  0  0  0  0  0  0  0  0
   53.9770   28.3460   53.5060 C   0  0  0  0  0  0  0  0  0  0  0  0
   54.9500   27.6380   54.2470 C   0  0  0  0  0  0  0  0  0  0  0  0
   56.3160   27.9210   54.0790 C   0  0  0  0  0  0  0  0  0  0  0  0
   56.6650   28.9090   53.1660 C   0  0  0  0  0  0  0  0  0  0  0  0
   57.9000   29.2910   52.8140 N   0  0  0  0  0  0  0  0  0  0  0  0
   60.5660   30.0660   49.2740 N   0  0  0  0  0  0  0  0  0  0  0  0
   58.7700   29.9550   46.2740 C   0  0  0  0  0  0  0  0  0  0  0  0
   55.2530   28.6820   45.6310 H   0  0  0  0  0  0  0  0  0  0  0  0
   57.3271   27.1918   44.8673 H   0  0  0  0  0  0  0  0  0  0  0  0
   59.0308   26.0684   46.2995 H   0  0  0  0  0  0  0  0  0  0  0  0
   60.5703   27.4240   47.7143 H   0  0  0  0  0  0  0  0  0  0  0  0
   61.6315   31.1774   46.2593 H   0  0  0  0  0  0  0  0  0  0  0  0
   63.0708   32.5724   47.7527 H   0  0  0  0  0  0  0  0  0  0  0  0
   62.8810   32.3410   50.2362 H   0  0  0  0  0  0  0  0  0  0  0  0
   61.2069   29.6095   51.8645 H   0  0  0  0  0  0  0  0  0  0  0  0
   61.9916   31.2211   52.0896 H   0  0  0  0  0  0  0  0  0  0  0  0
   59.0558   32.9864   52.8978 H   0  0  0  0  0  0  0  0  0  0  0  0
   60.8660   32.8266   53.0048 H   0  0  0  0  0  0  0  0  0  0  0  0
   59.7935   34.5980   51.3757 H   0  0  0  0  0  0  0  0  0  0  0  0
   61.2110   33.5780   50.8589 H   0  0  0  0  0  0  0  0  0  0  0  0
   58.9405   33.9317   49.3691 H   0  0  0  0  0  0  0  0  0  0  0  0
   60.0389   32.4957   49.2756 H   0  0  0  0  0  0  0  0  0  0  0  0
   57.5284   32.7140   51.0027 H   0  0  0  0  0  0  0  0  0  0  0  0
   57.6744   31.8133   49.4474 H   0  0  0  0  0  0  0  0  0  0  0  0
   59.1624   30.2501   50.3328 H   0  0  0  0  0  0  0  0  0  0  0  0
   54.6380   31.6000   50.9790 H   0  0  0  0  0  0  0  0  0  0  0  0
   52.9510   31.6470   50.3880 H   0  0  0  0  0  0  0  0  0  0  0  0
   52.9116   28.1083   53.6414 H   0  0  0  0  0  0  0  0  0  0  0  0
   54.6362   26.8609   54.9594 H   0  0  0  0  0  0  0  0  0  0  0  0
   57.0834   27.3788   54.6509 H   0  0  0  0  0  0  0  0  0  0  0  0
   58.6837   31.0516   46.2728 H   0  0  0  0  0  0  0  0  0  0  0  0
  1  2  1  0
  2  3  2  0
  2  4  2  0
  2  5  1  0
  5  6  2  0
  6  7  1  0
  7  8  2  0
  8  9  1  0
  9 10  1  0
 10 11  2  0
 11 12  1  0
 12 13  2  0
 13 14  1  0
 14 15  1  0
 15 16  1  0
 16 17  1  0
 17 18  1  0
 18 19  1  0
 19 20  1  0
 20 21  1  0
 21 22  1  0
 22 23  2  0
 23 24  1  0
 24 25  2  0
 25 26  1  0
 26 27  1  0
 26 28  2  0
 25 29  1  0
 29 30  2  0
 30 31  1  0
 31 32  2  0
 32 33  1  0
 14 34  2  0
  9 35  2  0
 35  5  1  0
 34 10  1  0
 21 16  1  0
 33 22  1  0
 32 24  1  0
  1 36  1  0
  6 37  1  0
  7 38  1  0
  8 39  1  0
 11 40  1  0
 12 41  1  0
 13 42  1  0
 15 43  1  0
 15 44  1  0
 17 45  1  0
 17 46  1  0
 18 47  1  0
 18 48  1  0
 19 49  1  0
 19 50  1  0
 20 51  1  0
 20 52  1  0
 21 53  1  6
 27 54  1  0
 27 55  1  0
 29 56  1  0
 30 57  1  0
 31 58  1  0
 35 59  1  0
M  CHG  2   1  -1  33  -1
M  END
>  <UniqueID>  (13) 
12

>  <SMILES>  (13) 
[NH-]S(=O)(=O)c1cccc(-c2cccc(CN3CCCC[C@@H]3c3nc4c(C(N)=O)cccc4[n-]3)n2)c1

>  <Energy>  (13) 
112.74418595658905

>  <Genealogy>  (13) 
[NH-]S(=O)(=O)c1cccc(-c2cccc(CN3CCCCC3c3nc4c(C(N)=O)cccc4[n-]3)n2)c1 (protonated)
[NH-]S(=O)(=O)c1cccc(-c2cccc(CN3CCCC[C@@H]3c3nc4c(C(N)=O)cccc4[n-]3)n2)c1 (chirality)
[NH-]S(=O)(=O)c1cccc(-c2cccc(CN3CCCC[C@@H]3c3nc4c(C(N)=O)cccc4[n-]3)n2)c1 (3D coordinates assigned)
[NH-]S(=O)(=O)c1cccc(-c2cccc(CN3CCCC[C@@H]3c3nc4c(C(N)=O)cccc4[n-]3)n2)c1 (nonaromatic ring conformer: 112.74418595658905 kcal/mol)

>  <smiles>  (13) 
NC(=O)c1cccc2[nH]c(C3CCCCN3Cc3cccc(-c4cccc(S(N)(=O)=O)c4)n3)nc12

>  <score_type>  (13) 
oracle

>  <origin>  (13) 
adg

>  <m_score__min__energy>  (13) 
-14.470000000000001

>  <m_primary>  (13) 
energy

$$$$
13:0
     RDKit          3D

 47 50  0  0  0  0  0  0  0  0999 V2000
   55.5772   30.3775   53.0096 H   0  0  0  0  0  0  0  0  0  0  0  0
   56.4220   30.8220   52.4630 C   0  0  0  0  0  0  0  0  0  0  0  0
   57.1640   30.0560   51.6190 N   0  0  0  0  0  0  0  0  0  0  0  0
   58.2260   30.5570   50.9310 C   0  0  0  0  0  0  0  0  0  0  0  0
   58.9360   29.6890   50.0330 N   0  0  0  0  0  0  0  0  0  0  0  0
   59.3230   29.9660   48.8210 C   0  0  0  0  0  0  0  0  0  0  0  0
   60.5480   30.5170   48.6290 N   0  0  0  0  0  0  0  0  0  0  0  0
   60.9680   30.8390   47.3790 C   0  0  0  0  0  0  0  0  0  0  0  0
   62.3070   31.4720   47.1760 C   0  0  0  0  0  0  0  0  0  0  0  0
   62.5751   31.4175   46.1106 H   0  0  0  0  0  0  0  0  0  0  0  0
   63.0499   30.9336   47.7828 H   0  0  0  0  0  0  0  0  0  0  0  0
   62.2760   33.1830   47.6870 S   0  0  0  0  0  0  0  0  0  0  0  0
   63.6830   33.6620   47.9100 O   0  0  0  0  0  0  0  0  0  0  0  0
   61.5150   33.2920   48.9790 O   0  0  0  0  0  0  0  0  0  0  0  0
   61.5020   34.2140   46.4460 C   0  0  0  0  0  0  0  0  0  0  0  0
   61.6770   35.2708   46.6960 H   0  0  0  0  0  0  0  0  0  0  0  0
   61.9401   33.9723   45.4664 H   0  0  0  0  0  0  0  0  0  0  0  0
   60.0210   33.9620   46.3840 C   0  0  0  0  0  0  0  0  0  0  0  0
   59.2950   33.7160   47.5620 C   0  0  0  0  0  0  0  0  0  0  0  0
   59.8094   33.7265   48.5343 H   0  0  0  0  0  0  0  0  0  0  0  0
   57.9220   33.4580   47.5040 C   0  0  0  0  0  0  0  0  0  0  0  0
   57.3592   33.2667   48.4296 H   0  0  0  0  0  0  0  0  0  0  0  0
   57.2640   33.4430   46.2710 C   0  0  0  0  0  0  0  0  0  0  0  0
   56.1843   33.2374   46.2265 H   0  0  0  0  0  0  0  0  0  0  0  0
   57.9770   33.6890   45.0950 C   0  0  0  0  0  0  0  0  0  0  0  0
   57.4575   33.6797   44.1254 H   0  0  0  0  0  0  0  0  0  0  0  0
   59.3500   33.9470   45.1490 C   0  0  0  0  0  0  0  0  0  0  0  0
   59.9078   34.1392   44.2206 H   0  0  0  0  0  0  0  0  0  0  0  0
   60.1520   30.6190   46.3160 N   0  0  0  0  0  0  0  0  0  0  0  0
   58.9200   30.0760   46.4980 C   0  0  0  0  0  0  0  0  0  0  0  0
   58.0240   29.8360   45.3500 C   0  0  0  0  0  0  0  0  0  0  0  0
   56.9620   30.6660   45.1480 N   0  0  0  0  0  0  0  0  0  0  0  0
   56.1020   30.4970   44.1080 C   0  0  0  0  0  0  0  0  0  0  0  0
   55.2561   31.1878   43.9764 H   0  0  0  0  0  0  0  0  0  0  0  0
   56.2920   29.4480   43.2080 C   0  0  0  0  0  0  0  0  0  0  0  0
   55.5988   29.3061   42.3658 H   0  0  0  0  0  0  0  0  0  0  0  0
   57.3700   28.5810   43.3870 C   0  0  0  0  0  0  0  0  0  0  0  0
   57.5319   27.7499   42.6848 H   0  0  0  0  0  0  0  0  0  0  0  0
   58.2430   28.7710   44.4600 C   0  0  0  0  0  0  0  0  0  0  0  0
   59.0958   28.0920   44.6075 H   0  0  0  0  0  0  0  0  0  0  0  0
   58.5100   29.7560   47.7530 N   0  0  0  0  0  0  0  0  0  0  0  0
   58.5460   31.9220   51.0590 C   0  0  0  0  0  0  0  0  0  0  0  0
   59.3782   32.3533   50.4832 H   0  0  0  0  0  0  0  0  0  0  0  0
   57.7970   32.7240   51.9240 C   0  0  0  0  0  0  0  0  0  0  0  0
   58.0467   33.7886   52.0433 H   0  0  0  0  0  0  0  0  0  0  0  0
   56.7320   32.1720   52.6360 C   0  0  0  0  0  0  0  0  0  0  0  0
   56.1429   32.7937   53.3262 H   0  0  0  0  0  0  0  0  0  0  0  0
  1  2  1  0
  2  3  2  0
  3  4  1  0
  4  5  1  0
  5  6  2  0
  6  7  1  0
  7  8  2  0
  8  9  1  0
  9 10  1  0
  9 11  1  0
  9 12  1  0
 12 13  2  0
 12 14  2  0
 12 15  1  0
 15 16  1  0
 15 17  1  0
 15 18  1  0
 18 19  2  0
 19 20  1  0
 19 21  1  0
 21 22  1  0
 21 23  2  0
 23 24  1  0
 23 25  1  0
 25 26  1  0
 25 27  2  0
 27 28  1  0
  8 29  1  0
 29 30  2  0
 30 31  1  0
 31 32  2  0
 32 33  1  0
 33 34  1  0
 33 35  2  0
 35 36  1  0
 35 37  1  0
 37 38  1  0
 37 39  2  0
 39 40  1  0
 30 41  1  0
  4 42  2  0
 42 43  1  0
 42 44  1  0
 44 45  1  0
 44 46  2  0
 46 47  1  0
 46  2  1  0
 41  6  1  0
 27 18  1  0
 39 31  1  0
M  CHG  1  41  -1
M  END
>  <UniqueID>  (14) 
13

>  <SMILES>  (14) 
O=S(=O)(Cc1ccccc1)Cc1nc(-c2ccccn2)[n-]/c(=N\c2ccccn2)n1

>  <Energy>  (14) 
49.98113359050697

>  <Genealogy>  (14) 
O=S(=O)(Cc1ccccc1)Cc1nc(-c2ccccn2)[n-]c(=Nc2ccccn2)n1 (protonated)
O=S(=O)(Cc1ccccc1)Cc1nc(-c2ccccn2)[n-]/c(=N\c2ccccn2)n1 (cis-trans isomerization)
O=S(=O)(Cc1ccccc1)Cc1nc(-c2ccccn2)[n-]/c(=N\c2ccccn2)n1 (3D coordinates assigned)
O=S(=O)(Cc1ccccc1)Cc1nc(-c2ccccn2)[n-]/c(=N\c2ccccn2)n1 (optimized conformer: 49.98113359050697 kcal/mol)

>  <smiles>  (14) 
O=S(=O)(Cc1ccccc1)Cc1nc(-c2ccccn2)[nH]c(=Nc2ccccn2)n1

>  <score_type>  (14) 
oracle

>  <origin>  (14) 
adg

>  <m_score__min__energy>  (14) 
-10.390000000000001

>  <m_primary>  (14) 
energy

$$$$
14:0
     RDKit          3D

 23 24  0  0  0  0  0  0  0  0999 V2000
   63.3380   33.8470   46.6540 N   0  0  0  0  0  0  0  0  0  0  0  0
   62.2780   33.4650   46.9050 C   0  0  0  0  0  0  0  0  0  0  0  0
   60.9560   32.9880   47.2270 C   0  0  0  0  0  0  0  0  0  0  0  0
   60.6200   31.9260   47.9960 N   0  0  0  0  0  0  0  0  0  0  0  0
   59.2780   31.8370   48.0360 C   0  0  0  0  0  0  0  0  0  0  0  0
   58.6230   30.9640   48.6610 O   0  0  0  0  0  0  0  0  0  0  0  0
   58.7320   32.8250   47.3050 N   0  0  0  0  0  0  0  0  0  0  0  0
   59.7510   33.5420   46.8000 C   0  0  0  0  0  0  0  0  0  0  0  0
   59.7090   34.7430   45.9240 C   0  0  0  0  0  0  0  0  0  0  0  0
   58.2330   34.6210   44.8670 S   0  0  0  0  0  0  0  0  0  0  0  0
   57.8270   32.9070   44.5670 C   0  0  0  0  0  0  0  0  0  0  0  0
   57.0200   32.1120   45.2920 N   0  0  0  0  0  0  0  0  0  0  0  0
   56.9460   30.8930   44.7780 C   0  0  0  0  0  0  0  0  0  0  0  0
   56.3140   29.8340   45.1230 N   0  0  0  0  0  0  0  0  0  0  0  0
   57.7450   30.9170   43.6730 N   0  0  0  0  0  0  0  0  0  0  0  0
   58.2690   32.1290   43.5530 N   0  0  0  0  0  0  0  0  0  0  0  0
   61.3200   31.2900   48.4730 H   0  0  0  0  0  0  0  0  0  0  0  0
   57.7350   33.0560   47.1180 H   0  0  0  0  0  0  0  0  0  0  0  0
   59.6519   35.6522   46.5405 H   0  0  0  0  0  0  0  0  0  0  0  0
   60.6172   34.7953   45.3055 H   0  0  0  0  0  0  0  0  0  0  0  0
   55.7620   29.7230   45.9960 H   0  0  0  0  0  0  0  0  0  0  0  0
   57.9370   30.1350   43.0040 H   0  0  0  0  0  0  0  0  0  0  0  0
   58.9230   32.4660   42.8090 H   0  0  0  0  0  0  0  0  0  0  0  0
  1  2  3  0
  2  3  1  0
  3  4  1  0
  4  5  1  0
  5  6  2  0
  5  7  1  0
  7  8  1  0
  8  9  1  0
  9 10  1  0
 10 11  1  0
 11 12  2  0
 12 13  1  0
 13 14  2  3
 13 15  1  0
 15 16  1  0
  8  3  2  0
 16 11  1  0
  4 17  1  0
  7 18  1  0
  9 19  1  0
  9 20  1  0
 14 21  1  0
 15 22  1  0
 16 23  1  0
M  END
>  <smiles>  (15) 
N#Cc1[nH]c(=O)[nH]c1CSc1nc(=N)[nH][nH]1

>  <score_type>  (15) 
oracle

>  <origin>  (15) 
adg

>  <m_score__min__energy>  (15) 
-5.4699999999999998

>  <m_primary>  (15) 
energy

$$$$
15:0
     RDKit          3D

 53 55  0  0  0  0  0  0  0  0999 V2000
   63.4050   31.9140   47.9640 C   0  0  0  0  0  0  0  0  0  0  0  0
   62.4760   31.2230   48.9250 C   0  0  0  0  0  0  0  0  0  0  0  0
   62.9510   30.9220   50.2100 C   0  0  0  0  0  0  0  0  0  0  0  0
   62.1350   30.2780   51.1360 C   0  0  0  0  0  0  0  0  0  0  0  0
   60.8290   29.9330   50.7980 C   0  0  0  0  0  0  0  0  0  0  0  0
   60.3320   30.1960   49.5130 C   0  0  0  0  0  0  0  0  0  0  0  0
   58.8840   29.8940   49.2220 C   0  0  0  0  0  0  0  0  0  0  0  0
   61.1700   30.8160   48.5520 C   0  0  0  0  0  0  0  0  0  0  0  0
   60.5370   31.1130   46.8760 S   0  0  0  0  0  0  0  0  0  0  0  0
   61.1540   29.5880   46.0530 C   0  0  0  0  0  0  0  0  0  0  0  0
   60.1790   28.4400   46.0570 C   0  0  0  0  0  0  0  0  0  0  0  0
   60.5840   27.3160   46.4570 O   0  0  0  0  0  0  0  0  0  0  0  0
   58.7500   28.5910   45.6870 C   0  0  0  0  0  0  0  0  0  0  0  0
   58.3800   29.6670   44.8670 C   0  0  0  0  0  0  0  0  0  0  0  0
   57.0500   29.8350   44.4500 C   0  0  0  0  0  0  0  0  0  0  0  0
   56.6880   30.9240   43.4650 C   0  0  0  0  0  0  0  0  0  0  0  0
   57.5540   32.1380   43.6370 C   0  0  0  0  0  0  0  0  0  0  0  0
   58.1810   32.5960   42.6430 O   0  0  0  0  0  0  0  0  0  0  0  0
   57.6310   32.7940   44.9110 N   0  0  0  0  0  0  0  0  0  0  0  0
   58.2120   34.1240   45.0740 C   0  0  0  0  0  0  0  0  0  0  0  0
   59.1620   34.1240   46.2390 C   0  0  0  0  0  0  0  0  0  0  0  0
   58.6680   34.1520   47.5530 C   0  0  0  0  0  0  0  0  0  0  0  0
   59.5510   34.1840   48.6370 C   0  0  0  0  0  0  0  0  0  0  0  0
   60.9300   34.1930   48.4170 C   0  0  0  0  0  0  0  0  0  0  0  0
   61.4290   34.1850   47.1110 C   0  0  0  0  0  0  0  0  0  0  0  0
   60.5500   34.1560   46.0240 C   0  0  0  0  0  0  0  0  0  0  0  0
   56.0960   28.8950   44.8790 C   0  0  0  0  0  0  0  0  0  0  0  0
   54.7690   28.9900   44.4750 O   0  0  0  0  0  0  0  0  0  0  0  0
   56.4650   27.8750   45.6960 N   0  0  0  0  0  0  0  0  0  0  0  0
   57.7470   27.6990   46.1110 C   0  0  0  0  0  0  0  0  0  0  0  0
   58.0110   26.7430   46.8860 O   0  0  0  0  0  0  0  0  0  0  0  0
   64.1628   32.4777   48.5278 H   0  0  0  0  0  0  0  0  0  0  0  0
   63.9017   31.1641   47.3308 H   0  0  0  0  0  0  0  0  0  0  0  0
   62.8296   32.6054   47.3308 H   0  0  0  0  0  0  0  0  0  0  0  0
   63.9787   31.1976   50.4889 H   0  0  0  0  0  0  0  0  0  0  0  0
   62.5231   30.0410   52.1376 H   0  0  0  0  0  0  0  0  0  0  0  0
   60.1817   29.4502   51.5449 H   0  0  0  0  0  0  0  0  0  0  0  0
   58.3358   29.7797   50.1688 H   0  0  0  0  0  0  0  0  0  0  0  0
   58.4464   30.7202   48.6424 H   0  0  0  0  0  0  0  0  0  0  0  0
   58.8132   28.9618   48.6424 H   0  0  0  0  0  0  0  0  0  0  0  0
   61.3917   29.8336   45.0075 H   0  0  0  0  0  0  0  0  0  0  0  0
   62.0321   29.2557   46.6262 H   0  0  0  0  0  0  0  0  0  0  0  0
   59.1437   30.3905   44.5456 H   0  0  0  0  0  0  0  0  0  0  0  0
   56.8152   30.5372   42.4431 H   0  0  0  0  0  0  0  0  0  0  0  0
   55.6441   31.2186   43.6477 H   0  0  0  0  0  0  0  0  0  0  0  0
   57.1170   32.3840   45.7230 H   0  0  0  0  0  0  0  0  0  0  0  0
   58.7563   34.3997   44.1587 H   0  0  0  0  0  0  0  0  0  0  0  0
   57.4083   34.8517   45.2600 H   0  0  0  0  0  0  0  0  0  0  0  0
   57.5824   34.1488   47.7305 H   0  0  0  0  0  0  0  0  0  0  0  0
   59.1587   34.2021   49.6645 H   0  0  0  0  0  0  0  0  0  0  0  0
   61.6233   34.2064   49.2709 H   0  0  0  0  0  0  0  0  0  0  0  0
   62.5152   34.2016   46.9383 H   0  0  0  0  0  0  0  0  0  0  0  0
   60.9463   34.1582   44.9979 H   0  0  0  0  0  0  0  0  0  0  0  0
  1  2  1  0
  2  3  2  0
  3  4  1  0
  4  5  2  0
  5  6  1  0
  6  7  1  0
  6  8  2  0
  8  9  1  0
  9 10  1  0
 10 11  1  0
 11 12  2  0
 11 13  1  0
 13 14  2  0
 14 15  1  0
 15 16  1  0
 16 17  1  0
 17 18  2  0
 17 19  1  0
 19 20  1  0
 20 21  1  0
 21 22  2  0
 22 23  1  0
 23 24  2  0
 24 25  1  0
 25 26  2  0
 15 27  2  0
 27 28  1  0
 27 29  1  0
 29 30  1  0
 30 31  2  0
  8  2  1  0
 30 13  1  0
 26 21  1  0
  1 32  1  0
  1 33  1  0
  1 34  1  0
  3 35  1  0
  4 36  1  0
  5 37  1  0
  7 38  1  0
  7 39  1  0
  7 40  1  0
 10 41  1  0
 10 42  1  0
 14 43  1  0
 16 44  1  0
 16 45  1  0
 19 46  1  0
 20 47  1  0
 20 48  1  0
 22 49  1  0
 23 50  1  0
 24 51  1  0
 25 52  1  0
 26 53  1  0
M  CHG  2  28  -1  29  -1
M  END
>  <UniqueID>  (16) 
14

>  <SMILES>  (16) 
Cc1cccc(C)c1SCC(=O)c1cc(CC(=O)NCc2ccccc2)c([O-])[n-]c1=O

>  <Energy>  (16) 
52.24570988540653

>  <Genealogy>  (16) 
Cc1cccc(C)c1SCC(=O)c1cc(CC(=O)NCc2ccccc2)c([O-])[n-]c1=O (protonated)
Cc1cccc(C)c1SCC(=O)c1cc(CC(=O)NCc2ccccc2)c([O-])[n-]c1=O (3D coordinates assigned)
Cc1cccc(C)c1SCC(=O)c1cc(CC(=O)NCc2ccccc2)c([O-])[n-]c1=O (optimized conformer: 52.24570988540653 kcal/mol)

>  <smiles>  (16) 
Cc1cccc(C)c1SCC(=O)c1cc(CC(=O)NCc2ccccc2)c(O)[nH]c1=O

>  <score_type>  (16) 
oracle

>  <origin>  (16) 
adg

>  <m_score__min__energy>  (16) 
-14.16

>  <m_primary>  (16) 
energy

$$$$
16:0
     RDKit          3D

 48 51  0  0  0  0  0  0  0  0999 V2000
   57.0820   28.4030   44.7480 C   0  0  0  0  0  0  0  0  0  0  0  0
   57.8310   27.5550   45.4710 C   0  0  0  0  0  0  0  0  0  0  0  0
   57.8190   26.1500   45.4190 C   0  0  0  0  0  0  0  0  0  0  0  0
   57.2190   25.3000   44.5620 C   0  0  0  0  0  0  0  0  0  0  0  0
   55.9250   24.6260   44.7850 C   0  0  0  0  0  0  0  0  0  0  0  0
   54.9450   25.2260   45.5870 C   0  0  0  0  0  0  0  0  0  0  0  0
   55.1620   26.4860   46.1400 O   0  0  0  0  0  0  0  0  0  0  0  0
   53.7730   24.5800   45.8210 N   0  0  0  0  0  0  0  0  0  0  0  0
   53.5340   23.3480   45.3030 C   0  0  0  0  0  0  0  0  0  0  0  0
   52.4390   22.7710   45.5300 O   0  0  0  0  0  0  0  0  0  0  0  0
   54.4790   22.7350   44.5450 N   0  0  0  0  0  0  0  0  0  0  0  0
   55.6670   23.3370   44.2820 C   0  0  0  0  0  0  0  0  0  0  0  0
   56.5310   22.7290   43.5930 O   0  0  0  0  0  0  0  0  0  0  0  0
   58.6030   25.7160   46.4750 C   0  0  0  0  0  0  0  0  0  0  0  0
   59.1060   26.8420   47.0910 C   0  0  0  0  0  0  0  0  0  0  0  0
   60.0190   26.8270   48.2810 C   0  0  0  0  0  0  0  0  0  0  0  0
   58.6400   27.9570   46.4860 N   0  0  0  0  0  0  0  0  0  0  0  0
   58.9420   29.3090   46.8750 C   0  0  0  0  0  0  0  0  0  0  0  0
   59.5660   30.1820   45.9730 C   0  0  0  0  0  0  0  0  0  0  0  0
   59.8480   31.4980   46.3470 C   0  0  0  0  0  0  0  0  0  0  0  0
   59.4810   31.9730   47.6190 C   0  0  0  0  0  0  0  0  0  0  0  0
   59.8130   33.4010   48.0370 C   0  0  0  0  0  0  0  0  0  0  0  0
   59.0970   34.4940   47.3250 N   0  0  0  0  0  0  0  0  0  0  0  0
   59.7050   34.9130   46.0550 C   0  0  0  0  0  0  0  0  0  0  0  0
   58.5070   34.4560   45.2420 C   0  0  0  0  0  0  0  0  0  0  0  0
   57.9020   34.0770   46.5810 C   0  0  0  0  0  0  0  0  0  0  0  0
   58.9010   31.0780   48.5360 C   0  0  0  0  0  0  0  0  0  0  0  0
   58.6200   29.7620   48.1610 C   0  0  0  0  0  0  0  0  0  0  0  0
   57.1907   29.4887   44.8874 H   0  0  0  0  0  0  0  0  0  0  0  0
   56.3597   28.0120   44.0163 H   0  0  0  0  0  0  0  0  0  0  0  0
   57.7383   25.0907   43.6152 H   0  0  0  0  0  0  0  0  0  0  0  0
   54.3840   27.0930   46.3700 H   0  0  0  0  0  0  0  0  0  0  0  0
   58.7889   24.6718   46.7666 H   0  0  0  0  0  0  0  0  0  0  0  0
   59.4195   26.8368   49.2032 H   0  0  0  0  0  0  0  0  0  0  0  0
   60.6388   25.9186   48.2562 H   0  0  0  0  0  0  0  0  0  0  0  0
   60.6683   27.7146   48.2562 H   0  0  0  0  0  0  0  0  0  0  0  0
   59.8347   29.8292   44.9664 H   0  0  0  0  0  0  0  0  0  0  0  0
   60.3610   32.1680   45.6413 H   0  0  0  0  0  0  0  0  0  0  0  0
   59.5830   33.4957   49.1085 H   0  0  0  0  0  0  0  0  0  0  0  0
   60.8735   33.5365   47.7784 H   0  0  0  0  0  0  0  0  0  0  0  0
   59.8880   35.9959   45.9937 H   0  0  0  0  0  0  0  0  0  0  0  0
   60.7021   34.5299   45.7921 H   0  0  0  0  0  0  0  0  0  0  0  0
   57.9786   35.2538   44.6995 H   0  0  0  0  0  0  0  0  0  0  0  0
   58.5887   33.7506   44.4019 H   0  0  0  0  0  0  0  0  0  0  0  0
   57.0035   34.6585   46.8352 H   0  0  0  0  0  0  0  0  0  0  0  0
   57.5210   33.0545   46.7201 H   0  0  0  0  0  0  0  0  0  0  0  0
   58.6669   31.4168   49.5560 H   0  0  0  0  0  0  0  0  0  0  0  0
   58.1436   29.0781   48.8789 H   0  0  0  0  0  0  0  0  0  0  0  0
  1  2  2  0
  2  3  1  0
  3  4  2  3
  4  5  1  0
  5  6  2  0
  6  7  1  0
  6  8  1  0
  8  9  1  0
  9 10  2  0
  9 11  1  0
 11 12  1  0
 12 13  2  0
  3 14  1  0
 14 15  2  0
 15 16  1  0
 15 17  1  0
 17 18  1  0
 18 19  2  0
 19 20  1  0
 20 21  2  0
 21 22  1  0
 22 23  1  0
 23 24  1  0
 24 25  1  0
 25 26  1  0
 21 27  1  0
 27 28  2  0
 17  2  1  0
 28 18  1  0
 12  5  1  0
 26 23  1  0
  1 29  1  0
  1 30  1  0
  4 31  1  0
  7 32  1  0
 14 33  1  0
 16 34  1  0
 16 35  1  0
 16 36  1  0
 19 37  1  0
 20 38  1  0
 22 39  1  0
 22 40  1  0
 24 41  1  0
 24 42  1  0
 25 43  1  0
 25 44  1  0
 26 45  1  0
 26 46  1  0
 27 47  1  0
 28 48  1  0
M  CHG  2   8  -1  11  -1
M  END
>  <UniqueID>  (17) 
15

>  <SMILES>  (17) 
C=c1c(=Cc2c(O)[n-]c(=O)[n-]c2=O)cc(C)n1-c1ccc(CN2CCC2)cc1

>  <Energy>  (17) 
175.2797609071951

>  <Genealogy>  (17) 
C=c1c(=Cc2c(O)[n-]c(=O)[n-]c2=O)cc(C)n1-c1ccc(CN2CCC2)cc1 (protonated)
C=c1c(=Cc2c(O)[n-]c(=O)[n-]c2=O)cc(C)n1-c1ccc(CN2CCC2)cc1 (3D coordinates assigned)
C=c1c(=Cc2c(O)[n-]c(=O)[n-]c2=O)cc(C)n1-c1ccc(CN2CCC2)cc1 (nonaromatic ring conformer: 175.2797609071951 kcal/mol)

>  <smiles>  (17) 
C=c1c(=Cc2c(O)[nH]c(=O)[nH]c2=O)cc(C)n1-c1ccc(CN2CCC2)cc1

>  <score_type>  (17) 
oracle

>  <origin>  (17) 
adg

>  <m_score__min__energy>  (17) 
-13.140000000000001

>  <m_primary>  (17) 
energy

$$$$
17:0
     RDKit          3D

 34 35  0  0  0  0  0  0  0  0999 V2000
   59.9050   34.7790   49.2390 N   0  0  0  0  0  0  0  0  0  0  0  0
   59.6510   33.7660   50.2070 C   0  0  0  0  0  0  0  0  0  0  0  0
   60.1090   32.6050   50.0300 O   0  0  0  0  0  0  0  0  0  0  0  0
   58.9070   34.0880   51.3910 N   0  0  0  0  0  0  0  0  0  0  0  0
   58.5050   33.1110   52.3630 C   0  0  0  0  0  0  0  0  0  0  0  0
   58.9400   33.2480   53.6890 C   0  0  0  0  0  0  0  0  0  0  0  0
   58.5610   32.3140   54.6560 C   0  0  0  0  0  0  0  0  0  0  0  0
   57.7310   31.2470   54.3140 C   0  0  0  0  0  0  0  0  0  0  0  0
   57.2550   31.1120   53.0000 C   0  0  0  0  0  0  0  0  0  0  0  0
   56.3580   29.9490   52.6370 C   0  0  0  0  0  0  0  0  0  0  0  0
   55.1010   30.3930   52.0140 N   0  0  0  0  0  0  0  0  0  0  0  0
   53.9300   30.0110   52.8120 C   0  0  0  0  0  0  0  0  0  0  0  0
   52.7930   30.9480   52.5160 C   0  0  0  0  0  0  0  0  0  0  0  0
   51.8510   31.2580   53.5080 C   0  0  0  0  0  0  0  0  0  0  0  0
   50.7830   32.1030   53.2010 C   0  0  0  0  0  0  0  0  0  0  0  0
   50.6520   32.6120   51.9480 N   0  0  0  0  0  0  0  0  0  0  0  0
   51.5410   32.3170   50.9620 C   0  0  0  0  0  0  0  0  0  0  0  0
   51.3840   32.8030   49.8110 O   0  0  0  0  0  0  0  0  0  0  0  0
   52.6260   31.4750   51.2260 C   0  0  0  0  0  0  0  0  0  0  0  0
   57.6410   32.0510   52.0250 C   0  0  0  0  0  0  0  0  0  0  0  0
   57.1390   31.9590   50.7660 F   0  0  0  0  0  0  0  0  0  0  0  0
   59.4550   35.7180   49.3150 H   0  0  0  0  0  0  0  0  0  0  0  0
   58.7810   35.0990   51.6220 H   0  0  0  0  0  0  0  0  0  0  0  0
   59.5830   34.0954   53.9691 H   0  0  0  0  0  0  0  0  0  0  0  0
   58.9185   32.4205   55.6908 H   0  0  0  0  0  0  0  0  0  0  0  0
   57.4478   30.5074   55.0774 H   0  0  0  0  0  0  0  0  0  0  0  0
   56.8922   29.2958   51.9314 H   0  0  0  0  0  0  0  0  0  0  0  0
   56.1059   29.4134   53.5641 H   0  0  0  0  0  0  0  0  0  0  0  0
   55.0180   29.9640   51.0600 H   0  0  0  0  0  0  0  0  0  0  0  0
   53.6331   28.9828   52.5579 H   0  0  0  0  0  0  0  0  0  0  0  0
   54.1817   30.0671   53.8814 H   0  0  0  0  0  0  0  0  0  0  0  0
   51.9530   30.8386   54.5198 H   0  0  0  0  0  0  0  0  0  0  0  0
   50.0451   32.3576   53.9760 H   0  0  0  0  0  0  0  0  0  0  0  0
   53.3427   31.2278   50.4290 H   0  0  0  0  0  0  0  0  0  0  0  0
  1  2  1  0
  2  3  2  0
  2  4  1  0
  4  5  1  0
  5  6  2  0
  6  7  1  0
  7  8  2  0
  8  9  1  0
  9 10  1  0
 10 11  1  0
 11 12  1  0
 12 13  1  0
 13 14  1  0
 14 15  2  0
 15 16  1  0
 16 17  1  0
 17 18  2  0
 17 19  1  0
  9 20  2  0
 20 21  1  0
 20  5  1  0
 19 13  2  0
  1 22  1  0
  4 23  1  0
  6 24  1  0
  7 25  1  0
  8 26  1  0
 10 27  1  0
 10 28  1  0
 11 29  1  0
 12 30  1  0
 12 31  1  0
 14 32  1  0
 15 33  1  0
 19 34  1  0
M  CHG  2   1  -1  16  -1
M  END
>  <UniqueID>  (18) 
16

>  <SMILES>  (18) 
[NH-]C(=O)Nc1cccc(CNCc2cc[n-]c(=O)c2)c1F

>  <Energy>  (18) 
38.32676168411252

>  <Genealogy>  (18) 
[NH-]C(=O)Nc1cccc(CNCc2cc[n-]c(=O)c2)c1F (protonated)
[NH-]C(=O)Nc1cccc(CNCc2cc[n-]c(=O)c2)c1F (3D coordinates assigned)
[NH-]C(=O)Nc1cccc(CNCc2cc[n-]c(=O)c2)c1F (optimized conformer: 38.32676168411252 kcal/mol)

>  <smiles>  (18) 
NC(=O)Nc1cccc(CNCc2cc[nH]c(=O)c2)c1F

>  <score_type>  (18) 
oracle

>  <origin>  (18) 
adg

>  <m_score__min__energy>  (18) 
-9.9199999999999999

>  <m_primary>  (18) 
energy

$$$$
18:0
     RDKit          3D

 36 38  0  0  0  0  0  0  0  0999 V2000
   55.3350   26.6950   46.1060 N   0  0  0  0  0  0  0  0  0  0  0  0
   56.7130   27.0590   46.1300 C   0  0  0  0  0  0  0  0  0  0  0  0
   57.5870   26.1670   46.3000 O   0  0  0  0  0  0  0  0  0  0  0  0
   57.1150   28.4690   45.9200 C   0  0  0  0  0  0  0  0  0  0  0  0
   56.3130   29.2910   45.1020 C   0  0  0  0  0  0  0  0  0  0  0  0
   55.1500   28.7950   44.5180 O   0  0  0  0  0  0  0  0  0  0  0  0
   56.6960   30.6130   44.8540 C   0  0  0  0  0  0  0  0  0  0  0  0
   55.9860   31.3520   44.1230 O   0  0  0  0  0  0  0  0  0  0  0  0
   57.8390   31.1050   45.3940 N   0  0  0  0  0  0  0  0  0  0  0  0
   58.6400   30.3550   46.1920 C   0  0  0  0  0  0  0  0  0  0  0  0
   59.8000   30.9260   46.7290 C   0  0  0  0  0  0  0  0  0  0  0  0
   60.6340   30.1800   47.5730 C   0  0  0  0  0  0  0  0  0  0  0  0
   61.8510   30.7810   48.1540 C   0  0  0  0  0  0  0  0  0  0  0  0
   62.0800   30.6320   49.3840 O   0  0  0  0  0  0  0  0  0  0  0  0
   62.8040   31.4970   47.3580 N   0  0  0  0  0  0  0  0  0  0  0  0
   62.9820   32.9440   47.3740 C   0  0  0  0  0  0  0  0  0  0  0  0
   61.6390   33.6090   47.2860 C   0  0  0  0  0  0  0  0  0  0  0  0
   60.9280   33.9240   48.4570 C   0  0  0  0  0  0  0  0  0  0  0  0
   59.6620   34.5130   48.3740 C   0  0  0  0  0  0  0  0  0  0  0  0
   59.0940   34.7810   47.1260 C   0  0  0  0  0  0  0  0  0  0  0  0
   59.7890   34.4560   45.9570 C   0  0  0  0  0  0  0  0  0  0  0  0
   61.0550   33.8670   46.0350 C   0  0  0  0  0  0  0  0  0  0  0  0
   60.2720   28.8700   47.9140 C   0  0  0  0  0  0  0  0  0  0  0  0
   59.1180   28.2900   47.3810 C   0  0  0  0  0  0  0  0  0  0  0  0
   58.2950   29.0130   46.4920 C   0  0  0  0  0  0  0  0  0  0  0  0
   54.7850   26.7340   45.2200 H   0  0  0  0  0  0  0  0  0  0  0  0
   60.0587   31.9674   46.4868 H   0  0  0  0  0  0  0  0  0  0  0  0
   63.4797   33.2429   48.3083 H   0  0  0  0  0  0  0  0  0  0  0  0
   63.6015   33.2490   46.5178 H   0  0  0  0  0  0  0  0  0  0  0  0
   61.3684   33.7067   49.4413 H   0  0  0  0  0  0  0  0  0  0  0  0
   59.1127   34.7656   49.2929 H   0  0  0  0  0  0  0  0  0  0  0  0
   58.0999   35.2477   47.0630 H   0  0  0  0  0  0  0  0  0  0  0  0
   59.3394   34.6639   44.9748 H   0  0  0  0  0  0  0  0  0  0  0  0
   61.5953   33.6049   45.1134 H   0  0  0  0  0  0  0  0  0  0  0  0
   60.9018   28.2932   48.6073 H   0  0  0  0  0  0  0  0  0  0  0  0
   58.8486   27.2599   47.6572 H   0  0  0  0  0  0  0  0  0  0  0  0
  1  2  1  0
  2  3  2  0
  2  4  1  0
  4  5  2  0
  5  6  1  0
  5  7  1  0
  7  8  2  0
  7  9  1  0
  9 10  1  0
 10 11  2  0
 11 12  1  0
 12 13  1  0
 13 14  2  0
 13 15  1  0
 15 16  1  0
 16 17  1  0
 17 18  2  0
 18 19  1  0
 19 20  2  0
 20 21  1  0
 21 22  2  0
 12 23  2  0
 23 24  1  0
 24 25  2  0
 25  4  1  0
 25 10  1  0
 22 17  1  0
  1 26  1  0
 11 27  1  0
 16 28  1  0
 16 29  1  0
 18 30  1  0
 19 31  1  0
 20 32  1  0
 21 33  1  0
 22 34  1  0
 23 35  1  0
 24 36  1  0
M  CHG  4   1  -1   6  -1   9  -1  15  -1
M  END
>  <UniqueID>  (19) 
17

>  <SMILES>  (19) 
[NH-]C(=O)c1c([O-])c(=O)[n-]c2cc(C(=O)[N-]Cc3ccccc3)ccc12

>  <Energy>  (19) 
53.71355159080507

>  <Genealogy>  (19) 
[NH-]C(=O)c1c([O-])c(=O)[n-]c2cc(C(=O)[N-]Cc3ccccc3)ccc12 (protonated)
[NH-]C(=O)c1c([O-])c(=O)[n-]c2cc(C(=O)[N-]Cc3ccccc3)ccc12 (3D coordinates assigned)
[NH-]C(=O)c1c([O-])c(=O)[n-]c2cc(C(=O)[N-]Cc3ccccc3)ccc12 (optimized conformer: 53.71355159080507 kcal/mol)

>  <smiles>  (19) 
NC(=O)c1c(O)c(=O)[nH]c2cc(C(=O)NCc3ccccc3)ccc12

>  <score_type>  (19) 
oracle

>  <origin>  (19) 
adg

>  <m_score__min__energy>  (19) 
-15.16

>  <m_primary>  (19) 
energy

$$$$
19:0
     RDKit          3D

 68 71  0  0  0  0  0  0  0  0999 V2000
   57.5310   31.2720   43.1320 C   0  0  0  0  0  0  0  0  0  0  0  0
   56.7290   30.2690   43.9510 C   0  0  0  0  0  0  0  0  0  0  0  0
   57.4390   29.9030   45.1290 O   0  0  0  0  0  0  0  0  0  0  0  0
   57.4240   28.6230   45.6920 C   0  0  0  0  0  0  0  0  0  0  0  0
   56.3110   27.8410   45.6250 N   0  0  0  0  0  0  0  0  0  0  0  0
   56.2840   26.5900   46.1660 C   0  0  0  0  0  0  0  0  0  0  0  0
   55.1440   25.7870   46.0780 O   0  0  0  0  0  0  0  0  0  0  0  0
   54.9770   24.7830   45.0820 C   0  0  0  0  0  0  0  0  0  0  0  0
   56.0420   23.7380   45.2620 C   0  0  0  0  0  0  0  0  0  0  0  0
   56.9570   23.4890   44.2280 C   0  0  0  0  0  0  0  0  0  0  0  0
   57.9890   22.5660   44.4110 C   0  0  0  0  0  0  0  0  0  0  0  0
   58.1130   21.8870   45.6250 C   0  0  0  0  0  0  0  0  0  0  0  0
   57.2150   22.1270   46.6700 C   0  0  0  0  0  0  0  0  0  0  0  0
   57.3880   21.4210   47.8700 O   0  0  0  0  0  0  0  0  0  0  0  0
   56.4320   20.5190   48.4190 C   0  0  0  0  0  0  0  0  0  0  0  0
   56.1790   23.0610   46.4850 C   0  0  0  0  0  0  0  0  0  0  0  0
   57.4230   26.1020   46.8070 C   0  0  0  0  0  0  0  0  0  0  0  0
   58.5360   26.8760   46.8760 N   0  0  0  0  0  0  0  0  0  0  0  0
   58.5680   28.1280   46.3340 C   0  0  0  0  0  0  0  0  0  0  0  0
   59.6320   28.8670   46.4220 N   0  0  0  0  0  0  0  0  0  0  0  0
   59.6490   30.1740   46.9990 C   0  0  0  0  0  0  0  0  0  0  0  0
   60.5670   30.9780   46.6840 O   0  0  0  0  0  0  0  0  0  0  0  0
   58.6210   30.5980   47.9000 N   0  0  0  0  0  0  0  0  0  0  0  0
   58.8080   30.7070   49.6230 S   0  0  0  0  0  0  0  0  0  0  0  0
   57.8660   31.7540   50.1350 O   0  0  0  0  0  0  0  0  0  0  0  0
   58.4730   29.3960   50.2710 O   0  0  0  0  0  0  0  0  0  0  0  0
   60.4690   31.1590   50.0160 C   0  0  0  0  0  0  0  0  0  0  0  0
   61.4590   30.1690   50.1110 C   0  0  0  0  0  0  0  0  0  0  0  0
   62.7800   30.5170   50.3950 C   0  0  0  0  0  0  0  0  0  0  0  0
   63.1240   31.8530   50.5850 C   0  0  0  0  0  0  0  0  0  0  0  0
   62.1490   32.8470   50.4970 C   0  0  0  0  0  0  0  0  0  0  0  0
   60.8100   32.5120   50.2180 C   0  0  0  0  0  0  0  0  0  0  0  0
   59.8000   33.4830   50.1250 O   0  0  0  0  0  0  0  0  0  0  0  0
   59.7760   34.5720   49.1970 C   0  0  0  0  0  0  0  0  0  0  0  0
   60.3840   34.1710   47.8470 C   0  0  0  0  0  0  0  0  0  0  0  0
   59.3150   33.9910   46.8030 C   0  0  0  0  0  0  0  0  0  0  0  0
   58.0330   33.5650   47.1690 C   0  0  0  0  0  0  0  0  0  0  0  0
   57.0390   33.4570   46.1940 C   0  0  0  0  0  0  0  0  0  0  0  0
   57.3180   33.7670   44.9000 N   0  0  0  0  0  0  0  0  0  0  0  0
   58.5530   34.1840   44.5200 C   0  0  0  0  0  0  0  0  0  0  0  0
   59.5720   34.3130   45.4650 C   0  0  0  0  0  0  0  0  0  0  0  0
   58.0723   31.9490   43.8093 H   0  0  0  0  0  0  0  0  0  0  0  0
   58.2514   30.7348   42.4976 H   0  0  0  0  0  0  0  0  0  0  0  0
   56.8485   31.8566   42.4976 H   0  0  0  0  0  0  0  0  0  0  0  0
   55.7668   30.7206   44.2344 H   0  0  0  0  0  0  0  0  0  0  0  0
   56.5617   29.3676   43.3431 H   0  0  0  0  0  0  0  0  0  0  0  0
   53.9844   24.3206   45.1864 H   0  0  0  0  0  0  0  0  0  0  0  0
   55.0607   25.2325   44.0815 H   0  0  0  0  0  0  0  0  0  0  0  0
   56.8613   24.0222   43.2706 H   0  0  0  0  0  0  0  0  0  0  0  0
   58.7048   22.3737   43.5982 H   0  0  0  0  0  0  0  0  0  0  0  0
   58.9244   21.1567   45.7606 H   0  0  0  0  0  0  0  0  0  0  0  0
   56.4766   20.5611   49.5173 H   0  0  0  0  0  0  0  0  0  0  0  0
   55.4242   20.8029   48.0818 H   0  0  0  0  0  0  0  0  0  0  0  0
   56.6569   19.4964   48.0818 H   0  0  0  0  0  0  0  0  0  0  0  0
   55.4720   23.2622   47.3033 H   0  0  0  0  0  0  0  0  0  0  0  0
   57.4192   25.0967   47.2535 H   0  0  0  0  0  0  0  0  0  0  0  0
   61.1921   29.1125   49.9607 H   0  0  0  0  0  0  0  0  0  0  0  0
   63.5504   29.7353   50.4689 H   0  0  0  0  0  0  0  0  0  0  0  0
   64.1668   32.1252   50.8050 H   0  0  0  0  0  0  0  0  0  0  0  0
   62.4283   33.9004   50.6467 H   0  0  0  0  0  0  0  0  0  0  0  0
   58.7334   34.8860   49.0407 H   0  0  0  0  0  0  0  0  0  0  0  0
   60.3736   35.3957   49.6146 H   0  0  0  0  0  0  0  0  0  0  0  0
   61.0786   34.9579   47.5179 H   0  0  0  0  0  0  0  0  0  0  0  0
   60.9138   33.2152   47.9727 H   0  0  0  0  0  0  0  0  0  0  0  0
   57.8100   33.3170   48.2172 H   0  0  0  0  0  0  0  0  0  0  0  0
   56.0295   33.1209   46.4732 H   0  0  0  0  0  0  0  0  0  0  0  0
   58.7510   34.4209   43.4642 H   0  0  0  0  0  0  0  0  0  0  0  0
   60.5689   34.6648   45.1610 H   0  0  0  0  0  0  0  0  0  0  0  0
  1  2  1  0
  2  3  1  0
  3  4  1  0
  4  5  2  0
  5  6  1  0
  6  7  1  0
  7  8  1  0
  8  9  1  0
  9 10  2  0
 10 11  1  0
 11 12  2  0
 12 13  1  0
 13 14  1  0
 14 15  1  0
 13 16  2  0
  6 17  2  0
 17 18  1  0
 18 19  1  0
 19 20  2  3
 20 21  1  0
 21 22  2  0
 21 23  1  0
 23 24  1  0
 24 25  2  0
 24 26  2  0
 24 27  1  0
 27 28  2  0
 28 29  1  0
 29 30  2  0
 30 31  1  0
 31 32  2  0
 32 33  1  0
 33 34  1  0
 34 35  1  0
 35 36  1  0
 36 37  2  0
 37 38  1  0
 38 39  2  0
 39 40  1  0
 40 41  2  0
 19  4  1  0
 32 27  1  0
 41 36  1  0
 16  9  1  0
  1 42  1  0
  1 43  1  0
  1 44  1  0
  2 45  1  0
  2 46  1  0
  8 47  1  0
  8 48  1  0
 10 49  1  0
 11 50  1  0
 12 51  1  0
 15 52  1  0
 15 53  1  0
 15 54  1  0
 16 55  1  0
 17 56  1  0
 28 57  1  0
 29 58  1  0
 30 59  1  0
 31 60  1  0
 34 61  1  0
 34 62  1  0
 35 63  1  0
 35 64  1  0
 37 65  1  0
 38 66  1  0
 40 67  1  0
 41 68  1  0
M  CHG  2  18  -1  23  -1
M  END
>  <UniqueID>  (20) 
18

>  <SMILES>  (20) 
CCOc1nc(OCc2cccc(OC)c2)c[n-]c1=NC(=O)[N-]S(=O)(=O)c1ccccc1OCCc1ccncc1

>  <Energy>  (20) 
74.75223546770529

>  <Genealogy>  (20) 
CCOc1nc(OCc2cccc(OC)c2)c[n-]c1=NC(=O)[N-]S(=O)(=O)c1ccccc1OCCc1ccncc1 (protonated)
CCOc1nc(OCc2cccc(OC)c2)c[n-]c1=NC(=O)[N-]S(=O)(=O)c1ccccc1OCCc1ccncc1 (3D coordinates assigned)
CCOc1nc(OCc2cccc(OC)c2)c[n-]c1=NC(=O)[N-]S(=O)(=O)c1ccccc1OCCc1ccncc1 (optimized conformer: 74.75223546770529 kcal/mol)

>  <smiles>  (20) 
CCOc1nc(OCc2cccc(OC)c2)c[nH]c1=NC(=O)NS(=O)(=O)c1ccccc1OCCc1ccncc1

>  <score_type>  (20) 
oracle

>  <origin>  (20) 
adg

>  <m_score__min__energy>  (20) 
-11.06

>  <m_primary>  (20) 
energy

$$$$
20:0
     RDKit          3D

 41 42  0  0  0  0  0  0  0  0999 V2000
   65.8960   32.4670   51.1010 C   0  0  0  0  0  0  0  0  0  0  0  0
   65.3890   32.2190   49.7930 O   0  0  0  0  0  0  0  0  0  0  0  0
   64.1920   32.7520   49.2920 C   0  0  0  0  0  0  0  0  0  0  0  0
   63.9970   33.0100   47.9270 C   0  0  0  0  0  0  0  0  0  0  0  0
   62.7900   33.5410   47.4640 C   0  0  0  0  0  0  0  0  0  0  0  0
   62.6620   33.7640   46.0910 O   0  0  0  0  0  0  0  0  0  0  0  0
   61.7470   33.8320   48.3780 C   0  0  0  0  0  0  0  0  0  0  0  0
   60.4300   34.3960   47.8880 C   0  0  0  0  0  0  0  0  0  0  0  0
   60.5210   34.7450   46.4740 N   0  0  0  0  0  0  0  0  0  0  0  0
   59.4460   34.5780   45.5410 C   0  0  0  0  0  0  0  0  0  0  0  0
   59.0480   35.5620   44.8610 O   0  0  0  0  0  0  0  0  0  0  0  0
   58.8060   33.2520   45.3730 C   0  0  0  0  0  0  0  0  0  0  0  0
   57.7380   33.0840   44.4730 C   0  0  0  0  0  0  0  0  0  0  0  0
   57.1330   31.8330   44.3150 C   0  0  0  0  0  0  0  0  0  0  0  0
   57.5800   30.7340   45.0570 C   0  0  0  0  0  0  0  0  0  0  0  0
   56.8290   29.1550   44.8490 S   0  0  0  0  0  0  0  0  0  0  0  0
   55.1150   29.3430   44.7380 N   0  0  0  0  0  0  0  0  0  0  0  0
   57.1600   28.2740   46.0200 O   0  0  0  0  0  0  0  0  0  0  0  0
   57.3470   28.5070   43.5960 O   0  0  0  0  0  0  0  0  0  0  0  0
   58.6470   30.8920   45.9500 C   0  0  0  0  0  0  0  0  0  0  0  0
   59.2550   32.1410   46.1100 C   0  0  0  0  0  0  0  0  0  0  0  0
   61.9380   33.5670   49.7530 C   0  0  0  0  0  0  0  0  0  0  0  0
   60.8970   33.8450   50.6570 O   0  0  0  0  0  0  0  0  0  0  0  0
   59.7300   33.0450   50.8240 C   0  0  0  0  0  0  0  0  0  0  0  0
   63.1630   33.0300   50.1920 C   0  0  0  0  0  0  0  0  0  0  0  0
   65.1711   32.1124   51.8485 H   0  0  0  0  0  0  0  0  0  0  0  0
   66.8488   31.9332   51.2322 H   0  0  0  0  0  0  0  0  0  0  0  0
   66.0595   33.5468   51.2322 H   0  0  0  0  0  0  0  0  0  0  0  0
   64.8041   32.7917   47.2122 H   0  0  0  0  0  0  0  0  0  0  0  0
   61.8370   34.1650   45.6630 H   0  0  0  0  0  0  0  0  0  0  0  0
   59.6397   33.6433   48.0255 H   0  0  0  0  0  0  0  0  0  0  0  0
   60.1931   35.3022   48.4648 H   0  0  0  0  0  0  0  0  0  0  0  0
   57.3760   33.9431   43.8891 H   0  0  0  0  0  0  0  0  0  0  0  0
   56.3021   31.7124   43.6043 H   0  0  0  0  0  0  0  0  0  0  0  0
   54.7450   29.3450   45.7140 H   0  0  0  0  0  0  0  0  0  0  0  0
   59.0087   30.0292   46.5286 H   0  0  0  0  0  0  0  0  0  0  0  0
   60.0900   32.2556   46.8169 H   0  0  0  0  0  0  0  0  0  0  0  0
   59.5299   32.9078   51.8969 H   0  0  0  0  0  0  0  0  0  0  0  0
   58.8717   33.5455   50.3520 H   0  0  0  0  0  0  0  0  0  0  0  0
   59.8874   32.0639   50.3520 H   0  0  0  0  0  0  0  0  0  0  0  0
   63.3113   32.8262   51.2627 H   0  0  0  0  0  0  0  0  0  0  0  0
  1  2  1  0
  2  3  1  0
  3  4  2  0
  4  5  1  0
  5  6  1  0
  5  7  2  0
  7  8  1  0
  8  9  1  0
  9 10  1  0
 10 11  2  0
 10 12  1  0
 12 13  2  0
 13 14  1  0
 14 15  2  0
 15 16  1  0
 16 17  1  0
 16 18  2  0
 16 19  2  0
 15 20  1  0
 20 21  2  0
  7 22  1  0
 22 23  1  0
 23 24  1  0
 22 25  2  0
 25  3  1  0
 21 12  1  0
  1 26  1  0
  1 27  1  0
  1 28  1  0
  4 29  1  0
  6 30  1  0
  8 31  1  0
  8 32  1  0
 13 33  1  0
 14 34  1  0
 17 35  1  0
 20 36  1  0
 21 37  1  0
 24 38  1  0
 24 39  1  0
 24 40  1  0
 25 41  1  0
M  CHG  2   9  -1  17  -1
M  END
>  <UniqueID>  (21) 
19

>  <SMILES>  (21) 
COc1cc(O)c(C[N-]C(=O)c2ccc(S([NH-])(=O)=O)cc2)c(OC)c1

>  <Energy>  (21) 
40.81495537008074

>  <Genealogy>  (21) 
COc1cc(O)c(C[N-]C(=O)c2ccc(S([NH-])(=O)=O)cc2)c(OC)c1 (protonated)
COc1cc(O)c(C[N-]C(=O)c2ccc(S([NH-])(=O)=O)cc2)c(OC)c1 (3D coordinates assigned)
COc1cc(O)c(C[N-]C(=O)c2ccc(S([NH-])(=O)=O)cc2)c(OC)c1 (optimized conformer: 40.81495537008074 kcal/mol)

>  <smiles>  (21) 
COc1cc(O)c(CNC(=O)c2ccc(S(N)(=O)=O)cc2)c(OC)c1

>  <score_type>  (21) 
oracle

>  <origin>  (21) 
adg

>  <m_score__min__energy>  (21) 
-10.300000000000001

>  <m_primary>  (21) 
energy

$$$$
21:0
     RDKit          3D

 37 40  0  0  0  0  0  0  0  0999 V2000
   61.0150   21.9710   44.8890 H   0  0  0  0  0  0  0  0  0  0  0  0
   60.2910   22.1280   45.5790 O   0  0  0  0  0  0  0  0  0  0  0  0
   59.0730   22.6920   45.2130 C   0  0  0  0  0  0  0  0  0  0  0  0
   58.0740   22.0050   44.6330 N   0  0  0  0  0  0  0  0  0  0  0  0
   57.1220   22.9480   44.4760 C   0  0  0  0  0  0  0  0  0  0  0  0
   56.0020   22.7020   43.9570 O   0  0  0  0  0  0  0  0  0  0  0  0
   57.4620   24.1770   44.9200 N   0  0  0  0  0  0  0  0  0  0  0  0
   58.7150   24.0090   45.3840 C   0  0  0  0  0  0  0  0  0  0  0  0
   59.5540   25.0490   46.0230 C   0  0  0  0  0  0  0  0  0  0  0  0
   60.5960   24.7818   46.2529 H   0  0  0  0  0  0  0  0  0  0  0  0
   59.1520   26.2960   46.3480 C   0  0  0  0  0  0  0  0  0  0  0  0
   59.2410   26.9140   47.5910 C   0  0  0  0  0  0  0  0  0  0  0  0
   59.6716   26.4845   48.5076 H   0  0  0  0  0  0  0  0  0  0  0  0
   58.6850   28.1700   47.4530 C   0  0  0  0  0  0  0  0  0  0  0  0
   58.5720   29.1740   48.5610 C   0  0  0  0  0  0  0  0  0  0  0  0
   58.6301   28.6580   49.5307 H   0  0  0  0  0  0  0  0  0  0  0  0
   59.3940   29.9007   48.4825 H   0  0  0  0  0  0  0  0  0  0  0  0
   57.6090   29.6998   48.4825 H   0  0  0  0  0  0  0  0  0  0  0  0
   58.2720   28.3660   46.1820 N   0  0  0  0  0  0  0  0  0  0  0  0
   57.6420   29.5540   45.6780 C   0  0  0  0  0  0  0  0  0  0  0  0
   56.3850   29.6520   45.1050 C   0  0  0  0  0  0  0  0  0  0  0  0
   55.5180   28.5860   44.9020 O   0  0  0  0  0  0  0  0  0  0  0  0
   56.0810   30.9290   44.7720 N   0  0  0  0  0  0  0  0  0  0  0  0
   57.1690   31.6340   45.1470 C   0  0  0  0  0  0  0  0  0  0  0  0
   57.3570   33.0080   45.0100 C   0  0  0  0  0  0  0  0  0  0  0  0
   56.5768   33.6452   44.5681 H   0  0  0  0  0  0  0  0  0  0  0  0
   58.5750   33.5560   45.4540 C   0  0  0  0  0  0  0  0  0  0  0  0
   58.7517   34.6379   45.3628 H   0  0  0  0  0  0  0  0  0  0  0  0
   59.5730   32.7280   46.0160 C   0  0  0  0  0  0  0  0  0  0  0  0
   61.2220   33.4890   46.6040 Br  0  0  0  0  0  0  0  0  0  0  0  0
   59.3590   31.3430   46.1410 C   0  0  0  0  0  0  0  0  0  0  0  0
   60.1292   30.6850   46.5698 H   0  0  0  0  0  0  0  0  0  0  0  0
   58.1380   30.8330   45.7030 C   0  0  0  0  0  0  0  0  0  0  0  0
   58.5400   27.2280   45.4970 C   0  0  0  0  0  0  0  0  0  0  0  0
   58.2790   27.0670   44.1890 C   0  0  0  0  0  0  0  0  0  0  0  0
   57.7919   27.8740   43.6220 H   0  0  0  0  0  0  0  0  0  0  0  0
   58.5524   26.1282   43.6851 H   0  0  0  0  0  0  0  0  0  0  0  0
  1  2  1  0
  2  3  1  0
  3  4  1  0
  4  5  1  0
  5  6  2  0
  5  7  1  0
  7  8  1  0
  8  9  1  0
  9 10  1  0
  9 11  2  0
 11 12  1  0
 12 13  1  0
 12 14  2  0
 14 15  1  0
 15 16  1  0
 15 17  1  0
 15 18  1  0
 14 19  1  0
 19 20  1  0
 20 21  2  0
 21 22  1  0
 21 23  1  0
 23 24  1  0
 24 25  2  0
 25 26  1  0
 25 27  1  0
 27 28  1  0
 27 29  2  0
 29 30  1  0
 29 31  1  0
 31 32  1  0
 31 33  2  0
 19 34  1  0
 34 35  2  0
 35 36  1  0
 35 37  1  0
  8  3  2  0
 34 11  1  0
 33 20  1  0
 33 24  1  0
M  CHG  4   4  -1   7  -1  22  -1  23  -1
M  END
>  <UniqueID>  (22) 
20

>  <SMILES>  (22) 
C=c1/c(=C/c2[n-]c(=O)[n-]c2O)cc(C)n1-c1c([O-])[n-]c2ccc(Br)cc12

>  <Energy>  (22) 
142.32989080253657

>  <Genealogy>  (22) 
C=c1c(=Cc2[n-]c(=O)[n-]c2O)cc(C)n1-c1c([O-])[n-]c2ccc(Br)cc12 (protonated)
C=c1/c(=C/c2[n-]c(=O)[n-]c2O)cc(C)n1-c1c([O-])[n-]c2ccc(Br)cc12 (cis-trans isomerization)
C=c1/c(=C/c2[n-]c(=O)[n-]c2O)cc(C)n1-c1c([O-])[n-]c2ccc(Br)cc12 (3D coordinates assigned)
C=c1/c(=C/c2[n-]c(=O)[n-]c2O)cc(C)n1-c1c([O-])[n-]c2ccc(Br)cc12 (optimized conformer: 142.32989080253657 kcal/mol)

>  <smiles>  (22) 
C=c1c(=Cc2[nH]c(=O)[nH]c2O)cc(C)n1-c1c(O)[nH]c2ccc(Br)cc12

>  <score_type>  (22) 
oracle

>  <origin>  (22) 
adg

>  <m_score__min__energy>  (22) 
-16.030000000000001

>  <m_primary>  (22) 
energy

$$$$
22:0
     RDKit          3D

 35 36  0  0  0  0  0  0  0  0999 V2000
   59.2042   25.3570   45.7053 H   0  0  0  0  0  0  0  0  0  0  0  0
   58.2270   25.8580   45.6420 C   0  0  0  0  0  0  0  0  0  0  0  0
   57.9460   26.9180   46.6320 C   0  0  0  0  0  0  0  0  0  0  0  0
   58.3400   26.8190   47.8270 O   0  0  0  0  0  0  0  0  0  0  0  0
   57.1940   28.0240   46.2290 O   0  0  0  0  0  0  0  0  0  0  0  0
   57.5090   28.7890   45.0720 C   0  0  0  0  0  0  0  0  0  0  0  0
   58.4079   29.3932   45.2644 H   0  0  0  0  0  0  0  0  0  0  0  0
   57.6981   28.1142   44.2241 H   0  0  0  0  0  0  0  0  0  0  0  0
   56.3630   29.6890   44.7490 C   0  0  0  0  0  0  0  0  0  0  0  0
   55.1840   29.2590   44.8730 O   0  0  0  0  0  0  0  0  0  0  0  0
   56.6270   31.0460   44.3530 N   0  0  0  0  0  0  0  0  0  0  0  0
   57.3710   31.9120   44.9780 C   0  0  0  0  0  0  0  0  0  0  0  0
   57.7710   31.7070   46.2660 N   0  0  0  0  0  0  0  0  0  0  0  0
   58.5460   32.6040   46.9320 C   0  0  0  0  0  0  0  0  0  0  0  0
   58.8479   32.4053   47.9709 H   0  0  0  0  0  0  0  0  0  0  0  0
   58.9590   33.7780   46.2970 C   0  0  0  0  0  0  0  0  0  0  0  0
   59.9610   34.9410   47.1450 Cl  0  0  0  0  0  0  0  0  0  0  0  0
   58.5650   34.0140   44.9780 C   0  0  0  0  0  0  0  0  0  0  0  0
   58.8815   34.9335   44.4638 H   0  0  0  0  0  0  0  0  0  0  0  0
   57.7680   33.0790   44.3140 C   0  0  0  0  0  0  0  0  0  0  0  0
   57.4539   33.2584   43.2752 H   0  0  0  0  0  0  0  0  0  0  0  0
   57.3920   25.4540   44.6720 C   0  0  0  0  0  0  0  0  0  0  0  0
   57.6481   25.7194   43.6357 H   0  0  0  0  0  0  0  0  0  0  0  0
   56.1510   24.6770   44.8950 C   0  0  0  0  0  0  0  0  0  0  0  0
   56.0380   23.3460   44.4440 C   0  0  0  0  0  0  0  0  0  0  0  0
   57.1450   22.6770   43.6820 C   0  0  0  0  0  0  0  0  0  0  0  0
   57.8659   22.2413   44.3894 H   0  0  0  0  0  0  0  0  0  0  0  0
   56.7256   21.8811   43.0491 H   0  0  0  0  0  0  0  0  0  0  0  0
   57.6547   23.4184   43.0491 H   0  0  0  0  0  0  0  0  0  0  0  0
   54.8990   22.6480   44.6940 N   0  0  0  0  0  0  0  0  0  0  0  0
   53.8670   23.2020   45.3800 C   0  0  0  0  0  0  0  0  0  0  0  0
   52.8220   22.5320   45.5910 O   0  0  0  0  0  0  0  0  0  0  0  0
   53.9610   24.4730   45.8400 N   0  0  0  0  0  0  0  0  0  0  0  0
   55.0760   25.2180   45.6230 C   0  0  0  0  0  0  0  0  0  0  0  0
   55.1350   26.3880   46.0870 O   0  0  0  0  0  0  0  0  0  0  0  0
  1  2  1  0
  2  3  1  0
  3  4  2  0
  3  5  1  0
  5  6  1  0
  6  7  1  0
  6  8  1  0
  6  9  1  0
  9 10  2  0
  9 11  1  0
 11 12  2  3
 12 13  1  0
 13 14  1  0
 14 15  1  0
 14 16  2  0
 16 17  1  0
 16 18  1  0
 18 19  1  0
 18 20  2  0
 20 21  1  0
  2 22  2  0
 22 23  1  0
 22 24  1  0
 24 25  2  0
 25 26  1  0
 26 27  1  0
 26 28  1  0
 26 29  1  0
 25 30  1  0
 30 31  1  0
 31 32  2  0
 31 33  1  0
 33 34  1  0
 34 35  2  0
 20 12  1  0
 34 24  1  0
M  CHG  3  13  -1  30  -1  33  -1
M  END
>  <UniqueID>  (23) 
21

>  <SMILES>  (23) 
Cc1[n-]c(=O)[n-]c(=O)c1/C=C\C(=O)OCC(=O)N=c1ccc(Cl)c[n-]1

>  <Energy>  (23) 
45.35433119572758

>  <Genealogy>  (23) 
Cc1[n-]c(=O)[n-]c(=O)c1C=CC(=O)OCC(=O)N=c1ccc(Cl)c[n-]1 (protonated)
Cc1[n-]c(=O)[n-]c(=O)c1/C=C\C(=O)OCC(=O)N=c1ccc(Cl)c[n-]1 (cis-trans isomerization)
Cc1[n-]c(=O)[n-]c(=O)c1/C=C\C(=O)OCC(=O)N=c1ccc(Cl)c[n-]1 (3D coordinates assigned)
Cc1[n-]c(=O)[n-]c(=O)c1/C=C\C(=O)OCC(=O)N=c1ccc(Cl)c[n-]1 (optimized conformer: 45.35433119572758 kcal/mol)

>  <smiles>  (23) 
Cc1[nH]c(=O)[nH]c(=O)c1C=CC(=O)OCC(=O)N=c1ccc(Cl)c[nH]1

>  <score_type>  (23) 
oracle

>  <origin>  (23) 
adg

>  <m_score__min__energy>  (23) 
-13.619999999999999

>  <m_primary>  (23) 
energy

$$$$
23:0
     RDKit          3D

 60 63  0  0  0  0  0  0  0  0999 V2000
   60.1200   25.3160   46.0000 O   0  0  0  0  0  0  0  0  0  0  0  0
   58.9250   25.6970   45.7910 C   0  0  0  0  0  0  0  0  0  0  0  0
   57.8950   24.7270   45.8750 N   0  0  0  0  0  0  0  0  0  0  0  0
   58.0900   23.3420   46.1800 C   0  0  0  0  0  0  0  0  0  0  0  0
   56.8160   22.5600   46.0710 C   0  0  0  0  0  0  0  0  0  0  0  0
   56.6010   22.1840   44.6490 C   0  0  0  0  0  0  0  0  0  0  0  0
   56.4430   20.9320   44.1020 C   0  0  0  0  0  0  0  0  0  0  0  0
   56.2800   21.1130   42.7890 N   0  0  0  0  0  0  0  0  0  0  0  0
   56.3300   22.4030   42.5030 N   0  0  0  0  0  0  0  0  0  0  0  0
   56.5290   23.1090   43.6340 C   0  0  0  0  0  0  0  0  0  0  0  0
   58.6930   27.1030   45.4800 C   0  0  0  0  0  0  0  0  0  0  0  0
   59.6870   28.0580   45.4790 C   0  0  0  0  0  0  0  0  0  0  0  0
   59.4280   29.3910   45.1770 C   0  0  0  0  0  0  0  0  0  0  0  0
   58.1480   29.8090   44.8620 C   0  0  0  0  0  0  0  0  0  0  0  0
   57.7630   31.4530   44.4760 S   0  0  0  0  0  0  0  0  0  0  0  0
   57.8390   31.6660   43.0010 O   0  0  0  0  0  0  0  0  0  0  0  0
   56.3180   31.7290   44.8590 O   0  0  0  0  0  0  0  0  0  0  0  0
   58.7540   32.5720   45.3410 N   0  0  0  0  0  0  0  0  0  0  0  0
   58.4670   33.8910   44.8700 C   0  0  0  0  0  0  0  0  0  0  0  0
   59.2110   34.9720   45.5800 C   0  0  0  0  0  0  0  0  0  0  0  0
   59.9830   34.4730   46.7570 C   0  0  0  0  0  0  0  0  0  0  0  0
   61.2600   33.7700   46.3570 C   0  0  0  0  0  0  0  0  0  0  0  0
   62.1330   33.6180   47.5490 C   0  0  0  0  0  0  0  0  0  0  0  0
   61.8660   34.2130   48.7640 C   0  0  0  0  0  0  0  0  0  0  0  0
   62.6830   34.0660   49.8660 C   0  0  0  0  0  0  0  0  0  0  0  0
   63.8280   33.3000   49.7870 C   0  0  0  0  0  0  0  0  0  0  0  0
   64.0950   32.7060   48.5740 C   0  0  0  0  0  0  0  0  0  0  0  0
   63.2820   32.8510   47.4750 C   0  0  0  0  0  0  0  0  0  0  0  0
   59.0820   33.5660   47.5610 C   0  0  0  0  0  0  0  0  0  0  0  0
   58.6140   32.4000   46.7530 C   0  0  0  0  0  0  0  0  0  0  0  0
   57.1400   28.8640   44.8570 C   0  0  0  0  0  0  0  0  0  0  0  0
   57.4200   27.5410   45.1610 C   0  0  0  0  0  0  0  0  0  0  0  0
   56.9150   25.0880   45.6930 H   0  0  0  0  0  0  0  0  0  0  0  0
   58.8253   22.9233   45.4771 H   0  0  0  0  0  0  0  0  0  0  0  0
   58.4467   23.2689   47.2180 H   0  0  0  0  0  0  0  0  0  0  0  0
   56.8870   21.6510   46.6864 H   0  0  0  0  0  0  0  0  0  0  0  0
   55.9728   23.1706   46.4263 H   0  0  0  0  0  0  0  0  0  0  0  0
   56.4496   19.9722   44.6394 H   0  0  0  0  0  0  0  0  0  0  0  0
   56.2390   22.8830   41.5730 H   0  0  0  0  0  0  0  0  0  0  0  0
   56.6160   24.2017   43.7262 H   0  0  0  0  0  0  0  0  0  0  0  0
   60.7161   27.7569   45.7244 H   0  0  0  0  0  0  0  0  0  0  0  0
   60.2508   30.1209   45.1889 H   0  0  0  0  0  0  0  0  0  0  0  0
   58.7254   33.9392   43.8019 H   0  0  0  0  0  0  0  0  0  0  0  0
   57.3979   34.0675   45.0596 H   0  0  0  0  0  0  0  0  0  0  0  0
   59.9127   35.4376   44.8724 H   0  0  0  0  0  0  0  0  0  0  0  0
   58.4680   35.6913   45.9548 H   0  0  0  0  0  0  0  0  0  0  0  0
   60.2985   35.3317   47.3679 H   0  0  0  0  0  0  0  0  0  0  0  0
   61.0201   32.7772   45.9487 H   0  0  0  0  0  0  0  0  0  0  0  0
   61.7823   34.3634   45.5920 H   0  0  0  0  0  0  0  0  0  0  0  0
   60.9617   34.8321   48.8588 H   0  0  0  0  0  0  0  0  0  0  0  0
   62.4204   34.5618   50.8121 H   0  0  0  0  0  0  0  0  0  0  0  0
   64.4954   33.1702   50.6517 H   0  0  0  0  0  0  0  0  0  0  0  0
   64.9997   32.0874   48.4800 H   0  0  0  0  0  0  0  0  0  0  0  0
   63.5469   32.3537   46.5302 H   0  0  0  0  0  0  0  0  0  0  0  0
   59.6371   33.1949   48.4352 H   0  0  0  0  0  0  0  0  0  0  0  0
   58.2002   34.1450   47.8728 H   0  0  0  0  0  0  0  0  0  0  0  0
   59.1969   31.5165   47.0524 H   0  0  0  0  0  0  0  0  0  0  0  0
   57.5381   32.2883   46.9528 H   0  0  0  0  0  0  0  0  0  0  0  0
   56.1105   29.1630   44.6106 H   0  0  0  0  0  0  0  0  0  0  0  0
   56.5977   26.8105   45.1481 H   0  0  0  0  0  0  0  0  0  0  0  0
  1  2  2  0
  2  3  1  0
  3  4  1  0
  4  5  1  0
  5  6  1  0
  6  7  1  0
  7  8  2  0
  8  9  1  0
  9 10  1  0
  2 11  1  0
 11 12  2  0
 12 13  1  0
 13 14  2  0
 14 15  1  0
 15 16  2  0
 15 17  2  0
 15 18  1  0
 18 19  1  0
 19 20  1  0
 20 21  1  0
 21 22  1  0
 22 23  1  0
 23 24  2  0
 24 25  1  0
 25 26  2  0
 26 27  1  0
 27 28  2  0
 21 29  1  0
 29 30  1  0
 14 31  1  0
 31 32  2  0
 10  6  2  0
 32 11  1  0
 30 18  1  0
 28 23  1  0
  3 33  1  0
  4 34  1  0
  4 35  1  0
  5 36  1  0
  5 37  1  0
  7 38  1  0
  9 39  1  0
 10 40  1  0
 12 41  1  0
 13 42  1  0
 19 43  1  0
 19 44  1  0
 20 45  1  0
 20 46  1  0
 21 47  1  0
 22 48  1  0
 22 49  1  0
 24 50  1  0
 25 51  1  0
 26 52  1  0
 27 53  1  0
 28 54  1  0
 29 55  1  0
 29 56  1  0
 30 57  1  0
 30 58  1  0
 31 59  1  0
 32 60  1  0
M  END
>  <smiles>  (24) 
O=C(NCCc1cn[nH]c1)c1ccc(S(=O)(=O)N2CCC(Cc3ccccc3)CC2)cc1

>  <score_type>  (24) 
oracle

>  <origin>  (24) 
adg

>  <m_score__min__energy>  (24) 
-11.300000000000001

>  <m_primary>  (24) 
energy

$$$$
24:0
     RDKit          3D

 56 60  0  0  0  0  0  0  0  0999 V2000
   56.5554   21.5797   45.0535 H   0  0  0  0  0  0  0  0  0  0  0  0
   56.1160   22.5700   45.2440 C   0  0  0  0  0  0  0  0  0  0  0  0
   56.7350   23.4370   46.0890 N   0  0  0  0  0  0  0  0  0  0  0  0
   56.2270   24.6760   46.3560 C   0  0  0  0  0  0  0  0  0  0  0  0
   56.8390   25.4970   47.1600 N   0  0  0  0  0  0  0  0  0  0  0  0
   58.2410   25.8090   47.1720 C   0  0  0  0  0  0  0  0  0  0  0  0
   58.8860   25.8870   48.2540 O   0  0  0  0  0  0  0  0  0  0  0  0
   58.9580   26.0000   45.8730 C   0  0  0  0  0  0  0  0  0  0  0  0
   60.0397   25.8775   46.0308 H   0  0  0  0  0  0  0  0  0  0  0  0
   58.6039   25.2526   45.1477 H   0  0  0  0  0  0  0  0  0  0  0  0
   58.6830   27.3810   45.3410 C   0  0  0  0  0  0  0  0  0  0  0  0
   57.3760   27.7370   44.9730 C   0  0  0  0  0  0  0  0  0  0  0  0
   56.5711   26.9890   45.0236 H   0  0  0  0  0  0  0  0  0  0  0  0
   57.0910   29.0350   44.5430 C   0  0  0  0  0  0  0  0  0  0  0  0
   56.0663   29.3004   44.2439 H   0  0  0  0  0  0  0  0  0  0  0  0
   58.1080   30.0030   44.4910 C   0  0  0  0  0  0  0  0  0  0  0  0
   57.8520   31.3180   44.0790 O   0  0  0  0  0  0  0  0  0  0  0  0
   58.0770   32.4620   44.8590 C   0  0  0  0  0  0  0  0  0  0  0  0
   57.1230   33.4270   44.9010 N   0  0  0  0  0  0  0  0  0  0  0  0
   57.3000   34.5620   45.6250 C   0  0  0  0  0  0  0  0  0  0  0  0
   56.5109   35.3281   45.6448 H   0  0  0  0  0  0  0  0  0  0  0  0
   58.4500   34.7550   46.3260 N   0  0  0  0  0  0  0  0  0  0  0  0
   58.5550   35.6300   46.8850 H   0  0  0  0  0  0  0  0  0  0  0  0
   59.4430   33.8210   46.3150 C   0  0  0  0  0  0  0  0  0  0  0  0
   60.6660   34.0500   47.0390 N   0  0  0  0  0  0  0  0  0  0  0  0
   60.6340   34.3660   48.4760 C   0  0  0  0  0  0  0  0  0  0  0  0
   61.1020   35.3471   48.6443 H   0  0  0  0  0  0  0  0  0  0  0  0
   59.5891   34.3892   48.8189 H   0  0  0  0  0  0  0  0  0  0  0  0
   61.3990   33.2970   49.2610 C   0  0  0  0  0  0  0  0  0  0  0  0
   61.5541   33.6458   50.2927 H   0  0  0  0  0  0  0  0  0  0  0  0
   60.8132   32.3660   49.2622 H   0  0  0  0  0  0  0  0  0  0  0  0
   62.7670   33.0280   48.6040 C   0  0  0  0  0  0  0  0  0  0  0  0
   63.1380   33.8170   47.3350 C   0  0  0  0  0  0  0  0  0  0  0  0
   63.3942   34.8505   47.6110 H   0  0  0  0  0  0  0  0  0  0  0  0
   63.9995   33.3347   46.8501 H   0  0  0  0  0  0  0  0  0  0  0  0
   61.9530   33.8310   46.3570 C   0  0  0  0  0  0  0  0  0  0  0  0
   62.1075   34.6383   45.6260 H   0  0  0  0  0  0  0  0  0  0  0  0
   61.9103   32.8471   45.8670 H   0  0  0  0  0  0  0  0  0  0  0  0
   63.2830   31.5950   48.6880 C   0  0  0  0  0  0  0  0  0  0  0  0
   62.6679   30.8159   49.1619 H   0  0  0  0  0  0  0  0  0  0  0  0
   63.6555   30.8586   47.9607 H   0  0  0  0  0  0  0  0  0  0  0  0
   63.9200   32.6840   49.5390 C   0  0  0  0  0  0  0  0  0  0  0  0
   63.7655   32.6914   50.6281 H   0  0  0  0  0  0  0  0  0  0  0  0
   64.9439   33.0600   49.6812 H   0  0  0  0  0  0  0  0  0  0  0  0
   59.2750   32.6540   45.5590 C   0  0  0  0  0  0  0  0  0  0  0  0
   60.0732   31.8983   45.5155 H   0  0  0  0  0  0  0  0  0  0  0  0
   59.4160   29.6430   44.8330 C   0  0  0  0  0  0  0  0  0  0  0  0
   60.2240   30.3856   44.7576 H   0  0  0  0  0  0  0  0  0  0  0  0
   59.7040   28.3460   45.2700 C   0  0  0  0  0  0  0  0  0  0  0  0
   60.9740   28.0390   45.6380 F   0  0  0  0  0  0  0  0  0  0  0  0
   55.0300   25.0740   45.7410 C   0  0  0  0  0  0  0  0  0  0  0  0
   54.4870   26.3300   45.9910 O   0  0  0  0  0  0  0  0  0  0  0  0
   54.3790   24.1960   44.8710 C   0  0  0  0  0  0  0  0  0  0  0  0
   53.4388   24.4974   44.3860 H   0  0  0  0  0  0  0  0  0  0  0  0
   54.9230   22.9360   44.6180 C   0  0  0  0  0  0  0  0  0  0  0  0
   54.4176   22.2392   43.9332 H   0  0  0  0  0  0  0  0  0  0  0  0
  1  2  1  0
  2  3  1  0
  3  4  1  0
  4  5  2  0
  5  6  1  0
  6  7  2  0
  6  8  1  0
  8  9  1  0
  8 10  1  0
  8 11  1  0
 11 12  2  0
 12 13  1  0
 12 14  1  0
 14 15  1  0
 14 16  2  0
 16 17  1  0
 17 18  1  0
 18 19  2  0
 19 20  1  0
 20 21  1  0
 20 22  2  0
 22 23  1  0
 22 24  1  0
 24 25  1  0
 25 26  1  0
 26 27  1  0
 26 28  1  0
 26 29  1  0
 29 30  1  0
 29 31  1  0
 29 32  1  0
 32 33  1  0
 33 34  1  0
 33 35  1  0
 33 36  1  0
 36 37  1  0
 36 38  1  0
 32 39  1  0
 39 40  1  0
 39 41  1  0
 39 42  1  0
 42 43  1  0
 42 44  1  0
 24 45  2  0
 45 46  1  0
 16 47  1  0
 47 48  1  0
 47 49  2  0
 49 50  1  0
  4 51  1  0
 51 52  1  0
 51 53  2  0
 53 54  1  0
 53 55  1  0
 55 56  1  0
 55  2  2  0
 49 11  1  0
 45 18  1  0
 36 25  1  0
 42 32  1  0
M  CHG  3   3  -1  22   1  52  -1
M  END
>  <UniqueID>  (25) 
22

>  <SMILES>  (25) 
O=C(Cc1ccc(Oc2cc(N3CCC4(CC3)CC4)[nH+]cn2)cc1F)/N=c1\[n-]cccc1[O-]

>  <Energy>  (25) 
340.4102620111464

>  <Genealogy>  (25) 
O=C(Cc1ccc(Oc2cc(N3CCC4(CC3)CC4)[nH+]cn2)cc1F)N=c1[n-]cccc1[O-] (protonated)
O=C(Cc1ccc(Oc2cc(N3CCC4(CC3)CC4)[nH+]cn2)cc1F)/N=c1\[n-]cccc1[O-] (cis-trans isomerization)
O=C(Cc1ccc(Oc2cc(N3CCC4(CC3)CC4)[nH+]cn2)cc1F)/N=c1\[n-]cccc1[O-] (3D coordinates assigned)
O=C(Cc1ccc(Oc2cc(N3CCC4(CC3)CC4)[nH+]cn2)cc1F)/N=c1\[n-]cccc1[O-] (nonaromatic ring conformer: 340.4102620111464 kcal/mol)

>  <smiles>  (25) 
O=C(Cc1ccc(Oc2cc(N3CCC4(CC3)CC4)ncn2)cc1F)N=c1[nH]cccc1O

>  <score_type>  (25) 
oracle

>  <origin>  (25) 
adg

>  <m_score__min__energy>  (25) 
-13.91

>  <m_primary>  (25) 
energy

$$$$
25:0
     RDKit          3D

 39 41  0  0  0  0  0  0  0  0999 V2000
   58.4035   30.7627   49.8089 H   0  0  0  0  0  0  0  0  0  0  0  0
   59.0540   30.4030   48.9980 C   0  0  0  0  0  0  0  0  0  0  0  0
   59.3628   31.0889   48.1954 H   0  0  0  0  0  0  0  0  0  0  0  0
   59.4690   29.1330   48.9880 C   0  0  0  0  0  0  0  0  0  0  0  0
   59.1531   28.4573   49.7965 H   0  0  0  0  0  0  0  0  0  0  0  0
   60.3590   28.6070   47.8950 C   0  0  0  0  0  0  0  0  0  0  0  0
   60.6963   29.4466   47.2695 H   0  0  0  0  0  0  0  0  0  0  0  0
   61.2207   28.1014   48.3553 H   0  0  0  0  0  0  0  0  0  0  0  0
   56.7180   30.4560   44.8640 N   0  0  0  0  0  0  0  0  0  0  0  0
   57.0030   29.2980   45.3830 C   0  0  0  0  0  0  0  0  0  0  0  0
   56.0570   28.3250   45.3880 N   0  0  0  0  0  0  0  0  0  0  0  0
   56.3180   27.1090   45.9380 C   0  0  0  0  0  0  0  0  0  0  0  0
   55.4160   26.1710   45.9670 N   0  0  0  0  0  0  0  0  0  0  0  0
   55.5330   24.8430   45.4300 C   0  0  0  0  0  0  0  0  0  0  0  0
   54.6400   23.8110   45.7840 C   0  0  0  0  0  0  0  0  0  0  0  0
   53.8398   24.0048   46.5135 H   0  0  0  0  0  0  0  0  0  0  0  0
   54.7680   22.5420   45.2110 C   0  0  0  0  0  0  0  0  0  0  0  0
   54.0799   21.7352   45.5037 H   0  0  0  0  0  0  0  0  0  0  0  0
   55.7700   22.2970   44.2660 C   0  0  0  0  0  0  0  0  0  0  0  0
   55.8950   21.0350   43.6980 O   0  0  0  0  0  0  0  0  0  0  0  0
   56.6390   23.3240   43.8890 C   0  0  0  0  0  0  0  0  0  0  0  0
   57.4235   23.1329   43.1420 H   0  0  0  0  0  0  0  0  0  0  0  0
   56.5130   24.5950   44.4600 C   0  0  0  0  0  0  0  0  0  0  0  0
   57.1877   25.4048   44.1453 H   0  0  0  0  0  0  0  0  0  0  0  0
   57.5270   26.8800   46.5090 N   0  0  0  0  0  0  0  0  0  0  0  0
   58.4790   27.8510   46.5190 C   0  0  0  0  0  0  0  0  0  0  0  0
   59.6430   27.6440   47.0590 N   0  0  0  0  0  0  0  0  0  0  0  0
   57.4570   31.6790   45.0240 C   0  0  0  0  0  0  0  0  0  0  0  0
   57.7810   32.1030   46.3200 C   0  0  0  0  0  0  0  0  0  0  0  0
   57.4927   31.4871   47.1846 H   0  0  0  0  0  0  0  0  0  0  0  0
   58.4690   33.3050   46.5210 C   0  0  0  0  0  0  0  0  0  0  0  0
   58.7338   33.6228   47.5403 H   0  0  0  0  0  0  0  0  0  0  0  0
   58.8200   34.1020   45.4280 C   0  0  0  0  0  0  0  0  0  0  0  0
   59.5040   35.2940   45.6290 O   0  0  0  0  0  0  0  0  0  0  0  0
   58.4730   33.7030   44.1340 C   0  0  0  0  0  0  0  0  0  0  0  0
   58.7418   34.3345   43.2744 H   0  0  0  0  0  0  0  0  0  0  0  0
   57.7850   32.5030   43.9300 C   0  0  0  0  0  0  0  0  0  0  0  0
   57.4989   32.2015   42.9115 H   0  0  0  0  0  0  0  0  0  0  0  0
   58.2120   29.0570   45.9580 N   0  0  0  0  0  0  0  0  0  0  0  0
  1  2  1  0
  2  3  1  0
  2  4  2  0
  4  5  1  0
  4  6  1  0
  6  7  1  0
  6  8  1  0
  6  9  1  0
  9 10  2  0
 10 11  1  0
 11 12  1  0
 12 13  2  3
 13 14  1  0
 14 15  2  0
 15 16  1  0
 15 17  1  0
 17 18  1  0
 17 19  2  0
 19 20  1  0
 19 21  1  0
 21 22  1  0
 21 23  2  0
 23 24  1  0
 12 25  1  0
 25 26  1  0
 26 27  2  0
 27 28  1  0
 28 29  2  0
 29 30  1  0
 29 31  1  0
 31 32  1  0
 31 33  2  0
 33 34  1  0
 33 35  1  0
 35 36  1  0
 35 37  2  0
 37 38  1  0
 26 39  1  0
 39 10  1  0
 23 14  1  0
 37 28  1  0
M  CHG  5  11  -1  20  -1  25  -1  34  -1  39  -1
M  END
>  <UniqueID>  (26) 
23

>  <SMILES>  (26) 
C=CC/N=c1\[n-]c(=Nc2ccc([O-])cc2)[n-]/c(=N/c2ccc([O-])cc2)[n-]1

>  <Energy>  (26) 
51.772716459309706

>  <Genealogy>  (26) 
C=CCN=c1[n-]c(=Nc2ccc([O-])cc2)[n-]c(=Nc2ccc([O-])cc2)[n-]1 (protonated)
C=CC/N=c1\[n-]c(=Nc2ccc([O-])cc2)[n-]/c(=N/c2ccc([O-])cc2)[n-]1 (cis-trans isomerization)
C=CC/N=c1\[n-]c(=Nc2ccc([O-])cc2)[n-]/c(=N/c2ccc([O-])cc2)[n-]1 (3D coordinates assigned)
C=CC/N=c1\[n-]c(=Nc2ccc([O-])cc2)[n-]/c(=N/c2ccc([O-])cc2)[n-]1 (optimized conformer: 51.772716459309706 kcal/mol)

>  <smiles>  (26) 
C=CCN=c1[nH]c(=Nc2ccc(O)cc2)[nH]c(=Nc2ccc(O)cc2)[nH]1

>  <score_type>  (26) 
oracle

>  <origin>  (26) 
adg

>  <m_score__min__energy>  (26) 
-14.41

>  <m_primary>  (26) 
energy

$$$$
26:0
     RDKit          3D

 21 22  0  0  0  0  0  0  0  0999 V2000
   58.1320   26.8020   42.5770 C   0  0  0  0  0  0  0  0  0  0  0  0
   57.7990   27.4910   43.6750 C   0  0  0  0  0  0  0  0  0  0  0  0
   57.8180   28.8560   43.6760 N   0  0  0  0  0  0  0  0  0  0  0  0
   57.4590   29.3760   44.8660 C   0  0  0  0  0  0  0  0  0  0  0  0
   57.4050   30.6120   45.0930 O   0  0  0  0  0  0  0  0  0  0  0  0
   57.0950   28.1880   45.9880 S   0  0  0  0  0  0  0  0  0  0  0  0
   57.4150   26.9200   44.9100 C   0  0  0  0  0  0  0  0  0  0  0  0
   57.2750   25.6120   45.1940 C   0  0  0  0  0  0  0  0  0  0  0  0
   55.9790   24.9010   45.1140 C   0  0  0  0  0  0  0  0  0  0  0  0
   54.7970   25.4630   45.6240 C   0  0  0  0  0  0  0  0  0  0  0  0
   54.8060   26.7160   46.2260 O   0  0  0  0  0  0  0  0  0  0  0  0
   53.6300   24.7700   45.5510 N   0  0  0  0  0  0  0  0  0  0  0  0
   53.5860   23.5280   45.0060 C   0  0  0  0  0  0  0  0  0  0  0  0
   52.4940   22.9070   44.9450 O   0  0  0  0  0  0  0  0  0  0  0  0
   54.7210   22.9520   44.5320 N   0  0  0  0  0  0  0  0  0  0  0  0
   55.9120   23.6030   44.5820 C   0  0  0  0  0  0  0  0  0  0  0  0
   56.9440   23.0360   44.1350 O   0  0  0  0  0  0  0  0  0  0  0  0
   58.1122   25.7023   42.5907 H   0  0  0  0  0  0  0  0  0  0  0  0
   58.4255   27.3354   41.6609 H   0  0  0  0  0  0  0  0  0  0  0  0
   58.0800   29.4430   42.8520 H   0  0  0  0  0  0  0  0  0  0  0  0
   58.1660   25.0442   45.5002 H   0  0  0  0  0  0  0  0  0  0  0  0
  1  2  2  0
  2  3  1  0
  3  4  1  0
  4  5  2  0
  4  6  1  0
  6  7  1  0
  7  8  2  3
  8  9  1  0
  9 10  2  0
 10 11  1  0
 10 12  1  0
 12 13  1  0
 13 14  2  0
 13 15  1  0
 15 16  1  0
 16 17  2  0
  7  2  1  0
 16  9  1  0
  1 18  1  0
  1 19  1  0
  3 20  1  0
  8 21  1  0
M  CHG  3  11  -1  12  -1  15  -1
M  END
>  <UniqueID>  (27) 
24

>  <SMILES>  (27) 
C=c1[nH]c(=O)sc1=Cc1c([O-])[n-]c(=O)[n-]c1=O

>  <Energy>  (27) 
64.60977098059286

>  <Genealogy>  (27) 
C=c1[nH]c(=O)sc1=Cc1c([O-])[n-]c(=O)[n-]c1=O (protonated)
C=c1[nH]c(=O)sc1=Cc1c([O-])[n-]c(=O)[n-]c1=O (3D coordinates assigned)
C=c1[nH]c(=O)sc1=Cc1c([O-])[n-]c(=O)[n-]c1=O (optimized conformer: 64.60977098059286 kcal/mol)

>  <smiles>  (27) 
C=c1[nH]c(=O)sc1=Cc1c(O)[nH]c(=O)[nH]c1=O

>  <score_type>  (27) 
oracle

>  <origin>  (27) 
adg

>  <m_score__min__energy>  (27) 
-13.93

>  <m_primary>  (27) 
energy

$$$$
27:0
     RDKit          3D

 57 60  0  0  0  0  0  0  0  0999 V2000
   58.5670   29.8550   44.6080 C   0  0  0  0  0  0  0  0  0  0  0  0
   58.6410   29.4860   45.8970 C   0  0  0  0  0  0  0  0  0  0  0  0
   58.3440   28.2210   46.4170 C   0  0  0  0  0  0  0  0  0  0  0  0
   57.9470   27.1300   45.7330 C   0  0  0  0  0  0  0  0  0  0  0  0
   57.2320   25.9910   46.3390 C   0  0  0  0  0  0  0  0  0  0  0  0
   57.8510   24.8790   46.7720 N   0  0  0  0  0  0  0  0  0  0  0  0
   56.8310   24.0840   47.1620 C   0  0  0  0  0  0  0  0  0  0  0  0
   57.0120   22.9370   47.6480 O   0  0  0  0  0  0  0  0  0  0  0  0
   55.6000   24.6100   46.9800 N   0  0  0  0  0  0  0  0  0  0  0  0
   55.8700   25.8120   46.4460 C   0  0  0  0  0  0  0  0  0  0  0  0
   54.8900   26.7020   46.0250 O   0  0  0  0  0  0  0  0  0  0  0  0
   58.6040   28.2890   47.7790 C   0  0  0  0  0  0  0  0  0  0  0  0
   59.0230   29.5780   48.0390 C   0  0  0  0  0  0  0  0  0  0  0  0
   59.4360   30.0810   49.3890 C   0  0  0  0  0  0  0  0  0  0  0  0
   59.0520   30.3040   46.8990 N   0  0  0  0  0  0  0  0  0  0  0  0
   59.4420   31.6850   46.7910 C   0  0  0  0  0  0  0  0  0  0  0  0
   58.4810   32.6690   46.5290 C   0  0  0  0  0  0  0  0  0  0  0  0
   58.8570   34.0100   46.4430 C   0  0  0  0  0  0  0  0  0  0  0  0
   60.1940   34.3780   46.6170 C   0  0  0  0  0  0  0  0  0  0  0  0
   61.1760   33.4030   46.8740 C   0  0  0  0  0  0  0  0  0  0  0  0
   62.6050   33.7660   47.0740 C   0  0  0  0  0  0  0  0  0  0  0  0
   63.3900   33.6990   46.0870 O   0  0  0  0  0  0  0  0  0  0  0  0
   63.1210   34.1680   48.3700 N   0  0  0  0  0  0  0  0  0  0  0  0
   62.0520   34.0450   49.3930 C   0  0  0  0  0  0  0  0  0  0  0  0
   62.6440   33.9050   50.8030 C   0  0  0  0  0  0  0  0  0  0  0  0
   63.4750   32.6800   50.9430 N   0  0  0  0  0  0  0  0  0  0  0  0
   62.7230   31.5920   51.6040 C   0  0  0  0  0  0  0  0  0  0  0  0
   63.5090   30.2750   51.5940 C   0  0  0  0  0  0  0  0  0  0  0  0
   64.8530   30.5090   51.9180 O   0  0  0  0  0  0  0  0  0  0  0  0
   64.0720   32.2300   49.6580 C   0  0  0  0  0  0  0  0  0  0  0  0
   64.3560   33.4110   48.7160 C   0  0  0  0  0  0  0  0  0  0  0  0
   60.7830   32.0550   46.9690 C   0  0  0  0  0  0  0  0  0  0  0  0
   58.8265   30.8828   44.3144 H   0  0  0  0  0  0  0  0  0  0  0  0
   58.2469   29.1294   43.8457 H   0  0  0  0  0  0  0  0  0  0  0  0
   58.1698   27.0861   44.6567 H   0  0  0  0  0  0  0  0  0  0  0  0
   58.4968   27.4735   48.5094 H   0  0  0  0  0  0  0  0  0  0  0  0
   58.9442   29.4821   50.1697 H   0  0  0  0  0  0  0  0  0  0  0  0
   60.5276   29.9951   49.4941 H   0  0  0  0  0  0  0  0  0  0  0  0
   59.1393   31.1350   49.4941 H   0  0  0  0  0  0  0  0  0  0  0  0
   57.4275   32.3844   46.3907 H   0  0  0  0  0  0  0  0  0  0  0  0
   58.0987   34.7799   46.2376 H   0  0  0  0  0  0  0  0  0  0  0  0
   60.4811   35.4379   46.5526 H   0  0  0  0  0  0  0  0  0  0  0  0
   63.4060   35.1740   48.3220 H   0  0  0  0  0  0  0  0  0  0  0  0
   61.4174   34.9428   49.3581 H   0  0  0  0  0  0  0  0  0  0  0  0
   61.4619   33.1432   49.1726 H   0  0  0  0  0  0  0  0  0  0  0  0
   63.2706   34.7843   51.0133 H   0  0  0  0  0  0  0  0  0  0  0  0
   61.8086   33.8300   51.5146 H   0  0  0  0  0  0  0  0  0  0  0  0
   62.5216   31.8795   52.6465 H   0  0  0  0  0  0  0  0  0  0  0  0
   61.7849   31.4369   51.0508 H   0  0  0  0  0  0  0  0  0  0  0  0
   63.0723   29.5860   52.3319 H   0  0  0  0  0  0  0  0  0  0  0  0
   63.4547   29.8330   50.5882 H   0  0  0  0  0  0  0  0  0  0  0  0
   64.9700   31.4950   51.9500 H   0  0  0  0  0  0  0  0  0  0  0  0
   65.0166   31.7070   49.8681 H   0  0  0  0  0  0  0  0  0  0  0  0
   63.3523   31.5623   49.1619 H   0  0  0  0  0  0  0  0  0  0  0  0
   65.0633   34.0943   49.2088 H   0  0  0  0  0  0  0  0  0  0  0  0
   64.7737   33.0043   47.7832 H   0  0  0  0  0  0  0  0  0  0  0  0
   61.5361   31.2829   47.1853 H   0  0  0  0  0  0  0  0  0  0  0  0
  1  2  2  0
  2  3  1  0
  3  4  2  3
  4  5  1  0
  5  6  1  0
  6  7  1  0
  7  8  2  0
  7  9  1  0
  9 10  1  0
 10 11  1  0
  3 12  1  0
 12 13  2  0
 13 14  1  0
 13 15  1  0
 15 16  1  0
 16 17  2  0
 17 18  1  0
 18 19  2  0
 19 20  1  0
 20 21  1  0
 21 22  2  0
 21 23  1  0
 23 24  1  0
 24 25  1  0
 25 26  1  0
 26 27  1  0
 27 28  1  0
 28 29  1  0
 26 30  1  0
 30 31  1  0
 20 32  2  0
 15  2  1  0
 32 16  1  0
 10  5  2  0
 31 23  1  0
  1 33  1  0
  1 34  1  0
  4 35  1  0
 12 36  1  0
 14 37  1  0
 14 38  1  0
 14 39  1  0
 17 40  1  0
 18 41  1  0
 19 42  1  0
 23 43  1  0
 24 44  1  0
 24 45  1  0
 25 46  1  0
 25 47  1  0
 27 48  1  0
 27 49  1  0
 28 50  1  0
 28 51  1  0
 29 52  1  0
 30 53  1  0
 30 54  1  0
 31 55  1  0
 31 56  1  0
 32 57  1  0
M  CHG  4   6  -1   9  -1  11  -1  23   1
M  END
>  <UniqueID>  (28) 
25

>  <SMILES>  (28) 
C=c1c(=Cc2[n-]c(=O)[n-]c2[O-])cc(C)n1-c1cccc(C(=O)[NH+]2CCN(CCO)CC2)c1

>  <Energy>  (28) 
147.28837607299954

>  <Genealogy>  (28) 
C=c1c(=Cc2[n-]c(=O)[n-]c2[O-])cc(C)n1-c1cccc(C(=O)[NH+]2CCN(CCO)CC2)c1 (protonated)
C=c1c(=Cc2[n-]c(=O)[n-]c2[O-])cc(C)n1-c1cccc(C(=O)[NH+]2CCN(CCO)CC2)c1 (3D coordinates assigned)
C=c1c(=Cc2[n-]c(=O)[n-]c2[O-])cc(C)n1-c1cccc(C(=O)[NH+]2CCN(CCO)CC2)c1 (nonaromatic ring conformer: 147.28837607299954 kcal/mol)

>  <smiles>  (28) 
C=c1c(=Cc2[nH]c(=O)[nH]c2O)cc(C)n1-c1cccc(C(=O)N2CCN(CCO)CC2)c1

>  <score_type>  (28) 
oracle

>  <origin>  (28) 
adg

>  <m_score__min__energy>  (28) 
-14.960000000000001

>  <m_primary>  (28) 
energy

$$$$
28:0
     RDKit          3D

 44 46  0  0  0  0  0  0  0  0999 V2000
   57.9550   31.3040   46.9940 O   0  0  0  0  0  0  0  0  0  0  0  0
   59.0450   31.0260   47.5630 C   0  0  0  0  0  0  0  0  0  0  0  0
   59.7930   29.8290   47.1220 C   0  0  0  0  0  0  0  0  0  0  0  0
   59.4510   29.0390   46.0920 C   0  0  0  0  0  0  0  0  0  0  0  0
   58.2300   28.2070   46.0490 C   0  0  0  0  0  0  0  0  0  0  0  0
   57.0390   28.7280   45.5210 C   0  0  0  0  0  0  0  0  0  0  0  0
   56.9990   30.0260   45.0180 O   0  0  0  0  0  0  0  0  0  0  0  0
   55.9110   27.9700   45.5130 N   0  0  0  0  0  0  0  0  0  0  0  0
   55.9160   26.7030   46.0000 C   0  0  0  0  0  0  0  0  0  0  0  0
   54.8580   26.0210   45.9860 O   0  0  0  0  0  0  0  0  0  0  0  0
   57.0630   26.1680   46.4960 N   0  0  0  0  0  0  0  0  0  0  0  0
   58.2160   26.8860   46.5280 C   0  0  0  0  0  0  0  0  0  0  0  0
   59.2650   26.3550   46.9820 O   0  0  0  0  0  0  0  0  0  0  0  0
   59.4890   31.7970   48.6880 N   0  0  0  0  0  0  0  0  0  0  0  0
   58.8550   31.9220   49.9690 C   0  0  0  0  0  0  0  0  0  0  0  0
   58.9850   33.1340   50.6580 C   0  0  0  0  0  0  0  0  0  0  0  0
   58.3530   33.3190   51.8890 C   0  0  0  0  0  0  0  0  0  0  0  0
   57.5700   32.3010   52.4360 C   0  0  0  0  0  0  0  0  0  0  0  0
   57.3970   31.0980   51.7390 C   0  0  0  0  0  0  0  0  0  0  0  0
   56.5330   30.0470   52.3010 C   0  0  0  0  0  0  0  0  0  0  0  0
   56.9960   28.8840   52.4430 O   0  0  0  0  0  0  0  0  0  0  0  0
   55.1870   30.3150   52.7190 N   0  0  0  0  0  0  0  0  0  0  0  0
   54.0300   29.4620   52.4550 C   0  0  0  0  0  0  0  0  0  0  0  0
   53.0000   30.1960   51.6390 C   0  0  0  0  0  0  0  0  0  0  0  0
   52.6970   29.7680   50.3350 C   0  0  0  0  0  0  0  0  0  0  0  0
   51.7200   30.4300   49.5850 C   0  0  0  0  0  0  0  0  0  0  0  0
   51.0420   31.5240   50.1250 C   0  0  0  0  0  0  0  0  0  0  0  0
   51.3400   31.9600   51.4200 C   0  0  0  0  0  0  0  0  0  0  0  0
   50.6640   33.0470   51.9570 O   0  0  0  0  0  0  0  0  0  0  0  0
   52.3140   31.2990   52.1760 C   0  0  0  0  0  0  0  0  0  0  0  0
   58.0480   30.9050   50.5120 C   0  0  0  0  0  0  0  0  0  0  0  0
   60.7019   29.5650   47.6825 H   0  0  0  0  0  0  0  0  0  0  0  0
   60.1240   29.0088   45.2224 H   0  0  0  0  0  0  0  0  0  0  0  0
   57.4350   30.7950   45.5180 H   0  0  0  0  0  0  0  0  0  0  0  0
   59.5891   33.9457   50.2265 H   0  0  0  0  0  0  0  0  0  0  0  0
   58.4724   34.2696   52.4294 H   0  0  0  0  0  0  0  0  0  0  0  0
   57.0886   32.4434   53.4148 H   0  0  0  0  0  0  0  0  0  0  0  0
   54.3586   28.5694   51.9025 H   0  0  0  0  0  0  0  0  0  0  0  0
   53.5784   29.1731   53.4155 H   0  0  0  0  0  0  0  0  0  0  0  0
   53.2306   28.9087   49.9027 H   0  0  0  0  0  0  0  0  0  0  0  0
   51.4851   30.0876   48.5664 H   0  0  0  0  0  0  0  0  0  0  0  0
   50.2740   32.0428   49.5326 H   0  0  0  0  0  0  0  0  0  0  0  0
   52.5439   31.6439   53.1949 H   0  0  0  0  0  0  0  0  0  0  0  0
   57.9273   29.9545   49.9716 H   0  0  0  0  0  0  0  0  0  0  0  0
  1  2  2  0
  2  3  1  0
  3  4  2  3
  4  5  1  0
  5  6  2  0
  6  7  1  0
  6  8  1  0
  8  9  1  0
  9 10  2  0
  9 11  1  0
 11 12  1  0
 12 13  2  0
  2 14  1  0
 14 15  1  0
 15 16  2  0
 16 17  1  0
 17 18  2  0
 18 19  1  0
 19 20  1  0
 20 21  2  0
 20 22  1  0
 22 23  1  0
 23 24  1  0
 24 25  2  0
 25 26  1  0
 26 27  2  0
 27 28  1  0
 28 29  1  0
 28 30  2  0
 19 31  2  0
 12  5  1  0
 31 15  1  0
 30 24  1  0
  3 32  1  0
  4 33  1  0
  7 34  1  0
 16 35  1  0
 17 36  1  0
 18 37  1  0
 23 38  1  0
 23 39  1  0
 25 40  1  0
 26 41  1  0
 27 42  1  0
 30 43  1  0
 31 44  1  0
M  CHG  5   8  -1  11  -1  14  -1  22  -1  29  -1
M  END
>  <UniqueID>  (29) 
26

>  <SMILES>  (29) 
O=C(C=Cc1c(O)[n-]c(=O)[n-]c1=O)[N-]c1cccc(C(=O)[N-]Cc2cccc([O-])c2)c1

>  <Energy>  (29) 
60.10297180527889

>  <Genealogy>  (29) 
O=C(C=Cc1c(O)[n-]c(=O)[n-]c1=O)[N-]c1cccc(C(=O)[N-]Cc2cccc([O-])c2)c1 (protonated)
O=C(C=Cc1c(O)[n-]c(=O)[n-]c1=O)[N-]c1cccc(C(=O)[N-]Cc2cccc([O-])c2)c1 (3D coordinates assigned)
O=C(C=Cc1c(O)[n-]c(=O)[n-]c1=O)[N-]c1cccc(C(=O)[N-]Cc2cccc([O-])c2)c1 (optimized conformer: 60.10297180527889 kcal/mol)

>  <smiles>  (29) 
O=C(C=Cc1c(O)[nH]c(=O)[nH]c1=O)Nc1cccc(C(=O)NCc2cccc(O)c2)c1

>  <score_type>  (29) 
oracle

>  <origin>  (29) 
adg

>  <m_score__min__energy>  (29) 
-18.859999999999999

>  <m_primary>  (29) 
energy

$$$$
29:0
     RDKit          3D

 52 54  0  0  0  0  0  0  0  0999 V2000
   56.8590   24.7190   44.9030 C   0  0  0  0  0  0  0  0  0  0  0  0
   56.6170   25.5610   46.1520 C   0  0  0  0  0  0  0  0  0  0  0  0
   57.5530   26.7090   46.1800 N   0  0  0  0  0  0  0  0  0  0  0  0
   58.8510   26.3260   46.7780 C   0  0  0  0  0  0  0  0  0  0  0  0
   59.2650   27.3330   47.8210 C   0  0  0  0  0  0  0  0  0  0  0  0
   58.5290   28.5170   47.9890 C   0  0  0  0  0  0  0  0  0  0  0  0
   58.9100   29.4540   48.9560 C   0  0  0  0  0  0  0  0  0  0  0  0
   60.0320   29.2190   49.7540 C   0  0  0  0  0  0  0  0  0  0  0  0
   60.7760   28.0470   49.5870 C   0  0  0  0  0  0  0  0  0  0  0  0
   60.3960   27.1060   48.6240 C   0  0  0  0  0  0  0  0  0  0  0  0
   57.7430   27.2650   44.8220 C   0  0  0  0  0  0  0  0  0  0  0  0
   57.8070   28.7810   44.8610 C   0  0  0  0  0  0  0  0  0  0  0  0
   59.0300   29.4940   44.8750 C   0  0  0  0  0  0  0  0  0  0  0  0
   60.3630   28.8040   44.8670 C   0  0  0  0  0  0  0  0  0  0  0  0
   59.0130   30.8530   44.8940 N   0  0  0  0  0  0  0  0  0  0  0  0
   57.8480   31.5470   44.9130 C   0  0  0  0  0  0  0  0  0  0  0  0
   57.8750   33.3370   44.9450 S   0  0  0  0  0  0  0  0  0  0  0  0
   58.3440   33.4530   46.7070 C   0  0  0  0  0  0  0  0  0  0  0  0
   59.8080   33.1740   46.9050 C   0  0  0  0  0  0  0  0  0  0  0  0
   60.2320   31.9700   47.4910 C   0  0  0  0  0  0  0  0  0  0  0  0
   61.5940   31.7120   47.6630 C   0  0  0  0  0  0  0  0  0  0  0  0
   62.5450   32.6610   47.2680 C   0  0  0  0  0  0  0  0  0  0  0  0
   63.9050   32.4170   47.4380 O   0  0  0  0  0  0  0  0  0  0  0  0
   62.1270   33.8650   46.6940 C   0  0  0  0  0  0  0  0  0  0  0  0
   60.7660   34.1220   46.5100 C   0  0  0  0  0  0  0  0  0  0  0  0
   56.6640   30.8890   44.9030 N   0  0  0  0  0  0  0  0  0  0  0  0
   56.6150   29.5340   44.8720 C   0  0  0  0  0  0  0  0  0  0  0  0
   55.4920   28.9600   44.8520 O   0  0  0  0  0  0  0  0  0  0  0  0
   57.1517   23.7006   45.1984 H   0  0  0  0  0  0  0  0  0  0  0  0
   55.9367   24.6765   44.3050 H   0  0  0  0  0  0  0  0  0  0  0  0
   57.6631   25.1727   44.3050 H   0  0  0  0  0  0  0  0  0  0  0  0
   55.5825   25.9349   46.1442 H   0  0  0  0  0  0  0  0  0  0  0  0
   56.7828   24.9389   47.0439 H   0  0  0  0  0  0  0  0  0  0  0  0
   58.7560   25.3357   47.2474 H   0  0  0  0  0  0  0  0  0  0  0  0
   59.6144   26.2966   45.9866 H   0  0  0  0  0  0  0  0  0  0  0  0
   57.6489   28.7088   47.3576 H   0  0  0  0  0  0  0  0  0  0  0  0
   58.3254   30.3764   49.0878 H   0  0  0  0  0  0  0  0  0  0  0  0
   60.3304   29.9561   50.5140 H   0  0  0  0  0  0  0  0  0  0  0  0
   61.6614   27.8646   50.2137 H   0  0  0  0  0  0  0  0  0  0  0  0
   60.9843   26.1855   48.4949 H   0  0  0  0  0  0  0  0  0  0  0  0
   58.6820   26.8757   44.4017 H   0  0  0  0  0  0  0  0  0  0  0  0
   56.8887   26.9655   44.1971 H   0  0  0  0  0  0  0  0  0  0  0  0
   60.6935   28.6329   45.9021 H   0  0  0  0  0  0  0  0  0  0  0  0
   60.2733   27.8391   44.3465 H   0  0  0  0  0  0  0  0  0  0  0  0
   61.0990   29.4343   44.3465 H   0  0  0  0  0  0  0  0  0  0  0  0
   58.1206   34.4668   47.0707 H   0  0  0  0  0  0  0  0  0  0  0  0
   57.7695   32.7013   47.2681 H   0  0  0  0  0  0  0  0  0  0  0  0
   59.4885   31.2272   47.8158 H   0  0  0  0  0  0  0  0  0  0  0  0
   61.9203   30.7612   48.1097 H   0  0  0  0  0  0  0  0  0  0  0  0
   64.5060   32.2010   46.6530 H   0  0  0  0  0  0  0  0  0  0  0  0
   62.8724   34.6130   46.3860 H   0  0  0  0  0  0  0  0  0  0  0  0
   60.4438   35.0699   46.0543 H   0  0  0  0  0  0  0  0  0  0  0  0
  1  2  1  0
  2  3  1  0
  3  4  1  0
  4  5  1  0
  5  6  2  0
  6  7  1  0
  7  8  2  0
  8  9  1  0
  9 10  2  0
  3 11  1  0
 11 12  1  0
 12 13  2  0
 13 14  1  0
 13 15  1  0
 15 16  1  0
 16 17  1  0
 17 18  1  0
 18 19  1  0
 19 20  2  0
 20 21  1  0
 21 22  2  0
 22 23  1  0
 22 24  1  0
 24 25  2  0
 16 26  2  0
 26 27  1  0
 27 28  2  0
 10  5  1  0
 27 12  1  0
 25 19  1  0
  1 29  1  0
  1 30  1  0
  1 31  1  0
  2 32  1  0
  2 33  1  0
  4 34  1  0
  4 35  1  0
  6 36  1  0
  7 37  1  0
  8 38  1  0
  9 39  1  0
 10 40  1  0
 11 41  1  0
 11 42  1  0
 14 43  1  0
 14 44  1  0
 14 45  1  0
 18 46  1  0
 18 47  1  0
 20 48  1  0
 21 49  1  0
 23 50  1  0
 24 51  1  0
 25 52  1  0
M  CHG  1  15  -1
M  END
>  <UniqueID>  (30) 
27

>  <SMILES>  (30) 
CCN(Cc1ccccc1)Cc1c(C)[n-]c(SCc2ccc(O)cc2)nc1=O

>  <Energy>  (30) 
48.39386452805921

>  <Genealogy>  (30) 
CCN(Cc1ccccc1)Cc1c(C)[n-]c(SCc2ccc(O)cc2)nc1=O (protonated)
CCN(Cc1ccccc1)Cc1c(C)[n-]c(SCc2ccc(O)cc2)nc1=O (3D coordinates assigned)
CCN(Cc1ccccc1)Cc1c(C)[n-]c(SCc2ccc(O)cc2)nc1=O (optimized conformer: 48.39386452805921 kcal/mol)

>  <smiles>  (30) 
CCN(Cc1ccccc1)Cc1c(C)[nH]c(SCc2ccc(O)cc2)nc1=O

>  <score_type>  (30) 
oracle

>  <origin>  (30) 
adg

>  <m_score__min__energy>  (30) 
-11.07

>  <m_primary>  (30) 
energy

$$$$
30:0
     RDKit          3D

 30 31  0  0  0  0  0  0  0  0999 V2000
   56.9890   31.1980   42.9610 C   0  0  0  0  0  0  0  0  0  0  0  0
   56.4300   30.5430   44.2190 C   0  0  0  0  0  0  0  0  0  0  0  0
   57.3770   29.4900   44.7390 C   0  0  0  0  0  0  0  0  0  0  0  0
   58.7590   29.7300   44.7180 C   0  0  0  0  0  0  0  0  0  0  0  0
   59.6500   28.7640   45.1840 C   0  0  0  0  0  0  0  0  0  0  0  0
   59.1750   27.5400   45.6530 C   0  0  0  0  0  0  0  0  0  0  0  0
   57.8000   27.2590   45.6510 C   0  0  0  0  0  0  0  0  0  0  0  0
   57.3290   25.9430   46.1370 C   0  0  0  0  0  0  0  0  0  0  0  0
   58.0830   25.2520   46.8750 O   0  0  0  0  0  0  0  0  0  0  0  0
   56.0440   25.4310   45.7500 N   0  0  0  0  0  0  0  0  0  0  0  0
   55.4570   24.2470   46.3720 C   0  0  0  0  0  0  0  0  0  0  0  0
   54.1430   23.9330   45.7330 C   0  0  0  0  0  0  0  0  0  0  0  0
   53.6720   22.6800   45.5730 N   0  0  0  0  0  0  0  0  0  0  0  0
   52.4760   22.7930   45.0230 N   0  0  0  0  0  0  0  0  0  0  0  0
   52.2570   24.1110   44.8750 C   0  0  0  0  0  0  0  0  0  0  0  0
   51.2030   24.5830   44.3780 O   0  0  0  0  0  0  0  0  0  0  0  0
   53.2750   24.8750   45.3120 N   0  0  0  0  0  0  0  0  0  0  0  0
   56.8960   28.2480   45.2040 C   0  0  0  0  0  0  0  0  0  0  0  0
   55.5230   28.0150   45.2480 O   0  0  0  0  0  0  0  0  0  0  0  0
   57.6790   32.0065   43.2442 H   0  0  0  0  0  0  0  0  0  0  0  0
   57.5288   30.4470   42.3655 H   0  0  0  0  0  0  0  0  0  0  0  0
   56.1625   31.6131   42.3655 H   0  0  0  0  0  0  0  0  0  0  0  0
   56.2853   31.3118   44.9923 H   0  0  0  0  0  0  0  0  0  0  0  0
   55.4709   30.0644   43.9717 H   0  0  0  0  0  0  0  0  0  0  0  0
   59.1420   30.6860   44.3316 H   0  0  0  0  0  0  0  0  0  0  0  0
   60.7309   28.9682   45.1816 H   0  0  0  0  0  0  0  0  0  0  0  0
   59.8844   26.7876   46.0280 H   0  0  0  0  0  0  0  0  0  0  0  0
   55.5270   25.8830   44.9630 H   0  0  0  0  0  0  0  0  0  0  0  0
   56.1379   23.3926   46.2439 H   0  0  0  0  0  0  0  0  0  0  0  0
   55.3005   24.4416   47.4433 H   0  0  0  0  0  0  0  0  0  0  0  0
  1  2  1  0
  2  3  1  0
  3  4  2  0
  4  5  1  0
  5  6  2  0
  6  7  1  0
  7  8  1  0
  8  9  2  0
  8 10  1  0
 10 11  1  0
 11 12  1  0
 12 13  2  0
 13 14  1  0
 14 15  1  0
 15 16  2  0
 15 17  1  0
  7 18  2  0
 18 19  1  0
 18  3  1  0
 17 12  1  0
  1 20  1  0
  1 21  1  0
  1 22  1  0
  2 23  1  0
  2 24  1  0
  4 25  1  0
  5 26  1  0
  6 27  1  0
 10 28  1  0
 11 29  1  0
 11 30  1  0
M  CHG  3  14  -1  17  -1  19  -1
M  END
>  <UniqueID>  (31) 
28

>  <SMILES>  (31) 
CCc1cccc(C(=O)NCc2n[n-]c(=O)[n-]2)c1[O-]

>  <Energy>  (31) 
61.571623676217456

>  <Genealogy>  (31) 
CCc1cccc(C(=O)NCc2n[n-]c(=O)[n-]2)c1[O-] (protonated)
CCc1cccc(C(=O)NCc2n[n-]c(=O)[n-]2)c1[O-] (3D coordinates assigned)
CCc1cccc(C(=O)NCc2n[n-]c(=O)[n-]2)c1[O-] (optimized conformer: 61.571623676217456 kcal/mol)

>  <smiles>  (31) 
CCc1cccc(C(=O)NCc2n[nH]c(=O)[nH]2)c1O

>  <score_type>  (31) 
oracle

>  <origin>  (31) 
adg

>  <m_score__min__energy>  (31) 
-12.81

>  <m_primary>  (31) 
energy

$$$$
31:0
     RDKit          3D

 34 36  0  0  0  0  0  0  0  0999 V2000
   59.3506   33.4662   43.1632 H   0  0  0  0  0  0  0  0  0  0  0  0
   58.8440   33.6030   44.1300 C   0  0  0  0  0  0  0  0  0  0  0  0
   59.3090   34.5700   44.9380 C   0  0  0  0  0  0  0  0  0  0  0  0
   59.2072   35.6096   44.5934 H   0  0  0  0  0  0  0  0  0  0  0  0
   59.9470   34.3490   46.2540 C   0  0  0  0  0  0  0  0  0  0  0  0
   59.1930   34.5500   47.4200 C   0  0  0  0  0  0  0  0  0  0  0  0
   58.1406   34.8609   47.3442 H   0  0  0  0  0  0  0  0  0  0  0  0
   59.7730   34.3570   48.6790 C   0  0  0  0  0  0  0  0  0  0  0  0
   59.1827   34.5359   49.5898 H   0  0  0  0  0  0  0  0  0  0  0  0
   61.1020   33.9370   48.7790 C   0  0  0  0  0  0  0  0  0  0  0  0
   61.5596   33.7921   49.7688 H   0  0  0  0  0  0  0  0  0  0  0  0
   61.8500   33.7010   47.6230 C   0  0  0  0  0  0  0  0  0  0  0  0
   62.8916   33.3567   47.7035 H   0  0  0  0  0  0  0  0  0  0  0  0
   61.2760   33.9020   46.3630 C   0  0  0  0  0  0  0  0  0  0  0  0
   61.8660   33.7098   45.4548 H   0  0  0  0  0  0  0  0  0  0  0  0
   57.7070   32.7070   44.4330 C   0  0  0  0  0  0  0  0  0  0  0  0
   56.9536   32.5509   43.6469 H   0  0  0  0  0  0  0  0  0  0  0  0
   57.5370   32.0890   45.5700 N   0  0  0  0  0  0  0  0  0  0  0  0
   58.2720   30.9550   46.0660 C   0  0  0  0  0  0  0  0  0  0  0  0
   59.5310   31.1400   46.6640 C   0  0  0  0  0  0  0  0  0  0  0  0
   59.9589   32.1512   46.7304 H   0  0  0  0  0  0  0  0  0  0  0  0
   60.2430   30.0540   47.1740 C   0  0  0  0  0  0  0  0  0  0  0  0
   61.2214   30.2148   47.6503 H   0  0  0  0  0  0  0  0  0  0  0  0
   59.7190   28.7670   47.0820 C   0  0  0  0  0  0  0  0  0  0  0  0
   60.2773   27.9164   47.5001 H   0  0  0  0  0  0  0  0  0  0  0  0
   58.4860   28.5530   46.4600 C   0  0  0  0  0  0  0  0  0  0  0  0
   57.9920   27.2920   46.3760 N   0  0  0  0  0  0  0  0  0  0  0  0
   56.7990   27.0410   45.7820 C   0  0  0  0  0  0  0  0  0  0  0  0
   56.3670   25.8610   45.7250 O   0  0  0  0  0  0  0  0  0  0  0  0
   56.0750   28.0610   45.2500 N   0  0  0  0  0  0  0  0  0  0  0  0
   55.1570   27.8530   44.7930 H   0  0  0  0  0  0  0  0  0  0  0  0
   56.5200   29.3470   45.3020 C   0  0  0  0  0  0  0  0  0  0  0  0
   55.8130   30.2580   44.7910 O   0  0  0  0  0  0  0  0  0  0  0  0
   57.7550   29.6400   45.9250 C   0  0  0  0  0  0  0  0  0  0  0  0
  1  2  1  0
  2  3  2  0
  3  4  1  0
  3  5  1  0
  5  6  2  0
  6  7  1  0
  6  8  1  0
  8  9  1  0
  8 10  2  0
 10 11  1  0
 10 12  1  0
 12 13  1  0
 12 14  2  0
 14 15  1  0
  2 16  1  0
 16 17  1  0
 16 18  2  0
 18 19  1  0
 19 20  2  0
 20 21  1  0
 20 22  1  0
 22 23  1  0
 22 24  2  0
 24 25  1  0
 24 26  1  0
 26 27  1  0
 27 28  1  0
 28 29  2  0
 28 30  1  0
 30 31  1  0
 30 32  1  0
 32 33  2  0
 32 34  1  0
 14  5  1  0
 34 19  1  0
 34 26  2  0
M  CHG  1  27  -1
M  END
>  <UniqueID>  (32) 
29

>  <SMILES>  (32) 
O=c1[n-]c2cccc(/N=C\C=Cc3ccccc3)c2c(=O)[nH]1

>  <Energy>  (32) 
56.83437632770688

>  <Genealogy>  (32) 
O=c1[n-]c2cccc(N=CC=Cc3ccccc3)c2c(=O)[nH]1 (protonated)
O=c1[n-]c2cccc(/N=C\C=Cc3ccccc3)c2c(=O)[nH]1 (cis-trans isomerization)
O=c1[n-]c2cccc(/N=C\C=Cc3ccccc3)c2c(=O)[nH]1 (3D coordinates assigned)
O=c1[n-]c2cccc(/N=C\C=Cc3ccccc3)c2c(=O)[nH]1 (optimized conformer: 56.83437632770688 kcal/mol)

>  <smiles>  (32) 
O=c1[nH]c(=O)c2c(N=CC=Cc3ccccc3)cccc2[nH]1

>  <score_type>  (32) 
oracle

>  <origin>  (32) 
adg

>  <m_score__min__energy>  (32) 
-10.029999999999999

>  <m_primary>  (32) 
energy

$$$$
32:0
     RDKit          3D

 66 70  0  0  0  0  0  0  0  0999 V2000
   54.8030   30.8610   51.5710 C   0  0  0  0  0  0  0  0  0  0  0  0
   54.7160   29.8070   52.3970 C   0  0  0  0  0  0  0  0  0  0  0  0
   53.5560   29.0860   52.7100 C   0  0  0  0  0  0  0  0  0  0  0  0
   52.3210   29.2730   52.1980 C   0  0  0  0  0  0  0  0  0  0  0  0
   51.7430   30.5880   51.8500 C   0  0  0  0  0  0  0  0  0  0  0  0
   51.4270   31.5520   52.7350 N   0  0  0  0  0  0  0  0  0  0  0  0
   51.0160   32.5760   51.9590 C   0  0  0  0  0  0  0  0  0  0  0  0
   50.6270   33.6740   52.4350 O   0  0  0  0  0  0  0  0  0  0  0  0
   51.0580   32.3320   50.6340 N   0  0  0  0  0  0  0  0  0  0  0  0
   51.5270   31.0750   50.5760 C   0  0  0  0  0  0  0  0  0  0  0  0
   51.7470   30.3990   49.3790 O   0  0  0  0  0  0  0  0  0  0  0  0
   53.9400   28.1180   53.6320 C   0  0  0  0  0  0  0  0  0  0  0  0
   55.2950   28.2810   53.8390 C   0  0  0  0  0  0  0  0  0  0  0  0
   56.1240   27.4310   54.7530 C   0  0  0  0  0  0  0  0  0  0  0  0
   55.7670   29.3070   53.0970 N   0  0  0  0  0  0  0  0  0  0  0  0
   57.1330   29.7540   53.0580 C   0  0  0  0  0  0  0  0  0  0  0  0
   57.7990   30.0940   54.2430 C   0  0  0  0  0  0  0  0  0  0  0  0
   59.1170   30.5520   54.2000 C   0  0  0  0  0  0  0  0  0  0  0  0
   59.7810   30.6700   52.9760 C   0  0  0  0  0  0  0  0  0  0  0  0
   59.1330   30.3190   51.7800 C   0  0  0  0  0  0  0  0  0  0  0  0
   59.8190   30.4580   50.4730 C   0  0  0  0  0  0  0  0  0  0  0  0
   61.0250   30.1020   50.3750 O   0  0  0  0  0  0  0  0  0  0  0  0
   59.1430   30.9810   49.3140 N   0  0  0  0  0  0  0  0  0  0  0  0
   58.1960   32.0960   49.4220 C   0  0  0  0  0  0  0  0  0  0  0  0
   58.4870   33.1170   48.3130 C   0  0  0  0  0  0  0  0  0  0  0  0
   58.5060   32.5230   46.9450 N   0  0  0  0  0  0  0  0  0  0  0  0
   59.5660   33.1180   46.1000 C   0  0  0  0  0  0  0  0  0  0  0  0
   60.2100   34.3240   46.7980 C   0  0  0  0  0  0  0  0  0  0  0  0
   61.5030   33.9260   47.4570 C   0  0  0  0  0  0  0  0  0  0  0  0
   62.5850   33.4760   46.6810 C   0  0  0  0  0  0  0  0  0  0  0  0
   63.7730   33.0690   47.2960 C   0  0  0  0  0  0  0  0  0  0  0  0
   63.8870   33.1020   48.6890 C   0  0  0  0  0  0  0  0  0  0  0  0
   65.0390   32.7040   49.2840 F   0  0  0  0  0  0  0  0  0  0  0  0
   62.8120   33.5390   49.4680 C   0  0  0  0  0  0  0  0  0  0  0  0
   61.6220   33.9440   48.8560 C   0  0  0  0  0  0  0  0  0  0  0  0
   58.5540   31.0410   46.9200 C   0  0  0  0  0  0  0  0  0  0  0  0
   59.4970   30.4700   47.9870 C   0  0  0  0  0  0  0  0  0  0  0  0
   57.8020   29.8720   51.8300 C   0  0  0  0  0  0  0  0  0  0  0  0
   55.7744   31.3487   51.4021 H   0  0  0  0  0  0  0  0  0  0  0  0
   53.9029   31.2373   51.0628 H   0  0  0  0  0  0  0  0  0  0  0  0
   51.6995   28.3816   52.0273 H   0  0  0  0  0  0  0  0  0  0  0  0
   52.6590   30.3730   48.9410 H   0  0  0  0  0  0  0  0  0  0  0  0
   53.2895   27.3675   54.1049 H   0  0  0  0  0  0  0  0  0  0  0  0
   55.8852   27.6759   55.7985 H   0  0  0  0  0  0  0  0  0  0  0  0
   55.9047   26.3695   54.5658 H   0  0  0  0  0  0  0  0  0  0  0  0
   57.1907   27.6236   54.5658 H   0  0  0  0  0  0  0  0  0  0  0  0
   57.2821   29.9998   55.2094 H   0  0  0  0  0  0  0  0  0  0  0  0
   59.6346   30.8209   55.1326 H   0  0  0  0  0  0  0  0  0  0  0  0
   60.8166   31.0397   52.9489 H   0  0  0  0  0  0  0  0  0  0  0  0
   57.1688   31.7177   49.3131 H   0  0  0  0  0  0  0  0  0  0  0  0
   58.3043   32.5780   50.4048 H   0  0  0  0  0  0  0  0  0  0  0  0
   57.7098   33.8948   48.3437 H   0  0  0  0  0  0  0  0  0  0  0  0
   59.4919   33.5222   48.5029 H   0  0  0  0  0  0  0  0  0  0  0  0
   60.3388   32.3600   45.9046 H   0  0  0  0  0  0  0  0  0  0  0  0
   59.1141   33.4579   45.1565 H   0  0  0  0  0  0  0  0  0  0  0  0
   60.4102   35.1083   46.0532 H   0  0  0  0  0  0  0  0  0  0  0  0
   59.5197   34.6983   47.5684 H   0  0  0  0  0  0  0  0  0  0  0  0
   62.4969   33.4438   45.5850 H   0  0  0  0  0  0  0  0  0  0  0  0
   64.6184   32.7226   46.6834 H   0  0  0  0  0  0  0  0  0  0  0  0
   62.9023   33.5643   50.5640 H   0  0  0  0  0  0  0  0  0  0  0  0
   60.7751   34.2783   49.4733 H   0  0  0  0  0  0  0  0  0  0  0  0
   57.5409   30.6514   47.0984 H   0  0  0  0  0  0  0  0  0  0  0  0
   58.9354   30.7336   45.9351 H   0  0  0  0  0  0  0  0  0  0  0  0
   59.4185   29.3728   47.9892 H   0  0  0  0  0  0  0  0  0  0  0  0
   60.5267   30.7770   47.7516 H   0  0  0  0  0  0  0  0  0  0  0  0
   57.2793   29.6120   50.8977 H   0  0  0  0  0  0  0  0  0  0  0  0
  1  2  2  0
  2  3  1  0
  3  4  2  3
  4  5  1  0
  5  6  1  0
  6  7  1  0
  7  8  2  0
  7  9  1  0
  9 10  1  0
 10 11  1  0
  3 12  1  0
 12 13  2  0
 13 14  1  0
 13 15  1  0
 15 16  1  0
 16 17  2  0
 17 18  1  0
 18 19  2  0
 19 20  1  0
 20 21  1  0
 21 22  2  0
 21 23  1  0
 23 24  1  0
 24 25  1  0
 25 26  1  0
 26 27  1  0
 27 28  1  0
 28 29  1  0
 29 30  2  0
 30 31  1  0
 31 32  2  0
 32 33  1  0
 32 34  1  0
 34 35  2  0
 26 36  1  0
 36 37  1  0
 20 38  2  0
 15  2  1  0
 38 16  1  0
 10  5  2  0
 37 23  1  0
 35 29  1  0
  1 39  1  0
  1 40  1  0
  4 41  1  0
 11 42  1  0
 12 43  1  0
 14 44  1  0
 14 45  1  0
 14 46  1  0
 17 47  1  0
 18 48  1  0
 19 49  1  0
 24 50  1  0
 24 51  1  0
 25 52  1  0
 25 53  1  0
 27 54  1  0
 27 55  1  0
 28 56  1  0
 28 57  1  0
 30 58  1  0
 31 59  1  0
 34 60  1  0
 35 61  1  0
 36 62  1  0
 36 63  1  0
 37 64  1  0
 37 65  1  0
 38 66  1  0
M  CHG  2   6  -1   9  -1
M  END
>  <UniqueID>  (33) 
30

>  <SMILES>  (33) 
C=c1c(=Cc2[n-]c(=O)[n-]c2O)cc(C)n1-c1cccc(C(=O)N2CCN(CCc3ccc(F)cc3)CC2)c1

>  <Energy>  (33) 
149.72984777864832

>  <Genealogy>  (33) 
C=c1c(=Cc2[n-]c(=O)[n-]c2O)cc(C)n1-c1cccc(C(=O)N2CCN(CCc3ccc(F)cc3)CC2)c1 (protonated)
C=c1c(=Cc2[n-]c(=O)[n-]c2O)cc(C)n1-c1cccc(C(=O)N2CCN(CCc3ccc(F)cc3)CC2)c1 (3D coordinates assigned)
C=c1c(=Cc2[n-]c(=O)[n-]c2O)cc(C)n1-c1cccc(C(=O)N2CCN(CCc3ccc(F)cc3)CC2)c1 (nonaromatic ring conformer: 149.72984777864832 kcal/mol)

>  <smiles>  (33) 
C=c1c(=Cc2[nH]c(=O)[nH]c2O)cc(C)n1-c1cccc(C(=O)N2CCN(CCc3ccc(F)cc3)CC2)c1

>  <score_type>  (33) 
oracle

>  <origin>  (33) 
adg

>  <m_score__min__energy>  (33) 
-14.880000000000001

>  <m_primary>  (33) 
energy

$$$$
33:0
     RDKit          3D

 51 53  0  0  0  0  0  0  0  0999 V2000
   56.0260   23.7250   44.7890 C   0  0  0  0  0  0  0  0  0  0  0  0
   55.8140   24.7280   46.2410 S   0  0  0  0  0  0  0  0  0  0  0  0
   55.4090   23.8450   47.3890 O   0  0  0  0  0  0  0  0  0  0  0  0
   54.7460   25.7520   45.9790 O   0  0  0  0  0  0  0  0  0  0  0  0
   57.3140   25.5180   46.6010 N   0  0  0  0  0  0  0  0  0  0  0  0
   57.7560   26.7540   46.0230 C   0  0  0  0  0  0  0  0  0  0  0  0
   58.1910   27.8360   46.8090 C   0  0  0  0  0  0  0  0  0  0  0  0
   58.6020   29.0270   46.2050 C   0  0  0  0  0  0  0  0  0  0  0  0
   58.5790   29.1580   44.8020 C   0  0  0  0  0  0  0  0  0  0  0  0
   58.9560   30.3410   44.1450 O   0  0  0  0  0  0  0  0  0  0  0  0
   58.0530   31.3170   43.6220 C   0  0  0  0  0  0  0  0  0  0  0  0
   56.8430   31.4570   44.4940 C   0  0  0  0  0  0  0  0  0  0  0  0
   55.9420   30.5770   44.4480 O   0  0  0  0  0  0  0  0  0  0  0  0
   56.7570   32.5420   45.4250 N   0  0  0  0  0  0  0  0  0  0  0  0
   57.8000   33.4690   45.7580 C   0  0  0  0  0  0  0  0  0  0  0  0
   58.2150   34.4760   44.8690 C   0  0  0  0  0  0  0  0  0  0  0  0
   59.2590   35.3360   45.2180 C   0  0  0  0  0  0  0  0  0  0  0  0
   59.9170   35.1830   46.4390 C   0  0  0  0  0  0  0  0  0  0  0  0
   59.5460   34.1530   47.3210 C   0  0  0  0  0  0  0  0  0  0  0  0
   60.2580   33.9660   48.6070 C   0  0  0  0  0  0  0  0  0  0  0  0
   59.6740   34.2610   49.6880 O   0  0  0  0  0  0  0  0  0  0  0  0
   61.6100   33.4740   48.6460 N   0  0  0  0  0  0  0  0  0  0  0  0
   61.9850   32.2580   47.9110 C   0  0  0  0  0  0  0  0  0  0  0  0
   63.4570   32.3250   47.4390 C   0  0  0  0  0  0  0  0  0  0  0  0
   64.2010   33.3820   48.0240 O   0  0  0  0  0  0  0  0  0  0  0  0
   63.9450   33.4570   49.4110 C   0  0  0  0  0  0  0  0  0  0  0  0
   62.5430   34.0240   49.6340 C   0  0  0  0  0  0  0  0  0  0  0  0
   58.4760   33.3080   46.9750 C   0  0  0  0  0  0  0  0  0  0  0  0
   58.1570   28.0750   44.0240 C   0  0  0  0  0  0  0  0  0  0  0  0
   57.7480   26.8830   44.6300 C   0  0  0  0  0  0  0  0  0  0  0  0
   56.2449   22.6892   45.0876 H   0  0  0  0  0  0  0  0  0  0  0  0
   55.1034   23.7468   44.1904 H   0  0  0  0  0  0  0  0  0  0  0  0
   56.8609   24.1183   44.1904 H   0  0  0  0  0  0  0  0  0  0  0  0
   58.2078   27.7442   47.9050 H   0  0  0  0  0  0  0  0  0  0  0  0
   58.9452   29.8664   46.8276 H   0  0  0  0  0  0  0  0  0  0  0  0
   58.5677   32.2874   43.5638 H   0  0  0  0  0  0  0  0  0  0  0  0
   57.7271   30.9906   42.6234 H   0  0  0  0  0  0  0  0  0  0  0  0
   57.7158   34.5871   43.8951 H   0  0  0  0  0  0  0  0  0  0  0  0
   59.5635   36.1366   44.5279 H   0  0  0  0  0  0  0  0  0  0  0  0
   60.7299   35.8716   46.7127 H   0  0  0  0  0  0  0  0  0  0  0  0
   61.8582   31.3863   48.5699 H   0  0  0  0  0  0  0  0  0  0  0  0
   61.3376   32.1707   47.0260 H   0  0  0  0  0  0  0  0  0  0  0  0
   63.9465   31.3738   47.6953 H   0  0  0  0  0  0  0  0  0  0  0  0
   63.4365   32.5109   46.3550 H   0  0  0  0  0  0  0  0  0  0  0  0
   64.0094   32.4513   49.8518 H   0  0  0  0  0  0  0  0  0  0  0  0
   64.6885   34.1118   49.8889 H   0  0  0  0  0  0  0  0  0  0  0  0
   62.2002   33.7577   50.6447 H   0  0  0  0  0  0  0  0  0  0  0  0
   62.5773   35.1180   49.5244 H   0  0  0  0  0  0  0  0  0  0  0  0
   58.1663   32.5116   47.6677 H   0  0  0  0  0  0  0  0  0  0  0  0
   58.1468   28.1616   42.9275 H   0  0  0  0  0  0  0  0  0  0  0  0
   57.4172   26.0396   44.0061 H   0  0  0  0  0  0  0  0  0  0  0  0
  1  2  1  0
  2  3  2  0
  2  4  2  0
  2  5  1  0
  5  6  1  0
  6  7  2  0
  7  8  1  0
  8  9  2  0
  9 10  1  0
 10 11  1  0
 11 12  1  0
 12 13  2  0
 12 14  1  0
 14 15  1  0
 15 16  2  0
 16 17  1  0
 17 18  2  0
 18 19  1  0
 19 20  1  0
 20 21  2  0
 20 22  1  0
 22 23  1  0
 23 24  1  0
 24 25  1  0
 25 26  1  0
 26 27  1  0
 19 28  2  0
  9 29  1  0
 29 30  2  0
 30  6  1  0
 28 15  1  0
 27 22  1  0
  1 31  1  0
  1 32  1  0
  1 33  1  0
  7 34  1  0
  8 35  1  0
 11 36  1  0
 11 37  1  0
 16 38  1  0
 17 39  1  0
 18 40  1  0
 23 41  1  0
 23 42  1  0
 24 43  1  0
 24 44  1  0
 26 45  1  0
 26 46  1  0
 27 47  1  0
 27 48  1  0
 28 49  1  0
 29 50  1  0
 30 51  1  0
M  CHG  2   5  -1  14  -1
M  END
>  <UniqueID>  (34) 
31

>  <SMILES>  (34) 
CS(=O)(=O)[N-]c1ccc(OCC(=O)[N-]c2cccc(C(=O)N3CCOCC3)c2)cc1

>  <Energy>  (34) 
64.35245982268735

>  <Genealogy>  (34) 
CS(=O)(=O)[N-]c1ccc(OCC(=O)[N-]c2cccc(C(=O)N3CCOCC3)c2)cc1 (protonated)
CS(=O)(=O)[N-]c1ccc(OCC(=O)[N-]c2cccc(C(=O)N3CCOCC3)c2)cc1 (3D coordinates assigned)
CS(=O)(=O)[N-]c1ccc(OCC(=O)[N-]c2cccc(C(=O)N3CCOCC3)c2)cc1 (nonaromatic ring conformer: 64.35245982268735 kcal/mol)

>  <smiles>  (34) 
CS(=O)(=O)Nc1ccc(OCC(=O)Nc2cccc(C(=O)N3CCOCC3)c2)cc1

>  <score_type>  (34) 
oracle

>  <origin>  (34) 
adg

>  <m_score__min__energy>  (34) 
-12.09

>  <m_primary>  (34) 
energy

$$$$
34:0
     RDKit          3D

 46 49  0  0  0  0  0  0  0  0999 V2000
   58.5070   29.8790   47.2040 C   0  0  0  0  0  0  0  0  0  0  0  0
   58.1200   30.5130   46.0860 C   0  0  0  0  0  0  0  0  0  0  0  0
   57.2180   30.0520   45.1130 C   0  0  0  0  0  0  0  0  0  0  0  0
   56.6630   28.8390   44.9250 C   0  0  0  0  0  0  0  0  0  0  0  0
   57.0330   27.6060   45.6380 C   0  0  0  0  0  0  0  0  0  0  0  0
   58.2940   27.1680   45.8090 N   0  0  0  0  0  0  0  0  0  0  0  0
   58.1270   25.9560   46.3830 C   0  0  0  0  0  0  0  0  0  0  0  0
   59.0960   25.2260   46.7170 O   0  0  0  0  0  0  0  0  0  0  0  0
   56.8410   25.5860   46.5610 N   0  0  0  0  0  0  0  0  0  0  0  0
   56.1630   26.6340   46.0700 C   0  0  0  0  0  0  0  0  0  0  0  0
   54.7770   26.6990   46.0100 O   0  0  0  0  0  0  0  0  0  0  0  0
   56.9710   31.1260   44.2730 C   0  0  0  0  0  0  0  0  0  0  0  0
   57.7620   32.1680   44.7120 C   0  0  0  0  0  0  0  0  0  0  0  0
   57.8140   33.5290   44.0880 C   0  0  0  0  0  0  0  0  0  0  0  0
   58.4670   31.7940   45.8000 N   0  0  0  0  0  0  0  0  0  0  0  0
   59.3340   32.6520   46.5610 C   0  0  0  0  0  0  0  0  0  0  0  0
   60.7250   32.5030   46.4680 C   0  0  0  0  0  0  0  0  0  0  0  0
   61.5850   33.3310   47.2120 C   0  0  0  0  0  0  0  0  0  0  0  0
   63.0600   33.1940   47.1160 C   0  0  0  0  0  0  0  0  0  0  0  0
   63.6700   33.8180   46.2010 O   0  0  0  0  0  0  0  0  0  0  0  0
   63.7950   32.3060   48.0000 N   0  0  0  0  0  0  0  0  0  0  0  0
   64.5180   33.0770   49.0350 C   0  0  0  0  0  0  0  0  0  0  0  0
   63.9260   32.6720   50.3350 C   0  0  0  0  0  0  0  0  0  0  0  0
   63.0240   31.7300   50.1630 C   0  0  0  0  0  0  0  0  0  0  0  0
   62.9040   31.3720   48.7290 C   0  0  0  0  0  0  0  0  0  0  0  0
   61.0260   34.3240   48.0360 C   0  0  0  0  0  0  0  0  0  0  0  0
   59.6400   34.4710   48.1320 C   0  0  0  0  0  0  0  0  0  0  0  0
   58.7940   33.6360   47.3990 C   0  0  0  0  0  0  0  0  0  0  0  0
   57.4500   33.7950   47.4910 F   0  0  0  0  0  0  0  0  0  0  0  0
   59.2256   30.3565   47.8863 H   0  0  0  0  0  0  0  0  0  0  0  0
   58.1055   28.8819   47.4379 H   0  0  0  0  0  0  0  0  0  0  0  0
   55.8637   28.7636   44.1731 H   0  0  0  0  0  0  0  0  0  0  0  0
   56.2772   31.1444   43.4196 H   0  0  0  0  0  0  0  0  0  0  0  0
   57.8432   34.2938   44.8781 H   0  0  0  0  0  0  0  0  0  0  0  0
   58.7160   33.6120   43.4639 H   0  0  0  0  0  0  0  0  0  0  0  0
   56.9210   33.6806   43.4639 H   0  0  0  0  0  0  0  0  0  0  0  0
   61.1476   31.7317   45.8073 H   0  0  0  0  0  0  0  0  0  0  0  0
   64.4740   31.7350   47.4450 H   0  0  0  0  0  0  0  0  0  0  0  0
   65.5909   32.8354   49.0118 H   0  0  0  0  0  0  0  0  0  0  0  0
   64.4240   34.1604   48.8695 H   0  0  0  0  0  0  0  0  0  0  0  0
   64.2037   33.1011   51.3090 H   0  0  0  0  0  0  0  0  0  0  0  0
   62.4384   31.2704   50.9728 H   0  0  0  0  0  0  0  0  0  0  0  0
   63.2244   30.3324   48.5663 H   0  0  0  0  0  0  0  0  0  0  0  0
   61.8641   31.4507   48.3792 H   0  0  0  0  0  0  0  0  0  0  0  0
   61.6859   34.9910   48.6101 H   0  0  0  0  0  0  0  0  0  0  0  0
   59.2142   35.2460   48.7863 H   0  0  0  0  0  0  0  0  0  0  0  0
  1  2  2  0
  2  3  1  0
  3  4  2  3
  4  5  1  0
  5  6  1  0
  6  7  1  0
  7  8  2  0
  7  9  1  0
  9 10  1  0
 10 11  1  0
  3 12  1  0
 12 13  2  0
 13 14  1  0
 13 15  1  0
 15 16  1  0
 16 17  2  0
 17 18  1  0
 18 19  1  0
 19 20  2  0
 19 21  1  0
 21 22  1  0
 22 23  1  0
 23 24  2  0
 24 25  1  0
 18 26  2  0
 26 27  1  0
 27 28  2  0
 28 29  1  0
 15  2  1  0
 28 16  1  0
 10  5  2  0
 25 21  1  0
  1 30  1  0
  1 31  1  0
  4 32  1  0
 12 33  1  0
 14 34  1  0
 14 35  1  0
 14 36  1  0
 17 37  1  0
 21 38  1  0
 22 39  1  0
 22 40  1  0
 23 41  1  0
 24 42  1  0
 25 43  1  0
 25 44  1  0
 26 45  1  0
 27 46  1  0
M  CHG  4   6  -1   9  -1  11  -1  21   1
M  END
>  <UniqueID>  (35) 
32

>  <SMILES>  (35) 
C=c1c(=Cc2[n-]c(=O)[n-]c2[O-])cc(C)n1-c1cc(C(=O)[NH+]2CC=CC2)ccc1F

>  <Energy>  (35) 
137.612913271039

>  <Genealogy>  (35) 
C=c1c(=Cc2[n-]c(=O)[n-]c2[O-])cc(C)n1-c1cc(C(=O)[NH+]2CC=CC2)ccc1F (protonated)
C=c1c(=Cc2[n-]c(=O)[n-]c2[O-])cc(C)n1-c1cc(C(=O)[NH+]2CC=CC2)ccc1F (3D coordinates assigned)
C=c1c(=Cc2[n-]c(=O)[n-]c2[O-])cc(C)n1-c1cc(C(=O)[NH+]2CC=CC2)ccc1F (nonaromatic ring conformer: 137.612913271039 kcal/mol)

>  <smiles>  (35) 
C=c1c(=Cc2[nH]c(=O)[nH]c2O)cc(C)n1-c1cc(C(=O)N2CC=CC2)ccc1F

>  <score_type>  (35) 
oracle

>  <origin>  (35) 
adg

>  <m_score__min__energy>  (35) 
-15.25

>  <m_primary>  (35) 
energy

$$$$
35:0
     RDKit          3D

 46 48  0  0  0  0  0  0  0  0999 V2000
   54.0660   23.6740   46.0060 C   0  0  0  0  0  0  0  0  0  0  0  0
   54.9480   23.9120   44.7800 C   0  0  0  0  0  0  0  0  0  0  0  0
   56.0420   24.8230   45.1120 N   0  0  0  0  0  0  0  0  0  0  0  0
   55.9520   26.0600   45.6310 C   0  0  0  0  0  0  0  0  0  0  0  0
   54.7690   26.6540   46.0620 O   0  0  0  0  0  0  0  0  0  0  0  0
   57.2100   26.6290   45.6440 C   0  0  0  0  0  0  0  0  0  0  0  0
   57.5740   28.0130   46.0820 C   0  0  0  0  0  0  0  0  0  0  0  0
   56.8420   29.0360   45.2570 C   0  0  0  0  0  0  0  0  0  0  0  0
   55.6720   28.7880   44.8580 O   0  0  0  0  0  0  0  0  0  0  0  0
   57.4880   30.3000   44.8590 C   0  0  0  0  0  0  0  0  0  0  0  0
   58.1670   30.3440   43.8000 O   0  0  0  0  0  0  0  0  0  0  0  0
   57.2980   31.5060   45.6100 N   0  0  0  0  0  0  0  0  0  0  0  0
   58.1470   32.6610   45.5780 C   0  0  0  0  0  0  0  0  0  0  0  0
   57.7950   33.7910   44.8140 C   0  0  0  0  0  0  0  0  0  0  0  0
   58.5650   34.9560   44.8730 C   0  0  0  0  0  0  0  0  0  0  0  0
   59.6880   35.0080   45.7010 C   0  0  0  0  0  0  0  0  0  0  0  0
   60.0500   33.8920   46.4630 C   0  0  0  0  0  0  0  0  0  0  0  0
   59.2840   32.7170   46.4120 C   0  0  0  0  0  0  0  0  0  0  0  0
   59.6860   31.5790   47.1950 N   0  0  0  0  0  0  0  0  0  0  0  0
   60.7570   30.6950   46.7360 C   0  0  0  0  0  0  0  0  0  0  0  0
   60.3800   29.2450   47.0480 C   0  0  0  0  0  0  0  0  0  0  0  0
   60.0350   29.0980   48.4150 O   0  0  0  0  0  0  0  0  0  0  0  0
   58.8650   29.8430   48.6990 C   0  0  0  0  0  0  0  0  0  0  0  0
   59.1210   31.3410   48.5240 C   0  0  0  0  0  0  0  0  0  0  0  0
   58.0560   25.7580   45.1340 O   0  0  0  0  0  0  0  0  0  0  0  0
   57.3530   24.6910   44.8170 C   0  0  0  0  0  0  0  0  0  0  0  0
   57.8520   23.6650   44.2850 O   0  0  0  0  0  0  0  0  0  0  0  0
   54.6574   23.8336   46.9197 H   0  0  0  0  0  0  0  0  0  0  0  0
   53.2190   24.3757   45.9902 H   0  0  0  0  0  0  0  0  0  0  0  0
   53.6870   22.6415   45.9902 H   0  0  0  0  0  0  0  0  0  0  0  0
   55.3650   22.9522   44.4410 H   0  0  0  0  0  0  0  0  0  0  0  0
   54.3383   24.3605   43.9818 H   0  0  0  0  0  0  0  0  0  0  0  0
   57.3034   28.1407   47.1405 H   0  0  0  0  0  0  0  0  0  0  0  0
   58.6564   28.1557   45.9475 H   0  0  0  0  0  0  0  0  0  0  0  0
   56.9070   33.7562   44.1658 H   0  0  0  0  0  0  0  0  0  0  0  0
   58.2865   35.8312   44.2676 H   0  0  0  0  0  0  0  0  0  0  0  0
   60.2890   35.9278   45.7543 H   0  0  0  0  0  0  0  0  0  0  0  0
   60.9411   33.9357   47.1065 H   0  0  0  0  0  0  0  0  0  0  0  0
   60.8933   30.8145   45.6510 H   0  0  0  0  0  0  0  0  0  0  0  0
   61.6948   30.9522   47.2502 H   0  0  0  0  0  0  0  0  0  0  0  0
   59.5209   28.9538   46.4258 H   0  0  0  0  0  0  0  0  0  0  0  0
   61.2451   28.6011   46.8313 H   0  0  0  0  0  0  0  0  0  0  0  0
   58.0633   29.5313   48.0133 H   0  0  0  0  0  0  0  0  0  0  0  0
   58.5706   29.6544   49.7419 H   0  0  0  0  0  0  0  0  0  0  0  0
   58.1736   31.8907   48.6252 H   0  0  0  0  0  0  0  0  0  0  0  0
   59.8258   31.6886   49.2937 H   0  0  0  0  0  0  0  0  0  0  0  0
  1  2  1  0
  2  3  1  0
  3  4  1  0
  4  5  1  0
  4  6  2  0
  6  7  1  0
  7  8  1  0
  8  9  2  0
  8 10  1  0
 10 11  2  0
 10 12  1  0
 12 13  1  0
 13 14  2  0
 14 15  1  0
 15 16  2  0
 16 17  1  0
 17 18  2  0
 18 19  1  0
 19 20  1  0
 20 21  1  0
 21 22  1  0
 22 23  1  0
 23 24  1  0
  6 25  1  0
 25 26  1  0
 26 27  2  0
 26  3  1  0
 18 13  1  0
 24 19  1  0
  1 28  1  0
  1 29  1  0
  1 30  1  0
  2 31  1  0
  2 32  1  0
  7 33  1  0
  7 34  1  0
 14 35  1  0
 15 36  1  0
 16 37  1  0
 17 38  1  0
 20 39  1  0
 20 40  1  0
 21 41  1  0
 21 42  1  0
 23 43  1  0
 23 44  1  0
 24 45  1  0
 24 46  1  0
M  CHG  2   5  -1  12  -1
M  END
>  <UniqueID>  (36) 
33

>  <SMILES>  (36) 
CCn1c([O-])c(CC(=O)C(=O)[N-]c2ccccc2N2CCOCC2)oc1=O

>  <Energy>  (36) 
87.9004447463315

>  <Genealogy>  (36) 
CCn1c([O-])c(CC(=O)C(=O)[N-]c2ccccc2N2CCOCC2)oc1=O (protonated)
CCn1c([O-])c(CC(=O)C(=O)[N-]c2ccccc2N2CCOCC2)oc1=O (3D coordinates assigned)
CCn1c([O-])c(CC(=O)C(=O)[N-]c2ccccc2N2CCOCC2)oc1=O (nonaromatic ring conformer: 87.9004447463315 kcal/mol)

>  <smiles>  (36) 
CCn1c(O)c(CC(=O)C(=O)Nc2ccccc2N2CCOCC2)oc1=O

>  <score_type>  (36) 
oracle

>  <origin>  (36) 
adg

>  <m_score__min__energy>  (36) 
-12.16

>  <m_primary>  (36) 
energy

$$$$
36:0
     RDKit          3D

 41 42  0  0  0  0  0  0  0  0999 V2000
   58.8810   29.7330   50.3330 C   0  0  0  0  0  0  0  0  0  0  0  0
   58.9280   30.7900   49.2310 C   0  0  0  0  0  0  0  0  0  0  0  0
   59.3330   30.2250   47.8920 C   0  0  0  0  0  0  0  0  0  0  0  0
   58.4670   29.5260   47.1030 N   0  0  0  0  0  0  0  0  0  0  0  0
   59.0360   29.1370   45.9400 C   0  0  0  0  0  0  0  0  0  0  0  0
   58.3290   28.3170   44.9060 C   0  0  0  0  0  0  0  0  0  0  0  0
   57.0600   27.6540   45.4520 C   0  0  0  0  0  0  0  0  0  0  0  0
   55.8860   28.5020   45.2460 N   0  0  0  0  0  0  0  0  0  0  0  0
   55.7610   29.6250   44.3610 C   0  0  0  0  0  0  0  0  0  0  0  0
   54.7880   29.6450   43.5610 O   0  0  0  0  0  0  0  0  0  0  0  0
   56.7010   30.7710   44.3780 C   0  0  0  0  0  0  0  0  0  0  0  0
   57.2280   31.2770   43.1780 C   0  0  0  0  0  0  0  0  0  0  0  0
   58.0870   32.3760   43.2120 C   0  0  0  0  0  0  0  0  0  0  0  0
   58.4250   32.9640   44.4380 C   0  0  0  0  0  0  0  0  0  0  0  0
   59.3470   34.1440   44.5010 C   0  0  0  0  0  0  0  0  0  0  0  0
   57.8530   32.4520   45.6090 C   0  0  0  0  0  0  0  0  0  0  0  0
   57.0150   31.3840   45.5500 N   0  0  0  0  0  0  0  0  0  0  0  0
   60.6350   29.6450   45.8340 S   0  0  0  0  0  0  0  0  0  0  0  0
   60.6110   30.3850   47.3440 C   0  0  0  0  0  0  0  0  0  0  0  0
   61.7770   31.1110   47.9480 C   0  0  0  0  0  0  0  0  0  0  0  0
   62.0740   32.3980   47.1880 C   0  0  0  0  0  0  0  0  0  0  0  0
   58.9030   30.2267   51.3158 H   0  0  0  0  0  0  0  0  0  0  0  0
   57.9558   29.1455   50.2384 H   0  0  0  0  0  0  0  0  0  0  0  0
   59.7504   29.0657   50.2384 H   0  0  0  0  0  0  0  0  0  0  0  0
   57.9292   31.2406   49.1342 H   0  0  0  0  0  0  0  0  0  0  0  0
   59.6864   31.5330   49.5186 H   0  0  0  0  0  0  0  0  0  0  0  0
   58.0522   28.9707   44.0657 H   0  0  0  0  0  0  0  0  0  0  0  0
   59.0138   27.5175   44.5869 H   0  0  0  0  0  0  0  0  0  0  0  0
   56.9052   26.6959   44.9342 H   0  0  0  0  0  0  0  0  0  0  0  0
   57.1886   27.4961   46.5330 H   0  0  0  0  0  0  0  0  0  0  0  0
   56.9650   30.8097   42.2176 H   0  0  0  0  0  0  0  0  0  0  0  0
   58.4990   32.7809   42.2759 H   0  0  0  0  0  0  0  0  0  0  0  0
   59.5457   34.3983   45.5526 H   0  0  0  0  0  0  0  0  0  0  0  0
   60.2937   33.8969   43.9983 H   0  0  0  0  0  0  0  0  0  0  0  0
   58.8783   35.0028   43.9983 H   0  0  0  0  0  0  0  0  0  0  0  0
   58.0827   32.9158   46.5796 H   0  0  0  0  0  0  0  0  0  0  0  0
   61.5442   31.3571   48.9945 H   0  0  0  0  0  0  0  0  0  0  0  0
   62.6617   30.4597   47.8921 H   0  0  0  0  0  0  0  0  0  0  0  0
   62.2618   33.2117   47.9040 H   0  0  0  0  0  0  0  0  0  0  0  0
   62.9625   32.2537   46.5557 H   0  0  0  0  0  0  0  0  0  0  0  0
   61.2122   32.6576   46.5557 H   0  0  0  0  0  0  0  0  0  0  0  0
  1  2  1  0
  2  3  1  0
  3  4  1  0
  4  5  2  0
  5  6  1  0
  6  7  1  0
  7  8  1  0
  8  9  1  0
  9 10  2  0
  9 11  1  0
 11 12  2  0
 12 13  1  0
 13 14  2  0
 14 15  1  0
 14 16  1  0
 16 17  2  0
  5 18  1  0
 18 19  1  0
 19 20  1  0
 20 21  1  0
 19  3  2  0
 17 11  1  0
  1 22  1  0
  1 23  1  0
  1 24  1  0
  2 25  1  0
  2 26  1  0
  6 27  1  0
  6 28  1  0
  7 29  1  0
  7 30  1  0
 12 31  1  0
 13 32  1  0
 15 33  1  0
 15 34  1  0
 15 35  1  0
 16 36  1  0
 20 37  1  0
 20 38  1  0
 21 39  1  0
 21 40  1  0
 21 41  1  0
M  CHG  1   8  -1
M  END
>  <UniqueID>  (37) 
34

>  <SMILES>  (37) 
CCc1nc(CC[N-]C(=O)c2ccc(C)cn2)sc1CC

>  <Energy>  (37) 
57.97494977492744

>  <Genealogy>  (37) 
CCc1nc(CC[N-]C(=O)c2ccc(C)cn2)sc1CC (protonated)
CCc1nc(CC[N-]C(=O)c2ccc(C)cn2)sc1CC (3D coordinates assigned)
CCc1nc(CC[N-]C(=O)c2ccc(C)cn2)sc1CC (optimized conformer: 57.97494977492744 kcal/mol)

>  <smiles>  (37) 
CCc1nc(CCNC(=O)c2ccc(C)cn2)sc1CC

>  <score_type>  (37) 
oracle

>  <origin>  (37) 
adg

>  <m_score__min__energy>  (37) 
-8.6999999999999993

>  <m_primary>  (37) 
energy

$$$$
37:0
     RDKit          3D

 46 49  0  0  0  0  0  0  0  0999 V2000
   55.5400   29.0720   44.8440 O   0  0  0  0  0  0  0  0  0  0  0  0
   56.7150   29.5100   44.6970 C   0  0  0  0  0  0  0  0  0  0  0  0
   56.9140   30.8320   44.0030 C   0  0  0  0  0  0  0  0  0  0  0  0
   56.6030   31.9240   44.8690 O   0  0  0  0  0  0  0  0  0  0  0  0
   57.5230   32.5850   45.7010 C   0  0  0  0  0  0  0  0  0  0  0  0
   58.2000   31.9400   46.7520 C   0  0  0  0  0  0  0  0  0  0  0  0
   59.0650   32.6100   47.5100 O   0  0  0  0  0  0  0  0  0  0  0  0
   59.3360   33.8990   47.3260 C   0  0  0  0  0  0  0  0  0  0  0  0
   60.3380   34.5750   48.2120 C   0  0  0  0  0  0  0  0  0  0  0  0
   61.6610   33.9820   48.0220 N   0  0  0  0  0  0  0  0  0  0  0  0
   62.1660   33.4630   46.7500 C   0  0  0  0  0  0  0  0  0  0  0  0
   63.5800   32.9070   47.0500 C   0  0  0  0  0  0  0  0  0  0  0  0
   63.7630   33.1860   48.5020 C   0  0  0  0  0  0  0  0  0  0  0  0
   64.8730   32.9050   49.3000 C   0  0  0  0  0  0  0  0  0  0  0  0
   64.8320   33.2690   50.6560 C   0  0  0  0  0  0  0  0  0  0  0  0
   63.6930   33.9060   51.1850 C   0  0  0  0  0  0  0  0  0  0  0  0
   62.5880   34.1800   50.3610 C   0  0  0  0  0  0  0  0  0  0  0  0
   62.6540   33.8000   49.0170 C   0  0  0  0  0  0  0  0  0  0  0  0
   58.6980   34.6090   46.3010 C   0  0  0  0  0  0  0  0  0  0  0  0
   57.7850   33.9410   45.4840 C   0  0  0  0  0  0  0  0  0  0  0  0
   57.2040   34.5610   44.5560 O   0  0  0  0  0  0  0  0  0  0  0  0
   57.8620   28.6940   45.1710 C   0  0  0  0  0  0  0  0  0  0  0  0
   57.6300   27.5210   45.9160 C   0  0  0  0  0  0  0  0  0  0  0  0
   58.7000   26.7430   46.3690 C   0  0  0  0  0  0  0  0  0  0  0  0
   60.0130   27.1230   46.0820 C   0  0  0  0  0  0  0  0  0  0  0  0
   60.2580   28.2790   45.3400 C   0  0  0  0  0  0  0  0  0  0  0  0
   59.1920   29.0610   44.8830 C   0  0  0  0  0  0  0  0  0  0  0  0
   57.9635   30.9150   43.6842 H   0  0  0  0  0  0  0  0  0  0  0  0
   56.2394   30.8738   43.1351 H   0  0  0  0  0  0  0  0  0  0  0  0
   58.0131   30.8740   46.9489 H   0  0  0  0  0  0  0  0  0  0  0  0
   60.3803   35.6454   47.9622 H   0  0  0  0  0  0  0  0  0  0  0  0
   60.0341   34.4461   49.2613 H   0  0  0  0  0  0  0  0  0  0  0  0
   61.5111   32.6619   46.3766 H   0  0  0  0  0  0  0  0  0  0  0  0
   62.1952   34.2456   45.9775 H   0  0  0  0  0  0  0  0  0  0  0  0
   63.6287   31.8268   46.8481 H   0  0  0  0  0  0  0  0  0  0  0  0
   64.3613   33.3634   46.4244 H   0  0  0  0  0  0  0  0  0  0  0  0
   65.7595   32.4099   48.8768 H   0  0  0  0  0  0  0  0  0  0  0  0
   65.6927   33.0557   51.3070 H   0  0  0  0  0  0  0  0  0  0  0  0
   63.6681   34.1902   52.2473 H   0  0  0  0  0  0  0  0  0  0  0  0
   61.6946   34.6803   50.7629 H   0  0  0  0  0  0  0  0  0  0  0  0
   58.9132   35.6761   46.1426 H   0  0  0  0  0  0  0  0  0  0  0  0
   56.5983   27.2145   46.1433 H   0  0  0  0  0  0  0  0  0  0  0  0
   58.5073   25.8304   46.9522 H   0  0  0  0  0  0  0  0  0  0  0  0
   60.8537   26.5111   46.4408 H   0  0  0  0  0  0  0  0  0  0  0  0
   61.2926   28.5763   45.1137 H   0  0  0  0  0  0  0  0  0  0  0  0
   59.3931   29.9685   44.2949 H   0  0  0  0  0  0  0  0  0  0  0  0
  1  2  2  0
  2  3  1  0
  3  4  1  0
  4  5  1  0
  5  6  2  0
  6  7  1  0
  7  8  1  0
  8  9  1  0
  9 10  1  0
 10 11  1  0
 11 12  1  0
 12 13  1  0
 13 14  2  0
 14 15  1  0
 15 16  2  0
 16 17  1  0
 17 18  2  0
  8 19  2  0
 19 20  1  0
 20 21  2  0
  2 22  1  0
 22 23  2  0
 23 24  1  0
 24 25  2  0
 25 26  1  0
 26 27  2  0
 20  5  1  0
 27 22  1  0
 18 10  1  0
 18 13  1  0
  3 28  1  0
  3 29  1  0
  6 30  1  0
  9 31  1  0
  9 32  1  0
 11 33  1  0
 11 34  1  0
 12 35  1  0
 12 36  1  0
 14 37  1  0
 15 38  1  0
 16 39  1  0
 17 40  1  0
 19 41  1  0
 23 42  1  0
 24 43  1  0
 25 44  1  0
 26 45  1  0
 27 46  1  0
M  END
>  <UniqueID>  (38) 
35

>  <SMILES>  (38) 
O=C(COc1coc(CN2CCc3ccccc32)cc1=O)c1ccccc1

>  <Energy>  (38) 
65.14784798121961

>  <Genealogy>  (38) 
O=C(COc1coc(CN2CCc3ccccc32)cc1=O)c1ccccc1 (3D coordinates assigned)
O=C(COc1coc(CN2CCc3ccccc32)cc1=O)c1ccccc1 (nonaromatic ring conformer: 65.14784798121961 kcal/mol)

>  <smiles>  (38) 
O=C(COc1coc(CN2CCc3ccccc32)cc1=O)c1ccccc1

>  <score_type>  (38) 
oracle

>  <origin>  (38) 
adg

>  <m_score__min__energy>  (38) 
-8.9800000000000004

>  <m_primary>  (38) 
energy

$$$$
38:0
     RDKit          3D

 34 35  0  0  0  0  0  0  0  0999 V2000
   57.6691   32.7151   46.4399 H   0  0  0  0  0  0  0  0  0  0  0  0
   57.5950   32.3440   45.4070 C   0  0  0  0  0  0  0  0  0  0  0  0
   56.9910   31.1530   45.1560 N   0  0  0  0  0  0  0  0  0  0  0  0
   56.8820   30.6550   43.8930 C   0  0  0  0  0  0  0  0  0  0  0  0
   56.1830   29.3430   43.6740 C   0  0  0  0  0  0  0  0  0  0  0  0
   56.8227   28.6889   43.0633 H   0  0  0  0  0  0  0  0  0  0  0  0
   55.2297   29.5282   43.1574 H   0  0  0  0  0  0  0  0  0  0  0  0
   55.9100   28.6910   44.9550 N   0  0  0  0  0  0  0  0  0  0  0  0
   56.7570   27.9500   45.6090 C   0  0  0  0  0  0  0  0  0  0  0  0
   58.0480   28.3470   45.7730 N   0  0  0  0  0  0  0  0  0  0  0  0
   58.9420   27.5890   46.4540 C   0  0  0  0  0  0  0  0  0  0  0  0
   59.9804   27.9312   46.5750 H   0  0  0  0  0  0  0  0  0  0  0  0
   58.5350   26.3720   47.0000 C   0  0  0  0  0  0  0  0  0  0  0  0
   59.2528   25.7547   47.5601 H   0  0  0  0  0  0  0  0  0  0  0  0
   57.2460   25.9440   46.8410 N   0  0  0  0  0  0  0  0  0  0  0  0
   56.8340   24.6710   47.4500 C   0  0  0  0  0  0  0  0  0  0  0  0
   55.8040   24.7635   47.8248 H   0  0  0  0  0  0  0  0  0  0  0  0
   57.5146   24.4324   48.2806 H   0  0  0  0  0  0  0  0  0  0  0  0
   56.8950   23.5700   46.4340 C   0  0  0  0  0  0  0  0  0  0  0  0
   57.4060   22.4610   46.7490 O   0  0  0  0  0  0  0  0  0  0  0  0
   56.4150   23.7920   45.1020 N   0  0  0  0  0  0  0  0  0  0  0  0
   55.9990   24.7180   44.8540 H   0  0  0  0  0  0  0  0  0  0  0  0
   56.4910   22.7600   44.0770 C   0  0  0  0  0  0  0  0  0  0  0  0
   56.5637   21.7723   44.5558 H   0  0  0  0  0  0  0  0  0  0  0  0
   55.5876   22.7982   43.4506 H   0  0  0  0  0  0  0  0  0  0  0  0
   57.3791   22.9301   43.4506 H   0  0  0  0  0  0  0  0  0  0  0  0
   56.3440   26.7240   46.1600 C   0  0  0  0  0  0  0  0  0  0  0  0
   55.1450   26.3500   46.0240 O   0  0  0  0  0  0  0  0  0  0  0  0
   57.3960   31.3870   42.8110 C   0  0  0  0  0  0  0  0  0  0  0  0
   57.3088   30.9988   41.7855 H   0  0  0  0  0  0  0  0  0  0  0  0
   58.0190   32.6130   43.0510 C   0  0  0  0  0  0  0  0  0  0  0  0
   58.4282   33.1962   42.2129 H   0  0  0  0  0  0  0  0  0  0  0  0
   58.1220   33.0980   44.3560 C   0  0  0  0  0  0  0  0  0  0  0  0
   58.6124   34.0625   44.5542 H   0  0  0  0  0  0  0  0  0  0  0  0
  1  2  1  0
  2  3  2  0
  3  4  1  0
  4  5  1  0
  5  6  1  0
  5  7  1  0
  5  8  1  0
  8  9  2  0
  9 10  1  0
 10 11  1  0
 11 12  1  0
 11 13  2  0
 13 14  1  0
 13 15  1  0
 15 16  1  0
 16 17  1  0
 16 18  1  0
 16 19  1  0
 19 20  2  0
 19 21  1  0
 21 22  1  0
 21 23  1  0
 23 24  1  0
 23 25  1  0
 23 26  1  0
 15 27  1  0
 27 28  2  0
  4 29  2  0
 29 30  1  0
 29 31  1  0
 31 32  1  0
 31 33  2  0
 33 34  1  0
 33  2  1  0
 27  9  1  0
M  CHG  1  10  -1
M  END
>  <UniqueID>  (39) 
36

>  <SMILES>  (39) 
CNC(=O)Cn1cc[n-]/c(=N\Cc2ccccn2)c1=O

>  <Energy>  (39) 
33.29218116207796

>  <Genealogy>  (39) 
CNC(=O)Cn1cc[n-]c(=NCc2ccccn2)c1=O (protonated)
CNC(=O)Cn1cc[n-]/c(=N\Cc2ccccn2)c1=O (cis-trans isomerization)
CNC(=O)Cn1cc[n-]/c(=N\Cc2ccccn2)c1=O (3D coordinates assigned)
CNC(=O)Cn1cc[n-]/c(=N\Cc2ccccn2)c1=O (optimized conformer: 33.29218116207796 kcal/mol)

>  <smiles>  (39) 
CNC(=O)Cn1cc[nH]c(=NCc2ccccn2)c1=O

>  <score_type>  (39) 
oracle

>  <origin>  (39) 
adg

>  <m_score__min__energy>  (39) 
-8.5500000000000007

>  <m_primary>  (39) 
energy

$$$$
39:0
     RDKit          3D

 90 93  0  0  0  0  0  0  0  0999 V2000
   63.3720   30.3480   53.3280 H   0  0  0  0  0  0  0  0  0  0  0  0
   63.0550   29.8180   52.5240 O   0  0  0  0  0  0  0  0  0  0  0  0
   63.4000   28.4810   52.3530 C   0  0  0  0  0  0  0  0  0  0  0  0
   62.4070   27.5020   52.2850 C   0  0  0  0  0  0  0  0  0  0  0  0
   61.3474   27.7829   52.3761 H   0  0  0  0  0  0  0  0  0  0  0  0
   62.7640   26.1660   52.1010 C   0  0  0  0  0  0  0  0  0  0  0  0
   61.9831   25.3935   52.0423 H   0  0  0  0  0  0  0  0  0  0  0  0
   64.1090   25.8050   51.9910 C   0  0  0  0  0  0  0  0  0  0  0  0
   64.3786   24.7467   51.8596 H   0  0  0  0  0  0  0  0  0  0  0  0
   65.1190   26.7750   52.0460 C   0  0  0  0  0  0  0  0  0  0  0  0
   66.5270   26.3330   51.8470 C   0  0  0  0  0  0  0  0  0  0  0  0
   67.0137   25.7905   52.6709 H   0  0  0  0  0  0  0  0  0  0  0  0
   67.2420   26.5490   50.7370 C   0  0  0  0  0  0  0  0  0  0  0  0
   67.4002   25.6999   50.0558 H   0  0  0  0  0  0  0  0  0  0  0  0
   67.8320   27.8470   50.3650 C   0  0  0  0  0  0  0  0  0  0  0  0
   68.6240   27.8840   49.3780 O   0  0  0  0  0  0  0  0  0  0  0  0
   67.6450   29.0660   51.1720 C   0  0  0  0  0  0  0  0  0  0  0  0
   66.8470   30.1270   50.7030 C   0  0  0  0  0  0  0  0  0  0  0  0
   66.3457   30.0445   49.7274 H   0  0  0  0  0  0  0  0  0  0  0  0
   66.6880   31.2870   51.4720 C   0  0  0  0  0  0  0  0  0  0  0  0
   63.8820   32.5200   48.5150 C   0  0  0  0  0  0  0  0  0  0  0  0
   64.7456   31.8820   48.2761 H   0  0  0  0  0  0  0  0  0  0  0  0
   63.6830   32.8460   49.8050 C   0  0  0  0  0  0  0  0  0  0  0  0
   66.2534   33.3214   50.6823 H   0  0  0  0  0  0  0  0  0  0  0  0
   64.4750   32.2220   50.8910 C   0  0  0  0  0  0  0  0  0  0  0  0
   65.8030   32.3640   50.9830 C   0  0  0  0  0  0  0  0  0  0  0  0
   63.9526   31.6202   51.6492 H   0  0  0  0  0  0  0  0  0  0  0  0
   63.0000   32.9700   47.3680 C   0  0  0  0  0  0  0  0  0  0  0  0
   63.5309   32.7554   46.4288 H   0  0  0  0  0  0  0  0  0  0  0  0
   62.8095   34.0400   47.5376 H   0  0  0  0  0  0  0  0  0  0  0  0
   61.6260   32.3090   47.2920 C   0  0  0  0  0  0  0  0  0  0  0  0
   61.5980   30.9320   47.0150 C   0  0  0  0  0  0  0  0  0  0  0  0
   62.5495   30.3873   46.9253 H   0  0  0  0  0  0  0  0  0  0  0  0
   60.3940   30.2290   46.8490 C   0  0  0  0  0  0  0  0  0  0  0  0
   60.3880   28.7290   46.7450 C   0  0  0  0  0  0  0  0  0  0  0  0
   60.3250   28.1930   45.6000 O   0  0  0  0  0  0  0  0  0  0  0  0
   60.3060   27.8260   47.9110 C   0  0  0  0  0  0  0  0  0  0  0  0
   59.8444   26.8372   47.7727 H   0  0  0  0  0  0  0  0  0  0  0  0
   60.7630   28.1470   49.1250 C   0  0  0  0  0  0  0  0  0  0  0  0
   61.5576   27.5356   49.5775 H   0  0  0  0  0  0  0  0  0  0  0  0
   60.2260   29.3070   49.8780 C   0  0  0  0  0  0  0  0  0  0  0  0
   61.0570   30.3520   50.3160 C   0  0  0  0  0  0  0  0  0  0  0  0
   62.1301   30.3336   50.0751 H   0  0  0  0  0  0  0  0  0  0  0  0
   60.5320   31.4110   51.0530 C   0  0  0  0  0  0  0  0  0  0  0  0
   61.1917   32.2264   51.3845 H   0  0  0  0  0  0  0  0  0  0  0  0
   59.1630   31.4440   51.3760 C   0  0  0  0  0  0  0  0  0  0  0  0
   58.6000   32.4780   52.1380 O   0  0  0  0  0  0  0  0  0  0  0  0
   58.9130   33.8660   51.9670 C   0  0  0  0  0  0  0  0  0  0  0  0
   59.0203   34.3418   52.9529 H   0  0  0  0  0  0  0  0  0  0  0  0
   59.8556   33.9632   51.4084 H   0  0  0  0  0  0  0  0  0  0  0  0
   58.1033   34.3583   51.4084 H   0  0  0  0  0  0  0  0  0  0  0  0
   58.3250   30.4120   50.9380 C   0  0  0  0  0  0  0  0  0  0  0  0
   56.9700   30.4630   51.2970 O   0  0  0  0  0  0  0  0  0  0  0  0
   56.4860   30.4070   52.6340 C   0  0  0  0  0  0  0  0  0  0  0  0
   57.3292   30.5046   53.3336 H   0  0  0  0  0  0  0  0  0  0  0  0
   55.7741   31.2288   52.8010 H   0  0  0  0  0  0  0  0  0  0  0  0
   55.9805   29.4444   52.8010 H   0  0  0  0  0  0  0  0  0  0  0  0
   58.8610   29.3540   50.1770 C   0  0  0  0  0  0  0  0  0  0  0  0
   58.1974   28.5554   49.8138 H   0  0  0  0  0  0  0  0  0  0  0  0
   59.1810   30.9520   46.9130 C   0  0  0  0  0  0  0  0  0  0  0  0
   57.9770   30.2950   46.6840 O   0  0  0  0  0  0  0  0  0  0  0  0
   59.1730   32.3270   47.2220 C   0  0  0  0  0  0  0  0  0  0  0  0
   57.8520   33.0560   47.3970 C   0  0  0  0  0  0  0  0  0  0  0  0
   57.0892   32.3371   47.7305 H   0  0  0  0  0  0  0  0  0  0  0  0
   57.9950   33.8521   48.1426 H   0  0  0  0  0  0  0  0  0  0  0  0
   57.3910   33.6970   46.1020 C   0  0  0  0  0  0  0  0  0  0  0  0
   56.3781   34.1251   46.0754 H   0  0  0  0  0  0  0  0  0  0  0  0
   58.1380   33.7790   44.9780 C   0  0  0  0  0  0  0  0  0  0  0  0
   59.1760   34.8700   44.8760 C   0  0  0  0  0  0  0  0  0  0  0  0
   59.4765   35.1858   45.8859 H   0  0  0  0  0  0  0  0  0  0  0  0
   60.0547   34.4906   44.3339 H   0  0  0  0  0  0  0  0  0  0  0  0
   58.7533   35.7287   44.3339 H   0  0  0  0  0  0  0  0  0  0  0  0
   57.9590   32.8090   43.8310 C   0  0  0  0  0  0  0  0  0  0  0  0
   57.7729   31.8006   44.2292 H   0  0  0  0  0  0  0  0  0  0  0  0
   57.1037   33.1235   43.2149 H   0  0  0  0  0  0  0  0  0  0  0  0
   58.8702   32.7975   43.2149 H   0  0  0  0  0  0  0  0  0  0  0  0
   60.3960   32.9690   47.5190 C   0  0  0  0  0  0  0  0  0  0  0  0
   60.3680   34.2470   48.0570 O   0  0  0  0  0  0  0  0  0  0  0  0
   62.7510   33.9820   50.1100 C   0  0  0  0  0  0  0  0  0  0  0  0
   62.6570   34.0966   51.2000 H   0  0  0  0  0  0  0  0  0  0  0  0
   63.1508   34.9107   49.6768 H   0  0  0  0  0  0  0  0  0  0  0  0
   61.7621   33.7714   49.6768 H   0  0  0  0  0  0  0  0  0  0  0  0
   67.3180   31.3770   52.7290 C   0  0  0  0  0  0  0  0  0  0  0  0
   67.1852   32.2779   53.3461 H   0  0  0  0  0  0  0  0  0  0  0  0
   68.1100   30.3260   53.1930 C   0  0  0  0  0  0  0  0  0  0  0  0
   68.6041   30.4054   54.1726 H   0  0  0  0  0  0  0  0  0  0  0  0
   68.2790   29.1770   52.4240 C   0  0  0  0  0  0  0  0  0  0  0  0
   69.0640   28.1290   52.9170 O   0  0  0  0  0  0  0  0  0  0  0  0
   64.7480   28.1200   52.2390 C   0  0  0  0  0  0  0  0  0  0  0  0
   65.5259   28.8953   52.3008 H   0  0  0  0  0  0  0  0  0  0  0  0
  1  2  1  0
  2  3  1  0
  3  4  2  0
  4  5  1  0
  4  6  1  0
  6  7  1  0
  6  8  2  0
  8  9  1  0
  8 10  1  0
 10 11  1  0
 11 12  1  0
 11 13  2  3
 13 14  1  0
 13 15  1  0
 15 16  2  0
 15 17  1  0
 17 18  2  0
 18 19  1  0
 18 20  1  0
 20 21  1  0
 21 22  1  0
 21 23  2  0
 23 24  1  0
 23 25  1  0
 25 26  2  0
 26 27  1  0
 26 28  1  0
 28 29  1  0
 28 30  1  0
 28 31  1  0
 31 32  2  0
 32 33  1  0
 32 34  1  0
 34 35  1  0
 35 36  2  0
 35 37  1  0
 37 38  1  0
 37 39  2  3
 39 40  1  0
 39 41  1  0
 41 42  2  0
 42 43  1  0
 42 44  1  0
 44 45  1  0
 44 46  2  0
 46 47  1  0
 47 48  1  0
 48 49  1  0
 48 50  1  0
 48 51  1  0
 46 52  1  0
 52 53  1  0
 53 54  1  0
 54 55  1  0
 54 56  1  0
 54 57  1  0
 52 58  2  0
 58 59  1  0
 34 60  2  0
 60 61  1  0
 60 62  1  0
 62 63  1  0
 63 64  1  0
 63 65  1  0
 63 66  1  0
 66 67  1  0
 66 68  2  3
 68 69  1  0
 69 70  1  0
 69 71  1  0
 69 72  1  0
 68 73  1  0
 73 74  1  0
 73 75  1  0
 73 76  1  0
 62 77  2  0
 77 78  1  0
 25 79  1  0
 79 80  1  0
 79 81  1  0
 79 82  1  0
 20 83  2  0
 83 84  1  0
 83 85  1  0
 85 86  1  0
 85 87  2  0
 87 88  1  0
 10 89  2  0
 89 90  1  0
 89  3  1  0
 87 17  1  0
 77 31  1  0
 58 41  1  0
M  CHG  3  61  -1  78  -1  88  -1
M  END
>  <UniqueID>  (40) 
37

>  <SMILES>  (40) 
COc1ccc(C=CC(=O)c2cc(C/C=C(C)\C=C\c3ccc([O-])c(C(=O)C=Cc4cccc(O)c4)c3)c([O-])c(CC=C(C)C)c2[O-])cc1OC

>  <Energy>  (40) 
128.31046965399656

>  <Genealogy>  (40) 
COc1ccc(C=CC(=O)c2cc(CC=C(C)C=Cc3ccc([O-])c(C(=O)C=Cc4cccc(O)c4)c3)c([O-])c(CC=C(C)C)c2[O-])cc1OC (protonated)
COc1ccc(C=CC(=O)c2cc(C/C=C(C)\C=C\c3ccc([O-])c(C(=O)C=Cc4cccc(O)c4)c3)c([O-])c(CC=C(C)C)c2[O-])cc1OC (cis-trans isomerization)
COc1ccc(C=CC(=O)c2cc(C/C=C(C)\C=C\c3ccc([O-])c(C(=O)C=Cc4cccc(O)c4)c3)c([O-])c(CC=C(C)C)c2[O-])cc1OC (3D coordinates assigned)
COc1ccc(C=CC(=O)c2cc(C/C=C(C)\C=C\c3ccc([O-])c(C(=O)C=Cc4cccc(O)c4)c3)c([O-])c(CC=C(C)C)c2[O-])cc1OC (optimized conformer: 128.31046965399656 kcal/mol)

>  <smiles>  (40) 
COc1ccc(C=CC(=O)c2cc(CC=C(C)C=Cc3ccc(O)c(C(=O)C=Cc4cccc(O)c4)c3)c(O)c(CC=C(C)C)c2O)cc1OC

>  <score_type>  (40) 
oracle

>  <origin>  (40) 
adg

>  <m_score__min__energy>  (40) 
-15.84

>  <m_primary>  (40) 
energy

$$$$
40:0
     RDKit          3D

 47 49  0  0  0  0  0  0  0  0999 V2000
   57.4790   29.1070   45.0200 C   0  0  0  0  0  0  0  0  0  0  0  0
   58.1190   28.3210   46.1190 C   0  0  0  0  0  0  0  0  0  0  0  0
   58.9500   28.8550   47.0340 N   0  0  0  0  0  0  0  0  0  0  0  0
   59.3930   27.8380   47.8040 C   0  0  0  0  0  0  0  0  0  0  0  0
   60.3760   27.9760   48.8990 C   0  0  0  0  0  0  0  0  0  0  0  0
   60.7270   26.9540   49.5490 O   0  0  0  0  0  0  0  0  0  0  0  0
   61.0230   29.2940   49.2140 C   0  0  0  0  0  0  0  0  0  0  0  0
   59.9940   30.3180   49.4200 N   0  0  0  0  0  0  0  0  0  0  0  0
   59.8240   31.2390   48.4670 N   0  0  0  0  0  0  0  0  0  0  0  0
   58.9390   32.2650   48.5830 C   0  0  0  0  0  0  0  0  0  0  0  0
   58.8200   33.2270   47.5150 N   0  0  0  0  0  0  0  0  0  0  0  0
   57.5600   33.4050   46.7770 C   0  0  0  0  0  0  0  0  0  0  0  0
   57.8260   33.4760   45.2640 C   0  0  0  0  0  0  0  0  0  0  0  0
   59.1300   34.2210   44.9030 C   0  0  0  0  0  0  0  0  0  0  0  0
   59.6720   35.0620   46.0640 C   0  0  0  0  0  0  0  0  0  0  0  0
   59.9230   34.1760   47.2930 C   0  0  0  0  0  0  0  0  0  0  0  0
   58.1480   32.3420   49.7360 C   0  0  0  0  0  0  0  0  0  0  0  0
   58.3230   31.3980   50.7430 C   0  0  0  0  0  0  0  0  0  0  0  0
   59.2680   30.3860   50.5810 C   0  0  0  0  0  0  0  0  0  0  0  0
   59.4410   29.5440   51.5040 O   0  0  0  0  0  0  0  0  0  0  0  0
   58.8380   26.6420   47.3830 C   0  0  0  0  0  0  0  0  0  0  0  0
   58.0220   26.9510   46.3100 C   0  0  0  0  0  0  0  0  0  0  0  0
   57.2880   25.9620   45.4560 C   0  0  0  0  0  0  0  0  0  0  0  0
   55.9080   25.7500   45.9880 C   0  0  0  0  0  0  0  0  0  0  0  0
   55.0760   26.6960   45.9890 O   0  0  0  0  0  0  0  0  0  0  0  0
   55.5220   24.4940   46.4410 O   0  0  0  0  0  0  0  0  0  0  0  0
   56.8407   29.8909   45.4536 H   0  0  0  0  0  0  0  0  0  0  0  0
   58.2592   29.5713   44.3989 H   0  0  0  0  0  0  0  0  0  0  0  0
   56.8662   28.4371   44.3989 H   0  0  0  0  0  0  0  0  0  0  0  0
   59.2030   29.8640   47.1090 H   0  0  0  0  0  0  0  0  0  0  0  0
   61.6270   29.1947   50.1280 H   0  0  0  0  0  0  0  0  0  0  0  0
   61.6671   29.5915   48.3734 H   0  0  0  0  0  0  0  0  0  0  0  0
   56.8941   32.5552   46.9878 H   0  0  0  0  0  0  0  0  0  0  0  0
   57.0893   34.3454   47.0994 H   0  0  0  0  0  0  0  0  0  0  0  0
   57.8915   32.4498   44.8733 H   0  0  0  0  0  0  0  0  0  0  0  0
   56.9954   34.0406   44.8152 H   0  0  0  0  0  0  0  0  0  0  0  0
   59.8918   33.4798   44.6198 H   0  0  0  0  0  0  0  0  0  0  0  0
   58.9018   34.9072   44.0741 H   0  0  0  0  0  0  0  0  0  0  0  0
   60.6169   35.5353   45.7589 H   0  0  0  0  0  0  0  0  0  0  0  0
   58.9311   35.8324   46.3239 H   0  0  0  0  0  0  0  0  0  0  0  0
   60.8543   33.6107   47.1406 H   0  0  0  0  0  0  0  0  0  0  0  0
   59.9972   34.8278   48.1760 H   0  0  0  0  0  0  0  0  0  0  0  0
   57.3976   33.1390   49.8442 H   0  0  0  0  0  0  0  0  0  0  0  0
   57.7195   31.4499   51.6612 H   0  0  0  0  0  0  0  0  0  0  0  0
   59.0112   25.6454   47.8152 H   0  0  0  0  0  0  0  0  0  0  0  0
   57.2264   26.3450   44.4267 H   0  0  0  0  0  0  0  0  0  0  0  0
   57.8295   25.0046   45.4669 H   0  0  0  0  0  0  0  0  0  0  0  0
  1  2  1  0
  2  3  1  0
  3  4  1  0
  4  5  1  0
  5  6  2  0
  5  7  1  0
  7  8  1  0
  8  9  1  0
  9 10  2  0
 10 11  1  0
 11 12  1  0
 12 13  1  0
 13 14  1  0
 14 15  1  0
 15 16  1  0
 10 17  1  0
 17 18  2  0
 18 19  1  0
 19 20  2  0
  4 21  2  0
 21 22  1  0
 22 23  1  0
 23 24  1  0
 24 25  2  0
 24 26  1  0
 22  2  2  0
 19  8  1  0
 16 11  1  0
  1 27  1  0
  1 28  1  0
  1 29  1  0
  3 30  1  0
  7 31  1  0
  7 32  1  0
 12 33  1  0
 12 34  1  0
 13 35  1  0
 13 36  1  0
 14 37  1  0
 14 38  1  0
 15 39  1  0
 15 40  1  0
 16 41  1  0
 16 42  1  0
 17 43  1  0
 18 44  1  0
 21 45  1  0
 23 46  1  0
 23 47  1  0
M  CHG  1  26  -1
M  END
>  <UniqueID>  (41) 
38

>  <SMILES>  (41) 
Cc1[nH]c(C(=O)Cn2nc(N3CCCCC3)ccc2=O)cc1CC(=O)[O-]

>  <Energy>  (41) 
72.96495128513803

>  <Genealogy>  (41) 
Cc1[nH]c(C(=O)Cn2nc(N3CCCCC3)ccc2=O)cc1CC(=O)[O-] (protonated)
Cc1[nH]c(C(=O)Cn2nc(N3CCCCC3)ccc2=O)cc1CC(=O)[O-] (3D coordinates assigned)
Cc1[nH]c(C(=O)Cn2nc(N3CCCCC3)ccc2=O)cc1CC(=O)[O-] (nonaromatic ring conformer: 72.96495128513803 kcal/mol)

>  <smiles>  (41) 
Cc1[nH]c(C(=O)Cn2nc(N3CCCCC3)ccc2=O)cc1CC(=O)O

>  <score_type>  (41) 
oracle

>  <origin>  (41) 
adg

>  <m_score__min__energy>  (41) 
-11.75

>  <m_primary>  (41) 
energy

$$$$
41:0
     RDKit          3D

 47 49  0  0  0  0  0  0  0  0999 V2000
   60.2832   29.9024   50.8604 H   0  0  0  0  0  0  0  0  0  0  0  0
   59.7300   29.4020   50.0520 C   0  0  0  0  0  0  0  0  0  0  0  0
   59.0068   28.6080   50.2900 H   0  0  0  0  0  0  0  0  0  0  0  0
   59.9390   29.7630   48.7650 C   0  0  0  0  0  0  0  0  0  0  0  0
   59.2150   29.1040   47.7450 C   0  0  0  0  0  0  0  0  0  0  0  0
   58.4200   28.1630   48.0300 O   0  0  0  0  0  0  0  0  0  0  0  0
   59.3890   29.5010   46.4050 C   0  0  0  0  0  0  0  0  0  0  0  0
   58.7070   28.8760   45.4130 C   0  0  0  0  0  0  0  0  0  0  0  0
   59.0005   27.8448   45.1669 H   0  0  0  0  0  0  0  0  0  0  0  0
   57.6010   29.4730   44.6380 C   0  0  0  0  0  0  0  0  0  0  0  0
   56.2620   29.2650   44.8990 C   0  0  0  0  0  0  0  0  0  0  0  0
   55.8332   28.7094   45.7460 H   0  0  0  0  0  0  0  0  0  0  0  0
   55.5680   29.8940   43.8840 C   0  0  0  0  0  0  0  0  0  0  0  0
   54.4752   29.9505   43.7715 H   0  0  0  0  0  0  0  0  0  0  0  0
   56.5140   30.4380   43.0380 C   0  0  0  0  0  0  0  0  0  0  0  0
   56.2892   31.0089   42.1250 H   0  0  0  0  0  0  0  0  0  0  0  0
   57.7500   30.1680   43.4930 N   0  0  0  0  0  0  0  0  0  0  0  0
   58.6460   30.4120   43.0140 H   0  0  0  0  0  0  0  0  0  0  0  0
   60.2180   30.5500   46.1390 N   0  0  0  0  0  0  0  0  0  0  0  0
   60.3000   30.9390   45.1730 H   0  0  0  0  0  0  0  0  0  0  0  0
   60.9240   31.1750   47.1170 C   0  0  0  0  0  0  0  0  0  0  0  0
   61.6670   32.1450   46.7980 O   0  0  0  0  0  0  0  0  0  0  0  0
   60.8290   30.7690   48.4260 N   0  0  0  0  0  0  0  0  0  0  0  0
   61.6690   31.4480   49.4450 C   0  0  0  0  0  0  0  0  0  0  0  0
   61.4671   31.0025   50.4303 H   0  0  0  0  0  0  0  0  0  0  0  0
   62.7253   31.3168   49.1674 H   0  0  0  0  0  0  0  0  0  0  0  0
   61.3720   32.9280   49.5040 C   0  0  0  0  0  0  0  0  0  0  0  0
   62.3350   33.7290   49.6600 O   0  0  0  0  0  0  0  0  0  0  0  0
   60.0200   33.4410   49.4650 N   0  0  0  0  0  0  0  0  0  0  0  0
   58.9920   32.7690   50.2690 C   0  0  0  0  0  0  0  0  0  0  0  0
   59.2107   32.9120   51.3375 H   0  0  0  0  0  0  0  0  0  0  0  0
   58.0061   33.1975   50.0360 H   0  0  0  0  0  0  0  0  0  0  0  0
   58.9889   31.6940   50.0360 H   0  0  0  0  0  0  0  0  0  0  0  0
   59.6500   34.6000   48.6360 C   0  0  0  0  0  0  0  0  0  0  0  0
   58.8940   35.1960   49.1681 H   0  0  0  0  0  0  0  0  0  0  0  0
   60.5530   35.1999   48.4498 H   0  0  0  0  0  0  0  0  0  0  0  0
   59.0850   34.1580   47.3090 C   0  0  0  0  0  0  0  0  0  0  0  0
   58.0710   33.1860   47.2530 C   0  0  0  0  0  0  0  0  0  0  0  0
   57.6847   32.7441   48.1833 H   0  0  0  0  0  0  0  0  0  0  0  0
   57.5510   32.7780   46.0210 C   0  0  0  0  0  0  0  0  0  0  0  0
   56.7492   32.0258   45.9855 H   0  0  0  0  0  0  0  0  0  0  0  0
   58.0480   33.3240   44.8350 C   0  0  0  0  0  0  0  0  0  0  0  0
   57.6335   33.0063   43.8669 H   0  0  0  0  0  0  0  0  0  0  0  0
   59.0720   34.2740   44.8790 C   0  0  0  0  0  0  0  0  0  0  0  0
   59.4672   34.6991   43.9446 H   0  0  0  0  0  0  0  0  0  0  0  0
   59.5950   34.6850   46.1090 C   0  0  0  0  0  0  0  0  0  0  0  0
   60.4092   35.4241   46.1381 H   0  0  0  0  0  0  0  0  0  0  0  0
  1  2  1  0
  2  3  1  0
  2  4  2  0
  4  5  1  0
  5  6  2  0
  5  7  1  0
  7  8  2  0
  8  9  1  0
  8 10  1  0
 10 11  2  0
 11 12  1  0
 11 13  1  0
 13 14  1  0
 13 15  2  0
 15 16  1  0
 15 17  1  0
 17 18  1  0
  7 19  1  0
 19 20  1  0
 19 21  1  0
 21 22  2  0
 21 23  1  0
 23 24  1  0
 24 25  1  0
 24 26  1  0
 24 27  1  0
 27 28  2  0
 27 29  1  0
 29 30  1  0
 30 31  1  0
 30 32  1  0
 30 33  1  0
 29 34  1  0
 34 35  1  0
 34 36  1  0
 34 37  1  0
 37 38  2  0
 38 39  1  0
 38 40  1  0
 40 41  1  0
 40 42  2  0
 42 43  1  0
 42 44  1  0
 44 45  1  0
 44 46  2  0
 46 47  1  0
 23  4  1  0
 46 37  1  0
 17 10  1  0
M  END
>  <UniqueID>  (42) 
39

>  <SMILES>  (42) 
C=c1c(=O)/c(=C/c2ccc[nH]2)[nH]c(=O)n1CC(=O)N(C)Cc1ccccc1

>  <Energy>  (42) 
91.71642050723965

>  <Genealogy>  (42) 
C=c1c(=O)/c(=C/c2ccc[nH]2)[nH]c(=O)n1CC(=O)N(C)Cc1ccccc1 (cis-trans isomerization)
C=c1c(=O)/c(=C/c2ccc[nH]2)[nH]c(=O)n1CC(=O)N(C)Cc1ccccc1 (3D coordinates assigned)
C=c1c(=O)/c(=C/c2ccc[nH]2)[nH]c(=O)n1CC(=O)N(C)Cc1ccccc1 (optimized conformer: 91.71642050723965 kcal/mol)

>  <smiles>  (42) 
C=c1c(=O)c(=Cc2ccc[nH]2)[nH]c(=O)n1CC(=O)N(C)Cc1ccccc1

>  <score_type>  (42) 
oracle

>  <origin>  (42) 
adg

>  <m_score__min__energy>  (42) 
-8.5199999999999996

>  <m_primary>  (42) 
energy

$$$$
42:0
     RDKit          3D

 45 47  0  0  0  0  0  0  0  0999 V2000
   59.8630   35.2640   45.5900 O   0  0  0  0  0  0  0  0  0  0  0  0
   59.3950   34.4630   46.4410 C   0  0  0  0  0  0  0  0  0  0  0  0
   59.5620   34.7600   47.8350 N   0  0  0  0  0  0  0  0  0  0  0  0
   59.9880   33.8260   48.8790 C   0  0  0  0  0  0  0  0  0  0  0  0
   58.8910   32.8110   49.2310 C   0  0  0  0  0  0  0  0  0  0  0  0
   59.4400   31.4120   49.3610 C   0  0  0  0  0  0  0  0  0  0  0  0
   60.6110   31.0540   48.6730 C   0  0  0  0  0  0  0  0  0  0  0  0
   61.1160   29.7530   48.7650 C   0  0  0  0  0  0  0  0  0  0  0  0
   60.4530   28.7990   49.5400 C   0  0  0  0  0  0  0  0  0  0  0  0
   59.2840   29.1420   50.2240 C   0  0  0  0  0  0  0  0  0  0  0  0
   58.7730   30.4420   50.1360 C   0  0  0  0  0  0  0  0  0  0  0  0
   57.6050   30.7610   50.8210 O   0  0  0  0  0  0  0  0  0  0  0  0
   58.6470   33.2820   45.9750 C   0  0  0  0  0  0  0  0  0  0  0  0
   59.2210   32.0070   46.0880 C   0  0  0  0  0  0  0  0  0  0  0  0
   58.5690   30.8930   45.5560 C   0  0  0  0  0  0  0  0  0  0  0  0
   57.3290   31.0400   44.9210 C   0  0  0  0  0  0  0  0  0  0  0  0
   56.6020   29.6580   44.1070 S   0  0  0  0  0  0  0  0  0  0  0  0
   57.6310   28.9020   43.3140 O   0  0  0  0  0  0  0  0  0  0  0  0
   55.5270   30.1480   43.1810 O   0  0  0  0  0  0  0  0  0  0  0  0
   55.9050   28.5980   45.2900 N   0  0  0  0  0  0  0  0  0  0  0  0
   56.5530   27.4410   45.8400 C   0  0  0  0  0  0  0  0  0  0  0  0
   57.9440   27.4000   46.0570 C   0  0  0  0  0  0  0  0  0  0  0  0
   58.5350   26.2680   46.6280 C   0  0  0  0  0  0  0  0  0  0  0  0
   57.7500   25.1670   46.9730 C   0  0  0  0  0  0  0  0  0  0  0  0
   56.3720   25.1910   46.7430 C   0  0  0  0  0  0  0  0  0  0  0  0
   55.7740   26.3230   46.1770 C   0  0  0  0  0  0  0  0  0  0  0  0
   54.4010   26.3360   45.9600 O   0  0  0  0  0  0  0  0  0  0  0  0
   56.7220   32.3010   44.8670 C   0  0  0  0  0  0  0  0  0  0  0  0
   57.3770   33.4170   45.3970 C   0  0  0  0  0  0  0  0  0  0  0  0
   60.8755   33.2804   48.5258 H   0  0  0  0  0  0  0  0  0  0  0  0
   60.2114   34.4098   49.7842 H   0  0  0  0  0  0  0  0  0  0  0  0
   58.4301   33.1024   50.1864 H   0  0  0  0  0  0  0  0  0  0  0  0
   58.1511   32.8126   48.4170 H   0  0  0  0  0  0  0  0  0  0  0  0
   61.1340   31.8013   48.0582 H   0  0  0  0  0  0  0  0  0  0  0  0
   62.0359   29.4811   48.2266 H   0  0  0  0  0  0  0  0  0  0  0  0
   60.8516   27.7763   49.6120 H   0  0  0  0  0  0  0  0  0  0  0  0
   58.7638   28.3883   50.8333 H   0  0  0  0  0  0  0  0  0  0  0  0
   60.1881   31.8845   46.5975 H   0  0  0  0  0  0  0  0  0  0  0  0
   59.0301   29.8975   45.6356 H   0  0  0  0  0  0  0  0  0  0  0  0
   58.5680   28.2614   45.7764 H   0  0  0  0  0  0  0  0  0  0  0  0
   59.6204   26.2456   46.8054 H   0  0  0  0  0  0  0  0  0  0  0  0
   58.2163   24.2798   47.4262 H   0  0  0  0  0  0  0  0  0  0  0  0
   55.7560   24.3188   47.0072 H   0  0  0  0  0  0  0  0  0  0  0  0
   55.7291   32.4136   44.4072 H   0  0  0  0  0  0  0  0  0  0  0  0
   56.8939   34.4045   45.3602 H   0  0  0  0  0  0  0  0  0  0  0  0
  1  2  2  0
  2  3  1  0
  3  4  1  0
  4  5  1  0
  5  6  1  0
  6  7  2  0
  7  8  1  0
  8  9  2  0
  9 10  1  0
 10 11  2  0
 11 12  1  0
  2 13  1  0
 13 14  2  0
 14 15  1  0
 15 16  2  0
 16 17  1  0
 17 18  2  0
 17 19  2  0
 17 20  1  0
 20 21  1  0
 21 22  2  0
 22 23  1  0
 23 24  2  0
 24 25  1  0
 25 26  2  0
 26 27  1  0
 16 28  1  0
 28 29  2  0
 11  6  1  0
 29 13  1  0
 26 21  1  0
  4 30  1  0
  4 31  1  0
  5 32  1  0
  5 33  1  0
  7 34  1  0
  8 35  1  0
  9 36  1  0
 10 37  1  0
 14 38  1  0
 15 39  1  0
 22 40  1  0
 23 41  1  0
 24 42  1  0
 25 43  1  0
 28 44  1  0
 29 45  1  0
M  CHG  4   3  -1  12  -1  20  -1  27  -1
M  END
>  <UniqueID>  (43) 
40

>  <SMILES>  (43) 
O=C([N-]CCc1ccccc1[O-])c1ccc(S(=O)(=O)[N-]c2ccccc2[O-])cc1

>  <Energy>  (43) 
52.159295317575996

>  <Genealogy>  (43) 
O=C([N-]CCc1ccccc1[O-])c1ccc(S(=O)(=O)[N-]c2ccccc2[O-])cc1 (protonated)
O=C([N-]CCc1ccccc1[O-])c1ccc(S(=O)(=O)[N-]c2ccccc2[O-])cc1 (3D coordinates assigned)
O=C([N-]CCc1ccccc1[O-])c1ccc(S(=O)(=O)[N-]c2ccccc2[O-])cc1 (optimized conformer: 52.159295317575996 kcal/mol)

>  <smiles>  (43) 
O=C(NCCc1ccccc1O)c1ccc(S(=O)(=O)Nc2ccccc2O)cc1

>  <score_type>  (43) 
oracle

>  <origin>  (43) 
adg

>  <m_score__min__energy>  (43) 
-16.640000000000001

>  <m_primary>  (43) 
energy

$$$$
43:0
     RDKit          3D

 30 31  0  0  0  0  0  0  0  0999 V2000
   57.0530   30.9500   43.3470 C   0  0  0  0  0  0  0  0  0  0  0  0
   57.0180   31.3820   44.8200 C   0  0  1  0  0  0  0  0  0  0  0  0
   57.4100   30.2640   45.6860 N   0  0  0  0  0  0  0  0  0  0  0  0
   57.9250   28.9730   45.3190 C   0  0  0  0  0  0  0  0  0  0  0  0
   58.9700   28.9200   44.6200 O   0  0  0  0  0  0  0  0  0  0  0  0
   57.2550   27.7130   45.6810 C   0  0  0  0  0  0  0  0  0  0  0  0
   58.0010   26.6130   46.1200 C   0  0  0  0  0  0  0  0  0  0  0  0
   57.3420   25.4300   46.4480 C   0  0  0  0  0  0  0  0  0  0  0  0
   55.9530   25.3780   46.3510 C   0  0  0  0  0  0  0  0  0  0  0  0
   55.3320   24.3220   46.6410 O   0  0  0  0  0  0  0  0  0  0  0  0
   55.2690   26.4780   45.9410 N   0  0  0  0  0  0  0  0  0  0  0  0
   55.9010   27.6080   45.6190 N   0  0  0  0  0  0  0  0  0  0  0  0
   57.7810   32.6560   45.1600 C   0  0  0  0  0  0  0  0  0  0  0  0
   58.4740   33.4170   44.1950 C   0  0  0  0  0  0  0  0  0  0  0  0
   59.1950   34.5540   44.5730 C   0  0  0  0  0  0  0  0  0  0  0  0
   59.2270   34.9560   45.9140 C   0  0  0  0  0  0  0  0  0  0  0  0
   59.9470   36.0830   46.3000 O   0  0  0  0  0  0  0  0  0  0  0  0
   58.5300   34.2190   46.8740 C   0  0  0  0  0  0  0  0  0  0  0  0
   57.8090   33.0810   46.5010 C   0  0  0  0  0  0  0  0  0  0  0  0
   57.1417   29.8552   43.2880 H   0  0  0  0  0  0  0  0  0  0  0  0
   56.1260   31.2701   42.8489 H   0  0  0  0  0  0  0  0  0  0  0  0
   57.9164   31.4152   42.8489 H   0  0  0  0  0  0  0  0  0  0  0  0
   55.9704   31.6561   45.0135 H   0  0  0  0  0  0  0  0  0  0  0  0
   59.0955   26.6817   46.2051 H   0  0  0  0  0  0  0  0  0  0  0  0
   57.9108   24.5487   46.7792 H   0  0  0  0  0  0  0  0  0  0  0  0
   58.4470   33.1138   43.1380 H   0  0  0  0  0  0  0  0  0  0  0  0
   59.7392   35.1350   43.8139 H   0  0  0  0  0  0  0  0  0  0  0  0
   59.5280   36.8090   46.8690 H   0  0  0  0  0  0  0  0  0  0  0  0
   58.5485   34.5352   47.9274 H   0  0  0  0  0  0  0  0  0  0  0  0
   57.2577   32.5118   47.2639 H   0  0  0  0  0  0  0  0  0  0  0  0
  1  2  1  0
  2  3  1  0
  3  4  1  0
  4  5  2  0
  4  6  1  0
  6  7  1  0
  7  8  2  0
  8  9  1  0
  9 10  2  0
  9 11  1  0
 11 12  1  0
  2 13  1  0
 13 14  2  0
 14 15  1  0
 15 16  2  0
 16 17  1  0
 16 18  1  0
 18 19  2  0
 12  6  2  0
 19 13  1  0
  1 20  1  0
  1 21  1  0
  1 22  1  0
  2 23  1  1
  7 24  1  0
  8 25  1  0
 14 26  1  0
 15 27  1  0
 17 28  1  0
 18 29  1  0
 19 30  1  0
M  CHG  2   3  -1  11  -1
M  END
>  <UniqueID>  (44) 
41

>  <SMILES>  (44) 
C[C@@H]([N-]C(=O)c1ccc(=O)[n-]n1)c1ccc(O)cc1

>  <Energy>  (44) 
37.82165678714619

>  <Genealogy>  (44) 
CC([N-]C(=O)c1ccc(=O)[n-]n1)c1ccc(O)cc1 (protonated)
C[C@@H]([N-]C(=O)c1ccc(=O)[n-]n1)c1ccc(O)cc1 (chirality)
C[C@@H]([N-]C(=O)c1ccc(=O)[n-]n1)c1ccc(O)cc1 (3D coordinates assigned)
C[C@@H]([N-]C(=O)c1ccc(=O)[n-]n1)c1ccc(O)cc1 (optimized conformer: 37.82165678714619 kcal/mol)

>  <smiles>  (44) 
CC(NC(=O)c1ccc(=O)[nH]n1)c1ccc(O)cc1

>  <score_type>  (44) 
oracle

>  <origin>  (44) 
adg

>  <m_score__min__energy>  (44) 
-10.91

>  <m_primary>  (44) 
energy

$$$$
44:0
     RDKit          3D

 33 35  0  0  0  0  0  0  0  0999 V2000
   60.0450   28.6310   46.2890 C   0  0  0  0  0  0  0  0  0  0  0  0
   58.9130   29.2280   45.8570 C   0  0  0  0  0  0  0  0  0  0  0  0
   58.9120   30.6220   45.6060 C   0  0  0  0  0  0  0  0  0  0  0  0
   59.9790   31.2870   45.7230 O   0  0  0  0  0  0  0  0  0  0  0  0
   57.7170   31.2410   45.1690 C   0  0  0  0  0  0  0  0  0  0  0  0
   57.5820   32.5620   44.9280 C   0  0  0  0  0  0  0  0  0  0  0  0
   58.2500   33.6580   45.6510 C   0  0  0  0  0  0  0  0  0  0  0  0
   58.4370   33.7010   47.0260 C   0  0  0  0  0  0  0  0  0  0  0  0
   59.2570   34.7580   47.4410 C   0  0  0  0  0  0  0  0  0  0  0  0
   59.7500   35.5270   46.3950 C   0  0  0  0  0  0  0  0  0  0  0  0
   59.1710   34.8870   44.9530 S   0  0  0  0  0  0  0  0  0  0  0  0
   56.6350   30.4590   44.9390 N   0  0  0  0  0  0  0  0  0  0  0  0
   56.6370   29.1240   45.1620 C   0  0  0  0  0  0  0  0  0  0  0  0
   55.5840   28.4670   44.9330 O   0  0  0  0  0  0  0  0  0  0  0  0
   57.7600   28.5010   45.6360 N   0  0  0  0  0  0  0  0  0  0  0  0
   57.6970   27.0820   45.8890 C   0  0  0  0  0  0  0  0  0  0  0  0
   57.7420   26.1730   44.8210 C   0  0  0  0  0  0  0  0  0  0  0  0
   57.6800   24.7980   45.0650 C   0  0  0  0  0  0  0  0  0  0  0  0
   57.5710   24.3220   46.3770 C   0  0  0  0  0  0  0  0  0  0  0  0
   57.5100   22.9490   46.6070 O   0  0  0  0  0  0  0  0  0  0  0  0
   57.5240   25.2290   47.4460 C   0  0  0  0  0  0  0  0  0  0  0  0
   57.5850   26.6040   47.2030 C   0  0  0  0  0  0  0  0  0  0  0  0
   60.0552   27.5489   46.4865 H   0  0  0  0  0  0  0  0  0  0  0  0
   60.9567   29.2269   46.4433 H   0  0  0  0  0  0  0  0  0  0  0  0
   56.9053   32.8491   44.1097 H   0  0  0  0  0  0  0  0  0  0  0  0
   57.9860   32.9769   47.7205 H   0  0  0  0  0  0  0  0  0  0  0  0
   59.4889   34.9602   48.4971 H   0  0  0  0  0  0  0  0  0  0  0  0
   60.4065   36.4041   46.4934 H   0  0  0  0  0  0  0  0  0  0  0  0
   57.8263   26.5435   43.7887 H   0  0  0  0  0  0  0  0  0  0  0  0
   57.7169   24.0889   44.2248 H   0  0  0  0  0  0  0  0  0  0  0  0
   57.7830   22.5490   47.4980 H   0  0  0  0  0  0  0  0  0  0  0  0
   57.4389   24.8573   48.4778 H   0  0  0  0  0  0  0  0  0  0  0  0
   57.5451   27.3125   48.0435 H   0  0  0  0  0  0  0  0  0  0  0  0
  1  2  2  0
  2  3  1  0
  3  4  2  0
  3  5  1  0
  5  6  2  3
  6  7  1  0
  7  8  2  0
  8  9  1  0
  9 10  2  0
 10 11  1  0
  5 12  1  0
 12 13  1  0
 13 14  2  0
 13 15  1  0
 15 16  1  0
 16 17  2  0
 17 18  1  0
 18 19  2  0
 19 20  1  0
 19 21  1  0
 21 22  2  0
 15  2  1  0
 22 16  1  0
 11  7  1  0
  1 23  1  0
  1 24  1  0
  6 25  1  0
  8 26  1  0
  9 27  1  0
 10 28  1  0
 17 29  1  0
 18 30  1  0
 20 31  1  0
 21 32  1  0
 22 33  1  0
M  CHG  1  12  -1
M  END
>  <UniqueID>  (45) 
42

>  <SMILES>  (45) 
C=c1c(=O)c(=Cc2cccs2)[n-]c(=O)n1-c1ccc(O)cc1

>  <Energy>  (45) 
89.46976993022456

>  <Genealogy>  (45) 
C=c1c(=O)c(=Cc2cccs2)[n-]c(=O)n1-c1ccc(O)cc1 (protonated)
C=c1c(=O)c(=Cc2cccs2)[n-]c(=O)n1-c1ccc(O)cc1 (3D coordinates assigned)
C=c1c(=O)c(=Cc2cccs2)[n-]c(=O)n1-c1ccc(O)cc1 (optimized conformer: 89.46976993022456 kcal/mol)

>  <smiles>  (45) 
C=c1c(=O)c(=Cc2cccs2)[nH]c(=O)n1-c1ccc(O)cc1

>  <score_type>  (45) 
oracle

>  <origin>  (45) 
adg

>  <m_score__min__energy>  (45) 
-9.0700000000000003

>  <m_primary>  (45) 
energy

$$$$
45:0
     RDKit          3D

 43 45  0  0  1  0  0  0  0  0999 V2000
   61.4230   30.8690   47.5940 C   0  0  0  0  0  0  0  0  0  0  0  0
   60.4290   30.8330   48.6230 N   0  0  0  0  0  0  0  0  0  0  0  0
   60.1340   31.8580   49.4210 C   0  0  0  0  0  0  0  0  0  0  0  0
   60.5030   33.2540   49.4290 C   0  0  0  0  0  0  0  0  0  0  0  0
   59.9780   34.2310   48.7500 C   0  0  0  0  0  0  0  0  0  0  0  0
   59.2460   34.0730   47.4890 C   0  0  0  0  0  0  0  0  0  0  0  0
   59.6310   34.6700   46.3100 C   0  0  0  0  0  0  0  0  0  0  0  0
   58.8950   34.4850   45.1330 C   0  0  0  0  0  0  0  0  0  0  0  0
   57.7610   33.6970   45.1200 C   0  0  0  0  0  0  0  0  0  0  0  0
   57.4030   33.1130   46.3190 C   0  0  0  0  0  0  0  0  0  0  0  0
   58.1280   33.3080   47.4320 N   0  0  0  0  0  0  0  0  0  0  0  0
   59.1880   31.3510   50.3300 C   0  0  0  0  0  0  0  0  0  0  0  0
   58.9380   30.0690   50.0630 N   0  0  0  0  0  0  0  0  0  0  0  0
   59.7250   29.7450   48.9790 C   0  0  0  0  0  0  0  0  0  0  0  0
   59.6260   28.5780   48.4740 N   0  0  0  0  0  0  0  0  0  0  0  0
   58.8700   28.3240   47.3310 C   0  0  0  0  0  0  0  0  0  0  0  0
   58.0960   27.1650   47.1510 C   0  0  0  0  0  0  0  0  0  0  0  0
   57.4060   26.9710   45.9590 C   0  0  0  0  0  0  0  0  0  0  0  0
   57.5110   27.9120   45.0170 N   0  0  0  0  0  0  0  0  0  0  0  0
   58.2530   29.0270   45.1840 C   0  0  0  0  0  0  0  0  0  0  0  0
   58.3300   29.9120   44.2550 N   0  0  0  0  0  0  0  0  0  0  0  0
   56.9600   30.4790   43.4090 S   0  0  0  0  0  0  0  0  0  0  0  0
   57.3910   31.7230   42.2460 C   0  0  0  0  0  0  0  0  0  0  0  0
   56.0500   31.1270   44.4450 O   0  0  0  0  0  0  0  0  0  0  0  0
   56.1420   29.3730   42.8190 O   0  0  0  0  0  0  0  0  0  0  0  0
   58.9370   29.2550   46.3240 N   0  0  0  0  0  0  0  0  0  0  0  0
   62.4229   30.9052   48.0512 H   0  0  0  0  0  0  0  0  0  0  0  0
   61.3376   29.9672   46.9700 H   0  0  0  0  0  0  0  0  0  0  0  0
   61.2726   31.7623   46.9700 H   0  0  0  0  0  0  0  0  0  0  0  0
   61.3351   33.5260   50.0950 H   0  0  0  0  0  0  0  0  0  0  0  0
   60.0911   35.2493   49.1503 H   0  0  0  0  0  0  0  0  0  0  0  0
   60.5309   35.3023   46.2920 H   0  0  0  0  0  0  0  0  0  0  0  0
   59.2251   34.9747   44.2050 H   0  0  0  0  0  0  0  0  0  0  0  0
   57.1738   33.5426   44.2028 H   0  0  0  0  0  0  0  0  0  0  0  0
   56.5072   32.4762   46.3630 H   0  0  0  0  0  0  0  0  0  0  0  0
   58.7224   31.9280   51.1426 H   0  0  0  0  0  0  0  0  0  0  0  0
   58.2790   29.4500   50.5790 H   0  0  0  0  0  0  0  0  0  0  0  0
   58.0359   26.4127   47.9512 H   0  0  0  0  0  0  0  0  0  0  0  0
   56.7936   26.0716   45.7973 H   0  0  0  0  0  0  0  0  0  0  0  0
   57.0110   27.8010   44.1190 H   0  0  0  0  0  0  0  0  0  0  0  0
   57.7057   32.6314   42.7805 H   0  0  0  0  0  0  0  0  0  0  0  0
   58.2172   31.3642   41.6146 H   0  0  0  0  0  0  0  0  0  0  0  0
   56.5199   31.9523   41.6146 H   0  0  0  0  0  0  0  0  0  0  0  0
  1  2  1  0
  2  3  1  0
  3  4  1  0
  4  5  2  0
  5  6  1  0
  6  7  2  0
  7  8  1  0
  8  9  2  0
  9 10  1  0
 10 11  2  0
  3 12  2  0
 12 13  1  0
 13 14  1  0
 14 15  2  0
 15 16  1  0
 16 17  1  0
 17 18  2  0
 18 19  1  0
 19 20  1  0
 20 21  2  0
 21 22  1  0
 22 23  1  0
 22 24  2  0
 22 25  2  0
 20 26  1  0
 14  2  1  0
 26 16  2  0
 11  6  1  0
  1 27  1  0
  1 28  1  0
  1 29  1  0
  4 30  1  0
  5 31  1  0
  7 32  1  0
  8 33  1  0
  9 34  1  0
 10 35  1  0
 12 36  1  0
 13 37  1  0
 17 38  1  0
 18 39  1  0
 19 40  1  0
 23 41  1  0
 23 42  1  0
 23 43  1  0
M  END
>  <smiles>  (46) 
Cn1c(C=Cc2ccccn2)c[nH]c1=Nc1cc[nH]c(=NS(C)(=O)=O)n1

>  <score_type>  (46) 
oracle

>  <origin>  (46) 
adg

>  <m_score__min__energy>  (46) 
-9.0500000000000007

>  <m_primary>  (46) 
energy

$$$$
46:0
     RDKit          3D

 55 58  0  0  0  0  0  0  0  0999 V2000
   53.4951   25.3346   45.0765 H   0  0  0  0  0  0  0  0  0  0  0  0
   54.3710   24.8670   45.5500 C   0  0  0  0  0  0  0  0  0  0  0  0
   55.2940   25.5850   46.2450 N   0  0  0  0  0  0  0  0  0  0  0  0
   56.2690   24.7970   46.7410 C   0  0  0  0  0  0  0  0  0  0  0  0
   57.2750   25.2790   47.4120 N   0  0  0  0  0  0  0  0  0  0  0  0
   58.0360   26.4410   47.0560 C   0  0  0  0  0  0  0  0  0  0  0  0
   58.8370   26.9210   47.9020 O   0  0  0  0  0  0  0  0  0  0  0  0
   57.9550   27.0470   45.7060 C   0  0  0  0  0  0  0  0  0  0  0  0
   58.1590   26.2650   44.5560 C   0  0  0  0  0  0  0  0  0  0  0  0
   58.3899   25.1942   44.6561 H   0  0  0  0  0  0  0  0  0  0  0  0
   58.0700   26.8410   43.2870 C   0  0  0  0  0  0  0  0  0  0  0  0
   58.2301   26.2227   42.3914 H   0  0  0  0  0  0  0  0  0  0  0  0
   57.7780   28.2010   43.1520 C   0  0  0  0  0  0  0  0  0  0  0  0
   57.6981   28.6490   42.1505 H   0  0  0  0  0  0  0  0  0  0  0  0
   57.5870   28.9940   44.2900 C   0  0  0  0  0  0  0  0  0  0  0  0
   57.1630   30.6980   44.1400 S   0  0  0  0  0  0  0  0  0  0  0  0
   57.2870   31.1020   42.6970 O   0  0  0  0  0  0  0  0  0  0  0  0
   55.7440   30.9210   44.5850 O   0  0  0  0  0  0  0  0  0  0  0  0
   58.2480   31.6550   45.1190 N   0  0  0  0  0  0  0  0  0  0  0  0
   59.2160   31.4950   44.7470 H   0  0  0  0  0  0  0  0  0  0  0  0
   57.9180   33.0860   44.9870 C   0  0  0  0  0  0  0  0  0  0  0  0
   56.9557   33.2863   45.4808 H   0  0  0  0  0  0  0  0  0  0  0  0
   57.8476   33.3465   43.9206 H   0  0  0  0  0  0  0  0  0  0  0  0
   59.0160   33.9340   45.6460 C   0  0  0  0  0  0  0  0  0  0  0  0
   58.6032   34.9189   45.9099 H   0  0  0  0  0  0  0  0  0  0  0  0
   59.8495   34.0494   44.9375 H   0  0  0  0  0  0  0  0  0  0  0  0
   59.5130   33.2780   46.8600 N   0  0  0  0  0  0  0  0  0  0  0  0
   60.8570   33.5220   47.3030 C   0  0  0  0  0  0  0  0  0  0  0  0
   61.8950   33.4470   46.3660 C   0  0  0  0  0  0  0  0  0  0  0  0
   61.6720   33.1706   45.3249 H   0  0  0  0  0  0  0  0  0  0  0  0
   63.2080   33.7200   46.7430 C   0  0  0  0  0  0  0  0  0  0  0  0
   64.0180   33.6489   46.0022 H   0  0  0  0  0  0  0  0  0  0  0  0
   63.4970   34.0830   48.0570 C   0  0  0  0  0  0  0  0  0  0  0  0
   64.5354   34.3036   48.3453 H   0  0  0  0  0  0  0  0  0  0  0  0
   62.4750   34.1700   49.0170 C   0  0  0  0  0  0  0  0  0  0  0  0
   62.8340   34.5740   50.4240 C   0  0  0  0  0  0  0  0  0  0  0  0
   62.2783   33.9486   51.1382 H   0  0  0  0  0  0  0  0  0  0  0  0
   63.9142   34.4375   50.5803 H   0  0  0  0  0  0  0  0  0  0  0  0
   62.5715   35.6307   50.5803 H   0  0  0  0  0  0  0  0  0  0  0  0
   61.1410   33.8470   48.6510 C   0  0  0  0  0  0  0  0  0  0  0  0
   60.0290   33.8870   49.6730 C   0  0  0  0  0  0  0  0  0  0  0  0
   60.4602   33.8715   50.6848 H   0  0  0  0  0  0  0  0  0  0  0  0
   59.4409   34.8069   49.5391 H   0  0  0  0  0  0  0  0  0  0  0  0
   59.3763   33.0118   49.5391 H   0  0  0  0  0  0  0  0  0  0  0  0
   58.6910   32.2680   47.5310 C   0  0  0  0  0  0  0  0  0  0  0  0
   57.8216   32.7600   47.9915 H   0  0  0  0  0  0  0  0  0  0  0  0
   59.3037   31.7708   48.2974 H   0  0  0  0  0  0  0  0  0  0  0  0
   58.1960   31.2020   46.5300 C   0  0  0  0  0  0  0  0  0  0  0  0
   57.1547   30.9475   46.7771 H   0  0  0  0  0  0  0  0  0  0  0  0
   58.8664   30.3345   46.6191 H   0  0  0  0  0  0  0  0  0  0  0  0
   57.6850   28.4170   45.5630 C   0  0  0  0  0  0  0  0  0  0  0  0
   57.5493   29.0426   46.4575 H   0  0  0  0  0  0  0  0  0  0  0  0
   56.0360   23.1780   46.3190 S   0  0  0  0  0  0  0  0  0  0  0  0
   54.6140   23.5000   45.4810 C   0  0  0  0  0  0  0  0  0  0  0  0
   53.9853   22.7578   44.9674 H   0  0  0  0  0  0  0  0  0  0  0  0
  1  2  1  0
  2  3  1  0
  3  4  1  0
  4  5  2  0
  5  6  1  0
  6  7  2  0
  6  8  1  0
  8  9  2  0
  9 10  1  0
  9 11  1  0
 11 12  1  0
 11 13  2  0
 13 14  1  0
 13 15  1  0
 15 16  1  0
 16 17  2  0
 16 18  2  0
 16 19  1  0
 19 20  1  0
 19 21  1  0
 21 22  1  0
 21 23  1  0
 21 24  1  0
 24 25  1  0
 24 26  1  0
 24 27  1  0
 27 28  1  0
 28 29  2  0
 29 30  1  0
 29 31  1  0
 31 32  1  0
 31 33  2  0
 33 34  1  0
 33 35  1  0
 35 36  1  0
 36 37  1  0
 36 38  1  0
 36 39  1  0
 35 40  2  0
 40 41  1  0
 41 42  1  0
 41 43  1  0
 41 44  1  0
 27 45  1  0
 45 46  1  0
 45 47  1  0
 45 48  1  0
 48 49  1  0
 48 50  1  0
 15 51  2  0
 51 52  1  0
  4 53  1  0
 53 54  1  0
 54 55  1  0
 54  2  2  0
 51  8  1  0
 48 19  1  0
 40 28  1  0
M  CHG  2   3  -1  19   1
M  END
>  <UniqueID>  (47) 
43

>  <SMILES>  (47) 
Cc1cccc(N2CC[NH+](S(=O)(=O)c3cccc(C(=O)/N=c4/[n-]ccs4)c3)CC2)c1C

>  <Energy>  (47) 
107.25565431853805

>  <Genealogy>  (47) 
Cc1cccc(N2CC[NH+](S(=O)(=O)c3cccc(C(=O)N=c4[n-]ccs4)c3)CC2)c1C (protonated)
Cc1cccc(N2CC[NH+](S(=O)(=O)c3cccc(C(=O)/N=c4/[n-]ccs4)c3)CC2)c1C (cis-trans isomerization)
Cc1cccc(N2CC[NH+](S(=O)(=O)c3cccc(C(=O)/N=c4/[n-]ccs4)c3)CC2)c1C (3D coordinates assigned)
Cc1cccc(N2CC[NH+](S(=O)(=O)c3cccc(C(=O)/N=c4/[n-]ccs4)c3)CC2)c1C (nonaromatic ring conformer: 107.25565431853805 kcal/mol)

>  <smiles>  (47) 
Cc1cccc(N2CCN(S(=O)(=O)c3cccc(C(=O)N=c4[nH]ccs4)c3)CC2)c1C

>  <score_type>  (47) 
oracle

>  <origin>  (47) 
adg

>  <m_score__min__energy>  (47) 
-10.41

>  <m_primary>  (47) 
energy

$$$$
47:0
     RDKit          3D

 53 55  0  0  0  0  0  0  0  0999 V2000
   58.9930   23.5000   45.4370 C   0  0  0  0  0  0  0  0  0  0  0  0
   57.9940   24.1330   46.3530 C   0  0  0  0  0  0  0  0  0  0  0  0
   57.6030   23.4860   47.3620 O   0  0  0  0  0  0  0  0  0  0  0  0
   57.4410   25.4840   46.0950 C   0  0  0  0  0  0  0  0  0  0  0  0
   56.1380   25.8210   45.7390 C   0  0  0  0  0  0  0  0  0  0  0  0
   54.9820   24.8850   45.5640 C   0  0  0  0  0  0  0  0  0  0  0  0
   56.0180   27.1580   45.6280 N   0  0  0  0  0  0  0  0  0  0  0  0
   57.2170   27.6970   45.9240 C   0  0  0  0  0  0  0  0  0  0  0  0
   57.4520   29.1540   45.9460 C   0  0  0  0  0  0  0  0  0  0  0  0
   56.7180   29.9010   45.2450 O   0  0  0  0  0  0  0  0  0  0  0  0
   58.4390   29.7290   46.8160 N   0  0  0  0  0  0  0  0  0  0  0  0
   58.9750   31.0540   46.6540 C   0  0  0  0  0  0  0  0  0  0  0  0
   58.1250   32.0970   46.2600 C   0  0  0  0  0  0  0  0  0  0  0  0
   58.6200   33.3950   46.1140 C   0  0  0  0  0  0  0  0  0  0  0  0
   59.9680   33.6640   46.3650 C   0  0  0  0  0  0  0  0  0  0  0  0
   60.8300   32.6340   46.7660 C   0  0  0  0  0  0  0  0  0  0  0  0
   62.5260   32.9790   47.1060 S   0  0  0  0  0  0  0  0  0  0  0  0
   63.0870   33.8360   46.0040 O   0  0  0  0  0  0  0  0  0  0  0  0
   63.2910   31.6850   47.1130 O   0  0  0  0  0  0  0  0  0  0  0  0
   62.7550   33.7890   48.6410 N   0  0  0  0  0  0  0  0  0  0  0  0
   63.7400   33.1070   49.5150 C   0  0  0  0  0  0  0  0  0  0  0  0
   63.2090   32.7940   50.9200 C   0  0  0  0  0  0  0  0  0  0  0  0
   61.8300   32.1530   50.8200 C   0  0  0  0  0  0  0  0  0  0  0  0
   60.8250   33.0820   50.1230 C   0  0  0  0  0  0  0  0  0  0  0  0
   61.4840   34.1930   49.2790 C   0  0  0  0  0  0  0  0  0  0  0  0
   60.3250   31.3360   46.9310 C   0  0  0  0  0  0  0  0  0  0  0  0
   58.1340   26.6880   46.2000 C   0  0  0  0  0  0  0  0  0  0  0  0
   59.5940   26.8510   46.5080 C   0  0  0  0  0  0  0  0  0  0  0  0
   59.7743   23.0049   46.0324 H   0  0  0  0  0  0  0  0  0  0  0  0
   58.4889   22.7561   44.8025 H   0  0  0  0  0  0  0  0  0  0  0  0
   59.4504   24.2735   44.8025 H   0  0  0  0  0  0  0  0  0  0  0  0
   54.6048   24.5796   46.5511 H   0  0  0  0  0  0  0  0  0  0  0  0
   54.1809   25.3920   45.0062 H   0  0  0  0  0  0  0  0  0  0  0  0
   55.3113   23.9960   45.0062 H   0  0  0  0  0  0  0  0  0  0  0  0
   55.1450   27.6820   45.3940 H   0  0  0  0  0  0  0  0  0  0  0  0
   58.6810   29.2060   47.6880 H   0  0  0  0  0  0  0  0  0  0  0  0
   57.0621   31.8920   46.0647 H   0  0  0  0  0  0  0  0  0  0  0  0
   57.9473   34.2070   45.8008 H   0  0  0  0  0  0  0  0  0  0  0  0
   60.3539   34.6874   46.2475 H   0  0  0  0  0  0  0  0  0  0  0  0
   64.0321   32.1609   49.0359 H   0  0  0  0  0  0  0  0  0  0  0  0
   64.5887   33.7956   49.6394 H   0  0  0  0  0  0  0  0  0  0  0  0
   63.8981   32.1009   51.4248 H   0  0  0  0  0  0  0  0  0  0  0  0
   63.1343   33.7279   51.4963 H   0  0  0  0  0  0  0  0  0  0  0  0
   61.9112   31.2189   50.2448 H   0  0  0  0  0  0  0  0  0  0  0  0
   61.4671   31.9558   51.8395 H   0  0  0  0  0  0  0  0  0  0  0  0
   60.1918   32.4732   49.4609 H   0  0  0  0  0  0  0  0  0  0  0  0
   60.2484   33.5817   50.9154 H   0  0  0  0  0  0  0  0  0  0  0  0
   60.7795   34.4909   48.4885 H   0  0  0  0  0  0  0  0  0  0  0  0
   61.7212   35.0175   49.9674 H   0  0  0  0  0  0  0  0  0  0  0  0
   60.9899   30.5321   47.2798 H   0  0  0  0  0  0  0  0  0  0  0  0
   59.7392   26.8672   47.5983 H   0  0  0  0  0  0  0  0  0  0  0  0
   60.1561   26.0100   46.0757 H   0  0  0  0  0  0  0  0  0  0  0  0
   59.9567   27.7952   46.0757 H   0  0  0  0  0  0  0  0  0  0  0  0
  1  2  1  0
  2  3  2  0
  2  4  1  0
  4  5  2  0
  5  6  1  0
  5  7  1  0
  7  8  1  0
  8  9  1  0
  9 10  2  0
  9 11  1  0
 11 12  1  0
 12 13  2  0
 13 14  1  0
 14 15  2  0
 15 16  1  0
 16 17  1  0
 17 18  2  0
 17 19  2  0
 17 20  1  0
 20 21  1  0
 21 22  1  0
 22 23  1  0
 23 24  1  0
 24 25  1  0
 16 26  2  0
  8 27  2  0
 27 28  1  0
 27  4  1  0
 26 12  1  0
 25 20  1  0
  1 29  1  0
  1 30  1  0
  1 31  1  0
  6 32  1  0
  6 33  1  0
  6 34  1  0
  7 35  1  0
 11 36  1  0
 13 37  1  0
 14 38  1  0
 15 39  1  0
 21 40  1  0
 21 41  1  0
 22 42  1  0
 22 43  1  0
 23 44  1  0
 23 45  1  0
 24 46  1  0
 24 47  1  0
 25 48  1  0
 25 49  1  0
 26 50  1  0
 28 51  1  0
 28 52  1  0
 28 53  1  0
M  END
>  <UniqueID>  (48) 
44

>  <SMILES>  (48) 
CC(=O)c1c(C)[nH]c(C(=O)Nc2cccc(S(=O)(=O)N3CCCCC3)c2)c1C

>  <Energy>  (48) 
92.27027814094448

>  <Genealogy>  (48) 
CC(=O)c1c(C)[nH]c(C(=O)Nc2cccc(S(=O)(=O)N3CCCCC3)c2)c1C (3D coordinates assigned)
CC(=O)c1c(C)[nH]c(C(=O)Nc2cccc(S(=O)(=O)N3CCCCC3)c2)c1C (nonaromatic ring conformer: 92.27027814094448 kcal/mol)

>  <smiles>  (48) 
CC(=O)c1c(C)[nH]c(C(=O)Nc2cccc(S(=O)(=O)N3CCCCC3)c2)c1C

>  <score_type>  (48) 
oracle

>  <origin>  (48) 
adg

>  <m_score__min__energy>  (48) 
-9.4900000000000002

>  <m_primary>  (48) 
energy

$$$$
48:0
     RDKit          3D

 36 38  0  0  0  0  0  0  0  0999 V2000
   59.0710   24.7360   46.7030 O   0  0  0  0  0  0  0  0  0  0  0  0
   58.0830   25.5170   46.6210 C   0  0  0  0  0  0  0  0  0  0  0  0
   56.8180   25.1620   47.2060 N   0  0  0  0  0  0  0  0  0  0  0  0
   55.9290   24.3380   46.7270 C   0  0  0  0  0  0  0  0  0  0  0  0
   54.7830   24.7990   46.1480 N   0  0  0  0  0  0  0  0  0  0  0  0
   53.8410   23.9600   45.6400 C   0  0  0  0  0  0  0  0  0  0  0  0
   54.0290   22.5800   45.7020 C   0  0  0  0  0  0  0  0  0  0  0  0
   55.1900   22.0750   46.2870 C   0  0  0  0  0  0  0  0  0  0  0  0
   56.1510   22.9490   46.8070 C   0  0  0  0  0  0  0  0  0  0  0  0
   57.3040   22.4200   47.3890 O   0  0  0  0  0  0  0  0  0  0  0  0
   58.2290   26.8120   45.9130 C   0  0  0  0  0  0  0  0  0  0  0  0
   59.1490   26.9510   44.8570 C   0  0  0  0  0  0  0  0  0  0  0  0
   59.2870   28.1730   44.1920 C   0  0  0  0  0  0  0  0  0  0  0  0
   58.5060   29.2790   44.5690 C   0  0  0  0  0  0  0  0  0  0  0  0
   58.6110   30.5490   43.9110 N   0  0  0  0  0  0  0  0  0  0  0  0
   57.5900   31.9170   44.2100 S   0  0  0  0  0  0  0  0  0  0  0  0
   57.4390   32.7090   42.9420 O   0  0  0  0  0  0  0  0  0  0  0  0
   56.2360   31.4410   44.6550 O   0  0  0  0  0  0  0  0  0  0  0  0
   58.3100   32.9400   45.4390 C   0  0  0  0  0  0  0  0  0  0  0  0
   58.6780   34.2660   45.2660 C   0  0  0  0  0  0  0  0  0  0  0  0
   59.2610   34.8240   46.4090 C   0  0  0  0  0  0  0  0  0  0  0  0
   59.3420   33.9300   47.4690 C   0  0  0  0  0  0  0  0  0  0  0  0
   60.0150   34.2780   49.0480 Cl  0  0  0  0  0  0  0  0  0  0  0  0
   58.7010   32.4490   46.9980 S   0  0  0  0  0  0  0  0  0  0  0  0
   57.5920   29.1430   45.6190 C   0  0  0  0  0  0  0  0  0  0  0  0
   57.4520   27.9220   46.2870 C   0  0  0  0  0  0  0  0  0  0  0  0
   52.9301   24.3705   45.1799 H   0  0  0  0  0  0  0  0  0  0  0  0
   53.2697   21.8967   45.2939 H   0  0  0  0  0  0  0  0  0  0  0  0
   55.3504   20.9880   46.3397 H   0  0  0  0  0  0  0  0  0  0  0  0
   58.1550   22.9600   47.4960 H   0  0  0  0  0  0  0  0  0  0  0  0
   59.7642   26.0915   44.5525 H   0  0  0  0  0  0  0  0  0  0  0  0
   60.0107   28.2694   43.3693 H   0  0  0  0  0  0  0  0  0  0  0  0
   58.5273   34.8209   44.3283 H   0  0  0  0  0  0  0  0  0  0  0  0
   59.6182   35.8630   46.4626 H   0  0  0  0  0  0  0  0  0  0  0  0
   56.9779   30.0038   45.9221 H   0  0  0  0  0  0  0  0  0  0  0  0
   56.7288   27.8299   47.1107 H   0  0  0  0  0  0  0  0  0  0  0  0
  1  2  2  0
  2  3  1  0
  3  4  2  3
  4  5  1  0
  5  6  1  0
  6  7  2  0
  7  8  1  0
  8  9  2  0
  9 10  1  0
  2 11  1  0
 11 12  2  0
 12 13  1  0
 13 14  2  0
 14 15  1  0
 15 16  1  0
 16 17  2  0
 16 18  2  0
 16 19  1  0
 19 20  2  0
 20 21  1  0
 21 22  2  0
 22 23  1  0
 22 24  1  0
 14 25  1  0
 25 26  2  0
  9  4  1  0
 26 11  1  0
 24 19  1  0
  6 27  1  0
  7 28  1  0
  8 29  1  0
 10 30  1  0
 12 31  1  0
 13 32  1  0
 20 33  1  0
 21 34  1  0
 25 35  1  0
 26 36  1  0
M  CHG  2   5  -1  15  -1
M  END
>  <UniqueID>  (49) 
45

>  <SMILES>  (49) 
O=C(N=c1[n-]cccc1O)c1ccc([N-]S(=O)(=O)c2ccc(Cl)s2)cc1

>  <Energy>  (49) 
72.87280659761393

>  <Genealogy>  (49) 
O=C(N=c1[n-]cccc1O)c1ccc([N-]S(=O)(=O)c2ccc(Cl)s2)cc1 (protonated)
O=C(N=c1[n-]cccc1O)c1ccc([N-]S(=O)(=O)c2ccc(Cl)s2)cc1 (3D coordinates assigned)
O=C(N=c1[n-]cccc1O)c1ccc([N-]S(=O)(=O)c2ccc(Cl)s2)cc1 (optimized conformer: 72.87280659761393 kcal/mol)

>  <smiles>  (49) 
O=C(N=c1[nH]cccc1O)c1ccc(NS(=O)(=O)c2ccc(Cl)s2)cc1

>  <score_type>  (49) 
oracle

>  <origin>  (49) 
adg

>  <m_score__min__energy>  (49) 
-11.59

>  <m_primary>  (49) 
energy

$$$$
49:0
     RDKit          3D

 43 45  0  0  0  0  0  0  0  0999 V2000
   55.0980   30.2300   44.4680 O   0  0  0  0  0  0  0  0  0  0  0  0
   56.0830   29.4510   44.5630 C   0  0  0  0  0  0  0  0  0  0  0  0
   57.3660   29.7640   43.8170 C   0  0  0  0  0  0  0  0  0  0  0  0
   58.1760   30.8560   44.4050 N   0  0  0  0  0  0  0  0  0  0  0  0
   58.9500   30.4870   45.5990 C   0  0  0  0  0  0  0  0  0  0  0  0
   59.0200   31.7260   46.4710 C   0  0  0  0  0  0  0  0  0  0  0  0
   57.7380   32.4680   46.1490 C   0  0  1  0  0  0  0  0  0  0  0  0
   57.9200   33.9090   46.3040 N   0  0  0  0  0  0  0  0  0  0  0  0
   59.1680   34.5690   46.0780 C   0  0  0  0  0  0  0  0  0  0  0  0
   59.5800   34.7750   44.9040 O   0  0  0  0  0  0  0  0  0  0  0  0
   59.9630   35.0620   47.2440 C   0  0  0  0  0  0  0  0  0  0  0  0
   61.1300   34.2110   47.4410 N   0  0  0  0  0  0  0  0  0  0  0  0
   62.0130   33.8440   46.4930 C   0  0  0  0  0  0  0  0  0  0  0  0
   62.9280   32.9870   47.0620 C   0  0  0  0  0  0  0  0  0  0  0  0
   62.5260   32.8680   48.3800 C   0  0  0  0  0  0  0  0  0  0  0  0
   61.4240   33.6140   48.5850 N   0  0  0  0  0  0  0  0  0  0  0  0
   57.4290   32.0870   44.7050 C   0  0  0  0  0  0  0  0  0  0  0  0
   55.8990   28.2040   45.2470 N   0  0  0  0  0  0  0  0  0  0  0  0
   56.9280   27.3260   45.7260 C   0  0  0  0  0  0  0  0  0  0  0  0
   57.8390   27.7310   46.7170 C   0  0  0  0  0  0  0  0  0  0  0  0
   58.8030   26.8380   47.1930 C   0  0  0  0  0  0  0  0  0  0  0  0
   58.8540   25.5330   46.6990 C   0  0  0  0  0  0  0  0  0  0  0  0
   57.9330   25.1150   45.7350 C   0  0  0  0  0  0  0  0  0  0  0  0
   56.9660   26.0060   45.2570 C   0  0  0  0  0  0  0  0  0  0  0  0
   57.9820   28.8529   43.7985 H   0  0  0  0  0  0  0  0  0  0  0  0
   57.0662   30.1057   42.8153 H   0  0  0  0  0  0  0  0  0  0  0  0
   58.4481   29.6707   46.1392 H   0  0  0  0  0  0  0  0  0  0  0  0
   59.9565   30.1368   45.3263 H   0  0  0  0  0  0  0  0  0  0  0  0
   59.0583   31.4539   47.5361 H   0  0  0  0  0  0  0  0  0  0  0  0
   59.9199   32.3295   46.2810 H   0  0  0  0  0  0  0  0  0  0  0  0
   56.9120   32.2020   46.8250 H   0  0  0  0  0  0  0  0  0  0  0  0
   60.2918   36.0939   47.0517 H   0  0  0  0  0  0  0  0  0  0  0  0
   59.3369   35.0349   48.1480 H   0  0  0  0  0  0  0  0  0  0  0  0
   62.0047   34.1727   45.4433 H   0  0  0  0  0  0  0  0  0  0  0  0
   63.7884   32.5038   46.5759 H   0  0  0  0  0  0  0  0  0  0  0  0
   63.0295   32.2573   49.1439 H   0  0  0  0  0  0  0  0  0  0  0  0
   56.3499   31.9104   44.5855 H   0  0  0  0  0  0  0  0  0  0  0  0
   57.7216   32.8956   44.0190 H   0  0  0  0  0  0  0  0  0  0  0  0
   57.7930   28.7539   47.1191 H   0  0  0  0  0  0  0  0  0  0  0  0
   59.5229   27.1638   47.9582 H   0  0  0  0  0  0  0  0  0  0  0  0
   59.6190   24.8343   47.0686 H   0  0  0  0  0  0  0  0  0  0  0  0
   57.9682   24.0846   45.3516 H   0  0  0  0  0  0  0  0  0  0  0  0
   56.2324   25.6689   44.5098 H   0  0  0  0  0  0  0  0  0  0  0  0
  1  2  2  0
  2  3  1  0
  3  4  1  0
  4  5  1  0
  5  6  1  0
  6  7  1  0
  7  8  1  0
  8  9  1  0
  9 10  2  0
  9 11  1  0
 11 12  1  0
 12 13  1  0
 13 14  2  0
 14 15  1  0
 15 16  2  0
  7 17  1  0
  2 18  1  0
 18 19  1  0
 19 20  2  0
 20 21  1  0
 21 22  2  0
 22 23  1  0
 23 24  2  0
 17  4  1  0
 24 19  1  0
 16 12  1  0
  3 25  1  0
  3 26  1  0
  5 27  1  0
  5 28  1  0
  6 29  1  0
  6 30  1  0
  7 31  1  1
 11 32  1  0
 11 33  1  0
 13 34  1  0
 14 35  1  0
 15 36  1  0
 17 37  1  0
 17 38  1  0
 20 39  1  0
 21 40  1  0
 22 41  1  0
 23 42  1  0
 24 43  1  0
M  CHG  2   8  -1  18  -1
M  END
>  <UniqueID>  (50) 
46

>  <SMILES>  (50) 
O=C(CN1CC[C@@H]([N-]C(=O)Cn2cccn2)C1)[N-]c1ccccc1

>  <Energy>  (50) 
82.16815287429138

>  <Genealogy>  (50) 
O=C(CN1CCC([N-]C(=O)Cn2cccn2)C1)[N-]c1ccccc1 (protonated)
O=C(CN1CC[C@@H]([N-]C(=O)Cn2cccn2)C1)[N-]c1ccccc1 (chirality)
O=C(CN1CC[C@@H]([N-]C(=O)Cn2cccn2)C1)[N-]c1ccccc1 (3D coordinates assigned)
O=C(CN1CC[C@@H]([N-]C(=O)Cn2cccn2)C1)[N-]c1ccccc1 (nonaromatic ring conformer: 82.16815287429138 kcal/mol)

>  <smiles>  (50) 
O=C(CN1CCC(NC(=O)Cn2cccn2)C1)Nc1ccccc1

>  <score_type>  (50) 
oracle

>  <origin>  (50) 
adg

>  <m_score__min__energy>  (50) 
-11.16

>  <m_primary>  (50) 
energy

$$$$
50:0
     RDKit          3D

 44 47  0  0  0  0  0  0  0  0999 V2000
   59.5310   34.6420   45.8860 C   0  0  0  0  0  0  0  0  0  0  0  0
   58.0740   34.2020   45.9660 C   0  0  0  0  0  0  0  0  0  0  0  0
   57.9170   32.7990   45.4670 C   0  0  0  0  0  0  0  0  0  0  0  0
   57.4460   32.4310   44.2130 C   0  0  0  0  0  0  0  0  0  0  0  0
   57.3370   31.0450   44.0480 C   0  0  0  0  0  0  0  0  0  0  0  0
   57.7100   30.3190   45.1780 C   0  0  0  0  0  0  0  0  0  0  0  0
   57.6980   28.8510   45.3380 C   0  0  0  0  0  0  0  0  0  0  0  0
   56.5610   28.2540   45.5820 N   0  0  0  0  0  0  0  0  0  0  0  0
   56.4470   26.8320   45.7450 C   0  0  0  0  0  0  0  0  0  0  0  0
   55.3320   26.3200   46.0210 O   0  0  0  0  0  0  0  0  0  0  0  0
   57.6150   26.0190   45.5680 N   0  0  0  0  0  0  0  0  0  0  0  0
   58.8580   26.6720   45.4070 C   0  0  0  0  0  0  0  0  0  0  0  0
   59.8940   25.9210   45.5470 N   0  0  0  0  0  0  0  0  0  0  0  0
   59.3770   24.6230   45.8180 C   0  0  0  0  0  0  0  0  0  0  0  0
   60.1300   23.6330   46.0090 O   0  0  0  0  0  0  0  0  0  0  0  0
   57.8610   24.5960   45.8490 C   0  0  1  0  0  0  0  0  0  0  0  0
   57.3040   24.2540   47.2620 C   0  0  0  0  0  0  0  0  0  0  0  0
   56.0210   23.4190   47.3050 C   0  0  0  0  0  0  0  0  0  0  0  0
   57.3060   23.6880   44.7350 C   0  0  0  0  0  0  0  0  0  0  0  0
   57.9000   22.4430   44.4200 C   0  0  0  0  0  0  0  0  0  0  0  0
   57.3850   21.6390   43.3970 C   0  0  0  0  0  0  0  0  0  0  0  0
   56.2690   22.0530   42.6730 C   0  0  0  0  0  0  0  0  0  0  0  0
   55.6610   23.2700   42.9720 C   0  0  0  0  0  0  0  0  0  0  0  0
   56.1690   24.0790   43.9910 C   0  0  0  0  0  0  0  0  0  0  0  0
   58.9210   28.0870   45.2480 N   0  0  0  0  0  0  0  0  0  0  0  0
   58.1690   31.4100   46.3790 S   0  0  0  0  0  0  0  0  0  0  0  0
   59.9336   34.7636   46.9024 H   0  0  0  0  0  0  0  0  0  0  0  0
   60.1151   33.8802   45.3489 H   0  0  0  0  0  0  0  0  0  0  0  0
   59.5958   35.5998   45.3489 H   0  0  0  0  0  0  0  0  0  0  0  0
   57.7383   34.2529   47.0123 H   0  0  0  0  0  0  0  0  0  0  0  0
   57.4674   34.8709   45.3378 H   0  0  0  0  0  0  0  0  0  0  0  0
   57.1848   33.1561   43.4281 H   0  0  0  0  0  0  0  0  0  0  0  0
   56.9904   30.5742   43.1162 H   0  0  0  0  0  0  0  0  0  0  0  0
   58.0835   23.6977   47.8032 H   0  0  0  0  0  0  0  0  0  0  0  0
   57.0380   25.2214   47.7129 H   0  0  0  0  0  0  0  0  0  0  0  0
   55.7382   23.2350   48.3520 H   0  0  0  0  0  0  0  0  0  0  0  0
   55.2117   23.9639   46.7970 H   0  0  0  0  0  0  0  0  0  0  0  0
   56.1915   22.4584   46.7970 H   0  0  0  0  0  0  0  0  0  0  0  0
   58.7788   22.1024   44.9871 H   0  0  0  0  0  0  0  0  0  0  0  0
   57.8632   20.6763   43.1635 H   0  0  0  0  0  0  0  0  0  0  0  0
   55.8689   21.4202   41.8671 H   0  0  0  0  0  0  0  0  0  0  0  0
   54.7773   23.5952   42.4034 H   0  0  0  0  0  0  0  0  0  0  0  0
   55.6765   25.0359   44.2184 H   0  0  0  0  0  0  0  0  0  0  0  0
   59.8500   28.5470   45.1290 H   0  0  0  0  0  0  0  0  0  0  0  0
  1  2  1  0
  2  3  1  0
  3  4  2  0
  4  5  1  0
  5  6  2  0
  6  7  1  0
  7  8  2  0
  8  9  1  0
  9 10  2  0
  9 11  1  0
 11 12  1  0
 12 13  2  0
 13 14  1  0
 14 15  2  0
 14 16  1  0
 16 17  1  1
 17 18  1  0
 16 19  1  0
 19 20  2  0
 20 21  1  0
 21 22  2  0
 22 23  1  0
 23 24  2  0
 12 25  1  0
  6 26  1  0
 26  3  1  0
 25  7  1  0
 16 11  1  0
 24 19  1  0
  1 27  1  0
  1 28  1  0
  1 29  1  0
  2 30  1  0
  2 31  1  0
  4 32  1  0
  5 33  1  0
 17 34  1  0
 17 35  1  0
 18 36  1  0
 18 37  1  0
 18 38  1  0
 20 39  1  0
 21 40  1  0
 22 41  1  0
 23 42  1  0
 24 43  1  0
 25 44  1  0
M  END
>  <UniqueID>  (51) 
47

>  <SMILES>  (51) 
CCc1ccc(C2=NC(=O)N3C(=NC(=O)[C@]3(CC)c3ccccc3)N2)s1

>  <Energy>  (51) 
96.35998907859177

>  <Genealogy>  (51) 
CCc1ccc(C2=NC(=O)N3C(=NC(=O)[C@]3(CC)c3ccccc3)N2)s1 (chirality)
CCc1ccc(C2=NC(=O)N3C(=NC(=O)[C@]3(CC)c3ccccc3)N2)s1 (3D coordinates assigned)
CCc1ccc(C2=NC(=O)N3C(=NC(=O)[C@]3(CC)c3ccccc3)N2)s1 (nonaromatic ring conformer: 96.35998907859177 kcal/mol)

>  <smiles>  (51) 
CCc1ccc(C2=NC(=O)N3C(=NC(=O)C3(CC)c3ccccc3)N2)s1

>  <score_type>  (51) 
oracle

>  <origin>  (51) 
adg

>  <m_score__min__energy>  (51) 
-8.0800000000000001

>  <m_primary>  (51) 
energy

$$$$
51:0
     RDKit          3D

 57 60  0  0  0  0  0  0  0  0999 V2000
   55.9640   28.2040   44.2530 H   0  0  0  0  0  0  0  0  0  0  0  0
   55.8360   28.0690   45.2490 O   0  0  0  0  0  0  0  0  0  0  0  0
   56.6350   27.2070   46.0040 C   0  0  0  0  0  0  0  0  0  0  0  0
   56.3100   25.8880   46.0460 N   0  0  0  0  0  0  0  0  0  0  0  0
   57.0410   25.0020   46.7680 C   0  0  0  0  0  0  0  0  0  0  0  0
   56.7180   23.7850   46.7850 O   0  0  0  0  0  0  0  0  0  0  0  0
   58.1190   25.4270   47.4760 N   0  0  0  0  0  0  0  0  0  0  0  0
   58.4910   26.7330   47.4710 C   0  0  0  0  0  0  0  0  0  0  0  0
   59.4920   27.0940   48.1470 O   0  0  0  0  0  0  0  0  0  0  0  0
   57.7650   27.6660   46.7140 C   0  0  0  0  0  0  0  0  0  0  0  0
   58.1360   29.0940   46.7400 C   0  0  0  0  0  0  0  0  0  0  0  0
   57.3495   29.8321   46.5239 H   0  0  0  0  0  0  0  0  0  0  0  0
   59.3750   29.5560   47.0110 C   0  0  0  0  0  0  0  0  0  0  0  0
   60.5180   29.5390   46.2050 C   0  0  0  0  0  0  0  0  0  0  0  0
   60.6900   28.9610   44.8350 C   0  0  0  0  0  0  0  0  0  0  0  0
   61.0029   27.9096   44.9172 H   0  0  0  0  0  0  0  0  0  0  0  0
   59.7359   29.0181   44.2905 H   0  0  0  0  0  0  0  0  0  0  0  0
   61.4576   29.5305   44.2905 H   0  0  0  0  0  0  0  0  0  0  0  0
   61.5280   30.1540   46.8470 N   0  0  0  0  0  0  0  0  0  0  0  0
   61.0990   30.5420   48.0390 N   0  0  0  0  0  0  0  0  0  0  0  0
   61.9320   31.3720   48.9150 C   0  0  0  0  0  0  0  0  0  0  0  0
   61.4614   31.4484   49.9063 H   0  0  0  0  0  0  0  0  0  0  0  0
   62.9274   30.9158   49.0201 H   0  0  0  0  0  0  0  0  0  0  0  0
   62.0650   32.7420   48.3150 C   0  0  0  0  0  0  0  0  0  0  0  0
   63.1950   33.3000   48.3040 O   0  0  0  0  0  0  0  0  0  0  0  0
   60.9540   33.3710   47.6530 N   0  0  0  0  0  0  0  0  0  0  0  0
   59.6770   33.5320   48.3560 C   0  0  0  0  0  0  0  0  0  0  0  0
   59.2522   32.5390   48.5644 H   0  0  0  0  0  0  0  0  0  0  0  0
   59.8572   34.0756   49.2951 H   0  0  0  0  0  0  0  0  0  0  0  0
   58.6840   34.3360   47.5040 C   0  0  0  0  0  0  0  0  0  0  0  0
   57.6792   34.2411   47.9415 H   0  0  0  0  0  0  0  0  0  0  0  0
   59.0097   35.3866   47.4943 H   0  0  0  0  0  0  0  0  0  0  0  0
   58.6480   33.8490   46.1080 N   0  0  0  0  0  0  0  0  0  0  0  0
   57.9890   32.5270   46.0130 C   0  0  0  0  0  0  0  0  0  0  0  0
   58.6601   31.7597   46.4262 H   0  0  0  0  0  0  0  0  0  0  0  0
   57.0482   32.5620   46.5820 H   0  0  0  0  0  0  0  0  0  0  0  0
   57.6720   32.1850   44.5800 C   0  0  0  0  0  0  0  0  0  0  0  0
   58.0980   33.0270   43.5360 C   0  0  0  0  0  0  0  0  0  0  0  0
   58.6591   33.9448   43.7657 H   0  0  0  0  0  0  0  0  0  0  0  0
   57.8100   32.7000   42.2080 C   0  0  0  0  0  0  0  0  0  0  0  0
   58.1412   33.3625   41.3948 H   0  0  0  0  0  0  0  0  0  0  0  0
   57.1010   31.5310   41.9120 C   0  0  0  0  0  0  0  0  0  0  0  0
   56.8728   31.2771   40.8663 H   0  0  0  0  0  0  0  0  0  0  0  0
   56.6820   30.6850   42.9430 C   0  0  0  0  0  0  0  0  0  0  0  0
   56.1265   29.7651   42.7081 H   0  0  0  0  0  0  0  0  0  0  0  0
   56.9690   31.0080   44.2730 C   0  0  0  0  0  0  0  0  0  0  0  0
   56.6430   30.3378   45.0821 H   0  0  0  0  0  0  0  0  0  0  0  0
   59.9800   33.8680   45.4370 C   0  0  0  0  0  0  0  0  0  0  0  0
   60.1191   32.9059   44.9221 H   0  0  0  0  0  0  0  0  0  0  0  0
   59.9717   34.7266   44.7494 H   0  0  0  0  0  0  0  0  0  0  0  0
   61.1730   34.0810   46.3900 C   0  0  0  0  0  0  0  0  0  0  0  0
   62.0887   33.6998   45.9145 H   0  0  0  0  0  0  0  0  0  0  0  0
   61.2737   35.1562   46.5991 H   0  0  0  0  0  0  0  0  0  0  0  0
   59.7980   30.1830   48.1860 C   0  0  0  0  0  0  0  0  0  0  0  0
   59.0630   30.3880   49.2910 C   0  0  0  0  0  0  0  0  0  0  0  0
   59.5064   30.8961   50.1601 H   0  0  0  0  0  0  0  0  0  0  0  0
   58.0175   30.0479   49.3271 H   0  0  0  0  0  0  0  0  0  0  0  0
  1  2  1  0
  2  3  1  0
  3  4  1  0
  4  5  1  0
  5  6  2  0
  5  7  1  0
  7  8  1  0
  8  9  2  0
  8 10  1  0
 10 11  1  0
 11 12  1  0
 11 13  2  0
 13 14  1  0
 14 15  1  0
 15 16  1  0
 15 17  1  0
 15 18  1  0
 14 19  2  0
 19 20  1  0
 20 21  1  0
 21 22  1  0
 21 23  1  0
 21 24  1  0
 24 25  2  0
 24 26  1  0
 26 27  1  0
 27 28  1  0
 27 29  1  0
 27 30  1  0
 30 31  1  0
 30 32  1  0
 30 33  1  0
 33 34  1  0
 34 35  1  0
 34 36  1  0
 34 37  1  0
 37 38  2  0
 38 39  1  0
 38 40  1  0
 40 41  1  0
 40 42  2  0
 42 43  1  0
 42 44  1  0
 44 45  1  0
 44 46  2  0
 46 47  1  0
 33 48  1  0
 48 49  1  0
 48 50  1  0
 48 51  1  0
 51 52  1  0
 51 53  1  0
 20 54  1  0
 54 55  2  0
 55 56  1  0
 55 57  1  0
 10  3  2  0
 54 13  1  0
 51 26  1  0
 46 37  1  0
M  CHG  2   4  -1   7  -1
M  END
>  <UniqueID>  (52) 
48

>  <SMILES>  (52) 
C=c1/c(=C/c2c(O)[n-]c(=O)[n-]c2=O)c(C)nn1CC(=O)N1CCN(Cc2ccccc2)CC1

>  <Energy>  (52) 
112.57372274285764

>  <Genealogy>  (52) 
C=c1c(=Cc2c(O)[n-]c(=O)[n-]c2=O)c(C)nn1CC(=O)N1CCN(Cc2ccccc2)CC1 (protonated)
C=c1/c(=C/c2c(O)[n-]c(=O)[n-]c2=O)c(C)nn1CC(=O)N1CCN(Cc2ccccc2)CC1 (cis-trans isomerization)
C=c1/c(=C/c2c(O)[n-]c(=O)[n-]c2=O)c(C)nn1CC(=O)N1CCN(Cc2ccccc2)CC1 (3D coordinates assigned)
C=c1/c(=C/c2c(O)[n-]c(=O)[n-]c2=O)c(C)nn1CC(=O)N1CCN(Cc2ccccc2)CC1 (nonaromatic ring conformer: 112.57372274285764 kcal/mol)

>  <smiles>  (52) 
C=c1c(=Cc2c(O)[nH]c(=O)[nH]c2=O)c(C)nn1CC(=O)N1CCN(Cc2ccccc2)CC1

>  <score_type>  (52) 
oracle

>  <origin>  (52) 
adg

>  <m_score__min__energy>  (52) 
-14.43

>  <m_primary>  (52) 
energy

$$$$
52:0
     RDKit          3D

 63 67  0  0  0  0  0  0  0  0999 V2000
   62.5410   34.1220   48.2130 O   0  0  0  0  0  0  0  0  0  0  0  0
   61.4450   33.7980   48.7530 C   0  0  0  0  0  0  0  0  0  0  0  0
   61.4540   33.3590   50.1960 C   0  0  0  0  0  0  0  0  0  0  0  0
   62.1090   31.6640   50.4610 S   0  0  0  0  0  0  0  0  0  0  0  0
   61.1040   30.8040   49.2290 C   0  0  0  0  0  0  0  0  0  0  0  0
   61.4860   30.8110   47.8780 C   0  0  0  0  0  0  0  0  0  0  0  0
   60.6840   30.1890   46.9160 C   0  0  0  0  0  0  0  0  0  0  0  0
   59.5130   29.5240   47.2970 C   0  0  0  0  0  0  0  0  0  0  0  0
   59.1630   29.4480   48.6470 C   0  0  0  0  0  0  0  0  0  0  0  0
   59.9600   30.0700   49.6190 C   0  0  0  0  0  0  0  0  0  0  0  0
   59.7090   29.7690   51.0400 C   0  0  0  0  0  0  0  0  0  0  0  0
   59.6580   28.5580   51.3910 O   0  0  0  0  0  0  0  0  0  0  0  0
   59.5110   30.8300   52.0090 N   0  0  1  0  0  0  0  0  0  0  0  0
   58.8330   31.9970   51.4080 C   0  0  0  0  0  0  0  0  0  0  0  0
   57.4060   31.6720   50.9490 C   0  0  0  0  0  0  0  0  0  0  0  0
   56.6410   30.9030   51.9940 C   0  0  0  0  0  0  0  0  0  0  0  0
   55.2430   30.8150   51.8920 C   0  0  0  0  0  0  0  0  0  0  0  0
   54.5090   30.0980   52.8370 C   0  0  0  0  0  0  0  0  0  0  0  0
   55.1630   29.4510   53.8830 C   0  0  0  0  0  0  0  0  0  0  0  0
   56.5560   29.5170   53.9870 C   0  0  0  0  0  0  0  0  0  0  0  0
   57.3080   30.2300   53.0410 C   0  0  0  0  0  0  0  0  0  0  0  0
   58.8060   30.3480   53.2210 C   0  0  0  0  0  0  0  0  0  0  0  0
   60.2210   33.8910   47.9980 N   0  0  0  0  0  0  0  0  0  0  0  0
   60.0430   34.9980   47.0500 C   0  0  0  0  0  0  0  0  0  0  0  0
   59.4600   34.4860   45.7330 C   0  0  0  0  0  0  0  0  0  0  0  0
   58.3580   33.5410   45.9580 N   0  0  0  0  0  0  0  0  0  0  0  0
   57.5300   33.1680   44.8510 C   0  0  0  0  0  0  0  0  0  0  0  0
   57.0150   34.0610   44.1260 O   0  0  0  0  0  0  0  0  0  0  0  0
   57.3130   31.7560   44.5200 C   0  0  0  0  0  0  0  0  0  0  0  0
   57.3080   31.2200   43.2490 C   0  0  0  0  0  0  0  0  0  0  0  0
   57.0250   29.8820   43.4130 C   0  0  0  0  0  0  0  0  0  0  0  0
   56.8870   29.6820   44.7710 C   0  0  0  0  0  0  0  0  0  0  0  0
   57.0630   30.8190   45.4050 O   0  0  0  0  0  0  0  0  0  0  0  0
   57.9160   33.2340   47.3230 C   0  0  0  0  0  0  0  0  0  0  0  0
   59.1170   32.9540   48.2380 C   0  0  0  0  0  0  0  0  0  0  0  0
   62.0769   34.0631   50.7672 H   0  0  0  0  0  0  0  0  0  0  0  0
   60.4063   33.3497   50.5309 H   0  0  0  0  0  0  0  0  0  0  0  0
   62.4196   31.3076   47.5751 H   0  0  0  0  0  0  0  0  0  0  0  0
   60.9747   30.2225   45.8556 H   0  0  0  0  0  0  0  0  0  0  0  0
   58.8691   29.0618   46.5343 H   0  0  0  0  0  0  0  0  0  0  0  0
   58.2592   28.8984   48.9489 H   0  0  0  0  0  0  0  0  0  0  0  0
   60.4600   31.1570   52.3110 H   0  0  0  0  0  0  0  0  0  0  0  0
   58.7888   32.8032   52.1550 H   0  0  0  0  0  0  0  0  0  0  0  0
   59.4096   32.3000   50.5215 H   0  0  0  0  0  0  0  0  0  0  0  0
   56.8762   32.6134   50.7414 H   0  0  0  0  0  0  0  0  0  0  0  0
   57.4724   31.0468   50.0464 H   0  0  0  0  0  0  0  0  0  0  0  0
   54.7233   31.3149   51.0613 H   0  0  0  0  0  0  0  0  0  0  0  0
   53.4133   30.0435   52.7562 H   0  0  0  0  0  0  0  0  0  0  0  0
   54.5828   28.8873   54.6284 H   0  0  0  0  0  0  0  0  0  0  0  0
   57.0661   29.0060   54.8168 H   0  0  0  0  0  0  0  0  0  0  0  0
   59.0036   31.0527   54.0422 H   0  0  0  0  0  0  0  0  0  0  0  0
   59.1865   29.3387   53.4369 H   0  0  0  0  0  0  0  0  0  0  0  0
   59.3577   35.7405   47.4849 H   0  0  0  0  0  0  0  0  0  0  0  0
   61.0226   35.4571   46.8510 H   0  0  0  0  0  0  0  0  0  0  0  0
   59.0832   35.3416   45.1533 H   0  0  0  0  0  0  0  0  0  0  0  0
   60.2568   33.9601   45.1866 H   0  0  0  0  0  0  0  0  0  0  0  0
   57.4916   31.7500   42.3028 H   0  0  0  0  0  0  0  0  0  0  0  0
   56.9285   29.1252   42.6206 H   0  0  0  0  0  0  0  0  0  0  0  0
   56.6636   28.7173   45.2500 H   0  0  0  0  0  0  0  0  0  0  0  0
   57.3526   34.0911   47.7204 H   0  0  0  0  0  0  0  0  0  0  0  0
   57.2803   32.3368   47.2931 H   0  0  0  0  0  0  0  0  0  0  0  0
   58.7944   33.0460   49.2856 H   0  0  0  0  0  0  0  0  0  0  0  0
   59.4799   31.9385   48.0213 H   0  0  0  0  0  0  0  0  0  0  0  0
  1  2  2  0
  2  3  1  0
  3  4  1  0
  4  5  1  0
  5  6  2  0
  6  7  1  0
  7  8  2  0
  8  9  1  0
  9 10  2  0
 10 11  1  0
 11 12  2  0
 11 13  1  0
 13 14  1  0
 14 15  1  0
 15 16  1  0
 16 17  2  0
 17 18  1  0
 18 19  2  0
 19 20  1  0
 20 21  2  0
 21 22  1  0
  2 23  1  0
 23 24  1  0
 24 25  1  0
 25 26  1  0
 26 27  1  0
 27 28  2  0
 27 29  1  0
 29 30  2  0
 30 31  1  0
 31 32  2  0
 32 33  1  0
 26 34  1  0
 34 35  1  0
 10  5  1  0
 22 13  1  0
 35 23  1  0
 21 16  1  0
 33 29  1  0
  3 36  1  0
  3 37  1  0
  6 38  1  0
  7 39  1  0
  8 40  1  0
  9 41  1  0
 13 42  1  1
 14 43  1  0
 14 44  1  0
 15 45  1  0
 15 46  1  0
 17 47  1  0
 18 48  1  0
 19 49  1  0
 20 50  1  0
 22 51  1  0
 22 52  1  0
 24 53  1  0
 24 54  1  0
 25 55  1  0
 25 56  1  0
 30 57  1  0
 31 58  1  0
 32 59  1  0
 34 60  1  0
 34 61  1  0
 35 62  1  0
 35 63  1  0
M  CHG  1  13   1
M  END
>  <UniqueID>  (53) 
49

>  <SMILES>  (53) 
O=C(CSc1ccccc1C(=O)[N@H+]1CCc2ccccc2C1)N1CCN(C(=O)c2ccco2)CC1

>  <Energy>  (53) 
112.57227026007361

>  <Genealogy>  (53) 
O=C(CSc1ccccc1C(=O)[NH+]1CCc2ccccc2C1)N1CCN(C(=O)c2ccco2)CC1 (protonated)
O=C(CSc1ccccc1C(=O)[N@H+]1CCc2ccccc2C1)N1CCN(C(=O)c2ccco2)CC1 (chirality)
O=C(CSc1ccccc1C(=O)[N@H+]1CCc2ccccc2C1)N1CCN(C(=O)c2ccco2)CC1 (3D coordinates assigned)
O=C(CSc1ccccc1C(=O)[N@H+]1CCc2ccccc2C1)N1CCN(C(=O)c2ccco2)CC1 (nonaromatic ring conformer: 112.57227026007361 kcal/mol)

>  <smiles>  (53) 
O=C(CSc1ccccc1C(=O)N1CCc2ccccc2C1)N1CCN(C(=O)c2ccco2)CC1

>  <score_type>  (53) 
oracle

>  <origin>  (53) 
adg

>  <m_score__min__energy>  (53) 
-8.1099999999999994

>  <m_primary>  (53) 
energy

$$$$
53:0
     RDKit          3D

 40 42  0  0  0  0  0  0  0  0999 V2000
   60.4260   28.7540   48.4190 O   0  0  0  0  0  0  0  0  0  0  0  0
   60.1520   29.3170   47.3260 C   0  0  0  0  0  0  0  0  0  0  0  0
   59.8520   28.4690   46.1200 C   0  0  0  0  0  0  0  0  0  0  0  0
   58.3900   28.5490   45.7730 C   0  0  0  0  0  0  0  0  0  0  0  0
   57.6010   27.4650   46.0050 N   0  0  0  0  0  0  0  0  0  0  0  0
   56.2740   27.4800   45.7190 C   0  0  0  0  0  0  0  0  0  0  0  0
   55.5700   26.4630   45.9480 O   0  0  0  0  0  0  0  0  0  0  0  0
   55.7060   28.5940   45.1910 N   0  0  0  0  0  0  0  0  0  0  0  0
   56.4430   29.7060   44.9410 C   0  0  0  0  0  0  0  0  0  0  0  0
   55.8850   30.7240   44.4520 O   0  0  0  0  0  0  0  0  0  0  0  0
   57.8170   29.7120   45.2260 C   0  0  0  0  0  0  0  0  0  0  0  0
   58.6000   30.8410   44.9740 O   0  0  0  0  0  0  0  0  0  0  0  0
   60.0380   30.7460   47.2950 N   0  0  0  0  0  0  0  0  0  0  0  0
   61.1360   31.6620   47.2090 C   0  0  0  0  0  0  0  0  0  0  0  0
   62.4220   31.2710   47.6130 C   0  0  0  0  0  0  0  0  0  0  0  0
   63.4920   32.1640   47.5160 C   0  0  0  0  0  0  0  0  0  0  0  0
   63.2850   33.4550   47.0260 C   0  0  0  0  0  0  0  0  0  0  0  0
   62.0030   33.8600   46.6460 C   0  0  0  0  0  0  0  0  0  0  0  0
   60.9200   32.9760   46.7540 C   0  0  0  0  0  0  0  0  0  0  0  0
   59.6150   33.4130   46.3480 N   0  0  0  0  0  0  0  0  0  0  0  0
   58.5690   33.5680   47.3590 C   0  0  0  0  0  0  0  0  0  0  0  0
   57.1930   33.4100   46.7050 C   0  0  0  0  0  0  0  0  0  0  0  0
   57.0700   34.2540   45.5760 O   0  0  0  0  0  0  0  0  0  0  0  0
   57.9890   33.8520   44.5750 C   0  0  0  0  0  0  0  0  0  0  0  0
   59.4300   34.0610   45.0480 C   0  0  0  0  0  0  0  0  0  0  0  0
   60.4471   28.8281   45.2674 H   0  0  0  0  0  0  0  0  0  0  0  0
   60.1083   27.4235   46.3463 H   0  0  0  0  0  0  0  0  0  0  0  0
   59.2790   31.1890   45.6410 H   0  0  0  0  0  0  0  0  0  0  0  0
   62.5880   30.2577   48.0075 H   0  0  0  0  0  0  0  0  0  0  0  0
   64.4994   31.8495   47.8262 H   0  0  0  0  0  0  0  0  0  0  0  0
   64.1309   34.1528   46.9392 H   0  0  0  0  0  0  0  0  0  0  0  0
   61.8425   34.8775   46.2601 H   0  0  0  0  0  0  0  0  0  0  0  0
   58.6949   32.8000   48.1364 H   0  0  0  0  0  0  0  0  0  0  0  0
   58.6449   34.5675   47.8121 H   0  0  0  0  0  0  0  0  0  0  0  0
   57.0625   32.3645   46.3889 H   0  0  0  0  0  0  0  0  0  0  0  0
   56.4217   33.6892   47.4379 H   0  0  0  0  0  0  0  0  0  0  0  0
   57.8340   32.7866   44.3493 H   0  0  0  0  0  0  0  0  0  0  0  0
   57.8204   34.4613   43.6748 H   0  0  0  0  0  0  0  0  0  0  0  0
   60.1237   33.6206   44.3166 H   0  0  0  0  0  0  0  0  0  0  0  0
   59.6327   35.1380   45.1426 H   0  0  0  0  0  0  0  0  0  0  0  0
  1  2  2  0
  2  3  1  0
  3  4  1  0
  4  5  1  0
  5  6  1  0
  6  7  2  0
  6  8  1  0
  8  9  1  0
  9 10  2  0
  9 11  1  0
 11 12  1  0
  2 13  1  0
 13 14  1  0
 14 15  2  0
 15 16  1  0
 16 17  2  0
 17 18  1  0
 18 19  2  0
 19 20  1  0
 20 21  1  0
 21 22  1  0
 22 23  1  0
 23 24  1  0
 24 25  1  0
 11  4  2  0
 19 14  1  0
 25 20  1  0
  3 26  1  0
  3 27  1  0
 12 28  1  0
 15 29  1  0
 16 30  1  0
 17 31  1  0
 18 32  1  0
 21 33  1  0
 21 34  1  0
 22 35  1  0
 22 36  1  0
 24 37  1  0
 24 38  1  0
 25 39  1  0
 25 40  1  0
M  CHG  3   5  -1   8  -1  13  -1
M  END
>  <UniqueID>  (54) 
50

>  <SMILES>  (54) 
O=C(Cc1[n-]c(=O)[n-]c(=O)c1O)[N-]c1ccccc1N1CCOCC1

>  <Energy>  (54) 
50.96095977287401

>  <Genealogy>  (54) 
O=C(Cc1[n-]c(=O)[n-]c(=O)c1O)[N-]c1ccccc1N1CCOCC1 (protonated)
O=C(Cc1[n-]c(=O)[n-]c(=O)c1O)[N-]c1ccccc1N1CCOCC1 (3D coordinates assigned)
O=C(Cc1[n-]c(=O)[n-]c(=O)c1O)[N-]c1ccccc1N1CCOCC1 (nonaromatic ring conformer: 50.96095977287401 kcal/mol)

>  <smiles>  (54) 
O=C(Cc1[nH]c(=O)[nH]c(=O)c1O)Nc1ccccc1N1CCOCC1

>  <score_type>  (54) 
oracle

>  <origin>  (54) 
adg

>  <m_score__min__energy>  (54) 
-12.34

>  <m_primary>  (54) 
energy

$$$$
54:0
     RDKit          3D

 60 63  0  0  0  0  0  0  0  0999 V2000
   51.0670   24.0930   44.1830 C   0  0  0  0  0  0  0  0  0  0  0  0
   52.2060   23.2980   44.6080 N   0  0  0  0  0  0  0  0  0  0  0  0
   53.1450   23.7520   45.5840 C   0  0  0  0  0  0  0  0  0  0  0  0
   53.4810   24.9630   45.6160 O   0  0  0  0  0  0  0  0  0  0  0  0
   53.6170   22.8210   46.5650 N   0  0  0  0  0  0  0  0  0  0  0  0
   54.8350   22.5510   46.9610 C   0  0  0  0  0  0  0  0  0  0  0  0
   55.0200   21.4550   47.8100 C   0  0  0  0  0  0  0  0  0  0  0  0
   56.2960   21.1310   48.2770 C   0  0  0  0  0  0  0  0  0  0  0  0
   57.3640   21.8750   47.8940 N   0  0  0  0  0  0  0  0  0  0  0  0
   57.2310   22.9420   47.0570 C   0  0  0  0  0  0  0  0  0  0  0  0
   58.3380   23.7210   46.7080 O   0  0  0  0  0  0  0  0  0  0  0  0
   58.2740   25.0820   46.3800 C   0  0  0  0  0  0  0  0  0  0  0  0
   57.7740   25.5170   45.1420 C   0  0  0  0  0  0  0  0  0  0  0  0
   57.7150   26.8820   44.8450 C   0  0  0  0  0  0  0  0  0  0  0  0
   58.1830   27.8330   45.7720 C   0  0  0  0  0  0  0  0  0  0  0  0
   58.1670   29.2480   45.4960 N   0  0  0  0  0  0  0  0  0  0  0  0
   56.9850   30.0210   45.2070 C   0  0  0  0  0  0  0  0  0  0  0  0
   55.8510   29.4740   45.1820 O   0  0  0  0  0  0  0  0  0  0  0  0
   57.0890   31.4010   44.8340 N   0  0  0  0  0  0  0  0  0  0  0  0
   57.9470   32.3580   45.4680 C   0  0  0  0  0  0  0  0  0  0  0  0
   58.8760   31.9130   46.4150 C   0  0  0  0  0  0  0  0  0  0  0  0
   59.6950   32.8290   47.0900 C   0  0  0  0  0  0  0  0  0  0  0  0
   60.7520   32.2920   48.3970 S   0  0  0  0  0  0  0  0  0  0  0  0
   61.3970   30.9930   47.9960 O   0  0  0  0  0  0  0  0  0  0  0  0
   59.9420   32.0620   49.6420 O   0  0  0  0  0  0  0  0  0  0  0  0
   61.9790   33.5080   48.6720 N   0  0  0  0  0  0  0  0  0  0  0  0
   62.8600   33.1630   49.8090 C   0  0  0  0  0  0  0  0  0  0  0  0
   64.1660   32.4800   49.3670 C   0  0  0  0  0  0  0  0  0  0  0  0
   63.9740   31.7740   48.1620 O   0  0  0  0  0  0  0  0  0  0  0  0
   63.7460   32.6790   47.0970 C   0  0  0  0  0  0  0  0  0  0  0  0
   62.7420   33.8020   47.4470 C   0  0  0  0  0  0  0  0  0  0  0  0
   59.6130   34.1910   46.7760 C   0  0  0  0  0  0  0  0  0  0  0  0
   58.7180   34.6340   45.8020 C   0  0  0  0  0  0  0  0  0  0  0  0
   57.8810   33.7250   45.1500 C   0  0  0  0  0  0  0  0  0  0  0  0
   57.0150   34.1730   44.2060 F   0  0  0  0  0  0  0  0  0  0  0  0
   58.6380   27.3890   47.0250 C   0  0  0  0  0  0  0  0  0  0  0  0
   58.6760   26.0250   47.3280 C   0  0  0  0  0  0  0  0  0  0  0  0
   55.9680   23.2940   46.5700 C   0  0  0  0  0  0  0  0  0  0  0  0
   50.5307   24.4673   45.0674 H   0  0  0  0  0  0  0  0  0  0  0  0
   51.4180   24.9433   43.5799 H   0  0  0  0  0  0  0  0  0  0  0  0
   50.3898   23.4704   43.5799 H   0  0  0  0  0  0  0  0  0  0  0  0
   54.1559   20.8448   48.1116 H   0  0  0  0  0  0  0  0  0  0  0  0
   56.4346   20.2748   48.9536 H   0  0  0  0  0  0  0  0  0  0  0  0
   57.4271   24.7804   44.4024 H   0  0  0  0  0  0  0  0  0  0  0  0
   57.3007   27.2148   43.8819 H   0  0  0  0  0  0  0  0  0  0  0  0
   59.0810   29.6900   45.2670 H   0  0  0  0  0  0  0  0  0  0  0  0
   58.9642   30.8381   46.6311 H   0  0  0  0  0  0  0  0  0  0  0  0
   63.1125   34.0866   50.3506 H   0  0  0  0  0  0  0  0  0  0  0  0
   62.3142   32.4518   50.4463 H   0  0  0  0  0  0  0  0  0  0  0  0
   64.9417   33.2456   49.2177 H   0  0  0  0  0  0  0  0  0  0  0  0
   64.4768   31.7704   50.1479 H   0  0  0  0  0  0  0  0  0  0  0  0
   64.7051   33.1424   46.8223 H   0  0  0  0  0  0  0  0  0  0  0  0
   63.3099   32.1012   46.2688 H   0  0  0  0  0  0  0  0  0  0  0  0
   63.2974   34.7402   47.5928 H   0  0  0  0  0  0  0  0  0  0  0  0
   62.0258   33.8840   46.6161 H   0  0  0  0  0  0  0  0  0  0  0  0
   60.2563   34.9140   47.2990 H   0  0  0  0  0  0  0  0  0  0  0  0
   58.6711   35.7029   45.5464 H   0  0  0  0  0  0  0  0  0  0  0  0
   58.9678   28.1226   47.7754 H   0  0  0  0  0  0  0  0  0  0  0  0
   59.0240   25.6931   48.3173 H   0  0  0  0  0  0  0  0  0  0  0  0
   55.8589   24.1473   45.8845 H   0  0  0  0  0  0  0  0  0  0  0  0
  1  2  1  0
  2  3  1  0
  3  4  2  0
  3  5  1  0
  5  6  2  3
  6  7  1  0
  7  8  2  0
  8  9  1  0
  9 10  1  0
 10 11  1  0
 11 12  1  0
 12 13  2  0
 13 14  1  0
 14 15  2  0
 15 16  1  0
 16 17  1  0
 17 18  2  0
 17 19  1  0
 19 20  1  0
 20 21  2  0
 21 22  1  0
 22 23  1  0
 23 24  2  0
 23 25  2  0
 23 26  1  0
 26 27  1  0
 27 28  1  0
 28 29  1  0
 29 30  1  0
 30 31  1  0
 22 32  2  0
 32 33  1  0
 33 34  2  0
 34 35  1  0
 15 36  1  0
 36 37  2  0
 10 38  2  0
 38  6  1  0
 37 12  1  0
 34 20  1  0
 31 26  1  0
  1 39  1  0
  1 40  1  0
  1 41  1  0
  7 42  1  0
  8 43  1  0
 13 44  1  0
 14 45  1  0
 16 46  1  0
 21 47  1  0
 27 48  1  0
 27 49  1  0
 28 50  1  0
 28 51  1  0
 30 52  1  0
 30 53  1  0
 31 54  1  0
 31 55  1  0
 32 56  1  0
 33 57  1  0
 36 58  1  0
 37 59  1  0
 38 60  1  0
M  CHG  3   2  -1   9  -1  19  -1
M  END
>  <UniqueID>  (55) 
51

>  <SMILES>  (55) 
C[N-]C(=O)N=c1cc[n-]c(Oc2ccc(NC(=O)[N-]c3cc(S(=O)(=O)N4CCOCC4)ccc3F)cc2)c1

>  <Energy>  (55) 
95.15958710802165

>  <Genealogy>  (55) 
C[N-]C(=O)N=c1cc[n-]c(Oc2ccc(NC(=O)[N-]c3cc(S(=O)(=O)N4CCOCC4)ccc3F)cc2)c1 (protonated)
C[N-]C(=O)N=c1cc[n-]c(Oc2ccc(NC(=O)[N-]c3cc(S(=O)(=O)N4CCOCC4)ccc3F)cc2)c1 (3D coordinates assigned)
C[N-]C(=O)N=c1cc[n-]c(Oc2ccc(NC(=O)[N-]c3cc(S(=O)(=O)N4CCOCC4)ccc3F)cc2)c1 (nonaromatic ring conformer: 95.15958710802165 kcal/mol)

>  <smiles>  (55) 
CNC(=O)N=c1cc[nH]c(Oc2ccc(NC(=O)Nc3cc(S(=O)(=O)N4CCOCC4)ccc3F)cc2)c1

>  <score_type>  (55) 
oracle

>  <origin>  (55) 
adg

>  <m_score__min__energy>  (55) 
-14.5

>  <m_primary>  (55) 
energy

$$$$
55:0
     RDKit          3D

 58 61  0  0  0  0  0  0  0  0999 V2000
   60.3130   27.7110   46.5910 C   0  0  0  0  0  0  0  0  0  0  0  0
   59.3440   28.5760   46.2530 C   0  0  0  0  0  0  0  0  0  0  0  0
   58.1880   28.3050   45.5010 C   0  0  0  0  0  0  0  0  0  0  0  0
   57.6690   27.1430   45.0590 C   0  0  0  0  0  0  0  0  0  0  0  0
   57.1510   26.0560   45.9030 C   0  0  0  0  0  0  0  0  0  0  0  0
   57.8870   24.9990   46.2900 N   0  0  0  0  0  0  0  0  0  0  0  0
   56.9930   24.2130   46.9290 C   0  0  0  0  0  0  0  0  0  0  0  0
   57.3120   23.1170   47.4590 O   0  0  0  0  0  0  0  0  0  0  0  0
   55.7300   24.6890   46.9450 N   0  0  0  0  0  0  0  0  0  0  0  0
   55.8440   25.8480   46.2770 C   0  0  0  0  0  0  0  0  0  0  0  0
   54.7720   26.6880   45.9990 O   0  0  0  0  0  0  0  0  0  0  0  0
   57.5780   29.5280   45.2770 C   0  0  0  0  0  0  0  0  0  0  0  0
   58.3340   30.4810   45.9270 C   0  0  0  0  0  0  0  0  0  0  0  0
   58.0040   31.9410   45.9810 C   0  0  0  0  0  0  0  0  0  0  0  0
   59.3970   29.9040   46.5280 N   0  0  0  0  0  0  0  0  0  0  0  0
   60.4080   30.6010   47.2790 C   0  0  0  0  0  0  0  0  0  0  0  0
   61.0620   31.7070   46.7280 C   0  0  0  0  0  0  0  0  0  0  0  0
   62.0400   32.3770   47.4630 C   0  0  0  0  0  0  0  0  0  0  0  0
   62.3660   31.9320   48.7540 C   0  0  0  0  0  0  0  0  0  0  0  0
   63.3590   32.6260   49.5350 N   0  0  0  0  0  0  0  0  0  0  0  0
   64.6310   33.0520   48.9400 C   0  0  0  0  0  0  0  0  0  0  0  0
   65.8190   32.5440   49.7840 C   0  0  0  0  0  0  0  0  0  0  0  0
   65.4390   32.2180   51.1810 N   0  0  0  0  0  0  0  0  0  0  0  0
   66.6360   32.1680   52.0480 C   0  0  0  0  0  0  0  0  0  0  0  0
   66.9080   30.7400   52.5500 C   0  0  0  0  0  0  0  0  0  0  0  0
   66.1940   29.6840   51.6950 C   0  0  0  0  0  0  0  0  0  0  0  0
   64.7520   29.5730   52.0830 C   0  0  0  0  0  0  0  0  0  0  0  0
   64.4360   29.2200   53.2520 O   0  0  0  0  0  0  0  0  0  0  0  0
   63.7570   29.8440   51.1510 O   0  0  0  0  0  0  0  0  0  0  0  0
   64.4300   33.1670   51.6930 C   0  0  0  0  0  0  0  0  0  0  0  0
   63.1090   32.9390   50.9480 C   0  0  0  0  0  0  0  0  0  0  0  0
   61.7110   30.8500   49.2730 N   0  0  0  0  0  0  0  0  0  0  0  0
   60.7610   30.1810   48.5660 C   0  0  0  0  0  0  0  0  0  0  0  0
   61.1719   28.0527   47.1873 H   0  0  0  0  0  0  0  0  0  0  0  0
   60.2483   26.6603   46.2717 H   0  0  0  0  0  0  0  0  0  0  0  0
   57.6292   26.9941   43.9698 H   0  0  0  0  0  0  0  0  0  0  0  0
   56.6638   29.7057   44.6916 H   0  0  0  0  0  0  0  0  0  0  0  0
   57.9315   32.2619   47.0306 H   0  0  0  0  0  0  0  0  0  0  0  0
   58.7951   32.5147   45.4760 H   0  0  0  0  0  0  0  0  0  0  0  0
   57.0430   32.1186   45.4760 H   0  0  0  0  0  0  0  0  0  0  0  0
   60.8052   32.0489   45.7145 H   0  0  0  0  0  0  0  0  0  0  0  0
   62.5533   33.2498   47.0332 H   0  0  0  0  0  0  0  0  0  0  0  0
   64.7093   32.6433   47.9218 H   0  0  0  0  0  0  0  0  0  0  0  0
   64.6597   34.1512   48.9104 H   0  0  0  0  0  0  0  0  0  0  0  0
   66.2238   31.6376   49.3100 H   0  0  0  0  0  0  0  0  0  0  0  0
   66.5636   33.3527   49.8252 H   0  0  0  0  0  0  0  0  0  0  0  0
   67.5074   32.5177   51.4750 H   0  0  0  0  0  0  0  0  0  0  0  0
   66.4575   32.8130   52.9210 H   0  0  0  0  0  0  0  0  0  0  0  0
   67.9912   30.5517   52.5154 H   0  0  0  0  0  0  0  0  0  0  0  0
   66.5231   30.6621   53.5775 H   0  0  0  0  0  0  0  0  0  0  0  0
   66.2614   29.9719   50.6355 H   0  0  0  0  0  0  0  0  0  0  0  0
   66.6794   28.7105   51.8585 H   0  0  0  0  0  0  0  0  0  0  0  0
   64.2798   33.0006   52.7699 H   0  0  0  0  0  0  0  0  0  0  0  0
   64.7746   34.1992   51.5325 H   0  0  0  0  0  0  0  0  0  0  0  0
   62.5712   32.1003   51.4143 H   0  0  0  0  0  0  0  0  0  0  0  0
   62.5063   33.8573   51.0062 H   0  0  0  0  0  0  0  0  0  0  0  0
   61.9150   30.5320   50.2470 H   0  0  0  0  0  0  0  0  0  0  0  0
   60.2669   29.3038   49.0091 H   0  0  0  0  0  0  0  0  0  0  0  0
  1  2  2  0
  2  3  1  0
  3  4  2  3
  4  5  1  0
  5  6  1  0
  6  7  1  0
  7  8  2  0
  7  9  1  0
  9 10  1  0
 10 11  1  0
  3 12  1  0
 12 13  2  0
 13 14  1  0
 13 15  1  0
 15 16  1  0
 16 17  2  0
 17 18  1  0
 18 19  2  0
 19 20  1  0
 20 21  1  0
 21 22  1  0
 22 23  1  0
 23 24  1  0
 24 25  1  0
 25 26  1  0
 26 27  1  0
 27 28  2  0
 27 29  1  0
 23 30  1  0
 30 31  1  0
 19 32  1  0
 32 33  2  0
 15  2  1  0
 33 16  1  0
 10  5  2  0
 31 20  1  0
  1 34  1  0
  1 35  1  0
  4 36  1  0
 12 37  1  0
 14 38  1  0
 14 39  1  0
 14 40  1  0
 17 41  1  0
 18 42  1  0
 21 43  1  0
 21 44  1  0
 22 45  1  0
 22 46  1  0
 24 47  1  0
 24 48  1  0
 25 49  1  0
 25 50  1  0
 26 51  1  0
 26 52  1  0
 30 53  1  0
 30 54  1  0
 31 55  1  0
 31 56  1  0
 32 57  1  0
 33 58  1  0
M  CHG  5   6  -1   9  -1  11  -1  29  -1  32   1
M  END
>  <UniqueID>  (56) 
52

>  <SMILES>  (56) 
C=c1c(=Cc2[n-]c(=O)[n-]c2[O-])cc(C)n1-c1ccc(N2CCN(CCCC(=O)[O-])CC2)[nH+]c1

>  <Energy>  (56) 
142.5652426488323

>  <Genealogy>  (56) 
C=c1c(=Cc2[n-]c(=O)[n-]c2[O-])cc(C)n1-c1ccc(N2CCN(CCCC(=O)[O-])CC2)[nH+]c1 (protonated)
C=c1c(=Cc2[n-]c(=O)[n-]c2[O-])cc(C)n1-c1ccc(N2CCN(CCCC(=O)[O-])CC2)[nH+]c1 (3D coordinates assigned)
C=c1c(=Cc2[n-]c(=O)[n-]c2[O-])cc(C)n1-c1ccc(N2CCN(CCCC(=O)[O-])CC2)[nH+]c1 (nonaromatic ring conformer: 142.5652426488323 kcal/mol)

>  <smiles>  (56) 
C=c1c(=Cc2[nH]c(=O)[nH]c2O)cc(C)n1-c1ccc(N2CCN(CCCC(=O)O)CC2)nc1

>  <score_type>  (56) 
oracle

>  <origin>  (56) 
adg

>  <m_score__min__energy>  (56) 
-15.029999999999999

>  <m_primary>  (56) 
energy

$$$$
56:0
     RDKit          3D

 54 56  0  0  0  0  0  0  0  0999 V2000
   56.6180   23.4290   46.5520 C   0  0  0  0  0  0  0  0  0  0  0  0
   56.7750   24.5350   45.8140 C   0  0  0  0  0  0  0  0  0  0  0  0
   57.2220   24.4060   44.3830 C   0  0  0  0  0  0  0  0  0  0  0  0
   56.4440   25.8710   46.3670 C   0  0  0  0  0  0  0  0  0  0  0  0
   55.2850   26.3480   46.2190 O   0  0  0  0  0  0  0  0  0  0  0  0
   57.4270   26.5940   47.1220 N   0  0  0  0  0  0  0  0  0  0  0  0
   58.3010   27.6170   46.6180 C   0  0  0  0  0  0  0  0  0  0  0  0
   57.9510   28.3900   45.4960 C   0  0  0  0  0  0  0  0  0  0  0  0
   58.8060   29.4030   45.0280 C   0  0  0  0  0  0  0  0  0  0  0  0
   58.4470   30.2360   43.9120 N   0  0  0  0  0  0  0  0  0  0  0  0
   57.4610   31.6590   44.0590 S   0  0  0  0  0  0  0  0  0  0  0  0
   57.3710   32.3390   42.7220 O   0  0  0  0  0  0  0  0  0  0  0  0
   56.0810   31.2560   44.5000 O   0  0  0  0  0  0  0  0  0  0  0  0
   58.1730   32.7830   45.2160 C   0  0  0  0  0  0  0  0  0  0  0  0
   58.1280   32.5040   46.5890 C   0  0  0  0  0  0  0  0  0  0  0  0
   58.6730   33.4050   47.5080 C   0  0  0  0  0  0  0  0  0  0  0  0
   59.2730   34.5860   47.0600 C   0  0  0  0  0  0  0  0  0  0  0  0
   59.3330   34.8620   45.6910 C   0  0  0  0  0  0  0  0  0  0  0  0
   58.7790   33.9650   44.7700 C   0  0  0  0  0  0  0  0  0  0  0  0
   60.0350   29.6100   45.6700 C   0  0  0  0  0  0  0  0  0  0  0  0
   60.4000   28.8330   46.7680 C   0  0  0  0  0  0  0  0  0  0  0  0
   59.5480   27.8270   47.2360 C   0  0  0  0  0  0  0  0  0  0  0  0
   60.0540   26.8410   48.6540 S   0  0  0  0  0  0  0  0  0  0  0  0
   60.7690   28.2450   49.5800 C   0  0  0  0  0  0  0  0  0  0  0  0
   59.7160   28.9610   50.3800 C   0  0  0  0  0  0  0  0  0  0  0  0
   59.6890   28.8490   51.7750 C   0  0  0  0  0  0  0  0  0  0  0  0
   58.7120   29.5200   52.5120 C   0  0  0  0  0  0  0  0  0  0  0  0
   57.7640   30.3160   51.8440 C   0  0  0  0  0  0  0  0  0  0  0  0
   56.7540   31.0130   52.5260 O   0  0  0  0  0  0  0  0  0  0  0  0
   55.3610   30.8280   52.3090 C   0  0  0  0  0  0  0  0  0  0  0  0
   57.8210   30.4220   50.4900 N   0  0  0  0  0  0  0  0  0  0  0  0
   58.7610   29.7710   49.7510 C   0  0  0  0  0  0  0  0  0  0  0  0
   56.2917   23.5085   47.5995 H   0  0  0  0  0  0  0  0  0  0  0  0
   56.8153   22.4408   46.1108 H   0  0  0  0  0  0  0  0  0  0  0  0
   58.2785   24.1011   44.3550 H   0  0  0  0  0  0  0  0  0  0  0  0
   56.6081   23.6484   43.8740 H   0  0  0  0  0  0  0  0  0  0  0  0
   57.1062   25.3742   43.8740 H   0  0  0  0  0  0  0  0  0  0  0  0
   56.9986   28.1998   44.9796 H   0  0  0  0  0  0  0  0  0  0  0  0
   58.9220   30.0850   42.9940 H   0  0  0  0  0  0  0  0  0  0  0  0
   57.6622   31.5729   46.9443 H   0  0  0  0  0  0  0  0  0  0  0  0
   58.6299   33.1849   48.5849 H   0  0  0  0  0  0  0  0  0  0  0  0
   59.6973   35.2971   47.7841 H   0  0  0  0  0  0  0  0  0  0  0  0
   59.8159   35.7848   45.3371 H   0  0  0  0  0  0  0  0  0  0  0  0
   58.8195   34.1886   43.6937 H   0  0  0  0  0  0  0  0  0  0  0  0
   60.7167   30.3920   45.3042 H   0  0  0  0  0  0  0  0  0  0  0  0
   61.3628   29.0117   47.2691 H   0  0  0  0  0  0  0  0  0  0  0  0
   61.5436   27.8669   50.2634 H   0  0  0  0  0  0  0  0  0  0  0  0
   61.2010   28.9543   48.8587 H   0  0  0  0  0  0  0  0  0  0  0  0
   60.4388   28.2313   52.2911 H   0  0  0  0  0  0  0  0  0  0  0  0
   58.6835   29.4270   53.6077 H   0  0  0  0  0  0  0  0  0  0  0  0
   54.8449   30.7595   53.2780 H   0  0  0  0  0  0  0  0  0  0  0  0
   54.9620   31.6810   51.7406 H   0  0  0  0  0  0  0  0  0  0  0  0
   55.1985   29.9004   51.7406 H   0  0  0  0  0  0  0  0  0  0  0  0
   58.7709   29.8812   48.6566 H   0  0  0  0  0  0  0  0  0  0  0  0
  1  2  2  0
  2  3  1  0
  2  4  1  0
  4  5  2  0
  4  6  1  0
  6  7  1  0
  7  8  2  0
  8  9  1  0
  9 10  1  0
 10 11  1  0
 11 12  2  0
 11 13  2  0
 11 14  1  0
 14 15  2  0
 15 16  1  0
 16 17  2  0
 17 18  1  0
 18 19  2  0
  9 20  2  0
 20 21  1  0
 21 22  2  0
 22 23  1  0
 23 24  1  0
 24 25  1  0
 25 26  2  0
 26 27  1  0
 27 28  2  0
 28 29  1  0
 29 30  1  0
 28 31  1  0
 31 32  2  0
 22  7  1  0
 32 25  1  0
 19 14  1  0
  1 33  1  0
  1 34  1  0
  3 35  1  0
  3 36  1  0
  3 37  1  0
  8 38  1  0
 10 39  1  0
 15 40  1  0
 16 41  1  0
 17 42  1  0
 18 43  1  0
 19 44  1  0
 20 45  1  0
 21 46  1  0
 24 47  1  0
 24 48  1  0
 26 49  1  0
 27 50  1  0
 30 51  1  0
 30 52  1  0
 30 53  1  0
 32 54  1  0
M  CHG  1   6  -1
M  END
>  <UniqueID>  (57) 
53

>  <SMILES>  (57) 
C=C(C)C(=O)[N-]c1cc(NS(=O)(=O)c2ccccc2)ccc1SCc1ccc(OC)nc1

>  <Energy>  (57) 
52.93925656467805

>  <Genealogy>  (57) 
C=C(C)C(=O)[N-]c1cc(NS(=O)(=O)c2ccccc2)ccc1SCc1ccc(OC)nc1 (protonated)
C=C(C)C(=O)[N-]c1cc(NS(=O)(=O)c2ccccc2)ccc1SCc1ccc(OC)nc1 (3D coordinates assigned)
C=C(C)C(=O)[N-]c1cc(NS(=O)(=O)c2ccccc2)ccc1SCc1ccc(OC)nc1 (optimized conformer: 52.93925656467805 kcal/mol)

>  <smiles>  (57) 
C=C(C)C(=O)Nc1cc(NS(=O)(=O)c2ccccc2)ccc1SCc1ccc(OC)nc1

>  <score_type>  (57) 
oracle

>  <origin>  (57) 
adg

>  <m_score__min__energy>  (57) 
-11.42

>  <m_primary>  (57) 
energy

$$$$
57:0
     RDKit          3D

 40 41  0  0  0  0  0  0  0  0999 V2000
   59.9920   32.9350   46.1430 C   0  0  0  0  0  0  0  0  0  0  0  0
   58.8260   32.5070   46.8450 N   0  0  0  0  0  0  0  0  0  0  0  0
   58.9310   31.1910   47.4150 C   0  0  0  0  0  0  0  0  0  0  0  0
   60.2710   30.5470   47.1560 C   0  0  0  0  0  0  0  0  0  0  0  0
   60.0710   29.0420   47.3530 C   0  0  0  0  0  0  0  0  0  0  0  0
   59.1120   28.5970   46.3090 C   0  0  0  0  0  0  0  0  0  0  0  0
   57.8940   28.0290   46.5910 C   0  0  0  0  0  0  0  0  0  0  0  0
   57.0480   27.6410   45.5550 C   0  0  0  0  0  0  0  0  0  0  0  0
   55.9200   27.1150   45.8360 O   0  0  0  0  0  0  0  0  0  0  0  0
   57.3850   27.8040   44.2550 N   0  0  0  0  0  0  0  0  0  0  0  0
   58.5600   28.3520   44.0190 N   0  0  0  0  0  0  0  0  0  0  0  0
   59.4210   28.7480   44.9540 C   0  0  0  0  0  0  0  0  0  0  0  0
   60.5160   29.2590   44.5900 O   0  0  0  0  0  0  0  0  0  0  0  0
   57.5750   32.7070   46.1910 C   0  0  0  0  0  0  0  0  0  0  0  0
   57.5000   32.2260   44.7950 C   0  0  0  0  0  0  0  0  0  0  0  0
   58.1350   32.8220   43.7320 C   0  0  0  0  0  0  0  0  0  0  0  0
   58.0360   32.3440   42.4350 C   0  0  0  0  0  0  0  0  0  0  0  0
   57.2710   31.2250   42.1910 C   0  0  0  0  0  0  0  0  0  0  0  0
   56.6250   30.6100   43.2440 C   0  0  0  0  0  0  0  0  0  0  0  0
   55.8280   29.4620   43.0610 O   0  0  0  0  0  0  0  0  0  0  0  0
   56.7260   31.0890   44.5380 C   0  0  0  0  0  0  0  0  0  0  0  0
   60.7707   33.2208   46.8655 H   0  0  0  0  0  0  0  0  0  0  0  0
   60.3616   32.1139   45.5112 H   0  0  0  0  0  0  0  0  0  0  0  0
   59.7427   33.8002   45.5112 H   0  0  0  0  0  0  0  0  0  0  0  0
   58.7813   31.2659   48.5022 H   0  0  0  0  0  0  0  0  0  0  0  0
   58.1638   30.5620   46.9399 H   0  0  0  0  0  0  0  0  0  0  0  0
   60.6013   30.7558   46.1277 H   0  0  0  0  0  0  0  0  0  0  0  0
   61.0410   30.9399   47.8362 H   0  0  0  0  0  0  0  0  0  0  0  0
   61.0291   28.5141   47.2371 H   0  0  0  0  0  0  0  0  0  0  0  0
   59.6879   28.8229   48.3606 H   0  0  0  0  0  0  0  0  0  0  0  0
   57.5861   27.8803   47.6365 H   0  0  0  0  0  0  0  0  0  0  0  0
   56.7230   27.4980   43.4880 H   0  0  0  0  0  0  0  0  0  0  0  0
   58.8340   28.4840   43.0000 H   0  0  0  0  0  0  0  0  0  0  0  0
   56.8019   32.1825   46.7717 H   0  0  0  0  0  0  0  0  0  0  0  0
   57.4318   33.7965   46.1420 H   0  0  0  0  0  0  0  0  0  0  0  0
   58.7478   33.7163   43.9185 H   0  0  0  0  0  0  0  0  0  0  0  0
   58.5610   32.8511   41.6120 H   0  0  0  0  0  0  0  0  0  0  0  0
   57.1762   30.8267   41.1700 H   0  0  0  0  0  0  0  0  0  0  0  0
   55.5260   29.2360   42.1040 H   0  0  0  0  0  0  0  0  0  0  0  0
   56.2012   30.5793   45.3595 H   0  0  0  0  0  0  0  0  0  0  0  0
  1  2  1  0
  2  3  1  0
  3  4  1  0
  4  5  1  0
  5  6  1  0
  6  7  2  0
  7  8  1  0
  8  9  2  0
  8 10  1  0
 10 11  1  0
 11 12  1  0
 12 13  2  0
  2 14  1  0
 14 15  1  0
 15 16  2  0
 16 17  1  0
 17 18  2  0
 18 19  1  0
 19 20  1  0
 19 21  2  0
 12  6  1  0
 21 15  1  0
  1 22  1  0
  1 23  1  0
  1 24  1  0
  3 25  1  0
  3 26  1  0
  4 27  1  0
  4 28  1  0
  5 29  1  0
  5 30  1  0
  7 31  1  0
 10 32  1  0
 11 33  1  0
 14 34  1  0
 14 35  1  0
 16 36  1  0
 17 37  1  0
 18 38  1  0
 20 39  1  0
 21 40  1  0
M  END
>  <smiles>  (58) 
CN(CCCc1cc(=O)[nH][nH]c1=O)Cc1cccc(O)c1

>  <score_type>  (58) 
oracle

>  <origin>  (58) 
adg

>  <m_score__min__energy>  (58) 
-8.0399999999999991

>  <m_primary>  (58) 
energy

$$$$
58:0
     RDKit          3D

 65 68  0  0  0  0  0  0  0  0999 V2000
   52.1670   24.0140   44.0640 C   0  0  0  0  0  0  0  0  0  0  0  0
   52.9980   23.8260   45.2050 O   0  0  0  0  0  0  0  0  0  0  0  0
   54.4020   23.8460   45.1790 C   0  0  0  0  0  0  0  0  0  0  0  0
   55.1540   22.7300   44.7650 C   0  0  0  0  0  0  0  0  0  0  0  0
   56.5480   22.7850   44.7460 C   0  0  0  0  0  0  0  0  0  0  0  0
   57.2100   23.9460   45.1470 C   0  0  0  0  0  0  0  0  0  0  0  0
   56.4810   25.0650   45.5790 C   0  0  0  0  0  0  0  0  0  0  0  0
   57.2080   26.3170   45.9850 C   0  0  0  0  0  0  0  0  0  0  0  0
   56.2840   27.4430   45.9570 N   0  0  0  0  0  0  0  0  0  0  0  0
   56.5440   28.6380   45.2170 C   0  0  0  0  0  0  0  0  0  0  0  0
   55.5910   29.3320   44.7670 O   0  0  0  0  0  0  0  0  0  0  0  0
   57.9530   29.0900   45.0070 C   0  0  0  0  0  0  0  0  0  0  0  0
   57.9660   30.5360   44.6310 C   0  0  0  0  0  0  0  0  0  0  0  0
   57.6270   31.0520   43.3960 C   0  0  0  0  0  0  0  0  0  0  0  0
   57.7260   32.4200   43.5260 C   0  0  0  0  0  0  0  0  0  0  0  0
   58.1260   32.6520   44.8300 C   0  0  0  0  0  0  0  0  0  0  0  0
   58.3350   33.9570   45.4850 C   0  0  0  0  0  0  0  0  0  0  0  0
   57.3660   34.4730   46.1020 O   0  0  0  0  0  0  0  0  0  0  0  0
   59.5940   34.6450   45.4960 N   0  0  0  0  0  0  0  0  0  0  0  0
   60.3790   35.0250   46.6690 C   0  0  0  0  0  0  0  0  0  0  0  0
   61.3600   33.9390   47.0670 C   0  0  0  0  0  0  0  0  0  0  0  0
   62.6410   33.9110   46.4760 C   0  0  0  0  0  0  0  0  0  0  0  0
   63.5800   32.9490   46.8470 C   0  0  0  0  0  0  0  0  0  0  0  0
   63.2710   32.0150   47.8320 C   0  0  0  0  0  0  0  0  0  0  0  0
   62.0250   32.0460   48.4580 C   0  0  0  0  0  0  0  0  0  0  0  0
   61.0620   33.0070   48.0990 C   0  0  0  0  0  0  0  0  0  0  0  0
   59.7410   33.0150   48.8390 C   0  0  0  0  0  0  0  0  0  0  0  0
   59.4660   31.6920   49.4350 N   0  0  0  0  0  0  0  0  0  0  0  0
   58.4300   31.8020   50.4820 C   0  0  0  0  0  0  0  0  0  0  0  0
   57.9450   30.4070   50.9290 C   0  0  0  0  0  0  0  0  0  0  0  0
   58.8320   29.4000   50.4840 O   0  0  0  0  0  0  0  0  0  0  0  0
   58.8130   29.3360   49.0670 C   0  0  0  0  0  0  0  0  0  0  0  0
   59.0460   30.7150   48.4130 C   0  0  0  0  0  0  0  0  0  0  0  0
   58.2490   31.5090   45.4650 O   0  0  0  0  0  0  0  0  0  0  0  0
   55.0720   25.0200   45.5790 C   0  0  0  0  0  0  0  0  0  0  0  0
   54.3500   26.1470   45.9770 O   0  0  0  0  0  0  0  0  0  0  0  0
   51.1425   24.2458   44.3907 H   0  0  0  0  0  0  0  0  0  0  0  0
   52.5565   24.8467   43.4599 H   0  0  0  0  0  0  0  0  0  0  0  0
   52.1601   23.0947   43.4599 H   0  0  0  0  0  0  0  0  0  0  0  0
   54.6392   21.8088   44.4545 H   0  0  0  0  0  0  0  0  0  0  0  0
   57.1268   21.9106   44.4139 H   0  0  0  0  0  0  0  0  0  0  0  0
   58.3091   23.9845   45.1245 H   0  0  0  0  0  0  0  0  0  0  0  0
   57.6081   26.1956   47.0024 H   0  0  0  0  0  0  0  0  0  0  0  0
   58.0368   26.5040   45.2863 H   0  0  0  0  0  0  0  0  0  0  0  0
   58.5250   28.9483   45.9359 H   0  0  0  0  0  0  0  0  0  0  0  0
   58.4092   28.4989   44.1992 H   0  0  0  0  0  0  0  0  0  0  0  0
   57.3383   30.4887   42.4964 H   0  0  0  0  0  0  0  0  0  0  0  0
   57.5274   33.1745   42.7506 H   0  0  0  0  0  0  0  0  0  0  0  0
   60.9388   35.9439   46.4402 H   0  0  0  0  0  0  0  0  0  0  0  0
   59.6852   35.1828   47.5079 H   0  0  0  0  0  0  0  0  0  0  0  0
   62.9025   34.6582   45.7122 H   0  0  0  0  0  0  0  0  0  0  0  0
   64.5664   32.9282   46.3606 H   0  0  0  0  0  0  0  0  0  0  0  0
   64.0102   31.2518   48.1169 H   0  0  0  0  0  0  0  0  0  0  0  0
   61.7924   31.3102   49.2419 H   0  0  0  0  0  0  0  0  0  0  0  0
   59.7799   33.7696   49.6384 H   0  0  0  0  0  0  0  0  0  0  0  0
   58.9386   33.2541   48.1256 H   0  0  0  0  0  0  0  0  0  0  0  0
   58.8503   32.3318   51.3496 H   0  0  0  0  0  0  0  0  0  0  0  0
   57.5732   32.3555   50.0703 H   0  0  0  0  0  0  0  0  0  0  0  0
   57.8899   30.3793   52.0273 H   0  0  0  0  0  0  0  0  0  0  0  0
   56.9532   30.2217   50.4908 H   0  0  0  0  0  0  0  0  0  0  0  0
   59.6044   28.6486   48.7337 H   0  0  0  0  0  0  0  0  0  0  0  0
   57.8174   28.9830   48.7603 H   0  0  0  0  0  0  0  0  0  0  0  0
   59.8314   30.6275   47.6478 H   0  0  0  0  0  0  0  0  0  0  0  0
   58.1098   31.0577   47.9482 H   0  0  0  0  0  0  0  0  0  0  0  0
   54.7430   27.0800   45.9490 H   0  0  0  0  0  0  0  0  0  0  0  0
  1  2  1  0
  2  3  1  0
  3  4  2  0
  4  5  1  0
  5  6  2  0
  6  7  1  0
  7  8  1  0
  8  9  1  0
  9 10  1  0
 10 11  2  0
 10 12  1  0
 12 13  1  0
 13 14  2  0
 14 15  1  0
 15 16  2  0
 16 17  1  0
 17 18  2  0
 17 19  1  0
 19 20  1  0
 20 21  1  0
 21 22  2  0
 22 23  1  0
 23 24  2  0
 24 25  1  0
 25 26  2  0
 26 27  1  0
 27 28  1  0
 28 29  1  0
 29 30  1  0
 30 31  1  0
 31 32  1  0
 32 33  1  0
 16 34  1  0
  7 35  2  0
 35 36  1  0
 35  3  1  0
 34 13  1  0
 26 21  1  0
 33 28  1  0
  1 37  1  0
  1 38  1  0
  1 39  1  0
  4 40  1  0
  5 41  1  0
  6 42  1  0
  8 43  1  0
  8 44  1  0
 12 45  1  0
 12 46  1  0
 14 47  1  0
 15 48  1  0
 20 49  1  0
 20 50  1  0
 22 51  1  0
 23 52  1  0
 24 53  1  0
 25 54  1  0
 27 55  1  0
 27 56  1  0
 29 57  1  0
 29 58  1  0
 30 59  1  0
 30 60  1  0
 32 61  1  0
 32 62  1  0
 33 63  1  0
 33 64  1  0
 36 65  1  0
M  CHG  2   9  -1  19  -1
M  END
>  <UniqueID>  (59) 
54

>  <SMILES>  (59) 
COc1cccc(C[N-]C(=O)Cc2ccc(C(=O)[N-]Cc3ccccc3CN3CCOCC3)o2)c1O

>  <Energy>  (59) 
102.89714911453811

>  <Genealogy>  (59) 
COc1cccc(C[N-]C(=O)Cc2ccc(C(=O)[N-]Cc3ccccc3CN3CCOCC3)o2)c1O (protonated)
COc1cccc(C[N-]C(=O)Cc2ccc(C(=O)[N-]Cc3ccccc3CN3CCOCC3)o2)c1O (3D coordinates assigned)
COc1cccc(C[N-]C(=O)Cc2ccc(C(=O)[N-]Cc3ccccc3CN3CCOCC3)o2)c1O (nonaromatic ring conformer: 102.89714911453811 kcal/mol)

>  <smiles>  (59) 
COc1cccc(CNC(=O)Cc2ccc(C(=O)NCc3ccccc3CN3CCOCC3)o2)c1O

>  <score_type>  (59) 
oracle

>  <origin>  (59) 
adg

>  <m_score__min__energy>  (59) 
-12.74

>  <m_primary>  (59) 
energy

$$$$
59:0
     RDKit          3D

 50 53  0  0  0  0  0  0  0  0999 V2000
   54.1820   29.3430   44.1100 H   0  0  0  0  0  0  0  0  0  0  0  0
   55.1670   29.3440   44.4610 N   0  0  0  0  0  0  0  0  0  0  0  0
   56.0280   30.2180   44.0530 C   0  0  0  0  0  0  0  0  0  0  0  0
   56.6930   30.9830   44.9590 N   0  0  0  0  0  0  0  0  0  0  0  0
   57.6020   31.9190   44.5710 C   0  0  0  0  0  0  0  0  0  0  0  0
   58.3040   32.7250   45.6040 C   0  0  0  0  0  0  0  0  0  0  0  0
   59.0560   33.8640   45.2580 C   0  0  0  0  0  0  0  0  0  0  0  0
   59.1503   34.1563   44.2018 H   0  0  0  0  0  0  0  0  0  0  0  0
   59.6830   34.6250   46.2470 C   0  0  0  0  0  0  0  0  0  0  0  0
   60.2643   35.5158   45.9666 H   0  0  0  0  0  0  0  0  0  0  0  0
   59.5750   34.2600   47.5890 C   0  0  0  0  0  0  0  0  0  0  0  0
   60.0646   34.8697   48.3626 H   0  0  0  0  0  0  0  0  0  0  0  0
   58.8470   33.1220   47.9570 C   0  0  0  0  0  0  0  0  0  0  0  0
   58.7280   32.7850   49.3490 N   0  0  0  0  0  0  0  0  0  0  0  0
   57.9640   32.1280   49.6180 H   0  0  0  0  0  0  0  0  0  0  0  0
   59.5270   33.3770   50.3890 C   0  0  0  0  0  0  0  0  0  0  0  0
   60.4410   34.1960   50.1060 O   0  0  0  0  0  0  0  0  0  0  0  0
   59.3240   33.0230   51.7620 N   0  0  0  0  0  0  0  0  0  0  0  0
   58.3340   32.1120   52.2580 C   0  0  0  0  0  0  0  0  0  0  0  0
   56.9840   32.3680   51.9960 C   0  0  0  0  0  0  0  0  0  0  0  0
   56.6970   33.2710   51.4373 H   0  0  0  0  0  0  0  0  0  0  0  0
   55.9980   31.4830   52.4400 C   0  0  0  0  0  0  0  0  0  0  0  0
   54.9387   31.7031   52.2415 H   0  0  0  0  0  0  0  0  0  0  0  0
   56.3460   30.3190   53.1350 C   0  0  0  0  0  0  0  0  0  0  0  0
   55.3140   29.4650   53.5580 O   0  0  0  0  0  0  0  0  0  0  0  0
   54.2800   28.9440   52.7230 C   0  0  0  0  0  0  0  0  0  0  0  0
   54.7177   28.6198   51.7673 H   0  0  0  0  0  0  0  0  0  0  0  0
   53.8077   28.0938   53.2369 H   0  0  0  0  0  0  0  0  0  0  0  0
   53.2290   29.9890   52.4550 C   0  0  0  0  0  0  0  0  0  0  0  0
   52.4180   30.4700   53.4970 C   0  0  0  0  0  0  0  0  0  0  0  0
   52.5438   30.0755   54.5161 H   0  0  0  0  0  0  0  0  0  0  0  0
   51.4520   31.4480   53.2430 C   0  0  0  0  0  0  0  0  0  0  0  0
   50.8136   31.8145   54.0604 H   0  0  0  0  0  0  0  0  0  0  0  0
   51.2960   31.9610   51.9520 C   0  0  0  0  0  0  0  0  0  0  0  0
   50.5345   32.7296   51.7538 H   0  0  0  0  0  0  0  0  0  0  0  0
   52.1080   31.4970   50.9130 C   0  0  0  0  0  0  0  0  0  0  0  0
   51.9863   31.9023   49.8977 H   0  0  0  0  0  0  0  0  0  0  0  0
   53.0750   30.5180   51.1630 C   0  0  0  0  0  0  0  0  0  0  0  0
   53.7174   30.1609   50.3446 H   0  0  0  0  0  0  0  0  0  0  0  0
   57.7060   30.0480   53.3790 C   0  0  0  0  0  0  0  0  0  0  0  0
   57.9938   29.1362   53.9228 H   0  0  0  0  0  0  0  0  0  0  0  0
   58.6920   30.9330   52.9330 C   0  0  0  0  0  0  0  0  0  0  0  0
   59.7533   30.7052   53.1114 H   0  0  0  0  0  0  0  0  0  0  0  0
   58.1940   32.3720   46.9630 C   0  0  0  0  0  0  0  0  0  0  0  0
   57.5898   31.4988   47.2503 H   0  0  0  0  0  0  0  0  0  0  0  0
   57.8650   32.0810   43.2010 C   0  0  0  0  0  0  0  0  0  0  0  0
   58.6029   32.8203   42.8561 H   0  0  0  0  0  0  0  0  0  0  0  0
   57.1740   31.2880   42.2860 C   0  0  0  0  0  0  0  0  0  0  0  0
   57.3612   31.4020   41.2081 H   0  0  0  0  0  0  0  0  0  0  0  0
   56.2700   30.3750   42.7250 N   0  0  0  0  0  0  0  0  0  0  0  0
  1  2  1  0
  2  3  2  0
  3  4  1  0
  4  5  2  0
  5  6  1  0
  6  7  2  0
  7  8  1  0
  7  9  1  0
  9 10  1  0
  9 11  2  0
 11 12  1  0
 11 13  1  0
 13 14  1  0
 14 15  1  0
 14 16  1  0
 16 17  2  0
 16 18  1  0
 18 19  1  0
 19 20  2  0
 20 21  1  0
 20 22  1  0
 22 23  1  0
 22 24  2  0
 24 25  1  0
 25 26  1  0
 26 27  1  0
 26 28  1  0
 26 29  1  0
 29 30  2  0
 30 31  1  0
 30 32  1  0
 32 33  1  0
 32 34  2  0
 34 35  1  0
 34 36  1  0
 36 37  1  0
 36 38  2  0
 38 39  1  0
 24 40  1  0
 40 41  1  0
 40 42  2  0
 42 43  1  0
 13 44  2  0
 44 45  1  0
  5 46  1  0
 46 47  1  0
 46 48  2  0
 48 49  1  0
 48 50  1  0
 50  3  1  0
 44  6  1  0
 42 19  1  0
 38 29  1  0
M  CHG  2  18  -1  50  -1
M  END
>  <UniqueID>  (60) 
55

>  <SMILES>  (60) 
[H]/N=c1/nc(-c2cccc(NC(=O)[N-]c3ccc(OCc4ccccc4)cc3)c2)cc[n-]1

>  <Energy>  (60) 
67.63150617845918

>  <Genealogy>  (60) 
N=c1nc(-c2cccc(NC(=O)[N-]c3ccc(OCc4ccccc4)cc3)c2)cc[n-]1 (protonated)
[H]/N=c1/nc(-c2cccc(NC(=O)[N-]c3ccc(OCc4ccccc4)cc3)c2)cc[n-]1 (cis-trans isomerization)
[H]/N=c1/nc(-c2cccc(NC(=O)[N-]c3ccc(OCc4ccccc4)cc3)c2)cc[n-]1 (3D coordinates assigned)
[H]/N=c1/nc(-c2cccc(NC(=O)[N-]c3ccc(OCc4ccccc4)cc3)c2)cc[n-]1 (optimized conformer: 67.63150617845918 kcal/mol)

>  <smiles>  (60) 
N=c1nc(-c2cccc(NC(=O)Nc3ccc(OCc4ccccc4)cc3)c2)cc[nH]1

>  <score_type>  (60) 
oracle

>  <origin>  (60) 
adg

>  <m_score__min__energy>  (60) 
-12.630000000000001

>  <m_primary>  (60) 
energy

$$$$
60:0
     RDKit          3D

 44 45  0  0  0  0  0  0  0  0999 V2000
   59.2071   32.1389   48.0119 H   0  0  0  0  0  0  0  0  0  0  0  0
   59.0480   32.4820   46.9790 C   0  0  0  0  0  0  0  0  0  0  0  0
   58.5430   31.6000   46.0220 C   0  0  0  0  0  0  0  0  0  0  0  0
   58.3099   30.5623   46.3027 H   0  0  0  0  0  0  0  0  0  0  0  0
   58.3310   32.0320   44.7010 C   0  0  0  0  0  0  0  0  0  0  0  0
   57.8270   31.0670   43.6620 C   0  0  0  0  0  0  0  0  0  0  0  0
   58.6462   30.8142   42.9728 H   0  0  0  0  0  0  0  0  0  0  0  0
   57.0011   31.5355   43.1067 H   0  0  0  0  0  0  0  0  0  0  0  0
   57.3270   29.8130   44.3200 C   0  0  0  0  0  0  0  0  0  0  0  0
   56.0000   29.6780   44.5770 N   0  0  0  0  0  0  0  0  0  0  0  0
   55.5210   28.6050   45.2070 N   0  0  0  0  0  0  0  0  0  0  0  0
   56.3500   27.6100   45.6250 C   0  0  0  0  0  0  0  0  0  0  0  0
   55.8920   26.5690   46.2550 N   0  0  0  0  0  0  0  0  0  0  0  0
   55.0360   25.5300   45.6800 C   0  0  0  0  0  0  0  0  0  0  0  0
   54.2788   26.0037   45.0379 H   0  0  0  0  0  0  0  0  0  0  0  0
   54.5572   24.9786   46.5026 H   0  0  0  0  0  0  0  0  0  0  0  0
   55.8570   24.5340   44.8380 C   0  0  0  0  0  0  0  0  0  0  0  0
   55.3263   24.3563   43.8910 H   0  0  0  0  0  0  0  0  0  0  0  0
   55.9628   23.6139   45.4315 H   0  0  0  0  0  0  0  0  0  0  0  0
   57.2350   25.0220   44.5260 N   0  0  0  0  0  0  0  0  0  0  0  0
   57.3430   25.9810   44.9310 H   0  0  0  0  0  0  0  0  0  0  0  0
   58.2620   24.1900   45.2040 C   0  0  0  0  0  0  0  0  0  0  0  0
   58.1432   24.3036   46.2916 H   0  0  0  0  0  0  0  0  0  0  0  0
   59.2472   24.5381   44.8603 H   0  0  0  0  0  0  0  0  0  0  0  0
   58.1530   22.7000   44.8530 C   0  0  0  0  0  0  0  0  0  0  0  0
   58.1097   22.1074   45.7787 H   0  0  0  0  0  0  0  0  0  0  0  0
   57.2399   22.5278   44.2643 H   0  0  0  0  0  0  0  0  0  0  0  0
   59.0314   22.3968   44.2643 H   0  0  0  0  0  0  0  0  0  0  0  0
   57.4520   25.1610   43.0580 C   0  0  0  0  0  0  0  0  0  0  0  0
   58.1385   24.3639   42.7365 H   0  0  0  0  0  0  0  0  0  0  0  0
   56.4587   25.0930   42.5902 H   0  0  0  0  0  0  0  0  0  0  0  0
   58.0460   26.5100   42.6190 C   0  0  0  0  0  0  0  0  0  0  0  0
   58.3069   27.1025   43.5083 H   0  0  0  0  0  0  0  0  0  0  0  0
   58.9500   26.3342   42.0174 H   0  0  0  0  0  0  0  0  0  0  0  0
   57.3060   27.0581   42.0174 H   0  0  0  0  0  0  0  0  0  0  0  0
   57.6820   27.7130   45.3870 N   0  0  0  0  0  0  0  0  0  0  0  0
   58.1930   28.7940   44.7480 C   0  0  0  0  0  0  0  0  0  0  0  0
   59.4340   28.8720   44.5510 O   0  0  0  0  0  0  0  0  0  0  0  0
   58.6480   33.3540   44.3520 C   0  0  0  0  0  0  0  0  0  0  0  0
   58.4983   33.6979   43.3179 H   0  0  0  0  0  0  0  0  0  0  0  0
   59.1530   34.2360   45.3120 C   0  0  0  0  0  0  0  0  0  0  0  0
   59.3940   35.2725   45.0335 H   0  0  0  0  0  0  0  0  0  0  0  0
   59.3520   33.8010   46.6270 C   0  0  0  0  0  0  0  0  0  0  0  0
   59.9890   34.9080   47.8300 Cl  0  0  0  0  0  0  0  0  0  0  0  0
  1  2  1  0
  2  3  2  0
  3  4  1  0
  3  5  1  0
  5  6  1  0
  6  7  1  0
  6  8  1  0
  6  9  1  0
  9 10  2  0
 10 11  1  0
 11 12  1  0
 12 13  2  0
 13 14  1  0
 14 15  1  0
 14 16  1  0
 14 17  1  0
 17 18  1  0
 17 19  1  0
 17 20  1  0
 20 21  1  0
 20 22  1  0
 22 23  1  0
 22 24  1  0
 22 25  1  0
 25 26  1  0
 25 27  1  0
 25 28  1  0
 20 29  1  0
 29 30  1  0
 29 31  1  0
 29 32  1  0
 32 33  1  0
 32 34  1  0
 32 35  1  0
 12 36  1  0
 36 37  1  0
 37 38  2  0
  5 39  2  0
 39 40  1  0
 39 41  1  0
 41 42  1  0
 41 43  2  0
 43 44  1  0
 43  2  1  0
 37  9  1  0
M  CHG  3  11  -1  20   1  36  -1
M  END
>  <UniqueID>  (61) 
56

>  <SMILES>  (61) 
CC[NH+](CC)CC/N=c1\[n-]nc(Cc2ccc(Cl)cc2)c(=O)[n-]1

>  <Energy>  (61) 
50.3132691481469

>  <Genealogy>  (61) 
CC[NH+](CC)CCN=c1[n-]nc(Cc2ccc(Cl)cc2)c(=O)[n-]1 (protonated)
CC[NH+](CC)CC/N=c1\[n-]nc(Cc2ccc(Cl)cc2)c(=O)[n-]1 (cis-trans isomerization)
CC[NH+](CC)CC/N=c1\[n-]nc(Cc2ccc(Cl)cc2)c(=O)[n-]1 (3D coordinates assigned)
CC[NH+](CC)CC/N=c1\[n-]nc(Cc2ccc(Cl)cc2)c(=O)[n-]1 (optimized conformer: 50.3132691481469 kcal/mol)

>  <smiles>  (61) 
CCN(CC)CCN=c1[nH]nc(Cc2ccc(Cl)cc2)c(=O)[nH]1

>  <score_type>  (61) 
oracle

>  <origin>  (61) 
adg

>  <m_score__min__energy>  (61) 
-8.4299999999999997

>  <m_primary>  (61) 
energy

$$$$
61:0
     RDKit          3D

 50 53  0  0  0  0  0  0  0  0999 V2000
   58.5910   28.6850   46.8320 C   0  0  0  0  0  0  0  0  0  0  0  0
   58.2280   28.8710   45.5530 C   0  0  0  0  0  0  0  0  0  0  0  0
   57.8090   27.8940   44.6320 C   0  0  0  0  0  0  0  0  0  0  0  0
   57.8110   26.5490   44.7050 C   0  0  0  0  0  0  0  0  0  0  0  0
   57.2610   25.7480   45.8080 C   0  0  0  0  0  0  0  0  0  0  0  0
   57.9930   24.8800   46.5270 N   0  0  0  0  0  0  0  0  0  0  0  0
   57.1310   24.4560   47.4770 C   0  0  0  0  0  0  0  0  0  0  0  0
   57.4490   23.6090   48.3500 O   0  0  0  0  0  0  0  0  0  0  0  0
   55.9060   25.0200   47.4230 N   0  0  0  0  0  0  0  0  0  0  0  0
   56.0050   25.8480   46.3710 C   0  0  0  0  0  0  0  0  0  0  0  0
   54.9740   26.6890   45.9590 O   0  0  0  0  0  0  0  0  0  0  0  0
   57.3600   28.5830   43.5160 C   0  0  0  0  0  0  0  0  0  0  0  0
   57.5740   29.9230   43.7590 C   0  0  0  0  0  0  0  0  0  0  0  0
   57.2440   31.0260   42.7990 C   0  0  0  0  0  0  0  0  0  0  0  0
   58.0940   30.1000   44.9930 N   0  0  0  0  0  0  0  0  0  0  0  0
   58.4240   31.3640   45.5900 C   0  0  0  0  0  0  0  0  0  0  0  0
   59.7180   31.5840   46.0820 C   0  0  0  0  0  0  0  0  0  0  0  0
   60.0680   32.8200   46.6490 C   0  0  0  0  0  0  0  0  0  0  0  0
   61.4460   33.0280   47.1500 C   0  0  0  0  0  0  0  0  0  0  0  0
   62.2730   33.6450   46.4240 O   0  0  0  0  0  0  0  0  0  0  0  0
   61.8610   32.5400   48.4390 N   0  0  0  0  0  0  0  0  0  0  0  0
   63.2570   32.1320   48.6310 C   0  0  0  0  0  0  0  0  0  0  0  0
   63.4700   31.5580   50.0370 C   0  0  0  0  0  0  0  0  0  0  0  0
   62.3330   30.7130   50.4200 N   0  0  0  0  0  0  0  0  0  0  0  0
   61.0840   31.4870   50.5540 C   0  0  0  0  0  0  0  0  0  0  0  0
   60.9960   32.7090   49.6140 C   0  0  0  0  0  0  0  0  0  0  0  0
   59.0910   33.8290   46.7540 C   0  0  0  0  0  0  0  0  0  0  0  0
   59.3840   35.0450   47.3630 O   0  0  0  0  0  0  0  0  0  0  0  0
   57.7990   33.6090   46.2660 C   0  0  0  0  0  0  0  0  0  0  0  0
   57.4630   32.3820   45.6880 C   0  0  0  0  0  0  0  0  0  0  0  0
   56.1680   32.1730   45.2270 O   0  0  0  0  0  0  0  0  0  0  0  0
   58.8999   29.5435   47.4465 H   0  0  0  0  0  0  0  0  0  0  0  0
   58.5796   27.6741   47.2655 H   0  0  0  0  0  0  0  0  0  0  0  0
   58.2641   26.0018   43.8652 H   0  0  0  0  0  0  0  0  0  0  0  0
   55.1450   27.4780   45.3500 H   0  0  0  0  0  0  0  0  0  0  0  0
   56.9174   28.1442   42.6096 H   0  0  0  0  0  0  0  0  0  0  0  0
   56.9729   31.9321   43.3607 H   0  0  0  0  0  0  0  0  0  0  0  0
   58.1189   31.2351   42.1659 H   0  0  0  0  0  0  0  0  0  0  0  0
   56.3980   30.7202   42.1659 H   0  0  0  0  0  0  0  0  0  0  0  0
   60.4668   30.7803   46.0233 H   0  0  0  0  0  0  0  0  0  0  0  0
   63.5139   31.3647   47.8858 H   0  0  0  0  0  0  0  0  0  0  0  0
   63.9015   33.0152   48.5102 H   0  0  0  0  0  0  0  0  0  0  0  0
   64.3899   30.9549   50.0472 H   0  0  0  0  0  0  0  0  0  0  0  0
   63.5558   32.3885   50.7532 H   0  0  0  0  0  0  0  0  0  0  0  0
   62.2000   29.9780   49.6850 H   0  0  0  0  0  0  0  0  0  0  0  0
   60.2383   30.8193   50.3327 H   0  0  0  0  0  0  0  0  0  0  0  0
   61.0603   31.8756   51.5828 H   0  0  0  0  0  0  0  0  0  0  0  0
   59.9553   32.8294   49.2788 H   0  0  0  0  0  0  0  0  0  0  0  0
   61.3311   33.5985   50.1676 H   0  0  0  0  0  0  0  0  0  0  0  0
   57.0438   34.4056   46.3375 H   0  0  0  0  0  0  0  0  0  0  0  0
  1  2  2  0
  2  3  1  0
  3  4  2  3
  4  5  1  0
  5  6  1  0
  6  7  1  0
  7  8  2  0
  7  9  1  0
  9 10  1  0
 10 11  1  0
  3 12  1  0
 12 13  2  0
 13 14  1  0
 13 15  1  0
 15 16  1  0
 16 17  2  0
 17 18  1  0
 18 19  1  0
 19 20  2  0
 19 21  1  0
 21 22  1  0
 22 23  1  0
 23 24  1  0
 24 25  1  0
 25 26  1  0
 18 27  2  0
 27 28  1  0
 27 29  1  0
 29 30  2  0
 30 31  1  0
 15  2  1  0
 30 16  1  0
 10  5  2  0
 26 21  1  0
  1 32  1  0
  1 33  1  0
  4 34  1  0
 11 35  1  0
 12 36  1  0
 14 37  1  0
 14 38  1  0
 14 39  1  0
 17 40  1  0
 22 41  1  0
 22 42  1  0
 23 43  1  0
 23 44  1  0
 24 45  1  0
 25 46  1  0
 25 47  1  0
 26 48  1  0
 26 49  1  0
 29 50  1  0
M  CHG  4   6  -1   9  -1  28  -1  31  -1
M  END
>  <UniqueID>  (62) 
57

>  <SMILES>  (62) 
C=c1c(=Cc2[n-]c(=O)[n-]c2O)cc(C)n1-c1cc(C(=O)N2CCNCC2)c([O-])cc1[O-]

>  <Energy>  (62) 
138.81065224904117

>  <Genealogy>  (62) 
C=c1c(=Cc2[n-]c(=O)[n-]c2O)cc(C)n1-c1cc(C(=O)N2CCNCC2)c([O-])cc1[O-] (protonated)
C=c1c(=Cc2[n-]c(=O)[n-]c2O)cc(C)n1-c1cc(C(=O)N2CCNCC2)c([O-])cc1[O-] (3D coordinates assigned)
C=c1c(=Cc2[n-]c(=O)[n-]c2O)cc(C)n1-c1cc(C(=O)N2CCNCC2)c([O-])cc1[O-] (nonaromatic ring conformer: 138.81065224904117 kcal/mol)

>  <smiles>  (62) 
C=c1c(=Cc2[nH]c(=O)[nH]c2O)cc(C)n1-c1cc(C(=O)N2CCNCC2)c(O)cc1O

>  <score_type>  (62) 
oracle

>  <origin>  (62) 
adg

>  <m_score__min__energy>  (62) 
-15.75

>  <m_primary>  (62) 
energy

$$$$
62:0
     RDKit          3D

 44 47  0  0  0  0  0  0  0  0999 V2000
   55.1440   27.4960   45.3460 H   0  0  0  0  0  0  0  0  0  0  0  0
   55.0820   26.6940   45.9590 O   0  0  0  0  0  0  0  0  0  0  0  0
   56.2080   26.1200   46.5350 C   0  0  0  0  0  0  0  0  0  0  0  0
   56.1870   24.8580   47.0270 N   0  0  0  0  0  0  0  0  0  0  0  0
   57.4740   24.5280   47.2700 C   0  0  0  0  0  0  0  0  0  0  0  0
   57.8162   23.5686   47.6852 H   0  0  0  0  0  0  0  0  0  0  0  0
   58.2900   25.5770   46.9180 C   0  0  0  0  0  0  0  0  0  0  0  0
   59.6390   25.5870   46.8210 N   0  0  0  0  0  0  0  0  0  0  0  0
   60.2590   26.6930   46.3220 C   0  0  0  0  0  0  0  0  0  0  0  0
   61.3505   26.6904   46.1856 H   0  0  0  0  0  0  0  0  0  0  0  0
   59.5140   27.8430   45.9780 C   0  0  0  0  0  0  0  0  0  0  0  0
   60.0256   28.7214   45.5576 H   0  0  0  0  0  0  0  0  0  0  0  0
   58.1110   27.8700   46.1720 C   0  0  0  0  0  0  0  0  0  0  0  0
   57.4750   29.0020   46.0660 N   0  0  0  0  0  0  0  0  0  0  0  0
   57.6350   29.9590   45.0060 C   0  0  0  0  0  0  0  0  0  0  0  0
   58.3440   29.6650   43.9970 O   0  0  0  0  0  0  0  0  0  0  0  0
   57.0540   31.2630   45.1350 N   0  0  0  0  0  0  0  0  0  0  0  0
   57.7850   32.4570   45.4140 C   0  0  0  0  0  0  0  0  0  0  0  0
   57.4930   33.6670   44.7570 C   0  0  0  0  0  0  0  0  0  0  0  0
   56.6064   33.7397   44.1099 H   0  0  0  0  0  0  0  0  0  0  0  0
   58.3290   34.7800   44.9250 C   0  0  0  0  0  0  0  0  0  0  0  0
   58.0926   35.7253   44.4147 H   0  0  0  0  0  0  0  0  0  0  0  0
   59.4620   34.6920   45.7390 C   0  0  0  0  0  0  0  0  0  0  0  0
   60.1251   35.5613   45.8596 H   0  0  0  0  0  0  0  0  0  0  0  0
   59.7500   33.4840   46.4040 C   0  0  0  0  0  0  0  0  0  0  0  0
   60.9620   33.3390   47.2280 C   0  0  0  0  0  0  0  0  0  0  0  0
   62.0680   33.1410   46.6440 O   0  0  0  0  0  0  0  0  0  0  0  0
   60.8820   33.2970   48.6670 N   0  0  0  0  0  0  0  0  0  0  0  0
   59.7950   34.0360   49.3440 C   0  0  0  0  0  0  0  0  0  0  0  0
   59.9265   35.1106   49.1494 H   0  0  0  0  0  0  0  0  0  0  0  0
   58.8412   33.6622   48.9434 H   0  0  0  0  0  0  0  0  0  0  0  0
   59.7780   33.8110   50.8630 C   0  0  0  0  0  0  0  0  0  0  0  0
   59.2461   34.6466   51.3414 H   0  0  0  0  0  0  0  0  0  0  0  0
   59.2710   32.8555   51.0628 H   0  0  0  0  0  0  0  0  0  0  0  0
   61.0850   33.7360   51.3940 O   0  0  0  0  0  0  0  0  0  0  0  0
   61.7060   32.5660   50.9140 C   0  0  0  0  0  0  0  0  0  0  0  0
   62.6552   32.4171   51.4495 H   0  0  0  0  0  0  0  0  0  0  0  0
   61.0296   31.7154   51.0842 H   0  0  0  0  0  0  0  0  0  0  0  0
   61.9900   32.6710   49.4090 C   0  0  0  0  0  0  0  0  0  0  0  0
   62.8978   33.2748   49.2628 H   0  0  0  0  0  0  0  0  0  0  0  0
   62.1163   31.6494   49.0211 H   0  0  0  0  0  0  0  0  0  0  0  0
   58.9250   32.3740   46.2190 C   0  0  0  0  0  0  0  0  0  0  0  0
   59.1744   31.4229   46.7121 H   0  0  0  0  0  0  0  0  0  0  0  0
   57.5100   26.6320   46.5310 C   0  0  0  0  0  0  0  0  0  0  0  0
  1  2  1  0
  2  3  1  0
  3  4  1  0
  4  5  1  0
  5  6  1  0
  5  7  2  0
  7  8  1  0
  8  9  1  0
  9 10  1  0
  9 11  2  0
 11 12  1  0
 11 13  1  0
 13 14  2  0
 14 15  1  0
 15 16  2  0
 15 17  1  0
 17 18  1  0
 18 19  2  0
 19 20  1  0
 19 21  1  0
 21 22  1  0
 21 23  2  0
 23 24  1  0
 23 25  1  0
 25 26  1  0
 26 27  2  0
 26 28  1  0
 28 29  1  0
 29 30  1  0
 29 31  1  0
 29 32  1  0
 32 33  1  0
 32 34  1  0
 32 35  1  0
 35 36  1  0
 36 37  1  0
 36 38  1  0
 36 39  1  0
 39 40  1  0
 39 41  1  0
 25 42  2  0
 42 43  1  0
 13 44  1  0
 44  3  2  0
 44  7  1  0
 42 18  1  0
 39 28  1  0
M  CHG  3   4  -1   8  -1  17  -1
M  END
>  <UniqueID>  (63) 
58

>  <SMILES>  (63) 
O=C(/N=c1/cc[n-]c2c[n-]c(O)c12)[N-]c1cccc(C(=O)N2CCOCC2)c1

>  <Energy>  (63) 
121.90709634798961

>  <Genealogy>  (63) 
O=C(N=c1cc[n-]c2c[n-]c(O)c12)[N-]c1cccc(C(=O)N2CCOCC2)c1 (protonated)
O=C(/N=c1/cc[n-]c2c[n-]c(O)c12)[N-]c1cccc(C(=O)N2CCOCC2)c1 (cis-trans isomerization)
O=C(/N=c1/cc[n-]c2c[n-]c(O)c12)[N-]c1cccc(C(=O)N2CCOCC2)c1 (3D coordinates assigned)
O=C(/N=c1/cc[n-]c2c[n-]c(O)c12)[N-]c1cccc(C(=O)N2CCOCC2)c1 (nonaromatic ring conformer: 121.90709634798961 kcal/mol)

>  <smiles>  (63) 
O=C(N=c1cc[nH]c2c[nH]c(O)c12)Nc1cccc(C(=O)N2CCOCC2)c1

>  <score_type>  (63) 
oracle

>  <origin>  (63) 
adg

>  <m_score__min__energy>  (63) 
-14.619999999999999

>  <m_primary>  (63) 
energy

$$$$
63:0
     RDKit          3D

 35 38  0  0  0  0  0  0  0  0999 V2000
   58.7500   28.4140   47.0470 C   0  0  0  0  0  0  0  0  0  0  0  0
   58.3660   28.7700   45.8110 C   0  0  0  0  0  0  0  0  0  0  0  0
   57.8690   27.9280   44.8030 C   0  0  0  0  0  0  0  0  0  0  0  0
   57.8270   26.5840   44.7130 C   0  0  0  0  0  0  0  0  0  0  0  0
   57.2400   25.6760   45.7090 C   0  0  0  0  0  0  0  0  0  0  0  0
   57.9310   24.6990   46.3220 N   0  0  0  0  0  0  0  0  0  0  0  0
   57.0530   24.2160   47.2280 C   0  0  0  0  0  0  0  0  0  0  0  0
   57.3310   23.2620   47.9990 O   0  0  0  0  0  0  0  0  0  0  0  0
   55.8570   24.8450   47.2500 N   0  0  0  0  0  0  0  0  0  0  0  0
   55.9980   25.7760   46.2940 C   0  0  0  0  0  0  0  0  0  0  0  0
   55.0210   26.7130   45.9820 O   0  0  0  0  0  0  0  0  0  0  0  0
   57.3820   28.7610   43.8080 C   0  0  0  0  0  0  0  0  0  0  0  0
   57.6580   30.0540   44.1970 C   0  0  0  0  0  0  0  0  0  0  0  0
   57.3170   31.2730   43.3960 C   0  0  0  0  0  0  0  0  0  0  0  0
   58.2540   30.0630   45.4110 N   0  0  0  0  0  0  0  0  0  0  0  0
   58.6600   31.2360   46.1390 C   0  0  0  0  0  0  0  0  0  0  0  0
   57.7600   32.3220   46.3020 C   0  0  0  0  0  0  0  0  0  0  0  0
   58.1520   33.4750   47.0080 C   0  0  0  0  0  0  0  0  0  0  0  0
   59.4410   33.5070   47.5320 C   0  0  0  0  0  0  0  0  0  0  0  0
   60.0170   34.4950   48.2320 N   0  0  0  0  0  0  0  0  0  0  0  0
   61.2520   33.9860   48.4770 C   0  0  0  0  0  0  0  0  0  0  0  0
   62.1250   34.6200   49.1240 O   0  0  0  0  0  0  0  0  0  0  0  0
   61.4780   32.7460   47.9730 N   0  0  0  0  0  0  0  0  0  0  0  0
   60.3080   32.4680   47.3800 C   0  0  0  0  0  0  0  0  0  0  0  0
   59.9590   31.3110   46.6880 C   0  0  0  0  0  0  0  0  0  0  0  0
   59.1240   29.1753   47.7474 H   0  0  0  0  0  0  0  0  0  0  0  0
   58.6907   27.3610   47.3594 H   0  0  0  0  0  0  0  0  0  0  0  0
   58.2705   26.1266   43.8163 H   0  0  0  0  0  0  0  0  0  0  0  0
   56.8725   28.4495   42.8842 H   0  0  0  0  0  0  0  0  0  0  0  0
   57.0841   32.1054   44.0763 H   0  0  0  0  0  0  0  0  0  0  0  0
   58.1732   31.5463   42.7617 H   0  0  0  0  0  0  0  0  0  0  0  0
   56.4433   31.0624   42.7617 H   0  0  0  0  0  0  0  0  0  0  0  0
   56.7487   32.2619   45.8733 H   0  0  0  0  0  0  0  0  0  0  0  0
   57.4629   34.3220   47.1411 H   0  0  0  0  0  0  0  0  0  0  0  0
   60.6725   30.4818   46.5727 H   0  0  0  0  0  0  0  0  0  0  0  0
  1  2  2  0
  2  3  1  0
  3  4  2  3
  4  5  1  0
  5  6  1  0
  6  7  1  0
  7  8  2  0
  7  9  1  0
  9 10  1  0
 10 11  1  0
  3 12  1  0
 12 13  2  0
 13 14  1  0
 13 15  1  0
 15 16  1  0
 16 17  2  0
 17 18  1  0
 18 19  2  0
 19 20  1  0
 20 21  1  0
 21 22  2  0
 21 23  1  0
 23 24  1  0
 24 25  2  0
 15  2  1  0
 25 16  1  0
 10  5  2  0
 24 19  1  0
  1 26  1  0
  1 27  1  0
  4 28  1  0
 12 29  1  0
 14 30  1  0
 14 31  1  0
 14 32  1  0
 17 33  1  0
 18 34  1  0
 25 35  1  0
M  CHG  5   6  -1   9  -1  11  -1  20  -1  23  -1
M  END
>  <UniqueID>  (64) 
59

>  <SMILES>  (64) 
C=c1c(=Cc2[n-]c(=O)[n-]c2[O-])cc(C)n1-c1ccc2[n-]c(=O)[n-]c2c1

>  <Energy>  (64) 
150.3441809746085

>  <Genealogy>  (64) 
C=c1c(=Cc2[n-]c(=O)[n-]c2[O-])cc(C)n1-c1ccc2[n-]c(=O)[n-]c2c1 (protonated)
C=c1c(=Cc2[n-]c(=O)[n-]c2[O-])cc(C)n1-c1ccc2[n-]c(=O)[n-]c2c1 (3D coordinates assigned)
C=c1c(=Cc2[n-]c(=O)[n-]c2[O-])cc(C)n1-c1ccc2[n-]c(=O)[n-]c2c1 (optimized conformer: 150.3441809746085 kcal/mol)

>  <smiles>  (64) 
C=c1c(=Cc2[nH]c(=O)[nH]c2O)cc(C)n1-c1ccc2[nH]c(=O)[nH]c2c1

>  <score_type>  (64) 
oracle

>  <origin>  (64) 
adg

>  <m_score__min__energy>  (64) 
-16.960000000000001

>  <m_primary>  (64) 
energy

$$$$
64:0
     RDKit          3D

 52 55  0  0  0  0  0  0  0  0999 V2000
   59.8037   27.3932   48.1495 H   0  0  0  0  0  0  0  0  0  0  0  0
   59.2380   26.6870   47.5240 C   0  0  0  0  0  0  0  0  0  0  0  0
   59.2454   25.6132   47.7624 H   0  0  0  0  0  0  0  0  0  0  0  0
   58.5380   27.1360   46.4690 C   0  0  0  0  0  0  0  0  0  0  0  0
   57.7660   26.3770   45.5720 C   0  0  0  0  0  0  0  0  0  0  0  0
   57.3850   25.0840   45.6040 C   0  0  0  0  0  0  0  0  0  0  0  0
   58.1609   24.3368   45.8267 H   0  0  0  0  0  0  0  0  0  0  0  0
   56.0170   24.5850   45.3660 C   0  0  0  0  0  0  0  0  0  0  0  0
   54.9110   25.4060   45.6280 C   0  0  0  0  0  0  0  0  0  0  0  0
   55.0860   26.7130   46.0650 O   0  0  0  0  0  0  0  0  0  0  0  0
   53.6530   24.9270   45.4460 N   0  0  0  0  0  0  0  0  0  0  0  0
   53.4410   23.6530   45.0280 C   0  0  0  0  0  0  0  0  0  0  0  0
   52.2680   23.2320   44.8620 O   0  0  0  0  0  0  0  0  0  0  0  0
   54.4960   22.8300   44.7940 N   0  0  0  0  0  0  0  0  0  0  0  0
   55.7730   23.2610   44.9610 C   0  0  0  0  0  0  0  0  0  0  0  0
   56.7270   22.4640   44.7570 O   0  0  0  0  0  0  0  0  0  0  0  0
   57.4050   27.2370   44.5480 C   0  0  0  0  0  0  0  0  0  0  0  0
   56.8298   26.9773   43.6471 H   0  0  0  0  0  0  0  0  0  0  0  0
   57.9040   28.4810   44.8730 C   0  0  0  0  0  0  0  0  0  0  0  0
   57.7280   29.7130   44.0380 C   0  0  0  0  0  0  0  0  0  0  0  0
   57.6032   30.5864   44.6949 H   0  0  0  0  0  0  0  0  0  0  0  0
   58.6149   29.8554   43.4031 H   0  0  0  0  0  0  0  0  0  0  0  0
   56.8367   29.6014   43.4031 H   0  0  0  0  0  0  0  0  0  0  0  0
   58.5920   28.4220   46.0350 N   0  0  0  0  0  0  0  0  0  0  0  0
   59.2650   29.5260   46.6670 C   0  0  0  0  0  0  0  0  0  0  0  0
   60.5590   29.8870   46.2620 C   0  0  0  0  0  0  0  0  0  0  0  0
   61.0543   29.3310   45.4524 H   0  0  0  0  0  0  0  0  0  0  0  0
   61.2210   30.9490   46.8820 C   0  0  0  0  0  0  0  0  0  0  0  0
   62.2363   31.2239   46.5602 H   0  0  0  0  0  0  0  0  0  0  0  0
   60.5960   31.6680   47.9150 C   0  0  0  0  0  0  0  0  0  0  0  0
   61.3150   32.7980   48.6060 C   0  0  0  0  0  0  0  0  0  0  0  0
   61.1091   32.7449   49.6853 H   0  0  0  0  0  0  0  0  0  0  0  0
   62.3915   32.6940   48.4054 H   0  0  0  0  0  0  0  0  0  0  0  0
   60.8590   34.1650   48.0790 C   0  0  0  0  0  0  0  0  0  0  0  0
   61.1758   34.9444   48.7876 H   0  0  0  0  0  0  0  0  0  0  0  0
   61.3162   34.3225   47.0910 H   0  0  0  0  0  0  0  0  0  0  0  0
   59.4050   34.2260   47.9250 N   0  0  0  0  0  0  0  0  0  0  0  0
   58.7950   34.4520   48.7420 H   0  0  0  0  0  0  0  0  0  0  0  0
   58.7760   33.9900   46.6610 C   0  0  0  0  0  0  0  0  0  0  0  0
   59.4330   33.7140   45.5890 N   0  0  0  0  0  0  0  0  0  0  0  0
   58.5010   33.5300   44.4830 C   0  0  0  0  0  0  0  0  0  0  0  0
   58.6955   34.2651   43.6881 H   0  0  0  0  0  0  0  0  0  0  0  0
   58.5978   32.5347   44.0246 H   0  0  0  0  0  0  0  0  0  0  0  0
   57.1050   33.7500   45.0920 C   0  0  0  0  0  0  0  0  0  0  0  0
   56.5957   34.5966   44.6084 H   0  0  0  0  0  0  0  0  0  0  0  0
   56.4420   32.8823   44.9591 H   0  0  0  0  0  0  0  0  0  0  0  0
   57.3760   34.0390   46.4860 N   0  0  0  0  0  0  0  0  0  0  0  0
   56.6670   34.2430   47.2240 H   0  0  0  0  0  0  0  0  0  0  0  0
   59.3020   31.3050   48.3190 C   0  0  0  0  0  0  0  0  0  0  0  0
   58.8051   31.8606   49.1279 H   0  0  0  0  0  0  0  0  0  0  0  0
   58.6410   30.2400   47.6980 C   0  0  0  0  0  0  0  0  0  0  0  0
   57.6268   29.9620   48.0207 H   0  0  0  0  0  0  0  0  0  0  0  0
  1  2  1  0
  2  3  1  0
  2  4  2  0
  4  5  1  0
  5  6  2  0
  6  7  1  0
  6  8  1  0
  8  9  2  0
  9 10  1  0
  9 11  1  0
 11 12  1  0
 12 13  2  0
 12 14  1  0
 14 15  1  0
 15 16  2  0
  5 17  1  0
 17 18  1  0
 17 19  2  0
 19 20  1  0
 20 21  1  0
 20 22  1  0
 20 23  1  0
 19 24  1  0
 24 25  1  0
 25 26  2  0
 26 27  1  0
 26 28  1  0
 28 29  1  0
 28 30  2  0
 30 31  1  0
 31 32  1  0
 31 33  1  0
 31 34  1  0
 34 35  1  0
 34 36  1  0
 34 37  1  0
 37 38  1  0
 37 39  1  0
 39 40  2  0
 40 41  1  0
 41 42  1  0
 41 43  1  0
 41 44  1  0
 44 45  1  0
 44 46  1  0
 44 47  1  0
 47 48  1  0
 30 49  1  0
 49 50  1  0
 49 51  2  0
 51 52  1  0
 24  4  1  0
 51 25  1  0
 15  8  1  0
 47 39  1  0
M  CHG  3  10  -1  11  -1  14  -1
M  END
>  <UniqueID>  (65) 
60

>  <SMILES>  (65) 
C=c1/c(=C\c2c([O-])[n-]c(=O)[n-]c2=O)cc(C)n1-c1ccc(CCNC2=NCCN2)cc1

>  <Energy>  (65) 
111.40277757549575

>  <Genealogy>  (65) 
C=c1c(=Cc2c([O-])[n-]c(=O)[n-]c2=O)cc(C)n1-c1ccc(CCNC2=NCCN2)cc1 (protonated)
C=c1/c(=C\c2c([O-])[n-]c(=O)[n-]c2=O)cc(C)n1-c1ccc(CCNC2=NCCN2)cc1 (cis-trans isomerization)
C=c1/c(=C\c2c([O-])[n-]c(=O)[n-]c2=O)cc(C)n1-c1ccc(CCNC2=NCCN2)cc1 (3D coordinates assigned)
C=c1/c(=C\c2c([O-])[n-]c(=O)[n-]c2=O)cc(C)n1-c1ccc(CCNC2=NCCN2)cc1 (nonaromatic ring conformer: 111.40277757549575 kcal/mol)

>  <smiles>  (65) 
C=c1c(=Cc2c(O)[nH]c(=O)[nH]c2=O)cc(C)n1-c1ccc(CCNC2=NCCN2)cc1

>  <score_type>  (65) 
oracle

>  <origin>  (65) 
adg

>  <m_score__min__energy>  (65) 
-16.050000000000001

>  <m_primary>  (65) 
energy

$$$$
65:0
     RDKit          3D

 40 42  0  0  0  0  0  0  0  0999 V2000
   58.4540   30.4380   52.6370 C   0  0  0  0  0  0  0  0  0  0  0  0
   58.9150   30.7230   51.2370 C   0  0  0  0  0  0  0  0  0  0  0  0
   58.9250   32.0300   50.7540 C   0  0  0  0  0  0  0  0  0  0  0  0
   59.3910   32.3230   49.4620 C   0  0  0  0  0  0  0  0  0  0  0  0
   59.3550   33.7650   49.0140 C   0  0  0  0  0  0  0  0  0  0  0  0
   59.8890   31.2770   48.6300 C   0  0  0  0  0  0  0  0  0  0  0  0
   60.4040   31.6000   47.2240 C   0  0  2  0  0  0  0  0  0  0  0  0
   61.8200   32.7600   47.3060 S   0  0  0  0  0  0  0  0  0  0  0  0
   61.1480   33.8390   46.0000 C   0  0  0  0  0  0  0  0  0  0  0  0
   59.7850   33.3530   45.6980 C   0  0  0  0  0  0  0  0  0  0  0  0
   59.0280   33.9660   44.8970 O   0  0  0  0  0  0  0  0  0  0  0  0
   59.3720   32.1610   46.3570 N   0  0  0  0  0  0  0  0  0  0  0  0
   58.3000   31.3440   45.8480 C   0  0  0  0  0  0  0  0  0  0  0  0
   57.3530   31.8790   44.9590 C   0  0  0  0  0  0  0  0  0  0  0  0
   56.3030   31.0860   44.4840 C   0  0  0  0  0  0  0  0  0  0  0  0
   56.1880   29.7550   44.8950 C   0  0  0  0  0  0  0  0  0  0  0  0
   55.1450   28.9690   44.4230 O   0  0  0  0  0  0  0  0  0  0  0  0
   57.1260   29.2150   45.7810 C   0  0  0  0  0  0  0  0  0  0  0  0
   58.1770   30.0050   46.2560 C   0  0  0  0  0  0  0  0  0  0  0  0
   59.8730   29.9390   49.1360 C   0  0  0  0  0  0  0  0  0  0  0  0
   60.4010   28.7590   48.3550 C   0  0  0  0  0  0  0  0  0  0  0  0
   59.4030   29.6910   50.4350 C   0  0  0  0  0  0  0  0  0  0  0  0
   59.1640   30.8770   53.3533 H   0  0  0  0  0  0  0  0  0  0  0  0
   57.4578   30.8781   52.7917 H   0  0  0  0  0  0  0  0  0  0  0  0
   58.4024   29.3502   52.7917 H   0  0  0  0  0  0  0  0  0  0  0  0
   58.5617   32.8462   51.3957 H   0  0  0  0  0  0  0  0  0  0  0  0
   59.3386   34.4226   49.8957 H   0  0  0  0  0  0  0  0  0  0  0  0
   60.2480   33.9837   48.4100 H   0  0  0  0  0  0  0  0  0  0  0  0
   58.4522   33.9389   48.4100 H   0  0  0  0  0  0  0  0  0  0  0  0
   60.7247   30.6431   46.7864 H   0  0  0  0  0  0  0  0  0  0  0  0
   61.1085   34.8801   46.3531 H   0  0  0  0  0  0  0  0  0  0  0  0
   61.7829   33.8114   45.1022 H   0  0  0  0  0  0  0  0  0  0  0  0
   57.4375   32.9267   44.6347 H   0  0  0  0  0  0  0  0  0  0  0  0
   55.5666   31.5106   43.7859 H   0  0  0  0  0  0  0  0  0  0  0  0
   57.0366   28.1674   46.1044 H   0  0  0  0  0  0  0  0  0  0  0  0
   58.9119   29.5760   46.9531 H   0  0  0  0  0  0  0  0  0  0  0  0
   60.7482   27.9830   49.0531 H   0  0  0  0  0  0  0  0  0  0  0  0
   59.5999   28.3505   47.7216 H   0  0  0  0  0  0  0  0  0  0  0  0
   61.2395   29.0841   47.7216 H   0  0  0  0  0  0  0  0  0  0  0  0
   59.4197   28.6638   50.8281 H   0  0  0  0  0  0  0  0  0  0  0  0
  1  2  1  0
  2  3  2  0
  3  4  1  0
  4  5  1  0
  4  6  2  0
  6  7  1  0
  7  8  1  0
  8  9  1  0
  9 10  1  0
 10 11  2  0
 10 12  1  0
 12 13  1  0
 13 14  2  0
 14 15  1  0
 15 16  2  0
 16 17  1  0
 16 18  1  0
 18 19  2  0
  6 20  1  0
 20 21  1  0
 20 22  2  0
 22  2  1  0
 12  7  1  0
 19 13  1  0
  1 23  1  0
  1 24  1  0
  1 25  1  0
  3 26  1  0
  5 27  1  0
  5 28  1  0
  5 29  1  0
  7 30  1  6
  9 31  1  0
  9 32  1  0
 14 33  1  0
 15 34  1  0
 18 35  1  0
 19 36  1  0
 21 37  1  0
 21 38  1  0
 21 39  1  0
 22 40  1  0
M  CHG  1  17  -1
M  END
>  <UniqueID>  (66) 
61

>  <SMILES>  (66) 
Cc1cc(C)c([C@@H]2SCC(=O)N2c2ccc([O-])cc2)c(C)c1

>  <Energy>  (66) 
50.740261673674595

>  <Genealogy>  (66) 
Cc1cc(C)c(C2SCC(=O)N2c2ccc([O-])cc2)c(C)c1 (protonated)
Cc1cc(C)c([C@@H]2SCC(=O)N2c2ccc([O-])cc2)c(C)c1 (chirality)
Cc1cc(C)c([C@@H]2SCC(=O)N2c2ccc([O-])cc2)c(C)c1 (3D coordinates assigned)
Cc1cc(C)c([C@@H]2SCC(=O)N2c2ccc([O-])cc2)c(C)c1 (nonaromatic ring conformer: 50.740261673674595 kcal/mol)

>  <smiles>  (66) 
Cc1cc(C)c(C2SCC(=O)N2c2ccc(O)cc2)c(C)c1

>  <score_type>  (66) 
oracle

>  <origin>  (66) 
adg

>  <m_score__min__energy>  (66) 
-9.0500000000000007

>  <m_primary>  (66) 
energy

$$$$
66:0
     RDKit          3D

 55 58  0  0  0  0  0  0  0  0999 V2000
   54.0620   26.3350   46.3700 H   0  0  0  0  0  0  0  0  0  0  0  0
   54.9450   26.7000   46.0360 O   0  0  0  0  0  0  0  0  0  0  0  0
   56.1690   26.0900   46.3140 C   0  0  0  0  0  0  0  0  0  0  0  0
   56.1850   25.0050   47.1300 N   0  0  0  0  0  0  0  0  0  0  0  0
   57.3420   24.3600   47.4230 C   0  0  0  0  0  0  0  0  0  0  0  0
   57.3270   23.3580   48.1840 O   0  0  0  0  0  0  0  0  0  0  0  0
   58.5160   24.7900   46.8930 N   0  0  0  0  0  0  0  0  0  0  0  0
   58.5590   25.8700   46.0730 C   0  0  0  0  0  0  0  0  0  0  0  0
   59.6650   26.2400   45.5960 O   0  0  0  0  0  0  0  0  0  0  0  0
   57.3800   26.5690   45.7700 C   0  0  0  0  0  0  0  0  0  0  0  0
   57.4160   27.7280   44.8610 C   0  0  0  0  0  0  0  0  0  0  0  0
   57.3832   27.5243   43.7805 H   0  0  0  0  0  0  0  0  0  0  0  0
   57.4860   29.0200   45.2470 C   0  0  0  0  0  0  0  0  0  0  0  0
   56.9510   30.0890   44.5350 C   0  0  0  0  0  0  0  0  0  0  0  0
   56.2200   30.0240   43.2300 C   0  0  0  0  0  0  0  0  0  0  0  0
   55.1406   29.9280   43.4188 H   0  0  0  0  0  0  0  0  0  0  0  0
   56.4116   30.9427   42.6562 H   0  0  0  0  0  0  0  0  0  0  0  0
   56.5707   29.1535   42.6562 H   0  0  0  0  0  0  0  0  0  0  0  0
   57.1450   31.2370   45.2080 N   0  0  0  0  0  0  0  0  0  0  0  0
   57.8040   30.9540   46.3200 N   0  0  0  0  0  0  0  0  0  0  0  0
   58.1680   31.9830   47.2980 C   0  0  0  0  0  0  0  0  0  0  0  0
   57.2610   32.5262   47.6019 H   0  0  0  0  0  0  0  0  0  0  0  0
   58.6338   31.4910   48.1646 H   0  0  0  0  0  0  0  0  0  0  0  0
   59.1550   32.9610   46.7170 C   0  0  0  0  0  0  0  0  0  0  0  0
   58.7290   34.0450   46.2300 O   0  0  0  0  0  0  0  0  0  0  0  0
   60.5690   32.6770   46.6860 N   0  0  0  0  0  0  0  0  0  0  0  0
   61.5120   33.8000   46.5770 C   0  0  0  0  0  0  0  0  0  0  0  0
   61.3761   34.2843   45.5987 H   0  0  0  0  0  0  0  0  0  0  0  0
   61.3037   34.4999   47.3996 H   0  0  0  0  0  0  0  0  0  0  0  0
   62.9730   33.3390   46.7040 C   0  0  0  0  0  0  0  0  0  0  0  0
   63.2852   32.8897   45.7497 H   0  0  0  0  0  0  0  0  0  0  0  0
   63.5810   34.2209   46.9542 H   0  0  0  0  0  0  0  0  0  0  0  0
   63.1700   32.2990   47.8290 C   0  0  0  0  0  0  0  0  0  0  0  0
   64.1535   31.8334   47.6681 H   0  0  0  0  0  0  0  0  0  0  0  0
   63.2030   32.9720   49.1950 C   0  0  0  0  0  0  0  0  0  0  0  0
   61.9970   33.2460   49.8670 C   0  0  0  0  0  0  0  0  0  0  0  0
   61.0376   32.9980   49.3894 H   0  0  0  0  0  0  0  0  0  0  0  0
   62.0090   33.8310   51.1370 C   0  0  0  0  0  0  0  0  0  0  0  0
   61.0604   34.0507   51.6489 H   0  0  0  0  0  0  0  0  0  0  0  0
   63.2220   34.1370   51.7570 C   0  0  0  0  0  0  0  0  0  0  0  0
   63.2290   34.5982   52.7556 H   0  0  0  0  0  0  0  0  0  0  0  0
   64.4260   33.8570   51.1080 C   0  0  0  0  0  0  0  0  0  0  0  0
   65.3817   34.0959   51.5975 H   0  0  0  0  0  0  0  0  0  0  0  0
   64.4200   33.2740   49.8380 C   0  0  0  0  0  0  0  0  0  0  0  0
   65.3727   33.0491   49.3363 H   0  0  0  0  0  0  0  0  0  0  0  0
   62.1520   31.1220   47.7600 C   0  0  0  0  0  0  0  0  0  0  0  0
   62.7056   30.1934   47.5570 H   0  0  0  0  0  0  0  0  0  0  0  0
   61.6266   31.0894   48.7258 H   0  0  0  0  0  0  0  0  0  0  0  0
   61.0870   31.3020   46.6700 C   0  0  0  0  0  0  0  0  0  0  0  0
   61.5349   31.0943   45.6870 H   0  0  0  0  0  0  0  0  0  0  0  0
   60.2579   30.6048   46.8609 H   0  0  0  0  0  0  0  0  0  0  0  0
   58.0440   29.6190   46.3870 C   0  0  0  0  0  0  0  0  0  0  0  0
   58.7460   29.0380   47.3730 C   0  0  0  0  0  0  0  0  0  0  0  0
   59.1229   29.6436   48.2104 H   0  0  0  0  0  0  0  0  0  0  0  0
   58.9443   27.9564   47.3434 H   0  0  0  0  0  0  0  0  0  0  0  0
  1  2  1  0
  2  3  1  0
  3  4  1  0
  4  5  1  0
  5  6  2  0
  5  7  1  0
  7  8  1  0
  8  9  2  0
  8 10  1  0
 10 11  1  0
 11 12  1  0
 11 13  2  0
 13 14  1  0
 14 15  1  0
 15 16  1  0
 15 17  1  0
 15 18  1  0
 14 19  2  0
 19 20  1  0
 20 21  1  0
 21 22  1  0
 21 23  1  0
 21 24  1  0
 24 25  2  0
 24 26  1  0
 26 27  1  0
 27 28  1  0
 27 29  1  0
 27 30  1  0
 30 31  1  0
 30 32  1  0
 30 33  1  0
 33 34  1  0
 33 35  1  0
 35 36  2  0
 36 37  1  0
 36 38  1  0
 38 39  1  0
 38 40  2  0
 40 41  1  0
 40 42  1  0
 42 43  1  0
 42 44  2  0
 44 45  1  0
 33 46  1  0
 46 47  1  0
 46 48  1  0
 46 49  1  0
 49 50  1  0
 49 51  1  0
 20 52  1  0
 52 53  2  0
 53 54  1  0
 53 55  1  0
 10  3  2  0
 52 13  1  0
 49 26  1  0
 44 35  1  0
M  CHG  2   4  -1   7  -1
M  END
>  <UniqueID>  (67) 
62

>  <SMILES>  (67) 
C=c1/c(=C\c2c(O)[n-]c(=O)[n-]c2=O)c(C)nn1CC(=O)N1CCC(c2ccccc2)CC1

>  <Energy>  (67) 
109.10799692918265

>  <Genealogy>  (67) 
C=c1c(=Cc2c(O)[n-]c(=O)[n-]c2=O)c(C)nn1CC(=O)N1CCC(c2ccccc2)CC1 (protonated)
C=c1/c(=C\c2c(O)[n-]c(=O)[n-]c2=O)c(C)nn1CC(=O)N1CCC(c2ccccc2)CC1 (cis-trans isomerization)
C=c1/c(=C\c2c(O)[n-]c(=O)[n-]c2=O)c(C)nn1CC(=O)N1CCC(c2ccccc2)CC1 (3D coordinates assigned)
C=c1/c(=C\c2c(O)[n-]c(=O)[n-]c2=O)c(C)nn1CC(=O)N1CCC(c2ccccc2)CC1 (nonaromatic ring conformer: 109.10799692918265 kcal/mol)

>  <smiles>  (67) 
C=c1c(=Cc2c(O)[nH]c(=O)[nH]c2=O)c(C)nn1CC(=O)N1CCC(c2ccccc2)CC1

>  <score_type>  (67) 
oracle

>  <origin>  (67) 
adg

>  <m_score__min__energy>  (67) 
-14.49

>  <m_primary>  (67) 
energy

$$$$
67:0
     RDKit          3D

 37 39  0  0  0  0  0  0  0  0999 V2000
   55.9710   24.6120   47.7010 O   0  0  0  0  0  0  0  0  0  0  0  0
   56.7870   24.4030   46.7630 C   0  0  0  0  0  0  0  0  0  0  0  0
   56.3440   23.6760   45.5360 C   0  0  0  0  0  0  0  0  0  0  0  0
   54.8660   23.8530   45.3590 C   0  0  0  0  0  0  0  0  0  0  0  0
   54.0170   22.8590   45.0470 N   0  0  0  0  0  0  0  0  0  0  0  0
   52.8080   23.4610   45.0760 C   0  0  0  0  0  0  0  0  0  0  0  0
   51.7380   22.8460   44.8290 O   0  0  0  0  0  0  0  0  0  0  0  0
   52.8350   24.7720   45.3980 N   0  0  0  0  0  0  0  0  0  0  0  0
   54.1450   25.0030   45.5800 C   0  0  0  0  0  0  0  0  0  0  0  0
   54.6740   26.2330   45.9570 O   0  0  0  0  0  0  0  0  0  0  0  0
   58.1630   24.7680   46.9050 N   0  0  0  0  0  0  0  0  0  0  0  0
   58.8820   25.5370   45.8950 C   0  0  0  0  0  0  0  0  0  0  0  0
   58.6700   27.0080   46.1380 C   0  0  0  0  0  0  0  0  0  0  0  0
   59.5410   27.7270   46.9700 C   0  0  0  0  0  0  0  0  0  0  0  0
   59.3850   29.1060   47.1220 C   0  0  0  0  0  0  0  0  0  0  0  0
   58.3700   29.7800   46.4400 C   0  0  0  0  0  0  0  0  0  0  0  0
   57.4870   29.0770   45.6000 C   0  0  0  0  0  0  0  0  0  0  0  0
   56.4270   29.7920   44.8500 C   0  0  0  0  0  0  0  0  0  0  0  0
   55.2410   29.3640   44.8840 O   0  0  0  0  0  0  0  0  0  0  0  0
   56.7580   30.9640   44.0860 N   0  0  0  0  0  0  0  0  0  0  0  0
   57.2670   32.0660   44.5520 C   0  0  0  0  0  0  0  0  0  0  0  0
   57.0040   32.5710   45.7780 N   0  0  0  0  0  0  0  0  0  0  0  0
   57.6730   33.7360   45.9880 C   0  0  0  0  0  0  0  0  0  0  0  0
   58.4690   34.1590   44.9300 C   0  0  0  0  0  0  0  0  0  0  0  0
   58.3300   33.0330   43.6860 S   0  0  0  0  0  0  0  0  0  0  0  0
   57.6420   27.6860   45.4640 C   0  0  0  0  0  0  0  0  0  0  0  0
   56.8699   24.0816   44.6591 H   0  0  0  0  0  0  0  0  0  0  0  0
   56.5763   22.6057   45.6390 H   0  0  0  0  0  0  0  0  0  0  0  0
   55.1480   26.3400   46.8450 H   0  0  0  0  0  0  0  0  0  0  0  0
   59.9560   25.3067   45.9547 H   0  0  0  0  0  0  0  0  0  0  0  0
   58.5049   25.2726   44.8960 H   0  0  0  0  0  0  0  0  0  0  0  0
   60.3481   27.2035   47.5034 H   0  0  0  0  0  0  0  0  0  0  0  0
   60.0650   29.6643   47.7823 H   0  0  0  0  0  0  0  0  0  0  0  0
   58.2600   30.8679   46.5603 H   0  0  0  0  0  0  0  0  0  0  0  0
   57.5902   34.3027   46.9272 H   0  0  0  0  0  0  0  0  0  0  0  0
   59.0833   35.0713   44.9091 H   0  0  0  0  0  0  0  0  0  0  0  0
   56.9494   27.1223   44.8217 H   0  0  0  0  0  0  0  0  0  0  0  0
  1  2  2  0
  2  3  1  0
  3  4  1  0
  4  5  1  0
  5  6  1  0
  6  7  2  0
  6  8  1  0
  8  9  1  0
  9 10  1  0
  2 11  1  0
 11 12  1  0
 12 13  1  0
 13 14  2  0
 14 15  1  0
 15 16  2  0
 16 17  1  0
 17 18  1  0
 18 19  2  0
 18 20  1  0
 20 21  2  3
 21 22  1  0
 22 23  1  0
 23 24  2  0
 24 25  1  0
 17 26  2  0
  9  4  2  0
 26 13  1  0
 25 21  1  0
  3 27  1  0
  3 28  1  0
 10 29  1  0
 12 30  1  0
 12 31  1  0
 14 32  1  0
 15 33  1  0
 16 34  1  0
 23 35  1  0
 24 36  1  0
 26 37  1  0
M  CHG  4   5  -1   8  -1  11  -1  22  -1
M  END
>  <UniqueID>  (68) 
63

>  <SMILES>  (68) 
O=C(Cc1[n-]c(=O)[n-]c1O)[N-]Cc1cccc(C(=O)N=c2[n-]ccs2)c1

>  <Energy>  (68) 
94.2310086547566

>  <Genealogy>  (68) 
O=C(Cc1[n-]c(=O)[n-]c1O)[N-]Cc1cccc(C(=O)N=c2[n-]ccs2)c1 (protonated)
O=C(Cc1[n-]c(=O)[n-]c1O)[N-]Cc1cccc(C(=O)N=c2[n-]ccs2)c1 (3D coordinates assigned)
O=C(Cc1[n-]c(=O)[n-]c1O)[N-]Cc1cccc(C(=O)N=c2[n-]ccs2)c1 (optimized conformer: 94.2310086547566 kcal/mol)

>  <smiles>  (68) 
O=C(Cc1[nH]c(=O)[nH]c1O)NCc1cccc(C(=O)N=c2[nH]ccs2)c1

>  <score_type>  (68) 
oracle

>  <origin>  (68) 
adg

>  <m_score__min__energy>  (68) 
-15.92

>  <m_primary>  (68) 
energy

$$$$
68:0
     RDKit          3D

 44 46  0  0  0  0  0  0  0  0999 V2000
   56.7230   24.8300   43.5150 N   0  0  0  0  0  0  0  0  0  0  0  0
   56.3870   23.4120   43.4200 C   0  0  0  0  0  0  0  0  0  0  0  0
   55.7830   22.9010   44.7350 C   0  0  0  0  0  0  0  0  0  0  0  0
   54.5970   23.7180   45.1880 C   0  0  0  0  0  0  0  0  0  0  0  0
   53.4330   23.3500   44.8800 O   0  0  0  0  0  0  0  0  0  0  0  0
   54.7500   24.8950   45.9960 N   0  0  0  0  0  0  0  0  0  0  0  0
   55.8150   25.6330   46.1200 C   0  0  0  0  0  0  0  0  0  0  0  0
   55.8740   26.8880   45.6290 N   0  0  0  0  0  0  0  0  0  0  0  0
   57.0920   27.4660   45.8270 C   0  0  0  0  0  0  0  0  0  0  0  0
   57.3760   28.8490   45.3620 C   0  0  0  0  0  0  0  0  0  0  0  0
   58.5930   29.4670   45.7020 C   0  0  0  0  0  0  0  0  0  0  0  0
   58.8790   30.7660   45.2750 C   0  0  0  0  0  0  0  0  0  0  0  0
   57.9570   31.4810   44.4980 C   0  0  0  0  0  0  0  0  0  0  0  0
   58.2810   32.8200   44.0820 N   0  0  0  0  0  0  0  0  0  0  0  0
   58.0930   34.2200   45.0900 S   0  0  0  0  0  0  0  0  0  0  0  0
   58.8860   35.3580   44.5130 O   0  0  0  0  0  0  0  0  0  0  0  0
   56.6410   34.6060   45.1300 O   0  0  0  0  0  0  0  0  0  0  0  0
   58.6930   33.8790   46.7110 C   0  0  0  0  0  0  0  0  0  0  0  0
   58.0250   32.9490   47.5210 C   0  0  0  0  0  0  0  0  0  0  0  0
   58.4890   32.6830   48.8130 C   0  0  0  0  0  0  0  0  0  0  0  0
   59.6250   33.3390   49.2980 C   0  0  0  0  0  0  0  0  0  0  0  0
   60.2960   34.2630   48.4920 C   0  0  0  0  0  0  0  0  0  0  0  0
   59.8330   34.5320   47.2000 C   0  0  0  0  0  0  0  0  0  0  0  0
   56.7450   30.8640   44.1430 C   0  0  0  0  0  0  0  0  0  0  0  0
   56.4580   29.5650   44.5690 C   0  0  0  0  0  0  0  0  0  0  0  0
   58.0220   26.6440   46.4740 C   0  0  0  0  0  0  0  0  0  0  0  0
   57.2850   25.1680   46.7980 S   0  0  0  0  0  0  0  0  0  0  0  0
   56.5750   25.2660   42.5760 H   0  0  0  0  0  0  0  0  0  0  0  0
   56.0340   25.2770   44.1620 H   0  0  0  0  0  0  0  0  0  0  0  0
   55.6574   23.2687   42.6093 H   0  0  0  0  0  0  0  0  0  0  0  0
   57.3078   22.8465   43.2140 H   0  0  0  0  0  0  0  0  0  0  0  0
   55.4589   21.8596   44.5921 H   0  0  0  0  0  0  0  0  0  0  0  0
   56.5586   22.9830   45.5107 H   0  0  0  0  0  0  0  0  0  0  0  0
   59.3282   28.9210   46.3113 H   0  0  0  0  0  0  0  0  0  0  0  0
   59.8364   31.2320   45.5510 H   0  0  0  0  0  0  0  0  0  0  0  0
   58.7330   32.9660   43.1510 H   0  0  0  0  0  0  0  0  0  0  0  0
   57.1346   32.4280   47.1393 H   0  0  0  0  0  0  0  0  0  0  0  0
   57.9602   31.9573   49.4484 H   0  0  0  0  0  0  0  0  0  0  0  0
   59.9904   33.1278   50.3138 H   0  0  0  0  0  0  0  0  0  0  0  0
   61.1891   34.7791   48.8742 H   0  0  0  0  0  0  0  0  0  0  0  0
   60.3644   35.2573   46.5663 H   0  0  0  0  0  0  0  0  0  0  0  0
   56.0164   31.4086   43.5245 H   0  0  0  0  0  0  0  0  0  0  0  0
   55.5051   29.0963   44.2822 H   0  0  0  0  0  0  0  0  0  0  0  0
   59.0572   26.9168   46.7270 H   0  0  0  0  0  0  0  0  0  0  0  0
  1  2  1  0
  2  3  1  0
  3  4  1  0
  4  5  2  0
  4  6  1  0
  6  7  2  3
  7  8  1  0
  8  9  1  0
  9 10  1  0
 10 11  2  0
 11 12  1  0
 12 13  2  0
 13 14  1  0
 14 15  1  0
 15 16  2  0
 15 17  2  0
 15 18  1  0
 18 19  2  0
 19 20  1  0
 20 21  2  0
 21 22  1  0
 22 23  2  0
 13 24  1  0
 24 25  2  0
  9 26  2  0
 26 27  1  0
 27  7  1  0
 25 10  1  0
 23 18  1  0
  1 28  1  0
  1 29  1  0
  2 30  1  0
  2 31  1  0
  3 32  1  0
  3 33  1  0
 11 34  1  0
 12 35  1  0
 14 36  1  0
 19 37  1  0
 20 38  1  0
 21 39  1  0
 22 40  1  0
 23 41  1  0
 24 42  1  0
 25 43  1  0
 26 44  1  0
M  CHG  1   8  -1
M  END
>  <UniqueID>  (69) 
64

>  <SMILES>  (69) 
NCCC(=O)N=c1[n-]c(-c2ccc(NS(=O)(=O)c3ccccc3)cc2)cs1

>  <Energy>  (69) 
84.796991835135

>  <Genealogy>  (69) 
NCCC(=O)N=c1[n-]c(-c2ccc(NS(=O)(=O)c3ccccc3)cc2)cs1 (protonated)
NCCC(=O)N=c1[n-]c(-c2ccc(NS(=O)(=O)c3ccccc3)cc2)cs1 (3D coordinates assigned)
NCCC(=O)N=c1[n-]c(-c2ccc(NS(=O)(=O)c3ccccc3)cc2)cs1 (optimized conformer: 84.796991835135 kcal/mol)

>  <smiles>  (69) 
NCCC(=O)N=c1[nH]c(-c2ccc(NS(=O)(=O)c3ccccc3)cc2)cs1

>  <score_type>  (69) 
oracle

>  <origin>  (69) 
adg

>  <m_score__min__energy>  (69) 
-11.31

>  <m_primary>  (69) 
energy

$$$$
69:0
     RDKit          3D

 50 53  0  0  0  0  0  0  0  0999 V2000
   57.9353   27.2134   47.9619 H   0  0  0  0  0  0  0  0  0  0  0  0
   57.4420   26.3520   47.4880 C   0  0  0  0  0  0  0  0  0  0  0  0
   56.8929   25.6250   48.1044 H   0  0  0  0  0  0  0  0  0  0  0  0
   57.5100   26.1880   46.1580 C   0  0  0  0  0  0  0  0  0  0  0  0
   56.9380   25.1500   45.4150 C   0  0  0  0  0  0  0  0  0  0  0  0
   56.2340   24.1020   45.8820 C   0  0  0  0  0  0  0  0  0  0  0  0
   56.7640   23.3377   46.4692 H   0  0  0  0  0  0  0  0  0  0  0  0
   54.7830   23.9250   45.6460 C   0  0  0  0  0  0  0  0  0  0  0  0
   53.9120   25.0240   45.5500 C   0  0  0  0  0  0  0  0  0  0  0  0
   54.3940   26.3220   45.6770 O   0  0  0  0  0  0  0  0  0  0  0  0
   52.5810   24.8220   45.3520 N   0  0  0  0  0  0  0  0  0  0  0  0
   51.9430   25.6460   45.2730 H   0  0  0  0  0  0  0  0  0  0  0  0
   52.0710   23.5640   45.2690 C   0  0  0  0  0  0  0  0  0  0  0  0
   50.8360   23.3920   45.0870 O   0  0  0  0  0  0  0  0  0  0  0  0
   52.8900   22.4880   45.3890 N   0  0  0  0  0  0  0  0  0  0  0  0
   54.2250   22.6380   45.5810 C   0  0  0  0  0  0  0  0  0  0  0  0
   54.9530   21.6160   45.6900 O   0  0  0  0  0  0  0  0  0  0  0  0
   57.2800   25.3840   44.0880 C   0  0  0  0  0  0  0  0  0  0  0  0
   57.0121   24.7630   43.2205 H   0  0  0  0  0  0  0  0  0  0  0  0
   58.0220   26.5490   44.0720 C   0  0  0  0  0  0  0  0  0  0  0  0
   58.6350   27.1560   42.8470 C   0  0  0  0  0  0  0  0  0  0  0  0
   59.3875   27.9012   43.1444 H   0  0  0  0  0  0  0  0  0  0  0  0
   59.1157   26.3680   42.2486 H   0  0  0  0  0  0  0  0  0  0  0  0
   57.8518   27.6444   42.2486 H   0  0  0  0  0  0  0  0  0  0  0  0
   58.1710   27.0290   45.3250 N   0  0  0  0  0  0  0  0  0  0  0  0
   58.8980   28.2150   45.6910 C   0  0  0  0  0  0  0  0  0  0  0  0
   60.2290   28.1070   46.0950 C   0  0  0  0  0  0  0  0  0  0  0  0
   60.7112   27.1188   46.1253 H   0  0  0  0  0  0  0  0  0  0  0  0
   60.9540   29.2420   46.4610 C   0  0  0  0  0  0  0  0  0  0  0  0
   62.0010   29.1346   46.7807 H   0  0  0  0  0  0  0  0  0  0  0  0
   60.3660   30.5280   46.4280 C   0  0  0  0  0  0  0  0  0  0  0  0
   61.1230   31.7180   46.8100 N   0  0  0  0  0  0  0  0  0  0  0  0
   62.5360   31.5780   47.2210 C   0  0  0  0  0  0  0  0  0  0  0  0
   62.5854   30.8659   48.0579 H   0  0  0  0  0  0  0  0  0  0  0  0
   63.0943   31.2289   46.3398 H   0  0  0  0  0  0  0  0  0  0  0  0
   63.1800   32.8940   47.6670 C   0  0  0  0  0  0  0  0  0  0  0  0
   62.9069   33.0915   48.7141 H   0  0  0  0  0  0  0  0  0  0  0  0
   64.2714   32.8028   47.5642 H   0  0  0  0  0  0  0  0  0  0  0  0
   62.7420   33.9660   46.8670 O   0  0  0  0  0  0  0  0  0  0  0  0
   61.3840   34.2010   47.1490 C   0  0  0  0  0  0  0  0  0  0  0  0
   61.2540   34.2951   48.2372 H   0  0  0  0  0  0  0  0  0  0  0  0
   61.0767   35.1274   46.6418 H   0  0  0  0  0  0  0  0  0  0  0  0
   60.5090   33.0530   46.6380 C   0  0  0  0  0  0  0  0  0  0  0  0
   59.5562   33.0709   47.1874 H   0  0  0  0  0  0  0  0  0  0  0  0
   60.3721   33.2082   45.5576 H   0  0  0  0  0  0  0  0  0  0  0  0
   59.0120   30.6190   46.0180 C   0  0  0  0  0  0  0  0  0  0  0  0
   58.5216   31.6032   45.9881 H   0  0  0  0  0  0  0  0  0  0  0  0
   58.2870   29.4770   45.6500 C   0  0  0  0  0  0  0  0  0  0  0  0
   56.9180   29.6190   45.2180 C   0  0  0  0  0  0  0  0  0  0  0  0
   55.8190   29.7310   44.8730 N   0  0  0  0  0  0  0  0  0  0  0  0
  1  2  1  0
  2  3  1  0
  2  4  2  0
  4  5  1  0
  5  6  2  0
  6  7  1  0
  6  8  1  0
  8  9  2  0
  9 10  1  0
  9 11  1  0
 11 12  1  0
 11 13  1  0
 13 14  2  0
 13 15  1  0
 15 16  1  0
 16 17  2  0
  5 18  1  0
 18 19  1  0
 18 20  2  0
 20 21  1  0
 21 22  1  0
 21 23  1  0
 21 24  1  0
 20 25  1  0
 25 26  1  0
 26 27  2  0
 27 28  1  0
 27 29  1  0
 29 30  1  0
 29 31  2  0
 31 32  1  0
 32 33  1  0
 33 34  1  0
 33 35  1  0
 33 36  1  0
 36 37  1  0
 36 38  1  0
 36 39  1  0
 39 40  1  0
 40 41  1  0
 40 42  1  0
 40 43  1  0
 43 44  1  0
 43 45  1  0
 31 46  1  0
 46 47  1  0
 46 48  2  0
 48 49  1  0
 49 50  3  0
 25  4  1  0
 48 26  1  0
 16  8  1  0
 43 32  1  0
M  CHG  2  10  -1  15  -1
M  END
>  <UniqueID>  (70) 
65

>  <SMILES>  (70) 
C=c1/c(=C/c2c([O-])[nH]c(=O)[n-]c2=O)cc(C)n1-c1ccc(N2CCOCC2)cc1C#N

>  <Energy>  (70) 
105.87415611266798

>  <Genealogy>  (70) 
C=c1c(=Cc2c([O-])[nH]c(=O)[n-]c2=O)cc(C)n1-c1ccc(N2CCOCC2)cc1C#N (protonated)
C=c1/c(=C/c2c([O-])[nH]c(=O)[n-]c2=O)cc(C)n1-c1ccc(N2CCOCC2)cc1C#N (cis-trans isomerization)
C=c1/c(=C/c2c([O-])[nH]c(=O)[n-]c2=O)cc(C)n1-c1ccc(N2CCOCC2)cc1C#N (3D coordinates assigned)
C=c1/c(=C/c2c([O-])[nH]c(=O)[n-]c2=O)cc(C)n1-c1ccc(N2CCOCC2)cc1C#N (nonaromatic ring conformer: 105.87415611266798 kcal/mol)

>  <smiles>  (70) 
C=c1c(=Cc2c(O)[nH]c(=O)[nH]c2=O)cc(C)n1-c1ccc(N2CCOCC2)cc1C#N

>  <score_type>  (70) 
oracle

>  <origin>  (70) 
adg

>  <m_score__min__energy>  (70) 
-13.529999999999999

>  <m_primary>  (70) 
energy

$$$$
70:0
     RDKit          3D

 69 73  0  0  0  0  0  0  0  0999 V2000
   57.8840   32.7290   49.0980 H   0  0  0  0  0  0  0  0  0  0  0  0
   58.1480   32.2020   49.9610 N   0  0  0  0  0  0  0  0  0  0  0  0
   59.3590   32.2120   50.4170 C   0  0  0  0  0  0  0  0  0  0  0  0
   59.7900   31.1890   51.2030 N   0  0  0  0  0  0  0  0  0  0  0  0
   61.0510   31.1420   51.7100 C   0  0  0  0  0  0  0  0  0  0  0  0
   61.4650   29.9740   52.5760 C   0  0  1  0  0  0  0  0  0  0  0  0
   61.0933   30.1358   53.5986 H   0  0  0  0  0  0  0  0  0  0  0  0
   60.8300   28.6580   52.0650 C   0  0  0  0  0  0  0  0  0  0  0  0
   59.9269   28.8913   51.4820 H   0  0  0  0  0  0  0  0  0  0  0  0
   60.5646   28.0263   52.9255 H   0  0  0  0  0  0  0  0  0  0  0  0
   61.7920   27.9340   51.2090 N   0  0  0  0  0  0  0  0  0  0  0  0
   61.1360   26.8450   50.4620 C   0  0  0  0  0  0  0  0  0  0  0  0
   61.8978   26.1361   50.1055 H   0  0  0  0  0  0  0  0  0  0  0  0
   60.4276   26.3255   51.1240 H   0  0  0  0  0  0  0  0  0  0  0  0
   60.3930   27.4110   49.2870 C   0  0  0  0  0  0  0  0  0  0  0  0
   60.0810   26.6540   48.1610 C   0  0  0  0  0  0  0  0  0  0  0  0
   60.2994   25.5857   48.0162 H   0  0  0  0  0  0  0  0  0  0  0  0
   59.3100   27.6670   47.0620 S   0  0  0  0  0  0  0  0  0  0  0  0
   59.3960   29.0200   48.0550 C   0  0  0  0  0  0  0  0  0  0  0  0
   58.8970   30.3810   47.6580 C   0  0  0  0  0  0  0  0  0  0  0  0
   58.2501   30.2745   46.7747 H   0  0  0  0  0  0  0  0  0  0  0  0
   58.3493   30.7969   48.5165 H   0  0  0  0  0  0  0  0  0  0  0  0
   60.0170   31.3400   47.3240 C   0  0  0  0  0  0  0  0  0  0  0  0
   61.3160   31.0140   47.7600 C   0  0  0  0  0  0  0  0  0  0  0  0
   61.4850   30.0785   48.3134 H   0  0  0  0  0  0  0  0  0  0  0  0
   62.3910   31.8640   47.4980 C   0  0  0  0  0  0  0  0  0  0  0  0
   63.4006   31.5954   47.8424 H   0  0  0  0  0  0  0  0  0  0  0  0
   62.1870   33.0520   46.8010 C   0  0  0  0  0  0  0  0  0  0  0  0
   63.0371   33.7172   46.5892 H   0  0  0  0  0  0  0  0  0  0  0  0
   60.9070   33.4000   46.3710 C   0  0  0  0  0  0  0  0  0  0  0  0
   60.7562   34.3399   45.8198 H   0  0  0  0  0  0  0  0  0  0  0  0
   59.8070   32.5650   46.6330 C   0  0  0  0  0  0  0  0  0  0  0  0
   58.2170   33.0770   46.0350 S   0  0  0  0  0  0  0  0  0  0  0  0
   57.3730   33.5460   47.1870 O   0  0  0  0  0  0  0  0  0  0  0  0
   57.4980   31.9390   45.3690 O   0  0  0  0  0  0  0  0  0  0  0  0
   58.4100   34.4200   44.8850 C   0  0  0  0  0  0  0  0  0  0  0  0
   58.5452   35.3606   45.4391 H   0  0  0  0  0  0  0  0  0  0  0  0
   59.2911   34.2372   44.2523 H   0  0  0  0  0  0  0  0  0  0  0  0
   57.5131   34.4928   44.2523 H   0  0  0  0  0  0  0  0  0  0  0  0
   60.0270   28.7210   49.2160 N   0  0  0  0  0  0  0  0  0  0  0  0
   60.2190   29.4100   49.9760 H   0  0  0  0  0  0  0  0  0  0  0  0
   62.9130   27.4140   52.0240 C   0  0  0  0  0  0  0  0  0  0  0  0
   63.7260   27.1051   51.3505 H   0  0  0  0  0  0  0  0  0  0  0  0
   62.5343   26.5661   52.6135 H   0  0  0  0  0  0  0  0  0  0  0  0
   63.4610   28.4690   53.0130 C   0  0  0  0  0  0  0  0  0  0  0  0
   64.5603   28.4323   53.0009 H   0  0  0  0  0  0  0  0  0  0  0  0
   63.0707   28.2364   54.0148 H   0  0  0  0  0  0  0  0  0  0  0  0
   63.0070   29.8830   52.6390 C   0  0  0  0  0  0  0  0  0  0  0  0
   63.4229   30.1454   51.6550 H   0  0  0  0  0  0  0  0  0  0  0  0
   63.3670   30.5808   53.4094 H   0  0  0  0  0  0  0  0  0  0  0  0
   61.9530   32.1710   51.4110 C   0  0  0  0  0  0  0  0  0  0  0  0
   62.9799   32.1333   51.8034 H   0  0  0  0  0  0  0  0  0  0  0  0
   61.5470   33.2500   50.6110 C   0  0  0  0  0  0  0  0  0  0  0  0
   62.5450   34.3370   50.2860 C   0  0  0  0  0  0  0  0  0  0  0  0
   62.4350   34.6231   49.2296 H   0  0  0  0  0  0  0  0  0  0  0  0
   62.3505   35.2003   50.9394 H   0  0  0  0  0  0  0  0  0  0  0  0
   63.9540   33.8600   50.5240 C   0  0  0  0  0  0  0  0  0  0  0  0
   64.6350   34.2230   51.6990 C   0  0  0  0  0  0  0  0  0  0  0  0
   64.1410   34.8663   52.4421 H   0  0  0  0  0  0  0  0  0  0  0  0
   65.9390   33.7690   51.9270 C   0  0  0  0  0  0  0  0  0  0  0  0
   66.4673   34.0571   52.8478 H   0  0  0  0  0  0  0  0  0  0  0  0
   66.5710   32.9510   50.9880 C   0  0  0  0  0  0  0  0  0  0  0  0
   67.5955   32.5943   51.1700 H   0  0  0  0  0  0  0  0  0  0  0  0
   65.9020   32.5860   49.8180 C   0  0  0  0  0  0  0  0  0  0  0  0
   66.4005   31.9415   49.0790 H   0  0  0  0  0  0  0  0  0  0  0  0
   64.6000   33.0380   49.5840 C   0  0  0  0  0  0  0  0  0  0  0  0
   64.0783   32.7490   48.6597 H   0  0  0  0  0  0  0  0  0  0  0  0
   60.2290   33.2700   50.1020 C   0  0  0  0  0  0  0  0  0  0  0  0
   59.6530   34.5960   49.0880 Cl  0  0  0  0  0  0  0  0  0  0  0  0
  1  2  1  0
  2  3  2  0
  3  4  1  0
  4  5  1  0
  5  6  1  0
  6  7  1  1
  6  8  1  0
  8  9  1  0
  8 10  1  0
  8 11  1  0
 11 12  1  0
 12 13  1  0
 12 14  1  0
 12 15  1  0
 15 16  2  0
 16 17  1  0
 16 18  1  0
 18 19  1  0
 19 20  1  0
 20 21  1  0
 20 22  1  0
 20 23  1  0
 23 24  2  0
 24 25  1  0
 24 26  1  0
 26 27  1  0
 26 28  2  0
 28 29  1  0
 28 30  1  0
 30 31  1  0
 30 32  2  0
 32 33  1  0
 33 34  2  0
 33 35  2  0
 33 36  1  0
 36 37  1  0
 36 38  1  0
 36 39  1  0
 19 40  2  0
 40 41  1  0
 11 42  1  0
 42 43  1  0
 42 44  1  0
 42 45  1  0
 45 46  1  0
 45 47  1  0
 45 48  1  0
 48 49  1  0
 48 50  1  0
  5 51  2  0
 51 52  1  0
 51 53  1  0
 53 54  1  0
 54 55  1  0
 54 56  1  0
 54 57  1  0
 57 58  2  0
 58 59  1  0
 58 60  1  0
 60 61  1  0
 60 62  2  0
 62 63  1  0
 62 64  1  0
 64 65  1  0
 64 66  2  0
 66 67  1  0
 53 68  2  0
 68 69  1  0
 68  3  1  0
 48  6  1  0
 66 57  1  0
 40 15  1  0
 32 23  1  0
M  CHG  2   4  -1  40   1
M  END
>  <UniqueID>  (71) 
66

>  <SMILES>  (71) 
[H]/N=c1\[n-]c([C@@H]2CCCN(Cc3csc(Cc4ccccc4S(C)(=O)=O)[nH+]3)C2)cc(Cc2ccccc2)c1Cl

>  <Energy>  (71) 
106.35586306040425

>  <Genealogy>  (71) 
CS(=O)(=O)c1ccccc1Cc1[nH+]c(CN2CCCC(c3cc(Cc4ccccc4)c(Cl)c(=N)[n-]3)C2)cs1 (protonated)
CS(=O)(=O)c1ccccc1Cc1[nH+]c(CN2CCC[C@@H](c3cc(Cc4ccccc4)c(Cl)c(=N)[n-]3)C2)cs1 (chirality)
[H]/N=c1\[n-]c([C@@H]2CCCN(Cc3csc(Cc4ccccc4S(C)(=O)=O)[nH+]3)C2)cc(Cc2ccccc2)c1Cl (cis-trans isomerization)
[H]/N=c1\[n-]c([C@@H]2CCCN(Cc3csc(Cc4ccccc4S(C)(=O)=O)[nH+]3)C2)cc(Cc2ccccc2)c1Cl (3D coordinates assigned)
[H]/N=c1\[n-]c([C@@H]2CCCN(Cc3csc(Cc4ccccc4S(C)(=O)=O)[nH+]3)C2)cc(Cc2ccccc2)c1Cl (nonaromatic ring conformer: 106.35586306040425 kcal/mol)

>  <smiles>  (71) 
CS(=O)(=O)c1ccccc1Cc1nc(CN2CCCC(c3cc(Cc4ccccc4)c(Cl)c(=N)[nH]3)C2)cs1

>  <score_type>  (71) 
oracle

>  <origin>  (71) 
adg

>  <m_score__min__energy>  (71) 
-11.81

>  <m_primary>  (71) 
energy

$$$$
71:0
     RDKit          3D

 31 32  0  0  1  0  0  0  0  0999 V2000
   58.4940   32.7530   48.3950 C   0  0  0  0  0  0  0  0  0  0  0  0
   58.3300   32.6370   46.9220 C   0  0  0  0  0  0  0  0  0  0  0  0
   58.1900   31.4220   46.3990 N   0  0  0  0  0  0  0  0  0  0  0  0
   58.0470   31.2820   45.1000 N   0  0  0  0  0  0  0  0  0  0  0  0
   58.0340   32.3400   44.2460 C   0  0  0  0  0  0  0  0  0  0  0  0
   57.8450   31.9830   42.5120 S   0  0  0  0  0  0  0  0  0  0  0  0
   56.5430   30.7390   42.2810 C   0  0  0  0  0  0  0  0  0  0  0  0
   56.3900   29.8710   43.5040 C   0  0  0  0  0  0  0  0  0  0  0  0
   55.7310   30.2450   44.5020 O   0  0  0  0  0  0  0  0  0  0  0  0
   57.0200   28.6110   43.4850 N   0  0  0  0  0  0  0  0  0  0  0  0
   57.7320   28.2470   44.4820 C   0  0  0  0  0  0  0  0  0  0  0  0
   59.0830   28.3240   44.5060 N   0  0  0  0  0  0  0  0  0  0  0  0
   59.7980   27.9220   45.5960 C   0  0  0  0  0  0  0  0  0  0  0  0
   59.1560   27.4240   46.7040 C   0  0  0  0  0  0  0  0  0  0  0  0
   60.1830   26.8620   48.2250 Br  0  0  0  0  0  0  0  0  0  0  0  0
   57.7800   27.3310   46.7120 C   0  0  0  0  0  0  0  0  0  0  0  0
   57.0870   27.7480   45.5930 C   0  0  0  0  0  0  0  0  0  0  0  0
   55.6850   27.6630   45.5800 O   0  0  0  0  0  0  0  0  0  0  0  0
   58.1720   33.5790   44.7430 N   0  0  0  0  0  0  0  0  0  0  0  0
   58.3220   33.7500   46.0860 C   0  0  0  0  0  0  0  0  0  0  0  0
   58.4550   34.8590   46.6240 O   0  0  0  0  0  0  0  0  0  0  0  0
   57.6955   32.1882   48.8984 H   0  0  0  0  0  0  0  0  0  0  0  0
   59.4726   32.3450   48.6882 H   0  0  0  0  0  0  0  0  0  0  0  0
   58.4353   33.8116   48.6882 H   0  0  0  0  0  0  0  0  0  0  0  0
   57.9390   30.2870   44.7430 H   0  0  0  0  0  0  0  0  0  0  0  0
   55.5896   31.2509   42.0836 H   0  0  0  0  0  0  0  0  0  0  0  0
   56.8235   30.0969   41.4330 H   0  0  0  0  0  0  0  0  0  0  0  0
   59.5950   28.7050   43.6600 H   0  0  0  0  0  0  0  0  0  0  0  0
   60.8954   27.9970   45.5878 H   0  0  0  0  0  0  0  0  0  0  0  0
   57.2474   26.9341   47.5888 H   0  0  0  0  0  0  0  0  0  0  0  0
   55.1390   28.1520   44.9010 H   0  0  0  0  0  0  0  0  0  0  0  0
  1  2  1  0
  2  3  2  0
  3  4  1  0
  4  5  1  0
  5  6  1  0
  6  7  1  0
  7  8  1  0
  8  9  2  0
  8 10  1  0
 10 11  2  0
 11 12  1  0
 12 13  1  0
 13 14  2  0
 14 15  1  0
 14 16  1  0
 16 17  2  0
 17 18  1  0
  5 19  2  0
 19 20  1  0
 20 21  2  0
 20  2  1  0
 17 11  1  0
  1 22  1  0
  1 23  1  0
  1 24  1  0
  4 25  1  0
  7 26  1  0
  7 27  1  0
 12 28  1  0
 13 29  1  0
 16 30  1  0
 18 31  1  0
M  END
>  <smiles>  (72) 
Cc1n[nH]c(SCC(=O)N=c2[nH]cc(Br)cc2O)nc1=O

>  <score_type>  (72) 
oracle

>  <origin>  (72) 
adg

>  <m_score__min__energy>  (72) 
-8.4900000000000002

>  <m_primary>  (72) 
energy

$$$$
72:0
     RDKit          3D

 35 37  0  0  0  0  0  0  0  0999 V2000
   54.5341   22.3759   44.5924 H   0  0  0  0  0  0  0  0  0  0  0  0
   55.1960   23.1970   44.9050 C   0  0  0  0  0  0  0  0  0  0  0  0
   56.5780   23.0030   44.9450 C   0  0  0  0  0  0  0  0  0  0  0  0
   57.0040   22.0280   44.6661 H   0  0  0  0  0  0  0  0  0  0  0  0
   57.4210   24.0460   45.3390 C   0  0  0  0  0  0  0  0  0  0  0  0
   58.5087   23.8857   45.3725 H   0  0  0  0  0  0  0  0  0  0  0  0
   56.8890   25.2990   45.6930 C   0  0  0  0  0  0  0  0  0  0  0  0
   57.7950   26.3940   46.1210 C   0  0  0  0  0  0  0  0  0  0  0  0
   58.1520   26.4660   47.3260 O   0  0  0  0  0  0  0  0  0  0  0  0
   58.3510   27.3290   45.1850 N   0  0  0  0  0  0  0  0  0  0  0  0
   57.8830   28.5130   44.9160 C   0  0  0  0  0  0  0  0  0  0  0  0
   58.7730   29.9490   44.8540 S   0  0  0  0  0  0  0  0  0  0  0  0
   57.4330   30.8670   44.4090 C   0  0  0  0  0  0  0  0  0  0  0  0
   57.4590   32.3250   44.0770 C   0  0  0  0  0  0  0  0  0  0  0  0
   58.0134   32.4749   43.1388 H   0  0  0  0  0  0  0  0  0  0  0  0
   56.4267   32.6874   43.9629 H   0  0  0  0  0  0  0  0  0  0  0  0
   58.1320   33.0930   45.1810 C   0  0  0  0  0  0  0  0  0  0  0  0
   58.7970   34.2990   44.9020 C   0  0  0  0  0  0  0  0  0  0  0  0
   58.8008   34.6985   43.8771 H   0  0  0  0  0  0  0  0  0  0  0  0
   59.4540   34.9930   45.9230 C   0  0  0  0  0  0  0  0  0  0  0  0
   59.9654   35.9413   45.7013 H   0  0  0  0  0  0  0  0  0  0  0  0
   59.4620   34.4840   47.2240 C   0  0  0  0  0  0  0  0  0  0  0  0
   59.9779   35.0324   48.0259 H   0  0  0  0  0  0  0  0  0  0  0  0
   58.8140   33.2770   47.5070 C   0  0  0  0  0  0  0  0  0  0  0  0
   58.8350   32.6330   49.1400 Cl  0  0  0  0  0  0  0  0  0  0  0  0
   58.1540   32.5800   46.4880 C   0  0  0  0  0  0  0  0  0  0  0  0
   57.6511   31.6276   46.7118 H   0  0  0  0  0  0  0  0  0  0  0  0
   56.3340   30.0230   44.2870 C   0  0  0  0  0  0  0  0  0  0  0  0
   55.3387   30.3804   43.9844 H   0  0  0  0  0  0  0  0  0  0  0  0
   56.5930   28.7200   44.5730 N   0  0  0  0  0  0  0  0  0  0  0  0
   55.8730   27.9660   44.5220 H   0  0  0  0  0  0  0  0  0  0  0  0
   55.4910   25.4850   45.6550 C   0  0  0  0  0  0  0  0  0  0  0  0
   54.9230   26.7100   45.9900 O   0  0  0  0  0  0  0  0  0  0  0  0
   54.6540   24.4340   45.2620 C   0  0  0  0  0  0  0  0  0  0  0  0
   53.5645   24.5829   45.2342 H   0  0  0  0  0  0  0  0  0  0  0  0
  1  2  1  0
  2  3  2  0
  3  4  1  0
  3  5  1  0
  5  6  1  0
  5  7  2  0
  7  8  1  0
  8  9  2  0
  8 10  1  0
 10 11  2  0
 11 12  1  0
 12 13  1  0
 13 14  1  0
 14 15  1  0
 14 16  1  0
 14 17  1  0
 17 18  2  0
 18 19  1  0
 18 20  1  0
 20 21  1  0
 20 22  2  0
 22 23  1  0
 22 24  1  0
 24 25  1  0
 24 26  2  0
 26 27  1  0
 13 28  2  0
 28 29  1  0
 28 30  1  0
 30 31  1  0
  7 32  1  0
 32 33  1  0
 32 34  2  0
 34 35  1  0
 34  2  1  0
 30 11  1  0
 26 17  1  0
M  CHG  1  33  -1
M  END
>  <UniqueID>  (73) 
67

>  <SMILES>  (73) 
O=C(/N=c1/[nH]cc(Cc2cccc(Cl)c2)s1)c1ccccc1[O-]

>  <Energy>  (73) 
75.1002380625103

>  <Genealogy>  (73) 
O=C(N=c1[nH]cc(Cc2cccc(Cl)c2)s1)c1ccccc1[O-] (protonated)
O=C(/N=c1/[nH]cc(Cc2cccc(Cl)c2)s1)c1ccccc1[O-] (cis-trans isomerization)
O=C(/N=c1/[nH]cc(Cc2cccc(Cl)c2)s1)c1ccccc1[O-] (3D coordinates assigned)
O=C(/N=c1/[nH]cc(Cc2cccc(Cl)c2)s1)c1ccccc1[O-] (optimized conformer: 75.1002380625103 kcal/mol)

>  <smiles>  (73) 
O=C(N=c1[nH]cc(Cc2cccc(Cl)c2)s1)c1ccccc1O

>  <score_type>  (73) 
oracle

>  <origin>  (73) 
adg

>  <m_score__min__energy>  (73) 
-13.35

>  <m_primary>  (73) 
energy

$$$$
73:0
     RDKit          3D

 57 59  0  0  0  0  0  0  0  0999 V2000
   57.1070   21.4650   50.4280 C   0  0  0  0  0  0  0  0  0  0  0  0
   57.3210   21.8130   49.0620 O   0  0  0  0  0  0  0  0  0  0  0  0
   56.2970   21.9770   48.1170 C   0  0  0  0  0  0  0  0  0  0  0  0
   55.1250   22.6260   48.5140 C   0  0  0  0  0  0  0  0  0  0  0  0
   54.0760   22.8180   47.6100 C   0  0  0  0  0  0  0  0  0  0  0  0
   54.1880   22.3610   46.2840 C   0  0  0  0  0  0  0  0  0  0  0  0
   53.1600   22.5360   45.3430 O   0  0  0  0  0  0  0  0  0  0  0  0
   52.7320   23.7980   44.8420 C   0  0  0  0  0  0  0  0  0  0  0  0
   55.3670   21.7130   45.8820 C   0  0  0  0  0  0  0  0  0  0  0  0
   55.5190   21.2680   44.5350 N   0  0  0  0  0  0  0  0  0  0  0  0
   56.4120   22.2100   43.3930 S   0  0  0  0  0  0  0  0  0  0  0  0
   55.4540   22.9160   42.4750 O   0  0  0  0  0  0  0  0  0  0  0  0
   57.2880   21.3060   42.5710 O   0  0  0  0  0  0  0  0  0  0  0  0
   57.3940   23.3970   44.2420 C   0  0  0  0  0  0  0  0  0  0  0  0
   58.5760   23.0020   44.8860 C   0  0  0  0  0  0  0  0  0  0  0  0
   59.3220   23.9290   45.6180 C   0  0  0  0  0  0  0  0  0  0  0  0
   58.8950   25.2570   45.7070 C   0  0  0  0  0  0  0  0  0  0  0  0
   57.7230   25.6690   45.0540 C   0  0  0  0  0  0  0  0  0  0  0  0
   57.2720   27.0690   45.1670 C   0  0  0  0  0  0  0  0  0  0  0  0
   56.2800   27.3220   45.9050 O   0  0  0  0  0  0  0  0  0  0  0  0
   57.9560   28.1490   44.4900 N   0  0  0  0  0  0  0  0  0  0  0  0
   59.3720   28.4220   44.7560 C   0  0  0  0  0  0  0  0  0  0  0  0
   57.1910   29.0780   43.6470 C   0  0  0  0  0  0  0  0  0  0  0  0
   56.2230   29.8660   44.4760 C   0  0  0  0  0  0  0  0  0  0  0  0
   55.1610   29.3190   44.8790 O   0  0  0  0  0  0  0  0  0  0  0  0
   56.4600   31.2590   44.7150 N   0  0  0  0  0  0  0  0  0  0  0  0
   57.6180   31.8130   45.3570 C   0  0  0  0  0  0  0  0  0  0  0  0
   58.2400   31.0760   46.3770 C   0  0  0  0  0  0  0  0  0  0  0  0
   57.7670   29.8510   46.7190 F   0  0  0  0  0  0  0  0  0  0  0  0
   59.3620   31.5900   47.0370 C   0  0  0  0  0  0  0  0  0  0  0  0
   59.8600   32.8510   46.6950 C   0  0  0  0  0  0  0  0  0  0  0  0
   59.2290   33.6070   45.7030 C   0  0  0  0  0  0  0  0  0  0  0  0
   58.1060   33.0980   45.0390 C   0  0  0  0  0  0  0  0  0  0  0  0
   57.4710   33.8850   44.1330 F   0  0  0  0  0  0  0  0  0  0  0  0
   56.9660   24.7290   44.3360 C   0  0  0  0  0  0  0  0  0  0  0  0
   56.4130   21.5190   46.7920 C   0  0  0  0  0  0  0  0  0  0  0  0
   57.5724   22.2219   51.0765 H   0  0  0  0  0  0  0  0  0  0  0  0
   56.0267   21.4228   50.6307 H   0  0  0  0  0  0  0  0  0  0  0  0
   57.5568   20.4818   50.6307 H   0  0  0  0  0  0  0  0  0  0  0  0
   55.0268   22.9893   49.5476 H   0  0  0  0  0  0  0  0  0  0  0  0
   53.1584   23.3289   47.9370 H   0  0  0  0  0  0  0  0  0  0  0  0
   52.5046   24.4687   45.6837 H   0  0  0  0  0  0  0  0  0  0  0  0
   53.5309   24.2387   44.2276 H   0  0  0  0  0  0  0  0  0  0  0  0
   51.8298   23.6618   44.2276 H   0  0  0  0  0  0  0  0  0  0  0  0
   58.9167   21.9586   44.8144 H   0  0  0  0  0  0  0  0  0  0  0  0
   60.2460   23.6136   46.1247 H   0  0  0  0  0  0  0  0  0  0  0  0
   59.4801   25.9823   46.2914 H   0  0  0  0  0  0  0  0  0  0  0  0
   59.5413   28.4546   45.8424 H   0  0  0  0  0  0  0  0  0  0  0  0
   59.9885   27.6262   44.3126 H   0  0  0  0  0  0  0  0  0  0  0  0
   59.6484   29.3900   44.3126 H   0  0  0  0  0  0  0  0  0  0  0  0
   57.8859   29.7692   43.1477 H   0  0  0  0  0  0  0  0  0  0  0  0
   56.6289   28.4985   42.8998 H   0  0  0  0  0  0  0  0  0  0  0  0
   59.8528   31.0011   47.8259 H   0  0  0  0  0  0  0  0  0  0  0  0
   60.7489   33.2483   47.2069 H   0  0  0  0  0  0  0  0  0  0  0  0
   59.6153   34.6037   45.4434 H   0  0  0  0  0  0  0  0  0  0  0  0
   56.0321   25.0394   43.8446 H   0  0  0  0  0  0  0  0  0  0  0  0
   57.3307   21.0056   46.4691 H   0  0  0  0  0  0  0  0  0  0  0  0
  1  2  1  0
  2  3  1  0
  3  4  2  0
  4  5  1  0
  5  6  2  0
  6  7  1  0
  7  8  1  0
  6  9  1  0
  9 10  1  0
 10 11  1  0
 11 12  2  0
 11 13  2  0
 11 14  1  0
 14 15  2  0
 15 16  1  0
 16 17  2  0
 17 18  1  0
 18 19  1  0
 19 20  2  0
 19 21  1  0
 21 22  1  0
 21 23  1  0
 23 24  1  0
 24 25  2  0
 24 26  1  0
 26 27  1  0
 27 28  2  0
 28 29  1  0
 28 30  1  0
 30 31  2  0
 31 32  1  0
 32 33  2  0
 33 34  1  0
 18 35  2  0
  9 36  2  0
 36  3  1  0
 35 14  1  0
 33 27  1  0
  1 37  1  0
  1 38  1  0
  1 39  1  0
  4 40  1  0
  5 41  1  0
  8 42  1  0
  8 43  1  0
  8 44  1  0
 15 45  1  0
 16 46  1  0
 17 47  1  0
 22 48  1  0
 22 49  1  0
 22 50  1  0
 23 51  1  0
 23 52  1  0
 30 53  1  0
 31 54  1  0
 32 55  1  0
 35 56  1  0
 36 57  1  0
M  CHG  2  10  -1  26  -1
M  END
>  <UniqueID>  (74) 
68

>  <SMILES>  (74) 
COc1ccc(OC)c([N-]S(=O)(=O)c2cccc(C(=O)N(C)CC(=O)[N-]c3c(F)cccc3F)c2)c1

>  <Energy>  (74) 
73.18101708515293

>  <Genealogy>  (74) 
COc1ccc(OC)c([N-]S(=O)(=O)c2cccc(C(=O)N(C)CC(=O)[N-]c3c(F)cccc3F)c2)c1 (protonated)
COc1ccc(OC)c([N-]S(=O)(=O)c2cccc(C(=O)N(C)CC(=O)[N-]c3c(F)cccc3F)c2)c1 (3D coordinates assigned)
COc1ccc(OC)c([N-]S(=O)(=O)c2cccc(C(=O)N(C)CC(=O)[N-]c3c(F)cccc3F)c2)c1 (optimized conformer: 73.18101708515293 kcal/mol)

>  <smiles>  (74) 
COc1ccc(OC)c(NS(=O)(=O)c2cccc(C(=O)N(C)CC(=O)Nc3c(F)cccc3F)c2)c1

>  <score_type>  (74) 
oracle

>  <origin>  (74) 
adg

>  <m_score__min__energy>  (74) 
-12.31

>  <m_primary>  (74) 
energy

$$$$
74:0
     RDKit          3D

 60 62  0  0  0  0  0  0  0  0999 V2000
   55.2618   29.2220   51.4756 H   0  0  0  0  0  0  0  0  0  0  0  0
   55.3490   29.7910   52.4130 C   0  0  0  0  0  0  0  0  0  0  0  0
   54.1370   30.0980   53.1850 C   0  0  0  0  0  0  0  0  0  0  0  0
   54.1600   29.8780   54.4270 O   0  0  0  0  0  0  0  0  0  0  0  0
   52.9750   30.7180   52.5800 N   0  0  0  0  0  0  0  0  0  0  0  0
   51.9500   31.2790   53.4750 C   0  0  0  0  0  0  0  0  0  0  0  0
   51.7290   30.5472   54.2659 H   0  0  0  0  0  0  0  0  0  0  0  0
   52.3426   32.2146   53.9000 H   0  0  0  0  0  0  0  0  0  0  0  0
   50.6590   31.6030   52.7270 C   0  0  0  0  0  0  0  0  0  0  0  0
   50.1545   30.6645   52.4536 H   0  0  0  0  0  0  0  0  0  0  0  0
   50.0125   32.2065   53.3811 H   0  0  0  0  0  0  0  0  0  0  0  0
   50.9350   32.3410   51.5530 O   0  0  0  0  0  0  0  0  0  0  0  0
   51.6290   31.5170   50.6420 C   0  0  0  0  0  0  0  0  0  0  0  0
   51.0511   30.5949   50.4812 H   0  0  0  0  0  0  0  0  0  0  0  0
   51.7518   32.0695   49.6988 H   0  0  0  0  0  0  0  0  0  0  0  0
   53.0180   31.1490   51.1700 C   0  0  0  0  0  0  0  0  0  0  0  0
   53.4244   30.3289   50.5599 H   0  0  0  0  0  0  0  0  0  0  0  0
   53.6544   32.0440   51.1068 H   0  0  0  0  0  0  0  0  0  0  0  0
   56.5560   30.1900   52.8280 C   0  0  0  0  0  0  0  0  0  0  0  0
   56.8958   29.8642   53.8222 H   0  0  0  0  0  0  0  0  0  0  0  0
   57.4640   31.0470   52.0250 C   0  0  0  0  0  0  0  0  0  0  0  0
   57.7070   32.3990   52.3400 C   0  0  0  0  0  0  0  0  0  0  0  0
   57.2517   32.8411   53.2385 H   0  0  0  0  0  0  0  0  0  0  0  0
   58.5220   33.1810   51.5190 C   0  0  0  0  0  0  0  0  0  0  0  0
   58.7044   34.2348   51.7763 H   0  0  0  0  0  0  0  0  0  0  0  0
   59.1090   32.6350   50.3710 C   0  0  0  0  0  0  0  0  0  0  0  0
   59.9640   33.4890   49.4750 C   0  0  0  0  0  0  0  0  0  0  0  0
   60.7376   32.8621   49.0075 H   0  0  0  0  0  0  0  0  0  0  0  0
   60.4320   34.2809   50.0781 H   0  0  0  0  0  0  0  0  0  0  0  0
   59.1470   34.1100   48.4270 N   0  0  0  0  0  0  0  0  0  0  0  0
   58.4900   33.3820   48.0570 H   0  0  0  0  0  0  0  0  0  0  0  0
   60.0030   34.5450   47.3160 C   0  0  0  0  0  0  0  0  0  0  0  0
   61.0522   34.3205   47.5583 H   0  0  0  0  0  0  0  0  0  0  0  0
   59.8705   35.6269   47.1680 H   0  0  0  0  0  0  0  0  0  0  0  0
   59.6150   33.8130   46.0150 C   0  0  0  0  0  0  0  0  0  0  0  0
   60.3318   34.0997   45.2314 H   0  0  0  0  0  0  0  0  0  0  0  0
   58.2040   34.2490   45.5590 C   0  0  0  0  0  0  0  0  0  0  0  0
   58.2904   35.1541   44.9399 H   0  0  0  0  0  0  0  0  0  0  0  0
   57.5944   34.4482   46.4527 H   0  0  0  0  0  0  0  0  0  0  0  0
   57.5240   33.1490   44.7430 C   0  0  0  0  0  0  0  0  0  0  0  0
   58.1629   32.8939   43.8847 H   0  0  0  0  0  0  0  0  0  0  0  0
   56.5463   33.5238   44.4058 H   0  0  0  0  0  0  0  0  0  0  0  0
   57.3000   31.9320   45.5540 N   0  0  0  0  0  0  0  0  0  0  0  0
   57.0280   30.5680   44.5020 S   0  0  0  0  0  0  0  0  0  0  0  0
   56.9240   31.0410   43.0800 O   0  0  0  0  0  0  0  0  0  0  0  0
   55.7520   29.8740   44.8810 O   0  0  0  0  0  0  0  0  0  0  0  0
   58.3760   29.4070   44.6050 C   0  0  0  0  0  0  0  0  0  0  0  0
   58.6079   29.2072   45.6616 H   0  0  0  0  0  0  0  0  0  0  0  0
   58.0899   28.4680   44.1085 H   0  0  0  0  0  0  0  0  0  0  0  0
   59.2622   29.8291   44.1085 H   0  0  0  0  0  0  0  0  0  0  0  0
   58.3750   31.6370   46.5320 C   0  0  0  0  0  0  0  0  0  0  0  0
   58.5083   30.5464   46.5856 H   0  0  0  0  0  0  0  0  0  0  0  0
   58.0639   32.0651   47.4963 H   0  0  0  0  0  0  0  0  0  0  0  0
   59.7250   32.2760   46.1650 C   0  0  0  0  0  0  0  0  0  0  0  0
   60.0728   31.8498   45.2124 H   0  0  0  0  0  0  0  0  0  0  0  0
   60.4349   32.0630   46.9778 H   0  0  0  0  0  0  0  0  0  0  0  0
   58.9250   31.2740   50.0920 C   0  0  0  0  0  0  0  0  0  0  0  0
   59.4257   30.8212   49.2235 H   0  0  0  0  0  0  0  0  0  0  0  0
   58.1080   30.4880   50.9120 C   0  0  0  0  0  0  0  0  0  0  0  0
   57.9696   29.4214   50.6813 H   0  0  0  0  0  0  0  0  0  0  0  0
  1  2  1  0
  2  3  1  0
  3  4  2  0
  3  5  1  0
  5  6  1  0
  6  7  1  0
  6  8  1  0
  6  9  1  0
  9 10  1  0
  9 11  1  0
  9 12  1  0
 12 13  1  0
 13 14  1  0
 13 15  1  0
 13 16  1  0
 16 17  1  0
 16 18  1  0
  2 19  2  0
 19 20  1  0
 19 21  1  0
 21 22  2  0
 22 23  1  0
 22 24  1  0
 24 25  1  0
 24 26  2  0
 26 27  1  0
 27 28  1  0
 27 29  1  0
 27 30  1  0
 30 31  1  0
 30 32  1  0
 32 33  1  0
 32 34  1  0
 32 35  1  0
 35 36  1  0
 35 37  1  0
 37 38  1  0
 37 39  1  0
 37 40  1  0
 40 41  1  0
 40 42  1  0
 40 43  1  0
 43 44  1  0
 44 45  2  0
 44 46  2  0
 44 47  1  0
 47 48  1  0
 47 49  1  0
 47 50  1  0
 43 51  1  0
 51 52  1  0
 51 53  1  0
 51 54  1  0
 54 55  1  0
 54 56  1  0
 26 57  1  0
 57 58  1  0
 57 59  2  0
 59 60  1  0
 16  5  1  0
 59 21  1  0
 54 35  1  0
M  END
>  <UniqueID>  (75) 
69

>  <SMILES>  (75) 
CS(=O)(=O)N1CCC(CNCc2ccc(/C=C/C(=O)N3CCOCC3)cc2)CC1

>  <Energy>  (75) 
70.13737744991742

>  <Genealogy>  (75) 
CS(=O)(=O)N1CCC(CNCc2ccc(/C=C/C(=O)N3CCOCC3)cc2)CC1 (cis-trans isomerization)
CS(=O)(=O)N1CCC(CNCc2ccc(/C=C/C(=O)N3CCOCC3)cc2)CC1 (3D coordinates assigned)
CS(=O)(=O)N1CCC(CNCc2ccc(/C=C/C(=O)N3CCOCC3)cc2)CC1 (nonaromatic ring conformer: 70.13737744991742 kcal/mol)

>  <smiles>  (75) 
CS(=O)(=O)N1CCC(CNCc2ccc(C=CC(=O)N3CCOCC3)cc2)CC1

>  <score_type>  (75) 
oracle

>  <origin>  (75) 
adg

>  <m_score__min__energy>  (75) 
-10.02

>  <m_primary>  (75) 
energy

$$$$
75:0
     RDKit          3D

 43 45  0  0  0  0  0  0  0  0999 V2000
   57.0740   28.1700   45.4240 C   0  0  0  0  0  0  0  0  0  0  0  0
   57.1490   29.6990   44.5170 S   0  0  0  0  0  0  0  0  0  0  0  0
   57.1900   29.3880   43.0480 O   0  0  0  0  0  0  0  0  0  0  0  0
   55.9050   30.4970   44.8020 O   0  0  0  0  0  0  0  0  0  0  0  0
   58.5580   30.6430   44.9450 N   0  0  0  0  0  0  0  0  0  0  0  0
   59.7800   29.8150   45.0200 C   0  0  0  0  0  0  0  0  0  0  0  0
   60.0590   29.2430   46.4360 C   0  0  0  0  0  0  0  0  0  0  0  0
   59.4710   29.9620   47.5090 O   0  0  0  0  0  0  0  0  0  0  0  0
   59.3810   31.3340   47.2080 C   0  0  2  0  0  0  0  0  0  0  0  0
   59.0140   32.1330   48.4330 C   0  0  0  0  0  0  0  0  0  0  0  0
   58.2430   31.6120   49.2830 O   0  0  0  0  0  0  0  0  0  0  0  0
   59.6070   33.4140   48.7160 N   0  0  0  0  0  0  0  0  0  0  0  0
   59.7100   33.8790   50.1100 C   0  0  0  0  0  0  0  0  0  0  0  0
   61.0520   33.4800   50.7550 C   0  0  0  0  0  0  0  0  0  0  0  0
   62.2640   34.2470   50.2040 C   0  0  0  0  0  0  0  0  0  0  0  0
   62.6700   33.7210   48.9030 N   0  0  0  0  0  0  0  0  0  0  0  0
   63.8900   33.2630   48.5590 C   0  0  0  0  0  0  0  0  0  0  0  0
   63.9260   32.8670   47.2700 N   0  0  0  0  0  0  0  0  0  0  0  0
   62.6880   33.0790   46.7850 C   0  0  0  0  0  0  0  0  0  0  0  0
   61.9070   33.5980   47.7980 C   0  0  0  0  0  0  0  0  0  0  0  0
   60.4630   34.0110   47.6780 C   0  0  0  0  0  0  0  0  0  0  0  0
   58.3240   31.5250   46.1110 C   0  0  0  0  0  0  0  0  0  0  0  0
   57.0844   28.3829   46.5031 H   0  0  0  0  0  0  0  0  0  0  0  0
   56.1485   27.6349   45.1648 H   0  0  0  0  0  0  0  0  0  0  0  0
   57.9427   27.5469   45.1648 H   0  0  0  0  0  0  0  0  0  0  0  0
   59.6728   28.9732   44.3201 H   0  0  0  0  0  0  0  0  0  0  0  0
   60.6274   30.4678   44.7638 H   0  0  0  0  0  0  0  0  0  0  0  0
   59.6756   28.2125   46.4674 H   0  0  0  0  0  0  0  0  0  0  0  0
   61.1468   29.3143   46.5831 H   0  0  0  0  0  0  0  0  0  0  0  0
   60.3589   31.6951   46.8568 H   0  0  0  0  0  0  0  0  0  0  0  0
   59.6204   34.9752   50.1261 H   0  0  0  0  0  0  0  0  0  0  0  0
   58.9020   33.4049   50.6865 H   0  0  0  0  0  0  0  0  0  0  0  0
   60.9856   33.6694   51.8365 H   0  0  0  0  0  0  0  0  0  0  0  0
   61.2143   32.4178   50.5196 H   0  0  0  0  0  0  0  0  0  0  0  0
   61.9985   35.3090   50.0956 H   0  0  0  0  0  0  0  0  0  0  0  0
   63.1021   34.1287   50.9065 H   0  0  0  0  0  0  0  0  0  0  0  0
   64.7494   33.2178   49.2441 H   0  0  0  0  0  0  0  0  0  0  0  0
   64.7470   32.4810   46.7540 H   0  0  0  0  0  0  0  0  0  0  0  0
   62.3556   32.8736   45.7567 H   0  0  0  0  0  0  0  0  0  0  0  0
   60.4034   35.1062   47.7614 H   0  0  0  0  0  0  0  0  0  0  0  0
   60.0979   33.6534   46.7039 H   0  0  0  0  0  0  0  0  0  0  0  0
   57.3329   31.2996   46.5317 H   0  0  0  0  0  0  0  0  0  0  0  0
   58.3853   32.5665   45.7625 H   0  0  0  0  0  0  0  0  0  0  0  0
  1  2  1  0
  2  3  2  0
  2  4  2  0
  2  5  1  0
  5  6  1  0
  6  7  1  0
  7  8  1  0
  8  9  1  0
  9 10  1  0
 10 11  2  0
 10 12  1  0
 12 13  1  0
 13 14  1  0
 14 15  1  0
 15 16  1  0
 16 17  1  0
 17 18  2  0
 18 19  1  0
 19 20  2  0
 20 21  1  0
  9 22  1  0
 22  5  1  0
 21 12  1  0
 20 16  1  0
  1 23  1  0
  1 24  1  0
  1 25  1  0
  6 26  1  0
  6 27  1  0
  7 28  1  0
  7 29  1  0
  9 30  1  6
 13 31  1  0
 13 32  1  0
 14 33  1  0
 14 34  1  0
 15 35  1  0
 15 36  1  0
 17 37  1  0
 18 38  1  0
 19 39  1  0
 21 40  1  0
 21 41  1  0
 22 42  1  0
 22 43  1  0
M  CHG  1  18   1
M  END
>  <UniqueID>  (76) 
70

>  <SMILES>  (76) 
CS(=O)(=O)N1CCO[C@H](C(=O)N2CCCn3c[nH+]cc3C2)C1

>  <Energy>  (76) 
88.408836320626

>  <Genealogy>  (76) 
CS(=O)(=O)N1CCOC(C(=O)N2CCCn3c[nH+]cc3C2)C1 (protonated)
CS(=O)(=O)N1CCO[C@H](C(=O)N2CCCn3c[nH+]cc3C2)C1 (chirality)
CS(=O)(=O)N1CCO[C@H](C(=O)N2CCCn3c[nH+]cc3C2)C1 (3D coordinates assigned)
CS(=O)(=O)N1CCO[C@H](C(=O)N2CCCn3c[nH+]cc3C2)C1 (nonaromatic ring conformer: 88.408836320626 kcal/mol)

>  <smiles>  (76) 
CS(=O)(=O)N1CCOC(C(=O)N2CCCn3cncc3C2)C1

>  <score_type>  (76) 
oracle

>  <origin>  (76) 
adg

>  <m_score__min__energy>  (76) 
-4.4900000000000002

>  <m_primary>  (76) 
energy

$$$$
76:0
     RDKit          3D

 65 68  0  0  0  0  0  0  0  0999 V2000
   58.5820   31.5640   50.2320 C   0  0  0  0  0  0  0  0  0  0  0  0
   59.8010   32.1090   50.8490 N   0  0  0  0  0  0  0  0  0  0  0  0
   59.4930   33.2120   51.7750 C   0  0  0  0  0  0  0  0  0  0  0  0
   60.7010   31.0740   51.4180 C   0  0  0  0  0  0  0  0  0  0  0  0
   61.2810   30.0580   50.4080 C   0  0  0  0  0  0  0  0  0  0  0  0
   60.4900   28.8380   50.3590 N   0  0  0  0  0  0  0  0  0  0  0  0
   60.4720   27.9730   49.2230 C   0  0  0  0  0  0  0  0  0  0  0  0
   60.9490   26.8120   49.3100 O   0  0  0  0  0  0  0  0  0  0  0  0
   59.8590   28.4370   47.9670 C   0  0  0  0  0  0  0  0  0  0  0  0
   60.1540   29.6320   47.3200 C   0  0  0  0  0  0  0  0  0  0  0  0
   59.3080   29.8320   46.2820 N   0  0  0  0  0  0  0  0  0  0  0  0
   59.2570   31.0420   45.4570 C   0  0  0  0  0  0  0  0  0  0  0  0
   59.3960   32.2600   46.3310 C   0  0  0  0  0  0  0  0  0  0  0  0
   58.4530   33.2970   46.2650 C   0  0  0  0  0  0  0  0  0  0  0  0
   58.5570   34.3950   47.1220 C   0  0  0  0  0  0  0  0  0  0  0  0
   59.5890   34.4570   48.0650 C   0  0  0  0  0  0  0  0  0  0  0  0
   60.5410   33.4220   48.1480 C   0  0  0  0  0  0  0  0  0  0  0  0
   61.5670   33.4050   49.1580 N   0  0  0  0  0  0  0  0  0  0  0  0
   62.9460   33.0660   48.9280 C   0  0  0  0  0  0  0  0  0  0  0  0
   63.2730   32.3890   47.9140 O   0  0  0  0  0  0  0  0  0  0  0  0
   63.9810   33.4750   49.9010 C   0  0  0  0  0  0  0  0  0  0  0  0
   65.3270   33.0980   49.7460 C   0  0  0  0  0  0  0  0  0  0  0  0
   66.2490   33.5060   50.6580 N   0  0  0  0  0  0  0  0  0  0  0  0
   65.8950   34.2740   51.7220 C   0  0  0  0  0  0  0  0  0  0  0  0
   64.5610   34.6510   51.8830 C   0  0  0  0  0  0  0  0  0  0  0  0
   63.6380   34.2430   50.9730 N   0  0  0  0  0  0  0  0  0  0  0  0
   60.4300   32.3270   47.2770 C   0  0  0  0  0  0  0  0  0  0  0  0
   58.4730   28.7710   46.2640 C   0  0  0  0  0  0  0  0  0  0  0  0
   57.3980   28.5340   45.4040 C   0  0  0  0  0  0  0  0  0  0  0  0
   56.6610   27.3490   45.5700 C   0  0  0  0  0  0  0  0  0  0  0  0
   57.0010   26.4220   46.5900 C   0  0  0  0  0  0  0  0  0  0  0  0
   56.2930   25.1860   46.7640 N   0  0  0  0  0  0  0  0  0  0  0  0
   54.8720   24.7060   45.8940 S   0  0  0  0  0  0  0  0  0  0  0  0
   55.3340   23.9160   44.3640 C   0  0  0  0  0  0  0  0  0  0  0  0
   54.1020   23.7170   46.7270 O   0  0  0  0  0  0  0  0  0  0  0  0
   53.9950   25.8990   45.6260 O   0  0  0  0  0  0  0  0  0  0  0  0
   58.0700   26.7080   47.4640 C   0  0  0  0  0  0  0  0  0  0  0  0
   58.7910   27.8890   47.2700 C   0  0  0  0  0  0  0  0  0  0  0  0
   57.8810   31.2506   51.0196 H   0  0  0  0  0  0  0  0  0  0  0  0
   58.1101   32.3368   49.6075 H   0  0  0  0  0  0  0  0  0  0  0  0
   58.8433   30.6970   49.6075 H   0  0  0  0  0  0  0  0  0  0  0  0
   59.5917   32.8586   52.8120 H   0  0  0  0  0  0  0  0  0  0  0  0
   60.1937   34.0422   51.6023 H   0  0  0  0  0  0  0  0  0  0  0  0
   58.4636   33.5591   51.6023 H   0  0  0  0  0  0  0  0  0  0  0  0
   61.5446   31.5889   51.9009 H   0  0  0  0  0  0  0  0  0  0  0  0
   60.0802   30.4861   52.1101 H   0  0  0  0  0  0  0  0  0  0  0  0
   61.2924   30.5161   49.4080 H   0  0  0  0  0  0  0  0  0  0  0  0
   62.2986   29.7946   50.7320 H   0  0  0  0  0  0  0  0  0  0  0  0
   60.9622   30.3192   47.6110 H   0  0  0  0  0  0  0  0  0  0  0  0
   60.0789   31.0209   44.7262 H   0  0  0  0  0  0  0  0  0  0  0  0
   58.2930   31.0816   44.9287 H   0  0  0  0  0  0  0  0  0  0  0  0
   57.6302   33.2451   45.5368 H   0  0  0  0  0  0  0  0  0  0  0  0
   57.8253   35.2136   47.0554 H   0  0  0  0  0  0  0  0  0  0  0  0
   59.6572   35.3187   48.7453 H   0  0  0  0  0  0  0  0  0  0  0  0
   61.2760   33.6180   50.1400 H   0  0  0  0  0  0  0  0  0  0  0  0
   65.6322   32.4763   48.8914 H   0  0  0  0  0  0  0  0  0  0  0  0
   66.6539   34.5958   52.4504 H   0  0  0  0  0  0  0  0  0  0  0  0
   64.2594   35.2728   52.7388 H   0  0  0  0  0  0  0  0  0  0  0  0
   61.1640   31.5099   47.3369 H   0  0  0  0  0  0  0  0  0  0  0  0
   57.1351   29.2563   44.6171 H   0  0  0  0  0  0  0  0  0  0  0  0
   55.8122   27.1377   44.9030 H   0  0  0  0  0  0  0  0  0  0  0  0
   55.8783   22.9852   44.5817 H   0  0  0  0  0  0  0  0  0  0  0  0
   54.4291   23.6843   43.7831 H   0  0  0  0  0  0  0  0  0  0  0  0
   55.9797   24.5911   43.7831 H   0  0  0  0  0  0  0  0  0  0  0  0
   58.3302   26.0173   48.2796 H   0  0  0  0  0  0  0  0  0  0  0  0
  1  2  1  0
  2  3  1  0
  2  4  1  0
  4  5  1  0
  5  6  1  0
  6  7  1  0
  7  8  2  0
  7  9  1  0
  9 10  2  0
 10 11  1  0
 11 12  1  0
 12 13  1  0
 13 14  2  0
 14 15  1  0
 15 16  2  0
 16 17  1  0
 17 18  1  0
 18 19  1  0
 19 20  2  0
 19 21  1  0
 21 22  2  0
 22 23  1  0
 23 24  2  0
 24 25  1  0
 25 26  2  0
 17 27  2  0
 11 28  1  0
 28 29  2  0
 29 30  1  0
 30 31  2  0
 31 32  1  0
 32 33  1  0
 33 34  1  0
 33 35  2  0
 33 36  2  0
 31 37  1  0
 37 38  2  0
 38  9  1  0
 27 13  1  0
 38 28  1  0
 26 21  1  0
  1 39  1  0
  1 40  1  0
  1 41  1  0
  3 42  1  0
  3 43  1  0
  3 44  1  0
  4 45  1  0
  4 46  1  0
  5 47  1  0
  5 48  1  0
 10 49  1  0
 12 50  1  0
 12 51  1  0
 14 52  1  0
 15 53  1  0
 16 54  1  0
 18 55  1  0
 22 56  1  0
 24 57  1  0
 25 58  1  0
 27 59  1  0
 29 60  1  0
 30 61  1  0
 34 62  1  0
 34 63  1  0
 34 64  1  0
 37 65  1  0
M  CHG  2   6  -1  32  -1
M  END
>  <UniqueID>  (77) 
71

>  <SMILES>  (77) 
CN(C)CC[N-]C(=O)c1cn(Cc2cccc(NC(=O)c3cnccn3)c2)c2ccc([N-]S(C)(=O)=O)cc12

>  <Energy>  (77) 
106.91169605263099

>  <Genealogy>  (77) 
CN(C)CC[N-]C(=O)c1cn(Cc2cccc(NC(=O)c3cnccn3)c2)c2ccc([N-]S(C)(=O)=O)cc12 (protonated)
CN(C)CC[N-]C(=O)c1cn(Cc2cccc(NC(=O)c3cnccn3)c2)c2ccc([N-]S(C)(=O)=O)cc12 (3D coordinates assigned)
CN(C)CC[N-]C(=O)c1cn(Cc2cccc(NC(=O)c3cnccn3)c2)c2ccc([N-]S(C)(=O)=O)cc12 (optimized conformer: 106.91169605263099 kcal/mol)

>  <smiles>  (77) 
CN(C)CCNC(=O)c1cn(Cc2cccc(NC(=O)c3cnccn3)c2)c2ccc(NS(C)(=O)=O)cc12

>  <score_type>  (77) 
oracle

>  <origin>  (77) 
adg

>  <m_score__min__energy>  (77) 
-12.890000000000001

>  <m_primary>  (77) 
energy

$$$$
77:0
     RDKit          3D

 49 52  0  0  0  0  0  0  0  0999 V2000
   52.0330   24.0950   44.1040 C   0  0  0  0  0  0  0  0  0  0  0  0
   52.5470   23.3260   45.2900 C   0  0  0  0  0  0  0  0  0  0  0  0
   51.6680   22.9730   46.3280 C   0  0  0  0  0  0  0  0  0  0  0  0
   52.1230   22.2200   47.4120 C   0  0  0  0  0  0  0  0  0  0  0  0
   53.4460   21.7790   47.4510 C   0  0  0  0  0  0  0  0  0  0  0  0
   54.3270   22.1130   46.4190 C   0  0  0  0  0  0  0  0  0  0  0  0
   53.9000   22.9260   45.3550 C   0  0  0  0  0  0  0  0  0  0  0  0
   54.7900   23.2780   44.2840 N   0  0  0  0  0  0  0  0  0  0  0  0
   55.9960   22.6120   43.8800 C   0  0  0  0  0  0  0  0  0  0  0  0
   55.9270   21.7610   42.9530 O   0  0  0  0  0  0  0  0  0  0  0  0
   57.3530   22.9860   44.4080 C   0  0  0  0  0  0  0  0  0  0  0  0
   57.2770   23.2840   46.2090 S   0  0  0  0  0  0  0  0  0  0  0  0
   56.7690   24.9940   46.0550 C   0  0  0  0  0  0  0  0  0  0  0  0
   55.5150   25.4190   46.2810 N   0  0  0  0  0  0  0  0  0  0  0  0
   55.5050   26.7130   46.0120 N   0  0  0  0  0  0  0  0  0  0  0  0
   56.7580   27.0390   45.6360 C   0  0  0  0  0  0  0  0  0  0  0  0
   57.1630   28.3920   45.2040 C   0  0  0  0  0  0  0  0  0  0  0  0
   58.4050   28.9230   45.5860 C   0  0  0  0  0  0  0  0  0  0  0  0
   58.7480   30.2330   45.2380 C   0  0  0  0  0  0  0  0  0  0  0  0
   57.8580   31.0350   44.5090 C   0  0  0  0  0  0  0  0  0  0  0  0
   58.2170   32.3960   44.2090 N   0  0  0  0  0  0  0  0  0  0  0  0
   57.9920   33.7050   45.3230 S   0  0  0  0  0  0  0  0  0  0  0  0
   56.6340   33.5940   45.9570 O   0  0  0  0  0  0  0  0  0  0  0  0
   58.0830   35.0140   44.5890 O   0  0  0  0  0  0  0  0  0  0  0  0
   59.2440   33.6560   46.5500 C   0  0  0  0  0  0  0  0  0  0  0  0
   60.5970   33.8750   46.3420 C   0  0  0  0  0  0  0  0  0  0  0  0
   61.3460   33.8180   47.5230 C   0  0  0  0  0  0  0  0  0  0  0  0
   60.5850   33.5580   48.6530 C   0  0  0  0  0  0  0  0  0  0  0  0
   58.9760   33.3960   48.1860 S   0  0  0  0  0  0  0  0  0  0  0  0
   56.6330   30.4880   44.0930 C   0  0  0  0  0  0  0  0  0  0  0  0
   56.2920   29.1780   44.4350 C   0  0  0  0  0  0  0  0  0  0  0  0
   57.5890   25.9790   45.6480 N   0  0  0  0  0  0  0  0  0  0  0  0
   51.4533   24.9624   44.4527 H   0  0  0  0  0  0  0  0  0  0  0  0
   52.8816   24.4416   43.4960 H   0  0  0  0  0  0  0  0  0  0  0  0
   51.3882   23.4434   43.4960 H   0  0  0  0  0  0  0  0  0  0  0  0
   50.6160   23.2916   46.2862 H   0  0  0  0  0  0  0  0  0  0  0  0
   51.4375   21.9741   48.2364 H   0  0  0  0  0  0  0  0  0  0  0  0
   53.7962   21.1673   48.2955 H   0  0  0  0  0  0  0  0  0  0  0  0
   55.3607   21.7374   46.4395 H   0  0  0  0  0  0  0  0  0  0  0  0
   58.0588   22.1669   44.2058 H   0  0  0  0  0  0  0  0  0  0  0  0
   57.6885   23.9067   43.9083 H   0  0  0  0  0  0  0  0  0  0  0  0
   59.1111   28.3061   46.1613 H   0  0  0  0  0  0  0  0  0  0  0  0
   59.7253   30.6385   45.5389 H   0  0  0  0  0  0  0  0  0  0  0  0
   58.7820   32.5940   43.3530 H   0  0  0  0  0  0  0  0  0  0  0  0
   61.0358   34.0728   45.3529 H   0  0  0  0  0  0  0  0  0  0  0  0
   62.4357   33.9655   47.5522 H   0  0  0  0  0  0  0  0  0  0  0  0
   60.9681   33.4722   49.6805 H   0  0  0  0  0  0  0  0  0  0  0  0
   55.9382   31.0953   43.4942 H   0  0  0  0  0  0  0  0  0  0  0  0
   55.3323   28.7587   44.0986 H   0  0  0  0  0  0  0  0  0  0  0  0
  1  2  1  0
  2  3  2  0
  3  4  1  0
  4  5  2  0
  5  6  1  0
  6  7  2  0
  7  8  1  0
  8  9  1  0
  9 10  2  0
  9 11  1  0
 11 12  1  0
 12 13  1  0
 13 14  2  0
 14 15  1  0
 15 16  1  0
 16 17  1  0
 17 18  2  0
 18 19  1  0
 19 20  2  0
 20 21  1  0
 21 22  1  0
 22 23  2  0
 22 24  2  0
 22 25  1  0
 25 26  2  0
 26 27  1  0
 27 28  2  0
 28 29  1  0
 20 30  1  0
 30 31  2  0
 16 32  2  0
  7  2  1  0
 32 13  1  0
 31 17  1  0
 29 25  1  0
  1 33  1  0
  1 34  1  0
  1 35  1  0
  3 36  1  0
  4 37  1  0
  5 38  1  0
  6 39  1  0
 11 40  1  0
 11 41  1  0
 18 42  1  0
 19 43  1  0
 21 44  1  0
 26 45  1  0
 27 46  1  0
 28 47  1  0
 30 48  1  0
 31 49  1  0
M  CHG  2   8  -1  15  -1
M  END
>  <UniqueID>  (78) 
72

>  <SMILES>  (78) 
Cc1ccccc1[N-]C(=O)CSc1n[n-]c(-c2ccc(NS(=O)(=O)c3cccs3)cc2)n1

>  <Energy>  (78) 
109.27079110794675

>  <Genealogy>  (78) 
Cc1ccccc1[N-]C(=O)CSc1n[n-]c(-c2ccc(NS(=O)(=O)c3cccs3)cc2)n1 (protonated)
Cc1ccccc1[N-]C(=O)CSc1n[n-]c(-c2ccc(NS(=O)(=O)c3cccs3)cc2)n1 (3D coordinates assigned)
Cc1ccccc1[N-]C(=O)CSc1n[n-]c(-c2ccc(NS(=O)(=O)c3cccs3)cc2)n1 (optimized conformer: 109.27079110794675 kcal/mol)

>  <smiles>  (78) 
Cc1ccccc1NC(=O)CSc1n[nH]c(-c2ccc(NS(=O)(=O)c3cccs3)cc2)n1

>  <score_type>  (78) 
oracle

>  <origin>  (78) 
adg

>  <m_score__min__energy>  (78) 
-12.710000000000001

>  <m_primary>  (78) 
energy

$$$$
78:0
     RDKit          3D

 40 42  0  0  0  0  0  0  0  0999 V2000
   59.4320   29.7040   47.4540 C   0  0  0  0  0  0  0  0  0  0  0  0
   58.8410   29.8360   46.2560 C   0  0  0  0  0  0  0  0  0  0  0  0
   58.4580   28.8060   45.3800 C   0  0  0  0  0  0  0  0  0  0  0  0
   58.4040   27.4710   45.5510 C   0  0  0  0  0  0  0  0  0  0  0  0
   57.1780   26.6800   45.7470 C   0  0  0  0  0  0  0  0  0  0  0  0
   57.1460   25.4230   46.2270 N   0  0  0  0  0  0  0  0  0  0  0  0
   55.8250   25.1760   46.3640 C   0  0  0  0  0  0  0  0  0  0  0  0
   55.3800   24.0750   46.7820 O   0  0  0  0  0  0  0  0  0  0  0  0
   55.0180   26.2060   46.0310 N   0  0  0  0  0  0  0  0  0  0  0  0
   55.8920   27.1540   45.6570 C   0  0  0  0  0  0  0  0  0  0  0  0
   55.5230   28.4290   45.2460 O   0  0  0  0  0  0  0  0  0  0  0  0
   58.0760   29.4250   44.2000 C   0  0  0  0  0  0  0  0  0  0  0  0
   58.1810   30.7840   44.4080 C   0  0  0  0  0  0  0  0  0  0  0  0
   57.8360   31.8320   43.3930 C   0  0  0  0  0  0  0  0  0  0  0  0
   58.6310   31.0360   45.6560 N   0  0  0  0  0  0  0  0  0  0  0  0
   58.9220   32.3420   46.1850 C   0  0  0  0  0  0  0  0  0  0  0  0
   57.9350   33.3370   46.1840 C   0  0  0  0  0  0  0  0  0  0  0  0
   58.2210   34.6080   46.6840 C   0  0  0  0  0  0  0  0  0  0  0  0
   59.4930   34.8940   47.1860 C   0  0  0  0  0  0  0  0  0  0  0  0
   60.4910   33.9120   47.1930 C   0  0  0  0  0  0  0  0  0  0  0  0
   61.7800   34.2490   47.7250 N   0  0  0  0  0  0  0  0  0  0  0  0
   63.2560   33.3930   47.4160 S   0  0  0  0  0  0  0  0  0  0  0  0
   63.0000   31.6400   47.5930 C   0  0  0  0  0  0  0  0  0  0  0  0
   64.2860   33.8300   48.4200 O   0  0  0  0  0  0  0  0  0  0  0  0
   63.7590   33.7130   46.0370 O   0  0  0  0  0  0  0  0  0  0  0  0
   60.2020   32.6350   46.6790 C   0  0  0  0  0  0  0  0  0  0  0  0
   59.6819   30.5972   48.0454 H   0  0  0  0  0  0  0  0  0  0  0  0
   59.6664   28.7026   47.8443 H   0  0  0  0  0  0  0  0  0  0  0  0
   59.3586   26.9245   45.5435 H   0  0  0  0  0  0  0  0  0  0  0  0
   57.7512   28.9271   43.2745 H   0  0  0  0  0  0  0  0  0  0  0  0
   57.5321   32.7553   43.9080 H   0  0  0  0  0  0  0  0  0  0  0  0
   58.7145   32.0357   42.7631 H   0  0  0  0  0  0  0  0  0  0  0  0
   57.0083   31.4740   42.7631 H   0  0  0  0  0  0  0  0  0  0  0  0
   56.9328   33.1156   45.7883 H   0  0  0  0  0  0  0  0  0  0  0  0
   57.4435   35.3861   46.6829 H   0  0  0  0  0  0  0  0  0  0  0  0
   59.7120   35.8979   47.5786 H   0  0  0  0  0  0  0  0  0  0  0  0
   62.9622   31.3810   48.6614 H   0  0  0  0  0  0  0  0  0  0  0  0
   62.0511   31.3578   47.1135 H   0  0  0  0  0  0  0  0  0  0  0  0
   63.8285   31.0982   47.1135 H   0  0  0  0  0  0  0  0  0  0  0  0
   60.9841   31.8616   46.6643 H   0  0  0  0  0  0  0  0  0  0  0  0
  1  2  2  0
  2  3  1  0
  3  4  2  3
  4  5  1  0
  5  6  1  0
  6  7  1  0
  7  8  2  0
  7  9  1  0
  9 10  1  0
 10 11  1  0
  3 12  1  0
 12 13  2  0
 13 14  1  0
 13 15  1  0
 15 16  1  0
 16 17  2  0
 17 18  1  0
 18 19  2  0
 19 20  1  0
 20 21  1  0
 21 22  1  0
 22 23  1  0
 22 24  2  0
 22 25  2  0
 20 26  2  0
 15  2  1  0
 26 16  1  0
 10  5  2  0
  1 27  1  0
  1 28  1  0
  4 29  1  0
 12 30  1  0
 14 31  1  0
 14 32  1  0
 14 33  1  0
 17 34  1  0
 18 35  1  0
 19 36  1  0
 23 37  1  0
 23 38  1  0
 23 39  1  0
 26 40  1  0
M  CHG  4   6  -1   9  -1  11  -1  21  -1
M  END
>  <UniqueID>  (79) 
73

>  <SMILES>  (79) 
C=c1c(=Cc2[n-]c(=O)[n-]c2[O-])cc(C)n1-c1cccc([N-]S(C)(=O)=O)c1

>  <Energy>  (79) 
115.63148266698376

>  <Genealogy>  (79) 
C=c1c(=Cc2[n-]c(=O)[n-]c2[O-])cc(C)n1-c1cccc([N-]S(C)(=O)=O)c1 (protonated)
C=c1c(=Cc2[n-]c(=O)[n-]c2[O-])cc(C)n1-c1cccc([N-]S(C)(=O)=O)c1 (3D coordinates assigned)
C=c1c(=Cc2[n-]c(=O)[n-]c2[O-])cc(C)n1-c1cccc([N-]S(C)(=O)=O)c1 (optimized conformer: 115.63148266698376 kcal/mol)

>  <smiles>  (79) 
C=c1c(=Cc2[nH]c(=O)[nH]c2O)cc(C)n1-c1cccc(NS(C)(=O)=O)c1

>  <score_type>  (79) 
oracle

>  <origin>  (79) 
adg

>  <m_score__min__energy>  (79) 
-16.969999999999999

>  <m_primary>  (79) 
energy

$$$$
79:0
     RDKit          3D

 41 43  0  0  0  0  0  0  0  0999 V2000
   56.8260   31.8060   53.0890 O   0  0  0  0  0  0  0  0  0  0  0  0
   56.8550   31.1500   52.0130 C   0  0  0  0  0  0  0  0  0  0  0  0
   58.1470   30.5720   51.5240 C   0  0  0  0  0  0  0  0  0  0  0  0
   59.1340   31.6600   51.1650 C   0  0  0  0  0  0  0  0  0  0  0  0
   60.0530   32.0820   52.1450 C   0  0  0  0  0  0  0  0  0  0  0  0
   60.9270   33.1420   51.8940 C   0  0  0  0  0  0  0  0  0  0  0  0
   60.8850   33.8080   50.6710 C   0  0  0  0  0  0  0  0  0  0  0  0
   59.9760   33.4100   49.6900 C   0  0  0  0  0  0  0  0  0  0  0  0
   59.1140   32.3280   49.9100 C   0  0  0  0  0  0  0  0  0  0  0  0
   58.2290   31.9870   48.8780 O   0  0  0  0  0  0  0  0  0  0  0  0
   58.5440   31.2690   47.7140 C   0  0  0  0  0  0  0  0  0  0  0  0
   58.9390   29.9330   47.8700 C   0  0  0  0  0  0  0  0  0  0  0  0
   59.3030   29.1620   46.7660 C   0  0  0  0  0  0  0  0  0  0  0  0
   59.2550   29.7110   45.4850 C   0  0  0  0  0  0  0  0  0  0  0  0
   58.8210   31.0260   45.3060 C   0  0  0  0  0  0  0  0  0  0  0  0
   58.4510   31.8110   46.4070 C   0  0  0  0  0  0  0  0  0  0  0  0
   57.7450   33.5550   46.0360 Br  0  0  0  0  0  0  0  0  0  0  0  0
   55.6540   30.9150   51.2760 N   0  0  0  0  0  0  0  0  0  0  0  0
   54.3760   30.6170   51.9130 C   0  0  0  0  0  0  0  0  0  0  0  0
   53.2280   30.8670   50.9360 C   0  0  0  0  0  0  0  0  0  0  0  0
   52.0450   31.4750   51.6280 C   0  0  0  0  0  0  0  0  0  0  0  0
   51.7890   31.3420   52.9420 N   0  0  0  0  0  0  0  0  0  0  0  0
   50.6860   32.1000   53.1210 C   0  0  0  0  0  0  0  0  0  0  0  0
   50.1270   32.2290   54.2410 O   0  0  0  0  0  0  0  0  0  0  0  0
   50.2320   32.7160   52.0070 N   0  0  0  0  0  0  0  0  0  0  0  0
   51.1080   32.3130   51.0730 C   0  0  0  0  0  0  0  0  0  0  0  0
   51.0570   32.7090   49.7420 O   0  0  0  0  0  0  0  0  0  0  0  0
   58.5800   29.9420   52.3150 H   0  0  0  0  0  0  0  0  0  0  0  0
   57.9421   29.9772   50.6216 H   0  0  0  0  0  0  0  0  0  0  0  0
   60.0828   31.5712   53.1188 H   0  0  0  0  0  0  0  0  0  0  0  0
   61.6498   33.4516   52.6632 H   0  0  0  0  0  0  0  0  0  0  0  0
   61.5687   34.6480   50.4787 H   0  0  0  0  0  0  0  0  0  0  0  0
   59.9359   33.9518   48.7335 H   0  0  0  0  0  0  0  0  0  0  0  0
   58.9622   29.4872   48.8754 H   0  0  0  0  0  0  0  0  0  0  0  0
   59.6281   28.1205   46.9059 H   0  0  0  0  0  0  0  0  0  0  0  0
   59.5588   29.1086   44.6162 H   0  0  0  0  0  0  0  0  0  0  0  0
   58.7690   31.4497   44.2922 H   0  0  0  0  0  0  0  0  0  0  0  0
   54.3633   29.5626   52.2263 H   0  0  0  0  0  0  0  0  0  0  0  0
   54.2506   31.2707   52.7888 H   0  0  0  0  0  0  0  0  0  0  0  0
   53.5721   31.5516   50.1468 H   0  0  0  0  0  0  0  0  0  0  0  0
   52.9207   29.9015   50.5077 H   0  0  0  0  0  0  0  0  0  0  0  0
  1  2  2  0
  2  3  1  0
  3  4  1  0
  4  5  2  0
  5  6  1  0
  6  7  2  0
  7  8  1  0
  8  9  2  0
  9 10  1  0
 10 11  1  0
 11 12  2  0
 12 13  1  0
 13 14  2  0
 14 15  1  0
 15 16  2  0
 16 17  1  0
  2 18  1  0
 18 19  1  0
 19 20  1  0
 20 21  1  0
 21 22  1  0
 22 23  1  0
 23 24  2  0
 23 25  1  0
 25 26  1  0
 26 27  1  0
  9  4  1  0
 16 11  1  0
 26 21  2  0
  3 28  1  0
  3 29  1  0
  5 30  1  0
  6 31  1  0
  7 32  1  0
  8 33  1  0
 12 34  1  0
 13 35  1  0
 14 36  1  0
 15 37  1  0
 19 38  1  0
 19 39  1  0
 20 40  1  0
 20 41  1  0
M  CHG  4  18  -1  22  -1  25  -1  27  -1
M  END
>  <UniqueID>  (80) 
74

>  <SMILES>  (80) 
O=C(Cc1ccccc1Oc1ccccc1Br)[N-]CCc1[n-]c(=O)[n-]c1[O-]

>  <Energy>  (80) 
76.93193828454255

>  <Genealogy>  (80) 
O=C(Cc1ccccc1Oc1ccccc1Br)[N-]CCc1[n-]c(=O)[n-]c1[O-] (protonated)
O=C(Cc1ccccc1Oc1ccccc1Br)[N-]CCc1[n-]c(=O)[n-]c1[O-] (3D coordinates assigned)
O=C(Cc1ccccc1Oc1ccccc1Br)[N-]CCc1[n-]c(=O)[n-]c1[O-] (optimized conformer: 76.93193828454255 kcal/mol)

>  <smiles>  (80) 
O=C(Cc1ccccc1Oc1ccccc1Br)NCCc1[nH]c(=O)[nH]c1O

>  <score_type>  (80) 
oracle

>  <origin>  (80) 
adg

>  <m_score__min__energy>  (80) 
-19.260000000000002

>  <m_primary>  (80) 
energy

$$$$
80:0
     RDKit          3D

 80 84  0  0  1  0  0  0  0  0999 V2000
   57.5200   31.6730   43.4370 C   0  0  0  0  0  0  0  0  0  0  0  0
   56.8390   31.1660   44.4130 C   0  0  0  0  0  0  0  0  0  0  0  0
   56.6580   29.7850   44.7780 C   0  0  0  0  0  0  0  0  0  0  0  0
   55.4280   29.3900   44.8620 O   0  0  0  0  0  0  0  0  0  0  0  0
   57.6230   28.8110   45.0530 N   0  0  0  0  0  0  0  0  0  0  0  0
   59.0560   28.9760   45.0280 C   0  0  0  0  0  0  0  0  0  0  0  0
   59.7190   27.6080   45.2990 C   0  0  0  0  0  0  0  0  0  0  0  0
   59.2710   27.0290   46.6070 C   0  0  0  0  0  0  0  0  0  0  0  0
   59.9620   27.6980   47.7470 C   0  0  0  0  0  0  0  0  0  0  0  0
   59.4070   28.9110   48.1590 O   0  0  0  0  0  0  0  0  0  0  0  0
   59.5620   29.5110   49.3920 C   0  0  0  0  0  0  0  0  0  0  0  0
   58.6470   30.2910   49.9810 N   0  0  0  0  0  0  0  0  0  0  0  0
   58.8990   30.8390   51.2080 C   0  0  0  0  0  0  0  0  0  0  0  0
   57.9660   31.5650   51.6920 N   0  0  0  0  0  0  0  0  0  0  0  0
   58.1330   33.0010   51.7740 C   0  0  0  0  0  0  0  0  0  0  0  0
   59.2900   33.5940   50.9560 C   0  0  0  0  0  0  0  0  0  0  0  0
   59.3030   33.6010   52.4580 C   0  0  0  0  0  0  0  0  0  0  0  0
   61.0000   31.1060   47.2930 N   0  0  0  0  0  0  0  0  0  0  0  0
   61.9590   32.0560   47.3120 C   0  0  0  0  0  0  0  0  0  0  0  0
   63.2030   31.9080   47.5590 N   0  0  0  0  0  0  0  0  0  0  0  0
   63.2500   30.3380   51.3980 C   0  0  0  0  0  0  0  0  0  0  0  0
   64.4210   30.4130   52.1230 C   0  0  0  0  0  0  0  0  0  0  0  0
   65.4420   31.2340   51.6810 C   0  0  0  0  0  0  0  0  0  0  0  0
   65.3390   31.9970   50.5250 C   0  0  0  0  0  0  0  0  0  0  0  0
   66.4480   32.8520   50.1000 C   0  0  0  0  0  0  0  0  0  0  0  0
   64.1640   31.9080   49.8130 C   0  0  0  0  0  0  0  0  0  0  0  0
   63.9170   32.6450   48.5740 C   0  0  0  0  0  0  0  0  0  0  0  0
   64.2880   33.8290   48.3840 O   0  0  0  0  0  0  0  0  0  0  0  0
   62.1430   29.5310   51.7620 N   0  0  0  0  0  0  0  0  0  0  0  0
   60.9990   29.7980   51.2270 C   0  0  0  0  0  0  0  0  0  0  0  0
   61.3200   33.2370   46.9980 C   0  0  0  0  0  0  0  0  0  0  0  0
   59.9900   32.9320   46.8040 C   0  0  0  0  0  0  0  0  0  0  0  0
   58.9740   33.9510   46.4480 C   0  0  0  0  0  0  0  0  0  0  0  0
   59.2500   35.2740   47.1140 C   0  0  0  0  0  0  0  0  0  0  0  0
   57.5740   33.5250   46.8290 C   0  0  0  0  0  0  0  0  0  0  0  0
   59.0000   34.2390   44.9420 C   0  0  0  0  0  0  0  0  0  0  0  0
   59.8520   31.6550   46.9900 O   0  0  0  0  0  0  0  0  0  0  0  0
   60.7370   29.2720   50.0320 N   0  0  0  0  0  0  0  0  0  0  0  0
   63.1150   31.0870   50.2380 C   0  0  0  0  0  0  0  0  0  0  0  0
   60.0700   30.5800   51.8020 N   0  0  0  0  0  0  0  0  0  0  0  0
   57.7730   27.1630   46.7870 C   0  0  0  0  0  0  0  0  0  0  0  0
   57.1610   27.4550   45.4150 C   0  0  0  0  0  0  0  0  0  0  0  0
   57.5538   32.7637   43.2982 H   0  0  0  0  0  0  0  0  0  0  0  0
   58.0652   31.0134   42.7458 H   0  0  0  0  0  0  0  0  0  0  0  0
   56.3242   31.8946   45.0565 H   0  0  0  0  0  0  0  0  0  0  0  0
   59.3681   29.3491   44.0414 H   0  0  0  0  0  0  0  0  0  0  0  0
   59.3625   29.6991   45.7982 H   0  0  0  0  0  0  0  0  0  0  0  0
   59.4491   26.9136   44.4897 H   0  0  0  0  0  0  0  0  0  0  0  0
   60.8082   27.7553   45.3422 H   0  0  0  0  0  0  0  0  0  0  0  0
   59.5334   25.9608   46.5948 H   0  0  0  0  0  0  0  0  0  0  0  0
   59.9453   27.0092   48.6045 H   0  0  0  0  0  0  0  0  0  0  0  0
   60.9743   27.9359   47.3884 H   0  0  0  0  0  0  0  0  0  0  0  0
   57.0480   33.1537   51.8711 H   0  0  0  0  0  0  0  0  0  0  0  0
   59.9706   32.9335   50.3987 H   0  0  0  0  0  0  0  0  0  0  0  0
   59.3871   34.3516   50.1644 H   0  0  0  0  0  0  0  0  0  0  0  0
   60.0083   32.9534   52.9994 H   0  0  0  0  0  0  0  0  0  0  0  0
   59.4262   34.3852   53.2195 H   0  0  0  0  0  0  0  0  0  0  0  0
   61.1130   30.0780   47.4840 H   0  0  0  0  0  0  0  0  0  0  0  0
   64.5416   29.8248   53.0447 H   0  0  0  0  0  0  0  0  0  0  0  0
   66.3713   31.2848   52.2673 H   0  0  0  0  0  0  0  0  0  0  0  0
   66.9644   33.2501   50.9859 H   0  0  0  0  0  0  0  0  0  0  0  0
   67.1550   32.2630   49.4973 H   0  0  0  0  0  0  0  0  0  0  0  0
   66.0582   33.6856   49.4973 H   0  0  0  0  0  0  0  0  0  0  0  0
   61.7829   34.2316   46.9178 H   0  0  0  0  0  0  0  0  0  0  0  0
   59.2235   35.1472   48.2063 H   0  0  0  0  0  0  0  0  0  0  0  0
   60.2432   35.6369   46.8109 H   0  0  0  0  0  0  0  0  0  0  0  0
   58.4848   36.0038   46.8109 H   0  0  0  0  0  0  0  0  0  0  0  0
   57.4845   33.4978   47.9250 H   0  0  0  0  0  0  0  0  0  0  0  0
   56.8481   34.2429   46.4196 H   0  0  0  0  0  0  0  0  0  0  0  0
   57.3710   32.5244   46.4196 H   0  0  0  0  0  0  0  0  0  0  0  0
   59.0978   35.3222   44.7775 H   0  0  0  0  0  0  0  0  0  0  0  0
   59.8549   33.7199   44.4841 H   0  0  0  0  0  0  0  0  0  0  0  0
   58.0659   33.8814   44.4841 H   0  0  0  0  0  0  0  0  0  0  0  0
   61.4670   28.6520   49.5730 H   0  0  0  0  0  0  0  0  0  0  0  0
   62.1845   31.0351   49.6537 H   0  0  0  0  0  0  0  0  0  0  0  0
   60.2810   30.9830   52.7120 H   0  0  0  0  0  0  0  0  0  0  0  0
   57.3593   26.2267   47.1896 H   0  0  0  0  0  0  0  0  0  0  0  0
   57.5419   27.9756   47.4915 H   0  0  0  0  0  0  0  0  0  0  0  0
   57.5103   26.7202   44.6747 H   0  0  0  0  0  0  0  0  0  0  0  0
   56.0630   27.3922   45.4379 H   0  0  0  0  0  0  0  0  0  0  0  0
  1  2  2  0
  2  3  1  0
  3  4  2  0
  3  5  1  0
  5  6  1  0
  6  7  1  0
  7  8  1  0
  8  9  1  0
  9 10  1  0
 10 11  1  0
 11 12  2  0
 12 13  1  0
 13 14  2  0
 14 15  1  0
 15 16  1  0
 16 17  1  0
 13 18  1  0
 18 19  1  0
 19 20  2  0
 20 21  1  0
 21 22  2  0
 22 23  1  0
 23 24  2  0
 24 25  1  0
 24 26  1  0
 26 27  1  0
 27 28  2  0
 27 29  1  0
 29 30  2  0
 30 31  1  0
 31 32  2  0
 32 33  1  0
 33 34  1  0
 33 35  1  0
 33 36  1  0
 32 37  1  0
 37 38  1  0
 26 39  2  0
 19 40  1  0
  8 41  1  0
 41 42  1  0
 42  5  1  0
 40 11  1  0
 17 15  1  0
 39 21  1  0
 38 30  1  0
  1 43  1  0
  1 44  1  0
  2 45  1  0
  6 46  1  0
  6 47  1  0
  7 48  1  0
  7 49  1  0
  8 50  1  0
  9 51  1  0
  9 52  1  0
 15 53  1  0
 16 54  1  0
 16 55  1  0
 17 56  1  0
 17 57  1  0
 18 58  1  0
 22 59  1  0
 23 60  1  0
 25 61  1  0
 25 62  1  0
 25 63  1  0
 31 64  1  0
 34 65  1  0
 34 66  1  0
 34 67  1  0
 35 68  1  0
 35 69  1  0
 35 70  1  0
 36 71  1  0
 36 72  1  0
 36 73  1  0
 38 74  1  0
 39 75  1  0
 40 76  1  0
 41 77  1  0
 41 78  1  0
 42 79  1  0
 42 80  1  0
M  END
>  <smiles>  (81) 
C=CC(=O)N1CCC(COc2nc(=NC3CC3)[nH]c(=Nc3ccc(C)c(C(=O)N=c4cc(C(C)(C)C)o[nH]4)c3)[nH]2)CC1

>  <score_type>  (81) 
oracle

>  <origin>  (81) 
adg

>  <m_score__min__energy>  (81) 
-10.6

>  <m_primary>  (81) 
energy

$$$$
81:0
     RDKit          3D

 30 31  0  0  0  0  0  0  0  0999 V2000
   56.9960   34.2760   45.2180 C   0  0  0  0  0  0  0  0  0  0  0  0
   57.6420   32.6180   45.2940 S   0  0  0  0  0  0  0  0  0  0  0  0
   56.5700   31.6620   44.8500 O   0  0  0  0  0  0  0  0  0  0  0  0
   58.8220   32.4940   44.3710 O   0  0  0  0  0  0  0  0  0  0  0  0
   58.1070   32.2280   46.9240 N   0  0  0  0  0  0  0  0  0  0  0  0
   59.5670   32.2380   47.0440 C   0  0  0  0  0  0  0  0  0  0  0  0
   60.1210   30.8170   46.9040 C   0  0  0  0  0  0  0  0  0  0  0  0
   59.4590   30.0920   45.8160 N   0  0  0  0  0  0  0  0  0  0  0  0
   58.7700   28.8410   46.0090 C   0  0  0  0  0  0  0  0  0  0  0  0
   59.4820   27.7370   46.5460 C   0  0  0  0  0  0  0  0  0  0  0  0
   58.8470   26.4980   46.7490 C   0  0  0  0  0  0  0  0  0  0  0  0
   57.5020   26.3970   46.4070 C   0  0  0  0  0  0  0  0  0  0  0  0
   56.7080   25.3220   46.5160 N   0  0  0  0  0  0  0  0  0  0  0  0
   55.5270   25.7940   46.0430 C   0  0  0  0  0  0  0  0  0  0  0  0
   54.4930   25.0790   45.9750 O   0  0  0  0  0  0  0  0  0  0  0  0
   55.5390   27.0930   45.6470 N   0  0  0  0  0  0  0  0  0  0  0  0
   56.8090   27.4480   45.8910 C   0  0  0  0  0  0  0  0  0  0  0  0
   57.4010   28.6890   45.6750 C   0  0  0  0  0  0  0  0  0  0  0  0
   56.8469   34.6586   46.2385 H   0  0  0  0  0  0  0  0  0  0  0  0
   57.7079   34.9228   44.6843 H   0  0  0  0  0  0  0  0  0  0  0  0
   56.0342   34.2707   44.6843 H   0  0  0  0  0  0  0  0  0  0  0  0
   57.7720   31.2530   47.1070 H   0  0  0  0  0  0  0  0  0  0  0  0
   59.9919   32.8729   46.2525 H   0  0  0  0  0  0  0  0  0  0  0  0
   59.8423   32.6339   48.0327 H   0  0  0  0  0  0  0  0  0  0  0  0
   61.1993   30.8719   46.6939 H   0  0  0  0  0  0  0  0  0  0  0  0
   59.9347   30.2776   47.8444 H   0  0  0  0  0  0  0  0  0  0  0  0
   59.4820   30.4950   44.8510 H   0  0  0  0  0  0  0  0  0  0  0  0
   60.5444   27.8515   46.8070 H   0  0  0  0  0  0  0  0  0  0  0  0
   59.3948   25.6390   47.1637 H   0  0  0  0  0  0  0  0  0  0  0  0
   56.8235   29.5270   45.2575 H   0  0  0  0  0  0  0  0  0  0  0  0
  1  2  1  0
  2  3  2  0
  2  4  2  0
  2  5  1  0
  5  6  1  0
  6  7  1  0
  7  8  1  0
  8  9  1  0
  9 10  2  0
 10 11  1  0
 11 12  2  0
 12 13  1  0
 13 14  1  0
 14 15  2  0
 14 16  1  0
 16 17  1  0
 17 18  2  0
 18  9  1  0
 17 12  1  0
  1 19  1  0
  1 20  1  0
  1 21  1  0
  5 22  1  0
  6 23  1  0
  6 24  1  0
  7 25  1  0
  7 26  1  0
  8 27  1  0
 10 28  1  0
 11 29  1  0
 18 30  1  0
M  CHG  2  13  -1  16  -1
M  END
>  <UniqueID>  (82) 
75

>  <SMILES>  (82) 
CS(=O)(=O)NCCNc1ccc2[n-]c(=O)[n-]c2c1

>  <Energy>  (82) 
55.77610027943569

>  <Genealogy>  (82) 
CS(=O)(=O)NCCNc1ccc2[n-]c(=O)[n-]c2c1 (protonated)
CS(=O)(=O)NCCNc1ccc2[n-]c(=O)[n-]c2c1 (3D coordinates assigned)
CS(=O)(=O)NCCNc1ccc2[n-]c(=O)[n-]c2c1 (optimized conformer: 55.77610027943569 kcal/mol)

>  <smiles>  (82) 
CS(=O)(=O)NCCNc1ccc2[nH]c(=O)[nH]c2c1

>  <score_type>  (82) 
oracle

>  <origin>  (82) 
adg

>  <m_score__min__energy>  (82) 
-10.65

>  <m_primary>  (82) 
energy

$$$$
82:0
     RDKit          3D

 34 36  0  0  0  0  0  0  0  0999 V2000
   56.5660   22.3180   48.2630 C   0  0  0  0  0  0  0  0  0  0  0  0
   56.9610   21.3840   47.1240 C   0  0  0  0  0  0  0  0  0  0  0  0
   57.1740   22.1450   45.8830 N   0  0  0  0  0  0  0  0  0  0  0  0
   57.7550   21.4770   44.7100 C   0  0  0  0  0  0  0  0  0  0  0  0
   56.8970   21.6790   43.5370 C   0  0  0  0  0  0  0  0  0  0  0  0
   56.2190   21.8390   42.6130 N   0  0  0  0  0  0  0  0  0  0  0  0
   56.7870   23.5360   45.8090 C   0  0  0  0  0  0  0  0  0  0  0  0
   55.4590   23.8790   45.7560 N   0  0  0  0  0  0  0  0  0  0  0  0
   55.0820   25.1850   45.6860 C   0  0  0  0  0  0  0  0  0  0  0  0
   53.8640   25.5010   45.6370 O   0  0  0  0  0  0  0  0  0  0  0  0
   56.0500   26.1260   45.6720 N   0  0  0  0  0  0  0  0  0  0  0  0
   55.9330   27.4360   45.6080 N   0  0  0  0  0  0  0  0  0  0  0  0
   57.2160   27.8880   45.6260 C   0  0  0  0  0  0  0  0  0  0  0  0
   57.5740   29.3210   45.5720 C   0  0  0  0  0  0  0  0  0  0  0  0
   57.0260   30.1580   44.5820 C   0  0  0  0  0  0  0  0  0  0  0  0
   57.3680   31.5130   44.5340 C   0  0  0  0  0  0  0  0  0  0  0  0
   58.2570   32.0460   45.4700 C   0  0  0  0  0  0  0  0  0  0  0  0
   58.8070   31.2250   46.4570 C   0  0  0  0  0  0  0  0  0  0  0  0
   58.4690   29.8690   46.5100 C   0  0  0  0  0  0  0  0  0  0  0  0
   58.1370   26.8850   45.6990 N   0  0  0  0  0  0  0  0  0  0  0  0
   57.3370   25.8070   45.7250 C   0  0  0  0  0  0  0  0  0  0  0  0
   57.7410   24.5180   45.7950 N   0  0  0  0  0  0  0  0  0  0  0  0
   56.7727   21.8292   49.2265 H   0  0  0  0  0  0  0  0  0  0  0  0
   57.1474   23.2491   48.1920 H   0  0  0  0  0  0  0  0  0  0  0  0
   55.4930   22.5494   48.1920 H   0  0  0  0  0  0  0  0  0  0  0  0
   57.8906   20.8602   47.3914 H   0  0  0  0  0  0  0  0  0  0  0  0
   56.1500   20.6588   46.9615 H   0  0  0  0  0  0  0  0  0  0  0  0
   58.7513   21.8974   44.5085 H   0  0  0  0  0  0  0  0  0  0  0  0
   57.8373   20.3992   44.9140 H   0  0  0  0  0  0  0  0  0  0  0  0
   56.3250   29.7441   43.8422 H   0  0  0  0  0  0  0  0  0  0  0  0
   56.9358   32.1607   43.7571 H   0  0  0  0  0  0  0  0  0  0  0  0
   58.5240   33.1123   45.4299 H   0  0  0  0  0  0  0  0  0  0  0  0
   59.5071   31.6456   47.1938 H   0  0  0  0  0  0  0  0  0  0  0  0
   58.9052   29.2269   47.2894 H   0  0  0  0  0  0  0  0  0  0  0  0
  1  2  1  0
  2  3  1  0
  3  4  1  0
  4  5  1  0
  5  6  3  0
  3  7  1  0
  7  8  2  0
  8  9  1  0
  9 10  2  0
  9 11  1  0
 11 12  1  0
 12 13  1  0
 13 14  1  0
 14 15  2  0
 15 16  1  0
 16 17  2  0
 17 18  1  0
 18 19  2  0
 13 20  2  0
 20 21  1  0
 21 22  2  0
 22  7  1  0
 21 11  1  0
 19 14  1  0
  1 23  1  0
  1 24  1  0
  1 25  1  0
  2 26  1  0
  2 27  1  0
  4 28  1  0
  4 29  1  0
 15 30  1  0
 16 31  1  0
 17 32  1  0
 18 33  1  0
 19 34  1  0
M  CHG  1  12  -1
M  END
>  <UniqueID>  (83) 
76

>  <SMILES>  (83) 
CCN(CC#N)c1nc(=O)n2[n-]c(-c3ccccc3)nc2n1

>  <Energy>  (83) 
72.57329370178685

>  <Genealogy>  (83) 
CCN(CC#N)c1nc(=O)n2[n-]c(-c3ccccc3)nc2n1 (protonated)
CCN(CC#N)c1nc(=O)n2[n-]c(-c3ccccc3)nc2n1 (3D coordinates assigned)
CCN(CC#N)c1nc(=O)n2[n-]c(-c3ccccc3)nc2n1 (optimized conformer: 72.57329370178685 kcal/mol)

>  <smiles>  (83) 
CCN(CC#N)c1nc(=O)n2[nH]c(-c3ccccc3)nc2n1

>  <score_type>  (83) 
oracle

>  <origin>  (83) 
adg

>  <m_score__min__energy>  (83) 
-7.96

>  <m_primary>  (83) 
energy

$$$$
83:0
     RDKit          3D

 35 37  0  0  0  0  0  0  0  0999 V2000
   55.1180   26.6880   45.9940 O   0  0  0  0  0  0  0  0  0  0  0  0
   55.9990   25.8430   46.3150 C   0  0  0  0  0  0  0  0  0  0  0  0
   55.5950   24.5570   46.8000 N   0  0  0  0  0  0  0  0  0  0  0  0
   54.8310   23.5970   46.0110 C   0  0  0  0  0  0  0  0  0  0  0  0
   55.7310   22.8810   45.0490 C   0  0  0  0  0  0  0  0  0  0  0  0
   56.8250   22.1390   45.5140 C   0  0  0  0  0  0  0  0  0  0  0  0
   57.6610   21.5010   44.5950 C   0  0  0  0  0  0  0  0  0  0  0  0
   57.4030   21.6130   43.2270 C   0  0  0  0  0  0  0  0  0  0  0  0
   56.3070   22.3670   42.7990 C   0  0  0  0  0  0  0  0  0  0  0  0
   55.5040   22.9800   43.7090 N   0  0  0  0  0  0  0  0  0  0  0  0
   57.4430   26.1810   46.1760 C   0  0  0  0  0  0  0  0  0  0  0  0
   58.3760   25.2770   46.5220 C   0  0  0  0  0  0  0  0  0  0  0  0
   59.8160   25.5730   46.4290 C   0  0  0  0  0  0  0  0  0  0  0  0
   60.2470   26.7710   46.0350 C   0  0  0  0  0  0  0  0  0  0  0  0
   59.3180   27.8060   45.6650 N   0  0  0  0  0  0  0  0  0  0  0  0
   59.8260   29.1770   45.5040 C   0  0  0  0  0  0  0  0  0  0  0  0
   59.2300   29.8450   44.2730 C   0  0  0  0  0  0  0  0  0  0  0  0
   57.4690   29.8400   44.4370 S   0  0  0  0  0  0  0  0  0  0  0  0
   56.8320   29.9730   43.0830 O   0  0  0  0  0  0  0  0  0  0  0  0
   57.0300   30.9670   45.3280 O   0  0  0  0  0  0  0  0  0  0  0  0
   57.0330   28.3280   45.1480 N   0  0  0  0  0  0  0  0  0  0  0  0
   57.8990   27.5030   45.6590 C   0  0  0  0  0  0  0  0  0  0  0  0
   54.3634   22.8639   46.6848 H   0  0  0  0  0  0  0  0  0  0  0  0
   54.0569   24.1351   45.4442 H   0  0  0  0  0  0  0  0  0  0  0  0
   57.0235   22.0598   46.5930 H   0  0  0  0  0  0  0  0  0  0  0  0
   58.5204   20.9119   44.9477 H   0  0  0  0  0  0  0  0  0  0  0  0
   58.0548   21.1136   42.4951 H   0  0  0  0  0  0  0  0  0  0  0  0
   56.0936   22.4647   41.7243 H   0  0  0  0  0  0  0  0  0  0  0  0
   58.0553   24.2892   46.8845 H   0  0  0  0  0  0  0  0  0  0  0  0
   60.5470   24.7931   46.6888 H   0  0  0  0  0  0  0  0  0  0  0  0
   61.3277   26.9715   45.9920 H   0  0  0  0  0  0  0  0  0  0  0  0
   59.5603   29.7648   46.3950 H   0  0  0  0  0  0  0  0  0  0  0  0
   60.9181   29.1310   45.3804 H   0  0  0  0  0  0  0  0  0  0  0  0
   59.5938   30.8804   44.1987 H   0  0  0  0  0  0  0  0  0  0  0  0
   59.5278   29.3008   43.3646 H   0  0  0  0  0  0  0  0  0  0  0  0
  1  2  2  0
  2  3  1  0
  3  4  1  0
  4  5  1  0
  5  6  2  0
  6  7  1  0
  7  8  2  0
  8  9  1  0
  9 10  2  0
  2 11  1  0
 11 12  2  0
 12 13  1  0
 13 14  2  0
 14 15  1  0
 15 16  1  0
 16 17  1  0
 17 18  1  0
 18 19  2  0
 18 20  2  0
 18 21  1  0
 21 22  2  0
 10  5  1  0
 22 11  1  0
 22 15  1  0
  4 23  1  0
  4 24  1  0
  6 25  1  0
  7 26  1  0
  8 27  1  0
  9 28  1  0
 12 29  1  0
 13 30  1  0
 14 31  1  0
 16 32  1  0
 16 33  1  0
 17 34  1  0
 17 35  1  0
M  CHG  1   3  -1
M  END
>  <UniqueID>  (84) 
77

>  <SMILES>  (84) 
O=C([N-]Cc1ccccn1)C1=CC=CN2CCS(=O)(=O)N=C12

>  <Energy>  (84) 
36.2611129325993

>  <Genealogy>  (84) 
O=C([N-]Cc1ccccn1)C1=CC=CN2CCS(=O)(=O)N=C12 (protonated)
O=C([N-]Cc1ccccn1)C1=CC=CN2CCS(=O)(=O)N=C12 (3D coordinates assigned)
O=C([N-]Cc1ccccn1)C1=CC=CN2CCS(=O)(=O)N=C12 (nonaromatic ring conformer: 36.2611129325993 kcal/mol)

>  <smiles>  (84) 
O=C(NCc1ccccn1)C1=CC=CN2CCS(=O)(=O)N=C12

>  <score_type>  (84) 
oracle

>  <origin>  (84) 
adg

>  <m_score__min__energy>  (84) 
-10.300000000000001

>  <m_primary>  (84) 
energy

$$$$
84:0
     RDKit          3D

 54 56  0  0  0  0  0  0  0  0999 V2000
   57.1710   33.0330   46.7720 O   0  0  0  0  0  0  0  0  0  0  0  0
   57.6820   33.1980   45.6320 C   0  0  0  0  0  0  0  0  0  0  0  0
   57.7200   32.0610   44.6600 C   0  0  0  0  0  0  0  0  0  0  0  0
   56.6150   31.1820   44.8720 O   0  0  0  0  0  0  0  0  0  0  0  0
   56.6660   29.8060   44.6140 C   0  0  0  0  0  0  0  0  0  0  0  0
   56.1110   29.3430   43.5790 O   0  0  0  0  0  0  0  0  0  0  0  0
   57.3870   28.8950   45.5380 C   0  0  0  0  0  0  0  0  0  0  0  0
   58.6850   29.2290   45.9700 C   0  0  0  0  0  0  0  0  0  0  0  0
   59.3880   28.3970   46.8620 C   0  0  0  0  0  0  0  0  0  0  0  0
   60.7010   28.7320   47.3370 N   0  0  0  0  0  0  0  0  0  0  0  0
   61.1730   30.2680   47.9880 S   0  0  0  0  0  0  0  0  0  0  0  0
   61.7320   30.0810   49.3710 O   0  0  0  0  0  0  0  0  0  0  0  0
   62.2440   30.8570   47.1150 O   0  0  0  0  0  0  0  0  0  0  0  0
   59.7680   31.3740   48.0080 C   0  0  0  0  0  0  0  0  0  0  0  0
   59.0950   31.3540   49.3520 C   0  0  0  0  0  0  0  0  0  0  0  0
   58.8980   32.5490   50.0640 C   0  0  0  0  0  0  0  0  0  0  0  0
   58.3150   32.5240   51.3350 C   0  0  0  0  0  0  0  0  0  0  0  0
   57.9330   31.3060   51.9060 C   0  0  0  0  0  0  0  0  0  0  0  0
   58.1360   30.1110   51.2080 C   0  0  0  0  0  0  0  0  0  0  0  0
   58.7180   30.1330   49.9370 C   0  0  0  0  0  0  0  0  0  0  0  0
   58.7860   27.2170   47.3130 C   0  0  0  0  0  0  0  0  0  0  0  0
   59.4630   26.3800   48.1940 O   0  0  0  0  0  0  0  0  0  0  0  0
   57.5020   26.8730   46.8880 C   0  0  0  0  0  0  0  0  0  0  0  0
   56.8000   27.7010   46.0080 C   0  0  0  0  0  0  0  0  0  0  0  0
   55.5230   27.3190   45.6110 O   0  0  0  0  0  0  0  0  0  0  0  0
   58.2520   34.4570   45.2690 N   0  0  0  0  0  0  0  0  0  0  0  0
   59.5570   34.8990   45.7420 C   0  0  0  0  0  0  0  0  0  0  0  0
   59.7130   34.5860   47.2290 C   0  0  0  0  0  0  0  0  0  0  0  0
   61.1190   34.1520   47.5580 C   0  0  0  0  0  0  0  0  0  0  0  0
   62.0280   33.8430   46.5310 C   0  0  0  0  0  0  0  0  0  0  0  0
   63.3320   33.4520   46.8410 C   0  0  0  0  0  0  0  0  0  0  0  0
   63.7460   33.3820   48.1730 C   0  0  0  0  0  0  0  0  0  0  0  0
   62.8540   33.7050   49.2000 C   0  0  0  0  0  0  0  0  0  0  0  0
   61.5450   34.0910   48.8950 C   0  0  0  0  0  0  0  0  0  0  0  0
   57.6739   32.4593   43.6357 H   0  0  0  0  0  0  0  0  0  0  0  0
   58.6539   31.4989   44.8078 H   0  0  0  0  0  0  0  0  0  0  0  0
   59.1565   30.1534   45.6052 H   0  0  0  0  0  0  0  0  0  0  0  0
   60.1103   32.3966   47.7908 H   0  0  0  0  0  0  0  0  0  0  0  0
   59.0466   31.0431   47.2464 H   0  0  0  0  0  0  0  0  0  0  0  0
   59.2035   33.5080   49.6201 H   0  0  0  0  0  0  0  0  0  0  0  0
   58.1569   33.4629   51.8858 H   0  0  0  0  0  0  0  0  0  0  0  0
   57.4725   31.2877   52.9048 H   0  0  0  0  0  0  0  0  0  0  0  0
   57.8376   29.1533   51.6594 H   0  0  0  0  0  0  0  0  0  0  0  0
   58.8814   29.1911   49.3928 H   0  0  0  0  0  0  0  0  0  0  0  0
   57.0388   25.9427   47.2486 H   0  0  0  0  0  0  0  0  0  0  0  0
   60.3439   34.3783   45.1766 H   0  0  0  0  0  0  0  0  0  0  0  0
   59.6437   35.9854   45.5929 H   0  0  0  0  0  0  0  0  0  0  0  0
   59.4718   35.4876   47.8112 H   0  0  0  0  0  0  0  0  0  0  0  0
   59.0295   33.7620   47.4817 H   0  0  0  0  0  0  0  0  0  0  0  0
   61.7108   33.9095   45.4798 H   0  0  0  0  0  0  0  0  0  0  0  0
   64.0351   33.1984   46.0340 H   0  0  0  0  0  0  0  0  0  0  0  0
   64.7737   33.0728   48.4141 H   0  0  0  0  0  0  0  0  0  0  0  0
   63.1821   33.6555   50.2487 H   0  0  0  0  0  0  0  0  0  0  0  0
   60.8465   34.3478   49.7050 H   0  0  0  0  0  0  0  0  0  0  0  0
  1  2  2  0
  2  3  1  0
  3  4  1  0
  4  5  1  0
  5  6  2  0
  5  7  1  0
  7  8  2  0
  8  9  1  0
  9 10  1  0
 10 11  1  0
 11 12  2  0
 11 13  2  0
 11 14  1  0
 14 15  1  0
 15 16  2  0
 16 17  1  0
 17 18  2  0
 18 19  1  0
 19 20  2  0
  9 21  2  0
 21 22  1  0
 21 23  1  0
 23 24  2  0
 24 25  1  0
  2 26  1  0
 26 27  1  0
 27 28  1  0
 28 29  1  0
 29 30  2  0
 30 31  1  0
 31 32  2  0
 32 33  1  0
 33 34  2  0
 24  7  1  0
 34 29  1  0
 20 15  1  0
  3 35  1  0
  3 36  1  0
  8 37  1  0
 14 38  1  0
 14 39  1  0
 16 40  1  0
 17 41  1  0
 18 42  1  0
 19 43  1  0
 20 44  1  0
 23 45  1  0
 27 46  1  0
 27 47  1  0
 28 48  1  0
 28 49  1  0
 30 50  1  0
 31 51  1  0
 32 52  1  0
 33 53  1  0
 34 54  1  0
M  CHG  4  10  -1  22  -1  25  -1  26  -1
M  END
>  <UniqueID>  (85) 
78

>  <SMILES>  (85) 
O=C(COC(=O)c1cc([N-]S(=O)(=O)Cc2ccccc2)c([O-])cc1[O-])[N-]CCc1ccccc1

>  <Energy>  (85) 
44.70526880942393

>  <Genealogy>  (85) 
O=C(COC(=O)c1cc([N-]S(=O)(=O)Cc2ccccc2)c([O-])cc1[O-])[N-]CCc1ccccc1 (protonated)
O=C(COC(=O)c1cc([N-]S(=O)(=O)Cc2ccccc2)c([O-])cc1[O-])[N-]CCc1ccccc1 (3D coordinates assigned)
O=C(COC(=O)c1cc([N-]S(=O)(=O)Cc2ccccc2)c([O-])cc1[O-])[N-]CCc1ccccc1 (optimized conformer: 44.70526880942393 kcal/mol)

>  <smiles>  (85) 
O=C(COC(=O)c1cc(NS(=O)(=O)Cc2ccccc2)c(O)cc1O)NCCc1ccccc1

>  <score_type>  (85) 
oracle

>  <origin>  (85) 
adg

>  <m_score__min__energy>  (85) 
-17.890000000000001

>  <m_primary>  (85) 
energy

$$$$
85:0
     RDKit          3D

 60 63  0  0  0  0  0  0  0  0999 V2000
   59.1596   32.6663   47.5854 H   0  0  0  0  0  0  0  0  0  0  0  0
   58.7360   32.7060   46.5710 C   0  0  0  0  0  0  0  0  0  0  0  0
   57.9320   31.7060   46.1330 N   0  0  0  0  0  0  0  0  0  0  0  0
   57.3800   31.6940   44.8880 C   0  0  0  0  0  0  0  0  0  0  0  0
   56.5630   30.7180   44.5990 N   0  0  0  0  0  0  0  0  0  0  0  0
   56.5440   29.3500   45.0440 C   0  0  0  0  0  0  0  0  0  0  0  0
   55.5160   28.6310   44.9220 O   0  0  0  0  0  0  0  0  0  0  0  0
   57.7910   28.7560   45.5750 C   0  0  0  0  0  0  0  0  0  0  0  0
   58.1710   29.0610   46.8950 C   0  0  0  0  0  0  0  0  0  0  0  0
   57.5304   29.7105   47.5097 H   0  0  0  0  0  0  0  0  0  0  0  0
   59.3520   28.5480   47.4320 C   0  0  0  0  0  0  0  0  0  0  0  0
   59.6449   28.8086   48.4598 H   0  0  0  0  0  0  0  0  0  0  0  0
   60.1630   27.7060   46.6710 C   0  0  0  0  0  0  0  0  0  0  0  0
   61.0946   27.3057   47.0974 H   0  0  0  0  0  0  0  0  0  0  0  0
   59.7910   27.3720   45.3680 C   0  0  0  0  0  0  0  0  0  0  0  0
   60.4311   26.7036   44.7734 H   0  0  0  0  0  0  0  0  0  0  0  0
   58.6070   27.8810   44.8080 C   0  0  0  0  0  0  0  0  0  0  0  0
   58.2430   27.4920   43.3970 C   0  0  0  0  0  0  0  0  0  0  0  0
   57.4916   26.6890   43.4203 H   0  0  0  0  0  0  0  0  0  0  0  0
   57.8302   28.3653   42.8708 H   0  0  0  0  0  0  0  0  0  0  0  0
   59.1418   27.1380   42.8708 H   0  0  0  0  0  0  0  0  0  0  0  0
   57.6680   32.7610   44.0100 C   0  0  0  0  0  0  0  0  0  0  0  0
   57.2392   32.7773   42.9971 H   0  0  0  0  0  0  0  0  0  0  0  0
   58.5030   33.7970   44.4390 C   0  0  0  0  0  0  0  0  0  0  0  0
   58.7491   34.6231   43.7557 H   0  0  0  0  0  0  0  0  0  0  0  0
   59.0260   33.7840   45.7370 C   0  0  0  0  0  0  0  0  0  0  0  0
   59.9260   35.2010   46.3780 S   0  0  0  0  0  0  0  0  0  0  0  0
   60.8330   34.1840   47.5520 C   0  0  0  0  0  0  0  0  0  0  0  0
   62.1540   33.8160   47.2750 C   0  0  0  0  0  0  0  0  0  0  0  0
   62.5998   34.0637   46.3003 H   0  0  0  0  0  0  0  0  0  0  0  0
   62.9080   33.1350   48.2330 C   0  0  0  0  0  0  0  0  0  0  0  0
   63.9262   32.7962   47.9914 H   0  0  0  0  0  0  0  0  0  0  0  0
   62.3700   32.8830   49.5000 C   0  0  0  0  0  0  0  0  0  0  0  0
   63.1570   32.2760   50.4720 O   0  0  0  0  0  0  0  0  0  0  0  0
   61.0520   33.2760   49.7940 C   0  0  0  0  0  0  0  0  0  0  0  0
   60.5490   33.2180   51.1780 C   0  0  0  0  0  0  0  0  0  0  0  0
   61.1180   33.9190   52.0600 O   0  0  0  0  0  0  0  0  0  0  0  0
   59.4110   32.3830   51.5190 N   0  0  0  0  0  0  0  0  0  0  0  0
   58.8930   32.3820   52.8950 C   0  0  0  0  0  0  0  0  0  0  0  0
   59.0778   33.3721   53.3371 H   0  0  0  0  0  0  0  0  0  0  0  0
   59.4148   31.5789   53.4361 H   0  0  0  0  0  0  0  0  0  0  0  0
   57.3790   32.0810   52.9850 C   0  0  0  0  0  0  0  0  0  0  0  0
   56.8506   33.0233   53.1920 H   0  0  0  0  0  0  0  0  0  0  0  0
   57.2489   31.3381   53.7858 H   0  0  0  0  0  0  0  0  0  0  0  0
   56.8100   31.4890   51.7550 N   0  0  0  0  0  0  0  0  0  0  0  0
   56.5970   32.2670   51.0900 H   0  0  0  0  0  0  0  0  0  0  0  0
   55.5740   30.7890   52.0460 C   0  0  0  0  0  0  0  0  0  0  0  0
   54.6020   30.9180   51.3200 O   0  0  0  0  0  0  0  0  0  0  0  0
   55.4810   29.8800   53.2360 C   0  0  0  0  0  0  0  0  0  0  0  0
   55.5420   30.4762   54.1584 H   0  0  0  0  0  0  0  0  0  0  0  0
   54.5229   29.3401   53.2110 H   0  0  0  0  0  0  0  0  0  0  0  0
   56.3099   29.1573   53.2110 H   0  0  0  0  0  0  0  0  0  0  0  0
   57.7590   30.5790   51.1010 C   0  0  0  0  0  0  0  0  0  0  0  0
   57.2553   30.0636   50.2700 H   0  0  0  0  0  0  0  0  0  0  0  0
   58.1169   29.8426   51.8357 H   0  0  0  0  0  0  0  0  0  0  0  0
   58.9500   31.3650   50.5600 C   0  0  0  0  0  0  0  0  0  0  0  0
   58.6533   31.8638   49.6256 H   0  0  0  0  0  0  0  0  0  0  0  0
   59.7757   30.6596   50.3850 H   0  0  0  0  0  0  0  0  0  0  0  0
   60.2670   33.8720   48.7960 C   0  0  0  0  0  0  0  0  0  0  0  0
   59.2073   34.0946   48.9895 H   0  0  0  0  0  0  0  0  0  0  0  0
  1  2  1  0
  2  3  1  0
  3  4  1  0
  4  5  2  0
  5  6  1  0
  6  7  2  0
  6  8  1  0
  8  9  2  0
  9 10  1  0
  9 11  1  0
 11 12  1  0
 11 13  2  0
 13 14  1  0
 13 15  1  0
 15 16  1  0
 15 17  2  0
 17 18  1  0
 18 19  1  0
 18 20  1  0
 18 21  1  0
  4 22  1  0
 22 23  1  0
 22 24  2  0
 24 25  1  0
 24 26  1  0
 26 27  1  0
 27 28  1  0
 28 29  2  0
 29 30  1  0
 29 31  1  0
 31 32  1  0
 31 33  2  0
 33 34  1  0
 33 35  1  0
 35 36  1  0
 36 37  2  0
 36 38  1  0
 38 39  1  0
 39 40  1  0
 39 41  1  0
 39 42  1  0
 42 43  1  0
 42 44  1  0
 42 45  1  0
 45 46  1  0
 45 47  1  0
 47 48  2  0
 47 49  1  0
 49 50  1  0
 49 51  1  0
 49 52  1  0
 45 53  1  0
 53 54  1  0
 53 55  1  0
 53 56  1  0
 56 57  1  0
 56 58  1  0
 35 59  2  0
 59 60  1  0
 26  2  2  0
 59 28  1  0
 17  8  1  0
 56 38  1  0
M  CHG  3   3  -1  34  -1  45   1
M  END
>  <UniqueID>  (86) 
79

>  <SMILES>  (86) 
CC(=O)[NH+]1CCN(C(=O)c2cc(Sc3cc/c(=N\C(=O)c4ccccc4C)[n-]c3)ccc2[O-])CC1

>  <Energy>  (86) 
83.0359841775342

>  <Genealogy>  (86) 
CC(=O)[NH+]1CCN(C(=O)c2cc(Sc3ccc(=NC(=O)c4ccccc4C)[n-]c3)ccc2[O-])CC1 (protonated)
CC(=O)[NH+]1CCN(C(=O)c2cc(Sc3cc/c(=N\C(=O)c4ccccc4C)[n-]c3)ccc2[O-])CC1 (cis-trans isomerization)
CC(=O)[NH+]1CCN(C(=O)c2cc(Sc3cc/c(=N\C(=O)c4ccccc4C)[n-]c3)ccc2[O-])CC1 (3D coordinates assigned)
CC(=O)[NH+]1CCN(C(=O)c2cc(Sc3cc/c(=N\C(=O)c4ccccc4C)[n-]c3)ccc2[O-])CC1 (nonaromatic ring conformer: 83.0359841775342 kcal/mol)

>  <smiles>  (86) 
CC(=O)N1CCN(C(=O)c2cc(Sc3ccc(=NC(=O)c4ccccc4C)[nH]c3)ccc2O)CC1

>  <score_type>  (86) 
oracle

>  <origin>  (86) 
adg

>  <m_score__min__energy>  (86) 
-12.199999999999999

>  <m_primary>  (86) 
energy

$$$$
86:0
     RDKit          3D

 40 43  0  0  0  0  0  0  0  0999 V2000
   55.1580   24.8160   46.3110 N   0  0  0  0  0  0  0  0  0  0  0  0
   56.2120   25.5290   46.4680 C   0  0  0  0  0  0  0  0  0  0  0  0
   56.4420   26.8080   46.0600 N   0  0  0  0  0  0  0  0  0  0  0  0
   57.7000   27.1610   46.4420 C   0  0  0  0  0  0  0  0  0  0  0  0
   58.3580   28.3970   46.2290 N   0  0  0  0  0  0  0  0  0  0  0  0
   58.8990   29.1530   47.3450 C   0  0  0  0  0  0  0  0  0  0  0  0
   59.9150   30.1220   46.7680 C   0  0  0  0  0  0  0  0  0  0  0  0
   59.1790   31.0170   45.8620 C   0  0  0  0  0  0  0  0  0  0  0  0
   59.2280   32.3770   45.9920 C   0  0  0  0  0  0  0  0  0  0  0  0
   59.9600   33.0750   47.0380 C   0  0  0  0  0  0  0  0  0  0  0  0
   59.3640   33.6070   48.1630 C   0  0  0  0  0  0  0  0  0  0  0  0
   60.1080   34.2530   49.1390 C   0  0  0  0  0  0  0  0  0  0  0  0
   61.4830   34.3540   48.9500 C   0  0  0  0  0  0  0  0  0  0  0  0
   62.0930   33.8230   47.8200 C   0  0  0  0  0  0  0  0  0  0  0  0
   61.3450   33.1760   46.8480 C   0  0  0  0  0  0  0  0  0  0  0  0
   58.5090   33.1360   45.0670 C   0  0  0  0  0  0  0  0  0  0  0  0
   57.7750   32.5040   44.0590 C   0  0  0  0  0  0  0  0  0  0  0  0
   57.7320   31.1310   43.9370 C   0  0  0  0  0  0  0  0  0  0  0  0
   57.0130   30.4740   42.9480 O   0  0  0  0  0  0  0  0  0  0  0  0
   58.4390   30.3920   44.8460 C   0  0  0  0  0  0  0  0  0  0  0  0
   58.4880   28.9060   44.8530 C   0  0  0  0  0  0  0  0  0  0  0  0
   58.2220   26.1000   47.0780 N   0  0  0  0  0  0  0  0  0  0  0  0
   57.3280   25.1060   47.0980 N   0  0  0  0  0  0  0  0  0  0  0  0
   54.6010   24.4650   47.1220 H   0  0  0  0  0  0  0  0  0  0  0  0
   58.0950   29.7056   47.8531 H   0  0  0  0  0  0  0  0  0  0  0  0
   59.3662   28.4854   48.0840 H   0  0  0  0  0  0  0  0  0  0  0  0
   60.3855   30.7029   47.5749 H   0  0  0  0  0  0  0  0  0  0  0  0
   60.7128   29.5863   46.2328 H   0  0  0  0  0  0  0  0  0  0  0  0
   58.2749   33.5168   48.2885 H   0  0  0  0  0  0  0  0  0  0  0  0
   59.6263   34.6724   50.0345 H   0  0  0  0  0  0  0  0  0  0  0  0
   62.0972   34.8626   49.7077 H   0  0  0  0  0  0  0  0  0  0  0  0
   63.1818   33.9170   47.6951 H   0  0  0  0  0  0  0  0  0  0  0  0
   61.8252   32.7538   45.9529 H   0  0  0  0  0  0  0  0  0  0  0  0
   58.5200   34.2341   45.1314 H   0  0  0  0  0  0  0  0  0  0  0  0
   57.2145   33.1208   43.3411 H   0  0  0  0  0  0  0  0  0  0  0  0
   57.4700   29.8800   42.2530 H   0  0  0  0  0  0  0  0  0  0  0  0
   57.6628   28.5128   44.2411 H   0  0  0  0  0  0  0  0  0  0  0  0
   59.4531   28.5777   44.4396 H   0  0  0  0  0  0  0  0  0  0  0  0
   59.1750   26.0220   47.5050 H   0  0  0  0  0  0  0  0  0  0  0  0
   57.4770   24.1530   47.5370 H   0  0  0  0  0  0  0  0  0  0  0  0
  1  2  2  3
  2  3  1  0
  3  4  2  0
  4  5  1  0
  5  6  1  0
  6  7  1  0
  7  8  1  0
  8  9  2  0
  9 10  1  0
 10 11  2  0
 11 12  1  0
 12 13  2  0
 13 14  1  0
 14 15  2  0
  9 16  1  0
 16 17  2  0
 17 18  1  0
 18 19  1  0
 18 20  2  0
 20 21  1  0
  4 22  1  0
 22 23  1  0
 23  2  1  0
 21  5  1  0
 20  8  1  0
 15 10  1  0
  1 24  1  0
  6 25  1  0
  6 26  1  0
  7 27  1  0
  7 28  1  0
 11 29  1  0
 12 30  1  0
 13 31  1  0
 14 32  1  0
 15 33  1  0
 16 34  1  0
 17 35  1  0
 19 36  1  0
 21 37  1  0
 21 38  1  0
 22 39  1  0
 23 40  1  0
M  END
>  <smiles>  (87) 
N=c1nc(N2CCc3c(-c4ccccc4)ccc(O)c3C2)[nH][nH]1

>  <score_type>  (87) 
oracle

>  <origin>  (87) 
adg

>  <m_score__min__energy>  (87) 
-7.7300000000000004

>  <m_primary>  (87) 
energy

$$$$
87:0
     RDKit          3D

 55 58  0  0  0  0  0  0  0  0999 V2000
   61.8960   31.3390   47.9530 H   0  0  0  0  0  0  0  0  0  0  0  0
   61.1270   30.7320   47.5960 N   0  0  0  0  0  0  0  0  0  0  0  0
   59.8950   30.8410   47.9840 C   0  0  0  0  0  0  0  0  0  0  0  0
   59.4650   32.0890   48.6510 C   0  0  0  0  0  0  0  0  0  0  0  0
   60.1820   32.6920   49.5570 N   0  0  0  0  0  0  0  0  0  0  0  0
   61.1610   33.7280   49.3830 C   0  0  0  0  0  0  0  0  0  0  0  0
   60.8130   34.8860   49.0260 O   0  0  0  0  0  0  0  0  0  0  0  0
   62.5720   33.4520   49.7370 C   0  0  0  0  0  0  0  0  0  0  0  0
   62.9130   33.2930   51.0940 C   0  0  0  0  0  0  0  0  0  0  0  0
   62.1306   33.3672   51.8636 H   0  0  0  0  0  0  0  0  0  0  0  0
   64.2340   33.0420   51.4740 C   0  0  0  0  0  0  0  0  0  0  0  0
   64.4865   32.9278   52.5385 H   0  0  0  0  0  0  0  0  0  0  0  0
   65.2330   32.9360   50.5070 C   0  0  0  0  0  0  0  0  0  0  0  0
   66.2720   32.7368   50.8083 H   0  0  0  0  0  0  0  0  0  0  0  0
   64.9130   33.0830   49.1550 C   0  0  0  0  0  0  0  0  0  0  0  0
   65.7028   32.9951   48.3944 H   0  0  0  0  0  0  0  0  0  0  0  0
   63.5910   33.3420   48.7600 C   0  0  0  0  0  0  0  0  0  0  0  0
   63.2590   33.4550   47.0320 Cl  0  0  0  0  0  0  0  0  0  0  0  0
   58.1530   32.7120   48.2650 C   0  0  0  0  0  0  0  0  0  0  0  0
   57.3882   31.9257   48.1824 H   0  0  0  0  0  0  0  0  0  0  0  0
   57.8622   33.4408   49.0359 H   0  0  0  0  0  0  0  0  0  0  0  0
   58.2800   33.4180   46.9500 C   0  0  0  0  0  0  0  0  0  0  0  0
   59.7160   34.0060   46.3090 S   0  0  0  0  0  0  0  0  0  0  0  0
   59.0720   34.5350   44.8510 C   0  0  0  0  0  0  0  0  0  0  0  0
   59.6295   35.0234   44.0382 H   0  0  0  0  0  0  0  0  0  0  0  0
   57.7150   34.2490   44.8500 C   0  0  0  0  0  0  0  0  0  0  0  0
   57.0484   34.4959   44.0105 H   0  0  0  0  0  0  0  0  0  0  0  0
   57.2740   33.6170   46.0170 C   0  0  0  0  0  0  0  0  0  0  0  0
   56.2308   33.3080   46.1789 H   0  0  0  0  0  0  0  0  0  0  0  0
   58.9430   29.7830   47.7660 N   0  0  0  0  0  0  0  0  0  0  0  0
   57.9790   29.8740   48.1630 H   0  0  0  0  0  0  0  0  0  0  0  0
   59.3000   28.5160   47.2050 C   0  0  0  0  0  0  0  0  0  0  0  0
   60.0590   27.6160   47.9670 C   0  0  0  0  0  0  0  0  0  0  0  0
   60.3474   27.8761   48.9962 H   0  0  0  0  0  0  0  0  0  0  0  0
   60.4500   26.3900   47.4230 C   0  0  0  0  0  0  0  0  0  0  0  0
   61.0481   25.6880   48.0226 H   0  0  0  0  0  0  0  0  0  0  0  0
   60.0810   26.0550   46.1160 C   0  0  0  0  0  0  0  0  0  0  0  0
   60.4013   25.0953   45.6843 H   0  0  0  0  0  0  0  0  0  0  0  0
   59.3070   26.9360   45.3580 C   0  0  0  0  0  0  0  0  0  0  0  0
   59.0120   26.6636   44.3339 H   0  0  0  0  0  0  0  0  0  0  0  0
   58.9030   28.1700   45.8980 C   0  0  0  0  0  0  0  0  0  0  0  0
   58.0310   29.0280   45.1430 N   0  0  0  0  0  0  0  0  0  0  0  0
   58.5960   30.2910   44.6370 C   0  0  0  0  0  0  0  0  0  0  0  0
   58.9507   30.8857   45.4918 H   0  0  0  0  0  0  0  0  0  0  0  0
   59.4172   30.0371   43.9506 H   0  0  0  0  0  0  0  0  0  0  0  0
   57.5700   31.1250   43.8480 C   0  0  0  0  0  0  0  0  0  0  0  0
   57.8891   32.1777   43.8501 H   0  0  0  0  0  0  0  0  0  0  0  0
   57.5225   30.7296   42.8226 H   0  0  0  0  0  0  0  0  0  0  0  0
   56.2820   31.0370   44.4130 O   0  0  0  0  0  0  0  0  0  0  0  0
   55.8070   29.7150   44.2630 C   0  0  0  0  0  0  0  0  0  0  0  0
   54.7404   29.6808   44.5297 H   0  0  0  0  0  0  0  0  0  0  0  0
   55.9459   29.4028   43.2174 H   0  0  0  0  0  0  0  0  0  0  0  0
   56.5850   28.7610   45.1730 C   0  0  0  0  0  0  0  0  0  0  0  0
   56.2231   28.8802   46.2049 H   0  0  0  0  0  0  0  0  0  0  0  0
   56.4211   27.7356   44.8100 H   0  0  0  0  0  0  0  0  0  0  0  0
  1  2  1  0
  2  3  2  0
  3  4  1  0
  4  5  2  0
  5  6  1  0
  6  7  2  0
  6  8  1  0
  8  9  2  0
  9 10  1  0
  9 11  1  0
 11 12  1  0
 11 13  2  0
 13 14  1  0
 13 15  1  0
 15 16  1  0
 15 17  2  0
 17 18  1  0
  4 19  1  0
 19 20  1  0
 19 21  1  0
 19 22  1  0
 22 23  1  0
 23 24  1  0
 24 25  1  0
 24 26  2  0
 26 27  1  0
 26 28  1  0
 28 29  1  0
  3 30  1  0
 30 31  1  0
 30 32  1  0
 32 33  2  0
 33 34  1  0
 33 35  1  0
 35 36  1  0
 35 37  2  0
 37 38  1  0
 37 39  1  0
 39 40  1  0
 39 41  2  0
 41 42  1  0
 42 43  1  0
 43 44  1  0
 43 45  1  0
 43 46  1  0
 46 47  1  0
 46 48  1  0
 46 49  1  0
 49 50  1  0
 50 51  1  0
 50 52  1  0
 50 53  1  0
 53 54  1  0
 53 55  1  0
 17  8  1  0
 28 22  2  0
 41 32  1  0
 53 42  1  0
M  END
>  <UniqueID>  (88) 
80

>  <SMILES>  (88) 
[H]/N=C(Nc1ccccc1N1CCOCC1)/C(Cc1cccs1)=N\C(=O)c1ccccc1Cl

>  <Energy>  (88) 
108.592980958507

>  <Genealogy>  (88) 
[H]/N=C(Nc1ccccc1N1CCOCC1)/C(Cc1cccs1)=N\C(=O)c1ccccc1Cl (cis-trans isomerization)
[H]/N=C(Nc1ccccc1N1CCOCC1)/C(Cc1cccs1)=N\C(=O)c1ccccc1Cl (3D coordinates assigned)
[H]/N=C(Nc1ccccc1N1CCOCC1)/C(Cc1cccs1)=N\C(=O)c1ccccc1Cl (nonaromatic ring conformer: 108.592980958507 kcal/mol)

>  <smiles>  (88) 
N=C(Nc1ccccc1N1CCOCC1)C(Cc1cccs1)=NC(=O)c1ccccc1Cl

>  <score_type>  (88) 
oracle

>  <origin>  (88) 
adg

>  <m_score__min__energy>  (88) 
-8.25

>  <m_primary>  (88) 
energy

$$$$
88:0
     RDKit          3D

 34 36  0  0  0  0  0  0  0  0999 V2000
   55.4740   26.6710   46.0160 O   0  0  0  0  0  0  0  0  0  0  0  0
   56.5170   25.9720   45.8670 C   0  0  0  0  0  0  0  0  0  0  0  0
   56.4230   24.7240   45.2280 C   0  0  0  0  0  0  0  0  0  0  0  0
   55.2030   24.2140   44.7450 C   0  0  0  0  0  0  0  0  0  0  0  0
   55.1640   22.9650   44.1180 C   0  0  0  0  0  0  0  0  0  0  0  0
   56.3330   22.2130   43.9670 C   0  0  0  0  0  0  0  0  0  0  0  0
   56.2760   20.9710   43.3400 O   0  0  0  0  0  0  0  0  0  0  0  0
   57.5500   22.7170   44.4450 C   0  0  0  0  0  0  0  0  0  0  0  0
   57.5950   23.9670   45.0740 C   0  0  0  0  0  0  0  0  0  0  0  0
   58.7700   24.4510   45.5340 N   0  0  0  0  0  0  0  0  0  0  0  0
   58.8590   25.6560   46.1530 C   0  0  0  0  0  0  0  0  0  0  0  0
   60.3480   26.1240   46.6670 S   0  0  0  0  0  0  0  0  0  0  0  0
   57.7300   26.4330   46.3280 N   0  0  0  0  0  0  0  0  0  0  0  0
   57.7730   27.7340   47.0370 C   0  0  0  0  0  0  0  0  0  0  0  0
   58.6810   28.7420   46.3150 C   0  0  0  0  0  0  0  0  0  0  0  0
   57.9580   29.4560   45.2050 C   0  0  0  0  0  0  0  0  0  0  0  0
   57.3040   28.7240   44.1990 C   0  0  0  0  0  0  0  0  0  0  0  0
   56.6690   29.3880   43.1450 C   0  0  0  0  0  0  0  0  0  0  0  0
   56.6870   30.7850   43.0840 C   0  0  0  0  0  0  0  0  0  0  0  0
   57.3420   31.5190   44.0770 C   0  0  0  0  0  0  0  0  0  0  0  0
   57.9760   30.8600   45.1330 C   0  0  0  0  0  0  0  0  0  0  0  0
   54.2788   24.7992   44.8611 H   0  0  0  0  0  0  0  0  0  0  0  0
   54.2082   22.5717   43.7414 H   0  0  0  0  0  0  0  0  0  0  0  0
   57.0060   20.2800   43.4680 H   0  0  0  0  0  0  0  0  0  0  0  0
   58.4721   22.1292   44.3258 H   0  0  0  0  0  0  0  0  0  0  0  0
   56.7542   28.1455   47.0901 H   0  0  0  0  0  0  0  0  0  0  0  0
   58.1808   27.5636   48.0443 H   0  0  0  0  0  0  0  0  0  0  0  0
   59.0363   29.4856   47.0436 H   0  0  0  0  0  0  0  0  0  0  0  0
   59.5210   28.1868   45.8721 H   0  0  0  0  0  0  0  0  0  0  0  0
   57.2917   27.6249   44.2410 H   0  0  0  0  0  0  0  0  0  0  0  0
   56.1545   28.8107   42.3627 H   0  0  0  0  0  0  0  0  0  0  0  0
   56.1859   31.3060   42.2549 H   0  0  0  0  0  0  0  0  0  0  0  0
   57.3582   32.6177   44.0268 H   0  0  0  0  0  0  0  0  0  0  0  0
   58.4914   31.4419   45.9113 H   0  0  0  0  0  0  0  0  0  0  0  0
  1  2  2  0
  2  3  1  0
  3  4  2  0
  4  5  1  0
  5  6  2  0
  6  7  1  0
  6  8  1  0
  8  9  2  0
  9 10  1  0
 10 11  1  0
 11 12  2  0
 11 13  1  0
 13 14  1  0
 14 15  1  0
 15 16  1  0
 16 17  2  0
 17 18  1  0
 18 19  2  0
 19 20  1  0
 20 21  2  0
 13  2  1  0
 21 16  1  0
  9  3  1  0
  4 22  1  0
  5 23  1  0
  7 24  1  0
  8 25  1  0
 14 26  1  0
 14 27  1  0
 15 28  1  0
 15 29  1  0
 17 30  1  0
 18 31  1  0
 19 32  1  0
 20 33  1  0
 21 34  1  0
M  CHG  1  10  -1
M  END
>  <UniqueID>  (89) 
81

>  <SMILES>  (89) 
O=c1c2ccc(O)cc2[n-]c(=S)n1CCc1ccccc1

>  <Energy>  (89) 
43.2200399920037

>  <Genealogy>  (89) 
O=c1c2ccc(O)cc2[n-]c(=S)n1CCc1ccccc1 (protonated)
O=c1c2ccc(O)cc2[n-]c(=S)n1CCc1ccccc1 (3D coordinates assigned)
O=c1c2ccc(O)cc2[n-]c(=S)n1CCc1ccccc1 (optimized conformer: 43.2200399920037 kcal/mol)

>  <smiles>  (89) 
O=c1c2ccc(O)cc2[nH]c(=S)n1CCc1ccccc1

>  <score_type>  (89) 
oracle

>  <origin>  (89) 
adg

>  <m_score__min__energy>  (89) 
-8.9700000000000006

>  <m_primary>  (89) 
energy

$$$$
89:0
     RDKit          3D

 43 45  0  0  0  0  0  0  0  0999 V2000
   54.7850   26.7190   45.0280 H   0  0  0  0  0  0  0  0  0  0  0  0
   54.9000   26.3060   45.9810 N   0  0  0  0  0  0  0  0  0  0  0  0
   56.5620   25.8630   46.1410 S   0  0  0  0  0  0  0  0  0  0  0  0
   56.8740   24.7180   45.2210 O   0  0  0  0  0  0  0  0  0  0  0  0
   56.8260   25.4430   47.5590 O   0  0  0  0  0  0  0  0  0  0  0  0
   57.5730   27.2180   45.7530 N   0  0  0  0  0  0  0  0  0  0  0  0
   58.5420   27.6310   46.5120 C   0  0  0  0  0  0  0  0  0  0  0  0
   58.9360   28.9340   46.4950 N   0  0  0  0  0  0  0  0  0  0  0  0
   59.9430   29.3830   47.2910 C   0  0  0  0  0  0  0  0  0  0  0  0
   60.3460   30.8020   47.1950 C   0  0  0  0  0  0  0  0  0  0  0  0
   59.5180   31.8580   46.9810 N   0  0  0  0  0  0  0  0  0  0  0  0
   58.0730   31.8450   46.7140 C   0  0  0  0  0  0  0  0  0  0  0  0
   57.6129   31.0285   47.2899 H   0  0  0  0  0  0  0  0  0  0  0  0
   57.6641   32.8219   47.0115 H   0  0  0  0  0  0  0  0  0  0  0  0
   57.7690   31.6390   45.2470 C   0  0  0  0  0  0  0  0  0  0  0  0
   57.0780   30.5020   44.7850 C   0  0  0  0  0  0  0  0  0  0  0  0
   56.7230   29.7480   45.5030 H   0  0  0  0  0  0  0  0  0  0  0  0
   56.8410   30.3270   43.4180 C   0  0  0  0  0  0  0  0  0  0  0  0
   56.2910   29.4421   43.0652 H   0  0  0  0  0  0  0  0  0  0  0  0
   57.3010   31.2730   42.5000 C   0  0  0  0  0  0  0  0  0  0  0  0
   57.1114   31.1340   41.4254 H   0  0  0  0  0  0  0  0  0  0  0  0
   58.0020   32.3960   42.9460 C   0  0  0  0  0  0  0  0  0  0  0  0
   58.3664   33.1395   42.2219 H   0  0  0  0  0  0  0  0  0  0  0  0
   58.2410   32.5760   44.3120 C   0  0  0  0  0  0  0  0  0  0  0  0
   58.8022   33.4569   44.6570 H   0  0  0  0  0  0  0  0  0  0  0  0
   60.3310   32.9400   46.9120 C   0  0  0  0  0  0  0  0  0  0  0  0
   59.8880   34.3260   46.5460 C   0  0  0  0  0  0  0  0  0  0  0  0
   59.7027   34.9057   47.4623 H   0  0  0  0  0  0  0  0  0  0  0  0
   60.6738   34.8177   45.9537 H   0  0  0  0  0  0  0  0  0  0  0  0
   58.9627   34.2708   45.9537 H   0  0  0  0  0  0  0  0  0  0  0  0
   61.6380   32.5140   47.0680 C   0  0  0  0  0  0  0  0  0  0  0  0
   62.8810   33.3450   46.9560 C   0  0  0  0  0  0  0  0  0  0  0  0
   62.7649   34.0627   46.1305 H   0  0  0  0  0  0  0  0  0  0  0  0
   63.0391   33.8828   47.9025 H   0  0  0  0  0  0  0  0  0  0  0  0
   63.9900   32.5270   46.7050 O   0  0  0  0  0  0  0  0  0  0  0  0
   64.6410   32.7010   47.4330 H   0  0  0  0  0  0  0  0  0  0  0  0
   61.6410   31.1790   47.2350 N   0  0  0  0  0  0  0  0  0  0  0  0
   62.4760   30.5620   47.3490 H   0  0  0  0  0  0  0  0  0  0  0  0
   60.6140   28.4750   48.1190 C   0  0  0  0  0  0  0  0  0  0  0  0
   61.4527   28.8043   48.7500 H   0  0  0  0  0  0  0  0  0  0  0  0
   60.1970   27.1450   48.1270 C   0  0  0  0  0  0  0  0  0  0  0  0
   60.6986   26.4160   48.7804 H   0  0  0  0  0  0  0  0  0  0  0  0
   59.1720   26.7480   47.3290 N   0  0  0  0  0  0  0  0  0  0  0  0
  1  2  1  0
  2  3  1  0
  3  4  2  0
  3  5  2  0
  3  6  1  0
  6  7  2  0
  7  8  1  0
  8  9  2  0
  9 10  1  0
 10 11  1  0
 11 12  1  0
 12 13  1  0
 12 14  1  0
 12 15  1  0
 15 16  2  0
 16 17  1  0
 16 18  1  0
 18 19  1  0
 18 20  2  0
 20 21  1  0
 20 22  1  0
 22 23  1  0
 22 24  2  0
 24 25  1  0
 11 26  1  0
 26 27  1  0
 27 28  1  0
 27 29  1  0
 27 30  1  0
 26 31  2  0
 31 32  1  0
 32 33  1  0
 32 34  1  0
 32 35  1  0
 35 36  1  0
 31 37  1  0
 37 38  1  0
  9 39  1  0
 39 40  1  0
 39 41  2  0
 41 42  1  0
 41 43  1  0
 43  7  1  0
 37 10  2  0
 24 15  1  0
M  CHG  3   2  -1  37   1  43  -1
M  END
>  <UniqueID>  (90) 
82

>  <SMILES>  (90) 
Cc1c(CO)[nH+]c(-c2cc[n-]/c(=N/S([NH-])(=O)=O)n2)n1Cc1ccccc1

>  <Energy>  (90) 
80.3392881270426

>  <Genealogy>  (90) 
Cc1c(CO)[nH+]c(-c2cc[n-]c(=NS([NH-])(=O)=O)n2)n1Cc1ccccc1 (protonated)
Cc1c(CO)[nH+]c(-c2cc[n-]/c(=N/S([NH-])(=O)=O)n2)n1Cc1ccccc1 (cis-trans isomerization)
Cc1c(CO)[nH+]c(-c2cc[n-]/c(=N/S([NH-])(=O)=O)n2)n1Cc1ccccc1 (3D coordinates assigned)
Cc1c(CO)[nH+]c(-c2cc[n-]/c(=N/S([NH-])(=O)=O)n2)n1Cc1ccccc1 (optimized conformer: 80.3392881270426 kcal/mol)

>  <smiles>  (90) 
Cc1c(CO)nc(-c2cc[nH]c(=NS(N)(=O)=O)n2)n1Cc1ccccc1

>  <score_type>  (90) 
oracle

>  <origin>  (90) 
adg

>  <m_score__min__energy>  (90) 
-11.18

>  <m_primary>  (90) 
energy

$$$$
90:0
     RDKit          3D

 68 73  0  0  0  0  0  0  0  0999 V2000
   59.4560   33.9070   47.8880 O   0  0  0  0  0  0  0  0  0  0  0  0
   60.4160   33.1010   47.7490 C   0  0  0  0  0  0  0  0  0  0  0  0
   60.3360   32.0480   46.7700 N   0  0  0  0  0  0  0  0  0  0  0  0
   59.2400   31.8870   45.8530 C   0  0  0  0  0  0  0  0  0  0  0  0
   58.9410   32.8660   44.8890 C   0  0  0  0  0  0  0  0  0  0  0  0
   57.8720   32.6840   44.0090 C   0  0  0  0  0  0  0  0  0  0  0  0
   57.1070   31.5170   44.0650 C   0  0  0  0  0  0  0  0  0  0  0  0
   57.4200   30.5070   44.9900 C   0  0  0  0  0  0  0  0  0  0  0  0
   56.6090   29.2700   45.0420 C   0  0  0  0  0  0  0  0  0  0  0  0
   55.3590   29.3640   45.1840 O   0  0  0  0  0  0  0  0  0  0  0  0
   57.2120   27.9650   44.9450 N   0  0  0  0  0  0  0  0  0  0  0  0
   56.5950   26.8350   45.6480 C   0  0  0  0  0  0  0  0  0  0  0  0
   57.4300   25.5560   45.4910 C   0  0  0  0  0  0  0  0  0  0  0  0
   57.7920   25.2750   44.0800 N   0  0  0  0  0  0  0  0  0  0  0  0
   56.9000   24.2590   43.4560 C   0  0  0  0  0  0  0  0  0  0  0  0
   57.2950   22.7980   43.6840 C   0  0  0  0  0  0  0  0  0  0  0  0
   55.9730   22.5620   44.4050 C   0  0  0  0  0  0  0  0  0  0  0  0
   55.5770   24.0190   44.1860 C   0  0  0  0  0  0  0  0  0  0  0  0
   58.1470   26.4630   43.2540 C   0  0  0  0  0  0  0  0  0  0  0  0
   58.3790   27.7260   44.0890 C   0  0  0  0  0  0  0  0  0  0  0  0
   58.4880   30.7040   45.8830 C   0  0  0  0  0  0  0  0  0  0  0  0
   61.6100   33.2550   48.6130 C   0  0  0  0  0  0  0  0  0  0  0  0
   61.7370   34.4080   49.4340 C   0  0  0  0  0  0  0  0  0  0  0  0
   62.8560   34.5790   50.2700 C   0  0  0  0  0  0  0  0  0  0  0  0
   63.8210   33.5790   50.2710 C   0  0  0  0  0  0  0  0  0  0  0  0
   64.9500   33.5280   50.9960 N   0  0  0  0  0  0  0  0  0  0  0  0
   65.4820   32.3390   50.6160 C   0  0  0  0  0  0  0  0  0  0  0  0
   66.6040   31.9020   51.1120 N   0  0  0  0  0  0  0  0  0  0  0  0
   67.7650   32.7120   51.5080 C   0  0  0  0  0  0  0  0  0  0  0  0
   67.4640   33.6280   52.6980 C   0  0  0  0  0  0  0  0  0  0  0  0
   68.1540   34.9460   52.3890 C   0  0  0  0  0  0  0  0  0  0  0  0
   68.2040   35.0370   50.8730 C   0  0  0  0  0  0  0  0  0  0  0  0
   68.2840   33.6020   50.3680 C   0  0  0  0  0  0  0  0  0  0  0  0
   64.7490   31.6500   49.6990 N   0  0  0  0  0  0  0  0  0  0  0  0
   63.7030   32.4650   49.5000 C   0  0  0  0  0  0  0  0  0  0  0  0
   62.6150   32.2590   48.6560 C   0  0  0  0  0  0  0  0  0  0  0  0
   61.0850   31.3210   46.7430 H   0  0  0  0  0  0  0  0  0  0  0  0
   59.5516   33.7789   44.8278 H   0  0  0  0  0  0  0  0  0  0  0  0
   57.6318   33.4622   43.2695 H   0  0  0  0  0  0  0  0  0  0  0  0
   56.2550   31.3879   43.3813 H   0  0  0  0  0  0  0  0  0  0  0  0
   56.5128   27.0801   46.7172 H   0  0  0  0  0  0  0  0  0  0  0  0
   55.6012   26.6561   45.2118 H   0  0  0  0  0  0  0  0  0  0  0  0
   58.3551   25.6663   46.0758 H   0  0  0  0  0  0  0  0  0  0  0  0
   56.8182   24.7151   45.8496 H   0  0  0  0  0  0  0  0  0  0  0  0
   56.9074   24.6768   42.4385 H   0  0  0  0  0  0  0  0  0  0  0  0
   57.4141   22.2142   42.7594 H   0  0  0  0  0  0  0  0  0  0  0  0
   58.2496   22.5455   44.1688 H   0  0  0  0  0  0  0  0  0  0  0  0
   55.3130   21.8392   43.9031 H   0  0  0  0  0  0  0  0  0  0  0  0
   55.9657   22.1344   45.4184 H   0  0  0  0  0  0  0  0  0  0  0  0
   54.6846   24.1536   43.5571 H   0  0  0  0  0  0  0  0  0  0  0  0
   55.2833   24.6531   45.0355 H   0  0  0  0  0  0  0  0  0  0  0  0
   59.0674   26.2386   42.6950 H   0  0  0  0  0  0  0  0  0  0  0  0
   57.2977   26.6633   42.5843 H   0  0  0  0  0  0  0  0  0  0  0  0
   59.2729   27.5924   44.7160 H   0  0  0  0  0  0  0  0  0  0  0  0
   58.5267   28.5868   43.4202 H   0  0  0  0  0  0  0  0  0  0  0  0
   58.7366   29.9205   46.6140 H   0  0  0  0  0  0  0  0  0  0  0  0
   60.9504   35.1767   49.4158 H   0  0  0  0  0  0  0  0  0  0  0  0
   62.9632   35.4736   50.9011 H   0  0  0  0  0  0  0  0  0  0  0  0
   68.5309   31.9725   51.7847 H   0  0  0  0  0  0  0  0  0  0  0  0
   66.3792   33.7782   52.8013 H   0  0  0  0  0  0  0  0  0  0  0  0
   67.8219   33.1949   53.6437 H   0  0  0  0  0  0  0  0  0  0  0  0
   67.5795   35.7867   52.8052 H   0  0  0  0  0  0  0  0  0  0  0  0
   69.1596   34.9921   52.8324 H   0  0  0  0  0  0  0  0  0  0  0  0
   67.2969   35.5270   50.4895 H   0  0  0  0  0  0  0  0  0  0  0  0
   69.0647   35.6319   50.5335 H   0  0  0  0  0  0  0  0  0  0  0  0
   67.6568   33.4781   49.4728 H   0  0  0  0  0  0  0  0  0  0  0  0
   69.3138   33.3338   50.0896 H   0  0  0  0  0  0  0  0  0  0  0  0
   62.5387   31.3500   48.0413 H   0  0  0  0  0  0  0  0  0  0  0  0
  1  2  2  0
  2  3  1  0
  3  4  1  0
  4  5  2  0
  5  6  1  0
  6  7  2  0
  7  8  1  0
  8  9  1  0
  9 10  2  0
  9 11  1  0
 11 12  1  0
 12 13  1  0
 13 14  1  0
 14 15  1  0
 15 16  1  0
 16 17  1  0
 17 18  1  0
 14 19  1  0
 19 20  1  0
  8 21  2  0
  2 22  1  0
 22 23  2  0
 23 24  1  0
 24 25  2  0
 25 26  1  0
 26 27  1  0
 27 28  2  3
 28 29  1  0
 29 30  1  0
 30 31  1  0
 31 32  1  0
 32 33  1  0
 27 34  1  0
 34 35  1  0
 35 36  2  0
 21  4  1  0
 36 22  1  0
 20 11  1  0
 35 25  1  0
 18 15  1  0
 33 29  1  0
  3 37  1  0
  5 38  1  0
  6 39  1  0
  7 40  1  0
 12 41  1  0
 12 42  1  0
 13 43  1  0
 13 44  1  0
 15 45  1  0
 16 46  1  0
 16 47  1  0
 17 48  1  0
 17 49  1  0
 18 50  1  0
 18 51  1  0
 19 52  1  0
 19 53  1  0
 20 54  1  0
 20 55  1  0
 21 56  1  0
 23 57  1  0
 24 58  1  0
 29 59  1  0
 30 60  1  0
 30 61  1  0
 31 62  1  0
 31 63  1  0
 32 64  1  0
 32 65  1  0
 33 66  1  0
 33 67  1  0
 36 68  1  0
M  CHG  2  26  -1  34  -1
M  END
>  <UniqueID>  (91) 
83

>  <SMILES>  (91) 
O=C(Nc1cccc(C(=O)N2CCN(C3CCC3)CC2)c1)c1ccc2[n-]c(=NC3CCCC3)[n-]c2c1

>  <Energy>  (91) 
194.43662599040073

>  <Genealogy>  (91) 
O=C(Nc1cccc(C(=O)N2CCN(C3CCC3)CC2)c1)c1ccc2[n-]c(=NC3CCCC3)[n-]c2c1 (protonated)
O=C(Nc1cccc(C(=O)N2CCN(C3CCC3)CC2)c1)c1ccc2[n-]c(=NC3CCCC3)[n-]c2c1 (3D coordinates assigned)
O=C(Nc1cccc(C(=O)N2CCN(C3CCC3)CC2)c1)c1ccc2[n-]c(=NC3CCCC3)[n-]c2c1 (nonaromatic ring conformer: 194.43662599040073 kcal/mol)

>  <smiles>  (91) 
O=C(Nc1cccc(C(=O)N2CCN(C3CCC3)CC2)c1)c1ccc2[nH]c(=NC3CCCC3)[nH]c2c1

>  <score_type>  (91) 
oracle

>  <origin>  (91) 
adg

>  <m_score__min__energy>  (91) 
-13.140000000000001

>  <m_primary>  (91) 
energy

$$$$
