0:0
     RDKit          3D

 50 52  0  0  0  0  0  0  0  0999 V2000
   55.1660   28.8540   45.6170 H   0  0  0  0  0  0  0  0  0  0  0  0
   55.2730   29.5750   44.8690 N   0  0  0  0  0  0  0  0  0  0  0  0
   56.9100   29.4980   44.3250 S   0  0  0  0  0  0  0  0  0  0  0  0
   57.0310   28.4610   43.2440 O   0  0  0  0  0  0  0  0  0  0  0  0
   57.3150   30.8310   43.7620 O   0  0  0  0  0  0  0  0  0  0  0  0
   57.9570   29.0790   45.6770 C   0  0  0  0  0  0  0  0  0  0  0  0
   57.6820   27.9490   46.4570 C   0  0  0  0  0  0  0  0  0  0  0  0
   56.8299   27.3015   46.2027 H   0  0  0  0  0  0  0  0  0  0  0  0
   58.4870   27.6410   47.5580 C   0  0  0  0  0  0  0  0  0  0  0  0
   58.2739   26.7445   48.1588 H   0  0  0  0  0  0  0  0  0  0  0  0
   59.5670   28.4720   47.9000 C   0  0  0  0  0  0  0  0  0  0  0  0
   60.4030   28.1640   49.1100 C   0  0  0  0  0  0  0  0  0  0  0  0
   59.7552   28.1428   49.9988 H   0  0  0  0  0  0  0  0  0  0  0  0
   60.8868   27.1872   48.9621 H   0  0  0  0  0  0  0  0  0  0  0  0
   61.4420   29.1740   49.3000 N   0  0  0  0  0  0  0  0  0  0  0  0
   61.5140   30.0810   50.4070 C   0  0  0  0  0  0  0  0  0  0  0  0
   62.4800   29.9870   51.2100 O   0  0  0  0  0  0  0  0  0  0  0  0
   60.5290   31.1610   50.5910 C   0  0  0  0  0  0  0  0  0  0  0  0
   59.2060   30.8060   50.8930 C   0  0  0  0  0  0  0  0  0  0  0  0
   58.9154   29.7452   50.9094 H   0  0  0  0  0  0  0  0  0  0  0  0
   58.2550   31.7900   51.1730 C   0  0  0  0  0  0  0  0  0  0  0  0
   57.2175   31.5035   51.3998 H   0  0  0  0  0  0  0  0  0  0  0  0
   58.6210   33.1360   51.1650 C   0  0  0  0  0  0  0  0  0  0  0  0
   57.8745   33.9094   51.3988 H   0  0  0  0  0  0  0  0  0  0  0  0
   59.9320   33.5030   50.8610 C   0  0  0  0  0  0  0  0  0  0  0  0
   60.2167   34.5655   50.8717 H   0  0  0  0  0  0  0  0  0  0  0  0
   60.8900   32.5310   50.5420 C   0  0  0  0  0  0  0  0  0  0  0  0
   62.2240   32.9700   50.2470 N   0  0  0  0  0  0  0  0  0  0  0  0
   62.8750   32.9180   48.9700 C   0  0  0  0  0  0  0  0  0  0  0  0
   64.0120   32.3840   48.8920 O   0  0  0  0  0  0  0  0  0  0  0  0
   62.2790   33.4920   47.7470 C   0  0  0  0  0  0  0  0  0  0  0  0
   62.7808   33.3166   46.7840 H   0  0  0  0  0  0  0  0  0  0  0  0
   61.1520   34.2180   47.7610 C   0  0  0  0  0  0  0  0  0  0  0  0
   61.1735   35.1981   48.2600 H   0  0  0  0  0  0  0  0  0  0  0  0
   59.8780   33.7770   47.1430 C   0  0  0  0  0  0  0  0  0  0  0  0
   58.9080   33.0350   47.8460 C   0  0  0  0  0  0  0  0  0  0  0  0
   59.0820   32.7657   48.8982 H   0  0  0  0  0  0  0  0  0  0  0  0
   57.7250   32.6390   47.2130 C   0  0  0  0  0  0  0  0  0  0  0  0
   56.9706   32.0659   47.7719 H   0  0  0  0  0  0  0  0  0  0  0  0
   57.4970   32.9680   45.8740 C   0  0  0  0  0  0  0  0  0  0  0  0
   56.3130   32.5670   45.2590 O   0  0  0  0  0  0  0  0  0  0  0  0
   56.0440   31.5920   45.2130 H   0  0  0  0  0  0  0  0  0  0  0  0
   58.4620   33.6930   45.1640 C   0  0  0  0  0  0  0  0  0  0  0  0
   58.2880   33.9515   44.1091 H   0  0  0  0  0  0  0  0  0  0  0  0
   59.6460   34.0890   45.7930 C   0  0  0  0  0  0  0  0  0  0  0  0
   60.4031   34.6501   45.2256 H   0  0  0  0  0  0  0  0  0  0  0  0
   59.8530   29.5910   47.1010 C   0  0  0  0  0  0  0  0  0  0  0  0
   60.7160   30.2293   47.3413 H   0  0  0  0  0  0  0  0  0  0  0  0
   59.0460   29.8970   46.0020 C   0  0  0  0  0  0  0  0  0  0  0  0
   59.2671   30.7838   45.3899 H   0  0  0  0  0  0  0  0  0  0  0  0
  1  2  1  0
  2  3  1  0
  3  4  2  0
  3  5  2  0
  3  6  1  0
  6  7  2  0
  7  8  1  0
  7  9  1  0
  9 10  1  0
  9 11  2  0
 11 12  1  0
 12 13  1  0
 12 14  1  0
 12 15  1  0
 15 16  1  0
 16 17  2  0
 16 18  1  0
 18 19  2  0
 19 20  1  0
 19 21  1  0
 21 22  1  0
 21 23  2  0
 23 24  1  0
 23 25  1  0
 25 26  1  0
 25 27  2  0
 27 28  1  0
 28 29  1  0
 29 30  2  0
 29 31  1  0
 31 32  1  0
 31 33  2  0
 33 34  1  0
 33 35  1  0
 35 36  2  0
 36 37  1  0
 36 38  1  0
 38 39  1  0
 38 40  2  0
 40 41  1  0
 41 42  1  0
 40 43  1  0
 43 44  1  0
 43 45  2  0
 45 46  1  0
 11 47  1  0
 47 48  1  0
 47 49  2  0
 49 50  1  0
 49  6  1  0
 27 18  1  0
 45 35  1  0
M  CHG  3   2  -1  15  -1  28  -1
M  END
>  <UniqueID>  (1) 
1

>  <SMILES>  (1) 
[NH-]S(=O)(=O)c1ccc(C[N-]C(=O)c2ccccc2[N-]C(=O)/C=C/c2ccc(O)cc2)cc1

>  <Energy>  (1) 
64.83458313700963

>  <Genealogy>  (1) 
[NH-]S(=O)(=O)c1ccc(C[N-]C(=O)c2ccccc2[N-]C(=O)C=Cc2ccc(O)cc2)cc1 (protonated)
[NH-]S(=O)(=O)c1ccc(C[N-]C(=O)c2ccccc2[N-]C(=O)/C=C/c2ccc(O)cc2)cc1 (cis-trans isomerization)
[NH-]S(=O)(=O)c1ccc(C[N-]C(=O)c2ccccc2[N-]C(=O)/C=C/c2ccc(O)cc2)cc1 (3D coordinates assigned)
[NH-]S(=O)(=O)c1ccc(C[N-]C(=O)c2ccccc2[N-]C(=O)/C=C/c2ccc(O)cc2)cc1 (optimized conformer: 64.83458313700963 kcal/mol)

>  <smiles>  (1) 
NS(=O)(=O)c1ccc(CNC(=O)c2ccccc2NC(=O)C=Cc2ccc(O)cc2)cc1

>  <score_type>  (1) 
oracle

>  <origin>  (1) 
adg

>  <m_score__min__energy>  (1) 
-13.07

>  <m_primary>  (1) 
energy

$$$$
1:0
     RDKit          3D

 39 41  0  0  0  0  0  0  0  0999 V2000
   57.5200   32.3060   41.3900 C   0  0  0  0  0  0  0  0  0  0  0  0
   57.6200   32.0540   42.8730 C   0  0  0  0  0  0  0  0  0  0  0  0
   58.2640   33.0090   43.6760 C   0  0  0  0  0  0  0  0  0  0  0  0
   58.3920   32.8120   45.0490 C   0  0  0  0  0  0  0  0  0  0  0  0
   57.8560   31.6740   45.6440 C   0  0  0  0  0  0  0  0  0  0  0  0
   57.1870   30.7140   44.8750 C   0  0  0  0  0  0  0  0  0  0  0  0
   56.6080   29.5880   45.5530 N   0  0  0  0  0  0  0  0  0  0  0  0
   57.2080   28.2850   45.6140 C   0  0  0  0  0  0  0  0  0  0  0  0
   58.5500   27.9380   45.6820 C   0  0  0  0  0  0  0  0  0  0  0  0
   59.6940   28.7770   45.4940 N   0  0  0  0  0  0  0  0  0  0  0  0
   60.3970   28.6730   44.4680 O   0  0  0  0  0  0  0  0  0  0  0  0
   60.1500   29.5410   46.5420 O   0  0  0  0  0  0  0  0  0  0  0  0
   58.6320   26.6100   45.9160 N   0  0  0  0  0  0  0  0  0  0  0  0
   57.3820   26.1640   45.9720 N   0  0  0  0  0  0  0  0  0  0  0  0
   57.0440   24.7930   46.2490 C   0  0  0  0  0  0  0  0  0  0  0  0
   56.5620   24.4080   47.5120 C   0  0  0  0  0  0  0  0  0  0  0  0
   56.2240   23.0740   47.7630 C   0  0  0  0  0  0  0  0  0  0  0  0
   56.3560   22.1160   46.7550 C   0  0  0  0  0  0  0  0  0  0  0  0
   56.0270   20.8240   47.0000 F   0  0  0  0  0  0  0  0  0  0  0  0
   56.8190   22.4920   45.4920 C   0  0  0  0  0  0  0  0  0  0  0  0
   57.1570   23.8250   45.2360 C   0  0  0  0  0  0  0  0  0  0  0  0
   56.5150   27.1500   45.7830 N   0  0  0  0  0  0  0  0  0  0  0  0
   55.1560   27.0630   45.9850 O   0  0  0  0  0  0  0  0  0  0  0  0
   57.1220   30.8630   43.4630 C   0  0  0  0  0  0  0  0  0  0  0  0
   56.5370   29.7690   42.5990 C   0  0  0  0  0  0  0  0  0  0  0  0
   57.1194   33.3155   41.2158 H   0  0  0  0  0  0  0  0  0  0  0  0
   58.5186   32.2244   40.9361 H   0  0  0  0  0  0  0  0  0  0  0  0
   56.8490   31.5619   40.9361 H   0  0  0  0  0  0  0  0  0  0  0  0
   58.6714   33.9216   43.2164 H   0  0  0  0  0  0  0  0  0  0  0  0
   58.9177   33.5573   45.6640 H   0  0  0  0  0  0  0  0  0  0  0  0
   57.9589   31.5271   46.7293 H   0  0  0  0  0  0  0  0  0  0  0  0
   55.6780   29.7170   46.0120 H   0  0  0  0  0  0  0  0  0  0  0  0
   56.4500   25.1597   48.3072 H   0  0  0  0  0  0  0  0  0  0  0  0
   55.8536   22.7789   48.7558 H   0  0  0  0  0  0  0  0  0  0  0  0
   56.9180   21.7383   44.6970 H   0  0  0  0  0  0  0  0  0  0  0  0
   57.5130   24.1172   44.2371 H   0  0  0  0  0  0  0  0  0  0  0  0
   56.1156   28.9810   43.2405 H   0  0  0  0  0  0  0  0  0  0  0  0
   55.7428   30.1885   41.9639 H   0  0  0  0  0  0  0  0  0  0  0  0
   57.3269   29.3415   41.9639 H   0  0  0  0  0  0  0  0  0  0  0  0
  1  2  1  0
  2  3  2  0
  3  4  1  0
  4  5  2  0
  5  6  1  0
  6  7  1  0
  7  8  1  0
  8  9  1  0
  9 10  1  0
 10 11  2  0
 10 12  1  0
  9 13  2  0
 13 14  1  0
 14 15  1  0
 15 16  2  0
 16 17  1  0
 17 18  2  0
 18 19  1  0
 18 20  1  0
 20 21  2  0
 14 22  1  0
 22 23  1  0
  6 24  2  0
 24 25  1  0
 24  2  1  0
 22  8  2  0
 21 15  1  0
  1 26  1  0
  1 27  1  0
  1 28  1  0
  3 29  1  0
  4 30  1  0
  5 31  1  0
  7 32  1  0
 16 33  1  0
 17 34  1  0
 20 35  1  0
 21 36  1  0
 25 37  1  0
 25 38  1  0
 25 39  1  0
M  CHG  4  10   1  12  -1  22   1  23  -1
M  END
>  <UniqueID>  (2) 
2

>  <SMILES>  (2) 
Cc1cccc(Nc2c([N+](=O)[O-])nn(-c3ccc(F)cc3)[n+]2[O-])c1C

>  <Energy>  (2) 
95.65902573910756

>  <Genealogy>  (2) 
Cc1cccc(Nc2c([N+](=O)[O-])nn(-c3ccc(F)cc3)[n+]2[O-])c1C (3D coordinates assigned)
Cc1cccc(Nc2c([N+](=O)[O-])nn(-c3ccc(F)cc3)[n+]2[O-])c1C (optimized conformer: 95.65902573910756 kcal/mol)

>  <smiles>  (2) 
Cc1cccc(Nc2c([N+](=O)[O-])nn(-c3ccc(F)cc3)[n+]2[O-])c1C

>  <score_type>  (2) 
oracle

>  <origin>  (2) 
adg

>  <m_score__min__energy>  (2) 
-9.5899999999999999

>  <m_primary>  (2) 
energy

$$$$
2:0
     RDKit          3D

 61 64  0  0  0  0  0  0  0  0999 V2000
   66.3330   31.9440   50.4880 C   0  0  0  0  0  0  0  0  0  0  0  0
   65.0850   31.2620   50.5410 O   0  0  0  0  0  0  0  0  0  0  0  0
   63.9710   31.6740   49.8000 C   0  0  0  0  0  0  0  0  0  0  0  0
   64.1220   32.1490   48.6410 O   0  0  0  0  0  0  0  0  0  0  0  0
   62.5880   31.4670   50.3700 C   0  0  2  0  0  0  0  0  0  0  0  0
   62.4090   32.2300   51.6940 C   0  0  0  0  0  0  0  0  0  0  0  0
   62.4100   30.0290   50.6480 N   0  0  0  0  0  0  0  0  0  0  0  0
   61.3830   29.2970   50.0410 N   0  0  0  0  0  0  0  0  0  0  0  0
   61.1460   27.9770   50.1060 C   0  0  0  0  0  0  0  0  0  0  0  0
   60.0950   27.6210   49.3310 N   0  0  0  0  0  0  0  0  0  0  0  0
   59.6700   28.7810   48.7710 C   0  0  0  0  0  0  0  0  0  0  0  0
   58.6570   28.8220   47.7080 C   0  0  0  0  0  0  0  0  0  0  0  0
   58.2660   29.9390   47.2770 O   0  0  0  0  0  0  0  0  0  0  0  0
   58.0700   27.6040   47.2200 N   0  0  0  0  0  0  0  0  0  0  0  0
   57.0390   27.5410   46.1780 C   0  0  1  0  0  0  0  0  0  0  0  0
   57.6580   27.5830   44.7650 C   0  0  0  0  0  0  0  0  0  0  0  0
   57.5990   28.9710   44.1820 C   0  0  0  0  0  0  0  0  0  0  0  0
   58.5250   29.9480   44.5850 C   0  0  0  0  0  0  0  0  0  0  0  0
   58.4940   31.2260   44.0180 C   0  0  0  0  0  0  0  0  0  0  0  0
   57.5490   31.5320   43.0320 C   0  0  0  0  0  0  0  0  0  0  0  0
   56.6250   30.5660   42.6250 C   0  0  0  0  0  0  0  0  0  0  0  0
   56.6510   29.2890   43.1930 C   0  0  0  0  0  0  0  0  0  0  0  0
   56.1470   26.3450   46.3950 C   0  0  0  0  0  0  0  0  0  0  0  0
   54.8290   26.2970   45.8490 N   0  0  0  0  0  0  0  0  0  0  0  0
   56.5840   25.3580   47.0450 O   0  0  0  0  0  0  0  0  0  0  0  0
   60.4680   29.8160   49.2350 C   0  0  0  0  0  0  0  0  0  0  0  0
   60.3870   31.2290   49.0150 N   0  0  0  0  0  0  0  0  0  0  0  0
   59.0920   31.9220   48.9430 C   0  0  0  0  0  0  0  0  0  0  0  0
   58.5970   32.2280   50.3310 C   0  0  0  0  0  0  0  0  0  0  0  0
   59.0350   33.3800   51.0040 C   0  0  0  0  0  0  0  0  0  0  0  0
   58.6190   33.6300   52.3160 C   0  0  0  0  0  0  0  0  0  0  0  0
   57.7710   32.7290   52.9660 C   0  0  0  0  0  0  0  0  0  0  0  0
   57.3390   31.5750   52.3050 C   0  0  0  0  0  0  0  0  0  0  0  0
   57.7520   31.3220   50.9930 C   0  0  0  0  0  0  0  0  0  0  0  0
   61.5600   31.9920   49.3640 C   0  0  0  0  0  0  0  0  0  0  0  0
   61.7140   33.1430   48.8730 O   0  0  0  0  0  0  0  0  0  0  0  0
   66.6884   32.1382   51.5107 H   0  0  0  0  0  0  0  0  0  0  0  0
   67.0683   31.3223   49.9562 H   0  0  0  0  0  0  0  0  0  0  0  0
   66.2069   32.8986   49.9562 H   0  0  0  0  0  0  0  0  0  0  0  0
   62.5702   31.5430   52.5378 H   0  0  0  0  0  0  0  0  0  0  0  0
   63.1388   33.0514   51.7454 H   0  0  0  0  0  0  0  0  0  0  0  0
   61.3900   32.6411   51.7454 H   0  0  0  0  0  0  0  0  0  0  0  0
   63.0770   29.5420   51.2900 H   0  0  0  0  0  0  0  0  0  0  0  0
   61.7330   27.2725   50.7136 H   0  0  0  0  0  0  0  0  0  0  0  0
   58.3710   26.7000   47.6510 H   0  0  0  0  0  0  0  0  0  0  0  0
   56.4047   28.4365   46.2542 H   0  0  0  0  0  0  0  0  0  0  0  0
   58.7090   27.2639   44.8247 H   0  0  0  0  0  0  0  0  0  0  0  0
   57.0826   26.9084   44.1139 H   0  0  0  0  0  0  0  0  0  0  0  0
   59.2777   29.7065   45.3499 H   0  0  0  0  0  0  0  0  0  0  0  0
   59.2126   31.9910   44.3471 H   0  0  0  0  0  0  0  0  0  0  0  0
   57.5337   32.5335   42.5772 H   0  0  0  0  0  0  0  0  0  0  0  0
   55.8765   30.8107   41.8570 H   0  0  0  0  0  0  0  0  0  0  0  0
   55.9265   28.5291   42.8648 H   0  0  0  0  0  0  0  0  0  0  0  0
   54.0200   26.7140   46.3600 H   0  0  0  0  0  0  0  0  0  0  0  0
   59.2116   32.8612   48.3831 H   0  0  0  0  0  0  0  0  0  0  0  0
   58.3630   31.2752   48.4329 H   0  0  0  0  0  0  0  0  0  0  0  0
   59.7075   34.0882   50.4978 H   0  0  0  0  0  0  0  0  0  0  0  0
   58.9598   34.5370   52.8368 H   0  0  0  0  0  0  0  0  0  0  0  0
   57.4436   32.9276   53.9972 H   0  0  0  0  0  0  0  0  0  0  0  0
   56.6733   30.8651   52.8177 H   0  0  0  0  0  0  0  0  0  0  0  0
   57.4141   30.4107   50.4779 H   0  0  0  0  0  0  0  0  0  0  0  0
  1  2  1  0
  2  3  1  0
  3  4  2  0
  3  5  1  0
  5  6  1  1
  5  7  1  0
  7  8  1  0
  8  9  1  0
  9 10  2  0
 10 11  1  0
 11 12  1  0
 12 13  2  0
 12 14  1  0
 14 15  1  0
 15 16  1  0
 16 17  1  0
 17 18  2  0
 18 19  1  0
 19 20  2  0
 20 21  1  0
 21 22  2  0
 15 23  1  0
 23 24  1  0
 23 25  2  0
 11 26  2  0
 26 27  1  0
 27 28  1  0
 28 29  1  0
 29 30  2  0
 30 31  1  0
 31 32  2  0
 32 33  1  0
 33 34  2  0
 27 35  1  0
 35 36  2  0
 35  5  1  0
 26  8  1  0
 34 29  1  0
 22 17  1  0
  1 37  1  0
  1 38  1  0
  1 39  1  0
  6 40  1  0
  6 41  1  0
  6 42  1  0
  7 43  1  0
  9 44  1  0
 14 45  1  0
 15 46  1  1
 16 47  1  0
 16 48  1  0
 18 49  1  0
 19 50  1  0
 20 51  1  0
 21 52  1  0
 22 53  1  0
 24 54  1  0
 28 55  1  0
 28 56  1  0
 30 57  1  0
 31 58  1  0
 32 59  1  0
 33 60  1  0
 34 61  1  0
M  CHG  1  24  -1
M  END
>  <UniqueID>  (3) 
3

>  <SMILES>  (3) 
COC(=O)[C@]1(C)Nn2cnc(C(=O)N[C@@H](Cc3ccccc3)C([NH-])=O)c2N(Cc2ccccc2)C1=O

>  <Energy>  (3) 
97.95147324510572

>  <Genealogy>  (3) 
COC(=O)C1(C)Nn2cnc(C(=O)NC(Cc3ccccc3)C([NH-])=O)c2N(Cc2ccccc2)C1=O (protonated)
COC(=O)[C@]1(C)Nn2cnc(C(=O)N[C@@H](Cc3ccccc3)C([NH-])=O)c2N(Cc2ccccc2)C1=O (chirality)
COC(=O)[C@]1(C)Nn2cnc(C(=O)N[C@@H](Cc3ccccc3)C([NH-])=O)c2N(Cc2ccccc2)C1=O (3D coordinates assigned)
COC(=O)[C@]1(C)Nn2cnc(C(=O)N[C@@H](Cc3ccccc3)C([NH-])=O)c2N(Cc2ccccc2)C1=O (nonaromatic ring conformer: 97.95147324510572 kcal/mol)

>  <smiles>  (3) 
COC(=O)C1(C)Nn2cnc(C(=O)NC(Cc3ccccc3)C(N)=O)c2N(Cc2ccccc2)C1=O

>  <score_type>  (3) 
oracle

>  <origin>  (3) 
adg

>  <m_score__min__energy>  (3) 
-12.27

>  <m_primary>  (3) 
energy

$$$$
3:0
     RDKit          3D

 45 48  0  0  0  0  0  0  0  0999 V2000
   57.4360   33.2100   47.6240 O   0  0  0  0  0  0  0  0  0  0  0  0
   58.1750   33.5220   46.6510 C   0  0  0  0  0  0  0  0  0  0  0  0
   59.2470   34.4540   46.8390 N   0  0  0  0  0  0  0  0  0  0  0  0
   60.5710   34.1320   47.2830 C   0  0  0  0  0  0  0  0  0  0  0  0
   61.5960   33.7930   46.3760 C   0  0  0  0  0  0  0  0  0  0  0  0
   62.8700   33.4470   46.8450 C   0  0  0  0  0  0  0  0  0  0  0  0
   63.1250   33.4340   48.2170 C   0  0  0  0  0  0  0  0  0  0  0  0
   62.0980   33.7290   49.1260 C   0  0  0  0  0  0  0  0  0  0  0  0
   60.8280   34.0840   48.6590 C   0  0  0  0  0  0  0  0  0  0  0  0
   62.3660   33.6670   50.4980 O   0  0  0  0  0  0  0  0  0  0  0  0
   63.5650   33.0600   50.9890 C   0  0  0  0  0  0  0  0  0  0  0  0
   64.7450   33.3970   50.0680 C   0  0  0  0  0  0  0  0  0  0  0  0
   64.3990   33.1310   48.7070 O   0  0  0  0  0  0  0  0  0  0  0  0
   57.9820   32.8780   45.3300 C   0  0  0  0  0  0  0  0  0  0  0  0
   58.5030   33.4680   44.1640 C   0  0  0  0  0  0  0  0  0  0  0  0
   58.3370   32.8490   42.9220 C   0  0  0  0  0  0  0  0  0  0  0  0
   57.6590   31.6330   42.8290 C   0  0  0  0  0  0  0  0  0  0  0  0
   57.1390   31.0290   43.9810 C   0  0  0  0  0  0  0  0  0  0  0  0
   56.2850   29.4900   43.8720 S   0  0  0  0  0  0  0  0  0  0  0  0
   57.0050   28.5960   42.8990 O   0  0  0  0  0  0  0  0  0  0  0  0
   54.8760   29.7190   43.4110 O   0  0  0  0  0  0  0  0  0  0  0  0
   56.2810   28.7420   45.4360 N   0  0  0  0  0  0  0  0  0  0  0  0
   56.9070   27.4930   45.7540 C   0  0  0  0  0  0  0  0  0  0  0  0
   58.3010   27.4610   45.8730 C   0  0  0  0  0  0  0  0  0  0  0  0
   58.9610   26.2600   46.1560 C   0  0  0  0  0  0  0  0  0  0  0  0
   58.2260   25.0880   46.3530 C   0  0  0  0  0  0  0  0  0  0  0  0
   56.8320   25.1180   46.2740 C   0  0  0  0  0  0  0  0  0  0  0  0
   56.1650   26.3150   45.9860 C   0  0  0  0  0  0  0  0  0  0  0  0
   54.8090   26.3210   45.9790 F   0  0  0  0  0  0  0  0  0  0  0  0
   57.2950   31.6560   45.2250 C   0  0  0  0  0  0  0  0  0  0  0  0
   61.3943   33.8002   45.2947 H   0  0  0  0  0  0  0  0  0  0  0  0
   63.6674   33.1862   46.1335 H   0  0  0  0  0  0  0  0  0  0  0  0
   60.0286   34.3262   49.3748 H   0  0  0  0  0  0  0  0  0  0  0  0
   63.7748   33.4366   52.0010 H   0  0  0  0  0  0  0  0  0  0  0  0
   63.4302   31.9686   51.0149 H   0  0  0  0  0  0  0  0  0  0  0  0
   64.9989   34.4617   50.1772 H   0  0  0  0  0  0  0  0  0  0  0  0
   65.6082   32.7751   50.3476 H   0  0  0  0  0  0  0  0  0  0  0  0
   59.0447   34.4231   44.2303 H   0  0  0  0  0  0  0  0  0  0  0  0
   58.7420   33.3218   42.0151 H   0  0  0  0  0  0  0  0  0  0  0  0
   57.5327   31.1480   41.8498 H   0  0  0  0  0  0  0  0  0  0  0  0
   58.8818   28.3861   45.7432 H   0  0  0  0  0  0  0  0  0  0  0  0
   60.0587   26.2385   46.2234 H   0  0  0  0  0  0  0  0  0  0  0  0
   58.7449   24.1427   46.5701 H   0  0  0  0  0  0  0  0  0  0  0  0
   56.2548   24.1962   46.4389 H   0  0  0  0  0  0  0  0  0  0  0  0
   56.8759   31.1874   46.1276 H   0  0  0  0  0  0  0  0  0  0  0  0
  1  2  2  0
  2  3  1  0
  3  4  1  0
  4  5  2  0
  5  6  1  0
  6  7  2  0
  7  8  1  0
  8  9  2  0
  8 10  1  0
 10 11  1  0
 11 12  1  0
 12 13  1  0
  2 14  1  0
 14 15  2  0
 15 16  1  0
 16 17  2  0
 17 18  1  0
 18 19  1  0
 19 20  2  0
 19 21  2  0
 19 22  1  0
 22 23  1  0
 23 24  2  0
 24 25  1  0
 25 26  2  0
 26 27  1  0
 27 28  2  0
 28 29  1  0
 18 30  2  0
  9  4  1  0
 30 14  1  0
 13  7  1  0
 28 23  1  0
  5 31  1  0
  6 32  1  0
  9 33  1  0
 11 34  1  0
 11 35  1  0
 12 36  1  0
 12 37  1  0
 15 38  1  0
 16 39  1  0
 17 40  1  0
 24 41  1  0
 25 42  1  0
 26 43  1  0
 27 44  1  0
 30 45  1  0
M  CHG  2   3  -1  22  -1
M  END
>  <UniqueID>  (4) 
4

>  <SMILES>  (4) 
O=C([N-]c1ccc2c(c1)OCCO2)c1cccc(S(=O)(=O)[N-]c2ccccc2F)c1

>  <Energy>  (4) 
62.070564059271575

>  <Genealogy>  (4) 
O=C([N-]c1ccc2c(c1)OCCO2)c1cccc(S(=O)(=O)[N-]c2ccccc2F)c1 (protonated)
O=C([N-]c1ccc2c(c1)OCCO2)c1cccc(S(=O)(=O)[N-]c2ccccc2F)c1 (3D coordinates assigned)
O=C([N-]c1ccc2c(c1)OCCO2)c1cccc(S(=O)(=O)[N-]c2ccccc2F)c1 (nonaromatic ring conformer: 62.070564059271575 kcal/mol)

>  <smiles>  (4) 
O=C(Nc1ccc2c(c1)OCCO2)c1cccc(S(=O)(=O)Nc2ccccc2F)c1

>  <score_type>  (4) 
oracle

>  <origin>  (4) 
adg

>  <m_score__min__energy>  (4) 
-12.130000000000001

>  <m_primary>  (4) 
energy

$$$$
4:0
     RDKit          3D

 60 63  0  0  1  0  0  0  0  0999 V2000
   64.1780   33.0850   48.2220 C   0  0  0  0  0  0  0  0  0  0  0  0
   62.7380   32.8060   47.9260 C   0  0  0  0  0  0  0  0  0  0  0  0
   61.8680   33.8710   47.9820 C   0  0  0  0  0  0  0  0  0  0  0  0
   60.5330   33.6250   47.7010 C   0  0  0  0  0  0  0  0  0  0  0  0
   59.7090   34.6070   47.7440 N   0  0  0  0  0  0  0  0  0  0  0  0
   59.2850   35.2350   46.5040 C   0  0  0  0  0  0  0  0  0  0  0  0
   58.6300   34.0880   45.7580 C   0  0  0  0  0  0  0  0  0  0  0  0
   59.0740   33.7620   44.4980 C   0  0  0  0  0  0  0  0  0  0  0  0
   58.5070   32.7290   43.7810 C   0  0  0  0  0  0  0  0  0  0  0  0
   57.4780   32.0220   44.3590 C   0  0  0  0  0  0  0  0  0  0  0  0
   56.6950   30.6830   43.5310 S   0  0  0  0  0  0  0  0  0  0  0  0
   57.5670   29.2150   43.7310 N   0  0  0  0  0  0  0  0  0  0  0  0
   56.5840   31.0700   42.0810 O   0  0  0  0  0  0  0  0  0  0  0  0
   55.3160   30.4930   44.1020 O   0  0  0  0  0  0  0  0  0  0  0  0
   57.0210   32.3390   45.6260 C   0  0  0  0  0  0  0  0  0  0  0  0
   57.5910   33.3720   46.3380 C   0  0  0  0  0  0  0  0  0  0  0  0
   60.1340   32.3530   47.3860 N   0  0  0  0  0  0  0  0  0  0  0  0
   60.9960   31.3270   47.3370 C   0  0  0  0  0  0  0  0  0  0  0  0
   60.5440   29.9860   46.9670 C   0  0  0  0  0  0  0  0  0  0  0  0
   60.5930   29.5510   45.6630 C   0  0  0  0  0  0  0  0  0  0  0  0
   60.1650   28.2730   45.2850 C   0  0  0  0  0  0  0  0  0  0  0  0
   59.6710   27.3990   46.2340 C   0  0  0  0  0  0  0  0  0  0  0  0
   59.6190   27.8260   47.5390 C   0  0  0  0  0  0  0  0  0  0  0  0
   60.0500   29.1070   47.9040 C   0  0  0  0  0  0  0  0  0  0  0  0
   59.9170   29.4250   49.3240 C   0  0  0  0  0  0  0  0  0  0  0  0
   58.8810   29.1220   49.9590 O   0  0  0  0  0  0  0  0  0  0  0  0
   61.0170   30.0890   49.9330 N   0  0  0  0  0  0  0  0  0  0  0  0
   61.0720   30.4860   51.3180 C   0  0  0  0  0  0  0  0  0  0  0  0
   60.0490   31.5470   51.6090 C   0  0  0  0  0  0  0  0  0  0  0  0
   58.8690   31.1970   52.2740 C   0  0  0  0  0  0  0  0  0  0  0  0
   57.9330   32.1880   52.5540 C   0  0  0  0  0  0  0  0  0  0  0  0
   58.1320   33.5110   52.1960 C   0  0  0  0  0  0  0  0  0  0  0  0
   59.3090   33.8600   51.5320 C   0  0  0  0  0  0  0  0  0  0  0  0
   60.2330   32.8650   51.2580 C   0  0  0  0  0  0  0  0  0  0  0  0
   62.2780   31.5910   47.6100 N   0  0  0  0  0  0  0  0  0  0  0  0
   64.3294   33.1143   49.3111 H   0  0  0  0  0  0  0  0  0  0  0  0
   64.8024   32.2911   47.7862 H   0  0  0  0  0  0  0  0  0  0  0  0
   64.4607   34.0546   47.7862 H   0  0  0  0  0  0  0  0  0  0  0  0
   62.2193   34.8809   48.2404 H   0  0  0  0  0  0  0  0  0  0  0  0
   58.5666   36.0458   46.6951 H   0  0  0  0  0  0  0  0  0  0  0  0
   60.1097   35.7041   45.9474 H   0  0  0  0  0  0  0  0  0  0  0  0
   59.8989   34.3373   44.0524 H   0  0  0  0  0  0  0  0  0  0  0  0
   58.8683   32.4770   42.7730 H   0  0  0  0  0  0  0  0  0  0  0  0
   56.9030   28.4220   43.5700 H   0  0  0  0  0  0  0  0  0  0  0  0
   58.3500   29.1770   43.0640 H   0  0  0  0  0  0  0  0  0  0  0  0
   56.1959   31.7616   46.0685 H   0  0  0  0  0  0  0  0  0  0  0  0
   57.2301   33.6245   47.3460 H   0  0  0  0  0  0  0  0  0  0  0  0
   59.1090   32.2710   47.1940 H   0  0  0  0  0  0  0  0  0  0  0  0
   60.9819   30.2309   44.8906 H   0  0  0  0  0  0  0  0  0  0  0  0
   60.2221   27.9642   44.2308 H   0  0  0  0  0  0  0  0  0  0  0  0
   59.3296   26.3917   45.9534 H   0  0  0  0  0  0  0  0  0  0  0  0
   59.2308   27.1474   48.3128 H   0  0  0  0  0  0  0  0  0  0  0  0
   61.8700   30.3090   49.3300 H   0  0  0  0  0  0  0  0  0  0  0  0
   60.8735   29.6097   51.9526 H   0  0  0  0  0  0  0  0  0  0  0  0
   62.0721   30.8926   51.5292 H   0  0  0  0  0  0  0  0  0  0  0  0
   58.6838   30.1542   52.5711 H   0  0  0  0  0  0  0  0  0  0  0  0
   57.0053   31.9117   53.0765 H   0  0  0  0  0  0  0  0  0  0  0  0
   57.3752   34.2739   52.4310 H   0  0  0  0  0  0  0  0  0  0  0  0
   59.4986   34.9015   51.2331 H   0  0  0  0  0  0  0  0  0  0  0  0
   61.1596   33.1420   50.7340 H   0  0  0  0  0  0  0  0  0  0  0  0
  1  2  1  0
  2  3  2  0
  3  4  1  0
  4  5  2  0
  5  6  1  0
  6  7  1  0
  7  8  2  0
  8  9  1  0
  9 10  2  0
 10 11  1  0
 11 12  1  0
 11 13  2  0
 11 14  2  0
 10 15  1  0
 15 16  2  0
  4 17  1  0
 17 18  1  0
 18 19  1  0
 19 20  2  0
 20 21  1  0
 21 22  2  0
 22 23  1  0
 23 24  2  0
 24 25  1  0
 25 26  2  0
 25 27  1  0
 27 28  1  0
 28 29  1  0
 29 30  2  0
 30 31  1  0
 31 32  2  0
 32 33  1  0
 33 34  2  0
 18 35  2  0
 35  2  1  0
 16  7  1  0
 24 19  1  0
 34 29  1  0
  1 36  1  0
  1 37  1  0
  1 38  1  0
  3 39  1  0
  6 40  1  0
  6 41  1  0
  8 42  1  0
  9 43  1  0
 12 44  1  0
 12 45  1  0
 15 46  1  0
 16 47  1  0
 17 48  1  0
 20 49  1  0
 21 50  1  0
 22 51  1  0
 23 52  1  0
 27 53  1  0
 28 54  1  0
 28 55  1  0
 30 56  1  0
 31 57  1  0
 32 58  1  0
 33 59  1  0
 34 60  1  0
M  END
>  <smiles>  (5) 
Cc1cc(=NCc2ccc(S(N)(=O)=O)cc2)[nH]c(-c2ccccc2C(=O)NCc2ccccc2)n1

>  <score_type>  (5) 
oracle

>  <origin>  (5) 
adg

>  <m_score__min__energy>  (5) 
-10.58

>  <m_primary>  (5) 
energy

$$$$
5:0
     RDKit          3D

 45 47  0  0  0  0  0  0  0  0999 V2000
   61.8790   30.8790   48.5400 O   0  0  0  0  0  0  0  0  0  0  0  0
   61.4060   31.4160   47.5460 C   0  0  0  0  0  0  0  0  0  0  0  0
   61.9270   32.7690   47.1260 C   0  0  0  0  0  0  0  0  0  0  0  0
   60.9970   33.9050   47.5720 C   0  0  0  0  0  0  0  0  0  0  0  0
   59.6870   33.8970   46.8220 C   0  0  0  0  0  0  0  0  0  0  0  0
   58.5030   33.4860   47.4580 C   0  0  0  0  0  0  0  0  0  0  0  0
   57.2990   33.4410   46.7480 C   0  0  0  0  0  0  0  0  0  0  0  0
   57.2660   33.8120   45.4020 C   0  0  0  0  0  0  0  0  0  0  0  0
   58.4370   34.2300   44.7630 C   0  0  0  0  0  0  0  0  0  0  0  0
   59.6420   34.2780   45.4700 C   0  0  0  0  0  0  0  0  0  0  0  0
   60.3620   30.7540   46.7850 N   0  0  0  0  0  0  0  0  0  0  0  0
   59.2460   30.3020   47.6670 C   0  0  0  0  0  0  0  0  0  0  0  0
   59.0170   28.7770   47.6530 C   0  0  0  0  0  0  0  0  0  0  0  0
   58.9530   28.2180   46.2830 N   0  0  0  0  0  0  0  0  0  0  0  0
   57.5830   27.9800   45.7790 C   0  0  0  0  0  0  0  0  0  0  0  0
   57.1090   29.0400   44.8220 C   0  0  0  0  0  0  0  0  0  0  0  0
   57.1090   28.9550   43.4430 C   0  0  0  0  0  0  0  0  0  0  0  0
   56.6110   30.1600   42.9960 C   0  0  0  0  0  0  0  0  0  0  0  0
   56.3340   30.9020   44.1260 C   0  0  0  0  0  0  0  0  0  0  0  0
   56.6400   30.2080   45.1980 O   0  0  0  0  0  0  0  0  0  0  0  0
   59.8410   28.8650   45.2910 C   0  0  0  0  0  0  0  0  0  0  0  0
   60.9510   29.6740   45.9680 C   0  0  0  0  0  0  0  0  0  0  0  0
   62.9185   32.9237   47.5767 H   0  0  0  0  0  0  0  0  0  0  0  0
   61.9831   32.7863   46.0276 H   0  0  0  0  0  0  0  0  0  0  0  0
   60.7907   33.7927   48.6466 H   0  0  0  0  0  0  0  0  0  0  0  0
   61.5023   34.8585   47.3590 H   0  0  0  0  0  0  0  0  0  0  0  0
   58.5234   33.1983   48.5195 H   0  0  0  0  0  0  0  0  0  0  0  0
   56.3769   33.1130   47.2502 H   0  0  0  0  0  0  0  0  0  0  0  0
   56.3184   33.7753   44.8445 H   0  0  0  0  0  0  0  0  0  0  0  0
   58.4102   34.5215   43.7027 H   0  0  0  0  0  0  0  0  0  0  0  0
   60.5594   34.6156   44.9657 H   0  0  0  0  0  0  0  0  0  0  0  0
   59.9600   31.4510   46.1140 H   0  0  0  0  0  0  0  0  0  0  0  0
   59.4739   30.6086   48.6985 H   0  0  0  0  0  0  0  0  0  0  0  0
   58.3263   30.7666   47.2818 H   0  0  0  0  0  0  0  0  0  0  0  0
   59.8446   28.2925   48.1918 H   0  0  0  0  0  0  0  0  0  0  0  0
   58.0472   28.5837   48.1348 H   0  0  0  0  0  0  0  0  0  0  0  0
   57.5648   27.0093   45.2619 H   0  0  0  0  0  0  0  0  0  0  0  0
   56.9081   27.9994   46.6474 H   0  0  0  0  0  0  0  0  0  0  0  0
   57.4379   28.1032   42.8296 H   0  0  0  0  0  0  0  0  0  0  0  0
   56.4641   30.4679   41.9502 H   0  0  0  0  0  0  0  0  0  0  0  0
   55.9195   31.9209   44.1284 H   0  0  0  0  0  0  0  0  0  0  0  0
   60.2993   28.0876   44.6621 H   0  0  0  0  0  0  0  0  0  0  0  0
   59.2343   29.5545   44.6856 H   0  0  0  0  0  0  0  0  0  0  0  0
   61.5434   29.0098   46.6145 H   0  0  0  0  0  0  0  0  0  0  0  0
   61.5975   30.1167   45.1960 H   0  0  0  0  0  0  0  0  0  0  0  0
  1  2  2  0
  2  3  1  0
  3  4  1  0
  4  5  1  0
  5  6  2  0
  6  7  1  0
  7  8  2  0
  8  9  1  0
  9 10  2  0
  2 11  1  0
 11 12  1  0
 12 13  1  0
 13 14  1  0
 14 15  1  0
 15 16  1  0
 16 17  2  0
 17 18  1  0
 18 19  2  0
 19 20  1  0
 14 21  1  0
 21 22  1  0
 10  5  1  0
 22 11  1  0
 20 16  1  0
  3 23  1  0
  3 24  1  0
  4 25  1  0
  4 26  1  0
  6 27  1  0
  7 28  1  0
  8 29  1  0
  9 30  1  0
 10 31  1  0
 11 32  1  0
 12 33  1  0
 12 34  1  0
 13 35  1  0
 13 36  1  0
 15 37  1  0
 15 38  1  0
 17 39  1  0
 18 40  1  0
 19 41  1  0
 21 42  1  0
 21 43  1  0
 22 44  1  0
 22 45  1  0
M  CHG  1  11   1
M  END
>  <UniqueID>  (6) 
5

>  <SMILES>  (6) 
O=C(CCc1ccccc1)[NH+]1CCN(Cc2ccco2)CC1

>  <Energy>  (6) 
80.06612337278047

>  <Genealogy>  (6) 
O=C(CCc1ccccc1)[NH+]1CCN(Cc2ccco2)CC1 (protonated)
O=C(CCc1ccccc1)[NH+]1CCN(Cc2ccco2)CC1 (3D coordinates assigned)
O=C(CCc1ccccc1)[NH+]1CCN(Cc2ccco2)CC1 (nonaromatic ring conformer: 80.06612337278047 kcal/mol)

>  <smiles>  (6) 
O=C(CCc1ccccc1)N1CCN(Cc2ccco2)CC1

>  <score_type>  (6) 
oracle

>  <origin>  (6) 
adg

>  <m_score__min__energy>  (6) 
-6.3399999999999999

>  <m_primary>  (6) 
energy

$$$$
6:0
     RDKit          3D

 50 52  0  0  0  0  0  0  0  0999 V2000
   65.3160   33.1090   50.4010 C   0  0  0  0  0  0  0  0  0  0  0  0
   64.0430   33.7390   50.3610 O   0  0  0  0  0  0  0  0  0  0  0  0
   63.2070   33.7670   49.2330 C   0  0  0  0  0  0  0  0  0  0  0  0
   63.7410   33.4060   47.9930 C   0  0  0  0  0  0  0  0  0  0  0  0
   62.9390   33.4090   46.8460 C   0  0  0  0  0  0  0  0  0  0  0  0
   61.5890   33.7680   46.9220 C   0  0  0  0  0  0  0  0  0  0  0  0
   60.7970   33.7170   45.7250 N   0  0  0  0  0  0  0  0  0  0  0  0
   59.0860   33.9990   45.6340 S   0  0  0  0  0  0  0  0  0  0  0  0
   58.4940   34.0210   47.0170 O   0  0  0  0  0  0  0  0  0  0  0  0
   58.8420   35.3410   45.0010 O   0  0  0  0  0  0  0  0  0  0  0  0
   58.3290   32.7580   44.6410 C   0  0  0  0  0  0  0  0  0  0  0  0
   58.2030   32.9320   43.2600 C   0  0  0  0  0  0  0  0  0  0  0  0
   57.5570   31.9630   42.4900 C   0  0  0  0  0  0  0  0  0  0  0  0
   57.0450   30.8090   43.0890 C   0  0  0  0  0  0  0  0  0  0  0  0
   57.1840   30.6060   44.4700 C   0  0  0  0  0  0  0  0  0  0  0  0
   56.6780   29.3660   45.1020 C   0  0  0  0  0  0  0  0  0  0  0  0
   55.5010   28.9740   44.8710 O   0  0  0  0  0  0  0  0  0  0  0  0
   57.5230   28.6050   45.9750 N   0  0  0  0  0  0  0  0  0  0  0  0
   58.6320   27.7820   45.5100 C   0  0  0  0  0  0  0  0  0  0  0  0
   58.1080   26.5410   44.8570 C   0  0  0  0  0  0  0  0  0  0  0  0
   57.9530   26.5150   43.6080 O   0  0  0  0  0  0  0  0  0  0  0  0
   57.6810   25.4470   45.6790 N   0  0  0  0  0  0  0  0  0  0  0  0
   56.4730   24.6710   45.5650 C   0  0  0  0  0  0  0  0  0  0  0  0
   56.4970   23.2800   45.3300 C   0  0  0  0  0  0  0  0  0  0  0  0
   55.3040   22.5610   45.2150 C   0  0  0  0  0  0  0  0  0  0  0  0
   54.0790   23.2120   45.3600 C   0  0  0  0  0  0  0  0  0  0  0  0
   52.8980   22.4940   45.2540 O   0  0  0  0  0  0  0  0  0  0  0  0
   54.0440   24.5860   45.6240 C   0  0  0  0  0  0  0  0  0  0  0  0
   55.2300   25.3150   45.7300 C   0  0  0  0  0  0  0  0  0  0  0  0
   55.1490   26.6840   45.9880 O   0  0  0  0  0  0  0  0  0  0  0  0
   57.8260   31.5930   45.2420 C   0  0  0  0  0  0  0  0  0  0  0  0
   61.0550   34.1440   48.1640 C   0  0  0  0  0  0  0  0  0  0  0  0
   61.8530   34.1370   49.3110 C   0  0  0  0  0  0  0  0  0  0  0  0
   65.6183   32.9594   51.4480 H   0  0  0  0  0  0  0  0  0  0  0  0
   65.2592   32.1350   49.8930 H   0  0  0  0  0  0  0  0  0  0  0  0
   66.0560   33.7449   49.8930 H   0  0  0  0  0  0  0  0  0  0  0  0
   64.7998   33.1173   47.9179 H   0  0  0  0  0  0  0  0  0  0  0  0
   63.3741   33.1265   45.8760 H   0  0  0  0  0  0  0  0  0  0  0  0
   58.6129   33.8327   42.7796 H   0  0  0  0  0  0  0  0  0  0  0  0
   57.4504   32.1089   41.4049 H   0  0  0  0  0  0  0  0  0  0  0  0
   56.5303   30.0558   42.4744 H   0  0  0  0  0  0  0  0  0  0  0  0
   59.2293   28.3520   44.7831 H   0  0  0  0  0  0  0  0  0  0  0  0
   59.2593   27.5015   46.3690 H   0  0  0  0  0  0  0  0  0  0  0  0
   57.4608   22.7581   45.2367 H   0  0  0  0  0  0  0  0  0  0  0  0
   55.3312   21.4806   45.0099 H   0  0  0  0  0  0  0  0  0  0  0  0
   53.0766   25.0944   45.7487 H   0  0  0  0  0  0  0  0  0  0  0  0
   55.9690   27.2610   46.1190 H   0  0  0  0  0  0  0  0  0  0  0  0
   57.9346   31.4499   46.3272 H   0  0  0  0  0  0  0  0  0  0  0  0
   59.9999   34.4466   48.2352 H   0  0  0  0  0  0  0  0  0  0  0  0
   61.4192   34.4227   50.2807 H   0  0  0  0  0  0  0  0  0  0  0  0
  1  2  1  0
  2  3  1  0
  3  4  2  0
  4  5  1  0
  5  6  2  0
  6  7  1  0
  7  8  1  0
  8  9  2  0
  8 10  2  0
  8 11  1  0
 11 12  2  0
 12 13  1  0
 13 14  2  0
 14 15  1  0
 15 16  1  0
 16 17  2  0
 16 18  1  0
 18 19  1  0
 19 20  1  0
 20 21  2  0
 20 22  1  0
 22 23  1  0
 23 24  2  0
 24 25  1  0
 25 26  2  0
 26 27  1  0
 26 28  1  0
 28 29  2  0
 29 30  1  0
 15 31  2  0
  6 32  1  0
 32 33  2  0
 33  3  1  0
 31 11  1  0
 29 23  1  0
  1 34  1  0
  1 35  1  0
  1 36  1  0
  4 37  1  0
  5 38  1  0
 12 39  1  0
 13 40  1  0
 14 41  1  0
 19 42  1  0
 19 43  1  0
 24 44  1  0
 25 45  1  0
 28 46  1  0
 30 47  1  0
 31 48  1  0
 32 49  1  0
 33 50  1  0
M  CHG  4   7  -1  18  -1  22  -1  27  -1
M  END
>  <UniqueID>  (7) 
6

>  <SMILES>  (7) 
COc1ccc([N-]S(=O)(=O)c2cccc(C(=O)[N-]CC(=O)[N-]c3ccc([O-])cc3O)c2)cc1

>  <Energy>  (7) 
58.57499969772947

>  <Genealogy>  (7) 
COc1ccc([N-]S(=O)(=O)c2cccc(C(=O)[N-]CC(=O)[N-]c3ccc([O-])cc3O)c2)cc1 (protonated)
COc1ccc([N-]S(=O)(=O)c2cccc(C(=O)[N-]CC(=O)[N-]c3ccc([O-])cc3O)c2)cc1 (3D coordinates assigned)
COc1ccc([N-]S(=O)(=O)c2cccc(C(=O)[N-]CC(=O)[N-]c3ccc([O-])cc3O)c2)cc1 (optimized conformer: 58.57499969772947 kcal/mol)

>  <smiles>  (7) 
COc1ccc(NS(=O)(=O)c2cccc(C(=O)NCC(=O)Nc3ccc(O)cc3O)c2)cc1

>  <score_type>  (7) 
oracle

>  <origin>  (7) 
adg

>  <m_score__min__energy>  (7) 
-15.82

>  <m_primary>  (7) 
energy

$$$$
7:0
     RDKit          3D

 39 42  0  0  0  0  0  0  0  0999 V2000
   58.8510   29.0064   44.2124 H   0  0  0  0  0  0  0  0  0  0  0  0
   58.4360   28.9920   45.2310 C   0  0  0  0  0  0  0  0  0  0  0  0
   58.6760   30.0530   46.0290 C   0  0  0  0  0  0  0  0  0  0  0  0
   58.2580   31.4190   45.6140 C   0  0  0  0  0  0  0  0  0  0  0  0
   57.9900   32.3940   46.5920 C   0  0  0  0  0  0  0  0  0  0  0  0
   58.0816   32.1374   47.6577 H   0  0  0  0  0  0  0  0  0  0  0  0
   57.6080   33.6870   46.2200 C   0  0  0  0  0  0  0  0  0  0  0  0
   57.3939   34.4402   46.9926 H   0  0  0  0  0  0  0  0  0  0  0  0
   57.4980   34.0230   44.8690 C   0  0  0  0  0  0  0  0  0  0  0  0
   57.1973   35.0402   44.5777 H   0  0  0  0  0  0  0  0  0  0  0  0
   57.7700   33.0670   43.8880 C   0  0  0  0  0  0  0  0  0  0  0  0
   57.6841   33.3332   42.8241 H   0  0  0  0  0  0  0  0  0  0  0  0
   58.1510   31.7730   44.2540 C   0  0  0  0  0  0  0  0  0  0  0  0
   58.3686   31.0265   43.4760 H   0  0  0  0  0  0  0  0  0  0  0  0
   59.3000   29.8860   47.3150 N   0  0  0  0  0  0  0  0  0  0  0  0
   58.9020   29.0200   48.2770 C   0  0  0  0  0  0  0  0  0  0  0  0
   58.0301   28.3540   48.1979 H   0  0  0  0  0  0  0  0  0  0  0  0
   59.7480   29.0890   49.3790 C   0  0  0  0  0  0  0  0  0  0  0  0
   59.6702   28.5203   50.3174 H   0  0  0  0  0  0  0  0  0  0  0  0
   60.7050   30.0230   49.0430 C   0  0  0  0  0  0  0  0  0  0  0  0
   61.8190   30.4670   49.7530 C   0  0  0  0  0  0  0  0  0  0  0  0
   62.0323   30.0946   50.7658 H   0  0  0  0  0  0  0  0  0  0  0  0
   62.6610   31.4060   49.1330 C   0  0  0  0  0  0  0  0  0  0  0  0
   63.5433   31.7867   49.6684 H   0  0  0  0  0  0  0  0  0  0  0  0
   62.3810   31.8640   47.8260 C   0  0  0  0  0  0  0  0  0  0  0  0
   63.0505   32.5944   47.3482 H   0  0  0  0  0  0  0  0  0  0  0  0
   61.2530   31.3930   47.1320 C   0  0  0  0  0  0  0  0  0  0  0  0
   61.0352   31.7313   46.1082 H   0  0  0  0  0  0  0  0  0  0  0  0
   60.4160   30.4810   47.7830 C   0  0  0  0  0  0  0  0  0  0  0  0
   57.6470   27.8090   45.6450 C   0  0  0  0  0  0  0  0  0  0  0  0
   56.2410   27.8060   45.6150 C   0  0  0  0  0  0  0  0  0  0  0  0
   55.5380   28.9420   45.2280 O   0  0  0  0  0  0  0  0  0  0  0  0
   55.5550   26.6940   45.9920 N   0  0  0  0  0  0  0  0  0  0  0  0
   54.5090   26.7000   45.9540 H   0  0  0  0  0  0  0  0  0  0  0  0
   56.2070   25.5860   46.4340 C   0  0  0  0  0  0  0  0  0  0  0  0
   55.5580   24.5650   46.7800 O   0  0  0  0  0  0  0  0  0  0  0  0
   57.5620   25.5820   46.5100 N   0  0  0  0  0  0  0  0  0  0  0  0
   58.2930   26.6630   46.1370 C   0  0  0  0  0  0  0  0  0  0  0  0
   59.5490   26.6200   46.2230 O   0  0  0  0  0  0  0  0  0  0  0  0
  1  2  1  0
  2  3  2  0
  3  4  1  0
  4  5  2  0
  5  6  1  0
  5  7  1  0
  7  8  1  0
  7  9  2  0
  9 10  1  0
  9 11  1  0
 11 12  1  0
 11 13  2  0
 13 14  1  0
  3 15  1  0
 15 16  1  0
 16 17  1  0
 16 18  2  0
 18 19  1  0
 18 20  1  0
 20 21  2  0
 21 22  1  0
 21 23  1  0
 23 24  1  0
 23 25  2  0
 25 26  1  0
 25 27  1  0
 27 28  1  0
 27 29  2  0
  2 30  1  0
 30 31  2  0
 31 32  1  0
 31 33  1  0
 33 34  1  0
 33 35  1  0
 35 36  2  0
 35 37  1  0
 37 38  1  0
 38 39  2  0
 13  4  1  0
 29 15  1  0
 38 30  1  0
 29 20  1  0
M  CHG  2  32  -1  37  -1
M  END
>  <UniqueID>  (8) 
7

>  <SMILES>  (8) 
O=c1[n-]c(=O)c(/C=C(/c2ccccc2)n2ccc3ccccc32)c([O-])[nH]1

>  <Energy>  (8) 
93.82826034406553

>  <Genealogy>  (8) 
O=c1[n-]c(=O)c(C=C(c2ccccc2)n2ccc3ccccc32)c([O-])[nH]1 (protonated)
O=c1[n-]c(=O)c(/C=C(/c2ccccc2)n2ccc3ccccc32)c([O-])[nH]1 (cis-trans isomerization)
O=c1[n-]c(=O)c(/C=C(/c2ccccc2)n2ccc3ccccc32)c([O-])[nH]1 (3D coordinates assigned)
O=c1[n-]c(=O)c(/C=C(/c2ccccc2)n2ccc3ccccc32)c([O-])[nH]1 (optimized conformer: 93.82826034406553 kcal/mol)

>  <smiles>  (8) 
O=c1[nH]c(O)c(C=C(c2ccccc2)n2ccc3ccccc32)c(=O)[nH]1

>  <score_type>  (8) 
oracle

>  <origin>  (8) 
adg

>  <m_score__min__energy>  (8) 
-13.56

>  <m_primary>  (8) 
energy

$$$$
8:0
     RDKit          3D

 36 37  0  0  0  0  0  0  0  0999 V2000
   60.8270   27.0010   49.7480 N   0  0  0  0  0  0  0  0  0  0  0  0
   60.1330   27.2720   48.1900 S   0  0  0  0  0  0  0  0  0  0  0  0
   58.7940   26.5950   48.1140 O   0  0  0  0  0  0  0  0  0  0  0  0
   61.0280   26.6890   47.1320 O   0  0  0  0  0  0  0  0  0  0  0  0
   59.9440   29.0030   47.9230 C   0  0  0  0  0  0  0  0  0  0  0  0
   60.7440   29.6640   46.9820 C   0  0  0  0  0  0  0  0  0  0  0  0
   60.5860   31.0360   46.7620 C   0  0  0  0  0  0  0  0  0  0  0  0
   59.6090   31.7590   47.4700 C   0  0  0  0  0  0  0  0  0  0  0  0
   59.4260   33.1700   47.2920 N   0  0  0  0  0  0  0  0  0  0  0  0
   58.8310   33.8210   46.1630 C   0  0  0  0  0  0  0  0  0  0  0  0
   59.5220   34.5340   45.3870 O   0  0  0  0  0  0  0  0  0  0  0  0
   57.3910   33.5760   45.8580 C   0  0  0  0  0  0  0  0  0  0  0  0
   57.1840   32.1850   45.6790 O   0  0  0  0  0  0  0  0  0  0  0  0
   56.5920   31.7060   44.5320 N   0  0  0  0  0  0  0  0  0  0  0  0
   57.1330   30.7660   43.8180 C   0  0  0  0  0  0  0  0  0  0  0  0
   57.4670   29.4360   44.3680 C   0  0  0  0  0  0  0  0  0  0  0  0
   58.7930   28.9830   44.2840 C   0  0  0  0  0  0  0  0  0  0  0  0
   59.1470   27.7310   44.7930 C   0  0  0  0  0  0  0  0  0  0  0  0
   58.1760   26.9140   45.3780 C   0  0  0  0  0  0  0  0  0  0  0  0
   56.8480   27.3400   45.4400 C   0  0  0  0  0  0  0  0  0  0  0  0
   56.4840   28.5910   44.9250 C   0  0  0  0  0  0  0  0  0  0  0  0
   55.1460   28.9660   44.9450 O   0  0  0  0  0  0  0  0  0  0  0  0
   58.8240   31.0960   48.4220 C   0  0  0  0  0  0  0  0  0  0  0  0
   58.9820   29.7240   48.6400 C   0  0  0  0  0  0  0  0  0  0  0  0
   60.5870   26.0220   50.0220 H   0  0  0  0  0  0  0  0  0  0  0  0
   61.4995   29.1016   46.4138 H   0  0  0  0  0  0  0  0  0  0  0  0
   61.2281   31.5516   46.0327 H   0  0  0  0  0  0  0  0  0  0  0  0
   56.7714   33.9360   46.6926 H   0  0  0  0  0  0  0  0  0  0  0  0
   57.1104   34.1132   44.9400 H   0  0  0  0  0  0  0  0  0  0  0  0
   57.3518   30.9684   42.7592 H   0  0  0  0  0  0  0  0  0  0  0  0
   59.5585   29.6181   43.8142 H   0  0  0  0  0  0  0  0  0  0  0  0
   60.1905   27.3883   44.7332 H   0  0  0  0  0  0  0  0  0  0  0  0
   58.4584   25.9340   45.7902 H   0  0  0  0  0  0  0  0  0  0  0  0
   56.0849   26.6913   45.8947 H   0  0  0  0  0  0  0  0  0  0  0  0
   58.0779   31.6588   49.0022 H   0  0  0  0  0  0  0  0  0  0  0  0
   58.3483   29.2095   49.3773 H   0  0  0  0  0  0  0  0  0  0  0  0
  1  2  1  0
  2  3  2  0
  2  4  2  0
  2  5  1  0
  5  6  2  0
  6  7  1  0
  7  8  2  0
  8  9  1  0
  9 10  1  0
 10 11  2  0
 10 12  1  0
 12 13  1  0
 13 14  1  0
 14 15  2  3
 15 16  1  0
 16 17  2  0
 17 18  1  0
 18 19  2  0
 19 20  1  0
 20 21  2  0
 21 22  1  0
  8 23  1  0
 23 24  2  0
 24  5  1  0
 21 16  1  0
  1 25  1  0
  6 26  1  0
  7 27  1  0
 12 28  1  0
 12 29  1  0
 15 30  1  0
 17 31  1  0
 18 32  1  0
 19 33  1  0
 20 34  1  0
 23 35  1  0
 24 36  1  0
M  CHG  3   1  -1   9  -1  22  -1
M  END
>  <UniqueID>  (9) 
8

>  <SMILES>  (9) 
[NH-]S(=O)(=O)c1ccc([N-]C(=O)CON=Cc2ccccc2[O-])cc1

>  <Energy>  (9) 
40.85983746913476

>  <Genealogy>  (9) 
[NH-]S(=O)(=O)c1ccc([N-]C(=O)CON=Cc2ccccc2[O-])cc1 (protonated)
[NH-]S(=O)(=O)c1ccc([N-]C(=O)CON=Cc2ccccc2[O-])cc1 (3D coordinates assigned)
[NH-]S(=O)(=O)c1ccc([N-]C(=O)CON=Cc2ccccc2[O-])cc1 (optimized conformer: 40.85983746913476 kcal/mol)

>  <smiles>  (9) 
NS(=O)(=O)c1ccc(NC(=O)CON=Cc2ccccc2O)cc1

>  <score_type>  (9) 
oracle

>  <origin>  (9) 
adg

>  <m_score__min__energy>  (9) 
-13.48

>  <m_primary>  (9) 
energy

$$$$
9:0
     RDKit          3D

 38 40  0  0  0  0  0  0  0  0999 V2000
   65.0930   32.4370   49.9040 C   0  0  0  0  0  0  0  0  0  0  0  0
   64.6190   33.5750   49.1910 O   0  0  0  0  0  0  0  0  0  0  0  0
   63.3270   33.6940   48.6560 C   0  0  0  0  0  0  0  0  0  0  0  0
   62.2360   34.1520   49.4180 C   0  0  0  0  0  0  0  0  0  0  0  0
   60.9650   34.2530   48.8410 C   0  0  0  0  0  0  0  0  0  0  0  0
   60.7680   33.9070   47.4920 C   0  0  0  0  0  0  0  0  0  0  0  0
   59.5100   33.9860   46.8790 O   0  0  0  0  0  0  0  0  0  0  0  0
   58.8710   32.9210   46.2280 C   0  0  0  0  0  0  0  0  0  0  0  0
   58.4180   33.1120   44.9180 C   0  0  0  0  0  0  0  0  0  0  0  0
   57.7790   32.0790   44.2300 C   0  0  0  0  0  0  0  0  0  0  0  0
   57.5710   30.8420   44.8530 C   0  0  0  0  0  0  0  0  0  0  0  0
   56.7470   29.5350   44.0070 S   0  0  0  0  0  0  0  0  0  0  0  0
   57.7710   28.6770   43.3200 O   0  0  0  0  0  0  0  0  0  0  0  0
   55.7980   30.0810   42.9760 O   0  0  0  0  0  0  0  0  0  0  0  0
   55.8600   28.5710   45.1430 N   0  0  0  0  0  0  0  0  0  0  0  0
   56.3080   27.4540   45.6260 C   0  0  0  0  0  0  0  0  0  0  0  0
   55.5200   26.4210   45.9960 N   0  0  0  0  0  0  0  0  0  0  0  0
   56.2570   25.3830   46.4720 C   0  0  0  0  0  0  0  0  0  0  0  0
   57.6330   25.5900   46.4810 C   0  0  0  0  0  0  0  0  0  0  0  0
   57.9370   27.1300   45.8700 S   0  0  0  0  0  0  0  0  0  0  0  0
   57.9980   30.6500   46.1730 C   0  0  0  0  0  0  0  0  0  0  0  0
   58.6420   31.6830   46.8670 C   0  0  0  0  0  0  0  0  0  0  0  0
   59.0090   31.4760   48.2470 C   0  0  0  0  0  0  0  0  0  0  0  0
   59.3030   31.3090   49.3540 N   0  0  0  0  0  0  0  0  0  0  0  0
   61.8520   33.4400   46.7410 C   0  0  0  0  0  0  0  0  0  0  0  0
   63.1230   33.3380   47.3160 C   0  0  0  0  0  0  0  0  0  0  0  0
   64.1610   32.8900   46.5680 F   0  0  0  0  0  0  0  0  0  0  0  0
   65.0154   32.6233   50.9853 H   0  0  0  0  0  0  0  0  0  0  0  0
   64.4858   31.5590   49.6387 H   0  0  0  0  0  0  0  0  0  0  0  0
   66.1440   32.2497   49.6387 H   0  0  0  0  0  0  0  0  0  0  0  0
   62.3829   34.4318   50.4716 H   0  0  0  0  0  0  0  0  0  0  0  0
   60.1159   34.6047   49.4454 H   0  0  0  0  0  0  0  0  0  0  0  0
   58.5667   34.0845   44.4260 H   0  0  0  0  0  0  0  0  0  0  0  0
   57.4381   32.2369   43.1962 H   0  0  0  0  0  0  0  0  0  0  0  0
   55.7990   24.4471   46.8246 H   0  0  0  0  0  0  0  0  0  0  0  0
   58.3911   24.8721   46.8272 H   0  0  0  0  0  0  0  0  0  0  0  0
   57.8268   29.6826   46.6678 H   0  0  0  0  0  0  0  0  0  0  0  0
   61.7036   33.1508   45.6901 H   0  0  0  0  0  0  0  0  0  0  0  0
  1  2  1  0
  2  3  1  0
  3  4  2  0
  4  5  1  0
  5  6  2  0
  6  7  1  0
  7  8  1  0
  8  9  2  0
  9 10  1  0
 10 11  2  0
 11 12  1  0
 12 13  2  0
 12 14  2  0
 12 15  1  0
 15 16  2  3
 16 17  1  0
 17 18  1  0
 18 19  2  0
 19 20  1  0
 11 21  1  0
 21 22  2  0
 22 23  1  0
 23 24  3  0
  6 25  1  0
 25 26  2  0
 26 27  1  0
 26  3  1  0
 22  8  1  0
 20 16  1  0
  1 28  1  0
  1 29  1  0
  1 30  1  0
  4 31  1  0
  5 32  1  0
  9 33  1  0
 10 34  1  0
 18 35  1  0
 19 36  1  0
 21 37  1  0
 25 38  1  0
M  CHG  1  17  -1
M  END
>  <UniqueID>  (10) 
9

>  <SMILES>  (10) 
COc1ccc(Oc2ccc(S(=O)(=O)N=c3[n-]ccs3)cc2C#N)cc1F

>  <Energy>  (10) 
80.47625980052801

>  <Genealogy>  (10) 
COc1ccc(Oc2ccc(S(=O)(=O)N=c3[n-]ccs3)cc2C#N)cc1F (protonated)
COc1ccc(Oc2ccc(S(=O)(=O)N=c3[n-]ccs3)cc2C#N)cc1F (3D coordinates assigned)
COc1ccc(Oc2ccc(S(=O)(=O)N=c3[n-]ccs3)cc2C#N)cc1F (optimized conformer: 80.47625980052801 kcal/mol)

>  <smiles>  (10) 
COc1ccc(Oc2ccc(S(=O)(=O)N=c3[nH]ccs3)cc2C#N)cc1F

>  <score_type>  (10) 
oracle

>  <origin>  (10) 
adg

>  <m_score__min__energy>  (10) 
-9.8599999999999994

>  <m_primary>  (10) 
energy

$$$$
10:0
     RDKit          3D

 54 56  0  0  1  0  0  0  0  0999 V2000
   63.7550   33.4870   46.3780 C   0  0  0  0  0  0  0  0  0  0  0  0
   63.3790   33.0910   47.6940 O   0  0  0  0  0  0  0  0  0  0  0  0
   62.1850   33.5460   48.2300 C   0  0  0  0  0  0  0  0  0  0  0  0
   61.2580   34.1550   47.3830 C   0  0  0  0  0  0  0  0  0  0  0  0
   60.0480   34.6220   47.9020 C   0  0  0  0  0  0  0  0  0  0  0  0
   59.1650   35.1880   47.1690 N   0  0  0  0  0  0  0  0  0  0  0  0
   58.5260   34.3700   45.7810 S   0  0  0  0  0  0  0  0  0  0  0  0
   59.3550   34.6280   44.5520 O   0  0  0  0  0  0  0  0  0  0  0  0
   57.0850   34.7230   45.5450 O   0  0  0  0  0  0  0  0  0  0  0  0
   58.6160   32.6530   46.1470 C   0  0  0  0  0  0  0  0  0  0  0  0
   58.8020   31.7100   45.1470 C   0  0  0  0  0  0  0  0  0  0  0  0
   58.8710   30.3760   45.4440 C   0  0  0  0  0  0  0  0  0  0  0  0
   58.7520   29.9650   46.7720 C   0  0  0  0  0  0  0  0  0  0  0  0
   58.8330   28.5640   47.0090 N   0  0  0  0  0  0  0  0  0  0  0  0
   58.3560   27.5920   46.0810 C   0  0  0  0  0  0  0  0  0  0  0  0
   57.8320   27.9260   44.9920 O   0  0  0  0  0  0  0  0  0  0  0  0
   58.5070   26.2260   46.4600 N   0  0  0  0  0  0  0  0  0  0  0  0
   58.0820   25.1420   45.6450 C   0  0  0  0  0  0  0  0  0  0  0  0
   58.5850   23.8910   45.9260 C   0  0  0  0  0  0  0  0  0  0  0  0
   58.2340   22.7730   45.1920 C   0  0  0  0  0  0  0  0  0  0  0  0
   57.3480   22.9110   44.1390 C   0  0  0  0  0  0  0  0  0  0  0  0
   56.9200   21.4800   43.2270 S   0  0  0  0  0  0  0  0  0  0  0  0
   56.2490   20.2390   44.1910 N   0  0  0  0  0  0  0  0  0  0  0  0
   55.9190   21.8460   42.1620 O   0  0  0  0  0  0  0  0  0  0  0  0
   58.1910   20.9540   42.6220 O   0  0  0  0  0  0  0  0  0  0  0  0
   56.8330   24.1630   43.8440 C   0  0  0  0  0  0  0  0  0  0  0  0
   57.1990   25.2850   44.5960 C   0  0  0  0  0  0  0  0  0  0  0  0
   58.5690   30.8970   47.7600 C   0  0  0  0  0  0  0  0  0  0  0  0
   58.4970   32.2610   47.4710 C   0  0  0  0  0  0  0  0  0  0  0  0
   59.7950   34.4760   49.2130 N   0  0  0  0  0  0  0  0  0  0  0  0
   60.6950   33.8870   50.0210 C   0  0  0  0  0  0  0  0  0  0  0  0
   60.3910   33.7550   51.3870 O   0  0  0  0  0  0  0  0  0  0  0  0
   61.0620   32.7830   52.1660 C   0  0  0  0  0  0  0  0  0  0  0  0
   61.8870   33.4200   49.5450 N   0  0  0  0  0  0  0  0  0  0  0  0
   64.5113   34.2836   46.4368 H   0  0  0  0  0  0  0  0  0  0  0  0
   64.1733   32.6232   45.8406 H   0  0  0  0  0  0  0  0  0  0  0  0
   62.8707   33.8600   45.8406 H   0  0  0  0  0  0  0  0  0  0  0  0
   61.4792   34.2668   46.3113 H   0  0  0  0  0  0  0  0  0  0  0  0
   58.8953   32.0388   44.1014 H   0  0  0  0  0  0  0  0  0  0  0  0
   59.0187   29.6355   44.6441 H   0  0  0  0  0  0  0  0  0  0  0  0
   59.2690   28.2750   47.9160 H   0  0  0  0  0  0  0  0  0  0  0  0
   58.9460   25.9750   47.3730 H   0  0  0  0  0  0  0  0  0  0  0  0
   59.2899   23.7774   46.7628 H   0  0  0  0  0  0  0  0  0  0  0  0
   58.6536   21.7874   45.4421 H   0  0  0  0  0  0  0  0  0  0  0  0
   56.4240   20.4990   45.1970 H   0  0  0  0  0  0  0  0  0  0  0  0
   56.7150   19.3360   44.0400 H   0  0  0  0  0  0  0  0  0  0  0  0
   56.1273   24.2765   43.0079 H   0  0  0  0  0  0  0  0  0  0  0  0
   56.7849   26.2744   44.3517 H   0  0  0  0  0  0  0  0  0  0  0  0
   58.4768   30.5629   48.8040 H   0  0  0  0  0  0  0  0  0  0  0  0
   58.3502   33.0024   48.2703 H   0  0  0  0  0  0  0  0  0  0  0  0
   58.8940   34.8230   49.6020 H   0  0  0  0  0  0  0  0  0  0  0  0
   60.9115   33.0010   53.2336 H   0  0  0  0  0  0  0  0  0  0  0  0
   60.6590   31.7859   51.9350 H   0  0  0  0  0  0  0  0  0  0  0  0
   62.1372   32.8064   51.9350 H   0  0  0  0  0  0  0  0  0  0  0  0
  1  2  1  0
  2  3  1  0
  3  4  2  0
  4  5  1  0
  5  6  2  0
  6  7  1  0
  7  8  2  0
  7  9  2  0
  7 10  1  0
 10 11  2  0
 11 12  1  0
 12 13  2  0
 13 14  1  0
 14 15  1  0
 15 16  2  0
 15 17  1  0
 17 18  1  0
 18 19  2  0
 19 20  1  0
 20 21  2  0
 21 22  1  0
 22 23  1  0
 22 24  2  0
 22 25  2  0
 21 26  1  0
 26 27  2  0
 13 28  1  0
 28 29  2  0
  5 30  1  0
 30 31  1  0
 31 32  1  0
 32 33  1  0
 31 34  2  0
 34  3  1  0
 29 10  1  0
 27 18  1  0
  1 35  1  0
  1 36  1  0
  1 37  1  0
  4 38  1  0
 11 39  1  0
 12 40  1  0
 14 41  1  0
 17 42  1  0
 19 43  1  0
 20 44  1  0
 23 45  1  0
 23 46  1  0
 26 47  1  0
 27 48  1  0
 28 49  1  0
 29 50  1  0
 30 51  1  0
 33 52  1  0
 33 53  1  0
 33 54  1  0
M  END
>  <smiles>  (11) 
COc1cc(=NS(=O)(=O)c2ccc(NC(=O)Nc3ccc(S(N)(=O)=O)cc3)cc2)[nH]c(OC)n1

>  <score_type>  (11) 
oracle

>  <origin>  (11) 
adg

>  <m_score__min__energy>  (11) 
-8.4900000000000002

>  <m_primary>  (11) 
energy

$$$$
11:0
     RDKit          3D

 56 59  0  0  0  0  0  0  0  0999 V2000
   59.5140   35.4760   45.4990 O   0  0  0  0  0  0  0  0  0  0  0  0
   59.4570   34.4310   46.2040 C   0  0  0  0  0  0  0  0  0  0  0  0
   60.2200   34.3800   47.4170 N   0  0  0  0  0  0  0  0  0  0  0  0
   61.4380   33.6490   47.6200 C   0  0  0  0  0  0  0  0  0  0  0  0
   62.5250   33.7860   46.7390 C   0  0  0  0  0  0  0  0  0  0  0  0
   63.7090   33.0770   46.9610 C   0  0  0  0  0  0  0  0  0  0  0  0
   63.8130   32.2220   48.0550 C   0  0  0  0  0  0  0  0  0  0  0  0
   62.7330   32.0650   48.9280 C   0  0  0  0  0  0  0  0  0  0  0  0
   61.5360   32.7590   48.7080 C   0  0  0  0  0  0  0  0  0  0  0  0
   60.4390   32.5960   49.6220 N   0  0  0  0  0  0  0  0  0  0  0  0
   59.7230   31.3080   49.6480 C   0  0  0  0  0  0  0  0  0  0  0  0
   58.4500   31.3270   50.5220 C   0  0  0  0  0  0  0  0  0  0  0  0
   57.9450   32.6350   50.7030 O   0  0  0  0  0  0  0  0  0  0  0  0
   58.9090   33.4060   51.3850 C   0  0  0  0  0  0  0  0  0  0  0  0
   60.0420   33.7550   50.4280 C   0  0  0  0  0  0  0  0  0  0  0  0
   58.6880   33.2650   45.7120 C   0  0  0  0  0  0  0  0  0  0  0  0
   58.0960   33.2960   44.4390 C   0  0  0  0  0  0  0  0  0  0  0  0
   57.4070   32.1820   43.9500 C   0  0  0  0  0  0  0  0  0  0  0  0
   57.3020   31.0210   44.7280 C   0  0  0  0  0  0  0  0  0  0  0  0
   56.4730   29.5960   44.1060 S   0  0  0  0  0  0  0  0  0  0  0  0
   55.4790   29.9950   43.0470 O   0  0  0  0  0  0  0  0  0  0  0  0
   55.7280   28.9330   45.2320 O   0  0  0  0  0  0  0  0  0  0  0  0
   57.6250   28.4750   43.4390 N   0  0  0  0  0  0  0  0  0  0  0  0
   57.9660   27.4590   44.4350 C   0  0  0  0  0  0  0  0  0  0  0  0
   58.8920   28.0460   45.4620 C   0  0  0  0  0  0  0  0  0  0  0  0
   59.9970   28.8180   45.0620 C   0  0  0  0  0  0  0  0  0  0  0  0
   60.8460   29.3870   46.0230 C   0  0  0  0  0  0  0  0  0  0  0  0
   60.5890   29.1990   47.3850 C   0  0  0  0  0  0  0  0  0  0  0  0
   59.4840   28.4420   47.7910 C   0  0  0  0  0  0  0  0  0  0  0  0
   58.6330   27.8710   46.8340 C   0  0  0  0  0  0  0  0  0  0  0  0
   57.8950   30.9830   45.9950 C   0  0  0  0  0  0  0  0  0  0  0  0
   58.5870   32.0940   46.4830 C   0  0  0  0  0  0  0  0  0  0  0  0
   62.4433   34.4552   45.8698 H   0  0  0  0  0  0  0  0  0  0  0  0
   64.5582   33.1945   46.2717 H   0  0  0  0  0  0  0  0  0  0  0  0
   64.7471   31.6690   48.2325 H   0  0  0  0  0  0  0  0  0  0  0  0
   62.8234   31.3921   49.7935 H   0  0  0  0  0  0  0  0  0  0  0  0
   59.4344   31.0495   48.6185 H   0  0  0  0  0  0  0  0  0  0  0  0
   60.4064   30.5673   50.0888 H   0  0  0  0  0  0  0  0  0  0  0  0
   57.6774   30.7133   50.0357 H   0  0  0  0  0  0  0  0  0  0  0  0
   58.7147   30.9276   51.5122 H   0  0  0  0  0  0  0  0  0  0  0  0
   58.4440   34.3308   51.7570 H   0  0  0  0  0  0  0  0  0  0  0  0
   59.3072   32.8316   52.2344 H   0  0  0  0  0  0  0  0  0  0  0  0
   59.7081   34.5600   49.7568 H   0  0  0  0  0  0  0  0  0  0  0  0
   60.9100   34.0765   51.0224 H   0  0  0  0  0  0  0  0  0  0  0  0
   58.1749   34.2033   43.8221 H   0  0  0  0  0  0  0  0  0  0  0  0
   56.9460   32.2169   42.9518 H   0  0  0  0  0  0  0  0  0  0  0  0
   57.1540   28.0000   42.6350 H   0  0  0  0  0  0  0  0  0  0  0  0
   57.0476   27.1085   44.9288 H   0  0  0  0  0  0  0  0  0  0  0  0
   58.4638   26.6139   43.9370 H   0  0  0  0  0  0  0  0  0  0  0  0
   60.1965   28.9763   43.9919 H   0  0  0  0  0  0  0  0  0  0  0  0
   61.7150   29.9818   45.7050 H   0  0  0  0  0  0  0  0  0  0  0  0
   61.2555   29.6462   48.1372 H   0  0  0  0  0  0  0  0  0  0  0  0
   59.2829   28.2948   48.8624 H   0  0  0  0  0  0  0  0  0  0  0  0
   57.7602   27.2844   47.1568 H   0  0  0  0  0  0  0  0  0  0  0  0
   57.8158   30.0741   46.6095 H   0  0  0  0  0  0  0  0  0  0  0  0
   59.0560   32.0522   47.4772 H   0  0  0  0  0  0  0  0  0  0  0  0
  1  2  2  0
  2  3  1  0
  3  4  1  0
  4  5  2  0
  5  6  1  0
  6  7  2  0
  7  8  1  0
  8  9  2  0
  9 10  1  0
 10 11  1  0
 11 12  1  0
 12 13  1  0
 13 14  1  0
 14 15  1  0
  2 16  1  0
 16 17  2  0
 17 18  1  0
 18 19  2  0
 19 20  1  0
 20 21  2  0
 20 22  2  0
 20 23  1  0
 23 24  1  0
 24 25  1  0
 25 26  2  0
 26 27  1  0
 27 28  2  0
 28 29  1  0
 29 30  2  0
 19 31  1  0
 31 32  2  0
  9  4  1  0
 15 10  1  0
 32 16  1  0
 30 25  1  0
  5 33  1  0
  6 34  1  0
  7 35  1  0
  8 36  1  0
 11 37  1  0
 11 38  1  0
 12 39  1  0
 12 40  1  0
 14 41  1  0
 14 42  1  0
 15 43  1  0
 15 44  1  0
 17 45  1  0
 18 46  1  0
 23 47  1  0
 24 48  1  0
 24 49  1  0
 26 50  1  0
 27 51  1  0
 28 52  1  0
 29 53  1  0
 30 54  1  0
 31 55  1  0
 32 56  1  0
M  CHG  1   3  -1
M  END
>  <UniqueID>  (12) 
10

>  <SMILES>  (12) 
O=C([N-]c1ccccc1N1CCOCC1)c1ccc(S(=O)(=O)NCc2ccccc2)cc1

>  <Energy>  (12) 
72.94561990130832

>  <Genealogy>  (12) 
O=C([N-]c1ccccc1N1CCOCC1)c1ccc(S(=O)(=O)NCc2ccccc2)cc1 (protonated)
O=C([N-]c1ccccc1N1CCOCC1)c1ccc(S(=O)(=O)NCc2ccccc2)cc1 (3D coordinates assigned)
O=C([N-]c1ccccc1N1CCOCC1)c1ccc(S(=O)(=O)NCc2ccccc2)cc1 (nonaromatic ring conformer: 72.94561990130832 kcal/mol)

>  <smiles>  (12) 
O=C(Nc1ccccc1N1CCOCC1)c1ccc(S(=O)(=O)NCc2ccccc2)cc1

>  <score_type>  (12) 
oracle

>  <origin>  (12) 
adg

>  <m_score__min__energy>  (12) 
-10.75

>  <m_primary>  (12) 
energy

$$$$
12:0
     RDKit          3D

 64 67  0  0  1  0  0  0  0  0999 V2000
   56.7150   26.6320   46.0030 C   0  0  0  0  0  0  0  0  0  0  0  0
   55.9210   27.7280   45.5920 O   0  0  0  0  0  0  0  0  0  0  0  0
   56.5050   28.9360   45.2500 C   0  0  0  0  0  0  0  0  0  0  0  0
   57.5760   29.4460   45.9680 C   0  0  0  0  0  0  0  0  0  0  0  0
   58.1290   30.6510   45.5960 C   0  0  0  0  0  0  0  0  0  0  0  0
   57.7060   31.4210   44.5510 C   0  0  0  0  0  0  0  0  0  0  0  0
   58.1470   32.7220   44.1510 C   0  0  0  0  0  0  0  0  0  0  0  0
   58.3410   33.7830   44.8660 C   0  0  0  0  0  0  0  0  0  0  0  0
   59.3160   34.0070   45.8970 C   0  0  0  0  0  0  0  0  0  0  0  0
   58.8570   34.0510   47.2000 C   0  0  0  0  0  0  0  0  0  0  0  0
   61.5170   34.1530   46.7910 C   0  0  0  0  0  0  0  0  0  0  0  0
   62.7920   34.2040   46.5940 N   0  0  0  0  0  0  0  0  0  0  0  0
   63.6590   33.0780   46.7380 C   0  0  0  0  0  0  0  0  0  0  0  0
   63.3890   32.4550   48.0770 C   0  0  0  0  0  0  0  0  0  0  0  0
   64.0300   32.9310   49.2000 C   0  0  0  0  0  0  0  0  0  0  0  0
   57.1040   32.0030   52.7530 C   0  0  0  0  0  0  0  0  0  0  0  0
   56.7900   30.8260   52.1040 C   0  0  0  0  0  0  0  0  0  0  0  0
   57.4310   30.4890   50.9750 N   0  0  0  0  0  0  0  0  0  0  0  0
   58.3910   31.2450   50.4140 C   0  0  0  0  0  0  0  0  0  0  0  0
   59.0940   30.8510   49.1550 C   0  0  0  0  0  0  0  0  0  0  0  0
   61.0880   34.1990   48.0650 N   0  0  0  0  0  0  0  0  0  0  0  0
   59.7500   34.1460   48.2340 C   0  0  0  0  0  0  0  0  0  0  0  0
   59.3060   34.1900   49.4380 N   0  0  0  0  0  0  0  0  0  0  0  0
   59.8040   33.2640   50.3990 C   0  0  0  0  0  0  0  0  0  0  0  0
   58.7440   32.4300   51.0180 C   0  0  0  0  0  0  0  0  0  0  0  0
   58.0900   32.7940   52.1890 C   0  0  0  0  0  0  0  0  0  0  0  0
   62.2840   30.8560   49.4560 C   0  0  0  0  0  0  0  0  0  0  0  0
   62.9190   31.3260   50.5850 C   0  0  0  0  0  0  0  0  0  0  0  0
   62.7280   30.8100   51.8520 O   0  0  0  0  0  0  0  0  0  0  0  0
   61.4710   30.2640   52.1980 C   0  0  0  0  0  0  0  0  0  0  0  0
   63.8160   32.3910   50.4560 C   0  0  0  0  0  0  0  0  0  0  0  0
   62.5020   31.3990   48.2090 C   0  0  0  0  0  0  0  0  0  0  0  0
   60.6480   34.0590   45.7420 N   0  0  0  0  0  0  0  0  0  0  0  0
   56.6220   30.8970   43.8280 C   0  0  0  0  0  0  0  0  0  0  0  0
   56.0650   29.6940   44.1920 C   0  0  0  0  0  0  0  0  0  0  0  0
   56.7440   26.5919   47.1019 H   0  0  0  0  0  0  0  0  0  0  0  0
   56.2819   25.6989   45.6134 H   0  0  0  0  0  0  0  0  0  0  0  0
   57.7366   26.7528   45.6134 H   0  0  0  0  0  0  0  0  0  0  0  0
   57.9807   28.8923   46.8280 H   0  0  0  0  0  0  0  0  0  0  0  0
   58.9787   31.0225   46.1876 H   0  0  0  0  0  0  0  0  0  0  0  0
   58.3515   32.8375   43.0764 H   0  0  0  0  0  0  0  0  0  0  0  0
   57.6683   34.6276   44.6559 H   0  0  0  0  0  0  0  0  0  0  0  0
   57.7772   34.0098   47.4060 H   0  0  0  0  0  0  0  0  0  0  0  0
   63.4595   32.3483   45.9394 H   0  0  0  0  0  0  0  0  0  0  0  0
   64.7106   33.3930   46.6673 H   0  0  0  0  0  0  0  0  0  0  0  0
   64.7355   33.7683   49.0946 H   0  0  0  0  0  0  0  0  0  0  0  0
   56.5919   32.3001   53.6801 H   0  0  0  0  0  0  0  0  0  0  0  0
   56.0131   30.1635   52.5132 H   0  0  0  0  0  0  0  0  0  0  0  0
   60.0284   30.3273   49.4053 H   0  0  0  0  0  0  0  0  0  0  0  0
   58.4464   30.1844   48.5666 H   0  0  0  0  0  0  0  0  0  0  0  0
   59.3246   31.7514   48.5666 H   0  0  0  0  0  0  0  0  0  0  0  0
   61.7230   34.2720   48.8920 H   0  0  0  0  0  0  0  0  0  0  0  0
   60.5249   32.5988   49.9013 H   0  0  0  0  0  0  0  0  0  0  0  0
   60.2680   33.8508   51.2055 H   0  0  0  0  0  0  0  0  0  0  0  0
   58.3639   33.7384   52.6821 H   0  0  0  0  0  0  0  0  0  0  0  0
   61.5783   30.0179   49.5540 H   0  0  0  0  0  0  0  0  0  0  0  0
   61.3778   30.2235   53.2933 H   0  0  0  0  0  0  0  0  0  0  0  0
   60.6707   30.8956   51.7850 H   0  0  0  0  0  0  0  0  0  0  0  0
   61.3863   29.2480   51.7850 H   0  0  0  0  0  0  0  0  0  0  0  0
   64.3412   32.7916   51.3356 H   0  0  0  0  0  0  0  0  0  0  0  0
   61.9780   30.9989   47.3284 H   0  0  0  0  0  0  0  0  0  0  0  0
   61.1120   33.9830   44.8150 H   0  0  0  0  0  0  0  0  0  0  0  0
   56.2175   31.4508   42.9679 H   0  0  0  0  0  0  0  0  0  0  0  0
   55.2173   29.3162   43.6015 H   0  0  0  0  0  0  0  0  0  0  0  0
  1  2  1  0
  2  3  1  0
  3  4  2  0
  4  5  1  0
  5  6  2  0
  6  7  1  0
  7  8  2  0
  8  9  1  0
  9 10  2  0
 10 11  1  0
 11 12  2  0
 12 13  1  0
 13 14  1  0
 14 15  2  0
 15 16  1  0
 16 17  2  0
 17 18  1  0
 18 19  2  0
 19 20  1  0
 11 21  1  0
 21 22  1  0
 22 23  2  0
 23 24  1  0
 24 25  1  0
 25 26  2  0
 26 27  1  0
 27 28  2  0
 28 29  1  0
 29 30  1  0
 28 31  1  0
 31 32  2  0
 22 33  1  0
  6 34  1  0
 34 35  2  0
 35  3  1  0
 33  9  1  0
 19 14  1  0
 32 25  1  0
  1 36  1  0
  1 37  1  0
  1 38  1  0
  4 39  1  0
  5 40  1  0
  7 41  1  0
  8 42  1  0
 10 43  1  0
 13 44  1  0
 13 45  1  0
 15 46  1  0
 16 47  1  0
 17 48  1  0
 20 49  1  0
 20 50  1  0
 20 51  1  0
 21 52  1  0
 24 53  1  0
 24 54  1  0
 26 55  1  0
 27 56  1  0
 30 57  1  0
 30 58  1  0
 30 59  1  0
 31 60  1  0
 32 61  1  0
 33 62  1  0
 34 63  1  0
 35 64  1  0
M  END
>  <smiles>  (13) 
COc1ccc(C=Cc2cc(=NCc3cccnc3C)[nH]c(=NCc3ccc(OC)cc3)[nH]2)cc1

>  <score_type>  (13) 
oracle

>  <origin>  (13) 
adg

>  <m_score__min__energy>  (13) 
-9.7400000000000002

>  <m_primary>  (13) 
energy

$$$$
13:0
     RDKit          3D

 33 34  0  0  0  0  0  0  0  0999 V2000
   57.9078   26.9072   43.8849 H   0  0  0  0  0  0  0  0  0  0  0  0
   57.7600   27.4100   44.8520 C   0  0  0  0  0  0  0  0  0  0  0  0
   57.7080   26.6440   45.9620 C   0  0  0  0  0  0  0  0  0  0  0  0
   56.3990   26.1000   46.4160 C   0  0  0  0  0  0  0  0  0  0  0  0
   56.3620   25.0860   47.1660 O   0  0  0  0  0  0  0  0  0  0  0  0
   55.1660   26.7010   46.0130 N   0  0  0  0  0  0  0  0  0  0  0  0
   55.1330   27.4790   45.3190 H   0  0  0  0  0  0  0  0  0  0  0  0
   54.2610   26.3260   46.3750 H   0  0  0  0  0  0  0  0  0  0  0  0
   58.9470   26.3340   46.7680 C   0  0  0  0  0  0  0  0  0  0  0  0
   58.7109   26.3931   47.8407 H   0  0  0  0  0  0  0  0  0  0  0  0
   59.2983   25.3203   46.5252 H   0  0  0  0  0  0  0  0  0  0  0  0
   59.7343   27.0629   46.5252 H   0  0  0  0  0  0  0  0  0  0  0  0
   57.6310   28.8790   44.8550 C   0  0  0  0  0  0  0  0  0  0  0  0
   56.4440   29.5730   44.8930 C   0  0  0  0  0  0  0  0  0  0  0  0
   55.1760   29.0120   44.8050 O   0  0  0  0  0  0  0  0  0  0  0  0
   56.6690   30.8910   45.0500 N   0  0  0  0  0  0  0  0  0  0  0  0
   58.0150   30.9620   45.1230 C   0  0  0  0  0  0  0  0  0  0  0  0
   58.6240   32.0450   45.3290 O   0  0  0  0  0  0  0  0  0  0  0  0
   58.6390   29.7670   44.9920 N   0  0  0  0  0  0  0  0  0  0  0  0
   60.0550   29.4730   45.2480 C   0  0  0  0  0  0  0  0  0  0  0  0
   60.2224   28.3924   45.1288 H   0  0  0  0  0  0  0  0  0  0  0  0
   60.6605   30.0460   44.5303 H   0  0  0  0  0  0  0  0  0  0  0  0
   60.4640   29.8810   46.6420 C   0  0  0  0  0  0  0  0  0  0  0  0
   61.4680   30.8460   46.8350 C   0  0  0  0  0  0  0  0  0  0  0  0
   61.9641   31.3012   45.9651 H   0  0  0  0  0  0  0  0  0  0  0  0
   61.8390   31.2300   48.1270 C   0  0  0  0  0  0  0  0  0  0  0  0
   62.6257   31.9852   48.2712 H   0  0  0  0  0  0  0  0  0  0  0  0
   61.2110   30.6550   49.2360 C   0  0  0  0  0  0  0  0  0  0  0  0
   61.5055   30.9558   50.2523 H   0  0  0  0  0  0  0  0  0  0  0  0
   60.2090   29.6980   49.0530 C   0  0  0  0  0  0  0  0  0  0  0  0
   59.7140   29.2471   49.9258 H   0  0  0  0  0  0  0  0  0  0  0  0
   59.8350   29.3130   47.7620 C   0  0  0  0  0  0  0  0  0  0  0  0
   59.0440   28.5614   47.6227 H   0  0  0  0  0  0  0  0  0  0  0  0
  1  2  1  0
  2  3  2  0
  3  4  1  0
  4  5  2  0
  4  6  1  0
  6  7  1  0
  6  8  1  0
  3  9  1  0
  9 10  1  0
  9 11  1  0
  9 12  1  0
  2 13  1  0
 13 14  2  0
 14 15  1  0
 14 16  1  0
 16 17  1  0
 17 18  2  0
 17 19  1  0
 19 20  1  0
 20 21  1  0
 20 22  1  0
 20 23  1  0
 23 24  2  0
 24 25  1  0
 24 26  1  0
 26 27  1  0
 26 28  2  0
 28 29  1  0
 28 30  1  0
 30 31  1  0
 30 32  2  0
 32 33  1  0
 19 13  1  0
 32 23  1  0
M  CHG  2  15  -1  16  -1
M  END
>  <UniqueID>  (14) 
11

>  <SMILES>  (14) 
C/C(=C\c1c([O-])[n-]c(=O)n1Cc1ccccc1)C(N)=O

>  <Energy>  (14) 
72.70390454903314

>  <Genealogy>  (14) 
CC(=Cc1c([O-])[n-]c(=O)n1Cc1ccccc1)C(N)=O (protonated)
C/C(=C\c1c([O-])[n-]c(=O)n1Cc1ccccc1)C(N)=O (cis-trans isomerization)
C/C(=C\c1c([O-])[n-]c(=O)n1Cc1ccccc1)C(N)=O (3D coordinates assigned)
C/C(=C\c1c([O-])[n-]c(=O)n1Cc1ccccc1)C(N)=O (optimized conformer: 72.70390454903314 kcal/mol)

>  <smiles>  (14) 
CC(=Cc1c(O)[nH]c(=O)n1Cc1ccccc1)C(N)=O

>  <score_type>  (14) 
oracle

>  <origin>  (14) 
adg

>  <m_score__min__energy>  (14) 
-12.77

>  <m_primary>  (14) 
energy

$$$$
14:0
     RDKit          3D

 36 37  0  0  0  0  0  0  0  0999 V2000
   56.9900   27.5300   45.6500 C   0  0  0  0  0  0  0  0  0  0  0  0
   55.9270   28.4430   45.2460 N   0  0  0  0  0  0  0  0  0  0  0  0
   56.4440   29.3790   43.8790 S   0  0  0  0  0  0  0  0  0  0  0  0
   55.2540   29.7510   43.0370 O   0  0  0  0  0  0  0  0  0  0  0  0
   57.3790   28.5550   43.0410 O   0  0  0  0  0  0  0  0  0  0  0  0
   57.2840   30.8320   44.4170 C   0  0  0  0  0  0  0  0  0  0  0  0
   57.4410   31.9260   43.5540 C   0  0  0  0  0  0  0  0  0  0  0  0
   58.0970   33.0810   43.9930 C   0  0  0  0  0  0  0  0  0  0  0  0
   58.5970   33.1550   45.3030 C   0  0  0  0  0  0  0  0  0  0  0  0
   59.3250   34.3840   45.7770 C   0  0  0  0  0  0  0  0  0  0  0  0
   60.6520   34.0250   46.2730 N   0  0  0  0  0  0  0  0  0  0  0  0
   60.9640   34.0000   47.6760 C   0  0  0  0  0  0  0  0  0  0  0  0
   60.0580   34.2140   48.5260 O   0  0  0  0  0  0  0  0  0  0  0  0
   62.3340   33.7240   48.1430 C   0  0  0  0  0  0  0  0  0  0  0  0
   63.4000   33.2950   47.3710 C   0  0  0  0  0  0  0  0  0  0  0  0
   64.4830   33.1320   48.1560 N   0  0  0  0  0  0  0  0  0  0  0  0
   64.1330   33.4560   49.3900 N   0  0  0  0  0  0  0  0  0  0  0  0
   65.0170   33.3430   50.5420 C   0  0  0  0  0  0  0  0  0  0  0  0
   62.8330   33.8080   49.4280 C   0  0  0  0  0  0  0  0  0  0  0  0
   58.4380   32.0580   46.1640 C   0  0  0  0  0  0  0  0  0  0  0  0
   57.7820   30.9060   45.7240 C   0  0  0  0  0  0  0  0  0  0  0  0
   57.0393   27.4876   46.7481 H   0  0  0  0  0  0  0  0  0  0  0  0
   56.7811   26.5255   45.2533 H   0  0  0  0  0  0  0  0  0  0  0  0
   57.9514   27.8882   45.2533 H   0  0  0  0  0  0  0  0  0  0  0  0
   57.0470   31.8759   42.5282 H   0  0  0  0  0  0  0  0  0  0  0  0
   58.2215   33.9340   43.3097 H   0  0  0  0  0  0  0  0  0  0  0  0
   59.4288   35.0902   44.9401 H   0  0  0  0  0  0  0  0  0  0  0  0
   58.7510   34.8491   46.5920 H   0  0  0  0  0  0  0  0  0  0  0  0
   61.3820   33.7720   45.5730 H   0  0  0  0  0  0  0  0  0  0  0  0
   63.3680   33.1153   46.2863 H   0  0  0  0  0  0  0  0  0  0  0  0
   64.4259   33.4186   51.4666 H   0  0  0  0  0  0  0  0  0  0  0  0
   65.5325   32.3716   50.5147 H   0  0  0  0  0  0  0  0  0  0  0  0
   65.7603   34.1534   50.5147 H   0  0  0  0  0  0  0  0  0  0  0  0
   62.2693   34.1088   50.3234 H   0  0  0  0  0  0  0  0  0  0  0  0
   58.8318   32.1057   47.1900 H   0  0  0  0  0  0  0  0  0  0  0  0
   57.6559   30.0530   46.4071 H   0  0  0  0  0  0  0  0  0  0  0  0
  1  2  1  0
  2  3  1  0
  3  4  2  0
  3  5  2  0
  3  6  1  0
  6  7  2  0
  7  8  1  0
  8  9  2  0
  9 10  1  0
 10 11  1  0
 11 12  1  0
 12 13  2  0
 12 14  1  0
 14 15  1  0
 15 16  2  0
 16 17  1  0
 17 18  1  0
 17 19  1  0
  9 20  1  0
 20 21  2  0
 21  6  1  0
 19 14  2  0
  1 22  1  0
  1 23  1  0
  1 24  1  0
  7 25  1  0
  8 26  1  0
 10 27  1  0
 10 28  1  0
 11 29  1  0
 15 30  1  0
 18 31  1  0
 18 32  1  0
 18 33  1  0
 19 34  1  0
 20 35  1  0
 21 36  1  0
M  CHG  1   2  -1
M  END
>  <UniqueID>  (15) 
12

>  <SMILES>  (15) 
C[N-]S(=O)(=O)c1ccc(CNC(=O)c2cnn(C)c2)cc1

>  <Energy>  (15) 
59.96135665098858

>  <Genealogy>  (15) 
C[N-]S(=O)(=O)c1ccc(CNC(=O)c2cnn(C)c2)cc1 (protonated)
C[N-]S(=O)(=O)c1ccc(CNC(=O)c2cnn(C)c2)cc1 (3D coordinates assigned)
C[N-]S(=O)(=O)c1ccc(CNC(=O)c2cnn(C)c2)cc1 (optimized conformer: 59.96135665098858 kcal/mol)

>  <smiles>  (15) 
CNS(=O)(=O)c1ccc(CNC(=O)c2cnn(C)c2)cc1

>  <score_type>  (15) 
oracle

>  <origin>  (15) 
adg

>  <m_score__min__energy>  (15) 
-8.5500000000000007

>  <m_primary>  (15) 
energy

$$$$
15:0
     RDKit          3D

 39 41  0  0  0  0  0  0  0  0999 V2000
   54.6460   26.1350   45.9610 N   0  0  0  0  0  0  0  0  0  0  0  0
   56.2180   25.4180   45.9200 S   0  0  0  0  0  0  0  0  0  0  0  0
   56.2270   24.2840   44.9340 O   0  0  0  0  0  0  0  0  0  0  0  0
   56.5560   24.8760   47.2820 O   0  0  0  0  0  0  0  0  0  0  0  0
   57.4030   26.6280   45.4420 C   0  0  0  0  0  0  0  0  0  0  0  0
   57.8520   26.6960   44.1160 C   0  0  0  0  0  0  0  0  0  0  0  0
   58.8040   27.6490   43.7450 C   0  0  0  0  0  0  0  0  0  0  0  0
   59.3180   28.5340   44.6970 C   0  0  0  0  0  0  0  0  0  0  0  0
   58.8850   28.4660   46.0270 C   0  0  0  0  0  0  0  0  0  0  0  0
   59.5580   29.5670   47.2240 S   0  0  0  0  0  0  0  0  0  0  0  0
   58.5390   29.7920   48.3040 O   0  0  0  0  0  0  0  0  0  0  0  0
   60.8050   28.9930   47.8380 O   0  0  0  0  0  0  0  0  0  0  0  0
   59.9390   31.0840   46.4780 N   0  0  0  0  0  0  0  0  0  0  0  0
   59.8150   32.3780   47.0910 C   0  0  0  0  0  0  0  0  0  0  0  0
   60.5460   32.6970   48.2530 C   0  0  0  0  0  0  0  0  0  0  0  0
   60.4590   33.9660   48.8220 C   0  0  0  0  0  0  0  0  0  0  0  0
   59.6450   34.9360   48.2450 C   0  0  0  0  0  0  0  0  0  0  0  0
   58.9070   34.6390   47.0990 C   0  0  0  0  0  0  0  0  0  0  0  0
   58.9720   33.3610   46.5090 C   0  0  0  0  0  0  0  0  0  0  0  0
   58.1600   33.0930   45.2910 C   0  0  0  0  0  0  0  0  0  0  0  0
   58.4670   33.6630   44.2080 O   0  0  0  0  0  0  0  0  0  0  0  0
   57.0200   32.2160   45.3550 N   0  0  0  0  0  0  0  0  0  0  0  0
   56.6690   31.2990   44.5020 C   0  0  0  0  0  0  0  0  0  0  0  0
   55.7900   30.3260   44.8240 N   0  0  0  0  0  0  0  0  0  0  0  0
   55.5720   29.4760   43.7860 C   0  0  0  0  0  0  0  0  0  0  0  0
   56.2790   29.7670   42.6250 C   0  0  0  0  0  0  0  0  0  0  0  0
   57.2110   31.1370   42.9110 S   0  0  0  0  0  0  0  0  0  0  0  0
   57.9240   27.5130   46.3960 C   0  0  0  0  0  0  0  0  0  0  0  0
   54.7570   27.0880   46.3710 H   0  0  0  0  0  0  0  0  0  0  0  0
   57.4539   25.9973   43.3655 H   0  0  0  0  0  0  0  0  0  0  0  0
   59.1495   27.7029   42.7021 H   0  0  0  0  0  0  0  0  0  0  0  0
   60.0644   29.2857   44.4008 H   0  0  0  0  0  0  0  0  0  0  0  0
   61.1920   31.9363   48.7156 H   0  0  0  0  0  0  0  0  0  0  0  0
   61.0349   34.2015   49.7291 H   0  0  0  0  0  0  0  0  0  0  0  0
   59.5834   35.9386   48.6933 H   0  0  0  0  0  0  0  0  0  0  0  0
   58.2662   35.4123   46.6502 H   0  0  0  0  0  0  0  0  0  0  0  0
   54.8856   28.6196   43.8594 H   0  0  0  0  0  0  0  0  0  0  0  0
   56.2362   29.1999   41.6834 H   0  0  0  0  0  0  0  0  0  0  0  0
   57.5777   27.4600   47.4387 H   0  0  0  0  0  0  0  0  0  0  0  0
  1  2  1  0
  2  3  2  0
  2  4  2  0
  2  5  1  0
  5  6  2  0
  6  7  1  0
  7  8  2  0
  8  9  1  0
  9 10  1  0
 10 11  2  0
 10 12  2  0
 10 13  1  0
 13 14  1  0
 14 15  2  0
 15 16  1  0
 16 17  2  0
 17 18  1  0
 18 19  2  0
 19 20  1  0
 20 21  2  0
 20 22  1  0
 22 23  2  3
 23 24  1  0
 24 25  1  0
 25 26  2  0
 26 27  1  0
  9 28  2  0
 28  5  1  0
 19 14  1  0
 27 23  1  0
  1 29  1  0
  6 30  1  0
  7 31  1  0
  8 32  1  0
 15 33  1  0
 16 34  1  0
 17 35  1  0
 18 36  1  0
 25 37  1  0
 26 38  1  0
 28 39  1  0
M  CHG  3   1  -1  13  -1  24  -1
M  END
>  <UniqueID>  (16) 
13

>  <SMILES>  (16) 
[NH-]S(=O)(=O)c1cccc(S(=O)(=O)[N-]c2ccccc2C(=O)N=c2[n-]ccs2)c1

>  <Energy>  (16) 
81.60917079277155

>  <Genealogy>  (16) 
[NH-]S(=O)(=O)c1cccc(S(=O)(=O)[N-]c2ccccc2C(=O)N=c2[n-]ccs2)c1 (protonated)
[NH-]S(=O)(=O)c1cccc(S(=O)(=O)[N-]c2ccccc2C(=O)N=c2[n-]ccs2)c1 (3D coordinates assigned)
[NH-]S(=O)(=O)c1cccc(S(=O)(=O)[N-]c2ccccc2C(=O)N=c2[n-]ccs2)c1 (optimized conformer: 81.60917079277155 kcal/mol)

>  <smiles>  (16) 
NS(=O)(=O)c1cccc(S(=O)(=O)Nc2ccccc2C(=O)N=c2[nH]ccs2)c1

>  <score_type>  (16) 
oracle

>  <origin>  (16) 
adg

>  <m_score__min__energy>  (16) 
-14.75

>  <m_primary>  (16) 
energy

$$$$
16:0
     RDKit          3D

 31 32  0  0  0  0  0  0  0  0999 V2000
   58.6250   34.6060   44.8630 C   0  0  0  0  0  0  0  0  0  0  0  0
   58.9040   34.2610   46.1230 C   0  0  0  0  0  0  0  0  0  0  0  0
   58.0670   33.2630   46.8630 C   0  0  0  0  0  0  0  0  0  0  0  0
   58.5410   31.9470   46.5900 O   0  0  0  0  0  0  0  0  0  0  0  0
   58.0200   31.1060   45.5950 C   0  0  0  0  0  0  0  0  0  0  0  0
   57.1080   31.5610   44.6250 C   0  0  0  0  0  0  0  0  0  0  0  0
   56.6290   30.6880   43.6480 C   0  0  0  0  0  0  0  0  0  0  0  0
   57.0460   29.3540   43.6310 C   0  0  0  0  0  0  0  0  0  0  0  0
   57.9400   28.8750   44.6010 C   0  0  0  0  0  0  0  0  0  0  0  0
   58.3610   27.4530   44.5370 C   0  0  0  0  0  0  0  0  0  0  0  0
   57.5070   26.4320   44.3900 C   0  0  0  0  0  0  0  0  0  0  0  0
   57.1640   25.5220   45.5000 C   0  0  0  0  0  0  0  0  0  0  0  0
   58.1430   24.3110   46.1550 S   0  0  0  0  0  0  0  0  0  0  0  0
   56.9810   23.8590   47.2820 C   0  0  0  0  0  0  0  0  0  0  0  0
   57.1300   22.9380   48.1250 O   0  0  0  0  0  0  0  0  0  0  0  0
   55.8560   24.5970   47.1890 N   0  0  0  0  0  0  0  0  0  0  0  0
   55.9560   25.5220   46.1980 C   0  0  0  0  0  0  0  0  0  0  0  0
   54.9200   26.4030   45.9100 O   0  0  0  0  0  0  0  0  0  0  0  0
   58.4320   29.7670   45.5740 C   0  0  0  0  0  0  0  0  0  0  0  0
   59.2554   35.3414   44.3417 H   0  0  0  0  0  0  0  0  0  0  0  0
   57.7649   34.1547   44.3468 H   0  0  0  0  0  0  0  0  0  0  0  0
   59.7669   34.7196   46.6281 H   0  0  0  0  0  0  0  0  0  0  0  0
   58.1327   33.4592   47.9434 H   0  0  0  0  0  0  0  0  0  0  0  0
   57.0202   33.3498   46.5365 H   0  0  0  0  0  0  0  0  0  0  0  0
   56.7717   32.6083   44.6371 H   0  0  0  0  0  0  0  0  0  0  0  0
   55.9208   31.0507   42.8885 H   0  0  0  0  0  0  0  0  0  0  0  0
   56.6707   28.6746   42.8516 H   0  0  0  0  0  0  0  0  0  0  0  0
   59.4343   27.2252   44.6146 H   0  0  0  0  0  0  0  0  0  0  0  0
   57.0443   26.2656   43.4060 H   0  0  0  0  0  0  0  0  0  0  0  0
   54.0340   26.3360   46.3950 H   0  0  0  0  0  0  0  0  0  0  0  0
   59.1489   29.4077   46.3270 H   0  0  0  0  0  0  0  0  0  0  0  0
  1  2  2  0
  2  3  1  0
  3  4  1  0
  4  5  1  0
  5  6  2  0
  6  7  1  0
  7  8  2  0
  8  9  1  0
  9 10  1  0
 10 11  2  3
 11 12  1  0
 12 13  1  0
 13 14  1  0
 14 15  2  0
 14 16  1  0
 16 17  1  0
 17 18  1  0
  9 19  2  0
 19  5  1  0
 17 12  2  0
  1 20  1  0
  1 21  1  0
  2 22  1  0
  3 23  1  0
  3 24  1  0
  6 25  1  0
  7 26  1  0
  8 27  1  0
 10 28  1  0
 11 29  1  0
 18 30  1  0
 19 31  1  0
M  CHG  1  16  -1
M  END
>  <UniqueID>  (17) 
14

>  <SMILES>  (17) 
C=CCOc1cccc(C=Cc2sc(=O)[n-]c2O)c1

>  <Energy>  (17) 
60.11210666842893

>  <Genealogy>  (17) 
C=CCOc1cccc(C=Cc2sc(=O)[n-]c2O)c1 (protonated)
C=CCOc1cccc(C=Cc2sc(=O)[n-]c2O)c1 (3D coordinates assigned)
C=CCOc1cccc(C=Cc2sc(=O)[n-]c2O)c1 (optimized conformer: 60.11210666842893 kcal/mol)

>  <smiles>  (17) 
C=CCOc1cccc(C=Cc2sc(=O)[nH]c2O)c1

>  <score_type>  (17) 
oracle

>  <origin>  (17) 
adg

>  <m_score__min__energy>  (17) 
-9.7400000000000002

>  <m_primary>  (17) 
energy

$$$$
17:0
     RDKit          3D

 55 58  0  0  0  0  0  0  0  0999 V2000
   57.0330   31.1880   42.7190 C   0  0  0  0  0  0  0  0  0  0  0  0
   58.0860   32.1230   43.3020 C   0  0  0  0  0  0  0  0  0  0  0  0
   58.4930   31.6840   44.5990 O   0  0  0  0  0  0  0  0  0  0  0  0
   58.8510   32.5160   45.6760 C   0  0  0  0  0  0  0  0  0  0  0  0
   59.0960   33.8930   45.5100 C   0  0  0  0  0  0  0  0  0  0  0  0
   59.4520   34.6750   46.6110 C   0  0  0  0  0  0  0  0  0  0  0  0
   59.6700   35.9070   46.4670 O   0  0  0  0  0  0  0  0  0  0  0  0
   59.5660   34.1120   47.8410 N   0  0  0  0  0  0  0  0  0  0  0  0
   59.3420   32.7870   48.0450 C   0  0  0  0  0  0  0  0  0  0  0  0
   59.4730   32.2510   49.3320 C   0  0  0  0  0  0  0  0  0  0  0  0
   59.2440   30.8850   49.5580 C   0  0  0  0  0  0  0  0  0  0  0  0
   59.4150   30.2980   50.9410 C   0  0  0  0  0  0  0  0  0  0  0  0
   58.4910   30.9110   51.9240 N   0  0  0  0  0  0  0  0  0  0  0  0
   57.2310   31.3610   51.2700 C   0  0  0  0  0  0  0  0  0  0  0  0
   56.0680   31.4400   52.2700 C   0  0  0  0  0  0  0  0  0  0  0  0
   55.7610   30.1190   52.8750 N   0  0  0  0  0  0  0  0  0  0  0  0
   54.6010   29.4790   52.2180 C   0  0  0  0  0  0  0  0  0  0  0  0
   53.4240   30.4190   52.1620 C   0  0  0  0  0  0  0  0  0  0  0  0
   52.7060   30.7350   53.3270 C   0  0  0  0  0  0  0  0  0  0  0  0
   51.6320   31.6290   53.2710 C   0  0  0  0  0  0  0  0  0  0  0  0
   51.2710   32.2180   52.0560 C   0  0  0  0  0  0  0  0  0  0  0  0
   50.2040   33.1060   52.0020 O   0  0  0  0  0  0  0  0  0  0  0  0
   51.9870   31.9130   50.8930 C   0  0  0  0  0  0  0  0  0  0  0  0
   53.0620   31.0200   50.9450 C   0  0  0  0  0  0  0  0  0  0  0  0
   56.9330   29.2070   52.9100 C   0  0  0  0  0  0  0  0  0  0  0  0
   58.2470   29.9860   53.0670 C   0  0  0  0  0  0  0  0  0  0  0  0
   58.8890   30.0580   48.4810 C   0  0  0  0  0  0  0  0  0  0  0  0
   58.7540   30.5860   47.1940 C   0  0  0  0  0  0  0  0  0  0  0  0
   58.9790   31.9550   46.9620 C   0  0  0  0  0  0  0  0  0  0  0  0
   56.4830   30.6997   43.5370 H   0  0  0  0  0  0  0  0  0  0  0  0
   56.3317   31.7664   42.0996 H   0  0  0  0  0  0  0  0  0  0  0  0
   57.5243   30.4232   42.0996 H   0  0  0  0  0  0  0  0  0  0  0  0
   58.9613   32.1400   42.6361 H   0  0  0  0  0  0  0  0  0  0  0  0
   57.6524   33.1300   43.3910 H   0  0  0  0  0  0  0  0  0  0  0  0
   59.0071   34.3520   44.5143 H   0  0  0  0  0  0  0  0  0  0  0  0
   59.7569   32.9041   50.1703 H   0  0  0  0  0  0  0  0  0  0  0  0
   59.2174   29.2169   50.8945 H   0  0  0  0  0  0  0  0  0  0  0  0
   60.4445   30.5013   51.2708 H   0  0  0  0  0  0  0  0  0  0  0  0
   58.9650   31.7590   52.3190 H   0  0  0  0  0  0  0  0  0  0  0  0
   57.3928   32.3571   50.8322 H   0  0  0  0  0  0  0  0  0  0  0  0
   56.9666   30.6273   50.4943 H   0  0  0  0  0  0  0  0  0  0  0  0
   56.3367   32.1435   53.0718 H   0  0  0  0  0  0  0  0  0  0  0  0
   55.1747   31.7788   51.7247 H   0  0  0  0  0  0  0  0  0  0  0  0
   54.8811   29.1922   51.1936 H   0  0  0  0  0  0  0  0  0  0  0  0
   54.3133   28.5924   52.8020 H   0  0  0  0  0  0  0  0  0  0  0  0
   52.9893   30.2779   54.2866 H   0  0  0  0  0  0  0  0  0  0  0  0
   51.0699   31.8692   54.1855 H   0  0  0  0  0  0  0  0  0  0  0  0
   51.7038   32.3764   49.9364 H   0  0  0  0  0  0  0  0  0  0  0  0
   53.6261   30.7874   50.0297 H   0  0  0  0  0  0  0  0  0  0  0  0
   56.8233   28.5162   53.7590 H   0  0  0  0  0  0  0  0  0  0  0  0
   56.9700   28.6554   51.9590 H   0  0  0  0  0  0  0  0  0  0  0  0
   58.2019   30.5740   53.9956 H   0  0  0  0  0  0  0  0  0  0  0  0
   59.0710   29.2578   53.0950 H   0  0  0  0  0  0  0  0  0  0  0  0
   58.7156   28.9852   48.6513 H   0  0  0  0  0  0  0  0  0  0  0  0
   58.4706   29.9283   46.3591 H   0  0  0  0  0  0  0  0  0  0  0  0
  1  2  1  0
  2  3  1  0
  3  4  1  0
  4  5  2  0
  5  6  1  0
  6  7  2  0
  6  8  1  0
  8  9  1  0
  9 10  2  0
 10 11  1  0
 11 12  1  0
 12 13  1  0
 13 14  1  0
 14 15  1  0
 15 16  1  0
 16 17  1  0
 17 18  1  0
 18 19  2  0
 19 20  1  0
 20 21  2  0
 21 22  1  0
 21 23  1  0
 23 24  2  0
 16 25  1  0
 25 26  1  0
 11 27  2  0
 27 28  1  0
 28 29  2  0
 29  4  1  0
 29  9  1  0
 26 13  1  0
 24 18  1  0
  1 30  1  0
  1 31  1  0
  1 32  1  0
  2 33  1  0
  2 34  1  0
  5 35  1  0
 10 36  1  0
 12 37  1  0
 12 38  1  0
 13 39  1  0
 14 40  1  0
 14 41  1  0
 15 42  1  0
 15 43  1  0
 17 44  1  0
 17 45  1  0
 19 46  1  0
 20 47  1  0
 23 48  1  0
 24 49  1  0
 25 50  1  0
 25 51  1  0
 26 52  1  0
 26 53  1  0
 27 54  1  0
 28 55  1  0
M  CHG  3   8  -1  13   1  22  -1
M  END
>  <UniqueID>  (18) 
15

>  <SMILES>  (18) 
CCOc1cc(=O)[n-]c2cc(C[NH+]3CCN(Cc4ccc([O-])cc4)CC3)ccc12

>  <Energy>  (18) 
74.04560861275615

>  <Genealogy>  (18) 
CCOc1cc(=O)[n-]c2cc(C[NH+]3CCN(Cc4ccc([O-])cc4)CC3)ccc12 (protonated)
CCOc1cc(=O)[n-]c2cc(C[NH+]3CCN(Cc4ccc([O-])cc4)CC3)ccc12 (3D coordinates assigned)
CCOc1cc(=O)[n-]c2cc(C[NH+]3CCN(Cc4ccc([O-])cc4)CC3)ccc12 (nonaromatic ring conformer: 74.04560861275615 kcal/mol)

>  <smiles>  (18) 
CCOc1cc(=O)[nH]c2cc(CN3CCN(Cc4ccc(O)cc4)CC3)ccc12

>  <score_type>  (18) 
oracle

>  <origin>  (18) 
adg

>  <m_score__min__energy>  (18) 
-12.23

>  <m_primary>  (18) 
energy

$$$$
18:0
     RDKit          3D

 29 30  0  0  0  0  0  0  0  0999 V2000
   57.5890   31.0550   44.4090 C   0  0  0  0  0  0  0  0  0  0  0  0
   57.5150   29.7080   45.0800 C   0  0  0  0  0  0  0  0  0  0  0  0
   56.3100   28.9720   45.0890 C   0  0  0  0  0  0  0  0  0  0  0  0
   55.1380   29.4630   44.5090 O   0  0  0  0  0  0  0  0  0  0  0  0
   56.2700   27.7470   45.6770 N   0  0  0  0  0  0  0  0  0  0  0  0
   57.3550   27.1910   46.2750 C   0  0  0  0  0  0  0  0  0  0  0  0
   57.2580   26.0490   46.7960 O   0  0  0  0  0  0  0  0  0  0  0  0
   58.5670   27.8870   46.3110 C   0  0  0  0  0  0  0  0  0  0  0  0
   60.1080   27.1120   47.1530 Br  0  0  0  0  0  0  0  0  0  0  0  0
   58.6450   29.1570   45.7240 C   0  0  0  0  0  0  0  0  0  0  0  0
   59.8480   29.8630   45.7760 O   0  0  0  0  0  0  0  0  0  0  0  0
   60.2550   30.5440   46.9560 C   0  0  0  0  0  0  0  0  0  0  0  0
   59.7830   31.9660   46.8920 C   0  0  0  0  0  0  0  0  0  0  0  0
   60.6520   32.9810   46.4600 C   0  0  0  0  0  0  0  0  0  0  0  0
   60.1980   34.3010   46.3600 C   0  0  0  0  0  0  0  0  0  0  0  0
   58.8740   34.6120   46.6800 C   0  0  0  0  0  0  0  0  0  0  0  0
   57.9980   33.6030   47.0940 C   0  0  0  0  0  0  0  0  0  0  0  0
   58.4480   32.2830   47.1930 C   0  0  0  0  0  0  0  0  0  0  0  0
   57.6323   31.8440   45.1743 H   0  0  0  0  0  0  0  0  0  0  0  0
   58.4911   31.1030   43.7814 H   0  0  0  0  0  0  0  0  0  0  0  0
   56.6975   31.2015   43.7814 H   0  0  0  0  0  0  0  0  0  0  0  0
   54.2680   28.9470   44.4970 H   0  0  0  0  0  0  0  0  0  0  0  0
   59.8166   30.0500   47.8357 H   0  0  0  0  0  0  0  0  0  0  0  0
   61.3519   30.5218   47.0359 H   0  0  0  0  0  0  0  0  0  0  0  0
   61.6927   32.7378   46.1994 H   0  0  0  0  0  0  0  0  0  0  0  0
   60.8842   35.0945   46.0291 H   0  0  0  0  0  0  0  0  0  0  0  0
   58.5202   35.6509   46.6063 H   0  0  0  0  0  0  0  0  0  0  0  0
   56.9547   33.8482   47.3418 H   0  0  0  0  0  0  0  0  0  0  0  0
   57.7540   31.4897   47.5078 H   0  0  0  0  0  0  0  0  0  0  0  0
  1  2  1  0
  2  3  2  0
  3  4  1  0
  3  5  1  0
  5  6  1  0
  6  7  2  0
  6  8  1  0
  8  9  1  0
  8 10  2  0
 10 11  1  0
 11 12  1  0
 12 13  1  0
 13 14  2  0
 14 15  1  0
 15 16  2  0
 16 17  1  0
 17 18  2  0
 10  2  1  0
 18 13  1  0
  1 19  1  0
  1 20  1  0
  1 21  1  0
  4 22  1  0
 12 23  1  0
 12 24  1  0
 14 25  1  0
 15 26  1  0
 16 27  1  0
 17 28  1  0
 18 29  1  0
M  CHG  1   5  -1
M  END
>  <UniqueID>  (19) 
16

>  <SMILES>  (19) 
Cc1c(O)[n-]c(=O)c(Br)c1OCc1ccccc1

>  <Energy>  (19) 
37.77891361951841

>  <Genealogy>  (19) 
Cc1c(O)[n-]c(=O)c(Br)c1OCc1ccccc1 (protonated)
Cc1c(O)[n-]c(=O)c(Br)c1OCc1ccccc1 (3D coordinates assigned)
Cc1c(O)[n-]c(=O)c(Br)c1OCc1ccccc1 (optimized conformer: 37.77891361951841 kcal/mol)

>  <smiles>  (19) 
Cc1c(O)[nH]c(=O)c(Br)c1OCc1ccccc1

>  <score_type>  (19) 
oracle

>  <origin>  (19) 
adg

>  <m_score__min__energy>  (19) 
-9

>  <m_primary>  (19) 
energy

$$$$
19:0
     RDKit          3D

 36 38  0  0  0  0  0  0  0  0999 V2000
   57.5770   24.7720   47.5590 C   0  0  0  0  0  0  0  0  0  0  0  0
   57.3700   26.0450   46.8460 N   0  0  0  0  0  0  0  0  0  0  0  0
   56.1530   26.3230   46.2750 C   0  0  0  0  0  0  0  0  0  0  0  0
   55.1950   25.5090   46.3710 O   0  0  0  0  0  0  0  0  0  0  0  0
   55.9620   27.4800   45.5920 N   0  0  0  0  0  0  0  0  0  0  0  0
   56.9580   28.3840   45.4380 C   0  0  0  0  0  0  0  0  0  0  0  0
   56.7270   29.5630   44.7210 C   0  0  0  0  0  0  0  0  0  0  0  0
   57.7630   30.4880   44.5310 C   0  0  0  0  0  0  0  0  0  0  0  0
   57.5440   31.7080   43.7340 C   0  0  0  0  0  0  0  0  0  0  0  0
   57.3820   31.6060   42.4890 O   0  0  0  0  0  0  0  0  0  0  0  0
   57.4610   33.0070   44.3390 N   0  0  0  0  0  0  0  0  0  0  0  0
   57.0180   33.2830   45.7050 C   0  0  0  0  0  0  0  0  0  0  0  0
   58.1950   33.4940   46.6220 C   0  0  0  0  0  0  0  0  0  0  0  0
   58.2610   32.8390   47.8630 C   0  0  0  0  0  0  0  0  0  0  0  0
   59.3360   33.0690   48.7260 C   0  0  0  0  0  0  0  0  0  0  0  0
   60.3590   33.9450   48.3520 C   0  0  0  0  0  0  0  0  0  0  0  0
   61.4020   34.1680   49.1900 F   0  0  0  0  0  0  0  0  0  0  0  0
   60.3090   34.5910   47.1130 C   0  0  0  0  0  0  0  0  0  0  0  0
   59.2320   34.3660   46.2490 C   0  0  0  0  0  0  0  0  0  0  0  0
   59.0230   30.2430   45.0970 C   0  0  0  0  0  0  0  0  0  0  0  0
   59.2580   29.0670   45.8130 C   0  0  0  0  0  0  0  0  0  0  0  0
   58.2270   28.1250   45.9850 C   0  0  0  0  0  0  0  0  0  0  0  0
   58.4150   26.9230   46.6880 C   0  0  0  0  0  0  0  0  0  0  0  0
   59.5510   26.6520   47.1700 O   0  0  0  0  0  0  0  0  0  0  0  0
   57.5480   24.9505   48.6440 H   0  0  0  0  0  0  0  0  0  0  0  0
   56.7823   24.0635   47.2826 H   0  0  0  0  0  0  0  0  0  0  0  0
   58.5553   24.3518   47.2826 H   0  0  0  0  0  0  0  0  0  0  0  0
   55.7289   29.7648   44.3049 H   0  0  0  0  0  0  0  0  0  0  0  0
   56.3950   34.1896   45.7049 H   0  0  0  0  0  0  0  0  0  0  0  0
   56.4414   32.4193   46.0678 H   0  0  0  0  0  0  0  0  0  0  0  0
   57.4627   32.1417   48.1569 H   0  0  0  0  0  0  0  0  0  0  0  0
   59.3771   32.5602   49.7004 H   0  0  0  0  0  0  0  0  0  0  0  0
   61.1169   35.2765   46.8175 H   0  0  0  0  0  0  0  0  0  0  0  0
   59.1967   34.8737   45.2738 H   0  0  0  0  0  0  0  0  0  0  0  0
   59.8300   30.9807   44.9763 H   0  0  0  0  0  0  0  0  0  0  0  0
   60.2521   28.8767   46.2437 H   0  0  0  0  0  0  0  0  0  0  0  0
  1  2  1  0
  2  3  1  0
  3  4  2  0
  3  5  1  0
  5  6  1  0
  6  7  2  0
  7  8  1  0
  8  9  1  0
  9 10  2  0
  9 11  1  0
 11 12  1  0
 12 13  1  0
 13 14  2  0
 14 15  1  0
 15 16  2  0
 16 17  1  0
 16 18  1  0
 18 19  2  0
  8 20  2  0
 20 21  1  0
 21 22  2  0
 22 23  1  0
 23 24  2  0
 23  2  1  0
 22  6  1  0
 19 13  1  0
  1 25  1  0
  1 26  1  0
  1 27  1  0
  7 28  1  0
 12 29  1  0
 12 30  1  0
 14 31  1  0
 15 32  1  0
 18 33  1  0
 19 34  1  0
 20 35  1  0
 21 36  1  0
M  CHG  2   5  -1  11  -1
M  END
>  <UniqueID>  (20) 
17

>  <SMILES>  (20) 
Cn1c(=O)[n-]c2cc(C(=O)[N-]Cc3ccc(F)cc3)ccc2c1=O

>  <Energy>  (20) 
48.55559540786414

>  <Genealogy>  (20) 
Cn1c(=O)[n-]c2cc(C(=O)[N-]Cc3ccc(F)cc3)ccc2c1=O (protonated)
Cn1c(=O)[n-]c2cc(C(=O)[N-]Cc3ccc(F)cc3)ccc2c1=O (3D coordinates assigned)
Cn1c(=O)[n-]c2cc(C(=O)[N-]Cc3ccc(F)cc3)ccc2c1=O (optimized conformer: 48.55559540786414 kcal/mol)

>  <smiles>  (20) 
Cn1c(=O)[nH]c2cc(C(=O)NCc3ccc(F)cc3)ccc2c1=O

>  <score_type>  (20) 
oracle

>  <origin>  (20) 
adg

>  <m_score__min__energy>  (20) 
-10.56

>  <m_primary>  (20) 
energy

$$$$
20:0
     RDKit          3D

 48 51  0  0  1  0  0  0  0  0999 V2000
   57.0020   30.6730   52.3300 C   0  0  0  0  0  0  0  0  0  0  0  0
   58.0720   30.6620   51.2790 C   0  0  0  0  0  0  0  0  0  0  0  0
   58.3740   29.4720   50.6900 N   0  0  0  0  0  0  0  0  0  0  0  0
   59.3330   29.4450   49.7430 C   0  0  0  0  0  0  0  0  0  0  0  0
   59.6640   28.3420   49.1470 N   0  0  0  0  0  0  0  0  0  0  0  0
   59.2990   28.1130   47.7910 C   0  0  0  0  0  0  0  0  0  0  0  0
   59.4840   26.9060   47.1490 C   0  0  0  0  0  0  0  0  0  0  0  0
   59.0870   26.8040   45.8190 C   0  0  0  0  0  0  0  0  0  0  0  0
   58.5300   27.8630   45.1710 N   0  0  0  0  0  0  0  0  0  0  0  0
   58.3390   29.0550   45.7800 C   0  0  0  0  0  0  0  0  0  0  0  0
   57.7400   30.2260   45.1110 C   0  0  0  0  0  0  0  0  0  0  0  0
   56.6260   29.6730   43.8250 S   0  0  0  0  0  0  0  0  0  0  0  0
   57.3170   28.3080   43.0240 N   0  0  0  0  0  0  0  0  0  0  0  0
   55.2900   29.3230   44.3790 O   0  0  0  0  0  0  0  0  0  0  0  0
   56.4350   30.8190   42.8480 O   0  0  0  0  0  0  0  0  0  0  0  0
   58.7280   29.1700   47.0910 C   0  0  0  0  0  0  0  0  0  0  0  0
   60.0160   30.5780   49.3530 C   0  0  0  0  0  0  0  0  0  0  0  0
   59.6690   31.7710   49.9870 C   0  0  0  0  0  0  0  0  0  0  0  0
   60.3880   32.9260   49.5660 N   0  0  0  0  0  0  0  0  0  0  0  0
   59.9590   33.6270   48.5690 C   0  0  0  0  0  0  0  0  0  0  0  0
   59.7720   33.1940   47.2520 C   0  0  0  0  0  0  0  0  0  0  0  0
   59.3000   34.3350   46.6020 C   0  0  0  0  0  0  0  0  0  0  0  0
   58.9420   34.4090   45.1610 C   0  0  0  0  0  0  0  0  0  0  0  0
   57.5430   34.1590   44.7350 C   0  0  0  0  0  0  0  0  0  0  0  0
   58.5380   33.0940   44.4600 C   0  0  0  0  0  0  0  0  0  0  0  0
   59.2210   35.3550   47.4790 N   0  0  0  0  0  0  0  0  0  0  0  0
   59.6190   34.9260   48.6690 N   0  0  0  0  0  0  0  0  0  0  0  0
   58.7120   31.8050   50.9320 N   0  0  0  0  0  0  0  0  0  0  0  0
   57.4671   30.6682   53.3268 H   0  0  0  0  0  0  0  0  0  0  0  0
   56.3863   31.5775   52.2170 H   0  0  0  0  0  0  0  0  0  0  0  0
   56.3678   29.7813   52.2170 H   0  0  0  0  0  0  0  0  0  0  0  0
   59.9323   26.0491   47.6731 H   0  0  0  0  0  0  0  0  0  0  0  0
   59.2256   25.8531   45.2836 H   0  0  0  0  0  0  0  0  0  0  0  0
   57.1823   30.8234   45.8473 H   0  0  0  0  0  0  0  0  0  0  0  0
   58.5361   30.8415   44.6668 H   0  0  0  0  0  0  0  0  0  0  0  0
   58.3550   28.3630   42.9970 H   0  0  0  0  0  0  0  0  0  0  0  0
   57.0600   27.4480   43.5560 H   0  0  0  0  0  0  0  0  0  0  0  0
   58.5831   30.1313   47.6057 H   0  0  0  0  0  0  0  0  0  0  0  0
   60.7969   30.5425   48.5791 H   0  0  0  0  0  0  0  0  0  0  0  0
   59.9534   32.1944   46.8302 H   0  0  0  0  0  0  0  0  0  0  0  0
   59.6691   35.2162   44.9889 H   0  0  0  0  0  0  0  0  0  0  0  0
   56.7661   33.9920   45.4956 H   0  0  0  0  0  0  0  0  0  0  0  0
   56.8271   34.7122   44.1093 H   0  0  0  0  0  0  0  0  0  0  0  0
   58.5103   32.1509   45.0256 H   0  0  0  0  0  0  0  0  0  0  0  0
   58.8736   32.5436   43.5687 H   0  0  0  0  0  0  0  0  0  0  0  0
   58.8970   36.3490   47.2850 H   0  0  0  0  0  0  0  0  0  0  0  0
   59.6640   35.4910   49.5380 H   0  0  0  0  0  0  0  0  0  0  0  0
   58.4900   32.7100   51.3730 H   0  0  0  0  0  0  0  0  0  0  0  0
  1  2  1  0
  2  3  2  0
  3  4  1  0
  4  5  2  0
  5  6  1  0
  6  7  2  0
  7  8  1  0
  8  9  2  0
  9 10  1  0
 10 11  1  0
 11 12  1  0
 12 13  1  0
 12 14  2  0
 12 15  2  0
 10 16  2  0
  4 17  1  0
 17 18  2  0
 18 19  1  0
 19 20  2  0
 20 21  1  0
 21 22  2  0
 22 23  1  0
 23 24  1  0
 24 25  1  0
 22 26  1  0
 26 27  1  0
 18 28  1  0
 28  2  1  0
 16  6  1  0
 27 20  1  0
 25 23  1  0
  1 29  1  0
  1 30  1  0
  1 31  1  0
  7 32  1  0
  8 33  1  0
 11 34  1  0
 11 35  1  0
 13 36  1  0
 13 37  1  0
 16 38  1  0
 17 39  1  0
 21 40  1  0
 23 41  1  0
 24 42  1  0
 24 43  1  0
 25 44  1  0
 25 45  1  0
 26 46  1  0
 27 47  1  0
 28 48  1  0
M  END
>  <smiles>  (21) 
Cc1nc(=Nc2ccnc(CS(N)(=O)=O)c2)cc(N=c2cc(C3CC3)[nH][nH]2)[nH]1

>  <score_type>  (21) 
oracle

>  <origin>  (21) 
adg

>  <m_score__min__energy>  (21) 
-9.1600000000000001

>  <m_primary>  (21) 
energy

$$$$
21:0
     RDKit          3D

 29 30  0  0  0  0  0  0  0  0999 V2000
   54.3910   27.0980   46.3580 H   0  0  0  0  0  0  0  0  0  0  0  0
   55.1930   26.5440   46.0850 O   0  0  0  0  0  0  0  0  0  0  0  0
   56.3800   27.1400   45.6610 C   0  0  0  0  0  0  0  0  0  0  0  0
   57.5880   26.4320   45.7140 C   0  0  0  0  0  0  0  0  0  0  0  0
   57.6040   25.4024   46.1009 H   0  0  0  0  0  0  0  0  0  0  0  0
   58.7710   27.0300   45.2770 C   0  0  0  0  0  0  0  0  0  0  0  0
   59.7164   26.4688   45.3138 H   0  0  0  0  0  0  0  0  0  0  0  0
   58.7560   28.3400   44.7930 C   0  0  0  0  0  0  0  0  0  0  0  0
   59.6887   28.8009   44.4358 H   0  0  0  0  0  0  0  0  0  0  0  0
   57.5570   29.0740   44.7590 C   0  0  0  0  0  0  0  0  0  0  0  0
   57.5200   30.4570   44.2300 C   0  0  0  0  0  0  0  0  0  0  0  0
   57.8844   30.6224   43.2054 H   0  0  0  0  0  0  0  0  0  0  0  0
   57.0730   31.5230   44.9130 C   0  0  0  0  0  0  0  0  0  0  0  0
   55.9905   31.7178   44.9285 H   0  0  0  0  0  0  0  0  0  0  0  0
   57.9430   32.4260   45.6280 N   0  0  0  0  0  0  0  0  0  0  0  0
   58.6690   31.9730   46.7050 C   0  0  0  0  0  0  0  0  0  0  0  0
   58.5480   30.5500   47.1890 C   0  0  0  0  0  0  0  0  0  0  0  0
   58.5468   30.5357   48.2889 H   0  0  0  0  0  0  0  0  0  0  0  0
   57.6096   30.1142   46.8156 H   0  0  0  0  0  0  0  0  0  0  0  0
   59.3994   29.9620   46.8156 H   0  0  0  0  0  0  0  0  0  0  0  0
   59.5270   32.8510   47.3800 C   0  0  0  0  0  0  0  0  0  0  0  0
   60.1072   32.5069   48.2489 H   0  0  0  0  0  0  0  0  0  0  0  0
   59.6340   34.1640   46.9350 C   0  0  0  0  0  0  0  0  0  0  0  0
   60.3930   34.9750   47.5280 O   0  0  0  0  0  0  0  0  0  0  0  0
   58.9240   34.5690   45.8560 N   0  0  0  0  0  0  0  0  0  0  0  0
   58.0940   33.7220   45.1970 C   0  0  0  0  0  0  0  0  0  0  0  0
   57.4770   34.1390   44.1800 O   0  0  0  0  0  0  0  0  0  0  0  0
   56.3630   28.4560   45.1780 C   0  0  0  0  0  0  0  0  0  0  0  0
   55.1570   29.1500   45.1290 O   0  0  0  0  0  0  0  0  0  0  0  0
  1  2  1  0
  2  3  1  0
  3  4  2  0
  4  5  1  0
  4  6  1  0
  6  7  1  0
  6  8  2  0
  8  9  1  0
  8 10  1  0
 10 11  1  0
 11 12  1  0
 11 13  2  0
 13 14  1  0
 13 15  1  0
 15 16  1  0
 16 17  1  0
 17 18  1  0
 17 19  1  0
 17 20  1  0
 16 21  2  0
 21 22  1  0
 21 23  1  0
 23 24  2  0
 23 25  1  0
 25 26  1  0
 26 27  2  0
 10 28  2  0
 28 29  1  0
 28  3  1  0
 26 15  1  0
M  CHG  2  25  -1  29  -1
M  END
>  <UniqueID>  (22) 
18

>  <SMILES>  (22) 
Cc1cc(=O)[n-]c(=O)n1/C=C\c1cccc(O)c1[O-]

>  <Energy>  (22) 
44.05645729923521

>  <Genealogy>  (22) 
Cc1cc(=O)[n-]c(=O)n1C=Cc1cccc(O)c1[O-] (protonated)
Cc1cc(=O)[n-]c(=O)n1/C=C\c1cccc(O)c1[O-] (cis-trans isomerization)
Cc1cc(=O)[n-]c(=O)n1/C=C\c1cccc(O)c1[O-] (3D coordinates assigned)
Cc1cc(=O)[n-]c(=O)n1/C=C\c1cccc(O)c1[O-] (optimized conformer: 44.05645729923521 kcal/mol)

>  <smiles>  (22) 
Cc1cc(=O)[nH]c(=O)n1C=Cc1cccc(O)c1O

>  <score_type>  (22) 
oracle

>  <origin>  (22) 
adg

>  <m_score__min__energy>  (22) 
-12.4

>  <m_primary>  (22) 
energy

$$$$
22:0
     RDKit          3D

 37 39  0  0  0  0  0  0  0  0999 V2000
   60.5210   28.8780   50.4630 C   0  0  0  0  0  0  0  0  0  0  0  0
   60.5080   29.6540   49.1880 C   0  0  0  0  0  0  0  0  0  0  0  0
   60.3300   31.0000   49.2130 N   0  0  0  0  0  0  0  0  0  0  0  0
   60.3590   31.7130   48.0580 C   0  0  0  0  0  0  0  0  0  0  0  0
   60.1390   33.1920   48.0810 C   0  0  0  0  0  0  0  0  0  0  0  0
   59.1960   33.5890   46.9800 C   0  0  0  0  0  0  0  0  0  0  0  0
   59.6380   34.4120   45.9290 C   0  0  0  0  0  0  0  0  0  0  0  0
   58.7690   34.7510   44.8870 C   0  0  0  0  0  0  0  0  0  0  0  0
   57.4590   34.2660   44.8810 C   0  0  0  0  0  0  0  0  0  0  0  0
   57.0160   33.4360   45.9150 C   0  0  0  0  0  0  0  0  0  0  0  0
   57.8810   33.0940   46.9590 C   0  0  0  0  0  0  0  0  0  0  0  0
   60.5590   31.0750   46.8770 N   0  0  0  0  0  0  0  0  0  0  0  0
   60.7580   29.7340   46.8520 C   0  0  0  0  0  0  0  0  0  0  0  0
   61.0690   28.9080   45.2940 S   0  0  0  0  0  0  0  0  0  0  0  0
   59.9530   27.5040   45.6430 C   0  0  0  0  0  0  0  0  0  0  0  0
   58.5170   27.9230   45.5280 C   0  0  0  0  0  0  0  0  0  0  0  0
   58.1780   29.1960   45.0550 C   0  0  0  0  0  0  0  0  0  0  0  0
   56.8270   29.5170   44.9180 C   0  0  0  0  0  0  0  0  0  0  0  0
   56.4860   30.6530   44.4950 O   0  0  0  0  0  0  0  0  0  0  0  0
   55.8760   28.6010   45.2380 N   0  0  0  0  0  0  0  0  0  0  0  0
   56.2210   27.3680   45.6930 C   0  0  0  0  0  0  0  0  0  0  0  0
   55.3260   26.5320   45.9800 O   0  0  0  0  0  0  0  0  0  0  0  0
   57.5300   27.0370   45.8340 N   0  0  0  0  0  0  0  0  0  0  0  0
   60.7380   29.0240   48.0070 N   0  0  0  0  0  0  0  0  0  0  0  0
   60.5094   29.5731   51.3154 H   0  0  0  0  0  0  0  0  0  0  0  0
   59.6336   28.2295   50.5066 H   0  0  0  0  0  0  0  0  0  0  0  0
   61.4296   28.2595   50.5066 H   0  0  0  0  0  0  0  0  0  0  0  0
   59.7086   33.4811   49.0511 H   0  0  0  0  0  0  0  0  0  0  0  0
   61.1021   33.7025   47.9329 H   0  0  0  0  0  0  0  0  0  0  0  0
   60.6708   34.7905   45.9264 H   0  0  0  0  0  0  0  0  0  0  0  0
   59.1177   35.4007   44.0707 H   0  0  0  0  0  0  0  0  0  0  0  0
   56.7759   34.5372   44.0626 H   0  0  0  0  0  0  0  0  0  0  0  0
   55.9855   33.0514   45.9073 H   0  0  0  0  0  0  0  0  0  0  0  0
   57.5308   32.4349   47.7670 H   0  0  0  0  0  0  0  0  0  0  0  0
   60.1521   26.6973   44.9221 H   0  0  0  0  0  0  0  0  0  0  0  0
   60.1369   27.1544   46.6696 H   0  0  0  0  0  0  0  0  0  0  0  0
   58.9588   29.9267   44.7972 H   0  0  0  0  0  0  0  0  0  0  0  0
  1  2  1  0
  2  3  2  0
  3  4  1  0
  4  5  1  0
  5  6  1  0
  6  7  2  0
  7  8  1  0
  8  9  2  0
  9 10  1  0
 10 11  2  0
  4 12  2  0
 12 13  1  0
 13 14  1  0
 14 15  1  0
 15 16  1  0
 16 17  2  0
 17 18  1  0
 18 19  2  0
 18 20  1  0
 20 21  1  0
 21 22  2  0
 21 23  1  0
 13 24  2  0
 24  2  1  0
 11  6  1  0
 23 16  1  0
  1 25  1  0
  1 26  1  0
  1 27  1  0
  5 28  1  0
  5 29  1  0
  7 30  1  0
  8 31  1  0
  9 32  1  0
 10 33  1  0
 11 34  1  0
 15 35  1  0
 15 36  1  0
 17 37  1  0
M  CHG  2  20  -1  23  -1
M  END
>  <UniqueID>  (23) 
19

>  <SMILES>  (23) 
Cc1nc(Cc2ccccc2)nc(SCc2cc(=O)[n-]c(=O)[n-]2)n1

>  <Energy>  (23) 
32.32018629754798

>  <Genealogy>  (23) 
Cc1nc(Cc2ccccc2)nc(SCc2cc(=O)[n-]c(=O)[n-]2)n1 (protonated)
Cc1nc(Cc2ccccc2)nc(SCc2cc(=O)[n-]c(=O)[n-]2)n1 (3D coordinates assigned)
Cc1nc(Cc2ccccc2)nc(SCc2cc(=O)[n-]c(=O)[n-]2)n1 (optimized conformer: 32.32018629754798 kcal/mol)

>  <smiles>  (23) 
Cc1nc(Cc2ccccc2)nc(SCc2cc(=O)[nH]c(=O)[nH]2)n1

>  <score_type>  (23) 
oracle

>  <origin>  (23) 
adg

>  <m_score__min__energy>  (23) 
-12.49

>  <m_primary>  (23) 
energy

$$$$
23:0
     RDKit          3D

 71 75  0  0  0  0  0  0  0  0999 V2000
   62.2780   27.4710   51.8950 C   0  0  0  0  0  0  0  0  0  0  0  0
   60.9910   26.8610   51.3400 C   0  0  0  0  0  0  0  0  0  0  0  0
   61.2050   26.3950   50.0190 O   0  0  0  0  0  0  0  0  0  0  0  0
   60.3810   27.0870   49.1010 C   0  0  0  0  0  0  0  0  0  0  0  0
   60.7650   26.7060   47.6730 C   0  0  0  0  0  0  0  0  0  0  0  0
   59.5490   26.3680   46.8100 C   0  0  0  0  0  0  0  0  0  0  0  0
   58.6360   27.5070   46.8270 N   0  0  0  0  0  0  0  0  0  0  0  0
   57.5620   27.4450   45.4610 S   0  0  0  0  0  0  0  0  0  0  0  0
   58.0200   26.3530   44.5330 O   0  0  0  0  0  0  0  0  0  0  0  0
   56.1810   27.1130   45.9520 O   0  0  0  0  0  0  0  0  0  0  0  0
   57.5230   28.9780   44.5630 C   0  0  0  0  0  0  0  0  0  0  0  0
   56.7790   29.0190   43.3740 C   0  0  0  0  0  0  0  0  0  0  0  0
   56.6760   30.2010   42.6400 C   0  0  0  0  0  0  0  0  0  0  0  0
   57.3070   31.3590   43.0860 C   0  0  0  0  0  0  0  0  0  0  0  0
   58.0630   31.3370   44.2590 C   0  0  0  0  0  0  0  0  0  0  0  0
   58.1960   30.1500   45.0000 C   0  0  0  0  0  0  0  0  0  0  0  0
   59.0530   30.1780   46.2060 C   0  0  0  0  0  0  0  0  0  0  0  0
   60.4480   30.1260   46.0770 C   0  0  0  0  0  0  0  0  0  0  0  0
   61.2630   30.1200   47.2100 C   0  0  0  0  0  0  0  0  0  0  0  0
   60.7010   30.1610   48.4950 C   0  0  0  0  0  0  0  0  0  0  0  0
   61.6000   30.1860   49.7100 C   0  0  0  0  0  0  0  0  0  0  0  0
   61.2130   31.2740   50.6100 N   0  0  0  0  0  0  0  0  0  0  0  0
   60.5570   31.1160   51.7790 C   0  0  0  0  0  0  0  0  0  0  0  0
   60.1060   29.9260   52.2450 F   0  0  0  0  0  0  0  0  0  0  0  0
   60.3700   32.3290   52.4050 C   0  0  0  0  0  0  0  0  0  0  0  0
   60.9260   33.2790   51.5750 C   0  0  0  0  0  0  0  0  0  0  0  0
   61.4390   32.6050   50.4790 C   0  0  0  0  0  0  0  0  0  0  0  0
   62.0090   33.2950   49.2660 C   0  0  0  0  0  0  0  0  0  0  0  0
   60.9960   33.3960   48.2180 N   0  0  0  0  0  0  0  0  0  0  0  0
   59.5750   33.3750   48.3790 C   0  0  0  0  0  0  0  0  0  0  0  0
   58.9830   33.0860   49.4520 O   0  0  0  0  0  0  0  0  0  0  0  0
   58.9270   33.7130   47.1150 C   0  0  0  0  0  0  0  0  0  0  0  0
   57.5750   33.8110   46.7820 C   0  0  0  0  0  0  0  0  0  0  0  0
   57.2420   34.1630   45.4610 C   0  0  0  0  0  0  0  0  0  0  0  0
   58.2580   34.4080   44.5110 C   0  0  0  0  0  0  0  0  0  0  0  0
   59.6150   34.3030   44.8710 C   0  0  0  0  0  0  0  0  0  0  0  0
   59.9180   33.9500   46.1850 C   0  0  0  0  0  0  0  0  0  0  0  0
   61.2040   33.7610   46.8510 C   0  0  0  0  0  0  0  0  0  0  0  0
   62.3360   33.8910   46.3150 O   0  0  0  0  0  0  0  0  0  0  0  0
   59.3000   30.2140   48.6280 C   0  0  0  0  0  0  0  0  0  0  0  0
   58.7160   30.2780   49.8900 O   0  0  0  0  0  0  0  0  0  0  0  0
   58.4840   30.2060   47.4870 C   0  0  0  0  0  0  0  0  0  0  0  0
   62.2464   27.4560   52.9944 H   0  0  0  0  0  0  0  0  0  0  0  0
   63.1415   26.8864   51.5450 H   0  0  0  0  0  0  0  0  0  0  0  0
   62.3722   28.5096   51.5450 H   0  0  0  0  0  0  0  0  0  0  0  0
   60.6825   26.0193   51.9775 H   0  0  0  0  0  0  0  0  0  0  0  0
   60.2035   27.6290   51.3285 H   0  0  0  0  0  0  0  0  0  0  0  0
   59.3293   26.8191   49.2803 H   0  0  0  0  0  0  0  0  0  0  0  0
   60.5156   28.1703   49.2368 H   0  0  0  0  0  0  0  0  0  0  0  0
   61.2994   27.5509   47.2141 H   0  0  0  0  0  0  0  0  0  0  0  0
   61.3977   25.8077   47.7254 H   0  0  0  0  0  0  0  0  0  0  0  0
   59.8714   26.1666   45.7778 H   0  0  0  0  0  0  0  0  0  0  0  0
   59.0435   25.4747   47.2056 H   0  0  0  0  0  0  0  0  0  0  0  0
   56.2720   28.1104   43.0171 H   0  0  0  0  0  0  0  0  0  0  0  0
   56.0946   30.2180   41.7063 H   0  0  0  0  0  0  0  0  0  0  0  0
   57.2096   32.2929   42.5130 H   0  0  0  0  0  0  0  0  0  0  0  0
   58.5585   32.2556   44.6063 H   0  0  0  0  0  0  0  0  0  0  0  0
   60.9032   30.0897   45.0763 H   0  0  0  0  0  0  0  0  0  0  0  0
   62.3563   30.0828   47.0945 H   0  0  0  0  0  0  0  0  0  0  0  0
   61.5154   29.2275   50.2430 H   0  0  0  0  0  0  0  0  0  0  0  0
   62.6377   30.3465   49.3823 H   0  0  0  0  0  0  0  0  0  0  0  0
   59.8764   32.5042   53.3723 H   0  0  0  0  0  0  0  0  0  0  0  0
   60.9564   34.3646   51.7497 H   0  0  0  0  0  0  0  0  0  0  0  0
   62.3432   34.3048   49.5464 H   0  0  0  0  0  0  0  0  0  0  0  0
   62.8591   32.7087   48.8870 H   0  0  0  0  0  0  0  0  0  0  0  0
   56.7924   33.6186   47.5307 H   0  0  0  0  0  0  0  0  0  0  0  0
   56.1855   34.2478   45.1668 H   0  0  0  0  0  0  0  0  0  0  0  0
   57.9867   34.6832   43.4811 H   0  0  0  0  0  0  0  0  0  0  0  0
   60.4122   34.4938   44.1374 H   0  0  0  0  0  0  0  0  0  0  0  0
   58.5230   31.1640   50.3430 H   0  0  0  0  0  0  0  0  0  0  0  0
   57.3897   30.2218   47.5982 H   0  0  0  0  0  0  0  0  0  0  0  0
  1  2  1  0
  2  3  1  0
  3  4  1  0
  4  5  1  0
  5  6  1  0
  6  7  1  0
  7  8  1  0
  8  9  2  0
  8 10  2  0
  8 11  1  0
 11 12  2  0
 12 13  1  0
 13 14  2  0
 14 15  1  0
 15 16  2  0
 16 17  1  0
 17 18  2  0
 18 19  1  0
 19 20  2  0
 20 21  1  0
 21 22  1  0
 22 23  1  0
 23 24  1  0
 23 25  2  0
 25 26  1  0
 26 27  2  0
 27 28  1  0
 28 29  1  0
 29 30  1  0
 30 31  2  0
 30 32  1  0
 32 33  2  0
 33 34  1  0
 34 35  2  0
 35 36  1  0
 36 37  2  0
 37 38  1  0
 38 39  2  0
 20 40  1  0
 40 41  1  0
 40 42  2  0
 16 11  1  0
 42 17  1  0
 27 22  1  0
 38 29  1  0
 37 32  1  0
  1 43  1  0
  1 44  1  0
  1 45  1  0
  2 46  1  0
  2 47  1  0
  4 48  1  0
  4 49  1  0
  5 50  1  0
  5 51  1  0
  6 52  1  0
  6 53  1  0
 12 54  1  0
 13 55  1  0
 14 56  1  0
 15 57  1  0
 18 58  1  0
 19 59  1  0
 21 60  1  0
 21 61  1  0
 25 62  1  0
 26 63  1  0
 28 64  1  0
 28 65  1  0
 33 66  1  0
 34 67  1  0
 35 68  1  0
 36 69  1  0
 41 70  1  0
 42 71  1  0
M  CHG  1   7  -1
M  END
>  <UniqueID>  (24) 
20

>  <SMILES>  (24) 
CCOCCC[N-]S(=O)(=O)c1ccccc1-c1ccc(Cn2c(F)ccc2CN2C(=O)c3ccccc3C2=O)c(O)c1

>  <Energy>  (24) 
133.38345906353814

>  <Genealogy>  (24) 
CCOCCC[N-]S(=O)(=O)c1ccccc1-c1ccc(Cn2c(F)ccc2CN2C(=O)c3ccccc3C2=O)c(O)c1 (protonated)
CCOCCC[N-]S(=O)(=O)c1ccccc1-c1ccc(Cn2c(F)ccc2CN2C(=O)c3ccccc3C2=O)c(O)c1 (3D coordinates assigned)
CCOCCC[N-]S(=O)(=O)c1ccccc1-c1ccc(Cn2c(F)ccc2CN2C(=O)c3ccccc3C2=O)c(O)c1 (nonaromatic ring conformer: 133.38345906353814 kcal/mol)

>  <smiles>  (24) 
CCOCCCNS(=O)(=O)c1ccccc1-c1ccc(Cn2c(F)ccc2CN2C(=O)c3ccccc3C2=O)c(O)c1

>  <score_type>  (24) 
oracle

>  <origin>  (24) 
adg

>  <m_score__min__energy>  (24) 
-10.800000000000001

>  <m_primary>  (24) 
energy

$$$$
24:0
     RDKit          3D

 41 43  0  0  0  0  0  0  0  0999 V2000
   57.3740   25.1700   47.1180 C   0  0  0  0  0  0  0  0  0  0  0  0
   57.6910   26.2670   46.1450 C   0  0  0  0  0  0  0  0  0  0  0  0
   57.7860   25.9900   44.7740 C   0  0  0  0  0  0  0  0  0  0  0  0
   58.1070   27.0070   43.8640 C   0  0  0  0  0  0  0  0  0  0  0  0
   58.1470   26.7170   42.3920 C   0  0  0  0  0  0  0  0  0  0  0  0
   58.3250   28.3100   44.3330 C   0  0  0  0  0  0  0  0  0  0  0  0
   58.2770   28.5940   45.7060 C   0  0  0  0  0  0  0  0  0  0  0  0
   58.5020   29.9410   46.1550 N   0  0  0  0  0  0  0  0  0  0  0  0
   57.8520   31.0940   45.5930 C   0  0  0  0  0  0  0  0  0  0  0  0
   56.8420   30.9530   44.8500 O   0  0  0  0  0  0  0  0  0  0  0  0
   58.3360   32.4490   45.9110 C   0  0  0  0  0  0  0  0  0  0  0  0
   58.2120   33.5300   45.0390 C   0  0  0  0  0  0  0  0  0  0  0  0
   58.9100   34.8710   45.7750 S   0  0  0  0  0  0  0  0  0  0  0  0
   59.3220   34.0290   47.1700 C   0  0  0  0  0  0  0  0  0  0  0  0
   60.0890   34.6000   48.3180 C   0  0  0  0  0  0  0  0  0  0  0  0
   61.4930   34.0610   48.3160 C   0  0  0  0  0  0  0  0  0  0  0  0
   62.0920   33.6490   47.1150 C   0  0  0  0  0  0  0  0  0  0  0  0
   63.4110   33.1830   47.1090 C   0  0  0  0  0  0  0  0  0  0  0  0
   64.1410   33.1350   48.2990 C   0  0  0  0  0  0  0  0  0  0  0  0
   63.5570   33.5560   49.4960 C   0  0  0  0  0  0  0  0  0  0  0  0
   62.2390   34.0230   49.5070 C   0  0  0  0  0  0  0  0  0  0  0  0
   58.9610   32.7310   47.0880 N   0  0  0  0  0  0  0  0  0  0  0  0
   57.9490   27.5660   46.6080 C   0  0  0  0  0  0  0  0  0  0  0  0
   57.4833   25.5481   48.1452 H   0  0  0  0  0  0  0  0  0  0  0  0
   56.3403   24.8281   46.9611 H   0  0  0  0  0  0  0  0  0  0  0  0
   58.0660   24.3294   46.9611 H   0  0  0  0  0  0  0  0  0  0  0  0
   57.6074   24.9675   44.4097 H   0  0  0  0  0  0  0  0  0  0  0  0
   58.2958   25.6385   42.2347 H   0  0  0  0  0  0  0  0  0  0  0  0
   57.1976   27.0272   41.9312 H   0  0  0  0  0  0  0  0  0  0  0  0
   58.9770   27.2727   41.9312 H   0  0  0  0  0  0  0  0  0  0  0  0
   58.5359   29.1181   43.6171 H   0  0  0  0  0  0  0  0  0  0  0  0
   59.1060   30.0790   46.9970 H   0  0  0  0  0  0  0  0  0  0  0  0
   57.7408   33.5092   44.0452 H   0  0  0  0  0  0  0  0  0  0  0  0
   60.1191   35.6958   48.2272 H   0  0  0  0  0  0  0  0  0  0  0  0
   59.5947   34.3177   49.2592 H   0  0  0  0  0  0  0  0  0  0  0  0
   61.5220   33.6928   46.1752 H   0  0  0  0  0  0  0  0  0  0  0  0
   63.8736   32.8542   46.1667 H   0  0  0  0  0  0  0  0  0  0  0  0
   65.1770   32.7652   48.2934 H   0  0  0  0  0  0  0  0  0  0  0  0
   64.1348   33.5201   50.4314 H   0  0  0  0  0  0  0  0  0  0  0  0
   61.7847   34.3615   50.4499 H   0  0  0  0  0  0  0  0  0  0  0  0
   57.8943   27.7822   47.6852 H   0  0  0  0  0  0  0  0  0  0  0  0
  1  2  1  0
  2  3  2  0
  3  4  1  0
  4  5  1  0
  4  6  2  0
  6  7  1  0
  7  8  1  0
  8  9  1  0
  9 10  2  0
  9 11  1  0
 11 12  2  0
 12 13  1  0
 13 14  1  0
 14 15  1  0
 15 16  1  0
 16 17  2  0
 17 18  1  0
 18 19  2  0
 19 20  1  0
 20 21  2  0
 14 22  2  0
  7 23  2  0
 23  2  1  0
 22 11  1  0
 21 16  1  0
  1 24  1  0
  1 25  1  0
  1 26  1  0
  3 27  1  0
  5 28  1  0
  5 29  1  0
  5 30  1  0
  6 31  1  0
  8 32  1  0
 12 33  1  0
 15 34  1  0
 15 35  1  0
 17 36  1  0
 18 37  1  0
 19 38  1  0
 20 39  1  0
 21 40  1  0
 23 41  1  0
M  END
>  <UniqueID>  (25) 
21

>  <SMILES>  (25) 
Cc1cc(C)cc(NC(=O)c2csc(Cc3ccccc3)n2)c1

>  <Energy>  (25) 
71.68452931959705

>  <Genealogy>  (25) 
Cc1cc(C)cc(NC(=O)c2csc(Cc3ccccc3)n2)c1 (3D coordinates assigned)
Cc1cc(C)cc(NC(=O)c2csc(Cc3ccccc3)n2)c1 (optimized conformer: 71.68452931959705 kcal/mol)

>  <smiles>  (25) 
Cc1cc(C)cc(NC(=O)c2csc(Cc3ccccc3)n2)c1

>  <score_type>  (25) 
oracle

>  <origin>  (25) 
adg

>  <m_score__min__energy>  (25) 
-8.2599999999999998

>  <m_primary>  (25) 
energy

$$$$
25:0
     RDKit          3D

 55 57  0  0  0  0  0  0  0  0999 V2000
   59.1830   34.6580   45.2600 C   0  0  0  0  0  0  0  0  0  0  0  0
   59.7030   33.4510   46.0330 C   0  0  0  0  0  0  0  0  0  0  0  0
   58.7090   32.3680   46.0250 N   0  0  0  0  0  0  0  0  0  0  0  0
   57.3950   32.6260   45.4210 C   0  0  0  0  0  0  0  0  0  0  0  0
   57.0400   31.5230   44.4760 C   0  0  0  0  0  0  0  0  0  0  0  0
   57.3550   31.4730   43.1330 C   0  0  0  0  0  0  0  0  0  0  0  0
   56.8120   30.2950   42.6690 C   0  0  0  0  0  0  0  0  0  0  0  0
   56.1990   29.7020   43.7550 C   0  0  0  0  0  0  0  0  0  0  0  0
   56.3500   30.4600   44.8170 O   0  0  0  0  0  0  0  0  0  0  0  0
   58.9860   31.0670   46.6010 C   0  0  0  0  0  0  0  0  0  0  0  0
   58.5460   30.7910   47.7520 O   0  0  0  0  0  0  0  0  0  0  0  0
   59.7240   29.9970   45.8350 C   0  0  0  0  0  0  0  0  0  0  0  0
   58.8290   28.9040   45.4590 N   0  0  0  0  0  0  0  0  0  0  0  0
   58.9230   27.6010   46.0580 C   0  0  0  0  0  0  0  0  0  0  0  0
   59.7170   27.4160   47.0220 O   0  0  0  0  0  0  0  0  0  0  0  0
   58.0880   26.4720   45.5810 C   0  0  0  0  0  0  0  0  0  0  0  0
   58.1380   26.0830   44.2310 C   0  0  0  0  0  0  0  0  0  0  0  0
   57.3510   25.0260   43.7660 C   0  0  0  0  0  0  0  0  0  0  0  0
   56.4880   24.3500   44.6390 C   0  0  0  0  0  0  0  0  0  0  0  0
   55.4780   23.0320   44.0480 S   0  0  0  0  0  0  0  0  0  0  0  0
   55.0770   23.3280   42.6290 O   0  0  0  0  0  0  0  0  0  0  0  0
   54.2220   22.9650   44.8720 O   0  0  0  0  0  0  0  0  0  0  0  0
   56.2900   21.4800   44.1030 N   0  0  0  0  0  0  0  0  0  0  0  0
   57.7540   21.5930   43.9320 C   0  0  0  0  0  0  0  0  0  0  0  0
   58.5230   21.4700   45.2570 C   0  0  0  0  0  0  0  0  0  0  0  0
   57.7400   21.9460   46.3270 O   0  0  0  0  0  0  0  0  0  0  0  0
   56.6640   21.0570   46.5610 C   0  0  0  0  0  0  0  0  0  0  0  0
   55.8940   20.6760   45.2750 C   0  0  0  0  0  0  0  0  0  0  0  0
   56.4300   24.7350   45.9840 C   0  0  0  0  0  0  0  0  0  0  0  0
   57.2190   25.7900   46.4530 C   0  0  0  0  0  0  0  0  0  0  0  0
   58.8499   35.4311   45.9680 H   0  0  0  0  0  0  0  0  0  0  0  0
   59.9868   35.0622   44.6271 H   0  0  0  0  0  0  0  0  0  0  0  0
   58.3371   34.3515   44.6271 H   0  0  0  0  0  0  0  0  0  0  0  0
   60.6317   33.0935   45.5643 H   0  0  0  0  0  0  0  0  0  0  0  0
   59.8948   33.7505   47.0739 H   0  0  0  0  0  0  0  0  0  0  0  0
   56.6350   32.6847   46.2140 H   0  0  0  0  0  0  0  0  0  0  0  0
   57.4324   33.5763   44.8683 H   0  0  0  0  0  0  0  0  0  0  0  0
   57.9211   32.2178   42.5544 H   0  0  0  0  0  0  0  0  0  0  0  0
   56.8575   29.9055   41.6413 H   0  0  0  0  0  0  0  0  0  0  0  0
   55.6651   28.7405   43.7339 H   0  0  0  0  0  0  0  0  0  0  0  0
   60.1530   30.4392   44.9237 H   0  0  0  0  0  0  0  0  0  0  0  0
   60.5176   29.5914   46.4797 H   0  0  0  0  0  0  0  0  0  0  0  0
   58.0750   29.1090   44.7650 H   0  0  0  0  0  0  0  0  0  0  0  0
   58.8025   26.6154   43.5345 H   0  0  0  0  0  0  0  0  0  0  0  0
   57.4092   24.7233   42.7101 H   0  0  0  0  0  0  0  0  0  0  0  0
   58.0909   20.7939   43.2553 H   0  0  0  0  0  0  0  0  0  0  0  0
   57.9619   22.5922   43.5216 H   0  0  0  0  0  0  0  0  0  0  0  0
   58.7736   20.4136   45.4336 H   0  0  0  0  0  0  0  0  0  0  0  0
   59.4417   22.0716   45.1928 H   0  0  0  0  0  0  0  0  0  0  0  0
   57.0631   20.1376   47.0142 H   0  0  0  0  0  0  0  0  0  0  0  0
   55.9543   21.5724   47.2249 H   0  0  0  0  0  0  0  0  0  0  0  0
   56.0861   19.6159   45.0532 H   0  0  0  0  0  0  0  0  0  0  0  0
   54.8277   20.8715   45.4614 H   0  0  0  0  0  0  0  0  0  0  0  0
   55.7596   24.2043   46.6760 H   0  0  0  0  0  0  0  0  0  0  0  0
   57.1601   26.0887   47.5100 H   0  0  0  0  0  0  0  0  0  0  0  0
  1  2  1  0
  2  3  1  0
  3  4  1  0
  4  5  1  0
  5  6  2  0
  6  7  1  0
  7  8  2  0
  8  9  1  0
  3 10  1  0
 10 11  2  0
 10 12  1  0
 12 13  1  0
 13 14  1  0
 14 15  2  0
 14 16  1  0
 16 17  2  0
 17 18  1  0
 18 19  2  0
 19 20  1  0
 20 21  2  0
 20 22  2  0
 20 23  1  0
 23 24  1  0
 24 25  1  0
 25 26  1  0
 26 27  1  0
 27 28  1  0
 19 29  1  0
 29 30  2  0
  9  5  1  0
 30 16  1  0
 28 23  1  0
  1 31  1  0
  1 32  1  0
  1 33  1  0
  2 34  1  0
  2 35  1  0
  4 36  1  0
  4 37  1  0
  6 38  1  0
  7 39  1  0
  8 40  1  0
 12 41  1  0
 12 42  1  0
 13 43  1  0
 17 44  1  0
 18 45  1  0
 24 46  1  0
 24 47  1  0
 25 48  1  0
 25 49  1  0
 27 50  1  0
 27 51  1  0
 28 52  1  0
 28 53  1  0
 29 54  1  0
 30 55  1  0
M  END
>  <UniqueID>  (26) 
22

>  <SMILES>  (26) 
CCN(Cc1ccco1)C(=O)CNC(=O)c1ccc(S(=O)(=O)N2CCOCC2)cc1

>  <Energy>  (26) 
88.39227080178198

>  <Genealogy>  (26) 
CCN(Cc1ccco1)C(=O)CNC(=O)c1ccc(S(=O)(=O)N2CCOCC2)cc1 (3D coordinates assigned)
CCN(Cc1ccco1)C(=O)CNC(=O)c1ccc(S(=O)(=O)N2CCOCC2)cc1 (nonaromatic ring conformer: 88.39227080178198 kcal/mol)

>  <smiles>  (26) 
CCN(Cc1ccco1)C(=O)CNC(=O)c1ccc(S(=O)(=O)N2CCOCC2)cc1

>  <score_type>  (26) 
oracle

>  <origin>  (26) 
adg

>  <m_score__min__energy>  (26) 
-8.2799999999999994

>  <m_primary>  (26) 
energy

$$$$
26:0
     RDKit          3D

 53 55  0  0  0  0  0  0  0  0999 V2000
   59.4310   35.0690   45.9410 C   0  0  0  0  0  0  0  0  0  0  0  0
   58.7670   33.8050   45.4830 C   0  0  0  0  0  0  0  0  0  0  0  0
   58.5150   33.6070   44.1160 C   0  0  0  0  0  0  0  0  0  0  0  0
   57.8900   32.4360   43.6780 C   0  0  0  0  0  0  0  0  0  0  0  0
   57.5120   31.4500   44.6000 C   0  0  0  0  0  0  0  0  0  0  0  0
   56.7310   29.9800   44.0240 S   0  0  0  0  0  0  0  0  0  0  0  0
   55.5340   29.6530   44.8720 O   0  0  0  0  0  0  0  0  0  0  0  0
   56.2750   30.1890   42.6100 O   0  0  0  0  0  0  0  0  0  0  0  0
   57.8650   28.6670   44.0720 N   0  0  0  0  0  0  0  0  0  0  0  0
   58.7820   28.8020   45.2030 C   0  0  0  0  0  0  0  0  0  0  0  0
   59.6110   27.5290   45.3900 C   0  0  0  0  0  0  0  0  0  0  0  0
   58.7890   26.4160   45.9820 C   0  0  0  0  0  0  0  0  0  0  0  0
   58.9870   25.0900   45.5660 C   0  0  0  0  0  0  0  0  0  0  0  0
   58.2090   24.0600   46.1010 C   0  0  0  0  0  0  0  0  0  0  0  0
   57.2240   24.3440   47.0550 C   0  0  0  0  0  0  0  0  0  0  0  0
   56.2900   23.0540   47.8080 S   0  0  0  0  0  0  0  0  0  0  0  0
   57.2030   22.2690   48.7110 O   0  0  0  0  0  0  0  0  0  0  0  0
   55.1510   23.6100   48.6190 O   0  0  0  0  0  0  0  0  0  0  0  0
   55.6690   22.0050   46.5730 N   0  0  0  0  0  0  0  0  0  0  0  0
   55.8840   22.2220   45.1700 C   0  0  0  0  0  0  0  0  0  0  0  0
   56.8680   21.5050   44.4740 C   0  0  0  0  0  0  0  0  0  0  0  0
   57.0310   21.6900   43.1020 C   0  0  0  0  0  0  0  0  0  0  0  0
   56.2230   22.5920   42.4130 C   0  0  0  0  0  0  0  0  0  0  0  0
   55.2570   23.3250   43.0960 C   0  0  0  0  0  0  0  0  0  0  0  0
   55.0860   23.1530   44.4790 C   0  0  0  0  0  0  0  0  0  0  0  0
   53.8540   24.0830   45.3350 S   0  0  0  0  0  0  0  0  0  0  0  0
   54.4610   25.6690   45.6650 N   0  0  0  0  0  0  0  0  0  0  0  0
   53.4960   23.4180   46.6380 O   0  0  0  0  0  0  0  0  0  0  0  0
   52.6210   24.1720   44.4820 O   0  0  0  0  0  0  0  0  0  0  0  0
   57.0120   25.6680   47.4580 C   0  0  0  0  0  0  0  0  0  0  0  0
   57.7870   26.7000   46.9230 C   0  0  0  0  0  0  0  0  0  0  0  0
   57.7710   31.6390   45.9660 C   0  0  0  0  0  0  0  0  0  0  0  0
   58.3950   32.8110   46.4060 C   0  0  0  0  0  0  0  0  0  0  0  0
   59.4461   35.0977   47.0405 H   0  0  0  0  0  0  0  0  0  0  0  0
   60.4621   35.1006   45.5592 H   0  0  0  0  0  0  0  0  0  0  0  0
   58.8719   35.9360   45.5592 H   0  0  0  0  0  0  0  0  0  0  0  0
   58.8105   34.3761   43.3872 H   0  0  0  0  0  0  0  0  0  0  0  0
   57.6940   32.2876   42.6058 H   0  0  0  0  0  0  0  0  0  0  0  0
   59.4593   29.6488   45.0182 H   0  0  0  0  0  0  0  0  0  0  0  0
   58.1916   28.9737   46.1151 H   0  0  0  0  0  0  0  0  0  0  0  0
   59.9965   27.2068   44.4114 H   0  0  0  0  0  0  0  0  0  0  0  0
   60.4361   27.7536   46.0820 H   0  0  0  0  0  0  0  0  0  0  0  0
   59.7580   24.8608   44.8156 H   0  0  0  0  0  0  0  0  0  0  0  0
   58.3707   23.0230   45.7718 H   0  0  0  0  0  0  0  0  0  0  0  0
   57.5129   20.7947   45.0122 H   0  0  0  0  0  0  0  0  0  0  0  0
   57.8013   21.1211   42.5607 H   0  0  0  0  0  0  0  0  0  0  0  0
   56.3487   22.7249   41.3283 H   0  0  0  0  0  0  0  0  0  0  0  0
   54.6253   24.0415   42.5505 H   0  0  0  0  0  0  0  0  0  0  0  0
   53.6590   26.3310   45.5340 H   0  0  0  0  0  0  0  0  0  0  0  0
   56.2319   25.8966   48.1990 H   0  0  0  0  0  0  0  0  0  0  0  0
   57.6114   27.7385   47.2403 H   0  0  0  0  0  0  0  0  0  0  0  0
   57.4829   30.8644   46.6919 H   0  0  0  0  0  0  0  0  0  0  0  0
   58.5955   32.9558   47.4778 H   0  0  0  0  0  0  0  0  0  0  0  0
  1  2  1  0
  2  3  2  0
  3  4  1  0
  4  5  2  0
  5  6  1  0
  6  7  2  0
  6  8  2  0
  6  9  1  0
  9 10  1  0
 10 11  1  0
 11 12  1  0
 12 13  2  0
 13 14  1  0
 14 15  2  0
 15 16  1  0
 16 17  2  0
 16 18  2  0
 16 19  1  0
 19 20  1  0
 20 21  2  0
 21 22  1  0
 22 23  2  0
 23 24  1  0
 24 25  2  0
 25 26  1  0
 26 27  1  0
 26 28  2  0
 26 29  2  0
 15 30  1  0
 30 31  2  0
  5 32  1  0
 32 33  2  0
 33  2  1  0
 31 12  1  0
 25 20  1  0
  1 34  1  0
  1 35  1  0
  1 36  1  0
  3 37  1  0
  4 38  1  0
 10 39  1  0
 10 40  1  0
 11 41  1  0
 11 42  1  0
 13 43  1  0
 14 44  1  0
 21 45  1  0
 22 46  1  0
 23 47  1  0
 24 48  1  0
 27 49  1  0
 30 50  1  0
 31 51  1  0
 32 52  1  0
 33 53  1  0
M  CHG  3   9  -1  19  -1  27  -1
M  END
>  <UniqueID>  (27) 
23

>  <SMILES>  (27) 
Cc1ccc(S(=O)(=O)[N-]CCc2ccc(S(=O)(=O)[N-]c3ccccc3S([NH-])(=O)=O)cc2)cc1

>  <Energy>  (27) 
57.06032706365139

>  <Genealogy>  (27) 
Cc1ccc(S(=O)(=O)[N-]CCc2ccc(S(=O)(=O)[N-]c3ccccc3S([NH-])(=O)=O)cc2)cc1 (protonated)
Cc1ccc(S(=O)(=O)[N-]CCc2ccc(S(=O)(=O)[N-]c3ccccc3S([NH-])(=O)=O)cc2)cc1 (3D coordinates assigned)
Cc1ccc(S(=O)(=O)[N-]CCc2ccc(S(=O)(=O)[N-]c3ccccc3S([NH-])(=O)=O)cc2)cc1 (optimized conformer: 57.06032706365139 kcal/mol)

>  <smiles>  (27) 
Cc1ccc(S(=O)(=O)NCCc2ccc(S(=O)(=O)Nc3ccccc3S(N)(=O)=O)cc2)cc1

>  <score_type>  (27) 
oracle

>  <origin>  (27) 
adg

>  <m_score__min__energy>  (27) 
-15.33

>  <m_primary>  (27) 
energy

$$$$
27:0
     RDKit          3D

 46 49  0  0  0  0  0  0  0  0999 V2000
   53.8510   23.0420   44.7930 N   0  0  0  0  0  0  0  0  0  0  0  0
   55.1340   23.0800   44.8920 C   0  0  0  0  0  0  0  0  0  0  0  0
   55.8690   22.1970   44.2150 N   0  0  0  0  0  0  0  0  0  0  0  0
   57.2190   22.1810   44.2750 C   0  0  0  0  0  0  0  0  0  0  0  0
   58.1280   21.4000   43.6900 N   0  0  0  0  0  0  0  0  0  0  0  0
   59.3270   21.8390   44.1120 C   0  0  0  0  0  0  0  0  0  0  0  0
   59.1580   22.9110   44.9730 C   0  0  0  0  0  0  0  0  0  0  0  0
   57.8050   23.1340   45.0800 C   0  0  0  0  0  0  0  0  0  0  0  0
   57.1000   24.0720   45.8040 C   0  0  0  0  0  0  0  0  0  0  0  0
   57.5550   25.0190   46.5970 O   0  0  0  0  0  0  0  0  0  0  0  0
   57.6250   26.3430   46.8470 C   0  0  0  0  0  0  0  0  0  0  0  0
   56.5770   27.0610   46.0210 C   0  0  0  0  0  0  0  0  0  0  0  0
   57.0400   28.2780   45.3210 C   0  0  0  0  0  0  0  0  0  0  0  0
   58.1040   29.0130   45.9180 N   0  0  0  0  0  0  0  0  0  0  0  0
   58.1780   30.4320   45.8290 C   0  0  0  0  0  0  0  0  0  0  0  0
   57.2420   31.0040   45.1900 O   0  0  0  0  0  0  0  0  0  0  0  0
   59.2460   31.1550   46.4290 N   0  0  0  0  0  0  0  0  0  0  0  0
   59.3030   32.5800   46.3290 C   0  0  0  0  0  0  0  0  0  0  0  0
   59.7960   33.2450   47.4410 C   0  0  0  0  0  0  0  0  0  0  0  0
   59.9030   34.6250   47.4740 C   0  0  0  0  0  0  0  0  0  0  0  0
   59.4930   35.3130   46.3460 C   0  0  0  0  0  0  0  0  0  0  0  0
   58.9990   34.6610   45.2320 C   0  0  0  0  0  0  0  0  0  0  0  0
   58.8960   33.2690   45.2100 C   0  0  0  0  0  0  0  0  0  0  0  0
   59.1660   28.3060   46.6500 C   0  0  0  0  0  0  0  0  0  0  0  0
   59.0280   26.8190   46.4800 C   0  0  0  0  0  0  0  0  0  0  0  0
   55.7300   23.9840   45.6590 N   0  0  0  0  0  0  0  0  0  0  0  0
   53.3140   22.1740   44.8790 H   0  0  0  0  0  0  0  0  0  0  0  0
   57.9040   20.6030   43.0310 H   0  0  0  0  0  0  0  0  0  0  0  0
   60.2966   21.4110   43.8176 H   0  0  0  0  0  0  0  0  0  0  0  0
   59.9556   23.4772   45.4763 H   0  0  0  0  0  0  0  0  0  0  0  0
   57.4328   26.5569   47.9087 H   0  0  0  0  0  0  0  0  0  0  0  0
   56.2019   26.3569   45.2637 H   0  0  0  0  0  0  0  0  0  0  0  0
   55.8097   27.3971   46.7340 H   0  0  0  0  0  0  0  0  0  0  0  0
   57.3711   27.9751   44.3167 H   0  0  0  0  0  0  0  0  0  0  0  0
   56.1782   28.9612   45.3449 H   0  0  0  0  0  0  0  0  0  0  0  0
   60.0080   30.6500   46.9540 H   0  0  0  0  0  0  0  0  0  0  0  0
   60.1100   32.6617   48.3191 H   0  0  0  0  0  0  0  0  0  0  0  0
   60.2961   35.1504   48.3569 H   0  0  0  0  0  0  0  0  0  0  0  0
   59.5622   36.4108   46.3354 H   0  0  0  0  0  0  0  0  0  0  0  0
   58.6840   35.2445   44.3543 H   0  0  0  0  0  0  0  0  0  0  0  0
   58.5030   32.7413   44.3284 H   0  0  0  0  0  0  0  0  0  0  0  0
   60.1451   28.6245   46.2629 H   0  0  0  0  0  0  0  0  0  0  0  0
   59.0812   28.5494   47.7194 H   0  0  0  0  0  0  0  0  0  0  0  0
   59.2309   26.5586   45.4307 H   0  0  0  0  0  0  0  0  0  0  0  0
   59.7468   26.3262   47.1512 H   0  0  0  0  0  0  0  0  0  0  0  0
   55.1040   24.6590   46.1730 H   0  0  0  0  0  0  0  0  0  0  0  0
  1  2  2  3
  2  3  1  0
  3  4  2  0
  4  5  1  0
  5  6  1  0
  6  7  2  0
  7  8  1  0
  8  9  2  0
  9 10  1  0
 10 11  1  0
 11 12  1  0
 12 13  1  0
 13 14  1  0
 14 15  1  0
 15 16  2  0
 15 17  1  0
 17 18  1  0
 18 19  2  0
 19 20  1  0
 20 21  2  0
 21 22  1  0
 22 23  2  0
 14 24  1  0
 24 25  1  0
  9 26  1  0
 26  2  1  0
  8  4  1  0
 25 11  1  0
 23 18  1  0
  1 27  1  0
  5 28  1  0
  6 29  1  0
  7 30  1  0
 11 31  1  0
 12 32  1  0
 12 33  1  0
 13 34  1  0
 13 35  1  0
 17 36  1  0
 19 37  1  0
 20 38  1  0
 21 39  1  0
 22 40  1  0
 23 41  1  0
 24 42  1  0
 24 43  1  0
 25 44  1  0
 25 45  1  0
 26 46  1  0
M  END
>  <smiles>  (28) 
N=c1nc2[nH]ccc2c(OC2CCN(C(=O)Nc3ccccc3)CC2)[nH]1

>  <score_type>  (28) 
oracle

>  <origin>  (28) 
adg

>  <m_score__min__energy>  (28) 
-7.6200000000000001

>  <m_primary>  (28) 
energy

$$$$
28:0
     RDKit          3D

 52 55  0  0  0  0  0  0  0  0999 V2000
   58.9449   28.2709   43.5509 H   0  0  0  0  0  0  0  0  0  0  0  0
   58.9330   28.5170   44.6230 C   0  0  0  0  0  0  0  0  0  0  0  0
   59.1310   27.5220   45.5030 C   0  0  0  0  0  0  0  0  0  0  0  0
   60.1110   27.4521   45.9976 H   0  0  0  0  0  0  0  0  0  0  0  0
   58.0990   26.5120   45.8440 C   0  0  0  0  0  0  0  0  0  0  0  0
   56.7440   26.8810   45.7620 C   0  0  0  0  0  0  0  0  0  0  0  0
   56.4739   27.8990   45.4447 H   0  0  0  0  0  0  0  0  0  0  0  0
   55.7370   25.9630   46.0810 C   0  0  0  0  0  0  0  0  0  0  0  0
   54.4030   26.3380   45.9850 O   0  0  0  0  0  0  0  0  0  0  0  0
   56.0720   24.6730   46.4980 C   0  0  0  0  0  0  0  0  0  0  0  0
   55.2790   23.9517   46.7447 H   0  0  0  0  0  0  0  0  0  0  0  0
   57.4140   24.2980   46.6020 C   0  0  0  0  0  0  0  0  0  0  0  0
   57.7440   23.0180   47.0290 O   0  0  0  0  0  0  0  0  0  0  0  0
   58.4250   25.2110   46.2810 C   0  0  0  0  0  0  0  0  0  0  0  0
   59.4799   24.9123   46.3700 H   0  0  0  0  0  0  0  0  0  0  0  0
   58.6990   29.9300   45.0140 C   0  0  0  0  0  0  0  0  0  0  0  0
   58.1680   30.8110   44.0570 C   0  0  0  0  0  0  0  0  0  0  0  0
   57.9453   30.4450   43.0439 H   0  0  0  0  0  0  0  0  0  0  0  0
   57.9200   32.1480   44.3800 C   0  0  0  0  0  0  0  0  0  0  0  0
   57.5092   32.8256   43.6171 H   0  0  0  0  0  0  0  0  0  0  0  0
   58.1890   32.6320   45.6630 C   0  0  0  0  0  0  0  0  0  0  0  0
   57.9240   33.9860   45.9310 O   0  0  0  0  0  0  0  0  0  0  0  0
   58.5990   34.7800   46.9060 C   0  0  0  0  0  0  0  0  0  0  0  0
   58.1261   34.6278   47.8874 H   0  0  0  0  0  0  0  0  0  0  0  0
   58.5310   35.8380   46.6127 H   0  0  0  0  0  0  0  0  0  0  0  0
   60.0420   34.3920   46.9890 C   0  0  0  0  0  0  0  0  0  0  0  0
   60.8440   34.1950   45.9220 N   0  0  0  0  0  0  0  0  0  0  0  0
   62.0400   33.8790   46.3980 N   0  0  0  0  0  0  0  0  0  0  0  0
   62.0170   33.8650   47.7210 N   0  0  0  0  0  0  0  0  0  0  0  0
   63.1760   33.6040   48.5670 C   0  0  0  0  0  0  0  0  0  0  0  0
   63.9920   34.2880   48.2908 H   0  0  0  0  0  0  0  0  0  0  0  0
   63.5035   32.5634   48.4262 H   0  0  0  0  0  0  0  0  0  0  0  0
   62.8090   33.8200   50.0070 C   0  0  0  0  0  0  0  0  0  0  0  0
   62.9580   34.9650   50.5090 O   0  0  0  0  0  0  0  0  0  0  0  0
   62.1670   32.8010   50.7850 N   0  0  0  0  0  0  0  0  0  0  0  0
   61.1780   31.8770   50.3090 C   0  0  0  0  0  0  0  0  0  0  0  0
   61.5550   30.6810   49.6700 C   0  0  0  0  0  0  0  0  0  0  0  0
   62.6199   30.4597   49.5058 H   0  0  0  0  0  0  0  0  0  0  0  0
   60.5810   29.7730   49.2430 C   0  0  0  0  0  0  0  0  0  0  0  0
   60.8809   28.8453   48.7337 H   0  0  0  0  0  0  0  0  0  0  0  0
   59.2280   30.0420   49.4620 C   0  0  0  0  0  0  0  0  0  0  0  0
   58.4630   29.3305   49.1177 H   0  0  0  0  0  0  0  0  0  0  0  0
   58.8460   31.2160   50.1190 C   0  0  0  0  0  0  0  0  0  0  0  0
   57.7804   31.4235   50.2961 H   0  0  0  0  0  0  0  0  0  0  0  0
   59.8160   32.1280   50.5520 C   0  0  0  0  0  0  0  0  0  0  0  0
   59.3080   33.5920   51.3830 Cl  0  0  0  0  0  0  0  0  0  0  0  0
   60.7810   34.1940   48.1340 C   0  0  0  0  0  0  0  0  0  0  0  0
   60.4316   34.2861   49.1730 H   0  0  0  0  0  0  0  0  0  0  0  0
   58.7010   31.7520   46.6340 C   0  0  0  0  0  0  0  0  0  0  0  0
   58.9074   32.1189   47.6503 H   0  0  0  0  0  0  0  0  0  0  0  0
   58.9490   30.4130   46.3140 C   0  0  0  0  0  0  0  0  0  0  0  0
   59.3422   29.7319   47.0831 H   0  0  0  0  0  0  0  0  0  0  0  0
  1  2  1  0
  2  3  2  0
  3  4  1  0
  3  5  1  0
  5  6  2  0
  6  7  1  0
  6  8  1  0
  8  9  1  0
  8 10  2  0
 10 11  1  0
 10 12  1  0
 12 13  1  0
 12 14  2  0
 14 15  1  0
  2 16  1  0
 16 17  2  0
 17 18  1  0
 17 19  1  0
 19 20  1  0
 19 21  2  0
 21 22  1  0
 22 23  1  0
 23 24  1  0
 23 25  1  0
 23 26  1  0
 26 27  1  0
 27 28  2  0
 28 29  1  0
 29 30  1  0
 30 31  1  0
 30 32  1  0
 30 33  1  0
 33 34  2  0
 33 35  1  0
 35 36  1  0
 36 37  2  0
 37 38  1  0
 37 39  1  0
 39 40  1  0
 39 41  2  0
 41 42  1  0
 41 43  1  0
 43 44  1  0
 43 45  2  0
 45 46  1  0
 29 47  1  0
 47 48  1  0
 21 49  1  0
 49 50  1  0
 49 51  2  0
 51 52  1  0
 14  5  1  0
 51 16  1  0
 47 26  2  0
 45 36  1  0
M  CHG  3   9  -1  13  -1  35  -1
M  END
>  <UniqueID>  (29) 
24

>  <SMILES>  (29) 
O=C(Cn1cc(COc2ccc(/C=C/c3cc([O-])cc([O-])c3)cc2)nn1)[N-]c1ccccc1Cl

>  <Energy>  (29) 
100.10247506833315

>  <Genealogy>  (29) 
O=C(Cn1cc(COc2ccc(C=Cc3cc([O-])cc([O-])c3)cc2)nn1)[N-]c1ccccc1Cl (protonated)
O=C(Cn1cc(COc2ccc(/C=C/c3cc([O-])cc([O-])c3)cc2)nn1)[N-]c1ccccc1Cl (cis-trans isomerization)
O=C(Cn1cc(COc2ccc(/C=C/c3cc([O-])cc([O-])c3)cc2)nn1)[N-]c1ccccc1Cl (3D coordinates assigned)
O=C(Cn1cc(COc2ccc(/C=C/c3cc([O-])cc([O-])c3)cc2)nn1)[N-]c1ccccc1Cl (optimized conformer: 100.10247506833315 kcal/mol)

>  <smiles>  (29) 
O=C(Cn1cc(COc2ccc(C=Cc3cc(O)cc(O)c3)cc2)nn1)Nc1ccccc1Cl

>  <score_type>  (29) 
oracle

>  <origin>  (29) 
adg

>  <m_score__min__energy>  (29) 
-17.129999999999999

>  <m_primary>  (29) 
energy

$$$$
29:0
     RDKit          3D

 58 61  0  0  0  0  0  0  0  0999 V2000
   55.1750   24.7410   44.4670 H   0  0  0  0  0  0  0  0  0  0  0  0
   55.5460   23.9040   44.0830 O   0  0  0  0  0  0  0  0  0  0  0  0
   56.3510   23.3250   45.0780 C   0  0  2  0  0  0  0  0  0  0  0  0
   57.3283   23.8295   45.0971 H   0  0  0  0  0  0  0  0  0  0  0  0
   56.5790   21.8400   44.7690 C   0  0  0  0  0  0  0  0  0  0  0  0
   57.1474   21.7501   43.8315 H   0  0  0  0  0  0  0  0  0  0  0  0
   55.6007   21.3462   44.6734 H   0  0  0  0  0  0  0  0  0  0  0  0
   57.3700   21.1550   45.9090 C   0  0  0  0  0  0  0  0  0  0  0  0
   58.4085   21.0131   45.5751 H   0  0  0  0  0  0  0  0  0  0  0  0
   56.8654   20.2015   46.1238 H   0  0  0  0  0  0  0  0  0  0  0  0
   57.3850   21.8990   47.1170 O   0  0  0  0  0  0  0  0  0  0  0  0
   56.0870   22.3640   47.4220 C   0  0  0  0  0  0  0  0  0  0  0  0
   56.0722   22.7429   48.4546 H   0  0  0  0  0  0  0  0  0  0  0  0
   55.3771   21.5310   47.3118 H   0  0  0  0  0  0  0  0  0  0  0  0
   55.6760   23.4980   46.4600 C   0  0  1  0  0  0  0  0  0  0  0  0
   54.5860   23.4594   46.3171 H   0  0  0  0  0  0  0  0  0  0  0  0
   56.0560   24.7850   47.0380 N   0  0  0  0  0  0  0  0  0  0  0  0
   55.8910   26.0430   46.3720 C   0  0  0  0  0  0  0  0  0  0  0  0
   54.7760   26.3420   45.8660 O   0  0  0  0  0  0  0  0  0  0  0  0
   57.0270   26.9900   46.2810 C   0  0  0  0  0  0  0  0  0  0  0  0
   58.2040   26.7570   47.0070 C   0  0  0  0  0  0  0  0  0  0  0  0
   58.2909   25.8671   47.6477 H   0  0  0  0  0  0  0  0  0  0  0  0
   59.2630   27.6580   46.9130 C   0  0  0  0  0  0  0  0  0  0  0  0
   60.1834   27.4853   47.4900 H   0  0  0  0  0  0  0  0  0  0  0  0
   59.1610   28.7480   46.1110 N   0  0  0  0  0  0  0  0  0  0  0  0
   58.0500   29.0120   45.3730 C   0  0  0  0  0  0  0  0  0  0  0  0
   58.0530   30.0910   44.6380 N   0  0  0  0  0  0  0  0  0  0  0  0
   57.4040   31.3620   44.8430 C   0  0  0  0  0  0  0  0  0  0  0  0
   56.1720   31.5020   44.6170 O   0  0  0  0  0  0  0  0  0  0  0  0
   58.2110   32.5380   45.2490 C   0  0  0  0  0  0  0  0  0  0  0  0
   57.8270   33.8330   44.8660 C   0  0  0  0  0  0  0  0  0  0  0  0
   56.9190   33.9766   44.2619 H   0  0  0  0  0  0  0  0  0  0  0  0
   58.5890   34.9410   45.2460 C   0  0  0  0  0  0  0  0  0  0  0  0
   58.2720   35.9518   44.9497 H   0  0  0  0  0  0  0  0  0  0  0  0
   59.7490   34.7700   45.9990 C   0  0  0  0  0  0  0  0  0  0  0  0
   60.3449   35.6473   46.2911 H   0  0  0  0  0  0  0  0  0  0  0  0
   60.1630   33.4840   46.3880 C   0  0  0  0  0  0  0  0  0  0  0  0
   61.4400   33.2780   47.1820 C   0  0  0  0  0  0  0  0  0  0  0  0
   61.3221   33.8359   48.1226 H   0  0  0  0  0  0  0  0  0  0  0  0
   61.6550   31.7980   47.5360 C   0  0  0  0  0  0  0  0  0  0  0  0
   60.7710   31.4263   48.0749 H   0  0  0  0  0  0  0  0  0  0  0  0
   61.8062   31.2359   46.6026 H   0  0  0  0  0  0  0  0  0  0  0  0
   62.9040   31.6100   48.4270 C   0  0  0  0  0  0  0  0  0  0  0  0
   62.5810   31.5788   49.4781 H   0  0  0  0  0  0  0  0  0  0  0  0
   63.3889   30.6739   48.1131 H   0  0  0  0  0  0  0  0  0  0  0  0
   63.9020   32.6910   48.2750 N   0  0  0  0  0  0  0  0  0  0  0  0
   64.8400   32.3290   48.5650 H   0  0  0  0  0  0  0  0  0  0  0  0
   63.6610   33.4890   48.9080 H   0  0  0  0  0  0  0  0  0  0  0  0
   63.9880   33.1780   46.8910 C   0  0  0  0  0  0  0  0  0  0  0  0
   64.8078   33.9079   46.8192 H   0  0  0  0  0  0  0  0  0  0  0  0
   64.1722   32.3162   46.2327 H   0  0  0  0  0  0  0  0  0  0  0  0
   62.6750   33.8540   46.4470 C   0  0  0  0  0  0  0  0  0  0  0  0
   62.7424   34.9312   46.6592 H   0  0  0  0  0  0  0  0  0  0  0  0
   62.5455   33.6638   45.3713 H   0  0  0  0  0  0  0  0  0  0  0  0
   59.3820   32.3740   46.0130 C   0  0  0  0  0  0  0  0  0  0  0  0
   59.6912   31.3644   46.3214 H   0  0  0  0  0  0  0  0  0  0  0  0
   56.9480   28.1320   45.4630 C   0  0  0  0  0  0  0  0  0  0  0  0
   56.0296   28.3396   44.8943 H   0  0  0  0  0  0  0  0  0  0  0  0
  1  2  1  0
  2  3  1  0
  3  4  1  1
  3  5  1  0
  5  6  1  0
  5  7  1  0
  5  8  1  0
  8  9  1  0
  8 10  1  0
  8 11  1  0
 11 12  1  0
 12 13  1  0
 12 14  1  0
 12 15  1  0
 15 16  1  6
 15 17  1  0
 17 18  1  0
 18 19  2  0
 18 20  1  0
 20 21  1  0
 21 22  1  0
 21 23  2  0
 23 24  1  0
 23 25  1  0
 25 26  1  0
 26 27  2  0
 27 28  1  0
 28 29  2  0
 28 30  1  0
 30 31  2  0
 31 32  1  0
 31 33  1  0
 33 34  1  0
 33 35  2  0
 35 36  1  0
 35 37  1  0
 37 38  1  0
 38 39  1  0
 38 40  1  0
 40 41  1  0
 40 42  1  0
 40 43  1  0
 43 44  1  0
 43 45  1  0
 43 46  1  0
 46 47  1  0
 46 48  1  0
 46 49  1  0
 49 50  1  0
 49 51  1  0
 49 52  1  0
 52 53  1  0
 52 54  1  0
 37 55  2  0
 55 56  1  0
 26 57  1  0
 57 58  1  0
 15  3  1  0
 57 20  2  0
 55 30  1  0
 52 38  1  0
M  CHG  3  17  -1  25  -1  46   1
M  END
>  <UniqueID>  (30) 
25

>  <SMILES>  (30) 
O=C(/N=c1\cc(C(=O)[N-][C@@H]2COCC[C@H]2O)cc[n-]1)c1cccc(C2CC[NH2+]CC2)c1

>  <Energy>  (30) 
81.5587563025645

>  <Genealogy>  (30) 
O=C(N=c1cc(C(=O)[N-]C2COCCC2O)cc[n-]1)c1cccc(C2CC[NH2+]CC2)c1 (protonated)
O=C(N=c1cc(C(=O)[N-][C@@H]2COCC[C@H]2O)cc[n-]1)c1cccc(C2CC[NH2+]CC2)c1 (chirality)
O=C(/N=c1\cc(C(=O)[N-][C@@H]2COCC[C@H]2O)cc[n-]1)c1cccc(C2CC[NH2+]CC2)c1 (cis-trans isomerization)
O=C(/N=c1\cc(C(=O)[N-][C@@H]2COCC[C@H]2O)cc[n-]1)c1cccc(C2CC[NH2+]CC2)c1 (3D coordinates assigned)
O=C(/N=c1\cc(C(=O)[N-][C@@H]2COCC[C@H]2O)cc[n-]1)c1cccc(C2CC[NH2+]CC2)c1 (nonaromatic ring conformer: 81.5587563025645 kcal/mol)

>  <smiles>  (30) 
O=C(N=c1cc(C(=O)NC2COCCC2O)cc[nH]1)c1cccc(C2CCNCC2)c1

>  <score_type>  (30) 
oracle

>  <origin>  (30) 
adg

>  <m_score__min__energy>  (30) 
-12.67

>  <m_primary>  (30) 
energy

$$$$
30:0
     RDKit          3D

 43 45  0  0  0  0  0  0  0  0999 V2000
   55.2120   29.3990   44.5970 N   0  0  0  0  0  0  0  0  0  0  0  0
   56.5940   29.8890   43.6850 S   0  0  0  0  0  0  0  0  0  0  0  0
   56.8940   28.8590   42.6320 O   0  0  0  0  0  0  0  0  0  0  0  0
   56.2980   31.2000   43.0140 O   0  0  0  0  0  0  0  0  0  0  0  0
   57.9780   30.0480   44.7610 C   0  0  0  0  0  0  0  0  0  0  0  0
   58.3420   31.3140   45.2360 C   0  0  0  0  0  0  0  0  0  0  0  0
   59.4820   31.4660   46.0280 C   0  0  0  0  0  0  0  0  0  0  0  0
   60.2610   30.3530   46.3570 C   0  0  0  0  0  0  0  0  0  0  0  0
   59.8790   29.0720   45.9270 C   0  0  0  0  0  0  0  0  0  0  0  0
   60.6820   27.9180   46.2040 N   0  0  0  0  0  0  0  0  0  0  0  0
   60.2640   26.7160   46.8650 C   0  0  0  0  0  0  0  0  0  0  0  0
   60.8890   26.3460   47.8930 O   0  0  0  0  0  0  0  0  0  0  0  0
   59.2170   25.8020   46.2850 C   0  0  0  0  0  0  0  0  0  0  0  0
   57.8080   26.3530   46.5210 C   0  0  0  0  0  0  0  0  0  0  0  0
   56.8050   25.2940   46.4030 N   0  0  0  0  0  0  0  0  0  0  0  0
   55.4870   25.4550   46.1530 C   0  0  0  0  0  0  0  0  0  0  0  0
   54.8660   26.6890   45.9940 O   0  0  0  0  0  0  0  0  0  0  0  0
   54.8550   24.2300   46.0930 C   0  0  0  0  0  0  0  0  0  0  0  0
   55.8200   23.2810   46.3460 C   0  0  0  0  0  0  0  0  0  0  0  0
   57.0100   23.9630   46.5040 C   0  0  0  0  0  0  0  0  0  0  0  0
   58.2480   23.3760   46.7400 O   0  0  0  0  0  0  0  0  0  0  0  0
   55.5620   21.8070   46.3480 C   0  0  0  0  0  0  0  0  0  0  0  0
   54.0640   21.5320   46.5810 C   0  0  0  0  0  0  0  0  0  0  0  0
   53.1710   22.4260   45.6920 C   0  0  0  0  0  0  0  0  0  0  0  0
   53.3930   23.9280   45.9680 C   0  0  0  0  0  0  0  0  0  0  0  0
   58.7500   28.9290   45.1080 C   0  0  0  0  0  0  0  0  0  0  0  0
   55.1470   28.3590   44.5200 H   0  0  0  0  0  0  0  0  0  0  0  0
   57.7281   32.1914   44.9845 H   0  0  0  0  0  0  0  0  0  0  0  0
   59.7675   32.4634   46.3936 H   0  0  0  0  0  0  0  0  0  0  0  0
   61.1758   30.4810   46.9544 H   0  0  0  0  0  0  0  0  0  0  0  0
   59.3869   25.7032   45.2027 H   0  0  0  0  0  0  0  0  0  0  0  0
   59.2957   24.8234   46.7812 H   0  0  0  0  0  0  0  0  0  0  0  0
   57.7558   26.7872   47.5303 H   0  0  0  0  0  0  0  0  0  0  0  0
   57.5994   27.1200   45.7606 H   0  0  0  0  0  0  0  0  0  0  0  0
   55.8631   21.3836   45.3784 H   0  0  0  0  0  0  0  0  0  0  0  0
   56.1437   21.3408   47.1569 H   0  0  0  0  0  0  0  0  0  0  0  0
   53.8553   20.4773   46.3486 H   0  0  0  0  0  0  0  0  0  0  0  0
   53.8346   21.7582   47.6328 H   0  0  0  0  0  0  0  0  0  0  0  0
   53.4037   22.2214   44.6365 H   0  0  0  0  0  0  0  0  0  0  0  0
   52.1214   22.1914   45.9228 H   0  0  0  0  0  0  0  0  0  0  0  0
   52.9723   24.5143   45.1378 H   0  0  0  0  0  0  0  0  0  0  0  0
   52.8939   24.1930   46.9117 H   0  0  0  0  0  0  0  0  0  0  0  0
   58.4677   27.9333   44.7352 H   0  0  0  0  0  0  0  0  0  0  0  0
  1  2  1  0
  2  3  2  0
  2  4  2  0
  2  5  1  0
  5  6  2  0
  6  7  1  0
  7  8  2  0
  8  9  1  0
  9 10  1  0
 10 11  1  0
 11 12  2  0
 11 13  1  0
 13 14  1  0
 14 15  1  0
 15 16  1  0
 16 17  1  0
 16 18  2  0
 18 19  1  0
 19 20  2  0
 20 21  1  0
 19 22  1  0
 22 23  1  0
 23 24  1  0
 24 25  1  0
  9 26  2  0
 26  5  1  0
 20 15  1  0
 25 18  1  0
  1 27  1  0
  6 28  1  0
  7 29  1  0
  8 30  1  0
 13 31  1  0
 13 32  1  0
 14 33  1  0
 14 34  1  0
 22 35  1  0
 22 36  1  0
 23 37  1  0
 23 38  1  0
 24 39  1  0
 24 40  1  0
 25 41  1  0
 25 42  1  0
 26 43  1  0
M  CHG  4   1  -1  10  -1  17  -1  21  -1
M  END
>  <UniqueID>  (31) 
26

>  <SMILES>  (31) 
[NH-]S(=O)(=O)c1cccc([N-]C(=O)CCn2c([O-])c3c(c2[O-])CCCC3)c1

>  <Energy>  (31) 
69.90907894644445

>  <Genealogy>  (31) 
[NH-]S(=O)(=O)c1cccc([N-]C(=O)CCn2c([O-])c3c(c2[O-])CCCC3)c1 (protonated)
[NH-]S(=O)(=O)c1cccc([N-]C(=O)CCn2c([O-])c3c(c2[O-])CCCC3)c1 (3D coordinates assigned)
[NH-]S(=O)(=O)c1cccc([N-]C(=O)CCn2c([O-])c3c(c2[O-])CCCC3)c1 (nonaromatic ring conformer: 69.90907894644445 kcal/mol)

>  <smiles>  (31) 
NS(=O)(=O)c1cccc(NC(=O)CCn2c(O)c3c(c2O)CCCC3)c1

>  <score_type>  (31) 
oracle

>  <origin>  (31) 
adg

>  <m_score__min__energy>  (31) 
-15.84

>  <m_primary>  (31) 
energy

$$$$
31:0
     RDKit          3D

 61 63  0  0  0  0  0  0  0  0999 V2000
   65.5040   31.3910   50.8720 C   0  0  0  0  0  0  0  0  0  0  0  0
   64.1120   31.8420   50.3940 C   0  0  0  0  0  0  0  0  0  0  0  0
   64.1060   33.1460   49.6950 N   0  0  0  0  0  0  0  0  0  0  0  0
   63.2510   34.1990   50.2850 C   0  0  0  0  0  0  0  0  0  0  0  0
   62.2450   33.5940   51.2780 C   0  0  0  0  0  0  0  0  0  0  0  0
   60.7840   33.6680   50.8030 C   0  0  0  0  0  0  0  0  0  0  0  0
   59.9400   32.4860   51.2860 C   0  0  0  0  0  0  0  0  0  0  0  0
   59.4530   31.7820   50.1780 O   0  0  0  0  0  0  0  0  0  0  0  0
   64.1610   33.1030   48.2150 C   0  0  0  0  0  0  0  0  0  0  0  0
   63.0270   33.8570   47.5080 C   0  0  0  0  0  0  0  0  0  0  0  0
   61.7640   33.4780   48.0460 O   0  0  0  0  0  0  0  0  0  0  0  0
   60.8280   32.6650   47.3910 C   0  0  0  0  0  0  0  0  0  0  0  0
   59.8230   33.1970   46.5680 C   0  0  0  0  0  0  0  0  0  0  0  0
   58.9330   32.3530   45.8960 C   0  0  0  0  0  0  0  0  0  0  0  0
   57.9110   32.8990   45.1950 N   0  0  0  0  0  0  0  0  0  0  0  0
   56.9800   32.1410   44.5700 C   0  0  0  0  0  0  0  0  0  0  0  0
   57.0720   30.7410   44.5750 C   0  0  0  0  0  0  0  0  0  0  0  0
   56.0280   29.9560   43.8570 C   0  0  0  0  0  0  0  0  0  0  0  0
   55.1450   29.0860   44.5640 N   0  0  0  0  0  0  0  0  0  0  0  0
   55.8940   30.0770   42.6090 O   0  0  0  0  0  0  0  0  0  0  0  0
   58.1910   30.1300   45.1980 C   0  0  0  0  0  0  0  0  0  0  0  0
   58.3990   28.8580   44.9560 N   0  0  0  0  0  0  0  0  0  0  0  0
   58.1680   27.7100   45.7870 C   0  0  0  0  0  0  0  0  0  0  0  0
   57.0190   26.9350   45.5870 C   0  0  0  0  0  0  0  0  0  0  0  0
   56.7880   25.8050   46.3780 C   0  0  0  0  0  0  0  0  0  0  0  0
   57.7140   25.4330   47.3560 C   0  0  0  0  0  0  0  0  0  0  0  0
   58.8860   26.1770   47.5300 C   0  0  0  0  0  0  0  0  0  0  0  0
   59.1210   27.3050   46.7390 C   0  0  0  0  0  0  0  0  0  0  0  0
   59.0690   30.9470   45.9790 C   0  0  0  0  0  0  0  0  0  0  0  0
   59.9990   30.4340   46.9090 C   0  0  0  0  0  0  0  0  0  0  0  0
   60.9010   31.2790   47.5800 C   0  0  0  0  0  0  0  0  0  0  0  0
   61.9010   30.7540   48.4660 N   0  0  0  0  0  0  0  0  0  0  0  0
   61.6150   30.1010   49.4710 N   0  0  0  0  0  0  0  0  0  0  0  0
   61.3310   29.4500   50.4750 N   0  0  0  0  0  0  0  0  0  0  0  0
   65.5292   31.3828   51.9717 H   0  0  0  0  0  0  0  0  0  0  0  0
   65.7119   30.3795   50.4929 H   0  0  0  0  0  0  0  0  0  0  0  0
   66.2656   32.0884   50.4929 H   0  0  0  0  0  0  0  0  0  0  0  0
   63.7194   31.0793   49.7055 H   0  0  0  0  0  0  0  0  0  0  0  0
   63.4912   31.9620   51.2941 H   0  0  0  0  0  0  0  0  0  0  0  0
   63.8863   34.9254   50.8130 H   0  0  0  0  0  0  0  0  0  0  0  0
   62.6934   34.6941   49.4763 H   0  0  0  0  0  0  0  0  0  0  0  0
   62.5056   32.5369   51.4352 H   0  0  0  0  0  0  0  0  0  0  0  0
   62.3119   34.1857   52.2029 H   0  0  0  0  0  0  0  0  0  0  0  0
   60.3373   34.5977   51.1853 H   0  0  0  0  0  0  0  0  0  0  0  0
   60.7926   33.6399   49.7034 H   0  0  0  0  0  0  0  0  0  0  0  0
   60.5608   31.8185   51.9017 H   0  0  0  0  0  0  0  0  0  0  0  0
   59.0965   32.8566   51.8870 H   0  0  0  0  0  0  0  0  0  0  0  0
   60.2130   31.2400   49.8390 H   0  0  0  0  0  0  0  0  0  0  0  0
   65.1168   33.5435   47.8949 H   0  0  0  0  0  0  0  0  0  0  0  0
   64.0546   32.0456   47.9312 H   0  0  0  0  0  0  0  0  0  0  0  0
   63.1698   34.9388   47.6473 H   0  0  0  0  0  0  0  0  0  0  0  0
   63.0469   33.6063   46.4371 H   0  0  0  0  0  0  0  0  0  0  0  0
   59.7347   34.2871   46.4506 H   0  0  0  0  0  0  0  0  0  0  0  0
   56.1410   32.6285   44.0518 H   0  0  0  0  0  0  0  0  0  0  0  0
   55.1430   29.0510   45.6080 H   0  0  0  0  0  0  0  0  0  0  0  0
   56.2967   27.2155   44.8062 H   0  0  0  0  0  0  0  0  0  0  0  0
   55.8759   25.2082   46.2300 H   0  0  0  0  0  0  0  0  0  0  0  0
   57.5214   24.5546   47.9895 H   0  0  0  0  0  0  0  0  0  0  0  0
   59.6223   25.8743   48.2891 H   0  0  0  0  0  0  0  0  0  0  0  0
   60.0526   27.8770   46.8611 H   0  0  0  0  0  0  0  0  0  0  0  0
   60.0185   29.3532   47.1126 H   0  0  0  0  0  0  0  0  0  0  0  0
  1  2  1  0
  2  3  1  0
  3  4  1  0
  4  5  1  0
  5  6  1  0
  6  7  1  0
  7  8  1  0
  3  9  1  0
  9 10  1  0
 10 11  1  0
 11 12  1  0
 12 13  2  0
 13 14  1  0
 14 15  1  0
 15 16  1  0
 16 17  2  0
 17 18  1  0
 18 19  1  0
 18 20  2  0
 17 21  1  0
 21 22  2  3
 22 23  1  0
 23 24  2  0
 24 25  1  0
 25 26  2  0
 26 27  1  0
 27 28  2  0
 21 29  1  0
 29 30  1  0
 30 31  2  0
 31 32  1  0
 32 33  2  0
 33 34  2  0
 31 12  1  0
 29 14  2  0
 28 23  1  0
  1 35  1  0
  1 36  1  0
  1 37  1  0
  2 38  1  0
  2 39  1  0
  4 40  1  0
  4 41  1  0
  5 42  1  0
  5 43  1  0
  6 44  1  0
  6 45  1  0
  7 46  1  0
  7 47  1  0
  8 48  1  0
  9 49  1  0
  9 50  1  0
 10 51  1  0
 10 52  1  0
 13 53  1  0
 16 54  1  0
 19 55  1  0
 24 56  1  0
 25 57  1  0
 26 58  1  0
 27 59  1  0
 28 60  1  0
 30 61  1  0
M  CHG  4  15  -1  19  -1  33   1  34  -1
M  END
>  <UniqueID>  (32) 
27

>  <SMILES>  (32) 
CCN(CCCCO)CCOc1cc2[n-]cc(C([NH-])=O)c(=Nc3ccccc3)c2cc1N=[N+]=[N-]

>  <Energy>  (32) 
93.02416302261989

>  <Genealogy>  (32) 
CCN(CCCCO)CCOc1cc2[n-]cc(C([NH-])=O)c(=Nc3ccccc3)c2cc1N=[N+]=[N-] (protonated)
CCN(CCCCO)CCOc1cc2[n-]cc(C([NH-])=O)c(=Nc3ccccc3)c2cc1N=[N+]=[N-] (3D coordinates assigned)
CCN(CCCCO)CCOc1cc2[n-]cc(C([NH-])=O)c(=Nc3ccccc3)c2cc1N=[N+]=[N-] (optimized conformer: 93.02416302261989 kcal/mol)

>  <smiles>  (32) 
CCN(CCCCO)CCOc1cc2[nH]cc(C(N)=O)c(=Nc3ccccc3)c2cc1N=[N+]=[N-]

>  <score_type>  (32) 
oracle

>  <origin>  (32) 
adg

>  <m_score__min__energy>  (32) 
-10.359999999999999

>  <m_primary>  (32) 
energy

$$$$
32:0
     RDKit          3D

 28 29  0  0  0  0  0  0  0  0999 V2000
   56.5114   28.8124   46.3826 H   0  0  0  0  0  0  0  0  0  0  0  0
   56.9440   28.1130   45.6520 C   0  0  0  0  0  0  0  0  0  0  0  0
   57.4610   28.6200   44.5180 C   0  0  0  0  0  0  0  0  0  0  0  0
   57.8390   27.7520   43.4240 C   0  0  0  0  0  0  0  0  0  0  0  0
   58.1400   27.0540   42.5500 N   0  0  0  0  0  0  0  0  0  0  0  0
   57.7000   30.0800   44.3740 C   0  0  0  0  0  0  0  0  0  0  0  0
   57.3690   30.7600   43.1840 C   0  0  0  0  0  0  0  0  0  0  0  0
   56.9309   30.2050   42.3414 H   0  0  0  0  0  0  0  0  0  0  0  0
   57.5940   32.1350   43.0680 C   0  0  0  0  0  0  0  0  0  0  0  0
   57.3365   32.6561   42.1341 H   0  0  0  0  0  0  0  0  0  0  0  0
   58.1450   32.8490   44.1350 C   0  0  0  0  0  0  0  0  0  0  0  0
   58.3242   33.9301   44.0395 H   0  0  0  0  0  0  0  0  0  0  0  0
   58.4680   32.1900   45.3220 C   0  0  0  0  0  0  0  0  0  0  0  0
   58.8991   32.7537   46.1625 H   0  0  0  0  0  0  0  0  0  0  0  0
   58.2450   30.8140   45.4460 C   0  0  0  0  0  0  0  0  0  0  0  0
   58.4969   30.3022   46.3865 H   0  0  0  0  0  0  0  0  0  0  0  0
   56.9240   26.6720   45.9720 C   0  0  0  0  0  0  0  0  0  0  0  0
   55.7920   25.8930   46.0860 C   0  0  0  0  0  0  0  0  0  0  0  0
   54.4800   26.3340   45.9700 O   0  0  0  0  0  0  0  0  0  0  0  0
   56.1390   24.6170   46.3330 N   0  0  0  0  0  0  0  0  0  0  0  0
   55.5080   23.7970   46.4720 H   0  0  0  0  0  0  0  0  0  0  0  0
   57.4870   24.6370   46.3440 C   0  0  0  0  0  0  0  0  0  0  0  0
   58.1900   23.6080   46.5360 O   0  0  0  0  0  0  0  0  0  0  0  0
   58.0020   25.8640   46.1140 N   0  0  0  0  0  0  0  0  0  0  0  0
   59.4190   26.2060   45.9980 C   0  0  0  0  0  0  0  0  0  0  0  0
   59.8543   26.3111   47.0027 H   0  0  0  0  0  0  0  0  0  0  0  0
   59.9450   25.4090   45.4520 H   0  0  0  0  0  0  0  0  0  0  0  0
   59.5236   27.1552   45.4520 H   0  0  0  0  0  0  0  0  0  0  0  0
  1  2  1  0
  2  3  2  0
  3  4  1  0
  4  5  3  0
  3  6  1  0
  6  7  2  0
  7  8  1  0
  7  9  1  0
  9 10  1  0
  9 11  2  0
 11 12  1  0
 11 13  1  0
 13 14  1  0
 13 15  2  0
 15 16  1  0
  2 17  1  0
 17 18  2  0
 18 19  1  0
 18 20  1  0
 20 21  1  0
 20 22  1  0
 22 23  2  0
 22 24  1  0
 24 25  1  0
 25 26  1  0
 25 27  1  0
 25 28  1  0
 15  6  1  0
 24 17  1  0
M  CHG  1  19  -1
M  END
>  <UniqueID>  (33) 
28

>  <SMILES>  (33) 
Cn1c(/C=C(\C#N)c2ccccc2)c([O-])[nH]c1=O

>  <Energy>  (33) 
72.48768951197007

>  <Genealogy>  (33) 
Cn1c(C=C(C#N)c2ccccc2)c([O-])[nH]c1=O (protonated)
Cn1c(/C=C(\C#N)c2ccccc2)c([O-])[nH]c1=O (cis-trans isomerization)
Cn1c(/C=C(\C#N)c2ccccc2)c([O-])[nH]c1=O (3D coordinates assigned)
Cn1c(/C=C(\C#N)c2ccccc2)c([O-])[nH]c1=O (optimized conformer: 72.48768951197007 kcal/mol)

>  <smiles>  (33) 
Cn1c(C=C(C#N)c2ccccc2)c(O)[nH]c1=O

>  <score_type>  (33) 
oracle

>  <origin>  (33) 
adg

>  <m_score__min__energy>  (33) 
-9.9600000000000009

>  <m_primary>  (33) 
energy

$$$$
33:0
     RDKit          3D

 52 55  0  0  0  0  0  0  0  0999 V2000
   62.2210   32.8740   49.8400 O   0  0  0  0  0  0  0  0  0  0  0  0
   63.3570   32.9280   49.2890 C   0  0  0  0  0  0  0  0  0  0  0  0
   64.5220   33.3450   50.1270 C   0  0  0  0  0  0  0  0  0  0  0  0
   65.8120   32.8830   49.7980 C   0  0  0  0  0  0  0  0  0  0  0  0
   66.9190   33.2480   50.5680 C   0  0  0  0  0  0  0  0  0  0  0  0
   66.7570   34.0820   51.6750 C   0  0  0  0  0  0  0  0  0  0  0  0
   65.4880   34.5530   52.0130 C   0  0  0  0  0  0  0  0  0  0  0  0
   65.3330   35.3660   53.0870 F   0  0  0  0  0  0  0  0  0  0  0  0
   64.3750   34.1910   51.2460 C   0  0  0  0  0  0  0  0  0  0  0  0
   63.4980   32.6260   47.8690 N   0  0  1  0  0  0  0  0  0  0  0  0
   63.1580   31.2170   47.5110 C   0  0  0  0  0  0  0  0  0  0  0  0
   61.7210   31.0250   46.9730 C   0  0  0  0  0  0  0  0  0  0  0  0
   60.7550   32.0570   47.5500 C   0  0  0  0  0  0  0  0  0  0  0  0
   61.2040   33.5150   47.2170 C   0  0  2  0  0  0  0  0  0  0  0  0
   60.6980   34.4830   48.2970 C   0  0  0  0  0  0  0  0  0  0  0  0
   59.2920   34.8310   47.8500 C   0  0  0  0  0  0  0  0  0  0  0  0
   59.3130   34.8130   46.3850 N   0  0  0  0  0  0  0  0  0  0  0  0
   58.0250   34.4910   45.7280 C   0  0  0  0  0  0  0  0  0  0  0  0
   57.9350   33.0920   45.1470 C   0  0  0  0  0  0  0  0  0  0  0  0
   57.8670   32.8990   43.7540 C   0  0  0  0  0  0  0  0  0  0  0  0
   57.7830   31.6100   43.2220 C   0  0  0  0  0  0  0  0  0  0  0  0
   57.7390   30.5020   44.0710 C   0  0  0  0  0  0  0  0  0  0  0  0
   57.7630   30.6830   45.4560 C   0  0  0  0  0  0  0  0  0  0  0  0
   57.8480   31.9720   45.9930 C   0  0  0  0  0  0  0  0  0  0  0  0
   60.4810   34.0310   45.9510 C   0  0  0  0  0  0  0  0  0  0  0  0
   62.7560   33.5970   47.0310 C   0  0  0  0  0  0  0  0  0  0  0  0
   65.9488   32.2277   48.9252 H   0  0  0  0  0  0  0  0  0  0  0  0
   67.9198   32.8775   50.3013 H   0  0  0  0  0  0  0  0  0  0  0  0
   67.6295   34.3679   52.2809 H   0  0  0  0  0  0  0  0  0  0  0  0
   63.3783   34.5689   51.5177 H   0  0  0  0  0  0  0  0  0  0  0  0
   64.5130   32.7300   47.6390 H   0  0  0  0  0  0  0  0  0  0  0  0
   63.8633   30.8785   46.7377 H   0  0  0  0  0  0  0  0  0  0  0  0
   63.2271   30.6311   48.4394 H   0  0  0  0  0  0  0  0  0  0  0  0
   61.7350   31.1243   45.8776 H   0  0  0  0  0  0  0  0  0  0  0  0
   61.3740   30.0261   47.2759 H   0  0  0  0  0  0  0  0  0  0  0  0
   59.7547   31.8859   47.1255 H   0  0  0  0  0  0  0  0  0  0  0  0
   60.7428   31.9425   48.6440 H   0  0  0  0  0  0  0  0  0  0  0  0
   60.6852   33.9960   49.2832 H   0  0  0  0  0  0  0  0  0  0  0  0
   61.3395   35.3702   48.4037 H   0  0  0  0  0  0  0  0  0  0  0  0
   58.5759   34.0876   48.2303 H   0  0  0  0  0  0  0  0  0  0  0  0
   58.9806   35.8134   48.2345 H   0  0  0  0  0  0  0  0  0  0  0  0
   57.2239   34.6034   46.4734 H   0  0  0  0  0  0  0  0  0  0  0  0
   57.9307   35.1838   44.8788 H   0  0  0  0  0  0  0  0  0  0  0  0
   57.8801   33.7685   43.0804 H   0  0  0  0  0  0  0  0  0  0  0  0
   57.7514   31.4674   42.1317 H   0  0  0  0  0  0  0  0  0  0  0  0
   57.6855   29.4874   43.6494 H   0  0  0  0  0  0  0  0  0  0  0  0
   57.7150   29.8111   46.1250 H   0  0  0  0  0  0  0  0  0  0  0  0
   57.8468   32.1104   47.0843 H   0  0  0  0  0  0  0  0  0  0  0  0
   60.1536   33.1807   45.3348 H   0  0  0  0  0  0  0  0  0  0  0  0
   61.1586   34.6554   45.3502 H   0  0  0  0  0  0  0  0  0  0  0  0
   62.9922   33.3992   45.9750 H   0  0  0  0  0  0  0  0  0  0  0  0
   63.0692   34.6040   47.3437 H   0  0  0  0  0  0  0  0  0  0  0  0
  1  2  2  0
  2  3  1  0
  3  4  2  0
  4  5  1  0
  5  6  2  0
  6  7  1  0
  7  8  1  0
  7  9  2  0
  2 10  1  0
 10 11  1  0
 11 12  1  0
 12 13  1  0
 14 13  1  1
 14 15  1  0
 15 16  1  0
 16 17  1  0
 17 18  1  0
 18 19  1  0
 19 20  2  0
 20 21  1  0
 21 22  2  0
 22 23  1  0
 23 24  2  0
 17 25  1  0
 14 26  1  0
  9  3  1  0
 26 10  1  0
 25 14  1  0
 24 19  1  0
  4 27  1  0
  5 28  1  0
  6 29  1  0
  9 30  1  0
 10 31  1  6
 11 32  1  0
 11 33  1  0
 12 34  1  0
 12 35  1  0
 13 36  1  0
 13 37  1  0
 15 38  1  0
 15 39  1  0
 16 40  1  0
 16 41  1  0
 18 42  1  0
 18 43  1  0
 20 44  1  0
 21 45  1  0
 22 46  1  0
 23 47  1  0
 24 48  1  0
 25 49  1  0
 25 50  1  0
 26 51  1  0
 26 52  1  0
M  CHG  1  10   1
M  END
>  <UniqueID>  (34) 
29

>  <SMILES>  (34) 
O=C(c1cccc(F)c1)[N@H+]1CCC[C@@]2(CCN(Cc3ccccc3)C2)C1

>  <Energy>  (34) 
80.61489680219859

>  <Genealogy>  (34) 
O=C(c1cccc(F)c1)[NH+]1CCCC2(CCN(Cc3ccccc3)C2)C1 (protonated)
O=C(c1cccc(F)c1)[N@H+]1CCC[C@@]2(CCN(Cc3ccccc3)C2)C1 (chirality)
O=C(c1cccc(F)c1)[N@H+]1CCC[C@@]2(CCN(Cc3ccccc3)C2)C1 (3D coordinates assigned)
O=C(c1cccc(F)c1)[N@H+]1CCC[C@@]2(CCN(Cc3ccccc3)C2)C1 (nonaromatic ring conformer: 80.61489680219859 kcal/mol)

>  <smiles>  (34) 
O=C(c1cccc(F)c1)N1CCCC2(CCN(Cc3ccccc3)C2)C1

>  <score_type>  (34) 
oracle

>  <origin>  (34) 
adg

>  <m_score__min__energy>  (34) 
-7.6399999999999997

>  <m_primary>  (34) 
energy

$$$$
34:0
     RDKit          3D

 51 52  0  0  0  0  0  0  0  0999 V2000
   54.5570   24.0870   45.0110 C   0  0  0  0  0  0  0  0  0  0  0  0
   55.0670   24.5630   46.2520 O   0  0  0  0  0  0  0  0  0  0  0  0
   56.2530   25.3010   46.3880 C   0  0  0  0  0  0  0  0  0  0  0  0
   57.4550   24.6010   46.5510 C   0  0  0  0  0  0  0  0  0  0  0  0
   58.6600   25.2890   46.7170 C   0  0  0  0  0  0  0  0  0  0  0  0
   58.6850   26.6870   46.7180 C   0  0  0  0  0  0  0  0  0  0  0  0
   59.9170   27.3350   46.8910 O   0  0  0  0  0  0  0  0  0  0  0  0
   60.1020   28.4940   47.6560 C   0  0  0  0  0  0  0  0  0  0  0  0
   60.6070   28.3710   48.9170 N   0  0  0  0  0  0  0  0  0  0  0  0
   60.8180   29.4530   49.7140 C   0  0  0  0  0  0  0  0  0  0  0  0
   60.5080   30.7330   49.2560 C   0  0  0  0  0  0  0  0  0  0  0  0
   59.9740   30.8910   47.9780 C   0  0  0  0  0  0  0  0  0  0  0  0
   59.7520   29.7720   47.1610 C   0  0  0  0  0  0  0  0  0  0  0  0
   59.1600   29.9740   45.7920 C   0  0  0  0  0  0  0  0  0  0  0  0
   57.7600   30.3630   45.9300 N   0  0  0  0  0  0  0  0  0  0  0  0
   56.8730   29.9600   44.4920 S   0  0  0  0  0  0  0  0  0  0  0  0
   57.3550   28.6480   43.9340 O   0  0  0  0  0  0  0  0  0  0  0  0
   55.4190   29.8240   44.8540 O   0  0  0  0  0  0  0  0  0  0  0  0
   57.0340   31.2720   43.2850 C   0  0  0  0  0  0  0  0  0  0  0  0
   57.8190   32.4680   43.8370 C   0  0  0  0  0  0  0  0  0  0  0  0
   57.0660   33.1670   44.9800 C   0  0  0  0  0  0  0  0  0  0  0  0
   57.9340   34.1240   45.7010 N   0  0  0  0  0  0  0  0  0  0  0  0
   59.2350   34.2790   45.0260 C   0  0  0  0  0  0  0  0  0  0  0  0
   58.1510   33.6700   47.0830 C   0  0  0  0  0  0  0  0  0  0  0  0
   57.4840   27.3960   46.5290 C   0  0  0  0  0  0  0  0  0  0  0  0
   56.2760   26.7080   46.3710 C   0  0  0  0  0  0  0  0  0  0  0  0
   53.7647   23.3476   45.1996 H   0  0  0  0  0  0  0  0  0  0  0  0
   54.1433   24.9294   44.4373 H   0  0  0  0  0  0  0  0  0  0  0  0
   55.3689   23.6162   44.4373 H   0  0  0  0  0  0  0  0  0  0  0  0
   57.4506   23.5010   46.5483 H   0  0  0  0  0  0  0  0  0  0  0  0
   59.5961   24.7264   46.8479 H   0  0  0  0  0  0  0  0  0  0  0  0
   60.8520   27.4220   49.2780 H   0  0  0  0  0  0  0  0  0  0  0  0
   61.2345   29.3177   50.7231 H   0  0  0  0  0  0  0  0  0  0  0  0
   60.6831   31.6097   49.8969 H   0  0  0  0  0  0  0  0  0  0  0  0
   59.7257   31.8969   47.6086 H   0  0  0  0  0  0  0  0  0  0  0  0
   59.7122   30.7661   45.2651 H   0  0  0  0  0  0  0  0  0  0  0  0
   59.2300   29.0393   45.2162 H   0  0  0  0  0  0  0  0  0  0  0  0
   57.5595   30.8795   42.4019 H   0  0  0  0  0  0  0  0  0  0  0  0
   56.0234   31.6200   43.0250 H   0  0  0  0  0  0  0  0  0  0  0  0
   58.7894   32.1132   44.2146 H   0  0  0  0  0  0  0  0  0  0  0  0
   57.9533   33.1943   43.0218 H   0  0  0  0  0  0  0  0  0  0  0  0
   56.2066   33.7108   44.5609 H   0  0  0  0  0  0  0  0  0  0  0  0
   56.7352   32.3983   45.6939 H   0  0  0  0  0  0  0  0  0  0  0  0
   60.0303   34.3737   45.7800 H   0  0  0  0  0  0  0  0  0  0  0  0
   59.4291   33.3976   44.3971 H   0  0  0  0  0  0  0  0  0  0  0  0
   59.2166   35.1813   44.3971 H   0  0  0  0  0  0  0  0  0  0  0  0
   57.7848   34.4360   47.7824 H   0  0  0  0  0  0  0  0  0  0  0  0
   57.6049   32.7299   47.2501 H   0  0  0  0  0  0  0  0  0  0  0  0
   59.2256   33.5045   47.2501 H   0  0  0  0  0  0  0  0  0  0  0  0
   57.4951   28.4957   46.5054 H   0  0  0  0  0  0  0  0  0  0  0  0
   55.3401   27.2693   46.2329 H   0  0  0  0  0  0  0  0  0  0  0  0
  1  2  1  0
  2  3  1  0
  3  4  2  0
  4  5  1  0
  5  6  2  0
  6  7  1  0
  7  8  1  0
  8  9  2  0
  9 10  1  0
 10 11  2  0
 11 12  1  0
 12 13  2  0
 13 14  1  0
 14 15  1  0
 15 16  1  0
 16 17  2  0
 16 18  2  0
 16 19  1  0
 19 20  1  0
 20 21  1  0
 21 22  1  0
 22 23  1  0
 22 24  1  0
  6 25  1  0
 25 26  2  0
 26  3  1  0
 13  8  1  0
  1 27  1  0
  1 28  1  0
  1 29  1  0
  4 30  1  0
  5 31  1  0
  9 32  1  0
 10 33  1  0
 11 34  1  0
 12 35  1  0
 14 36  1  0
 14 37  1  0
 19 38  1  0
 19 39  1  0
 20 40  1  0
 20 41  1  0
 21 42  1  0
 21 43  1  0
 23 44  1  0
 23 45  1  0
 23 46  1  0
 24 47  1  0
 24 48  1  0
 24 49  1  0
 25 50  1  0
 26 51  1  0
M  CHG  2   9   1  15  -1
M  END
>  <UniqueID>  (35) 
30

>  <SMILES>  (35) 
COc1ccc(Oc2[nH+]cccc2C[N-]S(=O)(=O)CCCN(C)C)cc1

>  <Energy>  (35) 
46.14368250559961

>  <Genealogy>  (35) 
COc1ccc(Oc2[nH+]cccc2C[N-]S(=O)(=O)CCCN(C)C)cc1 (protonated)
COc1ccc(Oc2[nH+]cccc2C[N-]S(=O)(=O)CCCN(C)C)cc1 (3D coordinates assigned)
COc1ccc(Oc2[nH+]cccc2C[N-]S(=O)(=O)CCCN(C)C)cc1 (optimized conformer: 46.14368250559961 kcal/mol)

>  <smiles>  (35) 
COc1ccc(Oc2ncccc2CNS(=O)(=O)CCCN(C)C)cc1

>  <score_type>  (35) 
oracle

>  <origin>  (35) 
adg

>  <m_score__min__energy>  (35) 
-7.1600000000000001

>  <m_primary>  (35) 
energy

$$$$
35:0
     RDKit          3D

 48 51  0  0  0  0  0  0  0  0999 V2000
   56.7240   25.8740   46.7320 C   0  0  0  0  0  0  0  0  0  0  0  0
   56.9960   26.7990   45.5890 C   0  0  0  0  0  0  0  0  0  0  0  0
   57.7440   26.3630   44.4880 C   0  0  0  0  0  0  0  0  0  0  0  0
   57.9840   27.2440   43.4330 C   0  0  0  0  0  0  0  0  0  0  0  0
   57.4780   28.5440   43.4840 C   0  0  0  0  0  0  0  0  0  0  0  0
   56.7330   28.9520   44.5970 C   0  0  0  0  0  0  0  0  0  0  0  0
   56.2660   30.1670   44.6390 N   0  0  0  0  0  0  0  0  0  0  0  0
   57.0260   31.3800   44.7560 C   0  0  0  0  0  0  0  0  0  0  0  0
   57.1000   32.1960   43.7960 O   0  0  0  0  0  0  0  0  0  0  0  0
   57.7370   31.6380   45.9740 N   0  0  0  0  0  0  0  0  0  0  0  0
   58.4070   32.8770   46.2530 C   0  0  0  0  0  0  0  0  0  0  0  0
   59.0050   33.5780   45.1950 C   0  0  0  0  0  0  0  0  0  0  0  0
   59.6730   34.7810   45.4300 C   0  0  0  0  0  0  0  0  0  0  0  0
   59.7610   35.2890   46.7270 C   0  0  0  0  0  0  0  0  0  0  0  0
   59.1940   34.5890   47.7940 C   0  0  0  0  0  0  0  0  0  0  0  0
   58.5270   33.3660   47.5730 C   0  0  0  0  0  0  0  0  0  0  0  0
   57.9970   32.6050   48.6290 O   0  0  0  0  0  0  0  0  0  0  0  0
   58.7580   31.9230   49.6260 C   0  0  0  0  0  0  0  0  0  0  0  0
   59.2690   30.6140   49.1010 C   0  0  0  0  0  0  0  0  0  0  0  0
   59.6180   29.5850   49.9750 C   0  0  0  0  0  0  0  0  0  0  0  0
   60.0840   28.3780   49.4490 C   0  0  0  0  0  0  0  0  0  0  0  0
   60.3950   27.4490   50.2450 O   0  0  0  0  0  0  0  0  0  0  0  0
   60.1980   28.2150   48.0900 N   0  0  0  0  0  0  0  0  0  0  0  0
   60.6540   27.0330   47.5610 C   0  0  0  0  0  0  0  0  0  0  0  0
   60.7710   26.8680   46.1790 C   0  0  0  0  0  0  0  0  0  0  0  0
   60.4220   27.9140   45.3290 C   0  0  0  0  0  0  0  0  0  0  0  0
   59.9590   29.1120   45.8640 C   0  0  0  0  0  0  0  0  0  0  0  0
   59.8510   29.2530   47.2520 C   0  0  0  0  0  0  0  0  0  0  0  0
   59.3970   30.4260   47.7640 N   0  0  0  0  0  0  0  0  0  0  0  0
   56.5130   28.0710   45.6150 N   0  0  0  0  0  0  0  0  0  0  0  0
   56.8809   26.4077   47.6810 H   0  0  0  0  0  0  0  0  0  0  0  0
   55.6838   25.5203   46.6779 H   0  0  0  0  0  0  0  0  0  0  0  0
   57.4071   25.0135   46.6779 H   0  0  0  0  0  0  0  0  0  0  0  0
   58.1382   25.3366   44.4554 H   0  0  0  0  0  0  0  0  0  0  0  0
   58.5708   26.9148   42.5628 H   0  0  0  0  0  0  0  0  0  0  0  0
   57.6634   29.2432   42.6553 H   0  0  0  0  0  0  0  0  0  0  0  0
   57.8890   30.8360   46.6280 H   0  0  0  0  0  0  0  0  0  0  0  0
   58.9470   33.1766   44.1725 H   0  0  0  0  0  0  0  0  0  0  0  0
   60.1302   35.3287   44.5927 H   0  0  0  0  0  0  0  0  0  0  0  0
   60.2780   36.2427   46.9091 H   0  0  0  0  0  0  0  0  0  0  0  0
   59.2680   34.9942   48.8140 H   0  0  0  0  0  0  0  0  0  0  0  0
   59.6113   32.5513   49.9213 H   0  0  0  0  0  0  0  0  0  0  0  0
   58.1097   31.7271   50.4928 H   0  0  0  0  0  0  0  0  0  0  0  0
   59.5276   29.7219   51.0627 H   0  0  0  0  0  0  0  0  0  0  0  0
   60.9302   26.2070   48.2328 H   0  0  0  0  0  0  0  0  0  0  0  0
   61.1368   25.9170   45.7645 H   0  0  0  0  0  0  0  0  0  0  0  0
   60.5119   27.7938   44.2393 H   0  0  0  0  0  0  0  0  0  0  0  0
   59.6796   29.9432   45.1999 H   0  0  0  0  0  0  0  0  0  0  0  0
  1  2  1  0
  2  3  2  0
  3  4  1  0
  4  5  2  0
  5  6  1  0
  6  7  2  3
  7  8  1  0
  8  9  2  0
  8 10  1  0
 10 11  1  0
 11 12  2  0
 12 13  1  0
 13 14  2  0
 14 15  1  0
 15 16  2  0
 16 17  1  0
 17 18  1  0
 18 19  1  0
 19 20  2  0
 20 21  1  0
 21 22  2  0
 21 23  1  0
 23 24  1  0
 24 25  2  0
 25 26  1  0
 26 27  2  0
 27 28  1  0
 28 29  2  0
  6 30  1  0
 30  2  1  0
 16 11  1  0
 29 19  1  0
 28 23  1  0
  1 31  1  0
  1 32  1  0
  1 33  1  0
  3 34  1  0
  4 35  1  0
  5 36  1  0
 10 37  1  0
 12 38  1  0
 13 39  1  0
 14 40  1  0
 15 41  1  0
 18 42  1  0
 18 43  1  0
 20 44  1  0
 24 45  1  0
 25 46  1  0
 26 47  1  0
 27 48  1  0
M  CHG  1  30  -1
M  END
>  <UniqueID>  (36) 
31

>  <SMILES>  (36) 
Cc1cccc(=NC(=O)Nc2ccccc2OCc2cc(=O)n3ccccc3n2)[n-]1

>  <Energy>  (36) 
63.790268071663675

>  <Genealogy>  (36) 
Cc1cccc(=NC(=O)Nc2ccccc2OCc2cc(=O)n3ccccc3n2)[n-]1 (protonated)
Cc1cccc(=NC(=O)Nc2ccccc2OCc2cc(=O)n3ccccc3n2)[n-]1 (3D coordinates assigned)
Cc1cccc(=NC(=O)Nc2ccccc2OCc2cc(=O)n3ccccc3n2)[n-]1 (optimized conformer: 63.790268071663675 kcal/mol)

>  <smiles>  (36) 
Cc1cccc(=NC(=O)Nc2ccccc2OCc2cc(=O)n3ccccc3n2)[nH]1

>  <score_type>  (36) 
oracle

>  <origin>  (36) 
adg

>  <m_score__min__energy>  (36) 
-9.5399999999999991

>  <m_primary>  (36) 
energy

$$$$
36:0
     RDKit          3D

 46 48  0  0  1  0  0  0  0  0999 V2000
   64.1180   30.6710   50.9460 N   0  0  0  0  0  0  0  0  0  0  0  0
   65.3910   31.3050   50.9400 C   0  0  0  0  0  0  0  0  0  0  0  0
   66.3340   30.8330   51.8200 C   0  0  0  0  0  0  0  0  0  0  0  0
   67.6020   31.3670   51.9060 C   0  0  0  0  0  0  0  0  0  0  0  0
   67.8930   32.4140   51.0580 C   0  0  0  0  0  0  0  0  0  0  0  0
   66.9260   32.8900   50.1640 C   0  0  0  0  0  0  0  0  0  0  0  0
   65.6760   32.3720   50.0720 C   0  0  0  0  0  0  0  0  0  0  0  0
   64.6490   32.7890   49.2040 N   0  0  0  0  0  0  0  0  0  0  0  0
   63.3840   33.2930   49.5700 C   0  0  0  0  0  0  0  0  0  0  0  0
   63.0680   33.4120   50.7590 O   0  0  0  0  0  0  0  0  0  0  0  0
   62.3750   33.7040   48.5780 C   0  0  0  0  0  0  0  0  0  0  0  0
   61.1540   34.1740   49.0460 C   0  0  0  0  0  0  0  0  0  0  0  0
   60.1520   34.5800   48.1760 C   0  0  0  0  0  0  0  0  0  0  0  0
   60.3520   34.5240   46.8120 C   0  0  0  0  0  0  0  0  0  0  0  0
   59.2470   34.9700   45.9320 C   0  0  0  0  0  0  0  0  0  0  0  0
   59.0920   34.1440   44.7740 N   0  0  0  0  0  0  0  0  0  0  0  0
   58.5860   32.9600   44.8530 C   0  0  0  0  0  0  0  0  0  0  0  0
   59.0730   31.9770   45.6080 N   0  0  0  0  0  0  0  0  0  0  0  0
   58.5590   30.7550   45.6960 C   0  0  0  0  0  0  0  0  0  0  0  0
   57.4320   30.4470   44.9610 C   0  0  0  0  0  0  0  0  0  0  0  0
   56.8950   29.1190   45.0720 C   0  0  0  0  0  0  0  0  0  0  0  0
   55.5110   28.9230   44.8830 O   0  0  0  0  0  0  0  0  0  0  0  0
   57.5570   28.0500   45.3320 N   0  0  0  0  0  0  0  0  0  0  0  0
   57.1110   26.7850   45.2040 O   0  0  0  0  0  0  0  0  0  0  0  0
   56.9240   31.4580   44.1800 C   0  0  0  0  0  0  0  0  0  0  0  0
   57.4880   32.6960   44.1230 N   0  0  0  0  0  0  0  0  0  0  0  0
   61.5610   34.0600   46.3520 C   0  0  0  0  0  0  0  0  0  0  0  0
   62.5590   33.6550   47.2360 C   0  0  0  0  0  0  0  0  0  0  0  0
   64.0190   29.6280   50.8920 H   0  0  0  0  0  0  0  0  0  0  0  0
   63.2340   31.2590   51.0070 H   0  0  0  0  0  0  0  0  0  0  0  0
   66.0670   29.9961   52.4821 H   0  0  0  0  0  0  0  0  0  0  0  0
   68.3453   30.9766   52.6167 H   0  0  0  0  0  0  0  0  0  0  0  0
   68.8900   32.8780   51.0837 H   0  0  0  0  0  0  0  0  0  0  0  0
   67.1940   33.7270   49.5024 H   0  0  0  0  0  0  0  0  0  0  0  0
   64.8270   32.7250   48.1590 H   0  0  0  0  0  0  0  0  0  0  0  0
   60.9777   34.2254   50.1306 H   0  0  0  0  0  0  0  0  0  0  0  0
   59.1952   34.9477   48.5751 H   0  0  0  0  0  0  0  0  0  0  0  0
   58.3095   34.9486   46.5069 H   0  0  0  0  0  0  0  0  0  0  0  0
   59.4897   35.9850   45.5845 H   0  0  0  0  0  0  0  0  0  0  0  0
   59.0250   29.9993   46.3455 H   0  0  0  0  0  0  0  0  0  0  0  0
   55.1320   27.9650   44.8700 H   0  0  0  0  0  0  0  0  0  0  0  0
   56.4800   26.4240   44.4990 H   0  0  0  0  0  0  0  0  0  0  0  0
   56.0259   31.2588   43.5770 H   0  0  0  0  0  0  0  0  0  0  0  0
   57.0800   33.4470   43.5200 H   0  0  0  0  0  0  0  0  0  0  0  0
   61.7438   34.0075   45.2686 H   0  0  0  0  0  0  0  0  0  0  0  0
   63.5159   33.2879   46.8365 H   0  0  0  0  0  0  0  0  0  0  0  0
  1  2  1  0
  2  3  2  0
  3  4  1  0
  4  5  2  0
  5  6  1  0
  6  7  2  0
  7  8  1  0
  8  9  1  0
  9 10  2  0
  9 11  1  0
 11 12  2  0
 12 13  1  0
 13 14  2  0
 14 15  1  0
 15 16  1  0
 16 17  2  3
 17 18  1  0
 18 19  2  0
 19 20  1  0
 20 21  1  0
 21 22  1  0
 21 23  2  0
 23 24  1  0
 20 25  2  0
 25 26  1  0
 14 27  1  0
 27 28  2  0
  7  2  1  0
 28 11  1  0
 26 17  1  0
  1 29  1  0
  1 30  1  0
  3 31  1  0
  4 32  1  0
  5 33  1  0
  6 34  1  0
  8 35  1  0
 12 36  1  0
 13 37  1  0
 15 38  1  0
 15 39  1  0
 19 40  1  0
 22 41  1  0
 24 42  1  0
 25 43  1  0
 26 44  1  0
 27 45  1  0
 28 46  1  0
M  END
>  <smiles>  (37) 
Nc1ccccc1NC(=O)c1ccc(CN=c2ncc(C(O)=NO)c[nH]2)cc1

>  <score_type>  (37) 
oracle

>  <origin>  (37) 
adg

>  <m_score__min__energy>  (37) 
-9.0800000000000001

>  <m_primary>  (37) 
energy

$$$$
37:0
     RDKit          3D

 62 65  0  0  0  0  0  0  0  0999 V2000
   59.8440   27.2010   46.0730 C   0  0  0  0  0  0  0  0  0  0  0  0
   59.6570   28.4210   46.9330 C   0  0  0  0  0  0  0  0  0  0  0  0
   60.4630   28.6080   48.0680 C   0  0  0  0  0  0  0  0  0  0  0  0
   60.3070   29.7410   48.8690 C   0  0  0  0  0  0  0  0  0  0  0  0
   59.3460   30.7040   48.5440 C   0  0  0  0  0  0  0  0  0  0  0  0
   59.1940   32.1860   49.4780 S   0  0  0  0  0  0  0  0  0  0  0  0
   57.7760   32.3230   49.9560 O   0  0  0  0  0  0  0  0  0  0  0  0
   60.1010   32.1580   50.6770 O   0  0  0  0  0  0  0  0  0  0  0  0
   59.6130   33.5360   48.4670 N   0  0  0  0  0  0  0  0  0  0  0  0
   60.5670   34.5450   48.9360 C   0  0  0  0  0  0  0  0  0  0  0  0
   61.9620   33.9800   48.9660 C   0  0  0  0  0  0  0  0  0  0  0  0
   62.7040   33.9880   50.1590 C   0  0  0  0  0  0  0  0  0  0  0  0
   63.9710   33.4030   50.2040 C   0  0  0  0  0  0  0  0  0  0  0  0
   64.5110   32.8120   49.0590 C   0  0  0  0  0  0  0  0  0  0  0  0
   63.7830   32.8050   47.8660 C   0  0  0  0  0  0  0  0  0  0  0  0
   62.5120   33.3860   47.8180 C   0  0  0  0  0  0  0  0  0  0  0  0
   58.9840   33.6760   47.1880 C   0  0  0  0  0  0  0  0  0  0  0  0
   57.6080   33.4410   47.0410 C   0  0  0  0  0  0  0  0  0  0  0  0
   57.0010   33.5780   45.7900 C   0  0  0  0  0  0  0  0  0  0  0  0
   57.7600   33.9620   44.6820 C   0  0  0  0  0  0  0  0  0  0  0  0
   59.1290   34.2040   44.8230 C   0  0  0  0  0  0  0  0  0  0  0  0
   59.7410   34.0630   46.0730 C   0  0  0  0  0  0  0  0  0  0  0  0
   58.5240   30.5110   47.4290 C   0  0  0  0  0  0  0  0  0  0  0  0
   58.6570   29.3650   46.6270 C   0  0  0  0  0  0  0  0  0  0  0  0
   57.8360   29.1760   45.4620 N   0  0  0  0  0  0  0  0  0  0  0  0
   56.6150   28.4270   45.3990 C   0  0  0  0  0  0  0  0  0  0  0  0
   55.5620   28.9540   44.9480 O   0  0  0  0  0  0  0  0  0  0  0  0
   56.5980   27.0070   45.8770 C   0  0  0  0  0  0  0  0  0  0  0  0
   55.2310   26.4980   45.9690 N   0  0  0  0  0  0  0  0  0  0  0  0
   54.8030   25.1610   45.6650 C   0  0  0  0  0  0  0  0  0  0  0  0
   53.6060   24.8420   45.8990 O   0  0  0  0  0  0  0  0  0  0  0  0
   55.7080   24.1540   45.0770 C   0  0  0  0  0  0  0  0  0  0  0  0
   55.4700   23.6350   43.7930 C   0  0  0  0  0  0  0  0  0  0  0  0
   56.3440   22.6930   43.2420 C   0  0  0  0  0  0  0  0  0  0  0  0
   57.4690   22.2770   43.9590 C   0  0  0  0  0  0  0  0  0  0  0  0
   57.7230   22.8040   45.2270 C   0  0  0  0  0  0  0  0  0  0  0  0
   56.8520   23.7450   45.7830 C   0  0  0  0  0  0  0  0  0  0  0  0
   59.9794   26.3176   46.7143 H   0  0  0  0  0  0  0  0  0  0  0  0
   58.9569   27.0606   45.4379 H   0  0  0  0  0  0  0  0  0  0  0  0
   60.7324   27.3327   45.4379 H   0  0  0  0  0  0  0  0  0  0  0  0
   61.2228   27.8562   48.3278 H   0  0  0  0  0  0  0  0  0  0  0  0
   60.9412   29.8765   49.7575 H   0  0  0  0  0  0  0  0  0  0  0  0
   60.5416   35.4101   48.2570 H   0  0  0  0  0  0  0  0  0  0  0  0
   60.2865   34.8528   49.9541 H   0  0  0  0  0  0  0  0  0  0  0  0
   62.2850   34.4571   51.0614 H   0  0  0  0  0  0  0  0  0  0  0  0
   64.5449   33.4075   51.1424 H   0  0  0  0  0  0  0  0  0  0  0  0
   65.5095   32.3520   49.0965 H   0  0  0  0  0  0  0  0  0  0  0  0
   64.2102   32.3421   46.9642 H   0  0  0  0  0  0  0  0  0  0  0  0
   61.9408   33.3779   46.8779 H   0  0  0  0  0  0  0  0  0  0  0  0
   57.0056   33.1480   47.9135 H   0  0  0  0  0  0  0  0  0  0  0  0
   55.9242   33.3832   45.6775 H   0  0  0  0  0  0  0  0  0  0  0  0
   57.2801   34.0739   43.6986 H   0  0  0  0  0  0  0  0  0  0  0  0
   59.7262   34.5058   43.9499 H   0  0  0  0  0  0  0  0  0  0  0  0
   60.8185   34.2562   46.1814 H   0  0  0  0  0  0  0  0  0  0  0  0
   57.7642   31.2655   47.1769 H   0  0  0  0  0  0  0  0  0  0  0  0
   57.1665   26.3837   45.1711 H   0  0  0  0  0  0  0  0  0  0  0  0
   57.0521   26.9704   46.8782 H   0  0  0  0  0  0  0  0  0  0  0  0
   54.5934   23.9709   43.2196 H   0  0  0  0  0  0  0  0  0  0  0  0
   56.1457   22.2787   42.2425 H   0  0  0  0  0  0  0  0  0  0  0  0
   58.1545   21.5344   43.5246 H   0  0  0  0  0  0  0  0  0  0  0  0
   58.6104   22.4778   45.7893 H   0  0  0  0  0  0  0  0  0  0  0  0
   57.0628   24.1669   46.7768 H   0  0  0  0  0  0  0  0  0  0  0  0
  1  2  1  0
  2  3  2  0
  3  4  1  0
  4  5  2  0
  5  6  1  0
  6  7  2  0
  6  8  2  0
  6  9  1  0
  9 10  1  0
 10 11  1  0
 11 12  2  0
 12 13  1  0
 13 14  2  0
 14 15  1  0
 15 16  2  0
  9 17  1  0
 17 18  2  0
 18 19  1  0
 19 20  2  0
 20 21  1  0
 21 22  2  0
  5 23  1  0
 23 24  2  0
 24 25  1  0
 25 26  1  0
 26 27  2  0
 26 28  1  0
 28 29  1  0
 29 30  1  0
 30 31  2  0
 30 32  1  0
 32 33  2  0
 33 34  1  0
 34 35  2  0
 35 36  1  0
 36 37  2  0
 24  2  1  0
 37 32  1  0
 16 11  1  0
 22 17  1  0
  1 38  1  0
  1 39  1  0
  1 40  1  0
  3 41  1  0
  4 42  1  0
 10 43  1  0
 10 44  1  0
 12 45  1  0
 13 46  1  0
 14 47  1  0
 15 48  1  0
 16 49  1  0
 18 50  1  0
 19 51  1  0
 20 52  1  0
 21 53  1  0
 22 54  1  0
 23 55  1  0
 28 56  1  0
 28 57  1  0
 33 58  1  0
 34 59  1  0
 35 60  1  0
 36 61  1  0
 37 62  1  0
M  CHG  2  25  -1  29  -1
M  END
>  <UniqueID>  (38) 
32

>  <SMILES>  (38) 
Cc1ccc(S(=O)(=O)N(Cc2ccccc2)c2ccccc2)cc1[N-]C(=O)C[N-]C(=O)c1ccccc1

>  <Energy>  (38) 
74.26880331326173

>  <Genealogy>  (38) 
Cc1ccc(S(=O)(=O)N(Cc2ccccc2)c2ccccc2)cc1[N-]C(=O)C[N-]C(=O)c1ccccc1 (protonated)
Cc1ccc(S(=O)(=O)N(Cc2ccccc2)c2ccccc2)cc1[N-]C(=O)C[N-]C(=O)c1ccccc1 (3D coordinates assigned)
Cc1ccc(S(=O)(=O)N(Cc2ccccc2)c2ccccc2)cc1[N-]C(=O)C[N-]C(=O)c1ccccc1 (optimized conformer: 74.26880331326173 kcal/mol)

>  <smiles>  (38) 
Cc1ccc(S(=O)(=O)N(Cc2ccccc2)c2ccccc2)cc1NC(=O)CNC(=O)c1ccccc1

>  <score_type>  (38) 
oracle

>  <origin>  (38) 
adg

>  <m_score__min__energy>  (38) 
-14.960000000000001

>  <m_primary>  (38) 
energy

$$$$
38:0
     RDKit          3D

 39 41  0  0  0  0  0  0  0  0999 V2000
   62.5670   33.8250   46.5330 C   0  0  0  0  0  0  0  0  0  0  0  0
   61.3530   33.1670   47.1100 C   0  0  0  0  0  0  0  0  0  0  0  0
   61.3870   31.9400   47.6700 N   0  0  0  0  0  0  0  0  0  0  0  0
   60.1070   31.6950   48.0160 C   0  0  0  0  0  0  0  0  0  0  0  0
   59.3180   32.7630   47.6550 C   0  0  0  0  0  0  0  0  0  0  0  0
   60.1060   33.6880   47.0790 N   0  0  0  0  0  0  0  0  0  0  0  0
   59.6630   34.9680   46.5190 C   0  0  0  0  0  0  0  0  0  0  0  0
   59.2410   34.8380   45.0470 C   0  0  0  0  0  0  0  0  0  0  0  0
   57.7530   34.4970   44.8730 C   0  0  0  0  0  0  0  0  0  0  0  0
   57.4630   33.1180   45.2680 N   0  0  0  0  0  0  0  0  0  0  0  0
   57.7580   32.0120   44.4050 C   0  0  0  0  0  0  0  0  0  0  0  0
   58.2980   32.2180   43.2840 O   0  0  0  0  0  0  0  0  0  0  0  0
   57.3530   30.6440   44.7980 C   0  0  0  0  0  0  0  0  0  0  0  0
   56.0230   30.3600   44.7910 N   0  0  0  0  0  0  0  0  0  0  0  0
   55.5500   29.1470   45.0690 N   0  0  0  0  0  0  0  0  0  0  0  0
   56.3720   28.1150   45.3770 C   0  0  0  0  0  0  0  0  0  0  0  0
   55.8740   26.9830   45.6210 O   0  0  0  0  0  0  0  0  0  0  0  0
   57.7590   28.3250   45.4260 C   0  0  0  0  0  0  0  0  0  0  0  0
   58.6430   27.2810   45.7630 C   0  0  0  0  0  0  0  0  0  0  0  0
   60.0150   27.5200   45.8460 C   0  0  0  0  0  0  0  0  0  0  0  0
   60.5190   28.7980   45.6100 C   0  0  0  0  0  0  0  0  0  0  0  0
   59.6570   29.8430   45.2710 C   0  0  0  0  0  0  0  0  0  0  0  0
   58.2680   29.6200   45.1480 C   0  0  0  0  0  0  0  0  0  0  0  0
   63.2160   34.1767   47.3485 H   0  0  0  0  0  0  0  0  0  0  0  0
   63.1167   33.1013   45.9132 H   0  0  0  0  0  0  0  0  0  0  0  0
   62.2607   34.6806   45.9132 H   0  0  0  0  0  0  0  0  0  0  0  0
   59.7482   30.7807   48.5113 H   0  0  0  0  0  0  0  0  0  0  0  0
   58.2322   32.8457   47.8105 H   0  0  0  0  0  0  0  0  0  0  0  0
   58.8055   35.3333   47.1032 H   0  0  0  0  0  0  0  0  0  0  0  0
   60.5076   35.6710   46.5692 H   0  0  0  0  0  0  0  0  0  0  0  0
   59.4427   35.7929   44.5396 H   0  0  0  0  0  0  0  0  0  0  0  0
   59.8197   34.0096   44.6125 H   0  0  0  0  0  0  0  0  0  0  0  0
   57.1559   35.1792   45.4960 H   0  0  0  0  0  0  0  0  0  0  0  0
   57.4980   34.6093   43.8089 H   0  0  0  0  0  0  0  0  0  0  0  0
   57.0490   32.9210   46.2080 H   0  0  0  0  0  0  0  0  0  0  0  0
   58.2497   26.2731   45.9615 H   0  0  0  0  0  0  0  0  0  0  0  0
   60.7008   26.6978   46.0983 H   0  0  0  0  0  0  0  0  0  0  0  0
   61.6001   28.9841   45.6911 H   0  0  0  0  0  0  0  0  0  0  0  0
   60.0641   30.8501   45.0980 H   0  0  0  0  0  0  0  0  0  0  0  0
  1  2  1  0
  2  3  2  0
  3  4  1  0
  4  5  2  0
  5  6  1  0
  6  7  1  0
  7  8  1  0
  8  9  1  0
  9 10  1  0
 10 11  1  0
 11 12  2  0
 11 13  1  0
 13 14  2  0
 14 15  1  0
 15 16  1  0
 16 17  2  0
 16 18  1  0
 18 19  2  0
 19 20  1  0
 20 21  2  0
 21 22  1  0
 22 23  2  0
  6  2  1  0
 23 13  1  0
 23 18  1  0
  1 24  1  0
  1 25  1  0
  1 26  1  0
  4 27  1  0
  5 28  1  0
  7 29  1  0
  7 30  1  0
  8 31  1  0
  8 32  1  0
  9 33  1  0
  9 34  1  0
 10 35  1  0
 19 36  1  0
 20 37  1  0
 21 38  1  0
 22 39  1  0
M  CHG  1  15  -1
M  END
>  <UniqueID>  (39) 
33

>  <SMILES>  (39) 
Cc1nccn1CCCNC(=O)c1n[n-]c(=O)c2ccccc12

>  <Energy>  (39) 
74.12100068523979

>  <Genealogy>  (39) 
Cc1nccn1CCCNC(=O)c1n[n-]c(=O)c2ccccc12 (protonated)
Cc1nccn1CCCNC(=O)c1n[n-]c(=O)c2ccccc12 (3D coordinates assigned)
Cc1nccn1CCCNC(=O)c1n[n-]c(=O)c2ccccc12 (optimized conformer: 74.12100068523979 kcal/mol)

>  <smiles>  (39) 
Cc1nccn1CCCNC(=O)c1n[nH]c(=O)c2ccccc12

>  <score_type>  (39) 
oracle

>  <origin>  (39) 
adg

>  <m_score__min__energy>  (39) 
-10.07

>  <m_primary>  (39) 
energy

$$$$
39:0
     RDKit          3D

 47 49  0  0  0  0  0  0  0  0999 V2000
   57.6240   28.2880   43.6660 C   0  0  0  0  0  0  0  0  0  0  0  0
   56.5500   29.7040   43.6340 S   0  0  0  0  0  0  0  0  0  0  0  0
   56.1590   30.0100   42.2160 O   0  0  0  0  0  0  0  0  0  0  0  0
   55.3070   29.4080   44.4260 O   0  0  0  0  0  0  0  0  0  0  0  0
   57.3900   31.0860   44.3290 C   0  0  0  0  0  0  0  0  0  0  0  0
   57.8090   32.1440   43.5130 C   0  0  0  0  0  0  0  0  0  0  0  0
   58.4580   33.2500   44.0710 C   0  0  0  0  0  0  0  0  0  0  0  0
   58.6930   33.3170   45.4560 C   0  0  0  0  0  0  0  0  0  0  0  0
   59.3800   34.4900   46.0480 C   0  0  0  0  0  0  0  0  0  0  0  0
   59.5700   35.5230   45.3510 O   0  0  0  0  0  0  0  0  0  0  0  0
   59.8720   34.4300   47.3940 N   0  0  0  0  0  0  0  0  0  0  0  0
   60.7660   33.4450   47.9320 C   0  0  0  0  0  0  0  0  0  0  0  0
   62.0770   33.8270   48.2420 C   0  0  0  0  0  0  0  0  0  0  0  0
   62.9840   32.8940   48.7510 C   0  0  0  0  0  0  0  0  0  0  0  0
   62.5940   31.5660   48.9350 C   0  0  0  0  0  0  0  0  0  0  0  0
   61.2970   31.1560   48.5940 C   0  0  0  0  0  0  0  0  0  0  0  0
   60.8900   29.7170   48.7760 C   0  0  0  0  0  0  0  0  0  0  0  0
   59.6580   29.4490   48.1050 O   0  0  0  0  0  0  0  0  0  0  0  0
   59.3850   28.3040   47.3390 C   0  0  0  0  0  0  0  0  0  0  0  0
   60.3530   27.6690   46.5420 C   0  0  0  0  0  0  0  0  0  0  0  0
   60.0280   26.5620   45.8270 N   0  0  0  0  0  0  0  0  0  0  0  0
   58.7770   26.0320   45.8510 C   0  0  0  0  0  0  0  0  0  0  0  0
   57.7690   26.6280   46.6260 C   0  0  0  0  0  0  0  0  0  0  0  0
   56.4010   26.0600   46.6640 C   0  0  0  0  0  0  0  0  0  0  0  0
   55.3250   26.7130   45.9890 N   0  0  0  0  0  0  0  0  0  0  0  0
   56.1730   24.9920   47.2930 O   0  0  0  0  0  0  0  0  0  0  0  0
   58.0910   27.7750   47.3700 C   0  0  0  0  0  0  0  0  0  0  0  0
   60.3840   32.1010   48.0960 C   0  0  0  0  0  0  0  0  0  0  0  0
   58.2620   32.2520   46.2710 C   0  0  0  0  0  0  0  0  0  0  0  0
   57.6160   31.1480   45.7110 C   0  0  0  0  0  0  0  0  0  0  0  0
   57.8343   28.0108   44.7095 H   0  0  0  0  0  0  0  0  0  0  0  0
   57.1356   27.4457   43.1541 H   0  0  0  0  0  0  0  0  0  0  0  0
   58.5668   28.5312   43.1541 H   0  0  0  0  0  0  0  0  0  0  0  0
   57.6270   32.1050   42.4289 H   0  0  0  0  0  0  0  0  0  0  0  0
   58.7874   34.0743   43.4213 H   0  0  0  0  0  0  0  0  0  0  0  0
   62.3948   34.8681   48.0838 H   0  0  0  0  0  0  0  0  0  0  0  0
   64.0072   33.2063   49.0072 H   0  0  0  0  0  0  0  0  0  0  0  0
   63.3072   30.8382   49.3493 H   0  0  0  0  0  0  0  0  0  0  0  0
   61.6744   29.0655   48.3633 H   0  0  0  0  0  0  0  0  0  0  0  0
   60.7558   29.5220   49.8502 H   0  0  0  0  0  0  0  0  0  0  0  0
   61.3763   28.0701   46.4976 H   0  0  0  0  0  0  0  0  0  0  0  0
   58.5528   25.1315   45.2604 H   0  0  0  0  0  0  0  0  0  0  0  0
   55.5100   27.4240   45.2490 H   0  0  0  0  0  0  0  0  0  0  0  0
   57.3180   28.2617   47.9828 H   0  0  0  0  0  0  0  0  0  0  0  0
   59.3631   31.7876   47.8325 H   0  0  0  0  0  0  0  0  0  0  0  0
   58.4356   32.2903   47.3565 H   0  0  0  0  0  0  0  0  0  0  0  0
   57.2828   30.3228   46.3576 H   0  0  0  0  0  0  0  0  0  0  0  0
  1  2  1  0
  2  3  2  0
  2  4  2  0
  2  5  1  0
  5  6  2  0
  6  7  1  0
  7  8  2  0
  8  9  1  0
  9 10  2  0
  9 11  1  0
 11 12  1  0
 12 13  2  0
 13 14  1  0
 14 15  2  0
 15 16  1  0
 16 17  1  0
 17 18  1  0
 18 19  1  0
 19 20  2  0
 20 21  1  0
 21 22  2  0
 22 23  1  0
 23 24  1  0
 24 25  1  0
 24 26  2  0
 23 27  2  0
 16 28  2  0
  8 29  1  0
 29 30  2  0
 30  5  1  0
 28 12  1  0
 27 19  1  0
  1 31  1  0
  1 32  1  0
  1 33  1  0
  6 34  1  0
  7 35  1  0
 13 36  1  0
 14 37  1  0
 15 38  1  0
 17 39  1  0
 17 40  1  0
 20 41  1  0
 22 42  1  0
 25 43  1  0
 27 44  1  0
 28 45  1  0
 29 46  1  0
 30 47  1  0
M  CHG  2  11  -1  25  -1
M  END
>  <UniqueID>  (40) 
34

>  <SMILES>  (40) 
CS(=O)(=O)c1ccc(C(=O)[N-]c2cccc(COc3cncc(C([NH-])=O)c3)c2)cc1

>  <Energy>  (40) 
52.105181530523566

>  <Genealogy>  (40) 
CS(=O)(=O)c1ccc(C(=O)[N-]c2cccc(COc3cncc(C([NH-])=O)c3)c2)cc1 (protonated)
CS(=O)(=O)c1ccc(C(=O)[N-]c2cccc(COc3cncc(C([NH-])=O)c3)c2)cc1 (3D coordinates assigned)
CS(=O)(=O)c1ccc(C(=O)[N-]c2cccc(COc3cncc(C([NH-])=O)c3)c2)cc1 (optimized conformer: 52.105181530523566 kcal/mol)

>  <smiles>  (40) 
CS(=O)(=O)c1ccc(C(=O)Nc2cccc(COc3cncc(C(N)=O)c3)c2)cc1

>  <score_type>  (40) 
oracle

>  <origin>  (40) 
adg

>  <m_score__min__energy>  (40) 
-14.119999999999999

>  <m_primary>  (40) 
energy

$$$$
40:0
     RDKit          3D

 28 29  0  0  0  0  0  0  0  0999 V2000
   55.1670   27.4650   46.0010 H   0  0  0  0  0  0  0  0  0  0  0  0
   55.1870   26.4200   45.9730 N   0  0  0  0  0  0  0  0  0  0  0  0
   56.8400   25.9460   45.7920 S   0  0  0  0  0  0  0  0  0  0  0  0
   57.0820   25.6240   44.3440 O   0  0  0  0  0  0  0  0  0  0  0  0
   57.0840   24.7200   46.6280 O   0  0  0  0  0  0  0  0  0  0  0  0
   57.9320   27.2460   46.3080 C   0  0  0  0  0  0  0  0  0  0  0  0
   58.6390   27.0940   47.5140 C   0  0  0  0  0  0  0  0  0  0  0  0
   58.5065   26.1795   48.1108 H   0  0  0  0  0  0  0  0  0  0  0  0
   59.5070   28.0910   47.9620 C   0  0  0  0  0  0  0  0  0  0  0  0
   60.0545   27.9585   48.9068 H   0  0  0  0  0  0  0  0  0  0  0  0
   59.6810   29.2530   47.2150 C   0  0  0  0  0  0  0  0  0  0  0  0
   60.3642   30.0380   47.5714 H   0  0  0  0  0  0  0  0  0  0  0  0
   58.9900   29.4230   46.0150 C   0  0  0  0  0  0  0  0  0  0  0  0
   59.1273   30.3473   45.4347 H   0  0  0  0  0  0  0  0  0  0  0  0
   58.1200   28.4260   45.5390 C   0  0  0  0  0  0  0  0  0  0  0  0
   57.3720   28.6870   44.2470 C   0  0  0  0  0  0  0  0  0  0  0  0
   58.0809   29.0718   43.4991 H   0  0  0  0  0  0  0  0  0  0  0  0
   56.9209   27.7382   43.9209 H   0  0  0  0  0  0  0  0  0  0  0  0
   56.2590   29.6920   44.4240 C   0  0  0  0  0  0  0  0  0  0  0  0
   55.1440   29.3110   44.8720 O   0  0  0  0  0  0  0  0  0  0  0  0
   56.4190   31.0840   44.1000 N   0  0  0  0  0  0  0  0  0  0  0  0
   57.2280   31.9410   44.6500 C   0  0  0  0  0  0  0  0  0  0  0  0
   57.3970   32.0970   45.9820 N   0  0  0  0  0  0  0  0  0  0  0  0
   58.2850   33.0870   46.2600 C   0  0  0  0  0  0  0  0  0  0  0  0
   58.5606   33.3606   47.2892 H   0  0  0  0  0  0  0  0  0  0  0  0
   58.8200   33.7290   45.1490 C   0  0  0  0  0  0  0  0  0  0  0  0
   59.5506   34.5511   45.1676 H   0  0  0  0  0  0  0  0  0  0  0  0
   58.1550   33.0290   43.7710 S   0  0  0  0  0  0  0  0  0  0  0  0
  1  2  1  0
  2  3  1  0
  3  4  2  0
  3  5  2  0
  3  6  1  0
  6  7  2  0
  7  8  1  0
  7  9  1  0
  9 10  1  0
  9 11  2  0
 11 12  1  0
 11 13  1  0
 13 14  1  0
 13 15  2  0
 15 16  1  0
 16 17  1  0
 16 18  1  0
 16 19  1  0
 19 20  2  0
 19 21  1  0
 21 22  2  0
 22 23  1  0
 23 24  1  0
 24 25  1  0
 24 26  2  0
 26 27  1  0
 26 28  1  0
 15  6  1  0
 28 22  1  0
M  CHG  2   2  -1  23  -1
M  END
>  <UniqueID>  (41) 
35

>  <SMILES>  (41) 
[NH-]S(=O)(=O)c1ccccc1CC(=O)/N=c1\[n-]ccs1

>  <Energy>  (41) 
64.51928607349222

>  <Genealogy>  (41) 
[NH-]S(=O)(=O)c1ccccc1CC(=O)N=c1[n-]ccs1 (protonated)
[NH-]S(=O)(=O)c1ccccc1CC(=O)/N=c1\[n-]ccs1 (cis-trans isomerization)
[NH-]S(=O)(=O)c1ccccc1CC(=O)/N=c1\[n-]ccs1 (3D coordinates assigned)
[NH-]S(=O)(=O)c1ccccc1CC(=O)/N=c1\[n-]ccs1 (optimized conformer: 64.51928607349222 kcal/mol)

>  <smiles>  (41) 
NS(=O)(=O)c1ccccc1CC(=O)N=c1[nH]ccs1

>  <score_type>  (41) 
oracle

>  <origin>  (41) 
adg

>  <m_score__min__energy>  (41) 
-11.890000000000001

>  <m_primary>  (41) 
energy

$$$$
41:0
     RDKit          3D

 67 71  0  0  0  0  0  0  0  0999 V2000
   55.5400   29.7320   43.3830 C   0  0  0  0  0  0  0  0  0  0  0  0
   55.5160   29.1600   44.6890 O   0  0  0  0  0  0  0  0  0  0  0  0
   56.6530   28.7160   45.3810 C   0  0  0  0  0  0  0  0  0  0  0  0
   57.6670   29.5940   45.8120 C   0  0  0  0  0  0  0  0  0  0  0  0
   58.7840   29.1010   46.4900 C   0  0  0  0  0  0  0  0  0  0  0  0
   58.9190   27.7250   46.7430 C   0  0  0  0  0  0  0  0  0  0  0  0
   60.0990   27.2010   47.4660 C   0  0  0  0  0  0  0  0  0  0  0  0
   60.8350   26.3390   46.9180 O   0  0  0  0  0  0  0  0  0  0  0  0
   60.3640   27.6370   48.8090 N   0  0  0  0  0  0  0  0  0  0  0  0
   61.0080   28.8510   49.2260 C   0  0  0  0  0  0  0  0  0  0  0  0
   61.5020   29.0360   50.5280 C   0  0  0  0  0  0  0  0  0  0  0  0
   62.1100   30.2400   50.8850 C   0  0  0  0  0  0  0  0  0  0  0  0
   62.2570   31.2720   49.9460 C   0  0  0  0  0  0  0  0  0  0  0  0
   61.7730   31.0890   48.6350 C   0  0  0  0  0  0  0  0  0  0  0  0
   61.1770   29.8700   48.2800 C   0  0  0  0  0  0  0  0  0  0  0  0
   61.9640   32.1570   47.5880 C   0  0  0  0  0  0  0  0  0  0  0  0
   62.1010   33.4980   48.1830 N   0  0  0  0  0  0  0  0  0  0  0  0
   60.8470   34.2500   48.4460 C   0  0  0  0  0  0  0  0  0  0  0  0
   59.8660   33.5550   49.3690 C   0  0  0  0  0  0  0  0  0  0  0  0
   59.0180   32.5470   48.8830 C   0  0  0  0  0  0  0  0  0  0  0  0
   58.1350   31.8870   49.7420 C   0  0  0  0  0  0  0  0  0  0  0  0
   58.0900   32.2150   51.1060 C   0  0  0  0  0  0  0  0  0  0  0  0
   57.1910   31.4730   52.0150 C   0  0  0  0  0  0  0  0  0  0  0  0
   56.9070   31.9770   53.1360 O   0  0  0  0  0  0  0  0  0  0  0  0
   56.6600   30.1790   51.6900 N   0  0  0  0  0  0  0  0  0  0  0  0
   55.7510   29.3860   52.5150 C   0  0  0  0  0  0  0  0  0  0  0  0
   54.3170   29.7770   52.2680 C   0  0  0  0  0  0  0  0  0  0  0  0
   53.2790   29.1480   52.9790 C   0  0  0  0  0  0  0  0  0  0  0  0
   51.9530   29.5530   52.8030 C   0  0  0  0  0  0  0  0  0  0  0  0
   51.6500   30.5950   51.9190 C   0  0  0  0  0  0  0  0  0  0  0  0
   52.6740   31.2370   51.2170 C   0  0  0  0  0  0  0  0  0  0  0  0
   54.0040   30.8370   51.3950 C   0  0  0  0  0  0  0  0  0  0  0  0
   58.9740   33.1830   51.6040 C   0  0  0  0  0  0  0  0  0  0  0  0
   59.8530   33.8480   50.7450 C   0  0  0  0  0  0  0  0  0  0  0  0
   63.1320   33.5560   49.2370 C   0  0  0  0  0  0  0  0  0  0  0  0
   62.8710   32.5750   50.3890 C   0  0  0  0  0  0  0  0  0  0  0  0
   57.9020   26.8520   46.3110 C   0  0  0  0  0  0  0  0  0  0  0  0
   56.7790   27.3490   45.6410 C   0  0  0  0  0  0  0  0  0  0  0  0
   55.5860   30.8281   43.4636 H   0  0  0  0  0  0  0  0  0  0  0  0
   56.4236   29.3669   42.8390 H   0  0  0  0  0  0  0  0  0  0  0  0
   54.6289   29.4422   42.8390 H   0  0  0  0  0  0  0  0  0  0  0  0
   57.5785   30.6724   45.6137 H   0  0  0  0  0  0  0  0  0  0  0  0
   59.5658   29.7964   46.8294 H   0  0  0  0  0  0  0  0  0  0  0  0
   61.4091   28.2284   51.2690 H   0  0  0  0  0  0  0  0  0  0  0  0
   62.4775   30.3814   51.9121 H   0  0  0  0  0  0  0  0  0  0  0  0
   60.8380   29.7122   47.2455 H   0  0  0  0  0  0  0  0  0  0  0  0
   62.8730   31.9301   47.0116 H   0  0  0  0  0  0  0  0  0  0  0  0
   61.0732   32.1620   46.9427 H   0  0  0  0  0  0  0  0  0  0  0  0
   61.1165   35.2156   48.8988 H   0  0  0  0  0  0  0  0  0  0  0  0
   60.3387   34.3500   47.4756 H   0  0  0  0  0  0  0  0  0  0  0  0
   59.0489   32.2746   47.8177 H   0  0  0  0  0  0  0  0  0  0  0  0
   57.4705   31.1048   49.3463 H   0  0  0  0  0  0  0  0  0  0  0  0
   55.8805   28.3212   52.2713 H   0  0  0  0  0  0  0  0  0  0  0  0
   55.9872   29.5708   53.5733 H   0  0  0  0  0  0  0  0  0  0  0  0
   53.5125   28.3317   53.6784 H   0  0  0  0  0  0  0  0  0  0  0  0
   51.1469   29.0525   53.3596 H   0  0  0  0  0  0  0  0  0  0  0  0
   50.6054   30.9088   51.7767 H   0  0  0  0  0  0  0  0  0  0  0  0
   52.4349   32.0572   50.5241 H   0  0  0  0  0  0  0  0  0  0  0  0
   54.8083   31.3532   50.8504 H   0  0  0  0  0  0  0  0  0  0  0  0
   58.9755   33.4204   52.6781 H   0  0  0  0  0  0  0  0  0  0  0  0
   60.5402   34.6066   51.1479 H   0  0  0  0  0  0  0  0  0  0  0  0
   64.1067   33.3163   48.7870 H   0  0  0  0  0  0  0  0  0  0  0  0
   63.1123   34.5713   49.6598 H   0  0  0  0  0  0  0  0  0  0  0  0
   63.8290   32.3573   50.8838 H   0  0  0  0  0  0  0  0  0  0  0  0
   62.1500   33.0572   51.0655 H   0  0  0  0  0  0  0  0  0  0  0  0
   57.9912   25.7723   46.5016 H   0  0  0  0  0  0  0  0  0  0  0  0
   55.9879   26.6572   45.3159 H   0  0  0  0  0  0  0  0  0  0  0  0
  1  2  1  0
  2  3  1  0
  3  4  2  0
  4  5  1  0
  5  6  2  0
  6  7  1  0
  7  8  2  0
  7  9  1  0
  9 10  1  0
 10 11  2  0
 11 12  1  0
 12 13  2  0
 13 14  1  0
 14 15  2  0
 14 16  1  0
 16 17  1  0
 17 18  1  0
 18 19  1  0
 19 20  2  0
 20 21  1  0
 21 22  2  0
 22 23  1  0
 23 24  2  0
 23 25  1  0
 25 26  1  0
 26 27  1  0
 27 28  2  0
 28 29  1  0
 29 30  2  0
 30 31  1  0
 31 32  2  0
 22 33  1  0
 33 34  2  0
 17 35  1  0
 35 36  1  0
  6 37  1  0
 37 38  2  0
 38  3  1  0
 15 10  1  0
 34 19  1  0
 36 13  1  0
 32 27  1  0
  1 39  1  0
  1 40  1  0
  1 41  1  0
  4 42  1  0
  5 43  1  0
 11 44  1  0
 12 45  1  0
 15 46  1  0
 16 47  1  0
 16 48  1  0
 18 49  1  0
 18 50  1  0
 20 51  1  0
 21 52  1  0
 26 53  1  0
 26 54  1  0
 28 55  1  0
 29 56  1  0
 30 57  1  0
 31 58  1  0
 32 59  1  0
 33 60  1  0
 34 61  1  0
 35 62  1  0
 35 63  1  0
 36 64  1  0
 36 65  1  0
 37 66  1  0
 38 67  1  0
M  CHG  2   9  -1  25  -1
M  END
>  <UniqueID>  (42) 
36

>  <SMILES>  (42) 
COc1ccc(C(=O)[N-]c2ccc3c(c2)CN(Cc2ccc(C(=O)[N-]Cc4ccccc4)cc2)CC3)cc1

>  <Energy>  (42) 
87.0507557691844

>  <Genealogy>  (42) 
COc1ccc(C(=O)[N-]c2ccc3c(c2)CN(Cc2ccc(C(=O)[N-]Cc4ccccc4)cc2)CC3)cc1 (protonated)
COc1ccc(C(=O)[N-]c2ccc3c(c2)CN(Cc2ccc(C(=O)[N-]Cc4ccccc4)cc2)CC3)cc1 (3D coordinates assigned)
COc1ccc(C(=O)[N-]c2ccc3c(c2)CN(Cc2ccc(C(=O)[N-]Cc4ccccc4)cc2)CC3)cc1 (nonaromatic ring conformer: 87.0507557691844 kcal/mol)

>  <smiles>  (42) 
COc1ccc(C(=O)Nc2ccc3c(c2)CN(Cc2ccc(C(=O)NCc4ccccc4)cc2)CC3)cc1

>  <score_type>  (42) 
oracle

>  <origin>  (42) 
adg

>  <m_score__min__energy>  (42) 
-12.81

>  <m_primary>  (42) 
energy

$$$$
42:0
     RDKit          3D

 25 26  0  0  0  0  0  0  0  0999 V2000
   55.1440   29.1360   42.5050 H   0  0  0  0  0  0  0  0  0  0  0  0
   55.1780   29.7150   43.3740 N   0  0  0  0  0  0  0  0  0  0  0  0
   56.2440   29.7740   44.1030 C   0  0  0  0  0  0  0  0  0  0  0  0
   57.0360   31.1980   44.4980 S   0  0  0  0  0  0  0  0  0  0  0  0
   58.2140   30.4020   45.4080 C   0  0  0  0  0  0  0  0  0  0  0  0
   59.3320   31.0890   46.0840 C   0  0  0  0  0  0  0  0  0  0  0  0
   60.3220   30.4040   46.4570 O   0  0  0  0  0  0  0  0  0  0  0  0
   59.3430   32.5530   46.3040 C   0  0  0  0  0  0  0  0  0  0  0  0
   59.2460   33.4450   45.2200 C   0  0  0  0  0  0  0  0  0  0  0  0
   59.1508   33.0537   44.1964 H   0  0  0  0  0  0  0  0  0  0  0  0
   59.2700   34.8260   45.4370 C   0  0  0  0  0  0  0  0  0  0  0  0
   59.1841   35.5171   44.5856 H   0  0  0  0  0  0  0  0  0  0  0  0
   59.4030   35.3300   46.7340 C   0  0  0  0  0  0  0  0  0  0  0  0
   59.4179   36.4168   46.9035 H   0  0  0  0  0  0  0  0  0  0  0  0
   59.5170   34.4520   47.8150 C   0  0  0  0  0  0  0  0  0  0  0  0
   59.6266   34.8489   48.8350 H   0  0  0  0  0  0  0  0  0  0  0  0
   59.4920   33.0690   47.6030 C   0  0  0  0  0  0  0  0  0  0  0  0
   59.5894   32.3824   48.4569 H   0  0  0  0  0  0  0  0  0  0  0  0
   57.9650   29.0210   45.3440 C   0  0  0  0  0  0  0  0  0  0  0  0
   58.8300   27.9680   45.9690 C   0  0  0  0  0  0  0  0  0  0  0  0
   58.7671   28.0445   47.0645 H   0  0  0  0  0  0  0  0  0  0  0  0
   58.4848   26.9733   45.6505 H   0  0  0  0  0  0  0  0  0  0  0  0
   59.8728   28.1135   45.6505 H   0  0  0  0  0  0  0  0  0  0  0  0
   56.8540   28.6900   44.6300 N   0  0  0  0  0  0  0  0  0  0  0  0
   56.5220   27.7080   44.4890 H   0  0  0  0  0  0  0  0  0  0  0  0
  1  2  1  0
  2  3  2  0
  3  4  1  0
  4  5  1  0
  5  6  1  0
  6  7  2  0
  6  8  1  0
  8  9  2  0
  9 10  1  0
  9 11  1  0
 11 12  1  0
 11 13  2  0
 13 14  1  0
 13 15  1  0
 15 16  1  0
 15 17  2  0
 17 18  1  0
  5 19  2  0
 19 20  1  0
 20 21  1  0
 20 22  1  0
 20 23  1  0
 19 24  1  0
 24 25  1  0
 24  3  1  0
 17  8  1  0
M  END
>  <UniqueID>  (43) 
37

>  <SMILES>  (43) 
[H]/N=c1\[nH]c(C)c(C(=O)c2ccccc2)s1

>  <Energy>  (43) 
60.70230122684375

>  <Genealogy>  (43) 
[H]/N=c1\[nH]c(C)c(C(=O)c2ccccc2)s1 (cis-trans isomerization)
[H]/N=c1\[nH]c(C)c(C(=O)c2ccccc2)s1 (3D coordinates assigned)
[H]/N=c1\[nH]c(C)c(C(=O)c2ccccc2)s1 (optimized conformer: 60.70230122684375 kcal/mol)

>  <smiles>  (43) 
Cc1[nH]c(=N)sc1C(=O)c1ccccc1

>  <score_type>  (43) 
oracle

>  <origin>  (43) 
adg

>  <m_score__min__energy>  (43) 
-6.1900000000000004

>  <m_primary>  (43) 
energy

$$$$
43:0
     RDKit          3D

 59 63  0  0  0  0  0  0  0  0999 V2000
   58.1490   31.2600   55.2370 O   0  0  0  0  0  0  0  0  0  0  0  0
   57.6440   31.0960   54.0940 C   0  0  0  0  0  0  0  0  0  0  0  0
   56.1670   30.8470   53.9600 C   0  0  0  0  0  0  0  0  0  0  0  0
   55.8880   29.9430   52.7390 C   0  0  1  0  0  0  0  0  0  0  0  0
   54.4190   29.7330   52.4100 C   0  0  0  0  0  0  0  0  0  0  0  0
   53.7150   28.7500   53.1280 C   0  0  0  0  0  0  0  0  0  0  0  0
   52.3600   28.5210   52.8830 C   0  0  0  0  0  0  0  0  0  0  0  0
   51.6820   29.2760   51.9260 C   0  0  0  0  0  0  0  0  0  0  0  0
   52.3510   30.2780   51.2040 C   0  0  0  0  0  0  0  0  0  0  0  0
   51.6440   31.0590   50.2230 N   0  0  0  0  0  0  0  0  0  0  0  0
   51.3190   32.2410   50.4600 O   0  0  0  0  0  0  0  0  0  0  0  0
   51.3230   30.5180   48.9990 O   0  0  0  0  0  0  0  0  0  0  0  0
   53.7190   30.5050   51.4560 C   0  0  0  0  0  0  0  0  0  0  0  0
   56.5590   30.4620   51.5840 O   0  0  0  0  0  0  0  0  0  0  0  0
   57.8790   30.9250   51.6380 C   0  0  0  0  0  0  0  0  0  0  0  0
   58.6060   31.0970   50.4570 C   0  0  0  0  0  0  0  0  0  0  0  0
   59.9360   31.5310   50.4970 C   0  0  0  0  0  0  0  0  0  0  0  0
   60.6260   31.6760   49.2840 O   0  0  0  0  0  0  0  0  0  0  0  0
   60.3500   30.9220   48.1060 C   0  0  0  0  0  0  0  0  0  0  0  0
   59.5080   31.7490   47.1780 C   0  0  0  0  0  0  0  0  0  0  0  0
   59.4240   33.1370   47.3500 C   0  0  0  0  0  0  0  0  0  0  0  0
   58.6600   33.9060   46.4730 C   0  0  0  0  0  0  0  0  0  0  0  0
   57.9840   33.3020   45.4120 C   0  0  0  0  0  0  0  0  0  0  0  0
   58.0720   31.9100   45.2010 C   0  0  0  0  0  0  0  0  0  0  0  0
   57.3360   31.2260   44.0460 C   0  0  1  0  0  0  0  0  0  0  0  0
   57.5240   31.9670   42.8630 O   0  0  0  0  0  0  0  0  0  0  0  0
   57.8170   29.7790   43.8670 C   0  0  0  0  0  0  0  0  0  0  0  0
   56.8130   28.9820   44.6410 C   0  0  1  0  0  0  0  0  0  0  0  0
   57.2300   28.8660   45.9790 O   0  0  0  0  0  0  0  0  0  0  0  0
   55.5650   29.8480   44.5430 C   0  0  2  0  0  0  0  0  0  0  0  0
   54.7660   29.4000   43.4800 O   0  0  0  0  0  0  0  0  0  0  0  0
   55.9460   31.1880   44.3090 O   0  0  0  0  0  0  0  0  0  0  0  0
   58.8460   31.1440   46.0990 C   0  0  0  0  0  0  0  0  0  0  0  0
   60.5350   31.8030   51.7430 C   0  0  0  0  0  0  0  0  0  0  0  0
   59.8040   31.6490   52.9250 C   0  0  0  0  0  0  0  0  0  0  0  0
   58.4700   31.2180   52.8780 C   0  0  0  0  0  0  0  0  0  0  0  0
   55.7977   30.3524   54.8705 H   0  0  0  0  0  0  0  0  0  0  0  0
   55.6517   31.8087   53.8202 H   0  0  0  0  0  0  0  0  0  0  0  0
   56.2763   28.9536   53.0226 H   0  0  0  0  0  0  0  0  0  0  0  0
   54.2379   28.1549   53.8912 H   0  0  0  0  0  0  0  0  0  0  0  0
   51.8250   27.7424   53.4466 H   0  0  0  0  0  0  0  0  0  0  0  0
   50.6156   29.0853   51.7353 H   0  0  0  0  0  0  0  0  0  0  0  0
   54.2489   31.2940   50.9023 H   0  0  0  0  0  0  0  0  0  0  0  0
   58.1289   30.8895   49.4878 H   0  0  0  0  0  0  0  0  0  0  0  0
   61.2947   30.6573   47.6085 H   0  0  0  0  0  0  0  0  0  0  0  0
   59.8107   30.0014   48.3737 H   0  0  0  0  0  0  0  0  0  0  0  0
   59.9618   33.6210   48.1785 H   0  0  0  0  0  0  0  0  0  0  0  0
   58.5898   34.9941   46.6182 H   0  0  0  0  0  0  0  0  0  0  0  0
   57.3761   33.9179   44.7330 H   0  0  0  0  0  0  0  0  0  0  0  0
   58.0610   31.4240   42.2300 H   0  0  0  0  0  0  0  0  0  0  0  0
   57.8139   29.4915   42.8052 H   0  0  0  0  0  0  0  0  0  0  0  0
   58.8491   29.6232   44.2141 H   0  0  0  0  0  0  0  0  0  0  0  0
   56.6650   27.9575   44.2687 H   0  0  0  0  0  0  0  0  0  0  0  0
   58.2060   28.6840   45.9550 H   0  0  0  0  0  0  0  0  0  0  0  0
   54.9961   29.7819   45.4822 H   0  0  0  0  0  0  0  0  0  0  0  0
   55.3410   29.4130   42.6720 H   0  0  0  0  0  0  0  0  0  0  0  0
   58.9314   30.0574   45.9508 H   0  0  0  0  0  0  0  0  0  0  0  0
   61.5819   32.1378   51.7861 H   0  0  0  0  0  0  0  0  0  0  0  0
   60.2764   31.8664   53.8943 H   0  0  0  0  0  0  0  0  0  0  0  0
  1  2  2  0
  2  3  1  0
  3  4  1  0
  4  5  1  0
  5  6  2  0
  6  7  1  0
  7  8  2  0
  8  9  1  0
  9 10  1  0
 10 11  2  0
 10 12  1  0
  9 13  2  0
  4 14  1  0
 14 15  1  0
 15 16  2  0
 16 17  1  0
 17 18  1  0
 18 19  1  0
 19 20  1  0
 20 21  2  0
 21 22  1  0
 22 23  2  0
 23 24  1  0
 24 25  1  0
 25 26  1  6
 25 27  1  0
 27 28  1  0
 28 29  1  0
 28 30  1  0
 30 31  1  0
 30 32  1  0
 24 33  2  0
 17 34  2  0
 34 35  1  0
 35 36  2  0
 36  2  1  0
 13  5  1  0
 36 15  1  0
 33 20  1  0
 32 25  1  0
  3 37  1  0
  3 38  1  0
  4 39  1  1
  6 40  1  0
  7 41  1  0
  8 42  1  0
 13 43  1  0
 16 44  1  0
 19 45  1  0
 19 46  1  0
 21 47  1  0
 22 48  1  0
 23 49  1  0
 26 50  1  0
 27 51  1  0
 27 52  1  0
 28 53  1  6
 29 54  1  0
 30 55  1  1
 31 56  1  0
 33 57  1  0
 34 58  1  0
 35 59  1  0
M  CHG  2  10   1  12  -1
M  END
>  <UniqueID>  (44) 
38

>  <SMILES>  (44) 
O=C1C[C@@H](c2cccc([N+](=O)[O-])c2)Oc2cc(OCc3cccc([C@@]4(O)CC(O)C(O)O4)c3)ccc21

>  <Energy>  (44) 
75.22069083560623

>  <Genealogy>  (44) 
O=C1C[C@@H](c2cccc([N+](=O)[O-])c2)Oc2cc(OCc3cccc([C@@]4(O)CC(O)C(O)O4)c3)ccc21 (chirality)
O=C1C[C@@H](c2cccc([N+](=O)[O-])c2)Oc2cc(OCc3cccc([C@@]4(O)CC(O)C(O)O4)c3)ccc21 (3D coordinates assigned)
O=C1C[C@@H](c2cccc([N+](=O)[O-])c2)Oc2cc(OCc3cccc([C@@]4(O)CC(O)C(O)O4)c3)ccc21 (nonaromatic ring conformer: 75.22069083560623 kcal/mol)

>  <smiles>  (44) 
O=C1CC(c2cccc([N+](=O)[O-])c2)Oc2cc(OCc3cccc(C4(O)CC(O)C(O)O4)c3)ccc21

>  <score_type>  (44) 
oracle

>  <origin>  (44) 
adg

>  <m_score__min__energy>  (44) 
-11.33

>  <m_primary>  (44) 
energy

$$$$
44:0
     RDKit          3D

 42 44  0  0  0  0  0  0  0  0999 V2000
   55.7080   26.9120   45.9660 O   0  0  0  0  0  0  0  0  0  0  0  0
   56.7590   27.6020   45.8640 C   0  0  0  0  0  0  0  0  0  0  0  0
   57.8540   27.3940   46.7650 N   0  0  0  0  0  0  0  0  0  0  0  0
   58.8800   28.3450   47.0870 C   0  0  0  0  0  0  0  0  0  0  0  0
   58.9690   28.9430   48.3600 C   0  0  0  0  0  0  0  0  0  0  0  0
   59.9690   29.8840   48.6250 C   0  0  0  0  0  0  0  0  0  0  0  0
   60.8770   30.2440   47.6250 C   0  0  0  0  0  0  0  0  0  0  0  0
   61.8450   31.1570   47.8850 F   0  0  0  0  0  0  0  0  0  0  0  0
   60.7790   29.6720   46.3540 C   0  0  0  0  0  0  0  0  0  0  0  0
   59.7780   28.7320   46.0850 C   0  0  0  0  0  0  0  0  0  0  0  0
   56.8990   28.5730   44.7640 C   0  0  0  0  0  0  0  0  0  0  0  0
   57.3980   28.1950   43.6710 O   0  0  0  0  0  0  0  0  0  0  0  0
   56.4240   29.9200   44.8800 N   0  0  0  0  0  0  0  0  0  0  0  0
   57.1690   31.1050   44.5650 C   0  0  0  0  0  0  0  0  0  0  0  0
   57.4130   31.4860   43.2360 C   0  0  0  0  0  0  0  0  0  0  0  0
   58.1140   32.6620   42.9610 C   0  0  0  0  0  0  0  0  0  0  0  0
   58.5730   33.4670   44.0060 C   0  0  0  0  0  0  0  0  0  0  0  0
   58.3340   33.1020   45.3420 C   0  0  0  0  0  0  0  0  0  0  0  0
   58.8360   33.9550   46.4450 C   0  0  0  0  0  0  0  0  0  0  0  0
   58.1370   34.0970   47.4830 O   0  0  0  0  0  0  0  0  0  0  0  0
   60.1190   34.5950   46.3880 N   0  0  0  0  0  0  0  0  0  0  0  0
   61.2930   34.2100   47.1180 C   0  0  0  0  0  0  0  0  0  0  0  0
   62.4240   33.8020   46.4000 C   0  0  0  0  0  0  0  0  0  0  0  0
   63.5940   33.4340   47.0690 C   0  0  0  0  0  0  0  0  0  0  0  0
   63.6380   33.4550   48.4650 C   0  0  0  0  0  0  0  0  0  0  0  0
   62.5060   33.8270   49.1940 C   0  0  0  0  0  0  0  0  0  0  0  0
   61.3240   34.1900   48.5300 C   0  0  0  0  0  0  0  0  0  0  0  0
   60.1850   34.5060   49.2690 O   0  0  0  0  0  0  0  0  0  0  0  0
   57.6040   31.9290   45.6090 C   0  0  0  0  0  0  0  0  0  0  0  0
   58.2506   28.6691   49.1466 H   0  0  0  0  0  0  0  0  0  0  0  0
   60.0412   30.3419   49.6226 H   0  0  0  0  0  0  0  0  0  0  0  0
   61.4888   29.9607   45.5648 H   0  0  0  0  0  0  0  0  0  0  0  0
   59.6961   28.2941   45.0793 H   0  0  0  0  0  0  0  0  0  0  0  0
   57.0512   30.8568   42.4095 H   0  0  0  0  0  0  0  0  0  0  0  0
   58.3053   32.9552   41.9182 H   0  0  0  0  0  0  0  0  0  0  0  0
   59.1247   34.3919   43.7821 H   0  0  0  0  0  0  0  0  0  0  0  0
   62.3909   33.7710   45.3009 H   0  0  0  0  0  0  0  0  0  0  0  0
   64.4814   33.1274   46.4958 H   0  0  0  0  0  0  0  0  0  0  0  0
   64.5641   33.1786   48.9903 H   0  0  0  0  0  0  0  0  0  0  0  0
   62.5411   33.8355   50.2934 H   0  0  0  0  0  0  0  0  0  0  0  0
   59.3130   34.7620   48.8190 H   0  0  0  0  0  0  0  0  0  0  0  0
   57.3728   31.6569   46.6494 H   0  0  0  0  0  0  0  0  0  0  0  0
  1  2  2  0
  2  3  1  0
  3  4  1  0
  4  5  2  0
  5  6  1  0
  6  7  2  0
  7  8  1  0
  7  9  1  0
  9 10  2  0
  2 11  1  0
 11 12  2  0
 11 13  1  0
 13 14  1  0
 14 15  2  0
 15 16  1  0
 16 17  2  0
 17 18  1  0
 18 19  1  0
 19 20  2  0
 19 21  1  0
 21 22  1  0
 22 23  2  0
 23 24  1  0
 24 25  2  0
 25 26  1  0
 26 27  2  0
 27 28  1  0
 18 29  2  0
 10  4  1  0
 29 14  1  0
 27 22  1  0
  5 30  1  0
  6 31  1  0
  9 32  1  0
 10 33  1  0
 15 34  1  0
 16 35  1  0
 17 36  1  0
 23 37  1  0
 24 38  1  0
 25 39  1  0
 26 40  1  0
 28 41  1  0
 29 42  1  0
M  CHG  3   3  -1  13  -1  21  -1
M  END
>  <UniqueID>  (45) 
39

>  <SMILES>  (45) 
O=C([N-]c1ccc(F)cc1)C(=O)[N-]c1cccc(C(=O)[N-]c2ccccc2O)c1

>  <Energy>  (45) 
60.76303956219259

>  <Genealogy>  (45) 
O=C([N-]c1ccc(F)cc1)C(=O)[N-]c1cccc(C(=O)[N-]c2ccccc2O)c1 (protonated)
O=C([N-]c1ccc(F)cc1)C(=O)[N-]c1cccc(C(=O)[N-]c2ccccc2O)c1 (3D coordinates assigned)
O=C([N-]c1ccc(F)cc1)C(=O)[N-]c1cccc(C(=O)[N-]c2ccccc2O)c1 (optimized conformer: 60.76303956219259 kcal/mol)

>  <smiles>  (45) 
O=C(Nc1ccc(F)cc1)C(=O)Nc1cccc(C(=O)Nc2ccccc2O)c1

>  <score_type>  (45) 
oracle

>  <origin>  (45) 
adg

>  <m_score__min__energy>  (45) 
-12.9

>  <m_primary>  (45) 
energy

$$$$
45:0
     RDKit          3D

 38 39  0  0  0  0  0  0  0  0999 V2000
   55.0340   26.3320   46.0200 N   0  0  0  0  0  0  0  0  0  0  0  0
   56.5940   25.6110   46.2010 S   0  0  0  0  0  0  0  0  0  0  0  0
   56.6450   24.8290   47.4830 O   0  0  0  0  0  0  0  0  0  0  0  0
   56.8390   24.6750   45.0520 O   0  0  0  0  0  0  0  0  0  0  0  0
   57.8240   26.8730   46.2330 C   0  0  0  0  0  0  0  0  0  0  0  0
   58.4840   27.1710   47.4340 C   0  0  0  0  0  0  0  0  0  0  0  0
   59.4500   28.1800   47.4750 C   0  0  0  0  0  0  0  0  0  0  0  0
   59.7540   28.9160   46.3250 C   0  0  0  0  0  0  0  0  0  0  0  0
   60.7580   29.9360   46.3990 N   0  0  0  0  0  0  0  0  0  0  0  0
   60.7860   31.0450   47.3050 C   0  0  0  0  0  0  0  0  0  0  0  0
   61.8730   31.6560   47.4800 O   0  0  0  0  0  0  0  0  0  0  0  0
   59.5850   31.4550   48.1130 C   0  0  0  0  0  0  0  0  0  0  0  0
   59.2540   32.8520   47.8520 N   0  0  0  0  0  0  0  0  0  0  0  0
   58.4020   33.3340   46.8030 C   0  0  0  0  0  0  0  0  0  0  0  0
   57.2400   33.7160   47.1030 O   0  0  0  0  0  0  0  0  0  0  0  0
   58.8640   33.4550   45.3740 C   0  0  0  0  0  0  0  0  0  0  0  0
   58.1150   32.4970   44.4860 C   0  0  0  0  0  0  0  0  0  0  0  0
   57.3640   31.4500   45.0470 C   0  0  0  0  0  0  0  0  0  0  0  0
   56.6480   30.5760   44.2230 C   0  0  0  0  0  0  0  0  0  0  0  0
   55.9280   29.5660   44.7700 F   0  0  0  0  0  0  0  0  0  0  0  0
   56.6730   30.7420   42.8340 C   0  0  0  0  0  0  0  0  0  0  0  0
   57.4120   31.7870   42.2690 C   0  0  0  0  0  0  0  0  0  0  0  0
   57.4330   31.9490   40.9210 F   0  0  0  0  0  0  0  0  0  0  0  0
   58.1270   32.6640   43.0900 C   0  0  0  0  0  0  0  0  0  0  0  0
   59.1170   28.5950   45.1130 C   0  0  0  0  0  0  0  0  0  0  0  0
   58.1470   27.5870   45.0710 C   0  0  0  0  0  0  0  0  0  0  0  0
   55.1270   27.0920   45.3080 H   0  0  0  0  0  0  0  0  0  0  0  0
   58.2404   26.6083   48.3473 H   0  0  0  0  0  0  0  0  0  0  0  0
   59.9745   28.3967   48.4173 H   0  0  0  0  0  0  0  0  0  0  0  0
   58.7288   30.8214   47.8381 H   0  0  0  0  0  0  0  0  0  0  0  0
   59.8140   31.3345   49.1821 H   0  0  0  0  0  0  0  0  0  0  0  0
   58.6884   34.4830   45.0242 H   0  0  0  0  0  0  0  0  0  0  0  0
   59.9360   33.2125   45.3287 H   0  0  0  0  0  0  0  0  0  0  0  0
   57.3393   31.3174   46.1387 H   0  0  0  0  0  0  0  0  0  0  0  0
   56.1122   30.0516   42.1868 H   0  0  0  0  0  0  0  0  0  0  0  0
   58.7014   33.4882   42.6419 H   0  0  0  0  0  0  0  0  0  0  0  0
   59.3823   29.1385   44.1941 H   0  0  0  0  0  0  0  0  0  0  0  0
   57.6372   27.3547   44.1243 H   0  0  0  0  0  0  0  0  0  0  0  0
  1  2  1  0
  2  3  2  0
  2  4  2  0
  2  5  1  0
  5  6  2  0
  6  7  1  0
  7  8  2  0
  8  9  1  0
  9 10  1  0
 10 11  2  0
 10 12  1  0
 12 13  1  0
 13 14  1  0
 14 15  2  0
 14 16  1  0
 16 17  1  0
 17 18  2  0
 18 19  1  0
 19 20  1  0
 19 21  2  0
 21 22  1  0
 22 23  1  0
 22 24  2  0
  8 25  1  0
 25 26  2  0
 26  5  1  0
 24 17  1  0
  1 27  1  0
  6 28  1  0
  7 29  1  0
 12 30  1  0
 12 31  1  0
 16 32  1  0
 16 33  1  0
 18 34  1  0
 21 35  1  0
 24 36  1  0
 25 37  1  0
 26 38  1  0
M  CHG  3   1  -1   9  -1  13  -1
M  END
>  <UniqueID>  (46) 
40

>  <SMILES>  (46) 
[NH-]S(=O)(=O)c1ccc([N-]C(=O)C[N-]C(=O)Cc2cc(F)cc(F)c2)cc1

>  <Energy>  (46) 
39.59104149799683

>  <Genealogy>  (46) 
[NH-]S(=O)(=O)c1ccc([N-]C(=O)C[N-]C(=O)Cc2cc(F)cc(F)c2)cc1 (protonated)
[NH-]S(=O)(=O)c1ccc([N-]C(=O)C[N-]C(=O)Cc2cc(F)cc(F)c2)cc1 (3D coordinates assigned)
[NH-]S(=O)(=O)c1ccc([N-]C(=O)C[N-]C(=O)Cc2cc(F)cc(F)c2)cc1 (optimized conformer: 39.59104149799683 kcal/mol)

>  <smiles>  (46) 
NS(=O)(=O)c1ccc(NC(=O)CNC(=O)Cc2cc(F)cc(F)c2)cc1

>  <score_type>  (46) 
oracle

>  <origin>  (46) 
adg

>  <m_score__min__energy>  (46) 
-12.17

>  <m_primary>  (46) 
energy

$$$$
46:0
     RDKit          3D

 35 37  0  0  0  0  0  0  0  0999 V2000
   53.7180   24.6270   45.8710 F   0  0  0  0  0  0  0  0  0  0  0  0
   54.8240   24.3680   45.1300 C   0  0  0  0  0  0  0  0  0  0  0  0
   54.8020   23.3020   44.2230 C   0  0  0  0  0  0  0  0  0  0  0  0
   55.9260   23.0140   43.4490 C   0  0  0  0  0  0  0  0  0  0  0  0
   57.0790   23.7920   43.5770 C   0  0  0  0  0  0  0  0  0  0  0  0
   57.1100   24.8580   44.4800 C   0  0  0  0  0  0  0  0  0  0  0  0
   55.9810   25.1600   45.2690 C   0  0  0  0  0  0  0  0  0  0  0  0
   55.9880   26.2550   46.2080 N   0  0  0  0  0  0  0  0  0  0  0  0
   57.1170   27.1740   46.3580 C   0  0  0  0  0  0  0  0  0  0  0  0
   56.8730   28.4420   45.6000 C   0  0  0  0  0  0  0  0  0  0  0  0
   57.8300   29.3690   45.2470 C   0  0  0  0  0  0  0  0  0  0  0  0
   57.1020   30.3710   44.6410 C   0  0  0  0  0  0  0  0  0  0  0  0
   57.6620   31.6030   44.0130 C   0  0  0  0  0  0  0  0  0  0  0  0
   57.0300   33.0710   44.8870 S   0  0  0  0  0  0  0  0  0  0  0  0
   58.5210   33.2790   45.8520 C   0  0  0  0  0  0  0  0  0  0  0  0
   59.2230   34.4410   45.7760 N   0  0  0  0  0  0  0  0  0  0  0  0
   60.3590   34.6180   46.5010 C   0  0  0  0  0  0  0  0  0  0  0  0
   60.8160   33.6000   47.3360 C   0  0  0  0  0  0  0  0  0  0  0  0
   60.0810   32.4160   47.4040 C   0  0  0  0  0  0  0  0  0  0  0  0
   58.9500   32.2770   46.6640 N   0  0  0  0  0  0  0  0  0  0  0  0
   55.7930   30.0490   44.6330 N   0  0  0  0  0  0  0  0  0  0  0  0
   55.6520   28.8760   45.2310 N   0  0  0  0  0  0  0  0  0  0  0  0
   53.8945   22.6889   44.1203 H   0  0  0  0  0  0  0  0  0  0  0  0
   55.9045   22.1747   42.7382 H   0  0  0  0  0  0  0  0  0  0  0  0
   57.9647   23.5650   42.9655 H   0  0  0  0  0  0  0  0  0  0  0  0
   58.0217   25.4659   44.5760 H   0  0  0  0  0  0  0  0  0  0  0  0
   55.1460   26.3960   46.8110 H   0  0  0  0  0  0  0  0  0  0  0  0
   57.2505   27.4107   47.4239 H   0  0  0  0  0  0  0  0  0  0  0  0
   58.0208   26.6915   45.9576 H   0  0  0  0  0  0  0  0  0  0  0  0
   58.9168   29.3209   45.4101 H   0  0  0  0  0  0  0  0  0  0  0  0
   58.7598   31.5815   44.0787 H   0  0  0  0  0  0  0  0  0  0  0  0
   57.3587   31.6464   42.9565 H   0  0  0  0  0  0  0  0  0  0  0  0
   60.9168   35.5633   46.4288 H   0  0  0  0  0  0  0  0  0  0  0  0
   61.7347   33.7270   47.9276 H   0  0  0  0  0  0  0  0  0  0  0  0
   60.4168   31.5961   48.0559 H   0  0  0  0  0  0  0  0  0  0  0  0
  1  2  1  0
  2  3  2  0
  3  4  1  0
  4  5  2  0
  5  6  1  0
  6  7  2  0
  7  8  1  0
  8  9  1  0
  9 10  1  0
 10 11  2  0
 11 12  1  0
 12 13  1  0
 13 14  1  0
 14 15  1  0
 15 16  2  0
 16 17  1  0
 17 18  2  0
 18 19  1  0
 19 20  2  0
 12 21  2  0
 21 22  1  0
  7  2  1  0
 22 10  1  0
 20 15  1  0
  3 23  1  0
  4 24  1  0
  5 25  1  0
  6 26  1  0
  8 27  1  0
  9 28  1  0
  9 29  1  0
 11 30  1  0
 13 31  1  0
 13 32  1  0
 17 33  1  0
 18 34  1  0
 19 35  1  0
M  CHG  1  22  -1
M  END
>  <UniqueID>  (47) 
41

>  <SMILES>  (47) 
Fc1ccccc1NCc1cc(CSc2ncccn2)n[n-]1

>  <Energy>  (47) 
62.38704583922226

>  <Genealogy>  (47) 
Fc1ccccc1NCc1cc(CSc2ncccn2)n[n-]1 (protonated)
Fc1ccccc1NCc1cc(CSc2ncccn2)n[n-]1 (3D coordinates assigned)
Fc1ccccc1NCc1cc(CSc2ncccn2)n[n-]1 (optimized conformer: 62.38704583922226 kcal/mol)

>  <smiles>  (47) 
Fc1ccccc1NCc1cc(CSc2ncccn2)n[nH]1

>  <score_type>  (47) 
oracle

>  <origin>  (47) 
adg

>  <m_score__min__energy>  (47) 
-9.5899999999999999

>  <m_primary>  (47) 
energy

$$$$
47:0
     RDKit          3D

 40 42  0  0  0  0  0  0  0  0999 V2000
   56.7009   29.5871   46.3702 H   0  0  0  0  0  0  0  0  0  0  0  0
   56.9090   28.9610   45.4900 C   0  0  0  0  0  0  0  0  0  0  0  0
   56.9590   29.5440   44.2890 C   0  0  0  0  0  0  0  0  0  0  0  0
   56.1687   29.3311   43.5541 H   0  0  0  0  0  0  0  0  0  0  0  0
   58.0700   30.4830   43.9210 C   0  0  0  0  0  0  0  0  0  0  0  0
   59.0349   29.9869   44.1022 H   0  0  0  0  0  0  0  0  0  0  0  0
   57.9664   30.7488   42.8586 H   0  0  0  0  0  0  0  0  0  0  0  0
   58.0040   31.7460   44.7400 C   0  0  0  0  0  0  0  0  0  0  0  0
   58.1620   31.6920   46.1340 C   0  0  0  0  0  0  0  0  0  0  0  0
   58.3289   30.7242   46.6294 H   0  0  0  0  0  0  0  0  0  0  0  0
   58.1080   32.8640   46.8950 C   0  0  0  0  0  0  0  0  0  0  0  0
   58.2358   32.8165   47.9865 H   0  0  0  0  0  0  0  0  0  0  0  0
   57.8920   34.0950   46.2710 C   0  0  0  0  0  0  0  0  0  0  0  0
   57.8407   35.0148   46.8721 H   0  0  0  0  0  0  0  0  0  0  0  0
   57.7410   34.1580   44.8830 C   0  0  0  0  0  0  0  0  0  0  0  0
   57.5723   35.1280   44.3924 H   0  0  0  0  0  0  0  0  0  0  0  0
   57.8040   32.9900   44.1170 C   0  0  0  0  0  0  0  0  0  0  0  0
   57.6967   33.0448   43.0236 H   0  0  0  0  0  0  0  0  0  0  0  0
   57.1210   27.5120   45.6880 C   0  0  0  0  0  0  0  0  0  0  0  0
   56.1680   26.5340   45.9340 C   0  0  0  0  0  0  0  0  0  0  0  0
   54.7940   26.7160   46.0170 O   0  0  0  0  0  0  0  0  0  0  0  0
   56.7680   25.3360   46.0560 N   0  0  0  0  0  0  0  0  0  0  0  0
   56.3160   24.4130   46.2400 H   0  0  0  0  0  0  0  0  0  0  0  0
   58.0760   25.5940   45.8760 C   0  0  0  0  0  0  0  0  0  0  0  0
   58.9670   24.7050   45.9250 O   0  0  0  0  0  0  0  0  0  0  0  0
   58.3300   26.9020   45.6430 N   0  0  0  0  0  0  0  0  0  0  0  0
   59.6420   27.5250   45.4410 C   0  0  0  0  0  0  0  0  0  0  0  0
   60.4168   26.7442   45.4526 H   0  0  0  0  0  0  0  0  0  0  0  0
   59.6369   28.0478   44.4732 H   0  0  0  0  0  0  0  0  0  0  0  0
   59.9360   28.5280   46.5280 C   0  0  0  0  0  0  0  0  0  0  0  0
   59.4690   28.3180   47.8380 C   0  0  0  0  0  0  0  0  0  0  0  0
   58.8746   27.4221   48.0704 H   0  0  0  0  0  0  0  0  0  0  0  0
   59.7570   29.2430   48.8460 C   0  0  0  0  0  0  0  0  0  0  0  0
   59.3725   29.0837   49.8642 H   0  0  0  0  0  0  0  0  0  0  0  0
   60.5330   30.3700   48.5610 C   0  0  0  0  0  0  0  0  0  0  0  0
   60.7582   31.0975   49.3548 H   0  0  0  0  0  0  0  0  0  0  0  0
   61.0230   30.5730   47.2680 C   0  0  0  0  0  0  0  0  0  0  0  0
   61.6458   31.4528   47.0487 H   0  0  0  0  0  0  0  0  0  0  0  0
   60.7230   29.6600   46.2530 C   0  0  0  0  0  0  0  0  0  0  0  0
   61.1042   29.8279   45.2349 H   0  0  0  0  0  0  0  0  0  0  0  0
  1  2  1  0
  2  3  2  0
  3  4  1  0
  3  5  1  0
  5  6  1  0
  5  7  1  0
  5  8  1  0
  8  9  2  0
  9 10  1  0
  9 11  1  0
 11 12  1  0
 11 13  2  0
 13 14  1  0
 13 15  1  0
 15 16  1  0
 15 17  2  0
 17 18  1  0
  2 19  1  0
 19 20  2  0
 20 21  1  0
 20 22  1  0
 22 23  1  0
 22 24  1  0
 24 25  2  0
 24 26  1  0
 26 27  1  0
 27 28  1  0
 27 29  1  0
 27 30  1  0
 30 31  2  0
 31 32  1  0
 31 33  1  0
 33 34  1  0
 33 35  2  0
 35 36  1  0
 35 37  1  0
 37 38  1  0
 37 39  2  0
 39 40  1  0
 17  8  1  0
 26 19  1  0
 39 30  1  0
M  CHG  1  21  -1
M  END
>  <UniqueID>  (48) 
42

>  <SMILES>  (48) 
O=c1[nH]c([O-])c(/C=C/Cc2ccccc2)n1Cc1ccccc1

>  <Energy>  (48) 
71.19466466576418

>  <Genealogy>  (48) 
O=c1[nH]c([O-])c(C=CCc2ccccc2)n1Cc1ccccc1 (protonated)
O=c1[nH]c([O-])c(/C=C/Cc2ccccc2)n1Cc1ccccc1 (cis-trans isomerization)
O=c1[nH]c([O-])c(/C=C/Cc2ccccc2)n1Cc1ccccc1 (3D coordinates assigned)
O=c1[nH]c([O-])c(/C=C/Cc2ccccc2)n1Cc1ccccc1 (optimized conformer: 71.19466466576418 kcal/mol)

>  <smiles>  (48) 
O=c1[nH]c(O)c(C=CCc2ccccc2)n1Cc1ccccc1

>  <score_type>  (48) 
oracle

>  <origin>  (48) 
adg

>  <m_score__min__energy>  (48) 
-11.199999999999999

>  <m_primary>  (48) 
energy

$$$$
48:0
     RDKit          3D

 48 51  0  0  0  0  0  0  0  0999 V2000
   56.1680   21.8690   42.2440 O   0  0  0  0  0  0  0  0  0  0  0  0
   56.8790   21.5790   43.2410 C   0  0  0  0  0  0  0  0  0  0  0  0
   56.2830   21.1610   44.5310 C   0  0  0  0  0  0  0  0  0  0  0  0
   55.9340   19.8100   44.6950 C   0  0  0  0  0  0  0  0  0  0  0  0
   55.3700   19.3610   45.8900 C   0  0  0  0  0  0  0  0  0  0  0  0
   55.1460   20.2540   46.9360 C   0  0  0  0  0  0  0  0  0  0  0  0
   55.4860   21.6010   46.7920 C   0  0  0  0  0  0  0  0  0  0  0  0
   56.0570   22.0720   45.5910 C   0  0  0  0  0  0  0  0  0  0  0  0
   56.4050   23.4230   45.4280 O   0  0  0  0  0  0  0  0  0  0  0  0
   57.6950   23.8940   45.0500 C   0  0  0  0  0  0  0  0  0  0  0  0
   57.7320   25.3870   45.1880 C   0  0  0  0  0  0  0  0  0  0  0  0
   58.0050   26.1930   44.0740 C   0  0  0  0  0  0  0  0  0  0  0  0
   57.9980   27.5870   44.1910 C   0  0  0  0  0  0  0  0  0  0  0  0
   57.7100   28.1980   45.4240 C   0  0  0  0  0  0  0  0  0  0  0  0
   57.6910   29.6750   45.5600 C   0  0  0  0  0  0  0  0  0  0  0  0
   56.8860   30.3510   44.8610 O   0  0  0  0  0  0  0  0  0  0  0  0
   58.5470   30.3430   46.5020 N   0  0  0  0  0  0  0  0  0  0  0  0
   58.7990   31.7580   46.4510 C   0  0  0  0  0  0  0  0  0  0  0  0
   57.7550   32.6340   46.1070 C   0  0  0  0  0  0  0  0  0  0  0  0
   57.9790   34.0050   45.9930 C   0  0  0  0  0  0  0  0  0  0  0  0
   59.2530   34.5290   46.2120 C   0  0  0  0  0  0  0  0  0  0  0  0
   60.3150   33.6820   46.5560 C   0  0  0  0  0  0  0  0  0  0  0  0
   61.5930   34.2160   46.7820 C   0  0  0  0  0  0  0  0  0  0  0  0
   62.6500   33.3790   47.1420 C   0  0  0  0  0  0  0  0  0  0  0  0
   62.4420   32.0080   47.2860 C   0  0  0  0  0  0  0  0  0  0  0  0
   61.1760   31.4610   47.0630 C   0  0  0  0  0  0  0  0  0  0  0  0
   60.0960   32.2830   46.6830 C   0  0  0  0  0  0  0  0  0  0  0  0
   57.4060   27.3850   46.5310 C   0  0  0  0  0  0  0  0  0  0  0  0
   57.4150   25.9920   46.4130 C   0  0  0  0  0  0  0  0  0  0  0  0
   57.9738   21.6376   43.1520 H   0  0  0  0  0  0  0  0  0  0  0  0
   56.1070   19.0992   43.8735 H   0  0  0  0  0  0  0  0  0  0  0  0
   55.1019   18.3005   46.0063 H   0  0  0  0  0  0  0  0  0  0  0  0
   54.7007   19.8975   47.8766 H   0  0  0  0  0  0  0  0  0  0  0  0
   55.3071   22.3004   47.6219 H   0  0  0  0  0  0  0  0  0  0  0  0
   58.4573   23.4446   45.7034 H   0  0  0  0  0  0  0  0  0  0  0  0
   57.9012   23.6130   44.0067 H   0  0  0  0  0  0  0  0  0  0  0  0
   58.2259   25.7268   43.1025 H   0  0  0  0  0  0  0  0  0  0  0  0
   58.2195   28.2097   43.3117 H   0  0  0  0  0  0  0  0  0  0  0  0
   58.9680   29.7890   47.2800 H   0  0  0  0  0  0  0  0  0  0  0  0
   56.7473   32.2321   45.9252 H   0  0  0  0  0  0  0  0  0  0  0  0
   57.1482   34.6761   45.7294 H   0  0  0  0  0  0  0  0  0  0  0  0
   59.4247   35.6111   46.1143 H   0  0  0  0  0  0  0  0  0  0  0  0
   61.7621   35.2977   46.6750 H   0  0  0  0  0  0  0  0  0  0  0  0
   63.6508   33.8024   47.3127 H   0  0  0  0  0  0  0  0  0  0  0  0
   63.2779   31.3545   47.5763 H   0  0  0  0  0  0  0  0  0  0  0  0
   61.0206   30.3789   47.1851 H   0  0  0  0  0  0  0  0  0  0  0  0
   57.1592   27.8491   47.4973 H   0  0  0  0  0  0  0  0  0  0  0  0
   57.1723   25.3673   47.2853 H   0  0  0  0  0  0  0  0  0  0  0  0
  1  2  2  0
  2  3  1  0
  3  4  2  0
  4  5  1  0
  5  6  2  0
  6  7  1  0
  7  8  2  0
  8  9  1  0
  9 10  1  0
 10 11  1  0
 11 12  2  0
 12 13  1  0
 13 14  2  0
 14 15  1  0
 15 16  2  0
 15 17  1  0
 17 18  1  0
 18 19  2  0
 19 20  1  0
 20 21  2  0
 21 22  1  0
 22 23  2  0
 23 24  1  0
 24 25  2  0
 25 26  1  0
 26 27  2  0
 14 28  1  0
 28 29  2  0
  8  3  1  0
 29 11  1  0
 27 18  1  0
 27 22  1  0
  2 30  1  0
  4 31  1  0
  5 32  1  0
  6 33  1  0
  7 34  1  0
 10 35  1  0
 10 36  1  0
 12 37  1  0
 13 38  1  0
 17 39  1  0
 19 40  1  0
 20 41  1  0
 21 42  1  0
 23 43  1  0
 24 44  1  0
 25 45  1  0
 26 46  1  0
 28 47  1  0
 29 48  1  0
M  END
>  <UniqueID>  (49) 
43

>  <SMILES>  (49) 
O=Cc1ccccc1OCc1ccc(C(=O)Nc2cccc3ccccc23)cc1

>  <Energy>  (49) 
64.73164547727961

>  <Genealogy>  (49) 
O=Cc1ccccc1OCc1ccc(C(=O)Nc2cccc3ccccc23)cc1 (3D coordinates assigned)
O=Cc1ccccc1OCc1ccc(C(=O)Nc2cccc3ccccc23)cc1 (optimized conformer: 64.73164547727961 kcal/mol)

>  <smiles>  (49) 
O=Cc1ccccc1OCc1ccc(C(=O)Nc2cccc3ccccc23)cc1

>  <score_type>  (49) 
oracle

>  <origin>  (49) 
adg

>  <m_score__min__energy>  (49) 
-8.5299999999999994

>  <m_primary>  (49) 
energy

$$$$
49:0
     RDKit          3D

 59 62  0  0  0  0  0  0  0  0999 V2000
   55.4681   31.2393   53.9614 H   0  0  0  0  0  0  0  0  0  0  0  0
   56.0570   30.3430   54.2060 C   0  0  0  0  0  0  0  0  0  0  0  0
   55.4620   29.4330   54.9090 N   0  0  0  0  0  0  0  0  0  0  0  0
   54.4820   28.4630   54.4640 C   0  0  0  0  0  0  0  0  0  0  0  0
   54.8325   27.4540   54.7269 H   0  0  0  0  0  0  0  0  0  0  0  0
   53.5254   28.6861   54.9592 H   0  0  0  0  0  0  0  0  0  0  0  0
   54.2680   28.5370   52.9470 C   0  0  0  0  0  0  0  0  0  0  0  0
   55.2342   28.7304   52.4582 H   0  0  0  0  0  0  0  0  0  0  0  0
   53.8450   27.5792   52.6097 H   0  0  0  0  0  0  0  0  0  0  0  0
   53.3040   29.6370   52.5810 C   0  0  0  0  0  0  0  0  0  0  0  0
   53.6950   30.6620   51.7030 C   0  0  0  0  0  0  0  0  0  0  0  0
   54.7026   30.6519   51.2618 H   0  0  0  0  0  0  0  0  0  0  0  0
   52.8070   31.6940   51.3890 C   0  0  0  0  0  0  0  0  0  0  0  0
   53.1156   32.4911   50.6966 H   0  0  0  0  0  0  0  0  0  0  0  0
   51.5250   31.7170   51.9530 C   0  0  0  0  0  0  0  0  0  0  0  0
   50.6430   32.7410   51.6380 O   0  0  0  0  0  0  0  0  0  0  0  0
   51.1340   30.7060   52.8360 C   0  0  0  0  0  0  0  0  0  0  0  0
   50.1303   30.7266   53.2856 H   0  0  0  0  0  0  0  0  0  0  0  0
   52.0190   29.6680   53.1480 C   0  0  0  0  0  0  0  0  0  0  0  0
   51.7070   28.8724   53.8406 H   0  0  0  0  0  0  0  0  0  0  0  0
   57.4840   30.3030   53.6830 C   0  0  2  0  0  0  0  0  0  0  0  0
   58.1060   29.9611   54.5234 H   0  0  0  0  0  0  0  0  0  0  0  0
   57.9740   31.6350   53.3250 N   0  0  0  0  0  0  0  0  0  0  0  0
   57.9360   32.3620   54.0730 H   0  0  0  0  0  0  0  0  0  0  0  0
   58.5090   31.9570   52.0330 C   0  0  0  0  0  0  0  0  0  0  0  0
   58.3660   31.0230   50.9990 C   0  0  0  0  0  0  0  0  0  0  0  0
   58.7510   31.3440   49.6940 C   0  0  0  0  0  0  0  0  0  0  0  0
   58.5040   30.4350   48.6710 O   0  0  0  0  0  0  0  0  0  0  0  0
   59.3520   32.5850   49.4210 C   0  0  0  0  0  0  0  0  0  0  0  0
   59.7610   32.9570   48.0960 N   0  0  0  0  0  0  0  0  0  0  0  0
   58.9040   33.4290   47.0480 C   0  0  0  0  0  0  0  0  0  0  0  0
   58.8060   34.6710   46.8570 O   0  0  0  0  0  0  0  0  0  0  0  0
   58.1920   32.5040   46.1500 C   0  0  0  0  0  0  0  0  0  0  0  0
   56.9750   32.7420   45.6190 N   0  0  0  0  0  0  0  0  0  0  0  0
   56.6640   31.7000   44.9070 O   0  0  0  0  0  0  0  0  0  0  0  0
   57.6160   30.7940   44.9540 C   0  0  0  0  0  0  0  0  0  0  0  0
   57.5720   29.4700   44.2410 C   0  0  0  0  0  0  0  0  0  0  0  0
   58.5843   29.2080   43.8997 H   0  0  0  0  0  0  0  0  0  0  0  0
   57.0920   28.3730   45.1970 C   0  0  0  0  0  0  0  0  0  0  0  0
   57.2365   28.7033   46.2362 H   0  0  0  0  0  0  0  0  0  0  0  0
   56.0246   28.1741   45.0205 H   0  0  0  0  0  0  0  0  0  0  0  0
   57.6703   27.4540   45.0205 H   0  0  0  0  0  0  0  0  0  0  0  0
   56.6600   29.5670   43.0110 C   0  0  0  0  0  0  0  0  0  0  0  0
   55.6153   29.6781   43.3370 H   0  0  0  0  0  0  0  0  0  0  0  0
   56.9504   30.4393   42.4071 H   0  0  0  0  0  0  0  0  0  0  0  0
   56.7604   28.6531   42.4071 H   0  0  0  0  0  0  0  0  0  0  0  0
   58.6370   31.2600   45.7560 C   0  0  0  0  0  0  0  0  0  0  0  0
   59.5805   30.7590   46.0184 H   0  0  0  0  0  0  0  0  0  0  0  0
   59.4960   33.5190   50.4510 C   0  0  0  0  0  0  0  0  0  0  0  0
   59.9333   34.5042   50.2314 H   0  0  0  0  0  0  0  0  0  0  0  0
   59.0910   33.2190   51.7620 C   0  0  0  0  0  0  0  0  0  0  0  0
   59.2320   34.2650   52.8320 C   0  0  0  0  0  0  0  0  0  0  0  0
   59.1678   33.7885   53.8213 H   0  0  0  0  0  0  0  0  0  0  0  0
   60.2058   34.7661   52.7289 H   0  0  0  0  0  0  0  0  0  0  0  0
   58.4256   35.0060   52.7289 H   0  0  0  0  0  0  0  0  0  0  0  0
   57.7900   29.7810   51.2680 O   0  0  0  0  0  0  0  0  0  0  0  0
   57.7200   29.2370   52.5840 C   0  0  0  0  0  0  0  0  0  0  0  0
   58.6674   28.7206   52.7979 H   0  0  0  0  0  0  0  0  0  0  0  0
   56.8578   28.5543   52.6058 H   0  0  0  0  0  0  0  0  0  0  0  0
  1  2  1  0
  2  3  2  0
  3  4  1  0
  4  5  1  0
  4  6  1  0
  4  7  1  0
  7  8  1  0
  7  9  1  0
  7 10  1  0
 10 11  2  0
 11 12  1  0
 11 13  1  0
 13 14  1  0
 13 15  2  0
 15 16  1  0
 15 17  1  0
 17 18  1  0
 17 19  2  0
 19 20  1  0
  2 21  1  0
 21 22  1  1
 21 23  1  0
 23 24  1  0
 23 25  1  0
 25 26  2  0
 26 27  1  0
 27 28  1  0
 27 29  2  0
 29 30  1  0
 30 31  1  0
 31 32  2  0
 31 33  1  0
 33 34  2  0
 34 35  1  0
 35 36  1  0
 36 37  1  0
 37 38  1  0
 37 39  1  0
 39 40  1  0
 39 41  1  0
 39 42  1  0
 37 43  1  0
 43 44  1  0
 43 45  1  0
 43 46  1  0
 36 47  2  0
 47 48  1  0
 29 49  1  0
 49 50  1  0
 49 51  2  0
 51 52  1  0
 52 53  1  0
 52 54  1  0
 52 55  1  0
 26 56  1  0
 56 57  1  0
 57 58  1  0
 57 59  1  0
 19 10  1  0
 57 21  1  0
 51 25  1  0
 47 33  1  0
M  CHG  3  16  -1  28  -1  30  -1
M  END
>  <UniqueID>  (50) 
44

>  <SMILES>  (50) 
Cc1cc([N-]C(=O)c2cc(C(C)C)on2)c([O-])c2c1N[C@@H](/C=N\CCc1ccc([O-])cc1)CO2

>  <Energy>  (50) 
100.14373976066963

>  <Genealogy>  (50) 
Cc1cc([N-]C(=O)c2cc(C(C)C)on2)c([O-])c2c1NC(C=NCCc1ccc([O-])cc1)CO2 (protonated)
Cc1cc([N-]C(=O)c2cc(C(C)C)on2)c([O-])c2c1N[C@@H](C=NCCc1ccc([O-])cc1)CO2 (chirality)
Cc1cc([N-]C(=O)c2cc(C(C)C)on2)c([O-])c2c1N[C@@H](/C=N\CCc1ccc([O-])cc1)CO2 (cis-trans isomerization)
Cc1cc([N-]C(=O)c2cc(C(C)C)on2)c([O-])c2c1N[C@@H](/C=N\CCc1ccc([O-])cc1)CO2 (3D coordinates assigned)
Cc1cc([N-]C(=O)c2cc(C(C)C)on2)c([O-])c2c1N[C@@H](/C=N\CCc1ccc([O-])cc1)CO2 (nonaromatic ring conformer: 100.14373976066963 kcal/mol)

>  <smiles>  (50) 
Cc1cc(NC(=O)c2cc(C(C)C)on2)c(O)c2c1NC(C=NCCc1ccc(O)cc1)CO2

>  <score_type>  (50) 
oracle

>  <origin>  (50) 
adg

>  <m_score__min__energy>  (50) 
-15.16

>  <m_primary>  (50) 
energy

$$$$
50:0
     RDKit          3D

 30 31  0  0  0  0  0  0  0  0999 V2000
   58.2150   30.2100   52.1420 O   0  0  0  0  0  0  0  0  0  0  0  0
   57.7090   31.1570   51.4810 C   0  0  0  0  0  0  0  0  0  0  0  0
   56.2850   31.3470   51.4570 N   0  0  0  0  0  0  0  0  0  0  0  0
   55.3490   30.4460   52.0760 C   0  0  0  0  0  0  0  0  0  0  0  0
   55.7260   29.2960   52.4320 O   0  0  0  0  0  0  0  0  0  0  0  0
   53.9320   30.8380   52.2730 C   0  0  0  0  0  0  0  0  0  0  0  0
   53.2620   30.4820   53.4580 C   0  0  0  0  0  0  0  0  0  0  0  0
   51.9280   30.8490   53.6570 C   0  0  0  0  0  0  0  0  0  0  0  0
   51.2490   31.5840   52.6810 C   0  0  0  0  0  0  0  0  0  0  0  0
   49.9230   31.9470   52.8850 O   0  0  0  0  0  0  0  0  0  0  0  0
   51.9080   31.9570   51.5040 C   0  0  0  0  0  0  0  0  0  0  0  0
   51.2410   32.6960   50.5350 O   0  0  0  0  0  0  0  0  0  0  0  0
   53.2430   31.5880   51.3010 C   0  0  0  0  0  0  0  0  0  0  0  0
   58.5520   32.0410   50.7250 N   0  0  0  0  0  0  0  0  0  0  0  0
   59.9860   32.0810   50.8390 C   0  0  0  0  0  0  0  0  0  0  0  0
   60.6650   33.2940   51.0630 C   0  0  0  0  0  0  0  0  0  0  0  0
   62.0600   33.3170   51.1460 C   0  0  0  0  0  0  0  0  0  0  0  0
   62.7900   32.1370   50.9940 C   0  0  0  0  0  0  0  0  0  0  0  0
   62.1280   30.9310   50.7510 C   0  0  0  0  0  0  0  0  0  0  0  0
   62.8420   29.7890   50.5940 F   0  0  0  0  0  0  0  0  0  0  0  0
   60.7320   30.9020   50.6650 C   0  0  0  0  0  0  0  0  0  0  0  0
   60.1020   29.7230   50.4290 F   0  0  0  0  0  0  0  0  0  0  0  0
   55.9190   32.1690   50.9280 H   0  0  0  0  0  0  0  0  0  0  0  0
   53.7922   29.9103   54.2339 H   0  0  0  0  0  0  0  0  0  0  0  0
   51.4114   30.5588   54.5838 H   0  0  0  0  0  0  0  0  0  0  0  0
   53.7573   31.8861   50.3755 H   0  0  0  0  0  0  0  0  0  0  0  0
   58.0990   32.6330   49.9930 H   0  0  0  0  0  0  0  0  0  0  0  0
   60.0947   34.2281   51.1732 H   0  0  0  0  0  0  0  0  0  0  0  0
   62.5835   34.2665   51.3314 H   0  0  0  0  0  0  0  0  0  0  0  0
   63.8875   32.1567   51.0656 H   0  0  0  0  0  0  0  0  0  0  0  0
  1  2  2  0
  2  3  1  0
  3  4  1  0
  4  5  2  0
  4  6  1  0
  6  7  2  0
  7  8  1  0
  8  9  2  0
  9 10  1  0
  9 11  1  0
 11 12  1  0
 11 13  2  0
  2 14  1  0
 14 15  1  0
 15 16  2  0
 16 17  1  0
 17 18  2  0
 18 19  1  0
 19 20  1  0
 19 21  2  0
 21 22  1  0
 13  6  1  0
 21 15  1  0
  3 23  1  0
  7 24  1  0
  8 25  1  0
 13 26  1  0
 14 27  1  0
 16 28  1  0
 17 29  1  0
 18 30  1  0
M  CHG  2  10  -1  12  -1
M  END
>  <UniqueID>  (51) 
45

>  <SMILES>  (51) 
O=C(NC(=O)c1ccc([O-])c([O-])c1)Nc1cccc(F)c1F

>  <Energy>  (51) 
37.753878669646475

>  <Genealogy>  (51) 
O=C(NC(=O)c1ccc([O-])c([O-])c1)Nc1cccc(F)c1F (protonated)
O=C(NC(=O)c1ccc([O-])c([O-])c1)Nc1cccc(F)c1F (3D coordinates assigned)
O=C(NC(=O)c1ccc([O-])c([O-])c1)Nc1cccc(F)c1F (optimized conformer: 37.753878669646475 kcal/mol)

>  <smiles>  (51) 
O=C(NC(=O)c1ccc(O)c(O)c1)Nc1cccc(F)c1F

>  <score_type>  (51) 
oracle

>  <origin>  (51) 
adg

>  <m_score__min__energy>  (51) 
-14.56

>  <m_primary>  (51) 
energy

$$$$
51:0
     RDKit          3D

 39 40  0  0  0  0  0  0  0  0999 V2000
   55.6940   22.8100   45.3450 H   0  0  0  0  0  0  0  0  0  0  0  0
   56.4730   22.2960   44.8760 N   0  0  0  0  0  0  0  0  0  0  0  0
   57.7870   22.2380   45.9950 S   0  0  0  0  0  0  0  0  0  0  0  0
   59.0750   22.0860   45.2360 O   0  0  0  0  0  0  0  0  0  0  0  0
   57.5960   21.0700   46.9200 O   0  0  0  0  0  0  0  0  0  0  0  0
   57.8150   23.7120   46.9070 N   0  0  0  0  0  0  0  0  0  0  0  0
   57.2930   24.9730   46.4610 C   0  0  0  0  0  0  0  0  0  0  0  0
   58.1260   26.0150   46.0270 C   0  0  0  0  0  0  0  0  0  0  0  0
   59.2170   25.8749   46.0246 H   0  0  0  0  0  0  0  0  0  0  0  0
   57.5800   27.2370   45.5950 C   0  0  0  0  0  0  0  0  0  0  0  0
   58.4660   28.3520   45.1880 C   0  0  0  0  0  0  0  0  0  0  0  0
   59.3625   28.1234   44.5930 H   0  0  0  0  0  0  0  0  0  0  0  0
   58.2200   29.6270   45.5150 C   0  0  0  0  0  0  0  0  0  0  0  0
   57.9244   29.8709   46.5461 H   0  0  0  0  0  0  0  0  0  0  0  0
   58.3390   30.7300   44.5050 C   0  0  0  0  0  0  0  0  0  0  0  0
   57.3984   30.8056   43.9396 H   0  0  0  0  0  0  0  0  0  0  0  0
   59.1735   30.5008   43.8260 H   0  0  0  0  0  0  0  0  0  0  0  0
   58.6140   32.0440   45.1860 C   0  0  0  0  0  0  0  0  0  0  0  0
   58.3460   33.2490   44.5240 C   0  0  0  0  0  0  0  0  0  0  0  0
   57.9603   33.2334   43.4940 H   0  0  0  0  0  0  0  0  0  0  0  0
   58.5660   34.4700   45.1650 C   0  0  0  0  0  0  0  0  0  0  0  0
   58.3589   35.4100   44.6325 H   0  0  0  0  0  0  0  0  0  0  0  0
   59.0480   34.5090   46.4800 C   0  0  0  0  0  0  0  0  0  0  0  0
   59.2600   35.7850   47.1050 N   0  0  0  0  0  0  0  0  0  0  0  0
   58.7190   36.0520   47.9570 H   0  0  0  0  0  0  0  0  0  0  0  0
   59.9470   36.4770   46.7360 H   0  0  0  0  0  0  0  0  0  0  0  0
   59.3110   33.2980   47.1630 C   0  0  0  0  0  0  0  0  0  0  0  0
   59.8180   33.2920   48.5800 C   0  0  0  0  0  0  0  0  0  0  0  0
   58.9651   33.3021   49.2746 H   0  0  0  0  0  0  0  0  0  0  0  0
   60.4191   32.3867   48.7505 H   0  0  0  0  0  0  0  0  0  0  0  0
   60.4404   34.1828   48.7505 H   0  0  0  0  0  0  0  0  0  0  0  0
   59.0880   32.0750   46.5070 C   0  0  0  0  0  0  0  0  0  0  0  0
   59.2873   31.1309   47.0351 H   0  0  0  0  0  0  0  0  0  0  0  0
   56.1750   27.3900   45.6150 C   0  0  0  0  0  0  0  0  0  0  0  0
   55.5480   28.5580   45.1780 O   0  0  0  0  0  0  0  0  0  0  0  0
   54.7580   28.5640   44.5470 H   0  0  0  0  0  0  0  0  0  0  0  0
   55.3940   26.3660   46.0500 N   0  0  0  0  0  0  0  0  0  0  0  0
   55.9080   25.1800   46.4660 C   0  0  0  0  0  0  0  0  0  0  0  0
   55.1300   24.2710   46.8560 O   0  0  0  0  0  0  0  0  0  0  0  0
  1  2  1  0
  2  3  1  0
  3  4  2  0
  3  5  2  0
  3  6  1  0
  6  7  1  0
  7  8  2  0
  8  9  1  0
  8 10  1  0
 10 11  1  0
 11 12  1  0
 11 13  2  0
 13 14  1  0
 13 15  1  0
 15 16  1  0
 15 17  1  0
 15 18  1  0
 18 19  2  0
 19 20  1  0
 19 21  1  0
 21 22  1  0
 21 23  2  0
 23 24  1  0
 24 25  1  0
 24 26  1  0
 23 27  1  0
 27 28  1  0
 28 29  1  0
 28 30  1  0
 28 31  1  0
 27 32  2  0
 32 33  1  0
 10 34  2  0
 34 35  1  0
 35 36  1  0
 34 37  1  0
 37 38  1  0
 38 39  2  0
 38  7  1  0
 32 18  1  0
M  CHG  3   2  -1   6  -1  37  -1
M  END
>  <UniqueID>  (52) 
46

>  <SMILES>  (52) 
Cc1cc(C/C=C/c2cc([N-]S([NH-])(=O)=O)c(=O)[n-]c2O)ccc1N

>  <Energy>  (52) 
43.38824820325677

>  <Genealogy>  (52) 
Cc1cc(CC=Cc2cc([N-]S([NH-])(=O)=O)c(=O)[n-]c2O)ccc1N (protonated)
Cc1cc(C/C=C/c2cc([N-]S([NH-])(=O)=O)c(=O)[n-]c2O)ccc1N (cis-trans isomerization)
Cc1cc(C/C=C/c2cc([N-]S([NH-])(=O)=O)c(=O)[n-]c2O)ccc1N (3D coordinates assigned)
Cc1cc(C/C=C/c2cc([N-]S([NH-])(=O)=O)c(=O)[n-]c2O)ccc1N (optimized conformer: 43.38824820325677 kcal/mol)

>  <smiles>  (52) 
Cc1cc(CC=Cc2cc(NS(N)(=O)=O)c(=O)[nH]c2O)ccc1N

>  <score_type>  (52) 
oracle

>  <origin>  (52) 
adg

>  <m_score__min__energy>  (52) 
-13.609999999999999

>  <m_primary>  (52) 
energy

$$$$
52:0
     RDKit          3D

 50 52  0  0  0  0  0  0  0  0999 V2000
   58.9210   33.8400   51.8930 C   0  0  0  0  0  0  0  0  0  0  0  0
   58.9690   33.3460   50.5570 O   0  0  0  0  0  0  0  0  0  0  0  0
   59.4080   32.0620   50.1930 C   0  0  0  0  0  0  0  0  0  0  0  0
   58.5180   30.9720   50.1120 C   0  0  0  0  0  0  0  0  0  0  0  0
   58.9810   29.7040   49.7530 C   0  0  0  0  0  0  0  0  0  0  0  0
   60.3320   29.5070   49.4720 C   0  0  0  0  0  0  0  0  0  0  0  0
   61.2270   30.5750   49.5500 C   0  0  0  0  0  0  0  0  0  0  0  0
   60.7760   31.8600   49.9000 C   0  0  0  0  0  0  0  0  0  0  0  0
   61.7740   32.9910   49.9660 C   0  0  0  0  0  0  0  0  0  0  0  0
   61.5720   33.9260   48.8580 N   0  0  0  0  0  0  0  0  0  0  0  0
   61.9100   33.1730   47.3260 S   0  0  0  0  0  0  0  0  0  0  0  0
   62.5630   34.1770   46.4190 O   0  0  0  0  0  0  0  0  0  0  0  0
   62.8600   32.0230   47.5210 O   0  0  0  0  0  0  0  0  0  0  0  0
   60.4190   32.6110   46.5730 C   0  0  0  0  0  0  0  0  0  0  0  0
   59.5600   33.5340   45.9620 C   0  0  0  0  0  0  0  0  0  0  0  0
   58.3620   33.1030   45.3860 C   0  0  0  0  0  0  0  0  0  0  0  0
   57.9960   31.7530   45.4350 C   0  0  0  0  0  0  0  0  0  0  0  0
   56.7640   31.3480   44.8220 N   0  0  0  0  0  0  0  0  0  0  0  0
   56.3400   29.9970   44.5950 C   0  0  0  0  0  0  0  0  0  0  0  0
   55.1830   29.6210   44.9280 O   0  0  0  0  0  0  0  0  0  0  0  0
   57.2690   29.0370   43.9200 C   0  0  0  0  0  0  0  0  0  0  0  0
   57.8610   28.0740   44.9210 C   0  0  0  0  0  0  0  0  0  0  0  0
   59.2600   27.9650   45.0150 C   0  0  0  0  0  0  0  0  0  0  0  0
   59.8460   27.0720   45.9150 C   0  0  0  0  0  0  0  0  0  0  0  0
   59.0440   26.2710   46.7270 C   0  0  0  0  0  0  0  0  0  0  0  0
   57.6530   26.3560   46.6370 C   0  0  0  0  0  0  0  0  0  0  0  0
   57.0500   27.2450   45.7370 C   0  0  0  0  0  0  0  0  0  0  0  0
   55.6560   27.2720   45.6770 O   0  0  0  0  0  0  0  0  0  0  0  0
   58.8690   30.8250   46.0280 C   0  0  0  0  0  0  0  0  0  0  0  0
   60.0740   31.2550   46.5930 C   0  0  0  0  0  0  0  0  0  0  0  0
   59.0027   32.9995   52.5979 H   0  0  0  0  0  0  0  0  0  0  0  0
   59.7556   34.5378   52.0561 H   0  0  0  0  0  0  0  0  0  0  0  0
   57.9677   34.3640   52.0561 H   0  0  0  0  0  0  0  0  0  0  0  0
   57.4508   31.1210   50.3332 H   0  0  0  0  0  0  0  0  0  0  0  0
   58.2785   28.8597   49.6919 H   0  0  0  0  0  0  0  0  0  0  0  0
   60.6935   28.5076   49.1882 H   0  0  0  0  0  0  0  0  0  0  0  0
   62.2933   30.4103   49.3360 H   0  0  0  0  0  0  0  0  0  0  0  0
   61.6491   33.5274   50.9182 H   0  0  0  0  0  0  0  0  0  0  0  0
   62.7883   32.5716   49.8938 H   0  0  0  0  0  0  0  0  0  0  0  0
   59.8292   34.6002   45.9357 H   0  0  0  0  0  0  0  0  0  0  0  0
   57.7018   33.8300   44.8905 H   0  0  0  0  0  0  0  0  0  0  0  0
   56.7123   28.4702   43.1593 H   0  0  0  0  0  0  0  0  0  0  0  0
   58.0854   29.6056   43.4507 H   0  0  0  0  0  0  0  0  0  0  0  0
   59.8991   28.5893   44.3733 H   0  0  0  0  0  0  0  0  0  0  0  0
   60.9416   27.0005   45.9833 H   0  0  0  0  0  0  0  0  0  0  0  0
   59.5072   25.5718   47.4388 H   0  0  0  0  0  0  0  0  0  0  0  0
   57.0252   25.7197   47.2781 H   0  0  0  0  0  0  0  0  0  0  0  0
   55.1380   27.8800   45.0560 H   0  0  0  0  0  0  0  0  0  0  0  0
   58.6039   29.7576   46.0478 H   0  0  0  0  0  0  0  0  0  0  0  0
   60.7536   30.5239   47.0552 H   0  0  0  0  0  0  0  0  0  0  0  0
  1  2  1  0
  2  3  1  0
  3  4  2  0
  4  5  1  0
  5  6  2  0
  6  7  1  0
  7  8  2  0
  8  9  1  0
  9 10  1  0
 10 11  1  0
 11 12  2  0
 11 13  2  0
 11 14  1  0
 14 15  2  0
 15 16  1  0
 16 17  2  0
 17 18  1  0
 18 19  1  0
 19 20  2  0
 19 21  1  0
 21 22  1  0
 22 23  2  0
 23 24  1  0
 24 25  2  0
 25 26  1  0
 26 27  2  0
 27 28  1  0
 17 29  1  0
 29 30  2  0
  8  3  1  0
 30 14  1  0
 27 22  1  0
  1 31  1  0
  1 32  1  0
  1 33  1  0
  4 34  1  0
  5 35  1  0
  6 36  1  0
  7 37  1  0
  9 38  1  0
  9 39  1  0
 15 40  1  0
 16 41  1  0
 21 42  1  0
 21 43  1  0
 23 44  1  0
 24 45  1  0
 25 46  1  0
 26 47  1  0
 28 48  1  0
 29 49  1  0
 30 50  1  0
M  CHG  2  10  -1  18  -1
M  END
>  <UniqueID>  (53) 
47

>  <SMILES>  (53) 
COc1ccccc1C[N-]S(=O)(=O)c1ccc([N-]C(=O)Cc2ccccc2O)cc1

>  <Energy>  (53) 
53.98456676780805

>  <Genealogy>  (53) 
COc1ccccc1C[N-]S(=O)(=O)c1ccc([N-]C(=O)Cc2ccccc2O)cc1 (protonated)
COc1ccccc1C[N-]S(=O)(=O)c1ccc([N-]C(=O)Cc2ccccc2O)cc1 (3D coordinates assigned)
COc1ccccc1C[N-]S(=O)(=O)c1ccc([N-]C(=O)Cc2ccccc2O)cc1 (optimized conformer: 53.98456676780805 kcal/mol)

>  <smiles>  (53) 
COc1ccccc1CNS(=O)(=O)c1ccc(NC(=O)Cc2ccccc2O)cc1

>  <score_type>  (53) 
oracle

>  <origin>  (53) 
adg

>  <m_score__min__energy>  (53) 
-11.890000000000001

>  <m_primary>  (53) 
energy

$$$$
53:0
     RDKit          3D

 39 40  0  0  0  0  0  0  0  0999 V2000
   56.7890   20.7140   42.6610 C   0  0  0  0  0  0  0  0  0  0  0  0
   55.9360   21.6780   43.2680 O   0  0  0  0  0  0  0  0  0  0  0  0
   56.3220   22.5300   44.3140 C   0  0  0  0  0  0  0  0  0  0  0  0
   57.5330   22.2760   44.9670 C   0  0  0  0  0  0  0  0  0  0  0  0
   57.9620   23.0940   46.0140 C   0  0  0  0  0  0  0  0  0  0  0  0
   57.1850   24.1890   46.4240 C   0  0  0  0  0  0  0  0  0  0  0  0
   57.6410   25.0520   47.5720 C   0  0  0  0  0  0  0  0  0  0  0  0
   57.6510   26.4570   47.1740 N   0  0  0  0  0  0  0  0  0  0  0  0
   58.7710   27.3200   47.4240 C   0  0  0  0  0  0  0  0  0  0  0  0
   59.8470   26.8380   47.8740 O   0  0  0  0  0  0  0  0  0  0  0  0
   58.6600   28.7800   47.1850 C   0  0  0  0  0  0  0  0  0  0  0  0
   59.3000   29.6470   48.0830 C   0  0  0  0  0  0  0  0  0  0  0  0
   59.2930   31.0220   47.8710 C   0  0  0  0  0  0  0  0  0  0  0  0
   58.6410   31.5570   46.7640 C   0  0  0  0  0  0  0  0  0  0  0  0
   57.9750   30.7230   45.8530 C   0  0  0  0  0  0  0  0  0  0  0  0
   57.1030   31.4840   44.5090 S   0  0  0  0  0  0  0  0  0  0  0  0
   55.5030   30.8360   44.3980 N   0  0  0  0  0  0  0  0  0  0  0  0
   56.9960   32.9670   44.7330 O   0  0  0  0  0  0  0  0  0  0  0  0
   57.8420   31.2390   43.2240 O   0  0  0  0  0  0  0  0  0  0  0  0
   57.9870   29.3170   46.0520 C   0  0  0  0  0  0  0  0  0  0  0  0
   57.2650   28.4200   45.1210 C   0  0  0  0  0  0  0  0  0  0  0  0
   57.8870   27.8460   44.1870 O   0  0  0  0  0  0  0  0  0  0  0  0
   55.8980   28.2170   45.2550 O   0  0  0  0  0  0  0  0  0  0  0  0
   55.9630   24.4460   45.7750 C   0  0  0  0  0  0  0  0  0  0  0  0
   55.1660   25.5170   46.1670 O   0  0  0  0  0  0  0  0  0  0  0  0
   55.5370   23.6240   44.7250 C   0  0  0  0  0  0  0  0  0  0  0  0
   57.3019   20.1344   43.4426 H   0  0  0  0  0  0  0  0  0  0  0  0
   56.1896   20.0361   42.0356 H   0  0  0  0  0  0  0  0  0  0  0  0
   57.5348   21.2264   42.0356 H   0  0  0  0  0  0  0  0  0  0  0  0
   58.1531   21.4236   44.6525 H   0  0  0  0  0  0  0  0  0  0  0  0
   58.9145   22.8792   46.5206 H   0  0  0  0  0  0  0  0  0  0  0  0
   56.9543   24.9198   48.4211 H   0  0  0  0  0  0  0  0  0  0  0  0
   58.6592   24.7541   47.8625 H   0  0  0  0  0  0  0  0  0  0  0  0
   56.8150   26.8350   46.6730 H   0  0  0  0  0  0  0  0  0  0  0  0
   59.8131   29.2352   48.9646 H   0  0  0  0  0  0  0  0  0  0  0  0
   59.8046   31.6886   48.5809 H   0  0  0  0  0  0  0  0  0  0  0  0
   58.6478   32.6449   46.6015 H   0  0  0  0  0  0  0  0  0  0  0  0
   55.4350   30.0690   45.1030 H   0  0  0  0  0  0  0  0  0  0  0  0
   54.5836   23.8341   44.2182 H   0  0  0  0  0  0  0  0  0  0  0  0
  1  2  1  0
  2  3  1  0
  3  4  2  0
  4  5  1  0
  5  6  2  0
  6  7  1  0
  7  8  1  0
  8  9  1  0
  9 10  2  0
  9 11  1  0
 11 12  2  0
 12 13  1  0
 13 14  2  0
 14 15  1  0
 15 16  1  0
 16 17  1  0
 16 18  2  0
 16 19  2  0
 15 20  2  0
 20 21  1  0
 21 22  2  0
 21 23  1  0
  6 24  1  0
 24 25  1  0
 24 26  2  0
 26  3  1  0
 20 11  1  0
  1 27  1  0
  1 28  1  0
  1 29  1  0
  4 30  1  0
  5 31  1  0
  7 32  1  0
  7 33  1  0
  8 34  1  0
 12 35  1  0
 13 36  1  0
 14 37  1  0
 17 38  1  0
 26 39  1  0
M  CHG  3  17  -1  23  -1  25  -1
M  END
>  <UniqueID>  (54) 
48

>  <SMILES>  (54) 
COc1ccc(CNC(=O)c2cccc(S([NH-])(=O)=O)c2C(=O)[O-])c([O-])c1

>  <Energy>  (54) 
50.64736234255491

>  <Genealogy>  (54) 
COc1ccc(CNC(=O)c2cccc(S([NH-])(=O)=O)c2C(=O)[O-])c([O-])c1 (protonated)
COc1ccc(CNC(=O)c2cccc(S([NH-])(=O)=O)c2C(=O)[O-])c([O-])c1 (3D coordinates assigned)
COc1ccc(CNC(=O)c2cccc(S([NH-])(=O)=O)c2C(=O)[O-])c([O-])c1 (optimized conformer: 50.64736234255491 kcal/mol)

>  <smiles>  (54) 
COc1ccc(CNC(=O)c2cccc(S(N)(=O)=O)c2C(=O)O)c(O)c1

>  <score_type>  (54) 
oracle

>  <origin>  (54) 
adg

>  <m_score__min__energy>  (54) 
-13.26

>  <m_primary>  (54) 
energy

$$$$
54:0
     RDKit          3D

 50 52  0  0  0  0  0  0  0  0999 V2000
   60.7580   28.9940   45.2280 C   0  0  0  0  0  0  0  0  0  0  0  0
   59.5400   29.5480   45.7150 O   0  0  0  0  0  0  0  0  0  0  0  0
   58.4330   29.8640   44.9110 C   0  0  0  0  0  0  0  0  0  0  0  0
   58.4890   30.8650   43.9200 C   0  0  0  0  0  0  0  0  0  0  0  0
   57.3640   31.1490   43.1420 C   0  0  0  0  0  0  0  0  0  0  0  0
   56.1770   30.4430   43.3410 C   0  0  0  0  0  0  0  0  0  0  0  0
   56.1100   29.4490   44.3200 C   0  0  0  0  0  0  0  0  0  0  0  0
   57.2380   29.1530   45.1130 C   0  0  0  0  0  0  0  0  0  0  0  0
   57.2120   28.1620   46.1050 O   0  0  0  0  0  0  0  0  0  0  0  0
   57.7070   26.8350   45.9390 C   0  0  0  0  0  0  0  0  0  0  0  0
   58.9060   26.6160   46.8580 C   0  0  0  0  0  0  0  0  0  0  0  0
   59.1820   27.8160   47.6450 N   0  0  0  0  0  0  0  0  0  0  0  0
   59.9990   27.7970   48.8240 C   0  0  0  0  0  0  0  0  0  0  0  0
   60.5090   26.7180   49.2290 O   0  0  0  0  0  0  0  0  0  0  0  0
   60.2370   29.0600   49.5950 C   0  0  0  0  0  0  0  0  0  0  0  0
   59.7660   30.1940   48.8650 O   0  0  0  0  0  0  0  0  0  0  0  0
   60.5750   31.1720   48.2560 C   0  0  0  0  0  0  0  0  0  0  0  0
   61.9660   31.1690   48.3940 C   0  0  0  0  0  0  0  0  0  0  0  0
   62.7400   32.1490   47.7750 C   0  0  0  0  0  0  0  0  0  0  0  0
   63.9910   32.1040   47.9280 O   0  0  0  0  0  0  0  0  0  0  0  0
   62.1550   33.1370   47.0180 N   0  0  0  0  0  0  0  0  0  0  0  0
   63.0060   34.1590   46.3730 C   0  0  0  0  0  0  0  0  0  0  0  0
   60.7820   33.1710   46.8650 C   0  0  0  0  0  0  0  0  0  0  0  0
   60.1390   34.1740   46.0980 C   0  0  0  0  0  0  0  0  0  0  0  0
   58.7510   34.1890   45.9540 C   0  0  0  0  0  0  0  0  0  0  0  0
   57.9710   33.2130   46.5670 C   0  0  0  0  0  0  0  0  0  0  0  0
   58.5730   32.2140   47.3290 C   0  0  0  0  0  0  0  0  0  0  0  0
   59.9720   32.1800   47.4880 C   0  0  0  0  0  0  0  0  0  0  0  0
   61.3945   28.7045   46.0772 H   0  0  0  0  0  0  0  0  0  0  0  0
   60.5383   28.1072   44.6153 H   0  0  0  0  0  0  0  0  0  0  0  0
   61.2821   29.7423   44.6153 H   0  0  0  0  0  0  0  0  0  0  0  0
   59.4222   31.4246   43.7587 H   0  0  0  0  0  0  0  0  0  0  0  0
   57.4141   31.9314   42.3704 H   0  0  0  0  0  0  0  0  0  0  0  0
   55.2933   30.6694   42.7264 H   0  0  0  0  0  0  0  0  0  0  0  0
   55.1726   28.8942   44.4732 H   0  0  0  0  0  0  0  0  0  0  0  0
   56.9152   26.1147   46.1926 H   0  0  0  0  0  0  0  0  0  0  0  0
   58.0170   26.6893   44.8937 H   0  0  0  0  0  0  0  0  0  0  0  0
   58.6904   25.7796   47.5391 H   0  0  0  0  0  0  0  0  0  0  0  0
   59.7873   26.3889   46.2401 H   0  0  0  0  0  0  0  0  0  0  0  0
   58.8100   28.7310   47.3030 H   0  0  0  0  0  0  0  0  0  0  0  0
   59.7043   29.0024   50.5557 H   0  0  0  0  0  0  0  0  0  0  0  0
   61.3181   29.1726   49.7640 H   0  0  0  0  0  0  0  0  0  0  0  0
   62.4533   30.3875   48.9955 H   0  0  0  0  0  0  0  0  0  0  0  0
   63.5067   34.7603   47.1461 H   0  0  0  0  0  0  0  0  0  0  0  0
   63.7625   33.6639   45.7464 H   0  0  0  0  0  0  0  0  0  0  0  0
   62.3821   34.8134   45.7464 H   0  0  0  0  0  0  0  0  0  0  0  0
   60.7429   34.9524   45.6088 H   0  0  0  0  0  0  0  0  0  0  0  0
   58.2713   34.9758   45.3533 H   0  0  0  0  0  0  0  0  0  0  0  0
   56.8774   33.2303   46.4497 H   0  0  0  0  0  0  0  0  0  0  0  0
   57.9505   31.4454   47.8104 H   0  0  0  0  0  0  0  0  0  0  0  0
  1  2  1  0
  2  3  1  0
  3  4  2  0
  4  5  1  0
  5  6  2  0
  6  7  1  0
  7  8  2  0
  8  9  1  0
  9 10  1  0
 10 11  1  0
 11 12  1  0
 12 13  1  0
 13 14  2  0
 13 15  1  0
 15 16  1  0
 16 17  1  0
 17 18  2  0
 18 19  1  0
 19 20  2  0
 19 21  1  0
 21 22  1  0
 21 23  1  0
 23 24  2  0
 24 25  1  0
 25 26  2  0
 26 27  1  0
 27 28  2  0
  8  3  1  0
 28 17  1  0
 28 23  1  0
  1 29  1  0
  1 30  1  0
  1 31  1  0
  4 32  1  0
  5 33  1  0
  6 34  1  0
  7 35  1  0
 10 36  1  0
 10 37  1  0
 11 38  1  0
 11 39  1  0
 12 40  1  0
 15 41  1  0
 15 42  1  0
 18 43  1  0
 22 44  1  0
 22 45  1  0
 22 46  1  0
 24 47  1  0
 25 48  1  0
 26 49  1  0
 27 50  1  0
M  END
>  <UniqueID>  (55) 
49

>  <SMILES>  (55) 
COc1ccccc1OCCNC(=O)COc1cc(=O)n(C)c2ccccc12

>  <Energy>  (55) 
56.48143455651121

>  <Genealogy>  (55) 
COc1ccccc1OCCNC(=O)COc1cc(=O)n(C)c2ccccc12 (3D coordinates assigned)
COc1ccccc1OCCNC(=O)COc1cc(=O)n(C)c2ccccc12 (optimized conformer: 56.48143455651121 kcal/mol)

>  <smiles>  (55) 
COc1ccccc1OCCNC(=O)COc1cc(=O)n(C)c2ccccc12

>  <score_type>  (55) 
oracle

>  <origin>  (55) 
adg

>  <m_score__min__energy>  (55) 
-7.6600000000000001

>  <m_primary>  (55) 
energy

$$$$
55:0
     RDKit          3D

 46 48  0  0  0  0  0  0  0  0999 V2000
   55.6220   26.9310   45.7800 O   0  0  0  0  0  0  0  0  0  0  0  0
   56.4210   27.8860   45.5810 C   0  0  0  0  0  0  0  0  0  0  0  0
   55.8750   29.1680   45.2450 N   0  0  0  0  0  0  0  0  0  0  0  0
   55.7380   29.6880   43.8900 C   0  0  0  0  0  0  0  0  0  0  0  0
   56.6200   30.8910   43.7290 C   0  0  0  0  0  0  0  0  0  0  0  0
   57.1500   31.2160   42.4700 C   0  0  0  0  0  0  0  0  0  0  0  0
   58.0000   32.3180   42.3260 C   0  0  0  0  0  0  0  0  0  0  0  0
   58.3340   33.0950   43.4400 C   0  0  0  0  0  0  0  0  0  0  0  0
   57.8210   32.7690   44.6980 C   0  0  0  0  0  0  0  0  0  0  0  0
   56.9720   31.6670   44.8460 C   0  0  0  0  0  0  0  0  0  0  0  0
   57.9080   27.6760   45.7890 C   0  0  0  0  0  0  0  0  0  0  0  0
   58.2640   27.5970   47.2940 C   0  0  0  0  0  0  0  0  0  0  0  0
   59.7390   27.9540   47.5170 C   0  0  0  0  0  0  0  0  0  0  0  0
   60.0600   29.3450   47.0940 N   0  0  0  0  0  0  0  0  0  0  0  0
   60.1040   30.2640   48.2530 C   0  0  0  0  0  0  0  0  0  0  0  0
   60.0750   31.7030   47.8040 C   0  0  0  0  0  0  0  0  0  0  0  0
   61.1790   32.2520   47.1320 C   0  0  0  0  0  0  0  0  0  0  0  0
   61.1470   33.5790   46.6910 C   0  0  0  0  0  0  0  0  0  0  0  0
   60.0110   34.3630   46.9130 C   0  0  0  0  0  0  0  0  0  0  0  0
   58.9050   33.8210   47.5730 C   0  0  0  0  0  0  0  0  0  0  0  0
   58.9330   32.4950   48.0160 C   0  0  0  0  0  0  0  0  0  0  0  0
   59.1720   29.8710   46.0240 C   0  0  0  0  0  0  0  0  0  0  0  0
   58.7220   28.7690   45.0570 C   0  0  0  0  0  0  0  0  0  0  0  0
   56.0366   28.9141   43.1675 H   0  0  0  0  0  0  0  0  0  0  0  0
   54.6909   29.9718   43.7084 H   0  0  0  0  0  0  0  0  0  0  0  0
   56.8960   30.6018   41.5935 H   0  0  0  0  0  0  0  0  0  0  0  0
   58.4058   32.5735   41.3360 H   0  0  0  0  0  0  0  0  0  0  0  0
   59.0005   33.9626   43.3257 H   0  0  0  0  0  0  0  0  0  0  0  0
   58.0852   33.3800   45.5737 H   0  0  0  0  0  0  0  0  0  0  0  0
   56.5788   31.4073   45.8400 H   0  0  0  0  0  0  0  0  0  0  0  0
   58.1824   26.7065   45.3476 H   0  0  0  0  0  0  0  0  0  0  0  0
   57.6322   28.3031   47.8529 H   0  0  0  0  0  0  0  0  0  0  0  0
   58.0894   26.5700   47.6473 H   0  0  0  0  0  0  0  0  0  0  0  0
   59.9693   27.8490   48.5875 H   0  0  0  0  0  0  0  0  0  0  0  0
   60.3444   27.2704   46.9037 H   0  0  0  0  0  0  0  0  0  0  0  0
   59.2342   30.0710   48.8981 H   0  0  0  0  0  0  0  0  0  0  0  0
   61.0396   30.0880   48.8040 H   0  0  0  0  0  0  0  0  0  0  0  0
   62.0724   31.6361   46.9517 H   0  0  0  0  0  0  0  0  0  0  0  0
   62.0162   34.0060   46.1692 H   0  0  0  0  0  0  0  0  0  0  0  0
   59.9878   35.4072   46.5679 H   0  0  0  0  0  0  0  0  0  0  0  0
   58.0109   34.4384   47.7443 H   0  0  0  0  0  0  0  0  0  0  0  0
   58.0591   32.0704   48.5318 H   0  0  0  0  0  0  0  0  0  0  0  0
   58.2822   30.3198   46.4897 H   0  0  0  0  0  0  0  0  0  0  0  0
   59.7392   30.6172   45.4483 H   0  0  0  0  0  0  0  0  0  0  0  0
   58.0957   29.2160   44.2709 H   0  0  0  0  0  0  0  0  0  0  0  0
   59.6180   28.3017   44.6224 H   0  0  0  0  0  0  0  0  0  0  0  0
  1  2  2  0
  2  3  1  0
  3  4  1  0
  4  5  1  0
  5  6  2  0
  6  7  1  0
  7  8  2  0
  8  9  1  0
  9 10  2  0
  2 11  1  0
 11 12  1  0
 12 13  1  0
 13 14  1  0
 14 15  1  0
 15 16  1  0
 16 17  2  0
 17 18  1  0
 18 19  2  0
 19 20  1  0
 20 21  2  0
 14 22  1  0
 22 23  1  0
 10  5  1  0
 23 11  1  0
 21 16  1  0
  4 24  1  0
  4 25  1  0
  6 26  1  0
  7 27  1  0
  8 28  1  0
  9 29  1  0
 10 30  1  0
 11 31  1  0
 12 32  1  0
 12 33  1  0
 13 34  1  0
 13 35  1  0
 15 36  1  0
 15 37  1  0
 17 38  1  0
 18 39  1  0
 19 40  1  0
 20 41  1  0
 21 42  1  0
 22 43  1  0
 22 44  1  0
 23 45  1  0
 23 46  1  0
M  CHG  1   3  -1
M  END
>  <UniqueID>  (56) 
50

>  <SMILES>  (56) 
O=C([N-]Cc1ccccc1)C1CCN(Cc2ccccc2)CC1

>  <Energy>  (56) 
53.99938665210226

>  <Genealogy>  (56) 
O=C([N-]Cc1ccccc1)C1CCN(Cc2ccccc2)CC1 (protonated)
O=C([N-]Cc1ccccc1)C1CCN(Cc2ccccc2)CC1 (3D coordinates assigned)
O=C([N-]Cc1ccccc1)C1CCN(Cc2ccccc2)CC1 (nonaromatic ring conformer: 53.99938665210226 kcal/mol)

>  <smiles>  (56) 
O=C(NCc1ccccc1)C1CCN(Cc2ccccc2)CC1

>  <score_type>  (56) 
oracle

>  <origin>  (56) 
adg

>  <m_score__min__energy>  (56) 
-9.9299999999999997

>  <m_primary>  (56) 
energy

$$$$
56:0
     RDKit          3D

 31 32  0  0  0  0  0  0  0  0999 V2000
   54.7580   28.5750   44.5000 H   0  0  0  0  0  0  0  0  0  0  0  0
   55.4870   28.9690   45.0790 O   0  0  0  0  0  0  0  0  0  0  0  0
   56.7050   28.3290   45.3220 C   0  0  0  0  0  0  0  0  0  0  0  0
   56.6880   26.9500   45.5540 C   0  0  0  0  0  0  0  0  0  0  0  0
   55.7308   26.4083   45.5365 H   0  0  0  0  0  0  0  0  0  0  0  0
   57.8770   26.2480   45.8090 C   0  0  0  0  0  0  0  0  0  0  0  0
   57.8740   24.7850   46.0180 C   0  0  0  0  0  0  0  0  0  0  0  0
   57.4039   24.4071   46.9379 H   0  0  0  0  0  0  0  0  0  0  0  0
   58.3980   23.8800   45.1770 C   0  0  0  0  0  0  0  0  0  0  0  0
   59.4934   23.8578   45.0795 H   0  0  0  0  0  0  0  0  0  0  0  0
   57.6280   22.9120   44.3720 C   0  0  0  0  0  0  0  0  0  0  0  0
   56.4080   23.1620   43.7770 C   0  0  0  0  0  0  0  0  0  0  0  0
   55.8282   24.0908   43.8825 H   0  0  0  0  0  0  0  0  0  0  0  0
   56.0470   22.1200   43.0660 O   0  0  0  0  0  0  0  0  0  0  0  0
   56.9830   21.2010   43.1490 C   0  0  0  0  0  0  0  0  0  0  0  0
   56.9519   20.2200   42.6524 H   0  0  0  0  0  0  0  0  0  0  0  0
   58.0100   21.6510   43.9520 C   0  0  0  0  0  0  0  0  0  0  0  0
   58.9385   21.1184   44.2053 H   0  0  0  0  0  0  0  0  0  0  0  0
   59.0970   26.9320   45.7730 C   0  0  0  0  0  0  0  0  0  0  0  0
   60.0374   26.3817   45.9236 H   0  0  0  0  0  0  0  0  0  0  0  0
   59.1270   28.3090   45.5470 C   0  0  0  0  0  0  0  0  0  0  0  0
   60.0916   28.8376   45.5353 H   0  0  0  0  0  0  0  0  0  0  0  0
   57.9370   29.0280   45.3340 C   0  0  0  0  0  0  0  0  0  0  0  0
   58.0160   30.5150   45.0830 C   0  0  0  0  0  0  0  0  0  0  0  0
   58.9912   30.8868   45.4304 H   0  0  0  0  0  0  0  0  0  0  0  0
   57.1981   31.0060   45.6306 H   0  0  0  0  0  0  0  0  0  0  0  0
   57.8650   30.8250   43.6190 C   0  0  0  0  0  0  0  0  0  0  0  0
   58.7362   31.1910   43.0559 H   0  0  0  0  0  0  0  0  0  0  0  0
   56.6990   30.6670   42.9850 C   0  0  0  0  0  0  0  0  0  0  0  0
   56.6194   30.9021   41.9134 H   0  0  0  0  0  0  0  0  0  0  0  0
   55.8190   30.3019   43.5348 H   0  0  0  0  0  0  0  0  0  0  0  0
  1  2  1  0
  2  3  1  0
  3  4  2  0
  4  5  1  0
  4  6  1  0
  6  7  1  0
  7  8  1  0
  7  9  2  0
  9 10  1  0
  9 11  1  0
 11 12  2  0
 12 13  1  0
 12 14  1  0
 14 15  1  0
 15 16  1  0
 15 17  2  0
 17 18  1  0
  6 19  2  0
 19 20  1  0
 19 21  1  0
 21 22  1  0
 21 23  2  0
 23 24  1  0
 24 25  1  0
 24 26  1  0
 24 27  1  0
 27 28  1  0
 27 29  2  0
 29 30  1  0
 29 31  1  0
 23  3  1  0
 17 11  1  0
M  END
>  <UniqueID>  (57) 
51

>  <SMILES>  (57) 
C=CCc1ccc(/C=C\c2ccoc2)cc1O

>  <Energy>  (57) 
63.588452879843445

>  <Genealogy>  (57) 
C=CCc1ccc(/C=C\c2ccoc2)cc1O (cis-trans isomerization)
C=CCc1ccc(/C=C\c2ccoc2)cc1O (3D coordinates assigned)
C=CCc1ccc(/C=C\c2ccoc2)cc1O (optimized conformer: 63.588452879843445 kcal/mol)

>  <smiles>  (57) 
C=CCc1ccc(C=Cc2ccoc2)cc1O

>  <score_type>  (57) 
oracle

>  <origin>  (57) 
adg

>  <m_score__min__energy>  (57) 
-7.3099999999999996

>  <m_primary>  (57) 
energy

$$$$
57:0
     RDKit          3D

 39 42  0  0  0  0  0  0  0  0999 V2000
   55.1450   25.3120   46.7790 H   0  0  0  0  0  0  0  0  0  0  0  0
   55.4600   26.1570   46.3170 O   0  0  0  0  0  0  0  0  0  0  0  0
   56.8080   26.5090   46.2730 C   0  0  0  0  0  0  0  0  0  0  0  0
   57.1700   27.8080   45.8820 C   0  0  0  0  0  0  0  0  0  0  0  0
   56.3867   28.5500   45.6679 H   0  0  0  0  0  0  0  0  0  0  0  0
   58.5140   28.1680   45.7620 C   0  0  0  0  0  0  0  0  0  0  0  0
   58.8480   29.5080   45.3680 N   0  0  0  0  0  0  0  0  0  0  0  0
   59.0860   30.5660   46.1020 C   0  0  0  0  0  0  0  0  0  0  0  0
   59.8950   30.3650   47.2270 C   0  0  0  0  0  0  0  0  0  0  0  0
   60.0620   29.3467   47.6080 H   0  0  0  0  0  0  0  0  0  0  0  0
   60.4890   31.4520   47.8650 C   0  0  0  0  0  0  0  0  0  0  0  0
   61.1442   31.2881   48.7332 H   0  0  0  0  0  0  0  0  0  0  0  0
   60.2610   32.7100   47.4180 N   0  0  0  0  0  0  0  0  0  0  0  0
   59.3920   32.9660   46.4050 C   0  0  0  0  0  0  0  0  0  0  0  0
   59.1620   34.2910   46.0280 C   0  0  0  0  0  0  0  0  0  0  0  0
   59.7555   35.1006   46.4778 H   0  0  0  0  0  0  0  0  0  0  0  0
   58.1840   34.5890   45.0850 C   0  0  0  0  0  0  0  0  0  0  0  0
   58.0514   35.6250   44.7398 H   0  0  0  0  0  0  0  0  0  0  0  0
   57.3720   33.5770   44.5770 C   0  0  0  0  0  0  0  0  0  0  0  0
   56.5721   33.8264   43.8643 H   0  0  0  0  0  0  0  0  0  0  0  0
   57.5660   32.2360   44.9680 C   0  0  0  0  0  0  0  0  0  0  0  0
   56.6160   31.2540   44.6450 O   0  0  0  0  0  0  0  0  0  0  0  0
   56.6140   30.4830   43.4460 C   0  0  0  0  0  0  0  0  0  0  0  0
   56.6112   29.4124   43.6985 H   0  0  0  0  0  0  0  0  0  0  0  0
   55.7165   30.7232   42.8571 H   0  0  0  0  0  0  0  0  0  0  0  0
   57.5128   30.7185   42.8571 H   0  0  0  0  0  0  0  0  0  0  0  0
   58.6900   31.9020   45.7740 C   0  0  0  0  0  0  0  0  0  0  0  0
   59.5090   27.2430   46.1100 C   0  0  0  0  0  0  0  0  0  0  0  0
   60.5683   27.5370   46.0709 H   0  0  0  0  0  0  0  0  0  0  0  0
   59.1600   25.9500   46.5060 C   0  0  0  0  0  0  0  0  0  0  0  0
   59.9493   25.2245   46.7524 H   0  0  0  0  0  0  0  0  0  0  0  0
   57.8100   25.5660   46.5930 C   0  0  0  0  0  0  0  0  0  0  0  0
   57.4730   24.1840   47.0130 C   0  0  0  0  0  0  0  0  0  0  0  0
   57.4910   23.0300   46.2530 C   0  0  0  0  0  0  0  0  0  0  0  0
   57.7913   22.9659   45.1967 H   0  0  0  0  0  0  0  0  0  0  0  0
   57.0820   21.9970   47.0130 N   0  0  0  0  0  0  0  0  0  0  0  0
   56.8040   22.4470   48.2270 N   0  0  0  0  0  0  0  0  0  0  0  0
   57.0270   23.7740   48.2540 C   0  0  0  0  0  0  0  0  0  0  0  0
   56.8778   24.4279   49.1258 H   0  0  0  0  0  0  0  0  0  0  0  0
  1  2  1  0
  2  3  1  0
  3  4  2  0
  4  5  1  0
  4  6  1  0
  6  7  1  0
  7  8  2  0
  8  9  1  0
  9 10  1  0
  9 11  2  0
 11 12  1  0
 11 13  1  0
 13 14  1  0
 14 15  2  0
 15 16  1  0
 15 17  1  0
 17 18  1  0
 17 19  2  0
 19 20  1  0
 19 21  1  0
 21 22  1  0
 22 23  1  0
 23 24  1  0
 23 25  1  0
 23 26  1  0
 21 27  2  0
  6 28  2  0
 28 29  1  0
 28 30  1  0
 30 31  1  0
 30 32  2  0
 32 33  1  0
 33 34  1  0
 34 35  1  0
 34 36  2  0
 36 37  1  0
 37 38  1  0
 38 39  1  0
 32  3  1  0
 38 33  2  0
 27  8  1  0
 27 14  1  0
M  CHG  2  13  -1  37  -1
M  END
>  <UniqueID>  (58) 
52

>  <SMILES>  (58) 
COc1cccc2[n-]cc/c(=N/c3ccc(-c4cn[n-]c4)c(O)c3)c12

>  <Energy>  (58) 
104.81948740666985

>  <Genealogy>  (58) 
COc1cccc2[n-]ccc(=Nc3ccc(-c4cn[n-]c4)c(O)c3)c12 (protonated)
COc1cccc2[n-]cc/c(=N/c3ccc(-c4cn[n-]c4)c(O)c3)c12 (cis-trans isomerization)
COc1cccc2[n-]cc/c(=N/c3ccc(-c4cn[n-]c4)c(O)c3)c12 (3D coordinates assigned)
COc1cccc2[n-]cc/c(=N/c3ccc(-c4cn[n-]c4)c(O)c3)c12 (optimized conformer: 104.81948740666985 kcal/mol)

>  <smiles>  (58) 
COc1cccc2[nH]ccc(=Nc3ccc(-c4cn[nH]c4)c(O)c3)c12

>  <score_type>  (58) 
oracle

>  <origin>  (58) 
adg

>  <m_score__min__energy>  (58) 
-10.949999999999999

>  <m_primary>  (58) 
energy

$$$$
58:0
     RDKit          3D

 45 47  0  0  0  0  0  0  0  0999 V2000
   60.0160   35.8310   45.9850 C   0  0  0  0  0  0  0  0  0  0  0  0
   59.3320   34.5030   46.2210 C   0  0  0  0  0  0  0  0  0  0  0  0
   58.0320   34.3440   45.6850 C   0  0  0  0  0  0  0  0  0  0  0  0
   57.5260   32.6860   46.0800 S   0  0  0  0  0  0  0  0  0  0  0  0
   59.1040   32.3020   46.9530 C   0  0  0  0  0  0  0  0  0  0  0  0
   59.2110   31.0310   47.5130 N   0  0  0  0  0  0  0  0  0  0  0  0
   60.3460   30.1710   47.2590 C   0  0  0  0  0  0  0  0  0  0  0  0
   61.3010   30.5100   46.5240 O   0  0  0  0  0  0  0  0  0  0  0  0
   60.4150   28.8170   47.8830 C   0  0  0  0  0  0  0  0  0  0  0  0
   59.3700   27.9270   47.3210 C   0  0  0  0  0  0  0  0  0  0  0  0
   59.2080   26.6170   47.7390 C   0  0  0  0  0  0  0  0  0  0  0  0
   58.1920   25.8600   47.1450 C   0  0  0  0  0  0  0  0  0  0  0  0
   57.3700   26.3920   46.1720 C   0  0  0  0  0  0  0  0  0  0  0  0
   56.3370   25.5300   45.6080 C   0  0  0  0  0  0  0  0  0  0  0  0
   55.1610   25.6930   46.0320 O   0  0  0  0  0  0  0  0  0  0  0  0
   56.5710   24.5430   44.6340 N   0  0  0  0  0  0  0  0  0  0  0  0
   55.4460   23.7330   44.1400 C   0  0  0  0  0  0  0  0  0  0  0  0
   55.8930   22.6430   43.3080 C   0  0  0  0  0  0  0  0  0  0  0  0
   56.2690   21.7710   42.6420 N   0  0  0  0  0  0  0  0  0  0  0  0
   57.5520   27.7000   45.7730 C   0  0  0  0  0  0  0  0  0  0  0  0
   58.5450   28.4760   46.3380 C   0  0  0  0  0  0  0  0  0  0  0  0
   59.8340   33.4240   46.8610 C   0  0  0  0  0  0  0  0  0  0  0  0
   61.1780   33.5060   47.5230 C   0  0  0  0  0  0  0  0  0  0  0  0
   61.4860   34.1720   48.6930 C   0  0  0  0  0  0  0  0  0  0  0  0
   62.8310   33.9320   49.0160 C   0  0  0  0  0  0  0  0  0  0  0  0
   63.4690   34.3660   50.0010 O   0  0  0  0  0  0  0  0  0  0  0  0
   63.2770   33.1440   48.0460 N   0  0  0  0  0  0  0  0  0  0  0  0
   62.3050   32.8900   47.1620 N   0  0  0  0  0  0  0  0  0  0  0  0
   60.2559   36.2969   46.9522 H   0  0  0  0  0  0  0  0  0  0  0  0
   60.9432   35.6698   45.4156 H   0  0  0  0  0  0  0  0  0  0  0  0
   59.3463   36.4923   45.4156 H   0  0  0  0  0  0  0  0  0  0  0  0
   57.4500   35.0969   45.1333 H   0  0  0  0  0  0  0  0  0  0  0  0
   58.4950   30.5700   48.1350 H   0  0  0  0  0  0  0  0  0  0  0  0
   61.4052   28.3795   47.6878 H   0  0  0  0  0  0  0  0  0  0  0  0
   60.2490   28.9177   48.9657 H   0  0  0  0  0  0  0  0  0  0  0  0
   59.8579   26.1847   48.5141 H   0  0  0  0  0  0  0  0  0  0  0  0
   58.0449   24.8166   47.4608 H   0  0  0  0  0  0  0  0  0  0  0  0
   57.5480   24.4010   44.2760 H   0  0  0  0  0  0  0  0  0  0  0  0
   54.8986   23.3219   45.0010 H   0  0  0  0  0  0  0  0  0  0  0  0
   54.7989   24.3827   43.5324 H   0  0  0  0  0  0  0  0  0  0  0  0
   56.9002   28.1289   44.9976 H   0  0  0  0  0  0  0  0  0  0  0  0
   58.6846   29.5185   46.0159 H   0  0  0  0  0  0  0  0  0  0  0  0
   60.7895   34.7909   49.2777 H   0  0  0  0  0  0  0  0  0  0  0  0
   64.2560   32.7860   48.0020 H   0  0  0  0  0  0  0  0  0  0  0  0
   62.5000   32.3070   46.3290 H   0  0  0  0  0  0  0  0  0  0  0  0
  1  2  1  0
  2  3  2  0
  3  4  1  0
  4  5  1  0
  5  6  1  0
  6  7  1  0
  7  8  2  0
  7  9  1  0
  9 10  1  0
 10 11  2  0
 11 12  1  0
 12 13  2  0
 13 14  1  0
 14 15  2  0
 14 16  1  0
 16 17  1  0
 17 18  1  0
 18 19  3  0
 13 20  1  0
 20 21  2  0
  5 22  2  0
 22 23  1  0
 23 24  2  0
 24 25  1  0
 25 26  2  0
 25 27  1  0
 27 28  1  0
 22  2  1  0
 28 23  1  0
 21 10  1  0
  1 29  1  0
  1 30  1  0
  1 31  1  0
  3 32  1  0
  6 33  1  0
  9 34  1  0
  9 35  1  0
 11 36  1  0
 12 37  1  0
 16 38  1  0
 17 39  1  0
 17 40  1  0
 20 41  1  0
 21 42  1  0
 24 43  1  0
 27 44  1  0
 28 45  1  0
M  END
>  <smiles>  (59) 
Cc1csc(NC(=O)Cc2ccc(C(=O)NCC#N)cc2)c1-c1cc(=O)[nH][nH]1

>  <score_type>  (59) 
oracle

>  <origin>  (59) 
adg

>  <m_score__min__energy>  (59) 
-8.0500000000000007

>  <m_primary>  (59) 
energy

$$$$
59:0
     RDKit          3D

 66 69  0  0  1  0  0  0  0  0999 V2000
   63.7560   32.2970   47.6940 C   0  0  0  0  0  0  0  0  0  0  0  0
   63.4050   33.7410   47.3020 C   0  0  0  0  0  0  0  0  0  0  0  0
   62.0880   33.6920   46.6970 N   0  0  0  0  0  0  0  0  0  0  0  0
   60.8900   33.9770   47.4530 C   0  0  0  0  0  0  0  0  0  0  0  0
   61.0350   34.2690   48.6660 O   0  0  0  0  0  0  0  0  0  0  0  0
   59.6240   33.9090   46.7600 C   0  0  0  0  0  0  0  0  0  0  0  0
   59.4820   34.6310   45.5990 C   0  0  0  0  0  0  0  0  0  0  0  0
   58.2850   34.6230   44.8710 C   0  0  0  0  0  0  0  0  0  0  0  0
   57.1960   33.8890   45.2910 C   0  0  0  0  0  0  0  0  0  0  0  0
   57.3520   33.1690   46.4570 C   0  0  0  0  0  0  0  0  0  0  0  0
   58.5350   33.1770   47.1750 C   0  0  0  0  0  0  0  0  0  0  0  0
   58.6420   32.3710   48.4850 C   0  0  0  0  0  0  0  0  0  0  0  0
   59.7310   31.5120   48.1670 N   0  0  0  0  0  0  0  0  0  0  0  0
   59.7660   30.2500   48.2690 C   0  0  0  0  0  0  0  0  0  0  0  0
   59.0650   29.5260   47.3590 N   0  0  0  0  0  0  0  0  0  0  0  0
   59.0500   28.1850   47.4240 C   0  0  0  0  0  0  0  0  0  0  0  0
   58.3160   27.4790   46.4820 O   0  0  0  0  0  0  0  0  0  0  0  0
   58.7750   27.3140   45.1520 C   0  0  0  0  0  0  0  0  0  0  0  0
   59.0900   28.6890   44.6010 C   0  0  0  0  0  0  0  0  0  0  0  0
   57.7680   29.3260   44.3240 C   0  0  0  0  0  0  0  0  0  0  0  0
   57.0380   29.0080   43.1900 C   0  0  0  0  0  0  0  0  0  0  0  0
   55.8880   29.7400   43.1990 N   0  0  0  0  0  0  0  0  0  0  0  0
   55.9190   30.4850   44.3170 C   0  0  0  0  0  0  0  0  0  0  0  0
   57.0720   30.2270   44.9990 N   0  0  0  0  0  0  0  0  0  0  0  0
   59.7490   27.6050   48.4120 N   0  0  0  0  0  0  0  0  0  0  0  0
   60.4560   28.2780   49.3310 C   0  0  0  0  0  0  0  0  0  0  0  0
   60.4770   29.6780   49.2740 C   0  0  0  0  0  0  0  0  0  0  0  0
   61.2480   30.3370   50.3020 C   0  0  0  0  0  0  0  0  0  0  0  0
   61.6750   29.5510   51.2370 O   0  0  0  0  0  0  0  0  0  0  0  0
   61.5550   31.7190   50.3400 N   0  0  0  0  0  0  0  0  0  0  0  0
   62.3420   32.3550   51.3730 C   0  0  0  0  0  0  0  0  0  0  0  0
   63.8030   32.3220   51.0820 C   0  0  0  0  0  0  0  0  0  0  0  0
   64.5150   33.4680   50.7390 C   0  0  0  0  0  0  0  0  0  0  0  0
   65.8710   33.4310   50.4960 C   0  0  0  0  0  0  0  0  0  0  0  0
   66.5820   32.2520   50.5810 C   0  0  0  0  0  0  0  0  0  0  0  0
   65.8750   31.1180   50.9200 C   0  0  0  0  0  0  0  0  0  0  0  0
   64.5170   31.1220   51.1700 C   0  0  0  0  0  0  0  0  0  0  0  0
   63.7773   32.2095   48.7903 H   0  0  0  0  0  0  0  0  0  0  0  0
   62.9983   31.6118   47.2861 H   0  0  0  0  0  0  0  0  0  0  0  0
   64.7437   32.0361   47.2861 H   0  0  0  0  0  0  0  0  0  0  0  0
   63.3903   34.3845   48.1940 H   0  0  0  0  0  0  0  0  0  0  0  0
   64.1484   34.1574   46.6063 H   0  0  0  0  0  0  0  0  0  0  0  0
   61.9660   33.4400   45.6840 H   0  0  0  0  0  0  0  0  0  0  0  0
   60.3289   35.2297   45.2325 H   0  0  0  0  0  0  0  0  0  0  0  0
   58.2126   35.2140   43.9461 H   0  0  0  0  0  0  0  0  0  0  0  0
   56.2524   33.8782   44.7258 H   0  0  0  0  0  0  0  0  0  0  0  0
   56.5084   32.5687   46.8284 H   0  0  0  0  0  0  0  0  0  0  0  0
   58.8720   33.0188   49.3438 H   0  0  0  0  0  0  0  0  0  0  0  0
   57.7188   31.8527   48.7833 H   0  0  0  0  0  0  0  0  0  0  0  0
   58.5290   29.9920   46.5990 H   0  0  0  0  0  0  0  0  0  0  0  0
   59.6808   26.6899   45.1428 H   0  0  0  0  0  0  0  0  0  0  0  0
   58.0084   26.8187   44.5380 H   0  0  0  0  0  0  0  0  0  0  0  0
   59.6525   29.2786   45.3399 H   0  0  0  0  0  0  0  0  0  0  0  0
   59.7105   28.6308   43.6946 H   0  0  0  0  0  0  0  0  0  0  0  0
   57.3358   28.2873   42.4142 H   0  0  0  0  0  0  0  0  0  0  0  0
   55.1500   29.6970   42.4580 H   0  0  0  0  0  0  0  0  0  0  0  0
   55.1375   31.1918   44.6326 H   0  0  0  0  0  0  0  0  0  0  0  0
   61.0095   27.7411   50.1154 H   0  0  0  0  0  0  0  0  0  0  0  0
   61.1800   32.3230   49.5560 H   0  0  0  0  0  0  0  0  0  0  0  0
   62.0241   33.4043   51.4624 H   0  0  0  0  0  0  0  0  0  0  0  0
   62.1758   31.7998   52.3080 H   0  0  0  0  0  0  0  0  0  0  0  0
   63.9820   34.4270   50.6600 H   0  0  0  0  0  0  0  0  0  0  0  0
   66.3966   34.3597   50.2291 H   0  0  0  0  0  0  0  0  0  0  0  0
   67.6642   32.2181   50.3871 H   0  0  0  0  0  0  0  0  0  0  0  0
   66.4186   30.1646   50.9949 H   0  0  0  0  0  0  0  0  0  0  0  0
   64.0001   30.1883   51.4365 H   0  0  0  0  0  0  0  0  0  0  0  0
  1  2  1  0
  2  3  1  0
  3  4  1  0
  4  5  2  0
  4  6  1  0
  6  7  2  0
  7  8  1  0
  8  9  2  0
  9 10  1  0
 10 11  2  0
 11 12  1  0
 12 13  1  0
 13 14  2  0
 14 15  1  0
 15 16  1  0
 16 17  1  0
 17 18  1  0
 18 19  1  0
 19 20  1  0
 20 21  2  0
 21 22  1  0
 22 23  1  0
 23 24  2  0
 16 25  2  0
 25 26  1  0
 26 27  2  0
 27 28  1  0
 28 29  2  0
 28 30  1  0
 30 31  1  0
 31 32  1  0
 32 33  2  0
 33 34  1  0
 34 35  2  0
 35 36  1  0
 36 37  2  0
 11  6  1  0
 27 14  1  0
 37 32  1  0
 24 20  1  0
  1 38  1  0
  1 39  1  0
  1 40  1  0
  2 41  1  0
  2 42  1  0
  3 43  1  0
  7 44  1  0
  8 45  1  0
  9 46  1  0
 10 47  1  0
 12 48  1  0
 12 49  1  0
 15 50  1  0
 18 51  1  0
 18 52  1  0
 19 53  1  0
 19 54  1  0
 21 55  1  0
 22 56  1  0
 23 57  1  0
 26 58  1  0
 30 59  1  0
 31 60  1  0
 31 61  1  0
 33 62  1  0
 34 63  1  0
 35 64  1  0
 36 65  1  0
 37 66  1  0
M  END
>  <smiles>  (60) 
CCNC(=O)c1ccccc1CN=c1[nH]c(OCCc2c[nH]cn2)ncc1C(=O)NCc1ccccc1

>  <score_type>  (60) 
oracle

>  <origin>  (60) 
adg

>  <m_score__min__energy>  (60) 
-9.0899999999999999

>  <m_primary>  (60) 
energy

$$$$
60:0
     RDKit          3D

 36 38  0  0  0  0  0  0  0  0999 V2000
   56.8830   22.8940   48.2870 O   0  0  0  0  0  0  0  0  0  0  0  0
   57.0460   23.7570   47.3870 C   0  0  0  0  0  0  0  0  0  0  0  0
   58.1710   23.7490   46.6290 N   0  0  0  0  0  0  0  0  0  0  0  0
   58.3580   24.6590   45.6710 N   0  0  0  0  0  0  0  0  0  0  0  0
   57.4290   25.6170   45.4180 C   0  0  0  0  0  0  0  0  0  0  0  0
   57.6970   26.6410   44.3500 C   0  0  0  0  0  0  0  0  0  0  0  0
   58.1220   27.9430   44.9690 C   0  0  0  0  0  0  0  0  0  0  0  0
   59.2490   27.9940   45.8040 C   0  0  0  0  0  0  0  0  0  0  0  0
   59.6320   29.2010   46.3930 C   0  0  0  0  0  0  0  0  0  0  0  0
   58.8910   30.3620   46.1610 C   0  0  0  0  0  0  0  0  0  0  0  0
   57.7550   30.3280   45.3440 C   0  0  0  0  0  0  0  0  0  0  0  0
   57.0200   31.5410   45.1410 N   0  0  0  0  0  0  0  0  0  0  0  0
   57.7260   33.1000   44.8440 S   0  0  0  0  0  0  0  0  0  0  0  0
   56.6440   34.1430   44.8610 O   0  0  0  0  0  0  0  0  0  0  0  0
   58.4170   33.0890   43.5090 O   0  0  0  0  0  0  0  0  0  0  0  0
   58.9110   33.4790   46.0930 C   0  0  0  0  0  0  0  0  0  0  0  0
   60.2210   33.8440   45.7480 C   0  0  0  0  0  0  0  0  0  0  0  0
   61.1460   34.1690   46.7430 C   0  0  0  0  0  0  0  0  0  0  0  0
   60.7700   34.1320   48.0880 C   0  0  0  0  0  0  0  0  0  0  0  0
   59.4680   33.7700   48.4390 C   0  0  0  0  0  0  0  0  0  0  0  0
   58.5380   33.4430   47.4470 C   0  0  0  0  0  0  0  0  0  0  0  0
   57.2770   33.0940   47.8060 F   0  0  0  0  0  0  0  0  0  0  0  0
   57.3710   29.1110   44.7510 C   0  0  0  0  0  0  0  0  0  0  0  0
   56.2610   25.6350   46.2000 C   0  0  0  0  0  0  0  0  0  0  0  0
   55.3670   26.5010   46.0140 O   0  0  0  0  0  0  0  0  0  0  0  0
   56.0960   24.7000   47.1690 N   0  0  0  0  0  0  0  0  0  0  0  0
   58.4970   26.2753   43.6895 H   0  0  0  0  0  0  0  0  0  0  0  0
   56.7754   26.8041   43.7720 H   0  0  0  0  0  0  0  0  0  0  0  0
   59.8321   27.0810   45.9950 H   0  0  0  0  0  0  0  0  0  0  0  0
   60.5198   29.2374   47.0415 H   0  0  0  0  0  0  0  0  0  0  0  0
   59.2025   31.3101   46.6238 H   0  0  0  0  0  0  0  0  0  0  0  0
   60.5208   33.8744   44.6901 H   0  0  0  0  0  0  0  0  0  0  0  0
   62.1719   34.4544   46.4671 H   0  0  0  0  0  0  0  0  0  0  0  0
   61.4996   34.3880   48.8704 H   0  0  0  0  0  0  0  0  0  0  0  0
   59.1730   33.7419   49.4983 H   0  0  0  0  0  0  0  0  0  0  0  0
   56.4764   29.0734   44.1120 H   0  0  0  0  0  0  0  0  0  0  0  0
  1  2  2  0
  2  3  1  0
  3  4  1  0
  4  5  2  0
  5  6  1  0
  6  7  1  0
  7  8  2  0
  8  9  1  0
  9 10  2  0
 10 11  1  0
 11 12  1  0
 12 13  1  0
 13 14  2  0
 13 15  2  0
 13 16  1  0
 16 17  2  0
 17 18  1  0
 18 19  2  0
 19 20  1  0
 20 21  2  0
 21 22  1  0
 11 23  2  0
  5 24  1  0
 24 25  2  0
 24 26  1  0
 26  2  1  0
 23  7  1  0
 21 16  1  0
  6 27  1  0
  6 28  1  0
  8 29  1  0
  9 30  1  0
 10 31  1  0
 17 32  1  0
 18 33  1  0
 19 34  1  0
 20 35  1  0
 23 36  1  0
M  CHG  3   3  -1  12  -1  26  -1
M  END
>  <UniqueID>  (61) 
53

>  <SMILES>  (61) 
O=c1[n-]nc(Cc2cccc([N-]S(=O)(=O)c3ccccc3F)c2)c(=O)[n-]1

>  <Energy>  (61) 
44.92758830045522

>  <Genealogy>  (61) 
O=c1[n-]nc(Cc2cccc([N-]S(=O)(=O)c3ccccc3F)c2)c(=O)[n-]1 (protonated)
O=c1[n-]nc(Cc2cccc([N-]S(=O)(=O)c3ccccc3F)c2)c(=O)[n-]1 (3D coordinates assigned)
O=c1[n-]nc(Cc2cccc([N-]S(=O)(=O)c3ccccc3F)c2)c(=O)[n-]1 (optimized conformer: 44.92758830045522 kcal/mol)

>  <smiles>  (61) 
O=c1[nH]nc(Cc2cccc(NS(=O)(=O)c3ccccc3F)c2)c(=O)[nH]1

>  <score_type>  (61) 
oracle

>  <origin>  (61) 
adg

>  <m_score__min__energy>  (61) 
-13.91

>  <m_primary>  (61) 
energy

$$$$
61:0
     RDKit          3D

 53 56  0  0  0  0  0  0  0  0999 V2000
   59.7840   29.9050   49.9130 O   0  0  0  0  0  0  0  0  0  0  0  0
   60.5200   29.6120   48.9330 C   0  0  0  0  0  0  0  0  0  0  0  0
   61.5260   30.6040   48.4440 C   0  0  0  0  0  0  0  0  0  0  0  0
   60.8440   31.6750   47.6390 C   0  0  0  0  0  0  0  0  0  0  0  0
   59.4920   31.7410   47.3420 C   0  0  0  0  0  0  0  0  0  0  0  0
   58.5190   30.8000   47.6760 O   0  0  0  0  0  0  0  0  0  0  0  0
   59.2410   32.8740   46.6590 N   0  0  0  0  0  0  0  0  0  0  0  0
   57.9700   33.2890   46.0660 C   0  0  0  0  0  0  0  0  0  0  0  0
   57.7170   32.5120   44.8030 C   0  0  0  0  0  0  0  0  0  0  0  0
   57.0190   31.2940   44.8480 C   0  0  0  0  0  0  0  0  0  0  0  0
   56.7410   30.5980   43.6690 C   0  0  0  0  0  0  0  0  0  0  0  0
   57.1480   31.1160   42.4370 C   0  0  0  0  0  0  0  0  0  0  0  0
   57.8320   32.3340   42.3820 C   0  0  0  0  0  0  0  0  0  0  0  0
   58.1130   33.0330   43.5600 C   0  0  0  0  0  0  0  0  0  0  0  0
   60.4420   33.4770   46.5370 C   0  0  0  0  0  0  0  0  0  0  0  0
   60.6170   34.5640   45.9220 O   0  0  0  0  0  0  0  0  0  0  0  0
   61.4380   32.7850   47.1350 N   0  0  0  0  0  0  0  0  0  0  0  0
   62.8640   33.1260   47.1340 C   0  0  0  0  0  0  0  0  0  0  0  0
   63.3510   33.3640   48.5420 C   0  0  0  0  0  0  0  0  0  0  0  0
   64.5220   32.7400   49.0010 C   0  0  0  0  0  0  0  0  0  0  0  0
   64.9650   32.9460   50.3130 C   0  0  0  0  0  0  0  0  0  0  0  0
   64.2470   33.7810   51.1710 C   0  0  0  0  0  0  0  0  0  0  0  0
   63.0850   34.4130   50.7200 C   0  0  0  0  0  0  0  0  0  0  0  0
   62.6390   34.2110   49.4100 C   0  0  0  0  0  0  0  0  0  0  0  0
   60.3410   28.3820   48.2160 N   0  0  0  0  0  0  0  0  0  0  0  0
   59.7880   28.2150   46.9030 C   0  0  0  0  0  0  0  0  0  0  0  0
   58.6020   27.4780   46.7690 C   0  0  0  0  0  0  0  0  0  0  0  0
   58.0210   27.2910   45.5110 C   0  0  0  0  0  0  0  0  0  0  0  0
   58.6140   27.8510   44.3760 C   0  0  0  0  0  0  0  0  0  0  0  0
   58.0500   27.6700   43.1570 F   0  0  0  0  0  0  0  0  0  0  0  0
   59.7810   28.6110   44.5020 C   0  0  0  0  0  0  0  0  0  0  0  0
   60.3660   28.7990   45.7590 C   0  0  0  0  0  0  0  0  0  0  0  0
   62.0330   31.0632   49.3054 H   0  0  0  0  0  0  0  0  0  0  0  0
   62.2615   30.0886   47.8089 H   0  0  0  0  0  0  0  0  0  0  0  0
   58.7670   29.8750   48.0020 H   0  0  0  0  0  0  0  0  0  0  0  0
   57.1551   33.0997   46.7802 H   0  0  0  0  0  0  0  0  0  0  0  0
   58.0142   34.3622   45.8286 H   0  0  0  0  0  0  0  0  0  0  0  0
   56.6900   30.8865   45.8153 H   0  0  0  0  0  0  0  0  0  0  0  0
   56.2008   29.6407   43.7108 H   0  0  0  0  0  0  0  0  0  0  0  0
   56.9302   30.5653   41.5100 H   0  0  0  0  0  0  0  0  0  0  0  0
   58.1494   32.7428   41.4113 H   0  0  0  0  0  0  0  0  0  0  0  0
   58.6460   33.9941   43.5132 H   0  0  0  0  0  0  0  0  0  0  0  0
   63.4341   32.2972   46.6889 H   0  0  0  0  0  0  0  0  0  0  0  0
   63.0098   34.0447   46.5469 H   0  0  0  0  0  0  0  0  0  0  0  0
   65.0942   32.0861   48.3265 H   0  0  0  0  0  0  0  0  0  0  0  0
   65.8799   32.4493   50.6682 H   0  0  0  0  0  0  0  0  0  0  0  0
   64.5958   33.9414   52.2018 H   0  0  0  0  0  0  0  0  0  0  0  0
   62.5200   35.0707   51.3968 H   0  0  0  0  0  0  0  0  0  0  0  0
   61.7279   34.7165   49.0572 H   0  0  0  0  0  0  0  0  0  0  0  0
   58.1254   27.0439   47.6603 H   0  0  0  0  0  0  0  0  0  0  0  0
   57.0965   26.7027   45.4145 H   0  0  0  0  0  0  0  0  0  0  0  0
   60.2404   29.0624   43.6103 H   0  0  0  0  0  0  0  0  0  0  0  0
   61.2795   29.4043   45.8540 H   0  0  0  0  0  0  0  0  0  0  0  0
  1  2  2  0
  2  3  1  0
  3  4  1  0
  4  5  2  0
  5  6  1  0
  5  7  1  0
  7  8  1  0
  8  9  1  0
  9 10  2  0
 10 11  1  0
 11 12  2  0
 12 13  1  0
 13 14  2  0
  7 15  1  0
 15 16  2  0
 15 17  1  0
 17 18  1  0
 18 19  1  0
 19 20  2  0
 20 21  1  0
 21 22  2  0
 22 23  1  0
 23 24  2  0
  2 25  1  0
 25 26  1  0
 26 27  2  0
 27 28  1  0
 28 29  2  0
 29 30  1  0
 29 31  1  0
 31 32  2  0
 17  4  1  0
 24 19  1  0
 32 26  1  0
 14  9  1  0
  3 33  1  0
  3 34  1  0
  6 35  1  0
  8 36  1  0
  8 37  1  0
 10 38  1  0
 11 39  1  0
 12 40  1  0
 13 41  1  0
 14 42  1  0
 18 43  1  0
 18 44  1  0
 20 45  1  0
 21 46  1  0
 22 47  1  0
 23 48  1  0
 24 49  1  0
 27 50  1  0
 28 51  1  0
 31 52  1  0
 32 53  1  0
M  CHG  1  25  -1
M  END
>  <UniqueID>  (62) 
54

>  <SMILES>  (62) 
O=C(Cc1c(O)n(Cc2ccccc2)c(=O)n1Cc1ccccc1)[N-]c1ccc(F)cc1

>  <Energy>  (62) 
89.83466476470896

>  <Genealogy>  (62) 
O=C(Cc1c(O)n(Cc2ccccc2)c(=O)n1Cc1ccccc1)[N-]c1ccc(F)cc1 (protonated)
O=C(Cc1c(O)n(Cc2ccccc2)c(=O)n1Cc1ccccc1)[N-]c1ccc(F)cc1 (3D coordinates assigned)
O=C(Cc1c(O)n(Cc2ccccc2)c(=O)n1Cc1ccccc1)[N-]c1ccc(F)cc1 (optimized conformer: 89.83466476470896 kcal/mol)

>  <smiles>  (62) 
O=C(Cc1c(O)n(Cc2ccccc2)c(=O)n1Cc1ccccc1)Nc1ccc(F)cc1

>  <score_type>  (62) 
oracle

>  <origin>  (62) 
adg

>  <m_score__min__energy>  (62) 
-10.57

>  <m_primary>  (62) 
energy

$$$$
62:0
     RDKit          3D

 42 44  0  0  0  0  0  0  0  0999 V2000
   59.7750   31.3280   48.7490 C   0  0  0  0  0  0  0  0  0  0  0  0
   60.6970   32.2420   47.9850 C   0  0  0  0  0  0  0  0  0  0  0  0
   62.0730   31.9610   47.9710 C   0  0  0  0  0  0  0  0  0  0  0  0
   62.9520   32.7560   47.2310 C   0  0  0  0  0  0  0  0  0  0  0  0
   62.4660   33.8360   46.4950 C   0  0  0  0  0  0  0  0  0  0  0  0
   61.1030   34.1400   46.5140 C   0  0  0  0  0  0  0  0  0  0  0  0
   60.2150   33.3730   47.2790 C   0  0  0  0  0  0  0  0  0  0  0  0
   58.8280   33.7340   47.2770 N   0  0  0  0  0  0  0  0  0  0  0  0
   57.9550   33.5640   46.1560 C   0  0  0  0  0  0  0  0  0  0  0  0
   57.3440   34.5540   45.6680 O   0  0  0  0  0  0  0  0  0  0  0  0
   57.7980   32.2360   45.5550 C   0  0  0  0  0  0  0  0  0  0  0  0
   57.2240   31.9600   44.3280 C   0  0  0  0  0  0  0  0  0  0  0  0
   57.3220   30.5880   44.2100 C   0  0  0  0  0  0  0  0  0  0  0  0
   56.8790   29.7950   43.0180 C   0  0  0  0  0  0  0  0  0  0  0  0
   57.9050   30.0930   45.3280 N   0  0  0  0  0  0  0  0  0  0  0  0
   58.2080   28.7220   45.6340 C   0  0  0  0  0  0  0  0  0  0  0  0
   59.5410   28.3350   45.8490 C   0  0  0  0  0  0  0  0  0  0  0  0
   59.8470   27.0100   46.1670 C   0  0  0  0  0  0  0  0  0  0  0  0
   58.8280   26.0610   46.2820 C   0  0  0  0  0  0  0  0  0  0  0  0
   57.4930   26.4370   46.0850 C   0  0  0  0  0  0  0  0  0  0  0  0
   56.2020   25.2540   46.2590 S   0  0  0  0  0  0  0  0  0  0  0  0
   54.6730   26.0180   45.9900 N   0  0  0  0  0  0  0  0  0  0  0  0
   56.2390   24.6730   47.6440 O   0  0  0  0  0  0  0  0  0  0  0  0
   56.3740   24.1540   45.2490 O   0  0  0  0  0  0  0  0  0  0  0  0
   57.1860   27.7690   45.7740 C   0  0  0  0  0  0  0  0  0  0  0  0
   58.2070   31.0950   46.1410 N   0  0  0  0  0  0  0  0  0  0  0  0
   59.9241   31.4758   49.8288 H   0  0  0  0  0  0  0  0  0  0  0  0
   58.7315   31.5582   48.4881 H   0  0  0  0  0  0  0  0  0  0  0  0
   59.9961   30.2825   48.4881 H   0  0  0  0  0  0  0  0  0  0  0  0
   62.4617   31.1084   48.5471 H   0  0  0  0  0  0  0  0  0  0  0  0
   64.0285   32.5297   47.2290 H   0  0  0  0  0  0  0  0  0  0  0  0
   63.1572   34.4495   45.8985 H   0  0  0  0  0  0  0  0  0  0  0  0
   60.7242   34.9877   45.9241 H   0  0  0  0  0  0  0  0  0  0  0  0
   56.7888   32.6708   43.6101 H   0  0  0  0  0  0  0  0  0  0  0  0
   56.3683   28.8808   43.3550 H   0  0  0  0  0  0  0  0  0  0  0  0
   56.1877   30.3991   42.4121 H   0  0  0  0  0  0  0  0  0  0  0  0
   57.7559   29.5230   42.4121 H   0  0  0  0  0  0  0  0  0  0  0  0
   60.3473   29.0787   45.7666 H   0  0  0  0  0  0  0  0  0  0  0  0
   60.8938   26.7125   46.3275 H   0  0  0  0  0  0  0  0  0  0  0  0
   59.0743   25.0174   46.5275 H   0  0  0  0  0  0  0  0  0  0  0  0
   54.8120   26.7180   45.2270 H   0  0  0  0  0  0  0  0  0  0  0  0
   56.1367   28.0700   45.6386 H   0  0  0  0  0  0  0  0  0  0  0  0
  1  2  1  0
  2  3  2  0
  3  4  1  0
  4  5  2  0
  5  6  1  0
  6  7  2  0
  7  8  1  0
  8  9  1  0
  9 10  2  0
  9 11  1  0
 11 12  1  0
 12 13  2  0
 13 14  1  0
 13 15  1  0
 15 16  1  0
 16 17  2  0
 17 18  1  0
 18 19  2  0
 19 20  1  0
 20 21  1  0
 21 22  1  0
 21 23  2  0
 21 24  2  0
 20 25  2  0
 15 26  1  0
  7  2  1  0
 26 11  2  0
 25 16  1  0
  1 27  1  0
  1 28  1  0
  1 29  1  0
  3 30  1  0
  4 31  1  0
  5 32  1  0
  6 33  1  0
 12 34  1  0
 14 35  1  0
 14 36  1  0
 14 37  1  0
 17 38  1  0
 18 39  1  0
 19 40  1  0
 22 41  1  0
 25 42  1  0
M  CHG  2   8  -1  22  -1
M  END
>  <UniqueID>  (63) 
55

>  <SMILES>  (63) 
Cc1ccccc1[N-]C(=O)c1cc(C)n(-c2cccc(S([NH-])(=O)=O)c2)n1

>  <Energy>  (63) 
83.87254631183221

>  <Genealogy>  (63) 
Cc1ccccc1[N-]C(=O)c1cc(C)n(-c2cccc(S([NH-])(=O)=O)c2)n1 (protonated)
Cc1ccccc1[N-]C(=O)c1cc(C)n(-c2cccc(S([NH-])(=O)=O)c2)n1 (3D coordinates assigned)
Cc1ccccc1[N-]C(=O)c1cc(C)n(-c2cccc(S([NH-])(=O)=O)c2)n1 (optimized conformer: 83.87254631183221 kcal/mol)

>  <smiles>  (63) 
Cc1ccccc1NC(=O)c1cc(C)n(-c2cccc(S(N)(=O)=O)c2)n1

>  <score_type>  (63) 
oracle

>  <origin>  (63) 
adg

>  <m_score__min__energy>  (63) 
-13.23

>  <m_primary>  (63) 
energy

$$$$
63:0
     RDKit          3D

 51 53  0  0  0  0  0  0  0  0999 V2000
   63.8840   33.3990   48.7720 C   0  0  0  0  0  0  0  0  0  0  0  0
   62.8410   33.1160   47.3580 S   0  0  0  0  0  0  0  0  0  0  0  0
   62.8240   31.6410   47.0660 O   0  0  0  0  0  0  0  0  0  0  0  0
   63.3770   33.8380   46.1540 O   0  0  0  0  0  0  0  0  0  0  0  0
   61.2190   33.6380   47.6930 N   0  0  0  0  0  0  0  0  0  0  0  0
   60.1500   33.6670   46.7280 C   0  0  0  0  0  0  0  0  0  0  0  0
   59.9210   34.8460   46.0050 C   0  0  0  0  0  0  0  0  0  0  0  0
   58.8950   34.9120   45.0600 C   0  0  0  0  0  0  0  0  0  0  0  0
   58.0810   33.8020   44.8300 C   0  0  0  0  0  0  0  0  0  0  0  0
   58.2840   32.6090   45.5440 C   0  0  0  0  0  0  0  0  0  0  0  0
   57.4210   31.4290   45.2980 C   0  0  0  0  0  0  0  0  0  0  0  0
   56.4520   31.5150   44.4940 O   0  0  0  0  0  0  0  0  0  0  0  0
   57.7180   30.1780   45.9340 N   0  0  0  0  0  0  0  0  0  0  0  0
   57.7730   28.8890   45.3050 C   0  0  0  0  0  0  0  0  0  0  0  0
   58.5190   28.6620   44.1340 C   0  0  0  0  0  0  0  0  0  0  0  0
   58.5190   27.3990   43.5370 C   0  0  0  0  0  0  0  0  0  0  0  0
   57.7690   26.3590   44.0900 C   0  0  0  0  0  0  0  0  0  0  0  0
   57.0090   26.5790   45.2450 C   0  0  0  0  0  0  0  0  0  0  0  0
   56.0370   25.2680   45.9110 S   0  0  0  0  0  0  0  0  0  0  0  0
   56.3270   25.1560   47.3830 O   0  0  0  0  0  0  0  0  0  0  0  0
   54.5740   25.5670   45.7310 O   0  0  0  0  0  0  0  0  0  0  0  0
   56.4470   23.7730   45.1090 N   0  0  0  0  0  0  0  0  0  0  0  0
   57.9040   23.5680   45.1420 C   0  0  0  0  0  0  0  0  0  0  0  0
   58.2570   22.1540   44.6430 C   0  0  0  0  0  0  0  0  0  0  0  0
   57.1880   21.5800   43.6980 C   0  0  0  0  0  0  0  0  0  0  0  0
   56.5610   22.6840   42.8440 C   0  0  0  0  0  0  0  0  0  0  0  0
   55.9460   23.8010   43.7170 C   0  0  0  0  0  0  0  0  0  0  0  0
   57.0040   27.8480   45.8410 C   0  0  0  0  0  0  0  0  0  0  0  0
   59.3220   32.5510   46.4960 C   0  0  0  0  0  0  0  0  0  0  0  0
   63.3037   33.2415   49.6931 H   0  0  0  0  0  0  0  0  0  0  0  0
   64.7317   32.6984   48.7484 H   0  0  0  0  0  0  0  0  0  0  0  0
   64.2613   34.4320   48.7484 H   0  0  0  0  0  0  0  0  0  0  0  0
   61.0380   34.0070   48.6540 H   0  0  0  0  0  0  0  0  0  0  0  0
   60.5551   35.7269   46.1836 H   0  0  0  0  0  0  0  0  0  0  0  0
   58.7280   35.8412   44.4955 H   0  0  0  0  0  0  0  0  0  0  0  0
   57.2746   33.8615   44.0843 H   0  0  0  0  0  0  0  0  0  0  0  0
   59.1032   29.4803   43.6878 H   0  0  0  0  0  0  0  0  0  0  0  0
   59.1122   27.2230   42.6276 H   0  0  0  0  0  0  0  0  0  0  0  0
   57.7753   25.3656   43.6175 H   0  0  0  0  0  0  0  0  0  0  0  0
   58.3899   24.3129   44.4947 H   0  0  0  0  0  0  0  0  0  0  0  0
   58.2575   23.6803   46.1776 H   0  0  0  0  0  0  0  0  0  0  0  0
   59.2158   22.1985   44.1057 H   0  0  0  0  0  0  0  0  0  0  0  0
   58.3163   21.4943   45.5212 H   0  0  0  0  0  0  0  0  0  0  0  0
   57.6550   20.8352   43.0368 H   0  0  0  0  0  0  0  0  0  0  0  0
   56.3973   21.1147   44.3049 H   0  0  0  0  0  0  0  0  0  0  0  0
   57.3382   23.1217   42.2002 H   0  0  0  0  0  0  0  0  0  0  0  0
   55.7565   22.2369   42.2417 H   0  0  0  0  0  0  0  0  0  0  0  0
   56.1964   24.7751   43.2715 H   0  0  0  0  0  0  0  0  0  0  0  0
   54.8585   23.6389   43.7499 H   0  0  0  0  0  0  0  0  0  0  0  0
   56.3913   28.0277   46.7367 H   0  0  0  0  0  0  0  0  0  0  0  0
   59.4874   31.6238   47.0642 H   0  0  0  0  0  0  0  0  0  0  0  0
  1  2  1  0
  2  3  2  0
  2  4  2  0
  2  5  1  0
  5  6  1  0
  6  7  2  0
  7  8  1  0
  8  9  2  0
  9 10  1  0
 10 11  1  0
 11 12  2  0
 11 13  1  0
 13 14  1  0
 14 15  2  0
 15 16  1  0
 16 17  2  0
 17 18  1  0
 18 19  1  0
 19 20  2  0
 19 21  2  0
 19 22  1  0
 22 23  1  0
 23 24  1  0
 24 25  1  0
 25 26  1  0
 26 27  1  0
 18 28  2  0
 10 29  2  0
 29  6  1  0
 28 14  1  0
 27 22  1  0
  1 30  1  0
  1 31  1  0
  1 32  1  0
  5 33  1  0
  7 34  1  0
  8 35  1  0
  9 36  1  0
 15 37  1  0
 16 38  1  0
 17 39  1  0
 23 40  1  0
 23 41  1  0
 24 42  1  0
 24 43  1  0
 25 44  1  0
 25 45  1  0
 26 46  1  0
 26 47  1  0
 27 48  1  0
 27 49  1  0
 28 50  1  0
 29 51  1  0
M  CHG  1  13  -1
M  END
>  <UniqueID>  (64) 
56

>  <SMILES>  (64) 
CS(=O)(=O)Nc1cccc(C(=O)[N-]c2cccc(S(=O)(=O)N3CCCCC3)c2)c1

>  <Energy>  (64) 
57.85838755506544

>  <Genealogy>  (64) 
CS(=O)(=O)Nc1cccc(C(=O)[N-]c2cccc(S(=O)(=O)N3CCCCC3)c2)c1 (protonated)
CS(=O)(=O)Nc1cccc(C(=O)[N-]c2cccc(S(=O)(=O)N3CCCCC3)c2)c1 (3D coordinates assigned)
CS(=O)(=O)Nc1cccc(C(=O)[N-]c2cccc(S(=O)(=O)N3CCCCC3)c2)c1 (nonaromatic ring conformer: 57.85838755506544 kcal/mol)

>  <smiles>  (64) 
CS(=O)(=O)Nc1cccc(C(=O)Nc2cccc(S(=O)(=O)N3CCCCC3)c2)c1

>  <score_type>  (64) 
oracle

>  <origin>  (64) 
adg

>  <m_score__min__energy>  (64) 
-11.859999999999999

>  <m_primary>  (64) 
energy

$$$$
64:0
     RDKit          3D

 33 35  0  0  0  0  0  0  0  0999 V2000
   59.1130   34.9880   44.5220 O   0  0  0  0  0  0  0  0  0  0  0  0
   58.2600   34.4530   45.2590 N   0  0  0  0  0  0  0  0  0  0  0  0
   56.9400   34.4710   44.8690 O   0  0  0  0  0  0  0  0  0  0  0  0
   58.6760   33.6280   46.3590 C   0  0  0  0  0  0  0  0  0  0  0  0
   59.0730   34.2380   47.5610 C   0  0  0  0  0  0  0  0  0  0  0  0
   59.5340   33.4710   48.6320 C   0  0  0  0  0  0  0  0  0  0  0  0
   59.6060   32.0840   48.5160 C   0  0  0  0  0  0  0  0  0  0  0  0
   59.1990   31.4590   47.3370 C   0  0  0  0  0  0  0  0  0  0  0  0
   58.7130   32.2140   46.2570 C   0  0  0  0  0  0  0  0  0  0  0  0
   58.0910   31.3550   44.8390 S   0  0  0  0  0  0  0  0  0  0  0  0
   58.2270   32.2400   43.6330 O   0  0  0  0  0  0  0  0  0  0  0  0
   56.6440   30.9910   45.0240 O   0  0  0  0  0  0  0  0  0  0  0  0
   58.9930   29.8950   44.5690 N   0  0  0  0  0  0  0  0  0  0  0  0
   58.8740   28.7080   45.3770 C   0  0  0  0  0  0  0  0  0  0  0  0
   59.9600   28.3130   46.1720 C   0  0  0  0  0  0  0  0  0  0  0  0
   59.8740   27.1760   46.9770 C   0  0  0  0  0  0  0  0  0  0  0  0
   58.7010   26.4190   47.0010 C   0  0  0  0  0  0  0  0  0  0  0  0
   57.6000   26.7940   46.2150 C   0  0  0  0  0  0  0  0  0  0  0  0
   56.3550   25.9980   46.2450 C   0  0  0  0  0  0  0  0  0  0  0  0
   55.1680   26.4180   45.7660 N   0  0  0  0  0  0  0  0  0  0  0  0
   54.3380   25.4130   45.9930 N   0  0  0  0  0  0  0  0  0  0  0  0
   54.9860   24.4230   46.5860 N   0  0  0  0  0  0  0  0  0  0  0  0
   56.2530   24.7580   46.7590 N   0  0  0  0  0  0  0  0  0  0  0  0
   57.6940   27.9370   45.4020 C   0  0  0  0  0  0  0  0  0  0  0  0
   59.0198   35.3323   47.6589 H   0  0  0  0  0  0  0  0  0  0  0  0
   59.8406   33.9612   49.5678 H   0  0  0  0  0  0  0  0  0  0  0  0
   59.9842   31.4814   49.3550 H   0  0  0  0  0  0  0  0  0  0  0  0
   59.2593   30.3639   47.2524 H   0  0  0  0  0  0  0  0  0  0  0  0
   59.6720   29.9010   43.7750 H   0  0  0  0  0  0  0  0  0  0  0  0
   60.8874   28.9044   46.1610 H   0  0  0  0  0  0  0  0  0  0  0  0
   60.7332   26.8753   47.5946 H   0  0  0  0  0  0  0  0  0  0  0  0
   58.6394   25.5248   47.6386 H   0  0  0  0  0  0  0  0  0  0  0  0
   56.8375   28.2330   44.7785 H   0  0  0  0  0  0  0  0  0  0  0  0
  1  2  2  0
  2  3  1  0
  2  4  1  0
  4  5  2  0
  5  6  1  0
  6  7  2  0
  7  8  1  0
  8  9  2  0
  9 10  1  0
 10 11  2  0
 10 12  2  0
 10 13  1  0
 13 14  1  0
 14 15  2  0
 15 16  1  0
 16 17  2  0
 17 18  1  0
 18 19  1  0
 19 20  1  0
 20 21  2  0
 21 22  1  0
 22 23  1  0
 18 24  2  0
  9  4  1  0
 24 14  1  0
 23 19  2  0
  5 25  1  0
  6 26  1  0
  7 27  1  0
  8 28  1  0
 13 29  1  0
 15 30  1  0
 16 31  1  0
 17 32  1  0
 24 33  1  0
M  CHG  3   2   1   3  -1  22  -1
M  END
>  <UniqueID>  (65) 
57

>  <SMILES>  (65) 
O=[N+]([O-])c1ccccc1S(=O)(=O)Nc1cccc(-c2nn[n-]n2)c1

>  <Energy>  (65) 
83.25296475297287

>  <Genealogy>  (65) 
O=[N+]([O-])c1ccccc1S(=O)(=O)Nc1cccc(-c2nn[n-]n2)c1 (protonated)
O=[N+]([O-])c1ccccc1S(=O)(=O)Nc1cccc(-c2nn[n-]n2)c1 (3D coordinates assigned)
O=[N+]([O-])c1ccccc1S(=O)(=O)Nc1cccc(-c2nn[n-]n2)c1 (optimized conformer: 83.25296475297287 kcal/mol)

>  <smiles>  (65) 
O=[N+]([O-])c1ccccc1S(=O)(=O)Nc1cccc(-c2nn[nH]n2)c1

>  <score_type>  (65) 
oracle

>  <origin>  (65) 
adg

>  <m_score__min__energy>  (65) 
-11.25

>  <m_primary>  (65) 
energy

$$$$
65:0
     RDKit          3D

 47 50  0  0  0  0  0  0  0  0999 V2000
   62.9010   34.2420   50.9410 C   0  0  0  0  0  0  0  0  0  0  0  0
   62.8210   33.9510   49.4710 C   0  0  0  0  0  0  0  0  0  0  0  0
   63.9940   33.8160   48.7120 C   0  0  0  0  0  0  0  0  0  0  0  0
   63.9190   33.5010   47.3530 C   0  0  0  0  0  0  0  0  0  0  0  0
   62.6770   33.3100   46.7440 C   0  0  0  0  0  0  0  0  0  0  0  0
   61.4950   33.4370   47.4920 C   0  0  0  0  0  0  0  0  0  0  0  0
   60.1780   33.1970   46.8580 C   0  0  0  0  0  0  0  0  0  0  0  0
   59.7180   31.8760   46.7480 C   0  0  0  0  0  0  0  0  0  0  0  0
   58.5000   31.5930   46.1160 C   0  0  0  0  0  0  0  0  0  0  0  0
   58.0150   30.1940   45.9950 C   0  0  0  0  0  0  0  0  0  0  0  0
   58.4560   29.2040   46.8930 C   0  0  0  0  0  0  0  0  0  0  0  0
   57.9950   27.8890   46.7810 C   0  0  0  0  0  0  0  0  0  0  0  0
   57.0910   27.5410   45.7690 C   0  0  0  0  0  0  0  0  0  0  0  0
   56.4720   25.8970   45.6520 S   0  0  0  0  0  0  0  0  0  0  0  0
   56.9520   25.0790   46.8180 O   0  0  0  0  0  0  0  0  0  0  0  0
   56.9780   25.2670   44.3850 O   0  0  0  0  0  0  0  0  0  0  0  0
   54.7360   25.9140   45.6260 N   0  0  0  0  0  0  0  0  0  0  0  0
   54.2530   24.5470   45.7730 C   0  0  0  0  0  0  0  0  0  0  0  0
   54.3540   23.7550   44.4820 C   0  0  0  0  0  0  0  0  0  0  0  0
   53.0010   24.2470   44.9680 C   0  0  0  0  0  0  0  0  0  0  0  0
   56.6450   28.5210   44.8760 C   0  0  0  0  0  0  0  0  0  0  0  0
   57.1040   29.8370   44.9850 C   0  0  0  0  0  0  0  0  0  0  0  0
   57.7530   32.6590   45.5990 C   0  0  0  0  0  0  0  0  0  0  0  0
   58.1980   33.9380   45.7210 N   0  0  0  0  0  0  0  0  0  0  0  0
   59.3740   34.2410   46.3400 C   0  0  0  0  0  0  0  0  0  0  0  0
   59.7080   35.4910   46.4660 N   0  0  0  0  0  0  0  0  0  0  0  0
   61.5750   33.7400   48.8610 C   0  0  0  0  0  0  0  0  0  0  0  0
   62.6512   33.3335   51.5087 H   0  0  0  0  0  0  0  0  0  0  0  0
   63.9212   34.5648   51.1959 H   0  0  0  0  0  0  0  0  0  0  0  0
   62.1892   35.0410   51.1959 H   0  0  0  0  0  0  0  0  0  0  0  0
   64.9751   33.9586   49.1886 H   0  0  0  0  0  0  0  0  0  0  0  0
   64.8409   33.4032   46.7610 H   0  0  0  0  0  0  0  0  0  0  0  0
   62.6241   33.0591   45.6743 H   0  0  0  0  0  0  0  0  0  0  0  0
   60.3200   31.0539   47.1623 H   0  0  0  0  0  0  0  0  0  0  0  0
   59.1686   29.4669   47.6887 H   0  0  0  0  0  0  0  0  0  0  0  0
   58.3436   27.1242   47.4906 H   0  0  0  0  0  0  0  0  0  0  0  0
   54.5543   24.3925   46.8196 H   0  0  0  0  0  0  0  0  0  0  0  0
   54.8174   24.2084   43.5934 H   0  0  0  0  0  0  0  0  0  0  0  0
   54.7706   22.7768   44.2001 H   0  0  0  0  0  0  0  0  0  0  0  0
   52.4849   25.0567   44.4314 H   0  0  0  0  0  0  0  0  0  0  0  0
   52.0322   23.7727   45.1838 H   0  0  0  0  0  0  0  0  0  0  0  0
   55.9295   28.2548   44.0840 H   0  0  0  0  0  0  0  0  0  0  0  0
   56.7498   30.5991   44.2752 H   0  0  0  0  0  0  0  0  0  0  0  0
   56.7984   32.4598   45.0900 H   0  0  0  0  0  0  0  0  0  0  0  0
   57.6020   34.7080   45.3370 H   0  0  0  0  0  0  0  0  0  0  0  0
   59.2500   36.1610   47.1210 H   0  0  0  0  0  0  0  0  0  0  0  0
   60.6547   33.8124   49.4592 H   0  0  0  0  0  0  0  0  0  0  0  0
  1  2  1  0
  2  3  2  0
  3  4  1  0
  4  5  2  0
  5  6  1  0
  6  7  1  0
  7  8  2  0
  8  9  1  0
  9 10  1  0
 10 11  2  0
 11 12  1  0
 12 13  2  0
 13 14  1  0
 14 15  2  0
 14 16  2  0
 14 17  1  0
 17 18  1  0
 18 19  1  0
 19 20  1  0
 13 21  1  0
 21 22  2  0
  9 23  2  0
 23 24  1  0
 24 25  1  0
 25 26  2  3
  6 27  2  0
 27  2  1  0
 25  7  1  0
 22 10  1  0
 20 18  1  0
  1 28  1  0
  1 29  1  0
  1 30  1  0
  3 31  1  0
  4 32  1  0
  5 33  1  0
  8 34  1  0
 11 35  1  0
 12 36  1  0
 18 37  1  0
 19 38  1  0
 19 39  1  0
 20 40  1  0
 20 41  1  0
 21 42  1  0
 22 43  1  0
 23 44  1  0
 24 45  1  0
 26 46  1  0
 27 47  1  0
M  CHG  1  17  -1
M  END
>  <UniqueID>  (66) 
58

>  <SMILES>  (66) 
Cc1cccc(-c2cc(-c3ccc(S(=O)(=O)[N-]C4CC4)cc3)c[nH]c2=N)c1

>  <Energy>  (66) 
325.79271336490245

>  <Genealogy>  (66) 
Cc1cccc(-c2cc(-c3ccc(S(=O)(=O)[N-]C4CC4)cc3)c[nH]c2=N)c1 (protonated)
Cc1cccc(-c2cc(-c3ccc(S(=O)(=O)[N-]C4CC4)cc3)c[nH]c2=N)c1 (3D coordinates assigned)
Cc1cccc(-c2cc(-c3ccc(S(=O)(=O)[N-]C4CC4)cc3)c[nH]c2=N)c1 (nonaromatic ring conformer: 325.79271336490245 kcal/mol)

>  <smiles>  (66) 
Cc1cccc(-c2cc(-c3ccc(S(=O)(=O)NC4CC4)cc3)c[nH]c2=N)c1

>  <score_type>  (66) 
oracle

>  <origin>  (66) 
adg

>  <m_score__min__energy>  (66) 
-10.17

>  <m_primary>  (66) 
energy

$$$$
66:0
     RDKit          3D

 41 43  0  0  0  0  0  0  0  0999 V2000
   57.0790   22.6370   48.7630 O   0  0  0  0  0  0  0  0  0  0  0  0
   56.9360   23.1030   47.6020 C   0  0  0  0  0  0  0  0  0  0  0  0
   56.0270   24.2840   47.3970 C   0  0  0  0  0  0  0  0  0  0  0  0
   56.7950   25.4210   46.8010 C   0  0  0  0  0  0  0  0  0  0  0  0
   58.4760   25.5380   46.7490 S   0  0  0  0  0  0  0  0  0  0  0  0
   58.4390   26.9840   45.8940 C   0  0  0  0  0  0  0  0  0  0  0  0
   59.4670   27.6230   45.5470 O   0  0  0  0  0  0  0  0  0  0  0  0
   57.1730   27.3850   45.6170 N   0  0  0  0  0  0  0  0  0  0  0  0
   56.8360   28.6040   44.8690 C   0  0  0  0  0  0  0  0  0  0  0  0
   57.3480   29.8320   45.5790 C   0  0  0  0  0  0  0  0  0  0  0  0
   58.1020   29.6920   46.5770 O   0  0  0  0  0  0  0  0  0  0  0  0
   57.0560   31.1550   45.1120 N   0  0  0  0  0  0  0  0  0  0  0  0
   57.7630   32.3420   45.4870 C   0  0  0  0  0  0  0  0  0  0  0  0
   58.1030   33.2770   44.5010 C   0  0  0  0  0  0  0  0  0  0  0  0
   58.8140   34.4320   44.8410 C   0  0  0  0  0  0  0  0  0  0  0  0
   59.2090   34.6460   46.1640 C   0  0  0  0  0  0  0  0  0  0  0  0
   58.8950   33.7050   47.1500 C   0  0  0  0  0  0  0  0  0  0  0  0
   59.2990   33.9130   48.4630 O   0  0  0  0  0  0  0  0  0  0  0  0
   58.1790   32.5510   46.8120 C   0  0  0  0  0  0  0  0  0  0  0  0
   56.2540   26.5160   46.1320 C   0  0  0  0  0  0  0  0  0  0  0  0
   54.8820   26.7080   46.0010 O   0  0  0  0  0  0  0  0  0  0  0  0
   57.7270   22.5600   46.5370 N   0  0  0  0  0  0  0  0  0  0  0  0
   57.3130   22.3870   45.1760 C   0  0  0  0  0  0  0  0  0  0  0  0
   57.0450   23.4890   44.3440 C   0  0  0  0  0  0  0  0  0  0  0  0
   56.6110   23.2880   43.0300 C   0  0  0  0  0  0  0  0  0  0  0  0
   56.4230   21.9910   42.5440 C   0  0  0  0  0  0  0  0  0  0  0  0
   56.6590   20.8940   43.3770 C   0  0  0  0  0  0  0  0  0  0  0  0
   57.0930   21.0920   44.6910 C   0  0  0  0  0  0  0  0  0  0  0  0
   55.2090   24.0010   46.7182 H   0  0  0  0  0  0  0  0  0  0  0  0
   55.6141   24.5957   48.3678 H   0  0  0  0  0  0  0  0  0  0  0  0
   57.2916   28.5502   43.8692 H   0  0  0  0  0  0  0  0  0  0  0  0
   55.7412   28.6755   44.7899 H   0  0  0  0  0  0  0  0  0  0  0  0
   57.8096   33.1020   43.4554 H   0  0  0  0  0  0  0  0  0  0  0  0
   59.0625   35.1725   44.0665 H   0  0  0  0  0  0  0  0  0  0  0  0
   59.7675   35.5555   46.4304 H   0  0  0  0  0  0  0  0  0  0  0  0
   57.9416   31.8061   47.5858 H   0  0  0  0  0  0  0  0  0  0  0  0
   57.1771   24.5113   44.7279 H   0  0  0  0  0  0  0  0  0  0  0  0
   56.4172   24.1522   42.3776 H   0  0  0  0  0  0  0  0  0  0  0  0
   56.0898   21.8340   41.5075 H   0  0  0  0  0  0  0  0  0  0  0  0
   56.5030   19.8732   42.9981 H   0  0  0  0  0  0  0  0  0  0  0  0
   57.2626   20.2258   45.3475 H   0  0  0  0  0  0  0  0  0  0  0  0
  1  2  2  0
  2  3  1  0
  3  4  1  0
  4  5  1  0
  5  6  1  0
  6  7  2  0
  6  8  1  0
  8  9  1  0
  9 10  1  0
 10 11  2  0
 10 12  1  0
 12 13  1  0
 13 14  2  0
 14 15  1  0
 15 16  2  0
 16 17  1  0
 17 18  1  0
 17 19  2  0
  8 20  1  0
 20 21  1  0
  2 22  1  0
 22 23  1  0
 23 24  2  0
 24 25  1  0
 25 26  2  0
 26 27  1  0
 27 28  2  0
 20  4  2  0
 28 23  1  0
 19 13  1  0
  3 29  1  0
  3 30  1  0
  9 31  1  0
  9 32  1  0
 14 33  1  0
 15 34  1  0
 16 35  1  0
 19 36  1  0
 24 37  1  0
 25 38  1  0
 26 39  1  0
 27 40  1  0
 28 41  1  0
M  CHG  4  12  -1  18  -1  21  -1  22  -1
M  END
>  <UniqueID>  (67) 
59

>  <SMILES>  (67) 
O=C(Cc1sc(=O)n(CC(=O)[N-]c2cccc([O-])c2)c1[O-])[N-]c1ccccc1

>  <Energy>  (67) 
79.29497750999369

>  <Genealogy>  (67) 
O=C(Cc1sc(=O)n(CC(=O)[N-]c2cccc([O-])c2)c1[O-])[N-]c1ccccc1 (protonated)
O=C(Cc1sc(=O)n(CC(=O)[N-]c2cccc([O-])c2)c1[O-])[N-]c1ccccc1 (3D coordinates assigned)
O=C(Cc1sc(=O)n(CC(=O)[N-]c2cccc([O-])c2)c1[O-])[N-]c1ccccc1 (optimized conformer: 79.29497750999369 kcal/mol)

>  <smiles>  (67) 
O=C(Cc1sc(=O)n(CC(=O)Nc2cccc(O)c2)c1O)Nc1ccccc1

>  <score_type>  (67) 
oracle

>  <origin>  (67) 
adg

>  <m_score__min__energy>  (67) 
-15.83

>  <m_primary>  (67) 
energy

$$$$
67:0
     RDKit          3D

 27 28  0  0  0  0  0  0  0  0999 V2000
   59.6870   29.5740   47.3580 C   0  0  0  0  0  0  0  0  0  0  0  0
   58.4710   30.3160   47.3490 O   0  0  0  0  0  0  0  0  0  0  0  0
   58.2040   31.3950   46.4910 C   0  0  0  0  0  0  0  0  0  0  0  0
   58.4100   32.7320   46.8850 C   0  0  0  0  0  0  0  0  0  0  0  0
   58.1390   33.7790   45.9990 C   0  0  0  0  0  0  0  0  0  0  0  0
   57.6730   33.5050   44.7140 C   0  0  0  0  0  0  0  0  0  0  0  0
   57.4660   32.1840   44.3120 C   0  0  0  0  0  0  0  0  0  0  0  0
   57.7110   31.1220   45.2030 C   0  0  0  0  0  0  0  0  0  0  0  0
   57.5290   29.7570   44.7990 N   0  0  0  0  0  0  0  0  0  0  0  0
   56.4120   28.9190   45.1240 C   0  0  0  0  0  0  0  0  0  0  0  0
   55.2510   29.3390   44.8770 O   0  0  0  0  0  0  0  0  0  0  0  0
   56.5980   27.5540   45.6670 C   0  0  0  0  0  0  0  0  0  0  0  0
   57.8800   27.0360   45.8980 C   0  0  0  0  0  0  0  0  0  0  0  0
   58.0120   25.7520   46.4230 C   0  0  0  0  0  0  0  0  0  0  0  0
   56.8640   25.0160   46.7140 C   0  0  0  0  0  0  0  0  0  0  0  0
   56.9550   23.8530   47.1880 O   0  0  0  0  0  0  0  0  0  0  0  0
   55.6440   25.5620   46.4830 N   0  0  0  0  0  0  0  0  0  0  0  0
   55.5150   26.7910   45.9780 N   0  0  0  0  0  0  0  0  0  0  0  0
   59.9944   29.3864   48.3974 H   0  0  0  0  0  0  0  0  0  0  0  0
   59.5350   28.6146   46.8418 H   0  0  0  0  0  0  0  0  0  0  0  0
   60.4706   30.1480   46.8418 H   0  0  0  0  0  0  0  0  0  0  0  0
   58.7860   32.9532   47.8948 H   0  0  0  0  0  0  0  0  0  0  0  0
   58.2937   34.8208   46.3164 H   0  0  0  0  0  0  0  0  0  0  0  0
   57.4682   34.3303   44.0161 H   0  0  0  0  0  0  0  0  0  0  0  0
   57.1094   31.9719   43.2932 H   0  0  0  0  0  0  0  0  0  0  0  0
   58.7722   27.6367   45.6673 H   0  0  0  0  0  0  0  0  0  0  0  0
   59.0090   25.3245   46.6055 H   0  0  0  0  0  0  0  0  0  0  0  0
  1  2  1  0
  2  3  1  0
  3  4  2  0
  4  5  1  0
  5  6  2  0
  6  7  1  0
  7  8  2  0
  8  9  1  0
  9 10  1  0
 10 11  2  0
 10 12  1  0
 12 13  1  0
 13 14  2  0
 14 15  1  0
 15 16  2  0
 15 17  1  0
 17 18  1  0
  8  3  1  0
 18 12  2  0
  1 19  1  0
  1 20  1  0
  1 21  1  0
  4 22  1  0
  5 23  1  0
  6 24  1  0
  7 25  1  0
 13 26  1  0
 14 27  1  0
M  CHG  2   9  -1  17  -1
M  END
>  <UniqueID>  (68) 
60

>  <SMILES>  (68) 
COc1ccccc1[N-]C(=O)c1ccc(=O)[n-]n1

>  <Energy>  (68) 
34.64005953826797

>  <Genealogy>  (68) 
COc1ccccc1[N-]C(=O)c1ccc(=O)[n-]n1 (protonated)
COc1ccccc1[N-]C(=O)c1ccc(=O)[n-]n1 (3D coordinates assigned)
COc1ccccc1[N-]C(=O)c1ccc(=O)[n-]n1 (optimized conformer: 34.64005953826797 kcal/mol)

>  <smiles>  (68) 
COc1ccccc1NC(=O)c1ccc(=O)[nH]n1

>  <score_type>  (68) 
oracle

>  <origin>  (68) 
adg

>  <m_score__min__energy>  (68) 
-10.26

>  <m_primary>  (68) 
energy

$$$$
68:0
     RDKit          3D

 62 65  0  0  1  0  0  0  0  0999 V2000
   60.4960   27.8030   47.6820 C   0  0  0  0  0  0  0  0  0  0  0  0
   59.4620   28.2980   46.8290 O   0  0  0  0  0  0  0  0  0  0  0  0
   58.8230   27.3960   45.9800 C   0  0  0  0  0  0  0  0  0  0  0  0
   58.2590   26.2200   46.4370 C   0  0  0  0  0  0  0  0  0  0  0  0
   57.6290   25.3260   45.6020 C   0  0  0  0  0  0  0  0  0  0  0  0
   57.0410   24.1110   46.0290 N   0  0  0  0  0  0  0  0  0  0  0  0
   57.2280   22.9150   45.2080 C   0  0  0  0  0  0  0  0  0  0  0  0
   56.4160   21.7600   45.7370 C   0  0  0  0  0  0  0  0  0  0  0  0
   56.8200   21.5950   47.1270 N   0  0  0  0  0  0  0  0  0  0  0  0
   57.3910   20.3820   47.6070 C   0  0  0  0  0  0  0  0  0  0  0  0
   57.6060   19.2250   46.7300 C   0  0  0  0  0  0  0  0  0  0  0  0
   57.7230   20.3070   48.8380 O   0  0  0  0  0  0  0  0  0  0  0  0
   56.6230   22.7140   48.0250 C   0  0  0  0  0  0  0  0  0  0  0  0
   56.2590   23.9500   47.2300 C   0  0  0  0  0  0  0  0  0  0  0  0
   57.5880   25.6750   44.2560 C   0  0  0  0  0  0  0  0  0  0  0  0
   61.2180   33.6030   46.4590 C   0  0  0  0  0  0  0  0  0  0  0  0
   60.4780   32.7610   47.2740 C   0  0  0  0  0  0  0  0  0  0  0  0
   59.3560   28.9380   44.1600 N   0  0  0  0  0  0  0  0  0  0  0  0
   58.9020   30.1130   44.4150 C   0  0  0  0  0  0  0  0  0  0  0  0
   58.1000   30.7140   43.5190 N   0  0  0  0  0  0  0  0  0  0  0  0
   57.6410   31.9490   43.8140 C   0  0  0  0  0  0  0  0  0  0  0  0
   57.9700   32.6000   44.9980 C   0  0  0  0  0  0  0  0  0  0  0  0
   57.3700   34.1880   45.3610 Cl  0  0  0  0  0  0  0  0  0  0  0  0
   58.8050   31.9180   45.8790 C   0  0  0  0  0  0  0  0  0  0  0  0
   59.1050   32.5270   46.9710 N   0  0  0  0  0  0  0  0  0  0  0  0
   58.7780   27.7310   44.6420 C   0  0  0  0  0  0  0  0  0  0  0  0
   58.1470   26.8450   43.7860 C   0  0  0  0  0  0  0  0  0  0  0  0
   62.5500   33.8450   46.7320 C   0  0  0  0  0  0  0  0  0  0  0  0
   63.1400   33.2390   47.8280 C   0  0  0  0  0  0  0  0  0  0  0  0
   62.4010   32.4000   48.6370 C   0  0  0  0  0  0  0  0  0  0  0  0
   61.0510   32.1380   48.3840 C   0  0  0  0  0  0  0  0  0  0  0  0
   60.1040   31.0820   49.3960 S   0  0  0  0  0  0  0  0  0  0  0  0
   58.8710   30.2640   48.4960 N   0  0  0  0  0  0  0  0  0  0  0  0
   59.5090   31.8070   50.5680 O   0  0  0  0  0  0  0  0  0  0  0  0
   61.0270   30.0360   49.9550 O   0  0  0  0  0  0  0  0  0  0  0  0
   59.2600   30.6890   45.5830 N   0  0  0  0  0  0  0  0  0  0  0  0
   60.2029   27.9433   48.7329 H   0  0  0  0  0  0  0  0  0  0  0  0
   60.6527   26.7322   47.4849 H   0  0  0  0  0  0  0  0  0  0  0  0
   61.4284   28.3524   47.4849 H   0  0  0  0  0  0  0  0  0  0  0  0
   58.3160   25.9895   47.5111 H   0  0  0  0  0  0  0  0  0  0  0  0
   56.9120   23.1339   44.1774 H   0  0  0  0  0  0  0  0  0  0  0  0
   58.2915   22.6355   45.2356 H   0  0  0  0  0  0  0  0  0  0  0  0
   55.3414   21.9868   45.6747 H   0  0  0  0  0  0  0  0  0  0  0  0
   56.5878   20.8433   45.1537 H   0  0  0  0  0  0  0  0  0  0  0  0
   57.7729   18.3267   47.3425 H   0  0  0  0  0  0  0  0  0  0  0  0
   56.7201   19.0765   46.0951 H   0  0  0  0  0  0  0  0  0  0  0  0
   58.4861   19.4047   46.0951 H   0  0  0  0  0  0  0  0  0  0  0  0
   55.8104   22.4795   48.7283 H   0  0  0  0  0  0  0  0  0  0  0  0
   57.5526   22.9009   48.5826 H   0  0  0  0  0  0  0  0  0  0  0  0
   55.1978   23.8831   46.9484 H   0  0  0  0  0  0  0  0  0  0  0  0
   56.4659   24.8200   47.8706 H   0  0  0  0  0  0  0  0  0  0  0  0
   57.0944   24.9968   43.5444 H   0  0  0  0  0  0  0  0  0  0  0  0
   60.7419   34.0810   45.5902 H   0  0  0  0  0  0  0  0  0  0  0  0
   57.8530   30.2240   42.6300 H   0  0  0  0  0  0  0  0  0  0  0  0
   56.9842   32.4577   43.0930 H   0  0  0  0  0  0  0  0  0  0  0  0
   58.0904   27.0780   42.7125 H   0  0  0  0  0  0  0  0  0  0  0  0
   63.1368   34.5132   46.0845 H   0  0  0  0  0  0  0  0  0  0  0  0
   64.2000   33.4266   48.0545 H   0  0  0  0  0  0  0  0  0  0  0  0
   62.8862   31.9254   49.5027 H   0  0  0  0  0  0  0  0  0  0  0  0
   58.9590   29.2420   48.6730 H   0  0  0  0  0  0  0  0  0  0  0  0
   59.1280   30.3710   47.4770 H   0  0  0  0  0  0  0  0  0  0  0  0
   59.8950   30.1770   46.2600 H   0  0  0  0  0  0  0  0  0  0  0  0
  1  2  1  0
  2  3  1  0
  3  4  2  0
  4  5  1  0
  5  6  1  0
  6  7  1  0
  7  8  1  0
  8  9  1  0
  9 10  1  0
 10 11  1  0
 10 12  2  0
  9 13  1  0
 13 14  1  0
  5 15  2  0
 15 16  1  0
 16 17  2  0
 17 18  1  0
 18 19  2  0
 19 20  1  0
 20 21  1  0
 21 22  2  0
 22 23  1  0
 22 24  1  0
 24 25  2  0
 25 26  1  0
 26 27  2  0
 27 28  1  0
 28 29  2  0
 29 30  1  0
 30 31  2  0
 31 32  1  0
 32 33  1  0
 32 34  2  0
 32 35  2  0
 24 36  1  0
 17  3  1  0
 36 19  1  0
 14  6  1  0
 31 26  1  0
  1 37  1  0
  1 38  1  0
  1 39  1  0
  4 40  1  0
  7 41  1  0
  7 42  1  0
  8 43  1  0
  8 44  1  0
 11 45  1  0
 11 46  1  0
 11 47  1  0
 13 48  1  0
 13 49  1  0
 14 50  1  0
 14 51  1  0
 15 52  1  0
 16 53  1  0
 20 54  1  0
 21 55  1  0
 27 56  1  0
 28 57  1  0
 29 58  1  0
 30 59  1  0
 33 60  1  0
 33 61  1  0
 36 62  1  0
M  END
>  <smiles>  (69) 
COc1cc(N2CCN(C(C)=O)CC2)ccc1N=c1[nH]cc(Cl)c(=Nc2ccccc2S(N)(=O)=O)[nH]1

>  <score_type>  (69) 
oracle

>  <origin>  (69) 
adg

>  <m_score__min__energy>  (69) 
-10.76

>  <m_primary>  (69) 
energy

$$$$
69:0
     RDKit          3D

 42 44  0  0  0  0  0  0  0  0999 V2000
   60.0243   26.9713   46.1550 H   0  0  0  0  0  0  0  0  0  0  0  0
   58.9270   26.9000   46.1260 C   0  0  0  0  0  0  0  0  0  0  0  0
   58.1970   27.8750   45.5200 N   0  0  0  0  0  0  0  0  0  0  0  0
   56.8360   27.8300   45.4600 C   0  0  0  0  0  0  0  0  0  0  0  0
   56.1530   28.7750   44.8800 N   0  0  0  0  0  0  0  0  0  0  0  0
   56.5060   29.4970   43.6860 C   0  0  0  0  0  0  0  0  0  0  0  0
   56.2920   28.9990   42.5460 O   0  0  0  0  0  0  0  0  0  0  0  0
   57.1430   30.8300   43.7960 C   0  0  0  0  0  0  0  0  0  0  0  0
   57.6310   31.4880   42.6520 C   0  0  0  0  0  0  0  0  0  0  0  0
   57.5147   31.0218   41.6625 H   0  0  0  0  0  0  0  0  0  0  0  0
   58.2620   32.7290   42.7640 C   0  0  0  0  0  0  0  0  0  0  0  0
   58.6356   33.2378   41.8631 H   0  0  0  0  0  0  0  0  0  0  0  0
   58.4200   33.3260   44.0180 C   0  0  0  0  0  0  0  0  0  0  0  0
   58.9232   34.3005   44.1027 H   0  0  0  0  0  0  0  0  0  0  0  0
   57.9390   32.6860   45.1660 C   0  0  0  0  0  0  0  0  0  0  0  0
   58.1570   33.4300   46.7490 S   0  0  0  0  0  0  0  0  0  0  0  0
   56.8290   33.4620   47.4490 O   0  0  0  0  0  0  0  0  0  0  0  0
   58.6720   34.8340   46.6000 O   0  0  0  0  0  0  0  0  0  0  0  0
   59.2830   32.5160   47.7060 N   0  0  0  0  0  0  0  0  0  0  0  0
   58.8720   31.8300   48.3770 H   0  0  0  0  0  0  0  0  0  0  0  0
   60.7080   32.5600   47.4990 C   0  0  0  0  0  0  0  0  0  0  0  0
   61.3800   33.7950   47.4390 C   0  0  0  0  0  0  0  0  0  0  0  0
   60.8136   34.7294   47.5661 H   0  0  0  0  0  0  0  0  0  0  0  0
   62.7570   33.8470   47.2200 C   0  0  0  0  0  0  0  0  0  0  0  0
   63.2690   34.8193   47.1711 H   0  0  0  0  0  0  0  0  0  0  0  0
   63.4850   32.6680   47.0630 C   0  0  0  0  0  0  0  0  0  0  0  0
   64.5702   32.7114   46.8885 H   0  0  0  0  0  0  0  0  0  0  0  0
   62.8380   31.4330   47.1270 C   0  0  0  0  0  0  0  0  0  0  0  0
   63.4188   30.5064   47.0081 H   0  0  0  0  0  0  0  0  0  0  0  0
   61.4510   31.3630   47.3420 C   0  0  0  0  0  0  0  0  0  0  0  0
   60.7810   30.0170   47.3890 C   0  0  0  0  0  0  0  0  0  0  0  0
   60.6321   29.7179   48.4370 H   0  0  0  0  0  0  0  0  0  0  0  0
   59.8064   30.0746   46.8822 H   0  0  0  0  0  0  0  0  0  0  0  0
   61.4145   29.2742   46.8822 H   0  0  0  0  0  0  0  0  0  0  0  0
   57.2870   31.4500   45.0510 C   0  0  0  0  0  0  0  0  0  0  0  0
   56.8844   30.9605   45.9501 H   0  0  0  0  0  0  0  0  0  0  0  0
   56.1570   26.7470   46.0400 C   0  0  0  0  0  0  0  0  0  0  0  0
   54.7700   26.6710   45.9960 O   0  0  0  0  0  0  0  0  0  0  0  0
   56.8890   25.7360   46.6680 C   0  0  0  0  0  0  0  0  0  0  0  0
   56.3679   24.8835   47.1280 H   0  0  0  0  0  0  0  0  0  0  0  0
   58.2820   25.8090   46.7110 C   0  0  0  0  0  0  0  0  0  0  0  0
   58.8654   25.0153   47.2006 H   0  0  0  0  0  0  0  0  0  0  0  0
  1  2  1  0
  2  3  1  0
  3  4  1  0
  4  5  2  0
  5  6  1  0
  6  7  2  0
  6  8  1  0
  8  9  2  0
  9 10  1  0
  9 11  1  0
 11 12  1  0
 11 13  2  0
 13 14  1  0
 13 15  1  0
 15 16  1  0
 16 17  2  0
 16 18  2  0
 16 19  1  0
 19 20  1  0
 19 21  1  0
 21 22  2  0
 22 23  1  0
 22 24  1  0
 24 25  1  0
 24 26  2  0
 26 27  1  0
 26 28  1  0
 28 29  1  0
 28 30  2  0
 30 31  1  0
 31 32  1  0
 31 33  1  0
 31 34  1  0
 15 35  2  0
 35 36  1  0
  4 37  1  0
 37 38  1  0
 37 39  2  0
 39 40  1  0
 39 41  1  0
 41 42  1  0
 41  2  2  0
 35  8  1  0
 30 21  1  0
M  CHG  2   3  -1  38  -1
M  END
>  <UniqueID>  (70) 
61

>  <SMILES>  (70) 
Cc1ccccc1NS(=O)(=O)c1cccc(C(=O)/N=c2\[n-]cccc2[O-])c1

>  <Energy>  (70) 
51.980124221994934

>  <Genealogy>  (70) 
Cc1ccccc1NS(=O)(=O)c1cccc(C(=O)N=c2[n-]cccc2[O-])c1 (protonated)
Cc1ccccc1NS(=O)(=O)c1cccc(C(=O)/N=c2\[n-]cccc2[O-])c1 (cis-trans isomerization)
Cc1ccccc1NS(=O)(=O)c1cccc(C(=O)/N=c2\[n-]cccc2[O-])c1 (3D coordinates assigned)
Cc1ccccc1NS(=O)(=O)c1cccc(C(=O)/N=c2\[n-]cccc2[O-])c1 (optimized conformer: 51.980124221994934 kcal/mol)

>  <smiles>  (70) 
Cc1ccccc1NS(=O)(=O)c1cccc(C(=O)N=c2[nH]cccc2O)c1

>  <score_type>  (70) 
oracle

>  <origin>  (70) 
adg

>  <m_score__min__energy>  (70) 
-14.699999999999999

>  <m_primary>  (70) 
energy

$$$$
70:0
     RDKit          3D

 63 65  0  0  0  0  0  0  0  0999 V2000
   61.4680   32.3520   51.0620 H   0  0  0  0  0  0  0  0  0  0  0  0
   61.9580   32.5370   50.1950 O   0  0  0  0  0  0  0  0  0  0  0  0
   61.3090   33.0200   49.0580 C   0  0  0  0  0  0  0  0  0  0  0  0
   59.9430   33.3260   49.1380 C   0  0  0  0  0  0  0  0  0  0  0  0
   59.2830   33.1380   50.3620 O   0  0  0  0  0  0  0  0  0  0  0  0
   59.5720   33.8640   51.5530 C   0  0  0  0  0  0  0  0  0  0  0  0
   59.3257   33.2452   52.4285 H   0  0  0  0  0  0  0  0  0  0  0  0
   60.6412   34.1215   51.5751 H   0  0  0  0  0  0  0  0  0  0  0  0
   58.9723   34.7859   51.5751 H   0  0  0  0  0  0  0  0  0  0  0  0
   59.2740   33.8070   48.0000 C   0  0  0  0  0  0  0  0  0  0  0  0
   58.1935   34.0078   48.0478 H   0  0  0  0  0  0  0  0  0  0  0  0
   59.9710   34.0340   46.8020 C   0  0  0  0  0  0  0  0  0  0  0  0
   59.2840   34.5520   45.5950 C   0  0  0  0  0  0  0  0  0  0  0  0
   59.0734   35.6305   45.5462 H   0  0  0  0  0  0  0  0  0  0  0  0
   58.9130   33.8120   44.5870 N   0  0  0  0  0  0  0  0  0  0  0  0
   58.2820   32.5240   44.6560 C   0  0  0  0  0  0  0  0  0  0  0  0
   57.4540   32.0630   43.6210 C   0  0  0  0  0  0  0  0  0  0  0  0
   57.3096   32.6772   42.7199 H   0  0  0  0  0  0  0  0  0  0  0  0
   56.8120   30.8260   43.7310 C   0  0  0  0  0  0  0  0  0  0  0  0
   56.1482   30.4818   42.9242 H   0  0  0  0  0  0  0  0  0  0  0  0
   57.0080   30.0210   44.8620 C   0  0  0  0  0  0  0  0  0  0  0  0
   56.2690   28.7910   44.9610 N   0  0  0  0  0  0  0  0  0  0  0  0
   56.6170   27.7010   45.5810 C   0  0  0  0  0  0  0  0  0  0  0  0
   55.7330   26.6750   45.6580 N   0  0  0  0  0  0  0  0  0  0  0  0
   56.0660   25.5160   46.2870 C   0  0  0  0  0  0  0  0  0  0  0  0
   55.1260   24.4240   46.3690 N   0  0  0  0  0  0  0  0  0  0  0  0
   55.3450   23.3520   47.3410 C   0  0  0  0  0  0  0  0  0  0  0  0
   55.2620   23.7583   48.3598 H   0  0  0  0  0  0  0  0  0  0  0  0
   54.5888   22.5662   47.1969 H   0  0  0  0  0  0  0  0  0  0  0  0
   56.3488   22.9258   47.1969 H   0  0  0  0  0  0  0  0  0  0  0  0
   53.9260   24.3730   45.5260 C   0  0  0  0  0  0  0  0  0  0  0  0
   53.0309   24.3350   46.1642 H   0  0  0  0  0  0  0  0  0  0  0  0
   53.8856   25.2702   44.8909 H   0  0  0  0  0  0  0  0  0  0  0  0
   53.9619   23.4756   44.8909 H   0  0  0  0  0  0  0  0  0  0  0  0
   57.3020   25.3940   46.8400 N   0  0  0  0  0  0  0  0  0  0  0  0
   58.2000   26.4100   46.7570 C   0  0  0  0  0  0  0  0  0  0  0  0
   59.3810   26.3020   47.2860 N   0  0  0  0  0  0  0  0  0  0  0  0
   60.4070   27.3390   47.2100 C   0  0  0  0  0  0  0  0  0  0  0  0
   60.1981   27.9993   46.3554 H   0  0  0  0  0  0  0  0  0  0  0  0
   61.3931   26.8696   47.0788 H   0  0  0  0  0  0  0  0  0  0  0  0
   60.4010   28.1610   48.5040 C   0  0  0  0  0  0  0  0  0  0  0  0
   61.4018   28.1111   48.9578 H   0  0  0  0  0  0  0  0  0  0  0  0
   59.6337   27.7342   49.1666 H   0  0  0  0  0  0  0  0  0  0  0  0
   60.0420   29.6350   48.2650 C   0  0  0  0  0  0  0  0  0  0  0  0
   59.7228   29.7541   47.2191 H   0  0  0  0  0  0  0  0  0  0  0  0
   60.9365   30.2349   48.4887 H   0  0  0  0  0  0  0  0  0  0  0  0
   58.9180   30.1250   49.1780 C   0  0  0  0  0  0  0  0  0  0  0  0
   59.2162   29.9950   50.2288 H   0  0  0  0  0  0  0  0  0  0  0  0
   58.7234   31.1896   48.9811 H   0  0  0  0  0  0  0  0  0  0  0  0
   58.0056   29.5430   48.9811 H   0  0  0  0  0  0  0  0  0  0  0  0
   57.8560   27.5570   46.1210 N   0  0  0  0  0  0  0  0  0  0  0  0
   57.8430   30.4850   45.8970 C   0  0  0  0  0  0  0  0  0  0  0  0
   57.9842   29.8755   46.8018 H   0  0  0  0  0  0  0  0  0  0  0  0
   58.4930   31.7170   45.7790 C   0  0  0  0  0  0  0  0  0  0  0  0
   59.1745   32.0539   46.5740 H   0  0  0  0  0  0  0  0  0  0  0  0
   61.3290   33.7010   46.7250 C   0  0  0  0  0  0  0  0  0  0  0  0
   61.8693   33.8335   45.7760 H   0  0  0  0  0  0  0  0  0  0  0  0
   62.0100   33.1980   47.8510 C   0  0  0  0  0  0  0  0  0  0  0  0
   63.3740   32.8680   47.8060 O   0  0  0  0  0  0  0  0  0  0  0  0
   64.3180   33.1950   48.8210 C   0  0  0  0  0  0  0  0  0  0  0  0
   63.8626   33.0373   49.8098 H   0  0  0  0  0  0  0  0  0  0  0  0
   65.2042   32.5515   48.7186 H   0  0  0  0  0  0  0  0  0  0  0  0
   64.6163   34.2488   48.7186 H   0  0  0  0  0  0  0  0  0  0  0  0
  1  2  1  0
  2  3  1  0
  3  4  2  0
  4  5  1  0
  5  6  1  0
  6  7  1  0
  6  8  1  0
  6  9  1  0
  4 10  1  0
 10 11  1  0
 10 12  2  0
 12 13  1  0
 13 14  1  0
 13 15  2  0
 15 16  1  0
 16 17  2  0
 17 18  1  0
 17 19  1  0
 19 20  1  0
 19 21  2  0
 21 22  1  0
 22 23  2  0
 23 24  1  0
 24 25  2  0
 25 26  1  0
 26 27  1  0
 27 28  1  0
 27 29  1  0
 27 30  1  0
 26 31  1  0
 31 32  1  0
 31 33  1  0
 31 34  1  0
 25 35  1  0
 35 36  1  0
 36 37  2  3
 37 38  1  0
 38 39  1  0
 38 40  1  0
 38 41  1  0
 41 42  1  0
 41 43  1  0
 41 44  1  0
 44 45  1  0
 44 46  1  0
 44 47  1  0
 47 48  1  0
 47 49  1  0
 47 50  1  0
 36 51  1  0
 21 52  1  0
 52 53  1  0
 52 54  2  0
 54 55  1  0
 12 56  1  0
 56 57  1  0
 56 58  2  0
 58 59  1  0
 59 60  1  0
 60 61  1  0
 60 62  1  0
 60 63  1  0
 58  3  1  0
 54 16  1  0
 51 23  1  0
M  CHG  2  35  -1  51  -1
M  END
>  <UniqueID>  (71) 
62

>  <SMILES>  (71) 
CCCCN=c1[n-]c(N(C)C)n/c(=N/c2ccc(/N=C\c3cc(OC)c(O)c(OC)c3)cc2)[n-]1

>  <Energy>  (71) 
72.74607516207038

>  <Genealogy>  (71) 
CCCCN=c1[n-]c(N(C)C)nc(=Nc2ccc(N=Cc3cc(OC)c(O)c(OC)c3)cc2)[n-]1 (protonated)
CCCCN=c1[n-]c(N(C)C)n/c(=N/c2ccc(/N=C\c3cc(OC)c(O)c(OC)c3)cc2)[n-]1 (cis-trans isomerization)
CCCCN=c1[n-]c(N(C)C)n/c(=N/c2ccc(/N=C\c3cc(OC)c(O)c(OC)c3)cc2)[n-]1 (3D coordinates assigned)
CCCCN=c1[n-]c(N(C)C)n/c(=N/c2ccc(/N=C\c3cc(OC)c(O)c(OC)c3)cc2)[n-]1 (optimized conformer: 72.74607516207038 kcal/mol)

>  <smiles>  (71) 
CCCCN=c1[nH]c(N(C)C)nc(=Nc2ccc(N=Cc3cc(OC)c(O)c(OC)c3)cc2)[nH]1

>  <score_type>  (71) 
oracle

>  <origin>  (71) 
adg

>  <m_score__min__energy>  (71) 
-10.710000000000001

>  <m_primary>  (71) 
energy

$$$$
71:0
     RDKit          3D

 38 39  0  0  0  0  0  0  0  0999 V2000
   59.9250   29.7060   45.4980 C   0  0  0  0  0  0  0  0  0  0  0  0
   58.5820   29.4950   44.9550 N   0  0  0  0  0  0  0  0  0  0  0  0
   58.0600   28.1580   44.7890 C   0  0  0  0  0  0  0  0  0  0  0  0
   57.3350   27.5390   45.8230 C   0  0  0  0  0  0  0  0  0  0  0  0
   56.8350   26.2440   45.6650 C   0  0  0  0  0  0  0  0  0  0  0  0
   57.0570   25.5310   44.4740 C   0  0  0  0  0  0  0  0  0  0  0  0
   56.5150   24.1590   44.3170 C   0  0  0  0  0  0  0  0  0  0  0  0
   55.3340   24.0090   43.8980 O   0  0  0  0  0  0  0  0  0  0  0  0
   57.3060   23.0080   44.6640 N   0  0  0  0  0  0  0  0  0  0  0  0
   56.9600   21.6640   44.2920 C   0  0  0  0  0  0  0  0  0  0  0  0
   57.7490   20.5710   44.7630 N   0  0  0  0  0  0  0  0  0  0  0  0
   55.9740   21.4350   43.5410 O   0  0  0  0  0  0  0  0  0  0  0  0
   57.7770   26.1500   43.4390 C   0  0  0  0  0  0  0  0  0  0  0  0
   58.2760   27.4460   43.5970 C   0  0  0  0  0  0  0  0  0  0  0  0
   57.6230   30.8830   44.5160 S   0  0  0  0  0  0  0  0  0  0  0  0
   56.1820   30.6400   44.8680 O   0  0  0  0  0  0  0  0  0  0  0  0
   57.7230   31.0930   43.0310 O   0  0  0  0  0  0  0  0  0  0  0  0
   58.1950   32.3190   45.3610 C   0  0  0  0  0  0  0  0  0  0  0  0
   58.2630   32.3400   46.7620 C   0  0  0  0  0  0  0  0  0  0  0  0
   58.7180   33.4840   47.4270 C   0  0  0  0  0  0  0  0  0  0  0  0
   59.1100   34.6100   46.6950 C   0  0  0  0  0  0  0  0  0  0  0  0
   59.0440   34.5930   45.2990 C   0  0  0  0  0  0  0  0  0  0  0  0
   58.5850   33.4530   44.6320 C   0  0  0  0  0  0  0  0  0  0  0  0
   59.8814   29.6991   46.5971 H   0  0  0  0  0  0  0  0  0  0  0  0
   60.5908   28.9014   45.1525 H   0  0  0  0  0  0  0  0  0  0  0  0
   60.3120   30.6760   45.1525 H   0  0  0  0  0  0  0  0  0  0  0  0
   57.1600   28.0795   46.7649 H   0  0  0  0  0  0  0  0  0  0  0  0
   56.2622   25.7779   46.4803 H   0  0  0  0  0  0  0  0  0  0  0  0
   58.1590   23.1410   45.2510 H   0  0  0  0  0  0  0  0  0  0  0  0
   58.5710   20.7380   45.3850 H   0  0  0  0  0  0  0  0  0  0  0  0
   57.5140   19.5920   44.4850 H   0  0  0  0  0  0  0  0  0  0  0  0
   57.9496   25.6103   42.4962 H   0  0  0  0  0  0  0  0  0  0  0  0
   58.8440   27.9137   42.7793 H   0  0  0  0  0  0  0  0  0  0  0  0
   57.9578   31.4548   47.3393 H   0  0  0  0  0  0  0  0  0  0  0  0
   58.7675   33.4980   48.5258 H   0  0  0  0  0  0  0  0  0  0  0  0
   59.4700   35.5083   47.2179 H   0  0  0  0  0  0  0  0  0  0  0  0
   59.3537   35.4781   44.7240 H   0  0  0  0  0  0  0  0  0  0  0  0
   58.5295   33.4450   43.5334 H   0  0  0  0  0  0  0  0  0  0  0  0
  1  2  1  0
  2  3  1  0
  3  4  2  0
  4  5  1  0
  5  6  2  0
  6  7  1  0
  7  8  2  0
  7  9  1  0
  9 10  1  0
 10 11  1  0
 10 12  2  0
  6 13  1  0
 13 14  2  0
  2 15  1  0
 15 16  2  0
 15 17  2  0
 15 18  1  0
 18 19  2  0
 19 20  1  0
 20 21  2  0
 21 22  1  0
 22 23  2  0
 14  3  1  0
 23 18  1  0
  1 24  1  0
  1 25  1  0
  1 26  1  0
  4 27  1  0
  5 28  1  0
  9 29  1  0
 11 30  1  0
 11 31  1  0
 13 32  1  0
 14 33  1  0
 19 34  1  0
 20 35  1  0
 21 36  1  0
 22 37  1  0
 23 38  1  0
M  END
>  <UniqueID>  (72) 
63

>  <SMILES>  (72) 
CN(c1ccc(C(=O)NC(N)=O)cc1)S(=O)(=O)c1ccccc1

>  <Energy>  (72) 
43.55882951814102

>  <Genealogy>  (72) 
CN(c1ccc(C(=O)NC(N)=O)cc1)S(=O)(=O)c1ccccc1 (3D coordinates assigned)
CN(c1ccc(C(=O)NC(N)=O)cc1)S(=O)(=O)c1ccccc1 (optimized conformer: 43.55882951814102 kcal/mol)

>  <smiles>  (72) 
CN(c1ccc(C(=O)NC(N)=O)cc1)S(=O)(=O)c1ccccc1

>  <score_type>  (72) 
oracle

>  <origin>  (72) 
adg

>  <m_score__min__energy>  (72) 
-8.8200000000000003

>  <m_primary>  (72) 
energy

$$$$
72:0
     RDKit          3D

 37 39  0  0  0  0  0  0  0  0999 V2000
   54.3850   28.9430   44.4940 H   0  0  0  0  0  0  0  0  0  0  0  0
   55.2030   29.4270   44.0590 N   0  0  0  0  0  0  0  0  0  0  0  0
   56.2460   29.7460   44.7520 C   0  0  0  0  0  0  0  0  0  0  0  0
   56.9650   28.7750   45.3720 N   0  0  0  0  0  0  0  0  0  0  0  0
   58.0680   29.0800   46.1020 C   0  0  0  0  0  0  0  0  0  0  0  0
   58.6344   28.2793   46.6001 H   0  0  0  0  0  0  0  0  0  0  0  0
   58.4870   30.4100   46.2230 C   0  0  0  0  0  0  0  0  0  0  0  0
   57.7170   31.4060   45.5890 C   0  0  0  0  0  0  0  0  0  0  0  0
   56.6280   31.0460   44.8590 N   0  0  0  0  0  0  0  0  0  0  0  0
   58.1250   32.8520   45.6250 C   0  0  0  0  0  0  0  0  0  0  0  0
   58.6981   33.0850   44.7154 H   0  0  0  0  0  0  0  0  0  0  0  0
   57.2149   33.4673   45.6811 H   0  0  0  0  0  0  0  0  0  0  0  0
   58.9880   33.1570   46.8480 C   0  0  0  0  0  0  0  0  0  0  0  0
   59.4280   34.1599   46.7453 H   0  0  0  0  0  0  0  0  0  0  0  0
   58.3654   33.1205   47.7541 H   0  0  0  0  0  0  0  0  0  0  0  0
   60.0580   32.1630   46.9510 N   0  0  0  0  0  0  0  0  0  0  0  0
   61.4030   32.5800   47.2400 C   0  0  0  0  0  0  0  0  0  0  0  0
   62.0500   33.4860   46.3880 C   0  0  0  0  0  0  0  0  0  0  0  0
   61.5187   33.8889   45.5131 H   0  0  0  0  0  0  0  0  0  0  0  0
   63.3620   33.8790   46.6430 C   0  0  0  0  0  0  0  0  0  0  0  0
   63.8690   34.5764   45.9599 H   0  0  0  0  0  0  0  0  0  0  0  0
   64.0330   33.3900   47.7620 C   0  0  0  0  0  0  0  0  0  0  0  0
   65.0697   33.7034   47.9547 H   0  0  0  0  0  0  0  0  0  0  0  0
   63.4000   32.5010   48.6470 C   0  0  0  0  0  0  0  0  0  0  0  0
   64.1360   32.0710   49.8850 C   0  0  0  0  0  0  0  0  0  0  0  0
   63.5780   32.3970   50.7751 H   0  0  0  0  0  0  0  0  0  0  0  0
   64.2312   30.9752   49.8929 H   0  0  0  0  0  0  0  0  0  0  0  0
   65.1374   32.5261   49.8929 H   0  0  0  0  0  0  0  0  0  0  0  0
   62.0770   32.0670   48.3670 C   0  0  0  0  0  0  0  0  0  0  0  0
   61.3820   31.1660   49.1910 O   0  0  0  0  0  0  0  0  0  0  0  0
   60.5040   31.5550   50.2430 C   0  0  0  0  0  0  0  0  0  0  0  0
   60.9783   31.3449   51.2130 H   0  0  0  0  0  0  0  0  0  0  0  0
   60.2917   32.6314   50.1642 H   0  0  0  0  0  0  0  0  0  0  0  0
   59.5640   30.9891   50.1642 H   0  0  0  0  0  0  0  0  0  0  0  0
   59.6920   30.7460   47.0660 C   0  0  0  0  0  0  0  0  0  0  0  0
   60.5414   30.1306   46.7348 H   0  0  0  0  0  0  0  0  0  0  0  0
   59.4424   30.5409   48.1175 H   0  0  0  0  0  0  0  0  0  0  0  0
  1  2  1  0
  2  3  2  0
  3  4  1  0
  4  5  2  0
  5  6  1  0
  5  7  1  0
  7  8  2  0
  8  9  1  0
  8 10  1  0
 10 11  1  0
 10 12  1  0
 10 13  1  0
 13 14  1  0
 13 15  1  0
 13 16  1  0
 16 17  1  0
 17 18  2  0
 18 19  1  0
 18 20  1  0
 20 21  1  0
 20 22  2  0
 22 23  1  0
 22 24  1  0
 24 25  1  0
 25 26  1  0
 25 27  1  0
 25 28  1  0
 24 29  2  0
 29 30  1  0
 30 31  1  0
 31 32  1  0
 31 33  1  0
 31 34  1  0
 16 35  1  0
 35 36  1  0
 35 37  1  0
  9  3  1  0
 29 17  1  0
 35  7  1  0
M  CHG  1   9  -1
M  END
>  <UniqueID>  (73) 
64

>  <SMILES>  (73) 
[H]/N=c1/ncc2c([n-]1)CCN(c1cccc(C)c1OC)C2

>  <Energy>  (73) 
51.028757737841225

>  <Genealogy>  (73) 
COc1c(C)cccc1N1CCc2[n-]c(=N)ncc2C1 (protonated)
[H]/N=c1/ncc2c([n-]1)CCN(c1cccc(C)c1OC)C2 (cis-trans isomerization)
[H]/N=c1/ncc2c([n-]1)CCN(c1cccc(C)c1OC)C2 (3D coordinates assigned)
[H]/N=c1/ncc2c([n-]1)CCN(c1cccc(C)c1OC)C2 (nonaromatic ring conformer: 51.028757737841225 kcal/mol)

>  <smiles>  (73) 
COc1c(C)cccc1N1CCc2[nH]c(=N)ncc2C1

>  <score_type>  (73) 
oracle

>  <origin>  (73) 
adg

>  <m_score__min__energy>  (73) 
-8.6999999999999993

>  <m_primary>  (73) 
energy

$$$$
73:0
     RDKit          3D

 42 44  0  0  0  0  0  0  0  0999 V2000
   55.5120   25.6210   47.1160 H   0  0  0  0  0  0  0  0  0  0  0  0
   55.6280   24.6380   46.9060 O   0  0  0  0  0  0  0  0  0  0  0  0
   55.9010   24.1530   45.6250 C   0  0  0  0  0  0  0  0  0  0  0  0
   54.8170   23.8500   44.7920 C   0  0  0  0  0  0  0  0  0  0  0  0
   53.7901   24.0078   45.1533 H   0  0  0  0  0  0  0  0  0  0  0  0
   55.0300   23.3490   43.5060 C   0  0  0  0  0  0  0  0  0  0  0  0
   54.1722   23.1143   42.8586 H   0  0  0  0  0  0  0  0  0  0  0  0
   56.3290   23.1460   43.0420 C   0  0  0  0  0  0  0  0  0  0  0  0
   56.4944   22.7478   42.0300 H   0  0  0  0  0  0  0  0  0  0  0  0
   57.4200   23.4470   43.8590 C   0  0  0  0  0  0  0  0  0  0  0  0
   58.4417   23.2808   43.4869 H   0  0  0  0  0  0  0  0  0  0  0  0
   57.2250   23.9610   45.1540 C   0  0  0  0  0  0  0  0  0  0  0  0
   58.4310   24.2510   46.0160 C   0  0  0  0  0  0  0  0  0  0  0  0
   59.2699   23.6213   45.6848 H   0  0  0  0  0  0  0  0  0  0  0  0
   58.1750   24.0315   47.0630 H   0  0  0  0  0  0  0  0  0  0  0  0
   58.8300   25.6950   45.9130 C   0  0  0  0  0  0  0  0  0  0  0  0
   59.7095   25.9694   45.3120 H   0  0  0  0  0  0  0  0  0  0  0  0
   58.1380   26.6540   46.5370 C   0  0  0  0  0  0  0  0  0  0  0  0
   58.0382   26.6047   47.6314 H   0  0  0  0  0  0  0  0  0  0  0  0
   57.4990   27.7820   45.8150 C   0  0  0  0  0  0  0  0  0  0  0  0
   56.1150   27.8310   45.5820 C   0  0  0  0  0  0  0  0  0  0  0  0
   55.2790   26.7990   45.9920 O   0  0  0  0  0  0  0  0  0  0  0  0
   55.5820   28.8850   44.9230 N   0  0  0  0  0  0  0  0  0  0  0  0
   56.3500   29.9020   44.4590 C   0  0  0  0  0  0  0  0  0  0  0  0
   55.7910   30.8580   43.8580 O   0  0  0  0  0  0  0  0  0  0  0  0
   57.7110   29.8790   44.6360 N   0  0  0  0  0  0  0  0  0  0  0  0
   58.5470   30.9970   44.1520 C   0  0  0  0  0  0  0  0  0  0  0  0
   59.5843   30.6496   44.0361 H   0  0  0  0  0  0  0  0  0  0  0  0
   58.1529   31.3434   43.1852 H   0  0  0  0  0  0  0  0  0  0  0  0
   58.5140   32.1430   45.1310 C   0  0  0  0  0  0  0  0  0  0  0  0
   58.7940   33.4520   44.7040 C   0  0  0  0  0  0  0  0  0  0  0  0
   59.0141   33.6470   43.6440 H   0  0  0  0  0  0  0  0  0  0  0  0
   58.7940   34.5080   45.6210 C   0  0  0  0  0  0  0  0  0  0  0  0
   59.0115   35.5311   45.2806 H   0  0  0  0  0  0  0  0  0  0  0  0
   58.5180   34.2650   46.9690 C   0  0  0  0  0  0  0  0  0  0  0  0
   58.5179   35.0965   47.6892 H   0  0  0  0  0  0  0  0  0  0  0  0
   58.2420   32.9650   47.4020 C   0  0  0  0  0  0  0  0  0  0  0  0
   58.0245   32.7741   48.4632 H   0  0  0  0  0  0  0  0  0  0  0  0
   58.2420   31.9070   46.4880 C   0  0  0  0  0  0  0  0  0  0  0  0
   58.0279   30.8849   46.8337 H   0  0  0  0  0  0  0  0  0  0  0  0
   58.2890   28.8270   45.3050 C   0  0  0  0  0  0  0  0  0  0  0  0
   59.5400   28.7970   45.4810 O   0  0  0  0  0  0  0  0  0  0  0  0
  1  2  1  0
  2  3  1  0
  3  4  2  0
  4  5  1  0
  4  6  1  0
  6  7  1  0
  6  8  2  0
  8  9  1  0
  8 10  1  0
 10 11  1  0
 10 12  2  0
 12 13  1  0
 13 14  1  0
 13 15  1  0
 13 16  1  0
 16 17  1  0
 16 18  2  0
 18 19  1  0
 18 20  1  0
 20 21  2  0
 21 22  1  0
 21 23  1  0
 23 24  1  0
 24 25  2  0
 24 26  1  0
 26 27  1  0
 27 28  1  0
 27 29  1  0
 27 30  1  0
 30 31  2  0
 31 32  1  0
 31 33  1  0
 33 34  1  0
 33 35  2  0
 35 36  1  0
 35 37  1  0
 37 38  1  0
 37 39  2  0
 39 40  1  0
 26 41  1  0
 41 42  2  0
 12  3  1  0
 41 20  1  0
 39 30  1  0
M  CHG  2  22  -1  23  -1
M  END
>  <UniqueID>  (74) 
65

>  <SMILES>  (74) 
O=c1[n-]c([O-])c(/C=C/Cc2ccccc2O)c(=O)n1Cc1ccccc1

>  <Energy>  (74) 
52.959300679250255

>  <Genealogy>  (74) 
O=c1[n-]c([O-])c(C=CCc2ccccc2O)c(=O)n1Cc1ccccc1 (protonated)
O=c1[n-]c([O-])c(/C=C/Cc2ccccc2O)c(=O)n1Cc1ccccc1 (cis-trans isomerization)
O=c1[n-]c([O-])c(/C=C/Cc2ccccc2O)c(=O)n1Cc1ccccc1 (3D coordinates assigned)
O=c1[n-]c([O-])c(/C=C/Cc2ccccc2O)c(=O)n1Cc1ccccc1 (optimized conformer: 52.959300679250255 kcal/mol)

>  <smiles>  (74) 
O=c1[nH]c(O)c(C=CCc2ccccc2O)c(=O)n1Cc1ccccc1

>  <score_type>  (74) 
oracle

>  <origin>  (74) 
adg

>  <m_score__min__energy>  (74) 
-13.640000000000001

>  <m_primary>  (74) 
energy

$$$$
74:0
     RDKit          3D

 41 44  0  0  0  0  0  0  0  0999 V2000
   57.8716   20.5891   46.9708 H   0  0  0  0  0  0  0  0  0  0  0  0
   57.3770   21.4600   46.5160 C   0  0  0  0  0  0  0  0  0  0  0  0
   57.0160   22.5540   47.2400 N   0  0  0  0  0  0  0  0  0  0  0  0
   56.4270   23.4940   46.4710 C   0  0  0  0  0  0  0  0  0  0  0  0
   56.0050   24.6210   46.9660 N   0  0  0  0  0  0  0  0  0  0  0  0
   55.9080   25.8910   46.3000 C   0  0  0  0  0  0  0  0  0  0  0  0
   54.7870   26.3810   45.9920 O   0  0  0  0  0  0  0  0  0  0  0  0
   57.1400   26.6260   45.9740 C   0  0  0  0  0  0  0  0  0  0  0  0
   58.7000   26.0900   46.3080 S   0  0  0  0  0  0  0  0  0  0  0  0
   59.5050   27.4180   45.6640 C   0  0  0  0  0  0  0  0  0  0  0  0
   60.5956   27.5583   45.6351 H   0  0  0  0  0  0  0  0  0  0  0  0
   58.5580   28.3070   45.1750 C   0  0  0  0  0  0  0  0  0  0  0  0
   58.8186   29.2637   44.6987 H   0  0  0  0  0  0  0  0  0  0  0  0
   57.2320   27.8670   45.3470 C   0  0  0  0  0  0  0  0  0  0  0  0
   56.1020   28.5850   44.9380 O   0  0  0  0  0  0  0  0  0  0  0  0
   56.0390   29.3420   43.7340 C   0  0  0  0  0  0  0  0  0  0  0  0
   54.9887   29.5607   43.4908 H   0  0  0  0  0  0  0  0  0  0  0  0
   56.4891   28.7676   42.9109 H   0  0  0  0  0  0  0  0  0  0  0  0
   56.7890   30.6270   43.9230 C   0  0  0  0  0  0  0  0  0  0  0  0
   57.3140   31.3020   42.8210 C   0  0  0  0  0  0  0  0  0  0  0  0
   57.1538   30.9164   41.8033 H   0  0  0  0  0  0  0  0  0  0  0  0
   58.0440   32.4710   43.0260 C   0  0  0  0  0  0  0  0  0  0  0  0
   58.5090   33.0790   42.0210 O   0  0  0  0  0  0  0  0  0  0  0  0
   58.2500   32.9450   44.2980 N   0  0  0  0  0  0  0  0  0  0  0  0
   58.9680   34.0970   44.5040 C   0  0  0  0  0  0  0  0  0  0  0  0
   59.3656   34.6493   43.6398 H   0  0  0  0  0  0  0  0  0  0  0  0
   59.2020   34.5800   45.7990 C   0  0  0  0  0  0  0  0  0  0  0  0
   59.9520   35.8610   46.0100 C   0  0  0  0  0  0  0  0  0  0  0  0
   60.0617   36.0483   47.0884 H   0  0  0  0  0  0  0  0  0  0  0  0
   60.9474   35.7835   45.5482 H   0  0  0  0  0  0  0  0  0  0  0  0
   59.3972   36.6910   45.5482 H   0  0  0  0  0  0  0  0  0  0  0  0
   58.6660   33.8880   46.8880 C   0  0  0  0  0  0  0  0  0  0  0  0
   58.8183   34.2662   47.9097 H   0  0  0  0  0  0  0  0  0  0  0  0
   57.9400   32.7210   46.6790 C   0  0  0  0  0  0  0  0  0  0  0  0
   57.5271   32.1681   47.5356 H   0  0  0  0  0  0  0  0  0  0  0  0
   57.7350   32.2500   45.3740 C   0  0  0  0  0  0  0  0  0  0  0  0
   57.0210   31.1050   45.1740 N   0  0  0  0  0  0  0  0  0  0  0  0
   56.6440   30.5790   45.9970 H   0  0  0  0  0  0  0  0  0  0  0  0
   56.3330   23.0010   44.8590 S   0  0  0  0  0  0  0  0  0  0  0  0
   57.0760   21.5220   45.1610 C   0  0  0  0  0  0  0  0  0  0  0  0
   57.2867   20.7407   44.4159 H   0  0  0  0  0  0  0  0  0  0  0  0
  1  2  1  0
  2  3  1  0
  3  4  1  0
  4  5  2  0
  5  6  1  0
  6  7  2  0
  6  8  1  0
  8  9  1  0
  9 10  1  0
 10 11  1  0
 10 12  2  0
 12 13  1  0
 12 14  1  0
 14 15  1  0
 15 16  1  0
 16 17  1  0
 16 18  1  0
 16 19  1  0
 19 20  2  0
 20 21  1  0
 20 22  1  0
 22 23  2  0
 22 24  1  0
 24 25  1  0
 25 26  1  0
 25 27  2  0
 27 28  1  0
 28 29  1  0
 28 30  1  0
 28 31  1  0
 27 32  1  0
 32 33  1  0
 32 34  2  0
 34 35  1  0
 34 36  1  0
 36 37  2  0
 37 38  1  0
  4 39  1  0
 39 40  1  0
 40 41  1  0
 40  2  2  0
 14  8  2  0
 37 19  1  0
 36 24  1  0
M  CHG  2   3  -1  37   1
M  END
>  <UniqueID>  (75) 
66

>  <SMILES>  (75) 
Cc1ccc2[nH+]c(COc3ccsc3C(=O)/N=c3/[n-]ccs3)cc(=O)n2c1

>  <Energy>  (75) 
107.49353726093054

>  <Genealogy>  (75) 
Cc1ccc2[nH+]c(COc3ccsc3C(=O)N=c3[n-]ccs3)cc(=O)n2c1 (protonated)
Cc1ccc2[nH+]c(COc3ccsc3C(=O)/N=c3/[n-]ccs3)cc(=O)n2c1 (cis-trans isomerization)
Cc1ccc2[nH+]c(COc3ccsc3C(=O)/N=c3/[n-]ccs3)cc(=O)n2c1 (3D coordinates assigned)
Cc1ccc2[nH+]c(COc3ccsc3C(=O)/N=c3/[n-]ccs3)cc(=O)n2c1 (optimized conformer: 107.49353726093054 kcal/mol)

>  <smiles>  (75) 
Cc1ccc2nc(COc3ccsc3C(=O)N=c3[nH]ccs3)cc(=O)n2c1

>  <score_type>  (75) 
oracle

>  <origin>  (75) 
adg

>  <m_score__min__energy>  (75) 
-9.3499999999999996

>  <m_primary>  (75) 
energy

$$$$
75:0
     RDKit          3D

 50 52  0  0  0  0  0  0  0  0999 V2000
   59.5080   34.5400   45.2520 C   0  0  0  0  0  0  0  0  0  0  0  0
   58.3900   33.4950   45.2760 C   0  0  0  0  0  0  0  0  0  0  0  0
   57.0330   34.1640   45.5270 C   0  0  0  0  0  0  0  0  0  0  0  0
   58.6820   32.4470   46.3340 C   0  0  0  0  0  0  0  0  0  0  0  0
   59.4590   32.8120   47.3930 N   0  0  0  0  0  0  0  0  0  0  0  0
   59.8100   31.9570   48.3910 C   0  0  0  0  0  0  0  0  0  0  0  0
   60.6510   32.4410   49.5070 C   0  0  0  0  0  0  0  0  0  0  0  0
   60.9980   33.8230   49.6130 N   0  0  0  0  0  0  0  0  0  0  0  0
   61.0720   31.6340   50.3780 O   0  0  0  0  0  0  0  0  0  0  0  0
   59.3640   30.6330   48.3410 C   0  0  0  0  0  0  0  0  0  0  0  0
   58.5810   30.2120   47.2680 C   0  0  0  0  0  0  0  0  0  0  0  0
   58.2360   31.1030   46.2410 C   0  0  0  0  0  0  0  0  0  0  0  0
   57.2630   30.5080   44.8850 S   0  0  0  0  0  0  0  0  0  0  0  0
   58.1670   30.1870   43.7290 O   0  0  0  0  0  0  0  0  0  0  0  0
   56.2700   31.5700   44.5020 O   0  0  0  0  0  0  0  0  0  0  0  0
   56.4110   29.0700   45.3550 N   0  0  0  0  0  0  0  0  0  0  0  0
   56.9250   27.7310   45.4400 C   0  0  0  0  0  0  0  0  0  0  0  0
   58.2850   27.5450   45.1540 C   0  0  0  0  0  0  0  0  0  0  0  0
   58.8640   26.2760   45.2220 C   0  0  0  0  0  0  0  0  0  0  0  0
   58.0900   25.1650   45.5790 C   0  0  0  0  0  0  0  0  0  0  0  0
   58.7050   23.7920   45.6150 C   0  0  0  0  0  0  0  0  0  0  0  0
   57.8690   22.8280   44.8160 C   0  0  0  0  0  0  0  0  0  0  0  0
   57.3060   23.2220   43.5920 C   0  0  0  0  0  0  0  0  0  0  0  0
   56.5060   22.3230   42.8820 C   0  0  0  0  0  0  0  0  0  0  0  0
   56.2680   21.0800   43.3810 N   0  0  0  0  0  0  0  0  0  0  0  0
   56.7930   20.6770   44.5690 C   0  0  0  0  0  0  0  0  0  0  0  0
   57.5990   21.5450   45.3100 C   0  0  0  0  0  0  0  0  0  0  0  0
   56.7230   25.3370   45.8430 C   0  0  0  0  0  0  0  0  0  0  0  0
   56.1370   26.6060   45.7740 C   0  0  0  0  0  0  0  0  0  0  0  0
   54.7750   26.7150   46.0220 O   0  0  0  0  0  0  0  0  0  0  0  0
   59.7877   34.8015   46.2832 H   0  0  0  0  0  0  0  0  0  0  0  0
   60.3832   34.1287   44.7278 H   0  0  0  0  0  0  0  0  0  0  0  0
   59.1566   35.4409   44.7278 H   0  0  0  0  0  0  0  0  0  0  0  0
   58.3459   32.9981   44.2956 H   0  0  0  0  0  0  0  0  0  0  0  0
   56.8608   34.2489   46.6101 H   0  0  0  0  0  0  0  0  0  0  0  0
   57.0296   35.1670   45.0755 H   0  0  0  0  0  0  0  0  0  0  0  0
   56.2353   33.5559   45.0755 H   0  0  0  0  0  0  0  0  0  0  0  0
   60.6650   34.5250   48.9160 H   0  0  0  0  0  0  0  0  0  0  0  0
   61.5930   34.1530   50.4060 H   0  0  0  0  0  0  0  0  0  0  0  0
   59.6293   29.9285   49.1431 H   0  0  0  0  0  0  0  0  0  0  0  0
   58.2299   29.1704   47.2259 H   0  0  0  0  0  0  0  0  0  0  0  0
   58.9038   28.4097   44.8725 H   0  0  0  0  0  0  0  0  0  0  0  0
   59.9326   26.1486   44.9942 H   0  0  0  0  0  0  0  0  0  0  0  0
   59.7176   23.8359   45.1876 H   0  0  0  0  0  0  0  0  0  0  0  0
   58.7530   23.4469   46.6584 H   0  0  0  0  0  0  0  0  0  0  0  0
   57.4932   24.2306   43.1949 H   0  0  0  0  0  0  0  0  0  0  0  0
   56.0679   22.6208   41.9180 H   0  0  0  0  0  0  0  0  0  0  0  0
   56.5827   19.6657   44.9473 H   0  0  0  0  0  0  0  0  0  0  0  0
   58.0187   21.2233   46.2746 H   0  0  0  0  0  0  0  0  0  0  0  0
   56.1055   24.4657   46.1069 H   0  0  0  0  0  0  0  0  0  0  0  0
  1  2  1  0
  2  3  1  0
  2  4  1  0
  4  5  2  0
  5  6  1  0
  6  7  1  0
  7  8  1  0
  7  9  2  0
  6 10  2  0
 10 11  1  0
 11 12  2  0
 12 13  1  0
 13 14  2  0
 13 15  2  0
 13 16  1  0
 16 17  1  0
 17 18  2  0
 18 19  1  0
 19 20  2  0
 20 21  1  0
 21 22  1  0
 22 23  2  0
 23 24  1  0
 24 25  2  0
 25 26  1  0
 26 27  2  0
 20 28  1  0
 28 29  2  0
 29 30  1  0
 12  4  1  0
 29 17  1  0
 27 22  1  0
  1 31  1  0
  1 32  1  0
  1 33  1  0
  2 34  1  0
  3 35  1  0
  3 36  1  0
  3 37  1  0
  8 38  1  0
  8 39  1  0
 10 40  1  0
 11 41  1  0
 18 42  1  0
 19 43  1  0
 21 44  1  0
 21 45  1  0
 23 46  1  0
 24 47  1  0
 26 48  1  0
 27 49  1  0
 28 50  1  0
M  CHG  2  16  -1  30  -1
M  END
>  <UniqueID>  (76) 
67

>  <SMILES>  (76) 
CC(C)c1nc(C(N)=O)ccc1S(=O)(=O)[N-]c1ccc(Cc2ccncc2)cc1[O-]

>  <Energy>  (76) 
57.03820342329861

>  <Genealogy>  (76) 
CC(C)c1nc(C(N)=O)ccc1S(=O)(=O)[N-]c1ccc(Cc2ccncc2)cc1[O-] (protonated)
CC(C)c1nc(C(N)=O)ccc1S(=O)(=O)[N-]c1ccc(Cc2ccncc2)cc1[O-] (3D coordinates assigned)
CC(C)c1nc(C(N)=O)ccc1S(=O)(=O)[N-]c1ccc(Cc2ccncc2)cc1[O-] (optimized conformer: 57.03820342329861 kcal/mol)

>  <smiles>  (76) 
CC(C)c1nc(C(N)=O)ccc1S(=O)(=O)Nc1ccc(Cc2ccncc2)cc1O

>  <score_type>  (76) 
oracle

>  <origin>  (76) 
adg

>  <m_score__min__energy>  (76) 
-15.57

>  <m_primary>  (76) 
energy

$$$$
76:0
     RDKit          3D

 49 52  0  0  0  0  0  0  0  0999 V2000
   63.0110   34.3530   49.2980 C   0  0  0  0  0  0  0  0  0  0  0  0
   62.9520   33.3160   48.1680 C   0  0  1  0  0  0  0  0  0  0  0  0
   63.5580   31.9730   48.6000 C   0  0  0  0  0  0  0  0  0  0  0  0
   62.6500   31.2610   49.5530 C   0  0  0  0  0  0  0  0  0  0  0  0
   63.1540   30.5700   50.4810 O   0  0  0  0  0  0  0  0  0  0  0  0
   61.2180   31.3250   49.3720 N   0  0  0  0  0  0  0  0  0  0  0  0
   60.3380   30.5100   50.2310 C   0  0  0  0  0  0  0  0  0  0  0  0
   59.7270   29.3780   49.4540 C   0  0  0  0  0  0  0  0  0  0  0  0
   58.5440   29.0250   49.7060 O   0  0  0  0  0  0  0  0  0  0  0  0
   60.4860   28.6850   48.4560 N   0  0  0  0  0  0  0  0  0  0  0  0
   59.8680   27.6840   47.5870 C   0  0  0  0  0  0  0  0  0  0  0  0
   59.0870   28.3520   46.4880 C   0  0  0  0  0  0  0  0  0  0  0  0
   59.6450   29.4200   45.7670 C   0  0  0  0  0  0  0  0  0  0  0  0
   58.9000   30.0660   44.7750 C   0  0  0  0  0  0  0  0  0  0  0  0
   57.5890   29.6580   44.5060 C   0  0  0  0  0  0  0  0  0  0  0  0
   56.6540   30.4730   43.2650 Cl  0  0  0  0  0  0  0  0  0  0  0  0
   57.0210   28.6060   45.2340 C   0  0  0  0  0  0  0  0  0  0  0  0
   57.7660   27.9580   46.2240 C   0  0  0  0  0  0  0  0  0  0  0  0
   60.6840   32.1820   48.3260 C   0  0  0  0  0  0  0  0  0  0  0  0
   59.3420   32.0770   47.8990 C   0  0  0  0  0  0  0  0  0  0  0  0
   58.8440   32.9010   46.8800 C   0  0  0  0  0  0  0  0  0  0  0  0
   57.5090   32.7900   46.4590 C   0  0  0  0  0  0  0  0  0  0  0  0
   57.0200   33.6190   45.4460 C   0  0  0  0  0  0  0  0  0  0  0  0
   57.8560   34.5650   44.8470 C   0  0  0  0  0  0  0  0  0  0  0  0
   59.1870   34.6850   45.2580 C   0  0  0  0  0  0  0  0  0  0  0  0
   59.6900   33.8560   46.2740 C   0  0  0  0  0  0  0  0  0  0  0  0
   61.0200   33.9700   46.6920 C   0  0  0  0  0  0  0  0  0  0  0  0
   61.5250   33.1340   47.7020 C   0  0  0  0  0  0  0  0  0  0  0  0
   62.9817   33.8384   50.2698 H   0  0  0  0  0  0  0  0  0  0  0  0
   63.9435   34.9309   49.2170 H   0  0  0  0  0  0  0  0  0  0  0  0
   62.1501   35.0329   49.2170 H   0  0  0  0  0  0  0  0  0  0  0  0
   63.5555   33.6936   47.3294 H   0  0  0  0  0  0  0  0  0  0  0  0
   63.7117   31.3442   47.7106 H   0  0  0  0  0  0  0  0  0  0  0  0
   64.5167   32.1652   49.1040 H   0  0  0  0  0  0  0  0  0  0  0  0
   60.9281   30.0982   51.0630 H   0  0  0  0  0  0  0  0  0  0  0  0
   59.5292   31.1504   50.6128 H   0  0  0  0  0  0  0  0  0  0  0  0
   61.4970   28.9180   48.3360 H   0  0  0  0  0  0  0  0  0  0  0  0
   60.6538   27.0555   47.1425 H   0  0  0  0  0  0  0  0  0  0  0  0
   59.1829   27.0663   48.1862 H   0  0  0  0  0  0  0  0  0  0  0  0
   60.6719   29.7498   45.9832 H   0  0  0  0  0  0  0  0  0  0  0  0
   59.3452   30.8954   44.2059 H   0  0  0  0  0  0  0  0  0  0  0  0
   55.9882   28.2890   45.0272 H   0  0  0  0  0  0  0  0  0  0  0  0
   57.3147   27.1357   46.7986 H   0  0  0  0  0  0  0  0  0  0  0  0
   58.6783   31.3385   48.3725 H   0  0  0  0  0  0  0  0  0  0  0  0
   56.8461   32.0481   46.9281 H   0  0  0  0  0  0  0  0  0  0  0  0
   55.9738   33.5266   45.1191 H   0  0  0  0  0  0  0  0  0  0  0  0
   57.4663   35.2163   44.0508 H   0  0  0  0  0  0  0  0  0  0  0  0
   59.8421   35.4309   44.7842 H   0  0  0  0  0  0  0  0  0  0  0  0
   61.6758   34.7203   46.2262 H   0  0  0  0  0  0  0  0  0  0  0  0
  1  2  1  0
  2  3  1  0
  3  4  1  0
  4  5  2  0
  4  6  1  0
  6  7  1  0
  7  8  1  0
  8  9  2  0
  8 10  1  0
 10 11  1  0
 11 12  1  0
 12 13  2  0
 13 14  1  0
 14 15  2  0
 15 16  1  0
 15 17  1  0
 17 18  2  0
  6 19  1  0
 19 20  2  0
 20 21  1  0
 21 22  2  0
 22 23  1  0
 23 24  2  0
 24 25  1  0
 25 26  2  0
 26 27  1  0
 27 28  2  0
 28  2  1  0
 18 12  1  0
 28 19  1  0
 26 21  1  0
  1 29  1  0
  1 30  1  0
  1 31  1  0
  2 32  1  6
  3 33  1  0
  3 34  1  0
  7 35  1  0
  7 36  1  0
 10 37  1  0
 11 38  1  0
 11 39  1  0
 13 40  1  0
 14 41  1  0
 17 42  1  0
 18 43  1  0
 20 44  1  0
 22 45  1  0
 23 46  1  0
 24 47  1  0
 25 48  1  0
 27 49  1  0
M  END
>  <UniqueID>  (77) 
68

>  <SMILES>  (77) 
C[C@H]1CC(=O)N(CC(=O)NCc2ccc(Cl)cc2)c2cc3ccccc3cc21

>  <Energy>  (77) 
53.63081464717539

>  <Genealogy>  (77) 
C[C@H]1CC(=O)N(CC(=O)NCc2ccc(Cl)cc2)c2cc3ccccc3cc21 (chirality)
C[C@H]1CC(=O)N(CC(=O)NCc2ccc(Cl)cc2)c2cc3ccccc3cc21 (3D coordinates assigned)
C[C@H]1CC(=O)N(CC(=O)NCc2ccc(Cl)cc2)c2cc3ccccc3cc21 (nonaromatic ring conformer: 53.63081464717539 kcal/mol)

>  <smiles>  (77) 
CC1CC(=O)N(CC(=O)NCc2ccc(Cl)cc2)c2cc3ccccc3cc21

>  <score_type>  (77) 
oracle

>  <origin>  (77) 
adg

>  <m_score__min__energy>  (77) 
-9.3000000000000007

>  <m_primary>  (77) 
energy

$$$$
77:0
     RDKit          3D

 46 48  0  0  0  0  0  0  0  0999 V2000
   57.3870   32.3700   41.2500 C   0  0  0  0  0  0  0  0  0  0  0  0
   57.7560   31.5300   42.4700 C   0  0  0  0  0  0  0  0  0  0  0  0
   57.7730   32.3800   43.7170 C   0  0  0  0  0  0  0  0  0  0  0  0
   58.6570   33.4700   43.7910 C   0  0  0  0  0  0  0  0  0  0  0  0
   58.7180   34.2580   44.9430 C   0  0  0  0  0  0  0  0  0  0  0  0
   57.8990   33.9660   46.0350 C   0  0  0  0  0  0  0  0  0  0  0  0
   57.0280   32.8750   45.9840 C   0  0  0  0  0  0  0  0  0  0  0  0
   56.9690   32.0610   44.8370 C   0  0  0  0  0  0  0  0  0  0  0  0
   56.0570   30.9540   44.7630 N   0  0  0  0  0  0  0  0  0  0  0  0
   56.4050   29.5660   44.8540 C   0  0  0  0  0  0  0  0  0  0  0  0
   55.5360   28.7050   45.1580 O   0  0  0  0  0  0  0  0  0  0  0  0
   57.8180   29.1370   44.6140 C   0  0  0  0  0  0  0  0  0  0  0  0
   58.5450   28.3650   46.1010 S   0  0  0  0  0  0  0  0  0  0  0  0
   59.0780   29.9130   46.8290 C   0  0  0  0  0  0  0  0  0  0  0  0
   58.5230   30.3470   47.9900 N   0  0  0  0  0  0  0  0  0  0  0  0
   58.9120   31.5170   48.5590 C   0  0  0  0  0  0  0  0  0  0  0  0
   58.3640   31.8940   49.6290 O   0  0  0  0  0  0  0  0  0  0  0  0
   59.9170   32.2890   47.9520 C   0  0  0  0  0  0  0  0  0  0  0  0
   60.4770   33.8210   48.6300 S   0  0  0  0  0  0  0  0  0  0  0  0
   59.6430   34.2220   49.8150 O   0  0  0  0  0  0  0  0  0  0  0  0
   60.3720   34.8930   47.5830 O   0  0  0  0  0  0  0  0  0  0  0  0
   62.1460   33.6470   49.1650 C   0  0  0  0  0  0  0  0  0  0  0  0
   63.1230   33.1970   48.2650 C   0  0  0  0  0  0  0  0  0  0  0  0
   64.4560   33.0860   48.6710 C   0  0  0  0  0  0  0  0  0  0  0  0
   64.8210   33.4310   49.9770 C   0  0  0  0  0  0  0  0  0  0  0  0
   63.8520   33.8860   50.8760 C   0  0  0  0  0  0  0  0  0  0  0  0
   62.5170   33.9940   50.4740 C   0  0  0  0  0  0  0  0  0  0  0  0
   60.4670   31.8210   46.7530 C   0  0  0  0  0  0  0  0  0  0  0  0
   60.0420   30.6490   46.2190 N   0  0  0  0  0  0  0  0  0  0  0  0
   56.9650   33.3306   41.5803 H   0  0  0  0  0  0  0  0  0  0  0  0
   58.2873   32.5536   40.6453 H   0  0  0  0  0  0  0  0  0  0  0  0
   56.6427   31.8311   40.6453 H   0  0  0  0  0  0  0  0  0  0  0  0
   57.0161   30.7252   42.5916 H   0  0  0  0  0  0  0  0  0  0  0  0
   58.7594   31.1058   42.3172 H   0  0  0  0  0  0  0  0  0  0  0  0
   59.3063   33.7047   42.9347 H   0  0  0  0  0  0  0  0  0  0  0  0
   59.4124   35.1098   44.9896 H   0  0  0  0  0  0  0  0  0  0  0  0
   57.9395   34.5954   46.9363 H   0  0  0  0  0  0  0  0  0  0  0  0
   56.3834   32.6503   46.8466 H   0  0  0  0  0  0  0  0  0  0  0  0
   57.8355   28.4097   43.7889 H   0  0  0  0  0  0  0  0  0  0  0  0
   58.4114   30.0285   44.3629 H   0  0  0  0  0  0  0  0  0  0  0  0
   62.8394   32.9305   47.2362 H   0  0  0  0  0  0  0  0  0  0  0  0
   65.2182   32.7273   47.9636 H   0  0  0  0  0  0  0  0  0  0  0  0
   65.8701   33.3442   50.2962 H   0  0  0  0  0  0  0  0  0  0  0  0
   64.1402   34.1596   51.9017 H   0  0  0  0  0  0  0  0  0  0  0  0
   61.7566   34.3512   51.1841 H   0  0  0  0  0  0  0  0  0  0  0  0
   61.2464   32.4056   46.2422 H   0  0  0  0  0  0  0  0  0  0  0  0
  1  2  1  0
  2  3  1  0
  3  4  2  0
  4  5  1  0
  5  6  2  0
  6  7  1  0
  7  8  2  0
  8  9  1  0
  9 10  1  0
 10 11  2  0
 10 12  1  0
 12 13  1  0
 13 14  1  0
 14 15  2  0
 15 16  1  0
 16 17  2  0
 16 18  1  0
 18 19  1  0
 19 20  2  0
 19 21  2  0
 19 22  1  0
 22 23  2  0
 23 24  1  0
 24 25  2  0
 25 26  1  0
 26 27  2  0
 18 28  2  0
 28 29  1  0
  8  3  1  0
 29 14  1  0
 27 22  1  0
  1 30  1  0
  1 31  1  0
  1 32  1  0
  2 33  1  0
  2 34  1  0
  4 35  1  0
  5 36  1  0
  6 37  1  0
  7 38  1  0
 12 39  1  0
 12 40  1  0
 23 41  1  0
 24 42  1  0
 25 43  1  0
 26 44  1  0
 27 45  1  0
 28 46  1  0
M  CHG  2   9  -1  29  -1
M  END
>  <UniqueID>  (78) 
69

>  <SMILES>  (78) 
CCc1ccccc1[N-]C(=O)CSc1nc(=O)c(S(=O)(=O)c2ccccc2)c[n-]1

>  <Energy>  (78) 
48.57754316319977

>  <Genealogy>  (78) 
CCc1ccccc1[N-]C(=O)CSc1nc(=O)c(S(=O)(=O)c2ccccc2)c[n-]1 (protonated)
CCc1ccccc1[N-]C(=O)CSc1nc(=O)c(S(=O)(=O)c2ccccc2)c[n-]1 (3D coordinates assigned)
CCc1ccccc1[N-]C(=O)CSc1nc(=O)c(S(=O)(=O)c2ccccc2)c[n-]1 (optimized conformer: 48.57754316319977 kcal/mol)

>  <smiles>  (78) 
CCc1ccccc1NC(=O)CSc1nc(=O)c(S(=O)(=O)c2ccccc2)c[nH]1

>  <score_type>  (78) 
oracle

>  <origin>  (78) 
adg

>  <m_score__min__energy>  (78) 
-12.49

>  <m_primary>  (78) 
energy

$$$$
78:0
     RDKit          3D

 62 65  0  0  1  0  0  0  0  0999 V2000
   53.1380   24.4690   45.2910 C   0  0  0  0  0  0  0  0  0  0  0  0
   54.4720   24.8600   45.5530 O   0  0  0  0  0  0  0  0  0  0  0  0
   55.4880   24.0460   45.0690 C   0  0  0  0  0  0  0  0  0  0  0  0
   55.5870   23.7140   43.7190 C   0  0  0  0  0  0  0  0  0  0  0  0
   56.5910   22.9070   43.2280 C   0  0  0  0  0  0  0  0  0  0  0  0
   57.5400   22.4040   44.0920 C   0  0  0  0  0  0  0  0  0  0  0  0
   57.4590   22.7230   45.4370 C   0  0  0  0  0  0  0  0  0  0  0  0
   56.4620   23.5240   45.9300 C   0  0  0  0  0  0  0  0  0  0  0  0
   56.3230   23.9110   47.3590 C   0  0  0  0  0  0  0  0  0  0  0  0
   57.4440   24.6600   47.8660 N   0  0  0  0  0  0  0  0  0  0  0  0
   57.7780   25.7870   47.3740 C   0  0  0  0  0  0  0  0  0  0  0  0
   59.0070   26.3350   47.7490 C   0  0  0  0  0  0  0  0  0  0  0  0
   59.4500   27.5470   47.2710 C   0  0  0  0  0  0  0  0  0  0  0  0
   60.6500   28.1390   47.6030 O   0  0  0  0  0  0  0  0  0  0  0  0
   60.7580   29.1760   48.5350 C   0  0  0  0  0  0  0  0  0  0  0  0
   60.4090   30.5140   48.0850 C   0  0  0  0  0  0  0  0  0  0  0  0
   59.2770   30.6620   47.5040 O   0  0  0  0  0  0  0  0  0  0  0  0
   61.1890   31.6830   48.2140 N   0  0  0  0  0  0  0  0  0  0  0  0
   60.6360   32.8960   47.6950 C   0  0  0  0  0  0  0  0  0  0  0  0
   59.8470   33.7270   48.4820 C   0  0  0  0  0  0  0  0  0  0  0  0
   59.3040   34.8870   48.0260 C   0  0  0  0  0  0  0  0  0  0  0  0
   59.5330   35.2830   46.7170 C   0  0  0  0  0  0  0  0  0  0  0  0
   60.3120   34.4860   45.8990 C   0  0  0  0  0  0  0  0  0  0  0  0
   60.8540   33.3000   46.4030 C   0  0  0  0  0  0  0  0  0  0  0  0
   58.6480   28.1980   46.4170 N   0  0  0  0  0  0  0  0  0  0  0  0
   57.4660   27.6790   46.0510 C   0  0  0  0  0  0  0  0  0  0  0  0
   56.7410   28.3240   45.2450 N   0  0  0  0  0  0  0  0  0  0  0  0
   57.0400   28.7750   43.9250 C   0  0  0  0  0  0  0  0  0  0  0  0
   57.3300   30.2510   44.0080 C   0  0  0  0  0  0  0  0  0  0  0  0
   57.4750   31.0320   42.8830 C   0  0  0  0  0  0  0  0  0  0  0  0
   57.7440   32.3830   43.0020 C   0  0  0  0  0  0  0  0  0  0  0  0
   57.8710   32.9660   44.2670 C   0  0  0  0  0  0  0  0  0  0  0  0
   57.7260   32.1760   45.3880 C   0  0  0  0  0  0  0  0  0  0  0  0
   57.4570   30.8270   45.2690 C   0  0  0  0  0  0  0  0  0  0  0  0
   57.0390   26.4970   46.5210 N   0  0  0  0  0  0  0  0  0  0  0  0
   52.6079   24.3136   46.2422 H   0  0  0  0  0  0  0  0  0  0  0  0
   52.6318   25.2566   44.7135 H   0  0  0  0  0  0  0  0  0  0  0  0
   53.1370   23.5328   44.7135 H   0  0  0  0  0  0  0  0  0  0  0  0
   54.8363   24.1105   43.0195 H   0  0  0  0  0  0  0  0  0  0  0  0
   56.6345   22.6664   42.1555 H   0  0  0  0  0  0  0  0  0  0  0  0
   58.3492   21.7591   43.7187 H   0  0  0  0  0  0  0  0  0  0  0  0
   58.2151   22.3228   46.1284 H   0  0  0  0  0  0  0  0  0  0  0  0
   55.4171   24.5258   47.4661 H   0  0  0  0  0  0  0  0  0  0  0  0
   56.2681   22.9794   47.9413 H   0  0  0  0  0  0  0  0  0  0  0  0
   59.6437   25.7776   48.4518 H   0  0  0  0  0  0  0  0  0  0  0  0
   60.1002   28.9297   49.3816 H   0  0  0  0  0  0  0  0  0  0  0  0
   61.8298   29.2291   48.7766 H   0  0  0  0  0  0  0  0  0  0  0  0
   62.1110   31.6630   48.6470 H   0  0  0  0  0  0  0  0  0  0  0  0
   59.6527   33.4319   49.5237 H   0  0  0  0  0  0  0  0  0  0  0  0
   58.6865   35.5079   48.6917 H   0  0  0  0  0  0  0  0  0  0  0  0
   59.1004   36.2192   46.3344 H   0  0  0  0  0  0  0  0  0  0  0  0
   60.5043   34.7833   44.8575 H   0  0  0  0  0  0  0  0  0  0  0  0
   61.4730   32.6731   45.7443 H   0  0  0  0  0  0  0  0  0  0  0  0
   58.9500   29.1170   46.0350 H   0  0  0  0  0  0  0  0  0  0  0  0
   57.9188   28.2405   43.5351 H   0  0  0  0  0  0  0  0  0  0  0  0
   56.1945   28.5828   43.2481 H   0  0  0  0  0  0  0  0  0  0  0  0
   57.3764   30.5790   41.8855 H   0  0  0  0  0  0  0  0  0  0  0  0
   57.8584   33.0010   42.0993 H   0  0  0  0  0  0  0  0  0  0  0  0
   58.0838   34.0406   44.3664 H   0  0  0  0  0  0  0  0  0  0  0  0
   57.8257   32.6252   46.3872 H   0  0  0  0  0  0  0  0  0  0  0  0
   57.3430   30.2073   46.1707 H   0  0  0  0  0  0  0  0  0  0  0  0
   56.1230   26.1450   46.2050 H   0  0  0  0  0  0  0  0  0  0  0  0
  1  2  1  0
  2  3  1  0
  3  4  2  0
  4  5  1  0
  5  6  2  0
  6  7  1  0
  7  8  2  0
  8  9  1  0
  9 10  1  0
 10 11  2  0
 11 12  1  0
 12 13  2  0
 13 14  1  0
 14 15  1  0
 15 16  1  0
 16 17  2  0
 16 18  1  0
 18 19  1  0
 19 20  2  0
 20 21  1  0
 21 22  2  0
 22 23  1  0
 23 24  2  0
 13 25  1  0
 25 26  1  0
 26 27  2  0
 27 28  1  0
 28 29  1  0
 29 30  2  0
 30 31  1  0
 31 32  2  0
 32 33  1  0
 33 34  2  0
 26 35  1  0
  8  3  1  0
 35 11  1  0
 24 19  1  0
 34 29  1  0
  1 36  1  0
  1 37  1  0
  1 38  1  0
  4 39  1  0
  5 40  1  0
  6 41  1  0
  7 42  1  0
  9 43  1  0
  9 44  1  0
 12 45  1  0
 15 46  1  0
 15 47  1  0
 18 48  1  0
 20 49  1  0
 21 50  1  0
 22 51  1  0
 23 52  1  0
 24 53  1  0
 25 54  1  0
 28 55  1  0
 28 56  1  0
 30 57  1  0
 31 58  1  0
 32 59  1  0
 33 60  1  0
 34 61  1  0
 35 62  1  0
M  END
>  <smiles>  (79) 
COc1ccccc1CN=c1cc(OCC(=O)Nc2ccccc2)[nH]c(=NCc2ccccc2)[nH]1

>  <score_type>  (79) 
oracle

>  <origin>  (79) 
adg

>  <m_score__min__energy>  (79) 
-10.27

>  <m_primary>  (79) 
energy

$$$$
79:0
     RDKit          3D

 35 36  0  0  0  0  0  0  0  0999 V2000
   57.9840   25.9420   46.0830 C   0  0  0  0  0  0  0  0  0  0  0  0
   57.2750   27.1640   45.5900 C   0  0  0  0  0  0  0  0  0  0  0  0
   55.9190   27.3980   45.6360 C   0  0  0  0  0  0  0  0  0  0  0  0
   54.9670   26.4910   46.0850 O   0  0  0  0  0  0  0  0  0  0  0  0
   55.6100   28.6330   45.2020 N   0  0  0  0  0  0  0  0  0  0  0  0
   56.7870   29.2080   44.8710 C   0  0  0  0  0  0  0  0  0  0  0  0
   56.8500   30.5950   44.3690 C   0  0  0  0  0  0  0  0  0  0  0  0
   55.8330   31.3300   44.4880 O   0  0  0  0  0  0  0  0  0  0  0  0
   58.0160   31.0980   43.7000 N   0  0  0  0  0  0  0  0  0  0  0  0
   58.1770   32.5100   43.3460 C   0  0  0  0  0  0  0  0  0  0  0  0
   57.4420   33.4310   44.3300 C   0  0  0  0  0  0  0  0  0  0  0  0
   58.2470   33.6850   45.5800 C   0  0  0  0  0  0  0  0  0  0  0  0
   58.0640   32.8830   46.7190 C   0  0  0  0  0  0  0  0  0  0  0  0
   58.8280   33.1050   47.8690 C   0  0  0  0  0  0  0  0  0  0  0  0
   59.7810   34.1280   47.8890 C   0  0  0  0  0  0  0  0  0  0  0  0
   59.9670   34.9320   46.7610 C   0  0  0  0  0  0  0  0  0  0  0  0
   59.2030   34.7150   45.6100 C   0  0  0  0  0  0  0  0  0  0  0  0
   57.8480   28.3350   45.1250 C   0  0  0  0  0  0  0  0  0  0  0  0
   59.3230   28.5890   45.0010 C   0  0  0  0  0  0  0  0  0  0  0  0
   59.8610   29.7050   46.2800 Cl  0  0  0  0  0  0  0  0  0  0  0  0
   57.9863   25.9381   47.1830 H   0  0  0  0  0  0  0  0  0  0  0  0
   57.4666   25.0441   45.7142 H   0  0  0  0  0  0  0  0  0  0  0  0
   59.0203   25.9455   45.7142 H   0  0  0  0  0  0  0  0  0  0  0  0
   58.7360   30.4270   43.3530 H   0  0  0  0  0  0  0  0  0  0  0  0
   59.2482   32.7599   43.3564 H   0  0  0  0  0  0  0  0  0  0  0  0
   57.7453   32.6635   42.3459 H   0  0  0  0  0  0  0  0  0  0  0  0
   57.2435   34.3928   43.8346 H   0  0  0  0  0  0  0  0  0  0  0  0
   56.5066   32.9331   44.6252 H   0  0  0  0  0  0  0  0  0  0  0  0
   57.3161   32.0765   46.7061 H   0  0  0  0  0  0  0  0  0  0  0  0
   58.6792   32.4747   48.7581 H   0  0  0  0  0  0  0  0  0  0  0  0
   60.3843   34.3000   48.7925 H   0  0  0  0  0  0  0  0  0  0  0  0
   60.7161   35.7373   46.7786 H   0  0  0  0  0  0  0  0  0  0  0  0
   59.3506   35.3522   44.7256 H   0  0  0  0  0  0  0  0  0  0  0  0
   59.8655   27.6369   45.0969 H   0  0  0  0  0  0  0  0  0  0  0  0
   59.5295   29.0400   44.0192 H   0  0  0  0  0  0  0  0  0  0  0  0
  1  2  1  0
  2  3  2  0
  3  4  1  0
  3  5  1  0
  5  6  1  0
  6  7  1  0
  7  8  2  0
  7  9  1  0
  9 10  1  0
 10 11  1  0
 11 12  1  0
 12 13  2  0
 13 14  1  0
 14 15  2  0
 15 16  1  0
 16 17  2  0
  6 18  2  0
 18 19  1  0
 19 20  1  0
 18  2  1  0
 17 12  1  0
  1 21  1  0
  1 22  1  0
  1 23  1  0
  9 24  1  0
 10 25  1  0
 10 26  1  0
 11 27  1  0
 11 28  1  0
 13 29  1  0
 14 30  1  0
 15 31  1  0
 16 32  1  0
 17 33  1  0
 19 34  1  0
 19 35  1  0
M  CHG  2   4  -1   5  -1
M  END
>  <UniqueID>  (80) 
70

>  <SMILES>  (80) 
Cc1c([O-])[n-]c(C(=O)NCCc2ccccc2)c1CCl

>  <Energy>  (80) 
55.674838756045425

>  <Genealogy>  (80) 
Cc1c([O-])[n-]c(C(=O)NCCc2ccccc2)c1CCl (protonated)
Cc1c([O-])[n-]c(C(=O)NCCc2ccccc2)c1CCl (3D coordinates assigned)
Cc1c([O-])[n-]c(C(=O)NCCc2ccccc2)c1CCl (optimized conformer: 55.674838756045425 kcal/mol)

>  <smiles>  (80) 
Cc1c(O)[nH]c(C(=O)NCCc2ccccc2)c1CCl

>  <score_type>  (80) 
oracle

>  <origin>  (80) 
adg

>  <m_score__min__energy>  (80) 
-13.779999999999999

>  <m_primary>  (80) 
energy

$$$$
80:0
     RDKit          3D

 36 38  0  0  0  0  0  0  0  0999 V2000
   61.4980   28.6340   44.5070 C   0  0  0  0  0  0  0  0  0  0  0  0
   60.4940   29.2580   45.3660 N   0  0  0  0  0  0  0  0  0  0  0  0
   60.9460   30.0920   46.4780 C   0  0  0  0  0  0  0  0  0  0  0  0
   59.1780   28.6880   45.4220 C   0  0  0  0  0  0  0  0  0  0  0  0
   58.9910   27.4500   46.0760 C   0  0  0  0  0  0  0  0  0  0  0  0
   57.7080   26.9190   46.1050 C   0  0  0  0  0  0  0  0  0  0  0  0
   57.2910   25.7700   46.6600 N   0  0  0  0  0  0  0  0  0  0  0  0
   55.9660   25.7650   46.3800 C   0  0  0  0  0  0  0  0  0  0  0  0
   55.1890   24.8380   46.7320 O   0  0  0  0  0  0  0  0  0  0  0  0
   55.5690   26.8270   45.7000 O   0  0  0  0  0  0  0  0  0  0  0  0
   56.6480   27.5490   45.5260 C   0  0  0  0  0  0  0  0  0  0  0  0
   56.7830   28.7670   44.8680 C   0  0  0  0  0  0  0  0  0  0  0  0
   58.0690   29.3560   44.8170 C   0  0  0  0  0  0  0  0  0  0  0  0
   58.2510   30.6540   44.0660 C   0  0  0  0  0  0  0  0  0  0  0  0
   58.1470   31.8320   44.9980 C   0  0  0  0  0  0  0  0  0  0  0  0
   57.9900   33.1330   44.4920 C   0  0  0  0  0  0  0  0  0  0  0  0
   57.8720   34.2190   45.3640 C   0  0  0  0  0  0  0  0  0  0  0  0
   57.9150   34.0170   46.7450 C   0  0  0  0  0  0  0  0  0  0  0  0
   58.0780   32.7270   47.2580 C   0  0  0  0  0  0  0  0  0  0  0  0
   58.1940   31.6380   46.3900 C   0  0  0  0  0  0  0  0  0  0  0  0
   62.2677   28.1556   45.1304 H   0  0  0  0  0  0  0  0  0  0  0  0
   61.0169   27.8755   43.8720 H   0  0  0  0  0  0  0  0  0  0  0  0
   61.9651   29.4012   43.8720 H   0  0  0  0  0  0  0  0  0  0  0  0
   60.6834   29.6075   47.4300 H   0  0  0  0  0  0  0  0  0  0  0  0
   62.0370   30.2201   46.4204 H   0  0  0  0  0  0  0  0  0  0  0  0
   60.4577   31.0760   46.4204 H   0  0  0  0  0  0  0  0  0  0  0  0
   59.8342   26.9236   46.5470 H   0  0  0  0  0  0  0  0  0  0  0  0
   57.8490   25.0560   47.1780 H   0  0  0  0  0  0  0  0  0  0  0  0
   55.9163   29.2578   44.4012 H   0  0  0  0  0  0  0  0  0  0  0  0
   59.2422   30.6584   43.5890 H   0  0  0  0  0  0  0  0  0  0  0  0
   57.4593   30.7351   43.3066 H   0  0  0  0  0  0  0  0  0  0  0  0
   57.9598   33.2978   43.4048 H   0  0  0  0  0  0  0  0  0  0  0  0
   57.7450   35.2348   44.9615 H   0  0  0  0  0  0  0  0  0  0  0  0
   57.8206   34.8731   47.4292 H   0  0  0  0  0  0  0  0  0  0  0  0
   58.1150   32.5689   48.3460 H   0  0  0  0  0  0  0  0  0  0  0  0
   58.3227   30.6244   46.7975 H   0  0  0  0  0  0  0  0  0  0  0  0
  1  2  1  0
  2  3  1  0
  2  4  1  0
  4  5  2  0
  5  6  1  0
  6  7  1  0
  7  8  1  0
  8  9  2  0
  8 10  1  0
 10 11  1  0
 11 12  1  0
 12 13  2  0
 13 14  1  0
 14 15  1  0
 15 16  2  0
 16 17  1  0
 17 18  2  0
 18 19  1  0
 19 20  2  0
 13  4  1  0
 20 15  1  0
 11  6  2  0
  1 21  1  0
  1 22  1  0
  1 23  1  0
  3 24  1  0
  3 25  1  0
  3 26  1  0
  5 27  1  0
  7 28  1  0
 12 29  1  0
 14 30  1  0
 14 31  1  0
 16 32  1  0
 17 33  1  0
 18 34  1  0
 19 35  1  0
 20 36  1  0
M  END
>  <UniqueID>  (81) 
71

>  <SMILES>  (81) 
CN(C)c1cc2[nH]c(=O)oc2cc1Cc1ccccc1

>  <Energy>  (81) 
80.36991201742484

>  <Genealogy>  (81) 
CN(C)c1cc2[nH]c(=O)oc2cc1Cc1ccccc1 (3D coordinates assigned)
CN(C)c1cc2[nH]c(=O)oc2cc1Cc1ccccc1 (optimized conformer: 80.36991201742484 kcal/mol)

>  <smiles>  (81) 
CN(C)c1cc2[nH]c(=O)oc2cc1Cc1ccccc1

>  <score_type>  (81) 
oracle

>  <origin>  (81) 
adg

>  <m_score__min__energy>  (81) 
-6.6600000000000001

>  <m_primary>  (81) 
energy

$$$$
81:0
     RDKit          3D

 41 43  0  0  0  0  0  0  0  0999 V2000
   58.7700   26.9430   44.5500 O   0  0  0  0  0  0  0  0  0  0  0  0
   58.0600   27.9480   44.8170 C   0  0  0  0  0  0  0  0  0  0  0  0
   57.5220   28.7230   43.7410 N   0  0  0  0  0  0  0  0  0  0  0  0
   56.7090   30.2370   43.9660 S   0  0  0  0  0  0  0  0  0  0  0  0
   55.5040   30.0180   44.8380 O   0  0  0  0  0  0  0  0  0  0  0  0
   56.2650   30.7670   42.6320 O   0  0  0  0  0  0  0  0  0  0  0  0
   57.8000   31.4080   44.7060 C   0  0  0  0  0  0  0  0  0  0  0  0
   57.6360   32.7790   44.4740 C   0  0  0  0  0  0  0  0  0  0  0  0
   58.4610   33.7050   45.1190 C   0  0  0  0  0  0  0  0  0  0  0  0
   59.4460   33.2720   46.0140 C   0  0  0  0  0  0  0  0  0  0  0  0
   60.2450   34.2280   46.6570 O   0  0  0  0  0  0  0  0  0  0  0  0
   61.3930   33.9410   47.4090 C   0  0  0  0  0  0  0  0  0  0  0  0
   62.5510   33.5260   46.7390 C   0  0  0  0  0  0  0  0  0  0  0  0
   63.7200   33.2440   47.4560 C   0  0  0  0  0  0  0  0  0  0  0  0
   63.7410   33.3890   48.8470 C   0  0  0  0  0  0  0  0  0  0  0  0
   65.2060   33.0370   49.7450 Cl  0  0  0  0  0  0  0  0  0  0  0  0
   62.5950   33.8230   49.5200 C   0  0  0  0  0  0  0  0  0  0  0  0
   61.4260   34.1050   48.8060 C   0  0  0  0  0  0  0  0  0  0  0  0
   59.6320   31.8940   46.2190 C   0  0  0  0  0  0  0  0  0  0  0  0
   58.8140   30.9680   45.5680 C   0  0  0  0  0  0  0  0  0  0  0  0
   57.7820   28.2910   46.1820 N   0  0  0  0  0  0  0  0  0  0  0  0
   58.7240   28.1320   47.2570 C   0  0  0  0  0  0  0  0  0  0  0  0
   58.9080   29.1330   48.2320 C   0  0  0  0  0  0  0  0  0  0  0  0
   59.8110   28.9390   49.2820 C   0  0  0  0  0  0  0  0  0  0  0  0
   60.5270   27.7440   49.3780 C   0  0  0  0  0  0  0  0  0  0  0  0
   60.3340   26.7360   48.4310 C   0  0  0  0  0  0  0  0  0  0  0  0
   59.4340   26.9260   47.3780 C   0  0  0  0  0  0  0  0  0  0  0  0
   56.8556   33.1285   43.7821 H   0  0  0  0  0  0  0  0  0  0  0  0
   58.3353   34.7799   44.9220 H   0  0  0  0  0  0  0  0  0  0  0  0
   62.5419   33.4211   45.6440 H   0  0  0  0  0  0  0  0  0  0  0  0
   64.6228   32.9081   46.9249 H   0  0  0  0  0  0  0  0  0  0  0  0
   62.6128   33.9429   50.6133 H   0  0  0  0  0  0  0  0  0  0  0  0
   60.5296   34.4561   49.3382 H   0  0  0  0  0  0  0  0  0  0  0  0
   60.4255   31.5433   46.8953 H   0  0  0  0  0  0  0  0  0  0  0  0
   58.9658   29.8909   45.7321 H   0  0  0  0  0  0  0  0  0  0  0  0
   56.8380   28.6780   46.4060 H   0  0  0  0  0  0  0  0  0  0  0  0
   58.3383   30.0717   48.1667 H   0  0  0  0  0  0  0  0  0  0  0  0
   59.9575   29.7289   50.0334 H   0  0  0  0  0  0  0  0  0  0  0  0
   61.2432   27.5966   50.1998 H   0  0  0  0  0  0  0  0  0  0  0  0
   60.8909   25.7910   48.5136 H   0  0  0  0  0  0  0  0  0  0  0  0
   59.2809   26.1255   46.6392 H   0  0  0  0  0  0  0  0  0  0  0  0
  1  2  2  0
  2  3  1  0
  3  4  1  0
  4  5  2  0
  4  6  2  0
  4  7  1  0
  7  8  2  0
  8  9  1  0
  9 10  2  0
 10 11  1  0
 11 12  1  0
 12 13  2  0
 13 14  1  0
 14 15  2  0
 15 16  1  0
 15 17  1  0
 17 18  2  0
 10 19  1  0
 19 20  2  0
  2 21  1  0
 21 22  1  0
 22 23  2  0
 23 24  1  0
 24 25  2  0
 25 26  1  0
 26 27  2  0
 20  7  1  0
 27 22  1  0
 18 12  1  0
  8 28  1  0
  9 29  1  0
 13 30  1  0
 14 31  1  0
 17 32  1  0
 18 33  1  0
 19 34  1  0
 20 35  1  0
 21 36  1  0
 23 37  1  0
 24 38  1  0
 25 39  1  0
 26 40  1  0
 27 41  1  0
M  CHG  1   3  -1
M  END
>  <UniqueID>  (82) 
72

>  <SMILES>  (82) 
O=C([N-]S(=O)(=O)c1ccc(Oc2ccc(Cl)cc2)cc1)Nc1ccccc1

>  <Energy>  (82) 
52.32719062880424

>  <Genealogy>  (82) 
O=C([N-]S(=O)(=O)c1ccc(Oc2ccc(Cl)cc2)cc1)Nc1ccccc1 (protonated)
O=C([N-]S(=O)(=O)c1ccc(Oc2ccc(Cl)cc2)cc1)Nc1ccccc1 (3D coordinates assigned)
O=C([N-]S(=O)(=O)c1ccc(Oc2ccc(Cl)cc2)cc1)Nc1ccccc1 (optimized conformer: 52.32719062880424 kcal/mol)

>  <smiles>  (82) 
O=C(Nc1ccccc1)NS(=O)(=O)c1ccc(Oc2ccc(Cl)cc2)cc1

>  <score_type>  (82) 
oracle

>  <origin>  (82) 
adg

>  <m_score__min__energy>  (82) 
-10.76

>  <m_primary>  (82) 
energy

$$$$
82:0
     RDKit          3D

 38 39  0  0  0  0  0  0  0  0999 V2000
   60.1310   30.0560   45.9930 C   0  0  0  0  0  0  0  0  0  0  0  0
   59.4920   29.3760   44.7800 C   0  0  0  0  0  0  0  0  0  0  0  0
   58.0370   29.5810   44.7770 N   0  0  0  0  0  0  0  0  0  0  0  0
   57.3580   30.6570   44.3280 C   0  0  0  0  0  0  0  0  0  0  0  0
   58.1100   32.1470   43.6630 S   0  0  0  0  0  0  0  0  0  0  0  0
   57.3790   33.2660   44.9110 C   0  0  0  0  0  0  0  0  0  0  0  0
   58.1530   33.2150   46.2030 C   0  0  0  0  0  0  0  0  0  0  0  0
   57.7610   32.4100   47.0950 O   0  0  0  0  0  0  0  0  0  0  0  0
   59.3180   34.0540   46.4450 N   0  0  0  0  0  0  0  0  0  0  0  0
   59.5840   35.2350   45.6260 C   0  0  0  0  0  0  0  0  0  0  0  0
   60.2150   33.7430   47.5670 C   0  0  0  0  0  0  0  0  0  0  0  0
   56.0260   30.5140   44.4950 N   0  0  0  0  0  0  0  0  0  0  0  0
   55.8340   29.3380   45.0750 N   0  0  0  0  0  0  0  0  0  0  0  0
   57.0490   28.7720   45.2360 C   0  0  0  0  0  0  0  0  0  0  0  0
   57.2340   27.4720   45.9120 C   0  0  0  0  0  0  0  0  0  0  0  0
   56.2800   26.4540   45.7220 C   0  0  0  0  0  0  0  0  0  0  0  0
   56.4480   25.2080   46.3340 C   0  0  0  0  0  0  0  0  0  0  0  0
   57.5780   24.9630   47.1260 C   0  0  0  0  0  0  0  0  0  0  0  0
   57.7470   23.7220   47.7290 O   0  0  0  0  0  0  0  0  0  0  0  0
   58.5390   25.9650   47.3050 C   0  0  0  0  0  0  0  0  0  0  0  0
   58.3720   27.2140   46.6980 C   0  0  0  0  0  0  0  0  0  0  0  0
   59.7212   29.6199   46.9160 H   0  0  0  0  0  0  0  0  0  0  0  0
   61.2201   29.9034   45.9675 H   0  0  0  0  0  0  0  0  0  0  0  0
   59.9110   31.1335   45.9675 H   0  0  0  0  0  0  0  0  0  0  0  0
   59.9188   29.8026   43.8603 H   0  0  0  0  0  0  0  0  0  0  0  0
   59.6972   28.2965   44.8306 H   0  0  0  0  0  0  0  0  0  0  0  0
   57.3938   34.2954   44.5235 H   0  0  0  0  0  0  0  0  0  0  0  0
   56.3463   32.9428   45.1087 H   0  0  0  0  0  0  0  0  0  0  0  0
   59.7784   36.0982   46.2795 H   0  0  0  0  0  0  0  0  0  0  0  0
   60.4631   35.0505   44.9910 H   0  0  0  0  0  0  0  0  0  0  0  0
   58.7107   35.4452   44.9910 H   0  0  0  0  0  0  0  0  0  0  0  0
   59.6908   33.9248   48.5168 H   0  0  0  0  0  0  0  0  0  0  0  0
   60.5186   32.6872   47.5120 H   0  0  0  0  0  0  0  0  0  0  0  0
   61.1070   34.3843   47.5120 H   0  0  0  0  0  0  0  0  0  0  0  0
   55.3992   26.6396   45.0897 H   0  0  0  0  0  0  0  0  0  0  0  0
   55.6933   24.4201   46.1938 H   0  0  0  0  0  0  0  0  0  0  0  0
   59.4270   25.7698   47.9241 H   0  0  0  0  0  0  0  0  0  0  0  0
   59.1325   27.9967   46.8355 H   0  0  0  0  0  0  0  0  0  0  0  0
  1  2  1  0
  2  3  1  0
  3  4  1  0
  4  5  1  0
  5  6  1  0
  6  7  1  0
  7  8  2  0
  7  9  1  0
  9 10  1  0
  9 11  1  0
  4 12  2  0
 12 13  1  0
 13 14  2  0
 14 15  1  0
 15 16  2  0
 16 17  1  0
 17 18  2  0
 18 19  1  0
 18 20  1  0
 20 21  2  0
 14  3  1  0
 21 15  1  0
  1 22  1  0
  1 23  1  0
  1 24  1  0
  2 25  1  0
  2 26  1  0
  6 27  1  0
  6 28  1  0
 10 29  1  0
 10 30  1  0
 10 31  1  0
 11 32  1  0
 11 33  1  0
 11 34  1  0
 16 35  1  0
 17 36  1  0
 20 37  1  0
 21 38  1  0
M  CHG  1  19  -1
M  END
>  <UniqueID>  (83) 
73

>  <SMILES>  (83) 
CCn1c(SCC(=O)N(C)C)nnc1-c1ccc([O-])cc1

>  <Energy>  (83) 
70.79346826701754

>  <Genealogy>  (83) 
CCn1c(SCC(=O)N(C)C)nnc1-c1ccc([O-])cc1 (protonated)
CCn1c(SCC(=O)N(C)C)nnc1-c1ccc([O-])cc1 (3D coordinates assigned)
CCn1c(SCC(=O)N(C)C)nnc1-c1ccc([O-])cc1 (optimized conformer: 70.79346826701754 kcal/mol)

>  <smiles>  (83) 
CCn1c(SCC(=O)N(C)C)nnc1-c1ccc(O)cc1

>  <score_type>  (83) 
oracle

>  <origin>  (83) 
adg

>  <m_score__min__energy>  (83) 
-9.1099999999999994

>  <m_primary>  (83) 
energy

$$$$
83:0
     RDKit          3D

 33 34  0  0  0  0  0  0  0  0999 V2000
   59.7430   27.7760   47.8520 N   0  0  0  0  0  0  0  0  0  0  0  0
   59.0500   29.0190   48.1840 C   0  0  0  0  0  0  0  0  0  0  0  0
   59.9630   30.2320   47.9740 C   0  0  0  0  0  0  0  0  0  0  0  0
   59.2420   31.3690   47.2790 C   0  0  0  0  0  0  0  0  0  0  0  0
   58.9200   32.5130   48.0320 C   0  0  0  0  0  0  0  0  0  0  0  0
   58.2560   33.5900   47.4440 C   0  0  0  0  0  0  0  0  0  0  0  0
   57.9120   33.5450   46.0940 C   0  0  0  0  0  0  0  0  0  0  0  0
   58.2270   32.4220   45.3280 C   0  0  0  0  0  0  0  0  0  0  0  0
   58.8810   31.3180   45.9080 C   0  0  0  0  0  0  0  0  0  0  0  0
   59.2210   30.1480   45.0630 C   0  0  0  0  0  0  0  0  0  0  0  0
   58.3220   29.3760   44.4330 C   0  0  0  0  0  0  0  0  0  0  0  0
   57.6380   28.2130   45.0450 C   0  0  0  0  0  0  0  0  0  0  0  0
   56.2520   28.2060   45.2810 C   0  0  0  0  0  0  0  0  0  0  0  0
   55.4710   29.3140   44.9580 O   0  0  0  0  0  0  0  0  0  0  0  0
   55.6680   27.1190   45.8480 N   0  0  0  0  0  0  0  0  0  0  0  0
   56.4020   26.0370   46.2140 C   0  0  0  0  0  0  0  0  0  0  0  0
   55.8370   25.0420   46.7350 O   0  0  0  0  0  0  0  0  0  0  0  0
   57.7460   26.0330   46.0260 N   0  0  0  0  0  0  0  0  0  0  0  0
   58.3790   27.0930   45.4590 C   0  0  0  0  0  0  0  0  0  0  0  0
   59.6280   27.0530   45.3010 O   0  0  0  0  0  0  0  0  0  0  0  0
   59.0500   27.1160   47.4310 H   0  0  0  0  0  0  0  0  0  0  0  0
   60.4360   27.9910   47.0990 H   0  0  0  0  0  0  0  0  0  0  0  0
   58.1644   29.1199   47.5394 H   0  0  0  0  0  0  0  0  0  0  0  0
   58.7549   28.9827   49.2430 H   0  0  0  0  0  0  0  0  0  0  0  0
   60.3189   30.5829   48.9539 H   0  0  0  0  0  0  0  0  0  0  0  0
   60.8025   29.9200   47.3353 H   0  0  0  0  0  0  0  0  0  0  0  0
   59.1948   32.5588   49.0961 H   0  0  0  0  0  0  0  0  0  0  0  0
   58.0038   34.4753   48.0462 H   0  0  0  0  0  0  0  0  0  0  0  0
   57.3912   34.3964   45.6316 H   0  0  0  0  0  0  0  0  0  0  0  0
   57.9619   32.3989   44.2607 H   0  0  0  0  0  0  0  0  0  0  0  0
   60.2849   29.8950   44.9441 H   0  0  0  0  0  0  0  0  0  0  0  0
   58.0759   29.6239   43.3899 H   0  0  0  0  0  0  0  0  0  0  0  0
   55.3500   30.0760   45.6140 H   0  0  0  0  0  0  0  0  0  0  0  0
  1  2  1  0
  2  3  1  0
  3  4  1  0
  4  5  2  0
  5  6  1  0
  6  7  2  0
  7  8  1  0
  8  9  2  0
  9 10  1  0
 10 11  2  3
 11 12  1  0
 12 13  2  0
 13 14  1  0
 13 15  1  0
 15 16  1  0
 16 17  2  0
 16 18  1  0
 18 19  1  0
 19 20  2  0
  9  4  1  0
 19 12  1  0
  1 21  1  0
  1 22  1  0
  2 23  1  0
  2 24  1  0
  3 25  1  0
  3 26  1  0
  5 27  1  0
  6 28  1  0
  7 29  1  0
  8 30  1  0
 10 31  1  0
 11 32  1  0
 14 33  1  0
M  CHG  2  15  -1  18  -1
M  END
>  <UniqueID>  (84) 
74

>  <SMILES>  (84) 
NCCc1ccccc1C=Cc1c(O)[n-]c(=O)[n-]c1=O

>  <Energy>  (84) 
43.82672815419153

>  <Genealogy>  (84) 
NCCc1ccccc1C=Cc1c(O)[n-]c(=O)[n-]c1=O (protonated)
NCCc1ccccc1C=Cc1c(O)[n-]c(=O)[n-]c1=O (3D coordinates assigned)
NCCc1ccccc1C=Cc1c(O)[n-]c(=O)[n-]c1=O (optimized conformer: 43.82672815419153 kcal/mol)

>  <smiles>  (84) 
NCCc1ccccc1C=Cc1c(O)[nH]c(=O)[nH]c1=O

>  <score_type>  (84) 
oracle

>  <origin>  (84) 
adg

>  <m_score__min__energy>  (84) 
-11.51

>  <m_primary>  (84) 
energy

$$$$
84:0
     RDKit          3D

 38 40  0  0  0  0  0  0  0  0999 V2000
   55.1710   28.1400   44.9840 H   0  0  0  0  0  0  0  0  0  0  0  0
   55.2600   29.0450   44.5380 O   0  0  0  0  0  0  0  0  0  0  0  0
   56.3050   29.9050   44.8660 C   0  0  0  0  0  0  0  0  0  0  0  0
   56.2830   31.1830   44.4000 N   0  0  0  0  0  0  0  0  0  0  0  0
   57.2490   32.0860   44.7130 C   0  0  0  0  0  0  0  0  0  0  0  0
   57.1780   33.2540   44.2460 O   0  0  0  0  0  0  0  0  0  0  0  0
   58.3150   31.7160   45.5470 C   0  0  0  0  0  0  0  0  0  0  0  0
   59.3210   32.6790   45.9140 N   0  0  0  0  0  0  0  0  0  0  0  0
   59.3290   33.5960   45.4110 H   0  0  0  0  0  0  0  0  0  0  0  0
   60.3070   32.4680   46.9390 C   0  0  0  0  0  0  0  0  0  0  0  0
   59.9870   31.8040   48.1370 C   0  0  0  0  0  0  0  0  0  0  0  0
   58.9597   31.4508   48.3098 H   0  0  0  0  0  0  0  0  0  0  0  0
   60.9690   31.5910   49.1090 C   0  0  0  0  0  0  0  0  0  0  0  0
   60.7095   31.0830   50.0495 H   0  0  0  0  0  0  0  0  0  0  0  0
   62.2790   32.0220   48.8880 C   0  0  0  0  0  0  0  0  0  0  0  0
   63.0493   31.8571   49.6557 H   0  0  0  0  0  0  0  0  0  0  0  0
   62.6110   32.6630   47.6910 C   0  0  0  0  0  0  0  0  0  0  0  0
   63.6435   32.9991   47.5153 H   0  0  0  0  0  0  0  0  0  0  0  0
   61.6310   32.8770   46.7170 C   0  0  0  0  0  0  0  0  0  0  0  0
   61.8995   33.3691   45.7706 H   0  0  0  0  0  0  0  0  0  0  0  0
   58.3440   30.4100   46.0580 C   0  0  0  0  0  0  0  0  0  0  0  0
   59.1469   30.1134   46.7489 H   0  0  0  0  0  0  0  0  0  0  0  0
   57.3600   29.4790   45.6970 C   0  0  0  0  0  0  0  0  0  0  0  0
   57.4490   28.1080   46.2460 C   0  0  0  0  0  0  0  0  0  0  0  0
   57.0919   27.9289   47.2709 H   0  0  0  0  0  0  0  0  0  0  0  0
   57.9440   27.0760   45.5530 C   0  0  0  0  0  0  0  0  0  0  0  0
   58.3473   27.2482   44.5442 H   0  0  0  0  0  0  0  0  0  0  0  0
   57.9600   25.6890   46.1240 C   0  0  0  0  0  0  0  0  0  0  0  0
   58.8524   25.1580   45.7612 H   0  0  0  0  0  0  0  0  0  0  0  0
   57.9797   25.7555   47.2218 H   0  0  0  0  0  0  0  0  0  0  0  0
   56.7340   24.9370   45.7050 C   0  0  0  0  0  0  0  0  0  0  0  0
   56.7420   23.6880   45.2820 O   0  0  0  0  0  0  0  0  0  0  0  0
   55.5070   23.3540   44.9710 C   0  0  0  0  0  0  0  0  0  0  0  0
   55.1360   22.1060   44.4880 O   0  0  0  0  0  0  0  0  0  0  0  0
   54.6570   24.4120   45.1910 C   0  0  0  0  0  0  0  0  0  0  0  0
   53.2850   24.4450   44.9770 O   0  0  0  0  0  0  0  0  0  0  0  0
   55.4440   25.4330   45.6610 C   0  0  0  0  0  0  0  0  0  0  0  0
   55.0270   26.7100   46.0140 O   0  0  0  0  0  0  0  0  0  0  0  0
  1  2  1  0
  2  3  1  0
  3  4  1  0
  4  5  1  0
  5  6  2  0
  5  7  1  0
  7  8  1  0
  8  9  1  0
  8 10  1  0
 10 11  2  0
 11 12  1  0
 11 13  1  0
 13 14  1  0
 13 15  2  0
 15 16  1  0
 15 17  1  0
 17 18  1  0
 17 19  2  0
 19 20  1  0
  7 21  2  0
 21 22  1  0
 21 23  1  0
 23 24  1  0
 24 25  1  0
 24 26  2  0
 26 27  1  0
 26 28  1  0
 28 29  1  0
 28 30  1  0
 28 31  1  0
 31 32  1  0
 32 33  1  0
 33 34  1  0
 33 35  2  0
 35 36  1  0
 35 37  1  0
 37 38  1  0
 23  3  2  0
 37 31  2  0
 19 10  1  0
M  CHG  4   4  -1  34  -1  36  -1  38  -1
M  END
>  <UniqueID>  (85) 
75

>  <SMILES>  (85) 
O=c1[n-]c(O)c(/C=C/Cc2oc([O-])c([O-])c2[O-])cc1Nc1ccccc1

>  <Energy>  (85) 
79.34105840356276

>  <Genealogy>  (85) 
O=c1[n-]c(O)c(C=CCc2oc([O-])c([O-])c2[O-])cc1Nc1ccccc1 (protonated)
O=c1[n-]c(O)c(/C=C/Cc2oc([O-])c([O-])c2[O-])cc1Nc1ccccc1 (cis-trans isomerization)
O=c1[n-]c(O)c(/C=C/Cc2oc([O-])c([O-])c2[O-])cc1Nc1ccccc1 (3D coordinates assigned)
O=c1[n-]c(O)c(/C=C/Cc2oc([O-])c([O-])c2[O-])cc1Nc1ccccc1 (optimized conformer: 79.34105840356276 kcal/mol)

>  <smiles>  (85) 
O=c1[nH]c(O)c(C=CCc2oc(O)c(O)c2O)cc1Nc1ccccc1

>  <score_type>  (85) 
oracle

>  <origin>  (85) 
adg

>  <m_score__min__energy>  (85) 
-17.850000000000001

>  <m_primary>  (85) 
energy

$$$$
85:0
     RDKit          3D

 69 73  0  0  0  0  0  0  0  0999 V2000
   58.5863   25.0147   47.5305 H   0  0  0  0  0  0  0  0  0  0  0  0
   58.3360   25.8920   46.9160 C   0  0  0  0  0  0  0  0  0  0  0  0
   56.7940   26.3510   46.4280 S   0  0  0  0  0  0  0  0  0  0  0  0
   57.3470   27.7100   45.5960 C   0  0  0  0  0  0  0  0  0  0  0  0
   56.6210   28.5360   44.9040 N   0  0  0  0  0  0  0  0  0  0  0  0
   56.7930   29.9580   44.8510 C   0  0  0  0  0  0  0  0  0  0  0  0
   55.8070   30.6780   44.5450 O   0  0  0  0  0  0  0  0  0  0  0  0
   58.0810   30.5530   45.0870 N   0  0  0  0  0  0  0  0  0  0  0  0
   58.8930   29.9350   45.3110 H   0  0  0  0  0  0  0  0  0  0  0  0
   58.2710   31.9700   45.1920 C   0  0  0  0  0  0  0  0  0  0  0  0
   57.4360   32.8210   44.4540 C   0  0  0  0  0  0  0  0  0  0  0  0
   56.6370   32.3953   43.8291 H   0  0  0  0  0  0  0  0  0  0  0  0
   57.6120   34.2060   44.5070 C   0  0  0  0  0  0  0  0  0  0  0  0
   56.9591   34.8662   43.9173 H   0  0  0  0  0  0  0  0  0  0  0  0
   58.6160   34.7520   45.3080 C   0  0  0  0  0  0  0  0  0  0  0  0
   58.7617   35.8419   45.3392 H   0  0  0  0  0  0  0  0  0  0  0  0
   59.4360   33.9170   46.0700 C   0  0  0  0  0  0  0  0  0  0  0  0
   60.2178   34.3538   46.7088 H   0  0  0  0  0  0  0  0  0  0  0  0
   59.2690   32.5230   46.0260 C   0  0  0  0  0  0  0  0  0  0  0  0
   60.0560   31.6850   46.8910 N   0  0  0  0  0  0  0  0  0  0  0  0
   61.2720   32.0550   47.5130 C   0  0  0  0  0  0  0  0  0  0  0  0
   62.1490   33.0410   47.0540 C   0  0  0  0  0  0  0  0  0  0  0  0
   61.8986   33.6473   46.1710 H   0  0  0  0  0  0  0  0  0  0  0  0
   63.3510   33.2420   47.7390 C   0  0  0  0  0  0  0  0  0  0  0  0
   64.0504   34.0218   47.4032 H   0  0  0  0  0  0  0  0  0  0  0  0
   63.6670   32.4510   48.8540 C   0  0  0  0  0  0  0  0  0  0  0  0
   64.8480   32.6510   49.4920 F   0  0  0  0  0  0  0  0  0  0  0  0
   62.7810   31.4530   49.3010 C   0  0  0  0  0  0  0  0  0  0  0  0
   63.2820   30.4630   50.6630 Cl  0  0  0  0  0  0  0  0  0  0  0  0
   61.5600   31.2670   48.6070 C   0  0  0  0  0  0  0  0  0  0  0  0
   60.3860   30.3260   48.8690 C   0  0  0  0  0  0  0  0  0  0  0  0
   59.5470   30.4870   47.5480 C   0  0  0  0  0  0  0  0  0  0  0  0
   58.4795   30.6058   47.7855 H   0  0  0  0  0  0  0  0  0  0  0  0
   59.6411   29.6023   46.9011 H   0  0  0  0  0  0  0  0  0  0  0  0
   60.8210   28.8410   49.0810 C   0  0  0  0  0  0  0  0  0  0  0  0
   60.4974   28.2518   48.2103 H   0  0  0  0  0  0  0  0  0  0  0  0
   61.9148   28.8286   49.1970 H   0  0  0  0  0  0  0  0  0  0  0  0
   60.2140   28.2210   50.3460 C   0  0  0  0  0  0  0  0  0  0  0  0
   59.1222   28.1571   50.2284 H   0  0  0  0  0  0  0  0  0  0  0  0
   60.6425   27.2179   50.4882 H   0  0  0  0  0  0  0  0  0  0  0  0
   60.5260   29.0420   51.5320 N   0  0  0  0  0  0  0  0  0  0  0  0
   60.1270   28.3520   52.7900 C   0  0  0  0  0  0  0  0  0  0  0  0
   60.1024   29.0874   53.6077 H   0  0  0  0  0  0  0  0  0  0  0  0
   59.1353   27.9021   52.6350 H   0  0  0  0  0  0  0  0  0  0  0  0
   61.1200   27.2190   53.1620 C   0  0  0  0  0  0  0  0  0  0  0  0
   61.2000   27.1120   54.6990 C   0  0  0  0  0  0  0  0  0  0  0  0
   60.6003   27.9140   55.1541 H   0  0  0  0  0  0  0  0  0  0  0  0
   60.8090   26.1350   55.0194 H   0  0  0  0  0  0  0  0  0  0  0  0
   62.2477   27.2106   55.0194 H   0  0  0  0  0  0  0  0  0  0  0  0
   60.6310   25.8700   52.5960 C   0  0  0  0  0  0  0  0  0  0  0  0
   60.3851   25.1916   53.4262 H   0  0  0  0  0  0  0  0  0  0  0  0
   59.7352   26.0343   51.9791 H   0  0  0  0  0  0  0  0  0  0  0  0
   61.4240   25.4221   51.9791 H   0  0  0  0  0  0  0  0  0  0  0  0
   62.5280   27.5310   52.6180 C   0  0  0  0  0  0  0  0  0  0  0  0
   63.2203   27.6844   53.4589 H   0  0  0  0  0  0  0  0  0  0  0  0
   62.8786   26.6888   52.0034 H   0  0  0  0  0  0  0  0  0  0  0  0
   62.4900   28.4425   52.0034 H   0  0  0  0  0  0  0  0  0  0  0  0
   60.0320   30.4460   51.4450 C   0  0  0  0  0  0  0  0  0  0  0  0
   59.2057   30.5649   52.1613 H   0  0  0  0  0  0  0  0  0  0  0  0
   60.8910   31.0954   51.6695 H   0  0  0  0  0  0  0  0  0  0  0  0
   59.5240   30.8560   50.0520 C   0  0  0  0  0  0  0  0  0  0  0  0
   58.5011   30.4697   49.9319 H   0  0  0  0  0  0  0  0  0  0  0  0
   59.5767   31.9539   50.0103 H   0  0  0  0  0  0  0  0  0  0  0  0
   58.6910   27.8190   45.6610 N   0  0  0  0  0  0  0  0  0  0  0  0
   59.2410   26.8200   46.4040 C   0  0  0  0  0  0  0  0  0  0  0  0
   60.7150   26.7090   46.6120 C   0  0  0  0  0  0  0  0  0  0  0  0
   60.9330   26.6926   47.6901 H   0  0  0  0  0  0  0  0  0  0  0  0
   61.0817   25.7807   46.1496 H   0  0  0  0  0  0  0  0  0  0  0  0
   61.2166   27.5719   46.1496 H   0  0  0  0  0  0  0  0  0  0  0  0
  1  2  1  0
  2  3  1  0
  3  4  1  0
  4  5  2  0
  5  6  1  0
  6  7  2  0
  6  8  1  0
  8  9  1  0
  8 10  1  0
 10 11  2  0
 11 12  1  0
 11 13  1  0
 13 14  1  0
 13 15  2  0
 15 16  1  0
 15 17  1  0
 17 18  1  0
 17 19  2  0
 19 20  1  0
 20 21  1  0
 21 22  2  0
 22 23  1  0
 22 24  1  0
 24 25  1  0
 24 26  2  0
 26 27  1  0
 26 28  1  0
 28 29  1  0
 28 30  2  0
 30 31  1  0
 31 32  1  0
 32 33  1  0
 32 34  1  0
 31 35  1  0
 35 36  1  0
 35 37  1  0
 35 38  1  0
 38 39  1  0
 38 40  1  0
 38 41  1  0
 41 42  1  0
 42 43  1  0
 42 44  1  0
 42 45  1  0
 45 46  1  0
 46 47  1  0
 46 48  1  0
 46 49  1  0
 45 50  1  0
 50 51  1  0
 50 52  1  0
 50 53  1  0
 45 54  1  0
 54 55  1  0
 54 56  1  0
 54 57  1  0
 41 58  1  0
 58 59  1  0
 58 60  1  0
 58 61  1  0
 61 62  1  0
 61 63  1  0
  4 64  1  0
 64 65  1  0
 65 66  1  0
 66 67  1  0
 66 68  1  0
 66 69  1  0
 65  2  2  0
 19 10  1  0
 32 20  1  0
 30 21  1  0
 61 31  1  0
M  CHG  1  64  -1
M  END
>  <UniqueID>  (86) 
76

>  <SMILES>  (86) 
Cc1cs/c(=N\C(=O)Nc2ccccc2N2CC3(CCN(CC(C)(C)C)CC3)c3c2ccc(F)c3Cl)[n-]1

>  <Energy>  (86) 
147.8308313914374

>  <Genealogy>  (86) 
Cc1csc(=NC(=O)Nc2ccccc2N2CC3(CCN(CC(C)(C)C)CC3)c3c2ccc(F)c3Cl)[n-]1 (protonated)
Cc1cs/c(=N\C(=O)Nc2ccccc2N2CC3(CCN(CC(C)(C)C)CC3)c3c2ccc(F)c3Cl)[n-]1 (cis-trans isomerization)
Cc1cs/c(=N\C(=O)Nc2ccccc2N2CC3(CCN(CC(C)(C)C)CC3)c3c2ccc(F)c3Cl)[n-]1 (3D coordinates assigned)
Cc1cs/c(=N\C(=O)Nc2ccccc2N2CC3(CCN(CC(C)(C)C)CC3)c3c2ccc(F)c3Cl)[n-]1 (nonaromatic ring conformer: 147.8308313914374 kcal/mol)

>  <smiles>  (86) 
Cc1csc(=NC(=O)Nc2ccccc2N2CC3(CCN(CC(C)(C)C)CC3)c3c2ccc(F)c3Cl)[nH]1

>  <score_type>  (86) 
oracle

>  <origin>  (86) 
adg

>  <m_score__min__energy>  (86) 
-12.31

>  <m_primary>  (86) 
energy

$$$$
86:0
     RDKit          3D

 40 42  0  0  1  0  0  0  0  0999 V2000
   55.6690   29.1210   45.0690 N   0  0  0  0  0  0  0  0  0  0  0  0
   56.7650   29.3030   43.7330 S   0  0  0  0  0  0  0  0  0  0  0  0
   57.7810   28.2070   43.8480 O   0  0  0  0  0  0  0  0  0  0  0  0
   55.9410   29.0330   42.4980 O   0  0  0  0  0  0  0  0  0  0  0  0
   57.4480   30.8930   43.7200 C   0  0  0  0  0  0  0  0  0  0  0  0
   57.7060   31.5620   42.5350 C   0  0  0  0  0  0  0  0  0  0  0  0
   58.2490   32.8250   42.5660 C   0  0  0  0  0  0  0  0  0  0  0  0
   58.5640   33.4910   43.7320 C   0  0  0  0  0  0  0  0  0  0  0  0
   58.3020   32.8110   44.9160 C   0  0  0  0  0  0  0  0  0  0  0  0
   57.7550   31.5370   44.9240 C   0  0  0  0  0  0  0  0  0  0  0  0
   59.2860   26.6150   46.6190 N   0  0  0  0  0  0  0  0  0  0  0  0
   59.2840   27.8700   46.8880 C   0  0  0  0  0  0  0  0  0  0  0  0
   58.3650   28.7010   46.3590 N   0  0  0  0  0  0  0  0  0  0  0  0
   58.3490   30.0330   46.6340 C   0  0  0  0  0  0  0  0  0  0  0  0
   57.4810   30.8310   46.1360 N   0  0  0  0  0  0  0  0  0  0  0  0
   58.1280   26.0090   46.0540 C   0  0  0  0  0  0  0  0  0  0  0  0
   58.3140   24.9050   45.2460 C   0  0  0  0  0  0  0  0  0  0  0  0
   57.2810   24.2280   44.6410 C   0  0  0  0  0  0  0  0  0  0  0  0
   56.0050   24.6950   44.8690 C   0  0  0  0  0  0  0  0  0  0  0  0
   55.7790   25.8040   45.6780 C   0  0  0  0  0  0  0  0  0  0  0  0
   54.4640   26.2300   45.8720 O   0  0  0  0  0  0  0  0  0  0  0  0
   56.8510   26.4610   46.2720 C   0  0  0  0  0  0  0  0  0  0  0  0
   60.2530   28.3040   47.7330 N   0  0  0  0  0  0  0  0  0  0  0  0
   60.2770   29.6300   48.0410 C   0  0  0  0  0  0  0  0  0  0  0  0
   59.3290   30.4800   47.4910 C   0  0  0  0  0  0  0  0  0  0  0  0
   59.3930   32.3160   47.9390 Br  0  0  0  0  0  0  0  0  0  0  0  0
   56.2310   29.1160   45.9550 H   0  0  0  0  0  0  0  0  0  0  0  0
   55.1720   28.2180   44.9260 H   0  0  0  0  0  0  0  0  0  0  0  0
   57.4770   31.0840   41.5711 H   0  0  0  0  0  0  0  0  0  0  0  0
   58.4426   33.3316   41.6090 H   0  0  0  0  0  0  0  0  0  0  0  0
   58.9975   34.5019   43.7255 H   0  0  0  0  0  0  0  0  0  0  0  0
   58.5355   33.2979   45.8743 H   0  0  0  0  0  0  0  0  0  0  0  0
   57.6420   28.3140   45.7130 H   0  0  0  0  0  0  0  0  0  0  0  0
   59.3410   24.5487   45.0775 H   0  0  0  0  0  0  0  0  0  0  0  0
   57.4656   23.3514   44.0026 H   0  0  0  0  0  0  0  0  0  0  0  0
   55.1504   24.1823   44.4034 H   0  0  0  0  0  0  0  0  0  0  0  0
   54.2610   26.6940   46.7560 H   0  0  0  0  0  0  0  0  0  0  0  0
   56.6763   27.3378   46.9128 H   0  0  0  0  0  0  0  0  0  0  0  0
   60.9520   27.6350   48.1300 H   0  0  0  0  0  0  0  0  0  0  0  0
   61.0445   30.0252   48.7227 H   0  0  0  0  0  0  0  0  0  0  0  0
  1  2  1  0
  2  3  2  0
  2  4  2  0
  2  5  1  0
  5  6  2  0
  6  7  1  0
  7  8  2  0
  8  9  1  0
  9 10  2  0
 10 11  1  0
 11 12  2  0
 12 13  1  0
 13 14  1  0
 14 15  2  0
 15 16  1  0
 16 17  2  0
 17 18  1  0
 18 19  2  0
 19 20  1  0
 20 21  1  0
 20 22  2  0
 14 23  1  0
 23 24  1  0
 24 25  2  0
 25 26  1  0
 10  5  1  0
 25 12  1  0
 22 16  1  0
  1 27  1  0
  1 28  1  0
  6 29  1  0
  7 30  1  0
  8 31  1  0
  9 32  1  0
 13 33  1  0
 17 34  1  0
 18 35  1  0
 19 36  1  0
 21 37  1  0
 22 38  1  0
 23 39  1  0
 24 40  1  0
M  END
>  <smiles>  (87) 
NS(=O)(=O)c1ccccc1N=c1[nH]c(=Nc2cccc(O)c2)[nH]cc1Br

>  <score_type>  (87) 
oracle

>  <origin>  (87) 
adg

>  <m_score__min__energy>  (87) 
-9.4800000000000004

>  <m_primary>  (87) 
energy

$$$$
87:0
     RDKit          3D

 43 46  0  0  0  0  0  0  0  0999 V2000
   54.5070   29.4130   45.1680 H   0  0  0  0  0  0  0  0  0  0  0  0
   55.4770   29.1200   44.9150 N   0  0  0  0  0  0  0  0  0  0  0  0
   56.3990   30.0460   44.3430 C   0  0  0  0  0  0  0  0  0  0  0  0
   56.1540   30.5360   43.2090 O   0  0  0  0  0  0  0  0  0  0  0  0
   57.5710   30.4830   45.1320 C   0  0  0  0  0  0  0  0  0  0  0  0
   58.2760   29.5120   45.7700 N   0  0  0  0  0  0  0  0  0  0  0  0
   59.3220   29.7880   46.5910 C   0  0  0  0  0  0  0  0  0  0  0  0
   60.0820   28.7070   47.2530 C   0  0  0  0  0  0  0  0  0  0  0  0
   60.6276   28.9665   48.1722 H   0  0  0  0  0  0  0  0  0  0  0  0
   60.1640   27.4350   46.8290 C   0  0  0  0  0  0  0  0  0  0  0  0
   61.0865   26.8819   47.0593 H   0  0  0  0  0  0  0  0  0  0  0  0
   59.1120   26.7220   46.0780 C   0  0  0  0  0  0  0  0  0  0  0  0
   58.8880   26.9910   44.7180 C   0  0  0  0  0  0  0  0  0  0  0  0
   59.5050   27.7385   44.1979 H   0  0  0  0  0  0  0  0  0  0  0  0
   57.8840   26.3120   44.0240 C   0  0  0  0  0  0  0  0  0  0  0  0
   57.7250   26.5123   42.9541 H   0  0  0  0  0  0  0  0  0  0  0  0
   57.0810   25.3790   44.6850 C   0  0  0  0  0  0  0  0  0  0  0  0
   56.2962   24.8421   44.1319 H   0  0  0  0  0  0  0  0  0  0  0  0
   57.2720   25.1240   46.0530 C   0  0  0  0  0  0  0  0  0  0  0  0
   56.3840   24.1390   46.7650 C   0  0  0  0  0  0  0  0  0  0  0  0
   56.8915   23.1644   46.8165 H   0  0  0  0  0  0  0  0  0  0  0  0
   56.1784   24.5113   47.7795 H   0  0  0  0  0  0  0  0  0  0  0  0
   55.1160   23.9860   46.0480 N   0  0  0  0  0  0  0  0  0  0  0  0
   54.2770   24.9480   45.6240 C   0  0  0  0  0  0  0  0  0  0  0  0
   54.4340   26.3130   45.8460 O   0  0  0  0  0  0  0  0  0  0  0  0
   54.3740   26.7120   46.7740 H   0  0  0  0  0  0  0  0  0  0  0  0
   53.2360   24.3710   44.9340 C   0  0  0  0  0  0  0  0  0  0  0  0
   52.3951   24.9131   44.4768 H   0  0  0  0  0  0  0  0  0  0  0  0
   53.4120   23.0330   44.9080 N   0  0  0  0  0  0  0  0  0  0  0  0
   54.5630   22.8430   45.5900 C   0  0  0  0  0  0  0  0  0  0  0  0
   55.0660   21.7030   45.7730 O   0  0  0  0  0  0  0  0  0  0  0  0
   58.2840   25.8080   46.7470 C   0  0  0  0  0  0  0  0  0  0  0  0
   58.4282   25.6258   47.8222 H   0  0  0  0  0  0  0  0  0  0  0  0
   59.7120   31.0740   46.7660 N   0  0  0  0  0  0  0  0  0  0  0  0
   59.0710   32.0970   46.1440 C   0  0  0  0  0  0  0  0  0  0  0  0
   59.5020   33.4180   46.3320 C   0  0  0  0  0  0  0  0  0  0  0  0
   60.4650   33.6720   47.1040 O   0  0  0  0  0  0  0  0  0  0  0  0
   58.8840   34.4340   45.6760 N   0  0  0  0  0  0  0  0  0  0  0  0
   57.8510   34.2120   44.8230 C   0  0  0  0  0  0  0  0  0  0  0  0
   57.3794   35.0590   44.3031 H   0  0  0  0  0  0  0  0  0  0  0  0
   57.3840   32.9150   44.6020 C   0  0  0  0  0  0  0  0  0  0  0  0
   56.5573   32.7376   43.8983 H   0  0  0  0  0  0  0  0  0  0  0  0
   57.9770   31.8340   45.2850 C   0  0  0  0  0  0  0  0  0  0  0  0
  1  2  1  0
  2  3  1  0
  3  4  2  0
  3  5  1  0
  5  6  2  0
  6  7  1  0
  7  8  1  0
  8  9  1  0
  8 10  2  0
 10 11  1  0
 10 12  1  0
 12 13  2  0
 13 14  1  0
 13 15  1  0
 15 16  1  0
 15 17  2  0
 17 18  1  0
 17 19  1  0
 19 20  1  0
 20 21  1  0
 20 22  1  0
 20 23  1  0
 23 24  1  0
 24 25  1  0
 25 26  1  0
 24 27  2  0
 27 28  1  0
 27 29  1  0
 29 30  1  0
 30 31  2  0
 19 32  2  0
 32 33  1  0
  7 34  2  0
 34 35  1  0
 35 36  1  0
 36 37  2  0
 36 38  1  0
 38 39  1  0
 39 40  1  0
 39 41  2  0
 41 42  1  0
 41 43  1  0
 43  5  1  0
 32 12  1  0
 43 35  2  0
 30 23  1  0
M  CHG  3   2  -1  29  -1  38  -1
M  END
>  <UniqueID>  (88) 
77

>  <SMILES>  (88) 
[NH-]C(=O)c1nc(/C=C\c2cccc(Cn3c(O)c[n-]c3=O)c2)nc2c(=O)[n-]ccc12

>  <Energy>  (88) 
95.02632273522259

>  <Genealogy>  (88) 
[NH-]C(=O)c1nc(C=Cc2cccc(Cn3c(O)c[n-]c3=O)c2)nc2c(=O)[n-]ccc12 (protonated)
[NH-]C(=O)c1nc(/C=C\c2cccc(Cn3c(O)c[n-]c3=O)c2)nc2c(=O)[n-]ccc12 (cis-trans isomerization)
[NH-]C(=O)c1nc(/C=C\c2cccc(Cn3c(O)c[n-]c3=O)c2)nc2c(=O)[n-]ccc12 (3D coordinates assigned)
[NH-]C(=O)c1nc(/C=C\c2cccc(Cn3c(O)c[n-]c3=O)c2)nc2c(=O)[n-]ccc12 (optimized conformer: 95.02632273522259 kcal/mol)

>  <smiles>  (88) 
NC(=O)c1nc(C=Cc2cccc(Cn3c(O)c[nH]c3=O)c2)nc2c(=O)[nH]ccc12

>  <score_type>  (88) 
oracle

>  <origin>  (88) 
adg

>  <m_score__min__energy>  (88) 
-15.32

>  <m_primary>  (88) 
energy

$$$$
88:0
     RDKit          3D

 52 56  0  0  0  0  0  0  0  0999 V2000
   56.4956   32.0828   51.2007 H   0  0  0  0  0  0  0  0  0  0  0  0
   56.0380   31.2430   51.7440 C   0  0  0  0  0  0  0  0  0  0  0  0
   54.7170   31.2810   52.0620 N   0  0  0  0  0  0  0  0  0  0  0  0
   54.1040   30.2660   52.7360 C   0  0  0  0  0  0  0  0  0  0  0  0
   52.7030   30.3650   53.0530 N   0  0  0  0  0  0  0  0  0  0  0  0
   51.8930   31.4020   52.4080 C   0  0  0  0  0  0  0  0  0  0  0  0
   52.4969   32.3134   52.2869 H   0  0  0  0  0  0  0  0  0  0  0  0
   51.5613   31.0413   51.4232 H   0  0  0  0  0  0  0  0  0  0  0  0
   50.6660   31.7170   53.2680 C   0  0  0  0  0  0  0  0  0  0  0  0
   50.9935   32.2008   54.2000 H   0  0  0  0  0  0  0  0  0  0  0  0
   50.0014   32.3863   52.7020 H   0  0  0  0  0  0  0  0  0  0  0  0
   49.9560   30.5340   53.5840 O   0  0  0  0  0  0  0  0  0  0  0  0
   50.7590   29.6980   54.3960 C   0  0  0  0  0  0  0  0  0  0  0  0
   51.0856   30.2618   55.2822 H   0  0  0  0  0  0  0  0  0  0  0  0
   50.1649   28.8225   54.6969 H   0  0  0  0  0  0  0  0  0  0  0  0
   51.9920   29.2140   53.6260 C   0  0  0  0  0  0  0  0  0  0  0  0
   52.6624   28.6747   54.3114 H   0  0  0  0  0  0  0  0  0  0  0  0
   51.6738   28.5425   52.8149 H   0  0  0  0  0  0  0  0  0  0  0  0
   54.8620   29.1590   53.1440 C   0  0  0  0  0  0  0  0  0  0  0  0
   54.3891   28.3418   53.7084 H   0  0  0  0  0  0  0  0  0  0  0  0
   56.2210   29.1010   52.8290 C   0  0  0  0  0  0  0  0  0  0  0  0
   56.8218   28.2376   53.1508 H   0  0  0  0  0  0  0  0  0  0  0  0
   56.8200   30.1350   52.1070 C   0  0  0  0  0  0  0  0  0  0  0  0
   58.1900   30.0580   51.8170 O   0  0  0  0  0  0  0  0  0  0  0  0
   58.7570   30.1330   50.5360 C   0  0  0  0  0  0  0  0  0  0  0  0
   58.7690   31.3280   49.8000 C   0  0  0  0  0  0  0  0  0  0  0  0
   58.3530   32.2502   50.2318 H   0  0  0  0  0  0  0  0  0  0  0  0
   59.3130   31.3350   48.5170 C   0  0  0  0  0  0  0  0  0  0  0  0
   59.3286   32.2669   47.9328 H   0  0  0  0  0  0  0  0  0  0  0  0
   59.8240   30.1940   47.9860 N   0  0  0  0  0  0  0  0  0  0  0  0
   59.8360   29.0140   48.6650 C   0  0  0  0  0  0  0  0  0  0  0  0
   60.3390   27.9700   48.0680 N   0  0  0  0  0  0  0  0  0  0  0  0
   59.9790   27.3750   46.8090 C   0  0  0  0  0  0  0  0  0  0  0  0
   60.8420   26.8000   46.0930 O   0  0  0  0  0  0  0  0  0  0  0  0
   58.5810   27.4500   46.3320 C   0  0  0  0  0  0  0  0  0  0  0  0
   57.7200   26.3890   46.6550 C   0  0  0  0  0  0  0  0  0  0  0  0
   58.1084   25.5119   47.1934 H   0  0  0  0  0  0  0  0  0  0  0  0
   56.3730   26.4440   46.2950 C   0  0  0  0  0  0  0  0  0  0  0  0
   55.5990   25.4990   46.6010 O   0  0  0  0  0  0  0  0  0  0  0  0
   55.8920   27.5180   45.6220 N   0  0  0  0  0  0  0  0  0  0  0  0
   56.6880   28.5590   45.2640 C   0  0  0  0  0  0  0  0  0  0  0  0
   56.1400   29.6310   44.5510 C   0  0  0  0  0  0  0  0  0  0  0  0
   55.0661   29.6387   44.3128 H   0  0  0  0  0  0  0  0  0  0  0  0
   56.9500   30.6900   44.1410 C   0  0  0  0  0  0  0  0  0  0  0  0
   56.5120   31.5354   43.5902 H   0  0  0  0  0  0  0  0  0  0  0  0
   58.3160   30.6780   44.4290 C   0  0  0  0  0  0  0  0  0  0  0  0
   58.9539   31.5084   44.0920 H   0  0  0  0  0  0  0  0  0  0  0  0
   58.8770   29.6150   45.1440 C   0  0  0  0  0  0  0  0  0  0  0  0
   59.9563   29.6089   45.3564 H   0  0  0  0  0  0  0  0  0  0  0  0
   58.0680   28.5500   45.5950 C   0  0  0  0  0  0  0  0  0  0  0  0
   59.2740   28.9690   49.9590 C   0  0  0  0  0  0  0  0  0  0  0  0
   59.2428   28.0192   50.5130 H   0  0  0  0  0  0  0  0  0  0  0  0
  1  2  1  0
  2  3  2  0
  3  4  1  0
  4  5  1  0
  5  6  1  0
  6  7  1  0
  6  8  1  0
  6  9  1  0
  9 10  1  0
  9 11  1  0
  9 12  1  0
 12 13  1  0
 13 14  1  0
 13 15  1  0
 13 16  1  0
 16 17  1  0
 16 18  1  0
  4 19  2  0
 19 20  1  0
 19 21  1  0
 21 22  1  0
 21 23  2  0
 23 24  1  0
 24 25  1  0
 25 26  1  0
 26 27  1  0
 26 28  2  0
 28 29  1  0
 28 30  1  0
 30 31  1  0
 31 32  2  0
 32 33  1  0
 33 34  2  0
 33 35  1  0
 35 36  2  0
 36 37  1  0
 36 38  1  0
 38 39  2  0
 38 40  1  0
 40 41  1  0
 41 42  2  0
 42 43  1  0
 42 44  1  0
 44 45  1  0
 44 46  2  0
 46 47  1  0
 46 48  1  0
 48 49  1  0
 48 50  2  0
 31 51  1  0
 51 52  1  0
 23  2  1  0
 51 25  2  0
 16  5  1  0
 50 35  1  0
 50 41  1  0
M  CHG  2  30  -1  40  -1
M  END
>  <UniqueID>  (89) 
78

>  <SMILES>  (89) 
O=C(/N=c1\cc(Oc2ccc(N3CCOCC3)nc2)cc[n-]1)c1cc(=O)[n-]c2ccccc12

>  <Energy>  (89) 
88.75018584782744

>  <Genealogy>  (89) 
O=C(N=c1cc(Oc2ccc(N3CCOCC3)nc2)cc[n-]1)c1cc(=O)[n-]c2ccccc12 (protonated)
O=C(/N=c1\cc(Oc2ccc(N3CCOCC3)nc2)cc[n-]1)c1cc(=O)[n-]c2ccccc12 (cis-trans isomerization)
O=C(/N=c1\cc(Oc2ccc(N3CCOCC3)nc2)cc[n-]1)c1cc(=O)[n-]c2ccccc12 (3D coordinates assigned)
O=C(/N=c1\cc(Oc2ccc(N3CCOCC3)nc2)cc[n-]1)c1cc(=O)[n-]c2ccccc12 (nonaromatic ring conformer: 88.75018584782744 kcal/mol)

>  <smiles>  (89) 
O=C(N=c1cc(Oc2ccc(N3CCOCC3)nc2)cc[nH]1)c1cc(=O)[nH]c2ccccc12

>  <score_type>  (89) 
oracle

>  <origin>  (89) 
adg

>  <m_score__min__energy>  (89) 
-12.26

>  <m_primary>  (89) 
energy

$$$$
89:0
     RDKit          3D

 55 58  0  0  0  0  0  0  0  0999 V2000
   56.7850   31.1940   44.9030 O   0  0  0  0  0  0  0  0  0  0  0  0
   57.9660   31.3640   45.3070 C   0  0  0  0  0  0  0  0  0  0  0  0
   58.8510   30.2390   45.4370 N   0  0  0  0  0  0  0  0  0  0  0  0
   58.4160   28.8680   45.4310 C   0  0  0  0  0  0  0  0  0  0  0  0
   58.3730   28.1650   44.2180 C   0  0  0  0  0  0  0  0  0  0  0  0
   57.9790   26.8240   44.1880 C   0  0  0  0  0  0  0  0  0  0  0  0
   57.6380   26.1600   45.3770 C   0  0  0  0  0  0  0  0  0  0  0  0
   57.2140   24.7160   45.3560 C   0  0  0  0  0  0  0  0  0  0  0  0
   57.7900   24.0310   44.1760 N   0  0  0  0  0  0  0  0  0  0  0  0
   56.9110   24.1350   42.9960 C   0  0  0  0  0  0  0  0  0  0  0  0
   55.6390   23.2660   43.1470 C   0  0  0  0  0  0  0  0  0  0  0  0
   55.7500   22.2830   44.1620 O   0  0  0  0  0  0  0  0  0  0  0  0
   57.0040   21.6420   44.0830 C   0  0  0  0  0  0  0  0  0  0  0  0
   58.1380   22.6170   44.4550 C   0  0  0  0  0  0  0  0  0  0  0  0
   57.6980   26.8560   46.5930 C   0  0  0  0  0  0  0  0  0  0  0  0
   58.0900   28.1970   46.6240 C   0  0  0  0  0  0  0  0  0  0  0  0
   58.4460   32.7250   45.6450 C   0  0  0  0  0  0  0  0  0  0  0  0
   58.7920   33.5830   44.5850 C   0  0  0  0  0  0  0  0  0  0  0  0
   59.2510   34.8760   44.8350 C   0  0  0  0  0  0  0  0  0  0  0  0
   59.3650   35.3370   46.1430 C   0  0  0  0  0  0  0  0  0  0  0  0
   59.0180   34.5070   47.2090 C   0  0  0  0  0  0  0  0  0  0  0  0
   58.5560   33.1960   46.9830 C   0  0  0  0  0  0  0  0  0  0  0  0
   58.1570   32.3610   48.1840 C   0  0  0  0  0  0  0  0  0  0  0  0
   59.1790   31.2980   48.5140 C   0  0  0  0  0  0  0  0  0  0  0  0
   58.8270   30.2120   49.3350 C   0  0  0  0  0  0  0  0  0  0  0  0
   59.7760   29.2430   49.6740 C   0  0  0  0  0  0  0  0  0  0  0  0
   61.0900   29.3580   49.2130 C   0  0  0  0  0  0  0  0  0  0  0  0
   61.4580   30.4460   48.4190 C   0  0  0  0  0  0  0  0  0  0  0  0
   60.5130   31.4170   48.0770 C   0  0  0  0  0  0  0  0  0  0  0  0
   59.8790   30.4260   45.4430 H   0  0  0  0  0  0  0  0  0  0  0  0
   58.6515   28.6729   43.2829 H   0  0  0  0  0  0  0  0  0  0  0  0
   57.9360   26.2870   43.2290 H   0  0  0  0  0  0  0  0  0  0  0  0
   57.5672   24.2202   46.2722 H   0  0  0  0  0  0  0  0  0  0  0  0
   56.1166   24.6649   45.3005 H   0  0  0  0  0  0  0  0  0  0  0  0
   56.6111   25.1855   42.8671 H   0  0  0  0  0  0  0  0  0  0  0  0
   57.4701   23.7727   42.1207 H   0  0  0  0  0  0  0  0  0  0  0  0
   54.7925   23.9251   43.3900 H   0  0  0  0  0  0  0  0  0  0  0  0
   55.4909   22.7361   42.1945 H   0  0  0  0  0  0  0  0  0  0  0  0
   57.0182   20.7894   44.7779 H   0  0  0  0  0  0  0  0  0  0  0  0
   57.1598   21.2953   43.0507 H   0  0  0  0  0  0  0  0  0  0  0  0
   58.3540   22.5128   45.5285 H   0  0  0  0  0  0  0  0  0  0  0  0
   59.0122   22.3615   43.8381 H   0  0  0  0  0  0  0  0  0  0  0  0
   57.4345   26.3425   47.5294 H   0  0  0  0  0  0  0  0  0  0  0  0
   58.1439   28.7300   47.5847 H   0  0  0  0  0  0  0  0  0  0  0  0
   58.6994   33.2300   43.5473 H   0  0  0  0  0  0  0  0  0  0  0  0
   59.5236   35.5331   43.9960 H   0  0  0  0  0  0  0  0  0  0  0  0
   59.7291   36.3568   46.3365 H   0  0  0  0  0  0  0  0  0  0  0  0
   59.1064   34.8813   48.2396 H   0  0  0  0  0  0  0  0  0  0  0  0
   58.0449   33.0249   49.0539 H   0  0  0  0  0  0  0  0  0  0  0  0
   57.2127   31.8527   47.9393 H   0  0  0  0  0  0  0  0  0  0  0  0
   57.7978   30.1243   49.7131 H   0  0  0  0  0  0  0  0  0  0  0  0
   59.4879   28.3889   50.3045 H   0  0  0  0  0  0  0  0  0  0  0  0
   61.8342   28.5917   49.4755 H   0  0  0  0  0  0  0  0  0  0  0  0
   62.4942   30.5390   48.0618 H   0  0  0  0  0  0  0  0  0  0  0  0
   60.8125   32.2792   47.4630 H   0  0  0  0  0  0  0  0  0  0  0  0
  1  2  2  0
  2  3  1  0
  3  4  1  0
  4  5  2  0
  5  6  1  0
  6  7  2  0
  7  8  1  0
  8  9  1  0
  9 10  1  0
 10 11  1  0
 11 12  1  0
 12 13  1  0
 13 14  1  0
  7 15  1  0
 15 16  2  0
  2 17  1  0
 17 18  2  0
 18 19  1  0
 19 20  2  0
 20 21  1  0
 21 22  2  0
 22 23  1  0
 23 24  1  0
 24 25  2  0
 25 26  1  0
 26 27  2  0
 27 28  1  0
 28 29  2  0
 16  4  1  0
 22 17  1  0
 29 24  1  0
 14  9  1  0
  3 30  1  0
  5 31  1  0
  6 32  1  0
  8 33  1  0
  8 34  1  0
 10 35  1  0
 10 36  1  0
 11 37  1  0
 11 38  1  0
 13 39  1  0
 13 40  1  0
 14 41  1  0
 14 42  1  0
 15 43  1  0
 16 44  1  0
 18 45  1  0
 19 46  1  0
 20 47  1  0
 21 48  1  0
 23 49  1  0
 23 50  1  0
 25 51  1  0
 26 52  1  0
 27 53  1  0
 28 54  1  0
 29 55  1  0
M  END
>  <UniqueID>  (90) 
79

>  <SMILES>  (90) 
O=C(Nc1ccc(CN2CCOCC2)cc1)c1ccccc1Cc1ccccc1

>  <Energy>  (90) 
79.63337410747198

>  <Genealogy>  (90) 
O=C(Nc1ccc(CN2CCOCC2)cc1)c1ccccc1Cc1ccccc1 (3D coordinates assigned)
O=C(Nc1ccc(CN2CCOCC2)cc1)c1ccccc1Cc1ccccc1 (nonaromatic ring conformer: 79.63337410747198 kcal/mol)

>  <smiles>  (90) 
O=C(Nc1ccc(CN2CCOCC2)cc1)c1ccccc1Cc1ccccc1

>  <score_type>  (90) 
oracle

>  <origin>  (90) 
adg

>  <m_score__min__energy>  (90) 
-9.2300000000000004

>  <m_primary>  (90) 
energy

$$$$
90:0
     RDKit          3D

 50 52  0  0  0  0  0  0  0  0999 V2000
   62.8020   33.8300   46.3890 C   0  0  0  0  0  0  0  0  0  0  0  0
   63.7740   33.3020   47.4440 C   0  0  0  0  0  0  0  0  0  0  0  0
   63.2650   32.0290   48.1360 C   0  0  0  0  0  0  0  0  0  0  0  0
   63.2540   32.1550   49.6660 C   0  0  0  0  0  0  0  0  0  0  0  0
   61.8860   32.0390   50.1770 N   0  0  0  0  0  0  0  0  0  0  0  0
   61.0090   33.5360   50.0260 S   0  0  0  0  0  0  0  0  0  0  0  0
   60.3120   33.8520   51.3200 O   0  0  0  0  0  0  0  0  0  0  0  0
   61.9940   34.6380   49.7580 O   0  0  0  0  0  0  0  0  0  0  0  0
   59.8900   33.4540   48.6490 C   0  0  0  0  0  0  0  0  0  0  0  0
   59.8640   34.5630   47.7900 C   0  0  0  0  0  0  0  0  0  0  0  0
   59.0330   34.5860   46.6720 C   0  0  0  0  0  0  0  0  0  0  0  0
   58.2060   33.5000   46.3820 C   0  0  0  0  0  0  0  0  0  0  0  0
   57.3680   33.5870   45.2560 O   0  0  0  0  0  0  0  0  0  0  0  0
   57.4540   32.7590   44.0950 C   0  0  0  0  0  0  0  0  0  0  0  0
   57.1230   31.3370   44.4290 C   0  0  0  0  0  0  0  0  0  0  0  0
   55.9170   30.9880   44.5380 O   0  0  0  0  0  0  0  0  0  0  0  0
   58.1770   30.4030   44.6860 N   0  0  0  0  0  0  0  0  0  0  0  0
   57.9990   29.0390   45.0880 C   0  0  0  0  0  0  0  0  0  0  0  0
   59.1080   28.1870   45.3480 C   0  0  0  0  0  0  0  0  0  0  0  0
   58.9080   26.8620   45.7780 C   0  0  0  0  0  0  0  0  0  0  0  0
   57.5970   26.4290   45.9510 C   0  0  0  0  0  0  0  0  0  0  0  0
   57.1800   25.2220   46.3640 N   0  0  0  0  0  0  0  0  0  0  0  0
   55.8310   25.3730   46.3620 C   0  0  0  0  0  0  0  0  0  0  0  0
   55.0490   24.4450   46.6960 O   0  0  0  0  0  0  0  0  0  0  0  0
   55.3840   26.5960   45.9780 N   0  0  0  0  0  0  0  0  0  0  0  0
   56.5310   27.2450   45.7220 C   0  0  0  0  0  0  0  0  0  0  0  0
   56.6880   28.5610   45.2960 C   0  0  0  0  0  0  0  0  0  0  0  0
   58.2340   32.3730   47.2220 C   0  0  0  0  0  0  0  0  0  0  0  0
   59.0680   32.3350   48.3560 C   0  0  0  0  0  0  0  0  0  0  0  0
   59.0340   31.1060   49.2250 C   0  0  0  0  0  0  0  0  0  0  0  0
   61.9399   34.2983   46.8864 H   0  0  0  0  0  0  0  0  0  0  0  0
   63.3120   34.5750   45.7607 H   0  0  0  0  0  0  0  0  0  0  0  0
   62.4546   32.9966   45.7607 H   0  0  0  0  0  0  0  0  0  0  0  0
   64.7342   33.0774   46.9566 H   0  0  0  0  0  0  0  0  0  0  0  0
   63.8807   34.0789   48.2153 H   0  0  0  0  0  0  0  0  0  0  0  0
   62.2402   31.8261   47.7915 H   0  0  0  0  0  0  0  0  0  0  0  0
   63.9501   31.2095   47.8734 H   0  0  0  0  0  0  0  0  0  0  0  0
   63.8723   31.3555   50.1002 H   0  0  0  0  0  0  0  0  0  0  0  0
   63.6579   33.1390   49.9464 H   0  0  0  0  0  0  0  0  0  0  0  0
   60.5098   35.4278   48.0025 H   0  0  0  0  0  0  0  0  0  0  0  0
   59.0287   35.4667   46.0130 H   0  0  0  0  0  0  0  0  0  0  0  0
   56.7456   33.1256   43.3375 H   0  0  0  0  0  0  0  0  0  0  0  0
   58.4832   32.7997   43.7089 H   0  0  0  0  0  0  0  0  0  0  0  0
   60.1312   28.5672   45.2117 H   0  0  0  0  0  0  0  0  0  0  0  0
   59.7587   26.1918   45.9707 H   0  0  0  0  0  0  0  0  0  0  0  0
   55.8155   29.2091   45.1265 H   0  0  0  0  0  0  0  0  0  0  0  0
   57.5950   31.5082   46.9900 H   0  0  0  0  0  0  0  0  0  0  0  0
   59.0423   31.4051   50.2835 H   0  0  0  0  0  0  0  0  0  0  0  0
   58.1196   30.5323   49.0132 H   0  0  0  0  0  0  0  0  0  0  0  0
   59.9152   30.4827   49.0132 H   0  0  0  0  0  0  0  0  0  0  0  0
  1  2  1  0
  2  3  1  0
  3  4  1  0
  4  5  1  0
  5  6  1  0
  6  7  2  0
  6  8  2  0
  6  9  1  0
  9 10  2  0
 10 11  1  0
 11 12  2  0
 12 13  1  0
 13 14  1  0
 14 15  1  0
 15 16  2  0
 15 17  1  0
 17 18  1  0
 18 19  2  0
 19 20  1  0
 20 21  2  0
 21 22  1  0
 22 23  1  0
 23 24  2  0
 23 25  1  0
 25 26  1  0
 26 27  2  0
 12 28  1  0
 28 29  2  0
 29 30  1  0
 29  9  1  0
 27 18  1  0
 26 21  1  0
  1 31  1  0
  1 32  1  0
  1 33  1  0
  2 34  1  0
  2 35  1  0
  3 36  1  0
  3 37  1  0
  4 38  1  0
  4 39  1  0
 10 40  1  0
 11 41  1  0
 14 42  1  0
 14 43  1  0
 19 44  1  0
 20 45  1  0
 27 46  1  0
 28 47  1  0
 30 48  1  0
 30 49  1  0
 30 50  1  0
M  CHG  4   5  -1  17  -1  22  -1  25  -1
M  END
>  <UniqueID>  (91) 
80

>  <SMILES>  (91) 
CCCC[N-]S(=O)(=O)c1ccc(OCC(=O)[N-]c2ccc3[n-]c(=O)[n-]c3c2)cc1C

>  <Energy>  (91) 
85.68634574042792

>  <Genealogy>  (91) 
CCCC[N-]S(=O)(=O)c1ccc(OCC(=O)[N-]c2ccc3[n-]c(=O)[n-]c3c2)cc1C (protonated)
CCCC[N-]S(=O)(=O)c1ccc(OCC(=O)[N-]c2ccc3[n-]c(=O)[n-]c3c2)cc1C (3D coordinates assigned)
CCCC[N-]S(=O)(=O)c1ccc(OCC(=O)[N-]c2ccc3[n-]c(=O)[n-]c3c2)cc1C (optimized conformer: 85.68634574042792 kcal/mol)

>  <smiles>  (91) 
CCCCNS(=O)(=O)c1ccc(OCC(=O)Nc2ccc3[nH]c(=O)[nH]c3c2)cc1C

>  <score_type>  (91) 
oracle

>  <origin>  (91) 
adg

>  <m_score__min__energy>  (91) 
-14.029999999999999

>  <m_primary>  (91) 
energy

$$$$
91:0
     RDKit          3D

 33 34  0  0  0  0  0  0  0  0999 V2000
   56.6850   30.8200   42.6780 C   0  0  0  0  0  0  0  0  0  0  0  0
   58.0460   31.3780   43.0830 C   0  0  0  0  0  0  0  0  0  0  0  0
   58.0320   31.8350   44.5250 C   0  0  0  0  0  0  0  0  0  0  0  0
   57.6300   33.1570   44.7930 C   0  0  0  0  0  0  0  0  0  0  0  0
   57.6260   33.6520   46.0970 C   0  0  0  0  0  0  0  0  0  0  0  0
   58.0330   32.8410   47.1540 C   0  0  0  0  0  0  0  0  0  0  0  0
   58.4480   31.5310   46.9090 C   0  0  0  0  0  0  0  0  0  0  0  0
   58.4630   31.0110   45.6020 C   0  0  0  0  0  0  0  0  0  0  0  0
   58.8850   29.5710   45.4190 C   0  0  0  0  0  0  0  0  0  0  0  0
   57.4700   28.5340   45.0650 S   0  0  0  0  0  0  0  0  0  0  0  0
   57.5130   28.0990   43.6260 O   0  0  0  0  0  0  0  0  0  0  0  0
   56.2160   29.3380   45.2700 O   0  0  0  0  0  0  0  0  0  0  0  0
   57.4540   27.1110   46.1230 C   0  0  0  0  0  0  0  0  0  0  0  0
   56.2840   26.3520   46.2950 C   0  0  0  0  0  0  0  0  0  0  0  0
   55.1030   26.7130   45.6550 O   0  0  0  0  0  0  0  0  0  0  0  0
   56.2990   25.2470   47.0880 N   0  0  0  0  0  0  0  0  0  0  0  0
   57.4370   24.8560   47.7200 C   0  0  0  0  0  0  0  0  0  0  0  0
   57.4350   23.8310   48.4510 O   0  0  0  0  0  0  0  0  0  0  0  0
   58.5810   25.5680   47.5610 N   0  0  0  0  0  0  0  0  0  0  0  0
   58.6180   26.6760   46.7790 C   0  0  0  0  0  0  0  0  0  0  0  0
   59.7060   27.2970   46.6450 O   0  0  0  0  0  0  0  0  0  0  0  0
   56.1032   30.5815   43.5806 H   0  0  0  0  0  0  0  0  0  0  0  0
   56.1446   31.5691   42.0807 H   0  0  0  0  0  0  0  0  0  0  0  0
   56.8260   29.9071   42.0807 H   0  0  0  0  0  0  0  0  0  0  0  0
   58.8080   30.5942   42.9605 H   0  0  0  0  0  0  0  0  0  0  0  0
   58.2780   32.2412   42.4419 H   0  0  0  0  0  0  0  0  0  0  0  0
   57.3151   33.8077   43.9639 H   0  0  0  0  0  0  0  0  0  0  0  0
   57.3008   34.6848   46.2911 H   0  0  0  0  0  0  0  0  0  0  0  0
   58.0273   33.2330   48.1818 H   0  0  0  0  0  0  0  0  0  0  0  0
   58.7676   30.8969   47.7491 H   0  0  0  0  0  0  0  0  0  0  0  0
   59.5969   29.5073   44.5829 H   0  0  0  0  0  0  0  0  0  0  0  0
   59.3550   29.2204   46.3497 H   0  0  0  0  0  0  0  0  0  0  0  0
   55.4220   24.6910   47.2090 H   0  0  0  0  0  0  0  0  0  0  0  0
  1  2  1  0
  2  3  1  0
  3  4  2  0
  4  5  1  0
  5  6  2  0
  6  7  1  0
  7  8  2  0
  8  9  1  0
  9 10  1  0
 10 11  2  0
 10 12  2  0
 10 13  1  0
 13 14  2  0
 14 15  1  0
 14 16  1  0
 16 17  1  0
 17 18  2  0
 17 19  1  0
 19 20  1  0
 20 21  2  0
  8  3  1  0
 20 13  1  0
  1 22  1  0
  1 23  1  0
  1 24  1  0
  2 25  1  0
  2 26  1  0
  4 27  1  0
  5 28  1  0
  6 29  1  0
  7 30  1  0
  9 31  1  0
  9 32  1  0
 16 33  1  0
M  CHG  2  15  -1  19  -1
M  END
>  <UniqueID>  (92) 
81

>  <SMILES>  (92) 
CCc1ccccc1CS(=O)(=O)c1c([O-])[nH]c(=O)[n-]c1=O

>  <Energy>  (92) 
30.5675661487304

>  <Genealogy>  (92) 
CCc1ccccc1CS(=O)(=O)c1c([O-])[nH]c(=O)[n-]c1=O (protonated)
CCc1ccccc1CS(=O)(=O)c1c([O-])[nH]c(=O)[n-]c1=O (3D coordinates assigned)
CCc1ccccc1CS(=O)(=O)c1c([O-])[nH]c(=O)[n-]c1=O (optimized conformer: 30.5675661487304 kcal/mol)

>  <smiles>  (92) 
CCc1ccccc1CS(=O)(=O)c1c(O)[nH]c(=O)[nH]c1=O

>  <score_type>  (92) 
oracle

>  <origin>  (92) 
adg

>  <m_score__min__energy>  (92) 
-13.18

>  <m_primary>  (92) 
energy

$$$$
92:0
     RDKit          3D

 40 42  0  0  0  0  0  0  0  0999 V2000
   57.4124   24.3120   47.2386 H   0  0  0  0  0  0  0  0  0  0  0  0
   57.2080   25.2990   46.7980 C   0  0  0  0  0  0  0  0  0  0  0  0
   58.3200   26.5510   46.6170 S   0  0  0  0  0  0  0  0  0  0  0  0
   57.1980   27.5900   45.9020 C   0  0  0  0  0  0  0  0  0  0  0  0
   57.4120   28.8060   45.4890 N   0  0  0  0  0  0  0  0  0  0  0  0
   56.5110   29.6600   44.7610 C   0  0  0  0  0  0  0  0  0  0  0  0
   55.2640   29.4860   44.8290 O   0  0  0  0  0  0  0  0  0  0  0  0
   57.0590   30.7790   43.9560 C   0  0  0  0  0  0  0  0  0  0  0  0
   56.8650   30.7680   42.5610 C   0  0  0  0  0  0  0  0  0  0  0  0
   56.2748   29.9623   42.1000 H   0  0  0  0  0  0  0  0  0  0  0  0
   57.4140   31.7690   41.7570 C   0  0  0  0  0  0  0  0  0  0  0  0
   57.2583   31.7462   40.6683 H   0  0  0  0  0  0  0  0  0  0  0  0
   58.1590   32.7970   42.3320 C   0  0  0  0  0  0  0  0  0  0  0  0
   58.5971   33.5798   41.6954 H   0  0  0  0  0  0  0  0  0  0  0  0
   58.3500   32.8350   43.7120 C   0  0  0  0  0  0  0  0  0  0  0  0
   58.9327   33.6542   44.1586 H   0  0  0  0  0  0  0  0  0  0  0  0
   57.8050   31.8360   44.5400 C   0  0  0  0  0  0  0  0  0  0  0  0
   57.9480   31.9370   45.9700 N   0  0  0  0  0  0  0  0  0  0  0  0
   57.1350   31.6550   46.5630 H   0  0  0  0  0  0  0  0  0  0  0  0
   59.0100   32.6690   46.6060 C   0  0  0  0  0  0  0  0  0  0  0  0
   58.7620   33.9890   47.0050 C   0  0  0  0  0  0  0  0  0  0  0  0
   57.7614   34.4229   46.8616 H   0  0  0  0  0  0  0  0  0  0  0  0
   59.7700   34.7560   47.5810 C   0  0  0  0  0  0  0  0  0  0  0  0
   59.5615   35.7896   47.8943 H   0  0  0  0  0  0  0  0  0  0  0  0
   61.0420   34.2190   47.7620 C   0  0  0  0  0  0  0  0  0  0  0  0
   61.8371   34.8379   48.2034 H   0  0  0  0  0  0  0  0  0  0  0  0
   61.3190   32.8940   47.3860 C   0  0  0  0  0  0  0  0  0  0  0  0
   62.7090   32.3550   47.6090 C   0  0  0  0  0  0  0  0  0  0  0  0
   62.9041   32.2794   48.6889 H   0  0  0  0  0  0  0  0  0  0  0  0
   62.7939   31.3588   47.1504 H   0  0  0  0  0  0  0  0  0  0  0  0
   63.4433   33.0335   47.1504 H   0  0  0  0  0  0  0  0  0  0  0  0
   60.2820   32.0870   46.8480 C   0  0  0  0  0  0  0  0  0  0  0  0
   60.5310   30.6310   46.5270 C   0  0  0  0  0  0  0  0  0  0  0  0
   60.6285   30.0607   47.4626 H   0  0  0  0  0  0  0  0  0  0  0  0
   59.6875   30.2350   45.9424 H   0  0  0  0  0  0  0  0  0  0  0  0
   61.4581   30.5378   45.9424 H   0  0  0  0  0  0  0  0  0  0  0  0
   55.9890   26.9980   45.8000 N   0  0  0  0  0  0  0  0  0  0  0  0
   55.1460   27.4570   45.3890 H   0  0  0  0  0  0  0  0  0  0  0  0
   55.9860   25.7310   46.2930 C   0  0  0  0  0  0  0  0  0  0  0  0
   55.0872   25.0969   46.2926 H   0  0  0  0  0  0  0  0  0  0  0  0
  1  2  1  0
  2  3  1  0
  3  4  1  0
  4  5  2  0
  5  6  1  0
  6  7  2  0
  6  8  1  0
  8  9  2  0
  9 10  1  0
  9 11  1  0
 11 12  1  0
 11 13  2  0
 13 14  1  0
 13 15  1  0
 15 16  1  0
 15 17  2  0
 17 18  1  0
 18 19  1  0
 18 20  1  0
 20 21  2  0
 21 22  1  0
 21 23  1  0
 23 24  1  0
 23 25  2  0
 25 26  1  0
 25 27  1  0
 27 28  1  0
 28 29  1  0
 28 30  1  0
 28 31  1  0
 27 32  2  0
 32 33  1  0
 33 34  1  0
 33 35  1  0
 33 36  1  0
  4 37  1  0
 37 38  1  0
 37 39  1  0
 39 40  1  0
 39  2  2  0
 17  8  1  0
 32 20  1  0
M  END
>  <UniqueID>  (93) 
82

>  <SMILES>  (93) 
Cc1cccc(Nc2ccccc2C(=O)/N=c2/[nH]ccs2)c1C

>  <Energy>  (93) 
88.60792882806638

>  <Genealogy>  (93) 
Cc1cccc(Nc2ccccc2C(=O)/N=c2/[nH]ccs2)c1C (cis-trans isomerization)
Cc1cccc(Nc2ccccc2C(=O)/N=c2/[nH]ccs2)c1C (3D coordinates assigned)
Cc1cccc(Nc2ccccc2C(=O)/N=c2/[nH]ccs2)c1C (optimized conformer: 88.60792882806638 kcal/mol)

>  <smiles>  (93) 
Cc1cccc(Nc2ccccc2C(=O)N=c2[nH]ccs2)c1C

>  <score_type>  (93) 
oracle

>  <origin>  (93) 
adg

>  <m_score__min__energy>  (93) 
-8.4299999999999997

>  <m_primary>  (93) 
energy

$$$$
93:0
     RDKit          3D

 52 55  0  0  0  0  0  0  0  0999 V2000
   63.4354   32.1538   48.7312 H   0  0  0  0  0  0  0  0  0  0  0  0
   62.5540   31.5480   48.4740 C   0  0  0  0  0  0  0  0  0  0  0  0
   61.7350   31.0880   49.4660 N   0  0  0  0  0  0  0  0  0  0  0  0
   60.6490   30.3450   49.1340 C   0  0  0  0  0  0  0  0  0  0  0  0
   60.3500   30.0270   47.8380 C   0  0  0  0  0  0  0  0  0  0  0  0
   61.1540   30.4750   46.7900 C   0  0  0  0  0  0  0  0  0  0  0  0
   60.9176   30.2297   45.7441 H   0  0  0  0  0  0  0  0  0  0  0  0
   62.2780   31.2520   47.1210 C   0  0  0  0  0  0  0  0  0  0  0  0
   62.9409   31.6285   46.3280 H   0  0  0  0  0  0  0  0  0  0  0  0
   59.2040   29.2490   47.8690 C   0  0  0  0  0  0  0  0  0  0  0  0
   58.5290   28.5950   46.7270 C   0  0  0  0  0  0  0  0  0  0  0  0
   58.6960   27.3590   46.5470 O   0  0  0  0  0  0  0  0  0  0  0  0
   57.6440   29.3320   45.8010 C   0  0  0  0  0  0  0  0  0  0  0  0
   56.4950   28.7380   45.3750 N   0  0  0  0  0  0  0  0  0  0  0  0
   55.6480   29.3450   44.5040 C   0  0  0  0  0  0  0  0  0  0  0  0
   54.7222   28.8373   44.1954 H   0  0  0  0  0  0  0  0  0  0  0  0
   55.9490   30.6120   43.9990 C   0  0  0  0  0  0  0  0  0  0  0  0
   55.2578   31.1097   43.3029 H   0  0  0  0  0  0  0  0  0  0  0  0
   57.1450   31.2480   44.3880 C   0  0  0  0  0  0  0  0  0  0  0  0
   57.5000   32.4290   43.9570 N   0  0  0  0  0  0  0  0  0  0  0  0
   57.6650   33.6500   44.6980 C   0  0  0  0  0  0  0  0  0  0  0  0
   56.6960   34.4320   44.8920 O   0  0  0  0  0  0  0  0  0  0  0  0
   59.0370   34.0570   45.1340 C   0  0  0  0  0  0  0  0  0  0  0  0
   59.7837   33.4703   44.5788 H   0  0  0  0  0  0  0  0  0  0  0  0
   59.1750   35.1292   44.9306 H   0  0  0  0  0  0  0  0  0  0  0  0
   59.2080   33.8110   46.6090 C   0  0  0  0  0  0  0  0  0  0  0  0
   60.2260   34.4660   47.3230 C   0  0  0  0  0  0  0  0  0  0  0  0
   60.9161   35.1423   46.7973 H   0  0  0  0  0  0  0  0  0  0  0  0
   60.3650   34.2610   48.7000 C   0  0  0  0  0  0  0  0  0  0  0  0
   61.1691   34.7690   49.2526 H   0  0  0  0  0  0  0  0  0  0  0  0
   59.4840   33.4120   49.3740 C   0  0  0  0  0  0  0  0  0  0  0  0
   59.5964   33.2505   50.4563 H   0  0  0  0  0  0  0  0  0  0  0  0
   58.4590   32.7670   48.6740 C   0  0  0  0  0  0  0  0  0  0  0  0
   57.7640   32.1013   49.2068 H   0  0  0  0  0  0  0  0  0  0  0  0
   58.3170   32.9680   47.2960 C   0  0  0  0  0  0  0  0  0  0  0  0
   57.5059   32.4649   46.7491 H   0  0  0  0  0  0  0  0  0  0  0  0
   57.9860   30.6010   45.3030 C   0  0  0  0  0  0  0  0  0  0  0  0
   58.9161   31.0874   45.6323 H   0  0  0  0  0  0  0  0  0  0  0  0
   58.8750   29.1230   49.2200 C   0  0  0  0  0  0  0  0  0  0  0  0
   58.0202   28.5491   49.6072 H   0  0  0  0  0  0  0  0  0  0  0  0
   59.7580   29.8080   49.9870 N   0  0  0  0  0  0  0  0  0  0  0  0
   59.8030   29.8390   51.4470 C   0  0  0  0  0  0  0  0  0  0  0  0
   59.9939   30.8696   51.7808 H   0  0  0  0  0  0  0  0  0  0  0  0
   60.6072   29.1719   51.7908 H   0  0  0  0  0  0  0  0  0  0  0  0
   58.4770   29.3570   52.0380 C   0  0  0  0  0  0  0  0  0  0  0  0
   58.4903   29.5004   53.1285 H   0  0  0  0  0  0  0  0  0  0  0  0
   58.3431   28.2904   51.8046 H   0  0  0  0  0  0  0  0  0  0  0  0
   57.4030   30.0950   51.4800 O   0  0  0  0  0  0  0  0  0  0  0  0
   57.5290   31.4640   51.7900 C   0  0  0  0  0  0  0  0  0  0  0  0
   57.5409   31.5930   52.8823 H   0  0  0  0  0  0  0  0  0  0  0  0
   58.4666   31.8515   51.3648 H   0  0  0  0  0  0  0  0  0  0  0  0
   56.6779   32.0161   51.3648 H   0  0  0  0  0  0  0  0  0  0  0  0
  1  2  1  0
  2  3  2  0
  3  4  1  0
  4  5  2  0
  5  6  1  0
  6  7  1  0
  6  8  2  0
  8  9  1  0
  5 10  1  0
 10 11  1  0
 11 12  2  0
 11 13  1  0
 13 14  1  0
 14 15  1  0
 15 16  1  0
 15 17  2  0
 17 18  1  0
 17 19  1  0
 19 20  2  0
 20 21  1  0
 21 22  2  0
 21 23  1  0
 23 24  1  0
 23 25  1  0
 23 26  1  0
 26 27  2  0
 27 28  1  0
 27 29  1  0
 29 30  1  0
 29 31  2  0
 31 32  1  0
 31 33  1  0
 33 34  1  0
 33 35  2  0
 35 36  1  0
 19 37  1  0
 37 38  1  0
 10 39  2  0
 39 40  1  0
 39 41  1  0
 41 42  1  0
 42 43  1  0
 42 44  1  0
 42 45  1  0
 45 46  1  0
 45 47  1  0
 45 48  1  0
 48 49  1  0
 49 50  1  0
 49 51  1  0
 49 52  1  0
  8  2  1  0
 37 13  2  0
 41  4  1  0
 35 26  1  0
M  CHG  1  14  -1
M  END
>  <UniqueID>  (94) 
83

>  <SMILES>  (94) 
COCCn1cc(C(=O)c2c/c(=N/C(=O)Cc3ccccc3)cc[n-]2)c2cccnc21

>  <Energy>  (94) 
101.24269068446888

>  <Genealogy>  (94) 
COCCn1cc(C(=O)c2cc(=NC(=O)Cc3ccccc3)cc[n-]2)c2cccnc21 (protonated)
COCCn1cc(C(=O)c2c/c(=N/C(=O)Cc3ccccc3)cc[n-]2)c2cccnc21 (cis-trans isomerization)
COCCn1cc(C(=O)c2c/c(=N/C(=O)Cc3ccccc3)cc[n-]2)c2cccnc21 (3D coordinates assigned)
COCCn1cc(C(=O)c2c/c(=N/C(=O)Cc3ccccc3)cc[n-]2)c2cccnc21 (optimized conformer: 101.24269068446888 kcal/mol)

>  <smiles>  (94) 
COCCn1cc(C(=O)c2cc(=NC(=O)Cc3ccccc3)cc[nH]2)c2cccnc21

>  <score_type>  (94) 
oracle

>  <origin>  (94) 
adg

>  <m_score__min__energy>  (94) 
-10.84

>  <m_primary>  (94) 
energy

$$$$
94:0
     RDKit          3D

 40 42  0  0  0  0  0  0  0  0999 V2000
   56.2400   20.3990   43.6510 N   0  0  0  0  0  0  0  0  0  0  0  0
   57.4760   21.0480   43.2270 C   0  0  0  0  0  0  0  0  0  0  0  0
   57.5170   22.4590   43.7450 C   0  0  0  0  0  0  0  0  0  0  0  0
   58.3830   22.8030   44.7960 C   0  0  0  0  0  0  0  0  0  0  0  0
   58.4030   24.1100   45.2930 C   0  0  0  0  0  0  0  0  0  0  0  0
   57.5710   25.0890   44.7430 C   0  0  0  0  0  0  0  0  0  0  0  0
   57.6280   26.4270   45.2610 N   0  0  0  0  0  0  0  0  0  0  0  0
   56.5050   27.2950   45.4640 C   0  0  0  0  0  0  0  0  0  0  0  0
   55.5300   26.8790   46.1430 O   0  0  0  0  0  0  0  0  0  0  0  0
   56.4850   28.6790   44.9480 C   0  0  0  0  0  0  0  0  0  0  0  0
   57.5780   29.5180   44.8270 C   0  0  0  0  0  0  0  0  0  0  0  0
   57.0970   30.7000   44.2970 C   0  0  0  0  0  0  0  0  0  0  0  0
   57.8800   31.9120   43.9800 C   0  0  0  0  0  0  0  0  0  0  0  0
   58.1560   32.1600   42.7750 O   0  0  0  0  0  0  0  0  0  0  0  0
   58.3390   32.8470   45.0340 C   0  0  0  0  0  0  0  0  0  0  0  0
   58.0720   32.5670   46.3850 C   0  0  0  0  0  0  0  0  0  0  0  0
   58.4990   33.4460   47.3860 C   0  0  0  0  0  0  0  0  0  0  0  0
   59.1860   34.6140   47.0480 C   0  0  0  0  0  0  0  0  0  0  0  0
   59.4390   34.9120   45.7060 C   0  0  0  0  0  0  0  0  0  0  0  0
   59.0120   34.0380   44.7020 C   0  0  0  0  0  0  0  0  0  0  0  0
   55.7310   30.5490   44.1540 C   0  0  0  0  0  0  0  0  0  0  0  0
   55.3650   29.3150   44.5510 N   0  0  0  0  0  0  0  0  0  0  0  0
   56.6720   24.7360   43.7220 C   0  0  0  0  0  0  0  0  0  0  0  0
   56.6470   23.4300   43.2250 C   0  0  0  0  0  0  0  0  0  0  0  0
   55.5430   20.5100   42.8800 H   0  0  0  0  0  0  0  0  0  0  0  0
   56.4230   19.3730   43.7400 H   0  0  0  0  0  0  0  0  0  0  0  0
   58.3362   20.4888   43.6236 H   0  0  0  0  0  0  0  0  0  0  0  0
   57.5178   21.0644   42.1279 H   0  0  0  0  0  0  0  0  0  0  0  0
   59.0479   22.0416   45.2297 H   0  0  0  0  0  0  0  0  0  0  0  0
   59.0779   24.3692   46.1221 H   0  0  0  0  0  0  0  0  0  0  0  0
   58.6195   29.2903   45.0979 H   0  0  0  0  0  0  0  0  0  0  0  0
   57.5247   31.6523   46.6567 H   0  0  0  0  0  0  0  0  0  0  0  0
   58.2931   33.2166   48.4419 H   0  0  0  0  0  0  0  0  0  0  0  0
   59.5279   35.2992   47.8376 H   0  0  0  0  0  0  0  0  0  0  0  0
   59.9746   35.8351   45.4397 H   0  0  0  0  0  0  0  0  0  0  0  0
   59.2030   34.2823   43.6466 H   0  0  0  0  0  0  0  0  0  0  0  0
   55.0455   31.3205   43.7732 H   0  0  0  0  0  0  0  0  0  0  0  0
   54.3940   28.9300   44.5420 H   0  0  0  0  0  0  0  0  0  0  0  0
   55.9850   25.4910   43.3122 H   0  0  0  0  0  0  0  0  0  0  0  0
   55.9430   23.1621   42.4234 H   0  0  0  0  0  0  0  0  0  0  0  0
  1  2  1  0
  2  3  1  0
  3  4  2  0
  4  5  1  0
  5  6  2  0
  6  7  1  0
  7  8  1  0
  8  9  2  0
  8 10  1  0
 10 11  2  0
 11 12  1  0
 12 13  1  0
 13 14  2  0
 13 15  1  0
 15 16  2  0
 16 17  1  0
 17 18  2  0
 18 19  1  0
 19 20  2  0
 12 21  2  0
 21 22  1  0
  6 23  1  0
 23 24  2  0
 24  3  1  0
 22 10  1  0
 20 15  1  0
  1 25  1  0
  1 26  1  0
  2 27  1  0
  2 28  1  0
  4 29  1  0
  5 30  1  0
 11 31  1  0
 16 32  1  0
 17 33  1  0
 18 34  1  0
 19 35  1  0
 20 36  1  0
 21 37  1  0
 22 38  1  0
 23 39  1  0
 24 40  1  0
M  CHG  1   7  -1
M  END
>  <UniqueID>  (95) 
84

>  <SMILES>  (95) 
NCc1ccc([N-]C(=O)c2cc(C(=O)c3ccccc3)c[nH]2)cc1

>  <Energy>  (95) 
73.1198041700438

>  <Genealogy>  (95) 
NCc1ccc([N-]C(=O)c2cc(C(=O)c3ccccc3)c[nH]2)cc1 (protonated)
NCc1ccc([N-]C(=O)c2cc(C(=O)c3ccccc3)c[nH]2)cc1 (3D coordinates assigned)
NCc1ccc([N-]C(=O)c2cc(C(=O)c3ccccc3)c[nH]2)cc1 (optimized conformer: 73.1198041700438 kcal/mol)

>  <smiles>  (95) 
NCc1ccc(NC(=O)c2cc(C(=O)c3ccccc3)c[nH]2)cc1

>  <score_type>  (95) 
oracle

>  <origin>  (95) 
adg

>  <m_score__min__energy>  (95) 
-10.970000000000001

>  <m_primary>  (95) 
energy

$$$$
