0:0
     RDKit          3D

 34 36  0  0  0  0  0  0  0  0999 V2000
   54.8830   26.6280   46.7890 H   0  0  0  0  0  0  0  0  0  0  0  0
   55.4750   26.5500   45.9330 N   0  0  0  0  0  0  0  0  0  0  0  0
   56.3010   27.4840   45.5840 C   0  0  0  0  0  0  0  0  0  0  0  0
   57.6470   27.2170   45.5560 N   0  0  0  0  0  0  0  0  0  0  0  0
   58.5530   28.1710   45.1940 C   0  0  0  0  0  0  0  0  0  0  0  0
   59.7850   27.9120   45.1740 O   0  0  0  0  0  0  0  0  0  0  0  0
   58.0720   29.4260   44.8530 C   0  0  0  0  0  0  0  0  0  0  0  0
   58.7450   30.5200   44.4680 N   0  0  0  0  0  0  0  0  0  0  0  0
   57.7380   31.4150   44.2750 C   0  0  0  0  0  0  0  0  0  0  0  0
   58.0380   33.1000   43.7480 S   0  0  0  0  0  0  0  0  0  0  0  0
   57.6160   33.8520   45.3620 C   0  0  0  0  0  0  0  0  0  0  0  0
   58.1659   34.7993   45.4634 H   0  0  0  0  0  0  0  0  0  0  0  0
   56.5275   34.0094   45.3807 H   0  0  0  0  0  0  0  0  0  0  0  0
   57.9740   32.9470   46.5490 C   0  0  0  0  0  0  0  0  0  0  0  0
   57.5260   33.3664   47.4619 H   0  0  0  0  0  0  0  0  0  0  0  0
   57.5828   31.9411   46.3367 H   0  0  0  0  0  0  0  0  0  0  0  0
   59.4700   32.8310   46.7490 C   0  0  0  0  0  0  0  0  0  0  0  0
   60.2910   33.8980   46.3400 C   0  0  0  0  0  0  0  0  0  0  0  0
   59.8376   34.7832   45.8701 H   0  0  0  0  0  0  0  0  0  0  0  0
   61.6720   33.8470   46.5230 C   0  0  0  0  0  0  0  0  0  0  0  0
   62.3004   34.6901   46.2002 H   0  0  0  0  0  0  0  0  0  0  0  0
   62.2580   32.7280   47.1150 C   0  0  0  0  0  0  0  0  0  0  0  0
   63.3478   32.6901   47.2595 H   0  0  0  0  0  0  0  0  0  0  0  0
   61.4630   31.6570   47.5240 C   0  0  0  0  0  0  0  0  0  0  0  0
   61.9330   30.7742   47.9820 H   0  0  0  0  0  0  0  0  0  0  0  0
   60.0680   31.6940   47.3570 C   0  0  0  0  0  0  0  0  0  0  0  0
   59.2530   30.4960   47.7760 C   0  0  0  0  0  0  0  0  0  0  0  0
   59.2169   30.4430   48.8741 H   0  0  0  0  0  0  0  0  0  0  0  0
   58.2313   30.5909   47.3797 H   0  0  0  0  0  0  0  0  0  0  0  0
   59.7164   29.5805   47.3797 H   0  0  0  0  0  0  0  0  0  0  0  0
   56.4880   30.9390   44.5240 N   0  0  0  0  0  0  0  0  0  0  0  0
   56.7460   29.6750   44.8850 C   0  0  0  0  0  0  0  0  0  0  0  0
   55.8400   28.7310   45.2440 N   0  0  0  0  0  0  0  0  0  0  0  0
   54.8190   28.9600   45.2580 H   0  0  0  0  0  0  0  0  0  0  0  0
  1  2  1  0
  2  3  2  0
  3  4  1  0
  4  5  1  0
  5  6  2  0
  5  7  1  0
  7  8  1  0
  8  9  1  0
  9 10  1  0
 10 11  1  0
 11 12  1  0
 11 13  1  0
 11 14  1  0
 14 15  1  0
 14 16  1  0
 14 17  1  0
 17 18  2  0
 18 19  1  0
 18 20  1  0
 20 21  1  0
 20 22  2  0
 22 23  1  0
 22 24  1  0
 24 25  1  0
 24 26  2  0
 26 27  1  0
 27 28  1  0
 27 29  1  0
 27 30  1  0
  9 31  2  0
 31 32  1  0
 32 33  1  0
 33 34  1  0
 33  3  1  0
 32  7  2  0
 26 17  1  0
M  CHG  2   4  -1   8  -1
M  END
>  <UniqueID>  (1) 
1

>  <SMILES>  (1) 
[H]/N=c1/[n-]c(=O)c2[n-]c(SCCc3ccccc3C)nc2[nH]1

>  <Energy>  (1) 
69.91689754215867

>  <Genealogy>  (1) 
Cc1ccccc1CCSc1nc2[nH]c(=N)[n-]c(=O)c2[n-]1 (protonated)
[H]/N=c1/[n-]c(=O)c2[n-]c(SCCc3ccccc3C)nc2[nH]1 (cis-trans isomerization)
[H]/N=c1/[n-]c(=O)c2[n-]c(SCCc3ccccc3C)nc2[nH]1 (3D coordinates assigned)
[H]/N=c1/[n-]c(=O)c2[n-]c(SCCc3ccccc3C)nc2[nH]1 (optimized conformer: 69.91689754215867 kcal/mol)

>  <smiles>  (1) 
Cc1ccccc1CCSc1nc2[nH]c(=N)[nH]c(=O)c2[nH]1

>  <score_type>  (1) 
oracle

>  <origin>  (1) 
adg

>  <m_score__min__energy>  (1) 
-11.27

>  <m_primary>  (1) 
energy

$$$$
1:0
     RDKit          3D

 63 66  0  0  0  0  0  0  0  0999 V2000
   56.9870   24.9150   45.5420 C   0  0  0  0  0  0  0  0  0  0  0  0
   56.3760   26.1580   46.0940 C   0  0  0  0  0  0  0  0  0  0  0  0
   55.1330   26.3390   45.9950 O   0  0  0  0  0  0  0  0  0  0  0  0
   57.1940   27.0880   46.8140 N   0  0  0  0  0  0  0  0  0  0  0  0
   58.4720   27.4970   46.3960 N   0  0  0  0  0  0  0  0  0  0  0  0
   59.5720   27.7760   47.1270 C   0  0  0  0  0  0  0  0  0  0  0  0
   59.6680   27.7540   48.6270 C   0  0  0  0  0  0  0  0  0  0  0  0
   59.6860   29.1510   49.1710 C   0  0  0  0  0  0  0  0  0  0  0  0
   60.8610   29.8760   49.3640 C   0  0  0  0  0  0  0  0  0  0  0  0
   60.4470   31.3690   50.0170 S   0  0  0  0  0  0  0  0  0  0  0  0
   58.8050   31.0210   50.0400 C   0  0  0  0  0  0  0  0  0  0  0  0
   57.9040   31.8570   50.4650 N   0  0  0  0  0  0  0  0  0  0  0  0
   57.4150   32.0420   51.8060 C   0  0  0  0  0  0  0  0  0  0  0  0
   57.3680   33.2130   52.2680 O   0  0  0  0  0  0  0  0  0  0  0  0
   57.0030   30.9040   52.6940 C   0  0  0  0  0  0  0  0  0  0  0  0
   56.1800   30.0030   51.9570 O   0  0  0  0  0  0  0  0  0  0  0  0
   54.7790   29.9760   52.0210 C   0  0  0  0  0  0  0  0  0  0  0  0
   54.1690   29.0090   52.8280 C   0  0  0  0  0  0  0  0  0  0  0  0
   52.7750   28.9230   52.9040 C   0  0  0  0  0  0  0  0  0  0  0  0
   51.9810   29.8150   52.1800 C   0  0  0  0  0  0  0  0  0  0  0  0
   52.5790   30.7980   51.3860 C   0  0  0  0  0  0  0  0  0  0  0  0
   53.9720   30.8780   51.3000 C   0  0  0  0  0  0  0  0  0  0  0  0
   58.5450   29.7860   49.5570 N   0  0  0  0  0  0  0  0  0  0  0  0
   60.5750   28.1980   46.3280 N   0  0  0  0  0  0  0  0  0  0  0  0
   60.1100   28.2220   45.0850 N   0  0  0  0  0  0  0  0  0  0  0  0
   58.8280   27.8130   45.1420 C   0  0  0  0  0  0  0  0  0  0  0  0
   57.7320   27.7450   43.7210 S   0  0  0  0  0  0  0  0  0  0  0  0
   57.5270   29.5540   43.5790 C   0  0  0  0  0  0  0  0  0  0  0  0
   56.5510   30.0640   44.5880 C   0  0  0  0  0  0  0  0  0  0  0  0
   55.5220   29.3890   44.8550 O   0  0  0  0  0  0  0  0  0  0  0  0
   56.7630   31.3550   45.1720 N   0  0  0  0  0  0  0  0  0  0  0  0
   57.9890   31.8930   45.6980 C   0  0  0  0  0  0  0  0  0  0  0  0
   58.9960   31.0500   46.1980 C   0  0  0  0  0  0  0  0  0  0  0  0
   60.1700   31.5820   46.7250 C   0  0  0  0  0  0  0  0  0  0  0  0
   60.3640   32.9610   46.7520 C   0  0  0  0  0  0  0  0  0  0  0  0
   59.3910   33.8280   46.2330 C   0  0  0  0  0  0  0  0  0  0  0  0
   59.6480   35.3140   46.2580 C   0  0  0  0  0  0  0  0  0  0  0  0
   58.2010   33.2940   45.6770 C   0  0  0  0  0  0  0  0  0  0  0  0
   57.1550   34.2230   45.1030 C   0  0  0  0  0  0  0  0  0  0  0  0
   57.3066   24.2647   46.3697 H   0  0  0  0  0  0  0  0  0  0  0  0
   56.2465   24.3854   44.9246 H   0  0  0  0  0  0  0  0  0  0  0  0
   57.8586   25.1778   44.9246 H   0  0  0  0  0  0  0  0  0  0  0  0
   58.8006   27.2164   49.0377 H   0  0  0  0  0  0  0  0  0  0  0  0
   60.5998   27.2465   48.9171 H   0  0  0  0  0  0  0  0  0  0  0  0
   61.8793   29.5320   49.1303 H   0  0  0  0  0  0  0  0  0  0  0  0
   57.8985   30.3745   53.0515 H   0  0  0  0  0  0  0  0  0  0  0  0
   56.4411   31.2945   53.5553 H   0  0  0  0  0  0  0  0  0  0  0  0
   54.7910   28.3108   53.4073 H   0  0  0  0  0  0  0  0  0  0  0  0
   52.3045   28.1534   53.5335 H   0  0  0  0  0  0  0  0  0  0  0  0
   50.8846   29.7441   52.2345 H   0  0  0  0  0  0  0  0  0  0  0  0
   51.9525   31.5095   50.8281 H   0  0  0  0  0  0  0  0  0  0  0  0
   54.4393   31.6473   50.6677 H   0  0  0  0  0  0  0  0  0  0  0  0
   58.5002   30.0400   43.7425 H   0  0  0  0  0  0  0  0  0  0  0  0
   57.1443   29.7850   42.5739 H   0  0  0  0  0  0  0  0  0  0  0  0
   58.8555   29.9593   46.1728 H   0  0  0  0  0  0  0  0  0  0  0  0
   60.9465   30.9112   47.1212 H   0  0  0  0  0  0  0  0  0  0  0  0
   61.2877   33.3736   47.1838 H   0  0  0  0  0  0  0  0  0  0  0  0
   59.7075   35.6583   47.3010 H   0  0  0  0  0  0  0  0  0  0  0  0
   60.5969   35.5307   45.7456 H   0  0  0  0  0  0  0  0  0  0  0  0
   58.8269   35.8368   45.7456 H   0  0  0  0  0  0  0  0  0  0  0  0
   56.6070   34.7097   45.9233 H   0  0  0  0  0  0  0  0  0  0  0  0
   57.6450   34.9891   44.4841 H   0  0  0  0  0  0  0  0  0  0  0  0
   56.4521   33.6460   44.4841 H   0  0  0  0  0  0  0  0  0  0  0  0
  1  2  1  0
  2  3  2  0
  2  4  1  0
  4  5  1  0
  5  6  1  0
  6  7  1  0
  7  8  1  0
  8  9  2  0
  9 10  1  0
 10 11  1  0
 11 12  2  3
 12 13  1  0
 13 14  2  0
 13 15  1  0
 15 16  1  0
 16 17  1  0
 17 18  2  0
 18 19  1  0
 19 20  2  0
 20 21  1  0
 21 22  2  0
 11 23  1  0
  6 24  2  0
 24 25  1  0
 25 26  2  0
 26 27  1  0
 27 28  1  0
 28 29  1  0
 29 30  2  0
 29 31  1  0
 31 32  1  0
 32 33  2  0
 33 34  1  0
 34 35  2  0
 35 36  1  0
 36 37  1  0
 36 38  2  0
 38 39  1  0
 26  5  1  0
 38 32  1  0
 23  8  1  0
 22 17  1  0
  1 40  1  0
  1 41  1  0
  1 42  1  0
  7 43  1  0
  7 44  1  0
  9 45  1  0
 15 46  1  0
 15 47  1  0
 18 48  1  0
 19 49  1  0
 20 50  1  0
 21 51  1  0
 22 52  1  0
 28 53  1  0
 28 54  1  0
 33 55  1  0
 34 56  1  0
 35 57  1  0
 37 58  1  0
 37 59  1  0
 37 60  1  0
 39 61  1  0
 39 62  1  0
 39 63  1  0
M  CHG  3   4  -1  23  -1  31  -1
M  END
>  <UniqueID>  (2) 
2

>  <SMILES>  (2) 
CC(=O)[N-]n1c(Cc2csc(=NC(=O)COc3ccccc3)[n-]2)nnc1SCC(=O)[N-]c1cccc(C)c1C

>  <Energy>  (2) 
129.4283253274819

>  <Genealogy>  (2) 
CC(=O)[N-]n1c(Cc2csc(=NC(=O)COc3ccccc3)[n-]2)nnc1SCC(=O)[N-]c1cccc(C)c1C (protonated)
CC(=O)[N-]n1c(Cc2csc(=NC(=O)COc3ccccc3)[n-]2)nnc1SCC(=O)[N-]c1cccc(C)c1C (3D coordinates assigned)
CC(=O)[N-]n1c(Cc2csc(=NC(=O)COc3ccccc3)[n-]2)nnc1SCC(=O)[N-]c1cccc(C)c1C (optimized conformer: 129.4283253274819 kcal/mol)

>  <smiles>  (2) 
CC(=O)Nn1c(Cc2csc(=NC(=O)COc3ccccc3)[nH]2)nnc1SCC(=O)Nc1cccc(C)c1C

>  <score_type>  (2) 
oracle

>  <origin>  (2) 
adg

>  <m_score__min__energy>  (2) 
-14.56

>  <m_primary>  (2) 
energy

$$$$
2:0
     RDKit          3D

 60 63  0  0  0  0  0  0  0  0999 V2000
   61.3900   31.0370   49.6980 C   0  0  0  0  0  0  0  0  0  0  0  0
   60.4490   30.3490   48.7220 C   0  0  0  0  0  0  0  0  0  0  0  0
   59.4180   29.5050   49.2030 C   0  0  0  0  0  0  0  0  0  0  0  0
   59.2640   29.1520   50.6320 C   0  0  0  0  0  0  0  0  0  0  0  0
   60.0240   28.2770   51.1280 O   0  0  0  0  0  0  0  0  0  0  0  0
   58.2370   29.7580   51.4440 N   0  0  0  0  0  0  0  0  0  0  0  0
   57.7200   31.0880   51.0870 C   0  0  0  0  0  0  0  0  0  0  0  0
   56.7260   31.5860   52.1370 C   0  0  0  0  0  0  0  0  0  0  0  0
   55.7710   30.5170   52.4320 N   0  0  0  0  0  0  0  0  0  0  0  0
   56.4050   29.3540   53.0820 C   0  0  0  0  0  0  0  0  0  0  0  0
   57.9050   29.1870   52.7570 C   0  0  0  0  0  0  0  0  0  0  0  0
   58.5220   28.9400   48.3010 C   0  0  0  0  0  0  0  0  0  0  0  0
   58.6500   29.1610   46.9320 C   0  0  0  0  0  0  0  0  0  0  0  0
   57.6570   28.5230   45.9820 C   0  0  0  0  0  0  0  0  0  0  0  0
   57.5950   27.0270   46.1820 C   0  0  0  0  0  0  0  0  0  0  0  0
   58.7810   26.3040   46.3920 C   0  0  0  0  0  0  0  0  0  0  0  0
   58.7430   24.9220   46.5990 C   0  0  0  0  0  0  0  0  0  0  0  0
   57.5200   24.2450   46.6000 C   0  0  0  0  0  0  0  0  0  0  0  0
   57.4940   22.8680   46.8150 O   0  0  0  0  0  0  0  0  0  0  0  0
   56.3320   24.9570   46.3910 C   0  0  0  0  0  0  0  0  0  0  0  0
   56.3630   26.3400   46.1870 C   0  0  0  0  0  0  0  0  0  0  0  0
   55.1650   27.0200   45.9930 O   0  0  0  0  0  0  0  0  0  0  0  0
   59.6920   29.9860   46.4750 C   0  0  0  0  0  0  0  0  0  0  0  0
   59.8350   30.1620   45.2310 O   0  0  0  0  0  0  0  0  0  0  0  0
   60.5500   30.5960   47.3630 N   0  0  0  0  0  0  0  0  0  0  0  0
   61.6070   31.4870   46.8280 C   0  0  0  0  0  0  0  0  0  0  0  0
   61.1860   32.9330   46.8790 C   0  0  0  0  0  0  0  0  0  0  0  0
   62.0200   33.8030   47.2590 O   0  0  0  0  0  0  0  0  0  0  0  0
   59.8250   33.3630   46.4590 C   0  0  0  0  0  0  0  0  0  0  0  0
   59.6210   34.0830   45.2650 C   0  0  0  0  0  0  0  0  0  0  0  0
   58.3340   34.4810   44.8890 C   0  0  0  0  0  0  0  0  0  0  0  0
   57.2380   34.1790   45.7010 C   0  0  0  0  0  0  0  0  0  0  0  0
   57.4270   33.4610   46.8840 C   0  0  0  0  0  0  0  0  0  0  0  0
   58.7120   33.0590   47.2670 C   0  0  0  0  0  0  0  0  0  0  0  0
   61.0795   30.8100   50.7286 H   0  0  0  0  0  0  0  0  0  0  0  0
   62.4158   30.6744   49.5358 H   0  0  0  0  0  0  0  0  0  0  0  0
   61.3556   32.1244   49.5358 H   0  0  0  0  0  0  0  0  0  0  0  0
   58.5598   31.7954   51.0218 H   0  0  0  0  0  0  0  0  0  0  0  0
   57.2026   31.0161   50.1189 H   0  0  0  0  0  0  0  0  0  0  0  0
   57.2660   31.8621   53.0547 H   0  0  0  0  0  0  0  0  0  0  0  0
   56.1911   32.4678   51.7545 H   0  0  0  0  0  0  0  0  0  0  0  0
   55.0370   30.9010   53.0740 H   0  0  0  0  0  0  0  0  0  0  0  0
   56.2985   29.4670   54.1710 H   0  0  0  0  0  0  0  0  0  0  0  0
   55.8961   28.4591   52.6945 H   0  0  0  0  0  0  0  0  0  0  0  0
   58.4976   29.6986   53.5297 H   0  0  0  0  0  0  0  0  0  0  0  0
   58.1364   28.1118   52.7350 H   0  0  0  0  0  0  0  0  0  0  0  0
   57.7012   28.3100   48.6743 H   0  0  0  0  0  0  0  0  0  0  0  0
   56.6602   28.9511   46.1638 H   0  0  0  0  0  0  0  0  0  0  0  0
   57.9825   28.7238   44.9506 H   0  0  0  0  0  0  0  0  0  0  0  0
   59.7473   26.8295   46.3936 H   0  0  0  0  0  0  0  0  0  0  0  0
   59.6780   24.3658   46.7615 H   0  0  0  0  0  0  0  0  0  0  0  0
   56.9820   22.2500   46.1970 H   0  0  0  0  0  0  0  0  0  0  0  0
   55.3691   24.4251   46.3873 H   0  0  0  0  0  0  0  0  0  0  0  0
   62.5202   31.3589   47.4277 H   0  0  0  0  0  0  0  0  0  0  0  0
   61.7883   31.2164   45.7773 H   0  0  0  0  0  0  0  0  0  0  0  0
   60.4795   34.3336   44.6245 H   0  0  0  0  0  0  0  0  0  0  0  0
   58.1841   35.0341   43.9501 H   0  0  0  0  0  0  0  0  0  0  0  0
   56.2289   34.5058   45.4094 H   0  0  0  0  0  0  0  0  0  0  0  0
   56.5630   33.2105   47.5170 H   0  0  0  0  0  0  0  0  0  0  0  0
   58.8535   32.5021   48.2050 H   0  0  0  0  0  0  0  0  0  0  0  0
  1  2  1  0
  2  3  2  0
  3  4  1  0
  4  5  2  0
  4  6  1  0
  6  7  1  0
  7  8  1  0
  8  9  1  0
  9 10  1  0
 10 11  1  0
  3 12  1  0
 12 13  2  0
 13 14  1  0
 14 15  1  0
 15 16  2  0
 16 17  1  0
 17 18  2  0
 18 19  1  0
 18 20  1  0
 20 21  2  0
 21 22  1  0
 13 23  1  0
 23 24  2  0
 23 25  1  0
 25 26  1  0
 26 27  1  0
 27 28  2  0
 27 29  1  0
 29 30  2  0
 30 31  1  0
 31 32  2  0
 32 33  1  0
 33 34  2  0
 25  2  1  0
 34 29  1  0
 11  6  1  0
 21 15  1  0
  1 35  1  0
  1 36  1  0
  1 37  1  0
  7 38  1  0
  7 39  1  0
  8 40  1  0
  8 41  1  0
  9 42  1  0
 10 43  1  0
 10 44  1  0
 11 45  1  0
 11 46  1  0
 12 47  1  0
 14 48  1  0
 14 49  1  0
 16 50  1  0
 17 51  1  0
 19 52  1  0
 20 53  1  0
 26 54  1  0
 26 55  1  0
 30 56  1  0
 31 57  1  0
 32 58  1  0
 33 59  1  0
 34 60  1  0
M  CHG  1  22  -1
M  END
>  <UniqueID>  (3) 
3

>  <SMILES>  (3) 
Cc1c(C(=O)N2CCNCC2)cc(Cc2ccc(O)cc2[O-])c(=O)n1CC(=O)c1ccccc1

>  <Energy>  (3) 
84.28567595740161

>  <Genealogy>  (3) 
Cc1c(C(=O)N2CCNCC2)cc(Cc2ccc(O)cc2[O-])c(=O)n1CC(=O)c1ccccc1 (protonated)
Cc1c(C(=O)N2CCNCC2)cc(Cc2ccc(O)cc2[O-])c(=O)n1CC(=O)c1ccccc1 (3D coordinates assigned)
Cc1c(C(=O)N2CCNCC2)cc(Cc2ccc(O)cc2[O-])c(=O)n1CC(=O)c1ccccc1 (nonaromatic ring conformer: 84.28567595740161 kcal/mol)

>  <smiles>  (3) 
Cc1c(C(=O)N2CCNCC2)cc(Cc2ccc(O)cc2O)c(=O)n1CC(=O)c1ccccc1

>  <score_type>  (3) 
oracle

>  <origin>  (3) 
adg

>  <m_score__min__energy>  (3) 
-12.130000000000001

>  <m_primary>  (3) 
energy

$$$$
3:0
     RDKit          3D

 44 46  0  0  0  0  0  0  0  0999 V2000
   54.6510   23.7010   45.9290 C   0  0  0  0  0  0  0  0  0  0  0  0
   55.8020   24.5150   46.2990 N   0  0  0  0  0  0  0  0  0  0  0  0
   55.8860   25.8550   46.3070 C   0  0  0  0  0  0  0  0  0  0  0  0
   54.8330   26.7160   46.0110 O   0  0  0  0  0  0  0  0  0  0  0  0
   57.1740   26.2190   46.6520 C   0  0  0  0  0  0  0  0  0  0  0  0
   57.6910   27.6120   46.8480 C   0  0  0  0  0  0  0  0  0  0  0  0
   58.1860   28.1690   45.5400 C   0  0  0  0  0  0  0  0  0  0  0  0
   57.8420   27.5940   44.4700 O   0  0  0  0  0  0  0  0  0  0  0  0
   59.1590   29.2200   45.4780 N   0  0  0  0  0  0  0  0  0  0  0  0
   58.8890   30.6280   45.4060 C   0  0  0  0  0  0  0  0  0  0  0  0
   59.3160   31.4930   46.4280 C   0  0  0  0  0  0  0  0  0  0  0  0
   59.0450   32.8670   46.3590 C   0  0  0  0  0  0  0  0  0  0  0  0
   59.6370   33.9560   47.6210 S   0  0  0  0  0  0  0  0  0  0  0  0
   59.1900   35.3570   47.3070 O   0  0  0  0  0  0  0  0  0  0  0  0
   59.0300   33.5550   48.9390 O   0  0  0  0  0  0  0  0  0  0  0  0
   61.3810   33.9330   47.7700 N   0  0  0  0  0  0  0  0  0  0  0  0
   62.0350   33.8620   46.4660 C   0  0  0  0  0  0  0  0  0  0  0  0
   63.4010   33.2470   46.7130 C   0  0  0  0  0  0  0  0  0  0  0  0
   63.2280   32.4020   47.9630 C   0  0  0  0  0  0  0  0  0  0  0  0
   61.8580   32.7700   48.5220 C   0  0  0  0  0  0  0  0  0  0  0  0
   58.2930   33.3670   45.2900 C   0  0  0  0  0  0  0  0  0  0  0  0
   57.8290   32.5090   44.2900 C   0  0  0  0  0  0  0  0  0  0  0  0
   58.1170   31.1400   44.3440 C   0  0  0  0  0  0  0  0  0  0  0  0
   57.6370   30.3110   43.3290 O   0  0  0  0  0  0  0  0  0  0  0  0
   57.9170   25.1070   46.8490 N   0  0  0  0  0  0  0  0  0  0  0  0
   57.0480   24.0970   46.6130 C   0  0  0  0  0  0  0  0  0  0  0  0
   57.3770   22.8810   46.6790 O   0  0  0  0  0  0  0  0  0  0  0  0
   54.1465   23.3442   46.8390 H   0  0  0  0  0  0  0  0  0  0  0  0
   53.9503   24.3055   45.3344 H   0  0  0  0  0  0  0  0  0  0  0  0
   54.9875   22.8389   45.3344 H   0  0  0  0  0  0  0  0  0  0  0  0
   56.8813   28.2499   47.2319 H   0  0  0  0  0  0  0  0  0  0  0  0
   58.5228   27.5894   47.5674 H   0  0  0  0  0  0  0  0  0  0  0  0
   59.8676   31.0886   47.2895 H   0  0  0  0  0  0  0  0  0  0  0  0
   61.4508   33.2313   45.7798 H   0  0  0  0  0  0  0  0  0  0  0  0
   62.1197   34.8568   46.0042 H   0  0  0  0  0  0  0  0  0  0  0  0
   63.7033   32.6204   45.8609 H   0  0  0  0  0  0  0  0  0  0  0  0
   64.1835   34.0106   46.8340 H   0  0  0  0  0  0  0  0  0  0  0  0
   63.2648   31.3319   47.7109 H   0  0  0  0  0  0  0  0  0  0  0  0
   64.0287   32.5886   48.6938 H   0  0  0  0  0  0  0  0  0  0  0  0
   61.1612   31.9282   48.3961 H   0  0  0  0  0  0  0  0  0  0  0  0
   61.9234   32.9996   49.5958 H   0  0  0  0  0  0  0  0  0  0  0  0
   58.0659   34.4420   45.2368 H   0  0  0  0  0  0  0  0  0  0  0  0
   57.2346   32.9109   43.4563 H   0  0  0  0  0  0  0  0  0  0  0  0
   57.9820   29.3670   43.1940 H   0  0  0  0  0  0  0  0  0  0  0  0
  1  2  1  0
  2  3  1  0
  3  4  1  0
  3  5  2  0
  5  6  1  0
  6  7  1  0
  7  8  2  0
  7  9  1  0
  9 10  1  0
 10 11  2  0
 11 12  1  0
 12 13  1  0
 13 14  2  0
 13 15  2  0
 13 16  1  0
 16 17  1  0
 17 18  1  0
 18 19  1  0
 19 20  1  0
 12 21  2  0
 21 22  1  0
 22 23  2  0
 23 24  1  0
  5 25  1  0
 25 26  1  0
 26 27  2  0
 26  2  1  0
 23 10  1  0
 20 16  1  0
  1 28  1  0
  1 29  1  0
  1 30  1  0
  6 31  1  0
  6 32  1  0
 11 33  1  0
 17 34  1  0
 17 35  1  0
 18 36  1  0
 18 37  1  0
 19 38  1  0
 19 39  1  0
 20 40  1  0
 20 41  1  0
 21 42  1  0
 22 43  1  0
 24 44  1  0
M  CHG  3   4  -1   9  -1  25  -1
M  END
>  <UniqueID>  (4) 
4

>  <SMILES>  (4) 
Cn1c([O-])c(CC(=O)[N-]c2cc(S(=O)(=O)N3CCCC3)ccc2O)[n-]c1=O

>  <Energy>  (4) 
79.34228977466171

>  <Genealogy>  (4) 
Cn1c([O-])c(CC(=O)[N-]c2cc(S(=O)(=O)N3CCCC3)ccc2O)[n-]c1=O (protonated)
Cn1c([O-])c(CC(=O)[N-]c2cc(S(=O)(=O)N3CCCC3)ccc2O)[n-]c1=O (3D coordinates assigned)
Cn1c([O-])c(CC(=O)[N-]c2cc(S(=O)(=O)N3CCCC3)ccc2O)[n-]c1=O (nonaromatic ring conformer: 79.34228977466171 kcal/mol)

>  <smiles>  (4) 
Cn1c(O)c(CC(=O)Nc2cc(S(=O)(=O)N3CCCC3)ccc2O)[nH]c1=O

>  <score_type>  (4) 
oracle

>  <origin>  (4) 
adg

>  <m_score__min__energy>  (4) 
-15.4

>  <m_primary>  (4) 
energy

$$$$
4:0
     RDKit          3D

 36 38  0  0  0  0  0  0  0  0999 V2000
   60.2460   27.0410   47.0460 C   0  0  0  0  0  0  0  0  0  0  0  0
   60.2300   27.7670   45.9300 C   0  0  0  0  0  0  0  0  0  0  0  0
   59.1980   28.7980   45.6630 C   0  0  0  0  0  0  0  0  0  0  0  0
   59.5860   30.1390   45.7810 C   0  0  0  0  0  0  0  0  0  0  0  0
   58.6570   31.1660   45.5830 C   0  0  0  0  0  0  0  0  0  0  0  0
   59.0580   32.5890   45.7260 C   0  0  0  0  0  0  0  0  0  0  0  0
   58.5260   33.5720   44.8690 C   0  0  0  0  0  0  0  0  0  0  0  0
   58.9060   34.9100   45.0050 C   0  0  0  0  0  0  0  0  0  0  0  0
   59.8170   35.2830   45.9960 C   0  0  0  0  0  0  0  0  0  0  0  0
   60.3520   34.3190   46.8520 C   0  0  0  0  0  0  0  0  0  0  0  0
   59.9760   32.9780   46.7200 C   0  0  0  0  0  0  0  0  0  0  0  0
   57.3420   30.8250   45.2510 C   0  0  0  0  0  0  0  0  0  0  0  0
   56.9810   29.4830   45.1030 C   0  0  0  0  0  0  0  0  0  0  0  0
   55.7950   29.2090   44.7700 O   0  0  0  0  0  0  0  0  0  0  0  0
   57.9030   28.4850   45.3000 N   0  0  0  0  0  0  0  0  0  0  0  0
   57.5120   27.1190   45.0420 C   0  0  0  0  0  0  0  0  0  0  0  0
   56.8340   26.3780   46.0240 C   0  0  0  0  0  0  0  0  0  0  0  0
   56.4560   25.0560   45.7720 C   0  0  0  0  0  0  0  0  0  0  0  0
   56.7460   24.4680   44.5380 C   0  0  0  0  0  0  0  0  0  0  0  0
   57.4140   25.2020   43.5520 C   0  0  0  0  0  0  0  0  0  0  0  0
   57.7950   26.5240   43.8010 C   0  0  0  0  0  0  0  0  0  0  0  0
   61.0319   26.2870   47.2004 H   0  0  0  0  0  0  0  0  0  0  0  0
   59.4733   27.1952   47.8136 H   0  0  0  0  0  0  0  0  0  0  0  0
   61.0129   27.5953   45.1766 H   0  0  0  0  0  0  0  0  0  0  0  0
   60.6283   30.3861   46.0311 H   0  0  0  0  0  0  0  0  0  0  0  0
   57.8069   33.2848   44.0877 H   0  0  0  0  0  0  0  0  0  0  0  0
   58.4868   35.6709   44.3303 H   0  0  0  0  0  0  0  0  0  0  0  0
   60.1130   36.3371   46.1019 H   0  0  0  0  0  0  0  0  0  0  0  0
   61.0701   34.6141   47.6313 H   0  0  0  0  0  0  0  0  0  0  0  0
   60.4005   32.2224   47.3974 H   0  0  0  0  0  0  0  0  0  0  0  0
   56.5902   31.6148   45.1060 H   0  0  0  0  0  0  0  0  0  0  0  0
   56.5997   26.8396   46.9946 H   0  0  0  0  0  0  0  0  0  0  0  0
   55.9297   24.4780   46.5459 H   0  0  0  0  0  0  0  0  0  0  0  0
   56.4488   23.4272   44.3417 H   0  0  0  0  0  0  0  0  0  0  0  0
   57.6396   24.7387   42.5802 H   0  0  0  0  0  0  0  0  0  0  0  0
   58.3178   27.0999   43.0231 H   0  0  0  0  0  0  0  0  0  0  0  0
  1  2  2  0
  2  3  1  0
  3  4  2  0
  4  5  1  0
  5  6  1  0
  6  7  2  0
  7  8  1  0
  8  9  2  0
  9 10  1  0
 10 11  2  0
  5 12  2  0
 12 13  1  0
 13 14  2  0
 13 15  1  0
 15 16  1  0
 16 17  2  0
 17 18  1  0
 18 19  2  0
 19 20  1  0
 20 21  2  0
 15  3  1  0
 21 16  1  0
 11  6  1  0
  1 22  1  0
  1 23  1  0
  2 24  1  0
  4 25  1  0
  7 26  1  0
  8 27  1  0
  9 28  1  0
 10 29  1  0
 11 30  1  0
 12 31  1  0
 17 32  1  0
 18 33  1  0
 19 34  1  0
 20 35  1  0
 21 36  1  0
M  END
>  <UniqueID>  (5) 
5

>  <SMILES>  (5) 
C=Cc1cc(-c2ccccc2)cc(=O)n1-c1ccccc1

>  <Energy>  (5) 
59.142641845405024

>  <Genealogy>  (5) 
C=Cc1cc(-c2ccccc2)cc(=O)n1-c1ccccc1 (3D coordinates assigned)
C=Cc1cc(-c2ccccc2)cc(=O)n1-c1ccccc1 (optimized conformer: 59.142641845405024 kcal/mol)

>  <smiles>  (5) 
C=Cc1cc(-c2ccccc2)cc(=O)n1-c1ccccc1

>  <score_type>  (5) 
oracle

>  <origin>  (5) 
adg

>  <m_score__min__energy>  (5) 
-7.3600000000000003

>  <m_primary>  (5) 
energy

$$$$
5:0
     RDKit          3D

 53 55  0  0  0  0  0  0  0  0999 V2000
   59.1520   30.5110   46.7970 O   0  0  0  0  0  0  0  0  0  0  0  0
   58.8680   30.8380   47.9780 C   0  0  0  0  0  0  0  0  0  0  0  0
   58.4620   32.2620   48.2550 C   0  0  0  0  0  0  0  0  0  0  0  0
   58.6820   33.1830   47.0730 C   0  0  0  0  0  0  0  0  0  0  0  0
   57.9450   32.9500   45.8960 C   0  0  0  0  0  0  0  0  0  0  0  0
   58.0470   33.8130   44.8040 C   0  0  0  0  0  0  0  0  0  0  0  0
   58.8900   34.9200   44.8660 C   0  0  0  0  0  0  0  0  0  0  0  0
   59.6570   35.1500   46.0080 C   0  0  0  0  0  0  0  0  0  0  0  0
   59.5950   34.2740   47.1030 C   0  0  0  0  0  0  0  0  0  0  0  0
   60.4610   34.5310   48.2210 N   0  0  0  0  0  0  0  0  0  0  0  0
   61.4150   33.5990   48.7730 C   0  0  0  0  0  0  0  0  0  0  0  0
   61.2380   32.9920   50.0450 C   0  0  0  0  0  0  0  0  0  0  0  0
   59.7910   33.2140   51.0240 Cl  0  0  0  0  0  0  0  0  0  0  0  0
   62.2070   32.1120   50.5400 C   0  0  0  0  0  0  0  0  0  0  0  0
   63.3330   31.7980   49.7820 C   0  0  0  0  0  0  0  0  0  0  0  0
   63.4920   32.3450   48.5110 C   0  0  0  0  0  0  0  0  0  0  0  0
   62.5370   33.2280   47.9970 C   0  0  0  0  0  0  0  0  0  0  0  0
   62.7850   33.8630   46.3740 Cl  0  0  0  0  0  0  0  0  0  0  0  0
   58.8900   29.8190   48.9890 N   0  0  0  0  0  0  0  0  0  0  0  0
   60.0090   28.9460   49.3260 C   0  0  0  0  0  0  0  0  0  0  0  0
   59.9910   27.7030   48.4880 C   0  0  0  0  0  0  0  0  0  0  0  0
   60.7830   26.7610   48.7630 O   0  0  0  0  0  0  0  0  0  0  0  0
   59.1100   27.6040   47.3610 N   0  0  0  0  0  0  0  0  0  0  0  0
   59.0890   26.4440   46.4710 C   0  0  0  0  0  0  0  0  0  0  0  0
   57.7330   26.3290   45.7690 C   0  0  0  0  0  0  0  0  0  0  0  0
   56.9060   27.5140   46.0050 N   0  0  0  0  0  0  0  0  0  0  0  0
   56.8070   28.5290   45.1980 C   0  0  0  0  0  0  0  0  0  0  0  0
   57.9680   29.0880   44.6500 C   0  0  0  0  0  0  0  0  0  0  0  0
   57.8620   30.1730   43.7770 C   0  0  0  0  0  0  0  0  0  0  0  0
   56.6040   30.6900   43.4610 C   0  0  0  0  0  0  0  0  0  0  0  0
   55.4660   30.1110   44.0290 C   0  0  0  0  0  0  0  0  0  0  0  0
   55.5900   29.0560   44.8760 N   0  0  0  0  0  0  0  0  0  0  0  0
   57.3936   32.2769   48.5164 H   0  0  0  0  0  0  0  0  0  0  0  0
   59.0925   32.6287   49.0784 H   0  0  0  0  0  0  0  0  0  0  0  0
   57.2798   32.0759   45.8365 H   0  0  0  0  0  0  0  0  0  0  0  0
   57.4611   33.6188   43.8935 H   0  0  0  0  0  0  0  0  0  0  0  0
   58.9509   35.6131   44.0140 H   0  0  0  0  0  0  0  0  0  0  0  0
   60.3182   36.0281   46.0510 H   0  0  0  0  0  0  0  0  0  0  0  0
   60.4830   35.5130   48.5760 H   0  0  0  0  0  0  0  0  0  0  0  0
   62.0785   31.6642   51.5365 H   0  0  0  0  0  0  0  0  0  0  0  0
   64.0966   31.1179   50.1874 H   0  0  0  0  0  0  0  0  0  0  0  0
   64.3735   32.0811   47.9082 H   0  0  0  0  0  0  0  0  0  0  0  0
   60.9516   29.4850   49.1501 H   0  0  0  0  0  0  0  0  0  0  0  0
   59.9224   28.6572   50.3839 H   0  0  0  0  0  0  0  0  0  0  0  0
   58.5220   28.4300   47.1040 H   0  0  0  0  0  0  0  0  0  0  0  0
   59.8798   26.5543   45.7144 H   0  0  0  0  0  0  0  0  0  0  0  0
   59.2580   25.5355   47.0678 H   0  0  0  0  0  0  0  0  0  0  0  0
   57.8985   26.2180   44.6872 H   0  0  0  0  0  0  0  0  0  0  0  0
   57.2063   25.4531   46.1757 H   0  0  0  0  0  0  0  0  0  0  0  0
   58.9555   28.6759   44.9050 H   0  0  0  0  0  0  0  0  0  0  0  0
   58.7673   30.6191   43.3395 H   0  0  0  0  0  0  0  0  0  0  0  0
   56.5098   31.5431   42.7730 H   0  0  0  0  0  0  0  0  0  0  0  0
   54.4690   30.5098   43.7901 H   0  0  0  0  0  0  0  0  0  0  0  0
  1  2  2  0
  2  3  1  0
  3  4  1  0
  4  5  2  0
  5  6  1  0
  6  7  2  0
  7  8  1  0
  8  9  2  0
  9 10  1  0
 10 11  1  0
 11 12  2  0
 12 13  1  0
 12 14  1  0
 14 15  2  0
 15 16  1  0
 16 17  2  0
 17 18  1  0
  2 19  1  0
 19 20  1  0
 20 21  1  0
 21 22  2  0
 21 23  1  0
 23 24  1  0
 24 25  1  0
 25 26  1  0
 26 27  2  3
 27 28  1  0
 28 29  2  0
 29 30  1  0
 30 31  2  0
 31 32  1  0
  9  4  1  0
 17 11  1  0
 32 27  1  0
  3 33  1  0
  3 34  1  0
  5 35  1  0
  6 36  1  0
  7 37  1  0
  8 38  1  0
 10 39  1  0
 14 40  1  0
 15 41  1  0
 16 42  1  0
 20 43  1  0
 20 44  1  0
 23 45  1  0
 24 46  1  0
 24 47  1  0
 25 48  1  0
 25 49  1  0
 28 50  1  0
 29 51  1  0
 30 52  1  0
 31 53  1  0
M  CHG  2  19  -1  32  -1
M  END
>  <UniqueID>  (6) 
6

>  <SMILES>  (6) 
O=C(Cc1ccccc1Nc1c(Cl)cccc1Cl)[N-]CC(=O)NCCN=c1cccc[n-]1

>  <Energy>  (6) 
61.31617172618412

>  <Genealogy>  (6) 
O=C(Cc1ccccc1Nc1c(Cl)cccc1Cl)[N-]CC(=O)NCCN=c1cccc[n-]1 (protonated)
O=C(Cc1ccccc1Nc1c(Cl)cccc1Cl)[N-]CC(=O)NCCN=c1cccc[n-]1 (3D coordinates assigned)
O=C(Cc1ccccc1Nc1c(Cl)cccc1Cl)[N-]CC(=O)NCCN=c1cccc[n-]1 (optimized conformer: 61.31617172618412 kcal/mol)

>  <smiles>  (6) 
O=C(CNC(=O)Cc1ccccc1Nc1c(Cl)cccc1Cl)NCCN=c1cccc[nH]1

>  <score_type>  (6) 
oracle

>  <origin>  (6) 
adg

>  <m_score__min__energy>  (6) 
-12.26

>  <m_primary>  (6) 
energy

$$$$
6:0
     RDKit          3D

 36 37  0  0  0  0  0  0  0  0999 V2000
   55.5090   26.7590   46.6870 H   0  0  0  0  0  0  0  0  0  0  0  0
   54.8360   26.3450   46.0550 O   0  0  0  0  0  0  0  0  0  0  0  0
   54.9020   25.0200   45.6220 C   0  0  0  0  0  0  0  0  0  0  0  0
   53.8850   24.1850   45.9620 N   0  0  0  0  0  0  0  0  0  0  0  0
   53.8760   22.8870   45.5720 C   0  0  0  0  0  0  0  0  0  0  0  0
   52.9160   22.1410   45.8980 O   0  0  0  0  0  0  0  0  0  0  0  0
   54.8990   22.3920   44.8360 N   0  0  0  0  0  0  0  0  0  0  0  0
   55.9460   23.1730   44.4690 C   0  0  0  0  0  0  0  0  0  0  0  0
   56.8960   22.6570   43.8230 O   0  0  0  0  0  0  0  0  0  0  0  0
   55.9740   24.5360   44.8390 C   0  0  0  0  0  0  0  0  0  0  0  0
   57.1060   25.4230   44.4750 C   0  0  0  0  0  0  0  0  0  0  0  0
   57.3744   25.5268   43.4133 H   0  0  0  0  0  0  0  0  0  0  0  0
   57.8140   26.1020   45.3850 C   0  0  0  0  0  0  0  0  0  0  0  0
   58.8126   25.7350   45.6646 H   0  0  0  0  0  0  0  0  0  0  0  0
   57.2980   27.3280   46.0260 C   0  0  0  0  0  0  0  0  0  0  0  0
   57.5940   27.5530   47.2290 O   0  0  0  0  0  0  0  0  0  0  0  0
   56.4490   28.2580   45.3370 N   0  0  0  0  0  0  0  0  0  0  0  0
   56.8330   29.4080   44.8670 C   0  0  0  0  0  0  0  0  0  0  0  0
   57.3370   30.4050   45.6270 N   0  0  0  0  0  0  0  0  0  0  0  0
   57.6240   31.5130   44.8870 C   0  0  0  0  0  0  0  0  0  0  0  0
   58.1710   32.7890   45.5140 C   0  0  0  0  0  0  0  0  0  0  0  0
   57.0680   33.4830   46.3390 C   0  0  0  0  0  0  0  0  0  0  0  0
   57.2753   33.3526   47.4114 H   0  0  0  0  0  0  0  0  0  0  0  0
   57.0493   34.5559   46.0970 H   0  0  0  0  0  0  0  0  0  0  0  0
   56.0927   33.0355   46.0970 H   0  0  0  0  0  0  0  0  0  0  0  0
   58.6590   33.7680   44.4240 C   0  0  0  0  0  0  0  0  0  0  0  0
   59.1014   34.6556   44.8998 H   0  0  0  0  0  0  0  0  0  0  0  0
   59.4154   33.2722   43.7979 H   0  0  0  0  0  0  0  0  0  0  0  0
   57.8078   34.0736   43.7979 H   0  0  0  0  0  0  0  0  0  0  0  0
   59.3560   32.4360   46.4330 C   0  0  0  0  0  0  0  0  0  0  0  0
   59.0451   32.5286   47.4841 H   0  0  0  0  0  0  0  0  0  0  0  0
   59.6781   31.4029   46.2355 H   0  0  0  0  0  0  0  0  0  0  0  0
   60.1909   33.1244   46.2355 H   0  0  0  0  0  0  0  0  0  0  0  0
   57.3220   31.3890   43.5260 C   0  0  0  0  0  0  0  0  0  0  0  0
   57.4706   32.1655   42.7612 H   0  0  0  0  0  0  0  0  0  0  0  0
   56.6930   29.8510   43.2570 S   0  0  0  0  0  0  0  0  0  0  0  0
  1  2  1  0
  2  3  1  0
  3  4  1  0
  4  5  1  0
  5  6  2  0
  5  7  1  0
  7  8  1  0
  8  9  2  0
  8 10  1  0
 10 11  1  0
 11 12  1  0
 11 13  2  0
 13 14  1  0
 13 15  1  0
 15 16  2  0
 15 17  1  0
 17 18  2  3
 18 19  1  0
 19 20  1  0
 20 21  1  0
 21 22  1  0
 22 23  1  0
 22 24  1  0
 22 25  1  0
 21 26  1  0
 26 27  1  0
 26 28  1  0
 26 29  1  0
 21 30  1  0
 30 31  1  0
 30 32  1  0
 30 33  1  0
 20 34  2  0
 34 35  1  0
 34 36  1  0
 10  3  2  0
 36 18  1  0
M  CHG  3   4  -1   7  -1  19  -1
M  END
>  <UniqueID>  (7) 
7

>  <SMILES>  (7) 
CC(C)(C)c1csc(=NC(=O)/C=C/c2c(O)[n-]c(=O)[n-]c2=O)[n-]1

>  <Energy>  (7) 
73.98836771464151

>  <Genealogy>  (7) 
CC(C)(C)c1csc(=NC(=O)C=Cc2c(O)[n-]c(=O)[n-]c2=O)[n-]1 (protonated)
CC(C)(C)c1csc(=NC(=O)/C=C/c2c(O)[n-]c(=O)[n-]c2=O)[n-]1 (cis-trans isomerization)
CC(C)(C)c1csc(=NC(=O)/C=C/c2c(O)[n-]c(=O)[n-]c2=O)[n-]1 (3D coordinates assigned)
CC(C)(C)c1csc(=NC(=O)/C=C/c2c(O)[n-]c(=O)[n-]c2=O)[n-]1 (optimized conformer: 73.98836771464151 kcal/mol)

>  <smiles>  (7) 
CC(C)(C)c1csc(=NC(=O)C=Cc2c(O)[nH]c(=O)[nH]c2=O)[nH]1

>  <score_type>  (7) 
oracle

>  <origin>  (7) 
adg

>  <m_score__min__energy>  (7) 
-14.210000000000001

>  <m_primary>  (7) 
energy

$$$$
7:0
     RDKit          3D

 72 77  0  0  0  0  0  0  0  0999 V2000
   62.9394   34.2590   50.3568 H   0  0  0  0  0  0  0  0  0  0  0  0
   62.8870   33.6270   49.4580 C   0  0  0  0  0  0  0  0  0  0  0  0
   63.7390   32.6490   49.1960 C   0  0  0  0  0  0  0  0  0  0  0  0
   64.8890   32.2740   50.0610 C   0  0  0  0  0  0  0  0  0  0  0  0
   66.0750   33.0280   49.9820 C   0  0  0  0  0  0  0  0  0  0  0  0
   66.1328   33.8780   49.2861 H   0  0  0  0  0  0  0  0  0  0  0  0
   67.1780   32.7110   50.7750 C   0  0  0  0  0  0  0  0  0  0  0  0
   68.0987   33.3081   50.6993 H   0  0  0  0  0  0  0  0  0  0  0  0
   67.1150   31.6400   51.6620 C   0  0  0  0  0  0  0  0  0  0  0  0
   67.9809   31.4021   52.2974 H   0  0  0  0  0  0  0  0  0  0  0  0
   65.9570   30.8680   51.7470 C   0  0  0  0  0  0  0  0  0  0  0  0
   65.9121   30.0285   52.4564 H   0  0  0  0  0  0  0  0  0  0  0  0
   64.8440   31.1540   50.9320 C   0  0  0  0  0  0  0  0  0  0  0  0
   63.6590   30.3450   51.0000 N   0  0  0  0  0  0  0  0  0  0  0  0
   62.7240   30.2940   52.0830 C   0  0  0  0  0  0  0  0  0  0  0  0
   62.8900   31.0610   53.0680 O   0  0  0  0  0  0  0  0  0  0  0  0
   61.5620   29.4580   52.0030 N   0  0  0  0  0  0  0  0  0  0  0  0
   61.0140   28.8650   50.8140 C   0  0  0  0  0  0  0  0  0  0  0  0
   61.2410   27.5110   50.5150 C   0  0  0  0  0  0  0  0  0  0  0  0
   61.7957   26.8822   51.2270 H   0  0  0  0  0  0  0  0  0  0  0  0
   60.7710   26.9560   49.3260 C   0  0  0  0  0  0  0  0  0  0  0  0
   60.9358   25.8881   49.1198 H   0  0  0  0  0  0  0  0  0  0  0  0
   60.0930   27.7440   48.3950 C   0  0  0  0  0  0  0  0  0  0  0  0
   59.7220   27.1680   47.1730 O   0  0  0  0  0  0  0  0  0  0  0  0
   58.3870   26.9820   46.7810 C   0  0  0  0  0  0  0  0  0  0  0  0
   57.7900   27.9310   46.0140 N   0  0  0  0  0  0  0  0  0  0  0  0
   56.4950   27.8090   45.6050 C   0  0  0  0  0  0  0  0  0  0  0  0
   55.9370   28.7020   44.8430 N   0  0  0  0  0  0  0  0  0  0  0  0
   56.5580   29.8580   44.2540 C   0  0  0  0  0  0  0  0  0  0  0  0
   56.4220   30.1680   42.8880 C   0  0  0  0  0  0  0  0  0  0  0  0
   55.7945   29.5364   42.2420 H   0  0  0  0  0  0  0  0  0  0  0  0
   57.0820   31.2760   42.3500 C   0  0  0  0  0  0  0  0  0  0  0  0
   56.9577   31.5245   41.2857 H   0  0  0  0  0  0  0  0  0  0  0  0
   57.8990   32.0690   43.1590 C   0  0  0  0  0  0  0  0  0  0  0  0
   58.4145   32.9412   42.7305 H   0  0  0  0  0  0  0  0  0  0  0  0
   58.0640   31.7560   44.5170 C   0  0  0  0  0  0  0  0  0  0  0  0
   59.0000   32.5650   45.3730 C   0  0  0  0  0  0  0  0  0  0  0  0
   59.8707   32.8664   44.7721 H   0  0  0  0  0  0  0  0  0  0  0  0
   59.3223   31.9502   46.2263 H   0  0  0  0  0  0  0  0  0  0  0  0
   58.1780   34.0270   45.9920 S   0  0  0  0  0  0  0  0  0  0  0  0
   57.2420   33.6500   47.1060 O   0  0  0  0  0  0  0  0  0  0  0  0
   57.3900   34.6540   44.8790 O   0  0  0  0  0  0  0  0  0  0  0  0
   59.3720   35.2010   46.5970 C   0  0  0  0  0  0  0  0  0  0  0  0
   59.3666   35.1957   47.6970 H   0  0  0  0  0  0  0  0  0  0  0  0
   60.3732   34.9259   46.2339 H   0  0  0  0  0  0  0  0  0  0  0  0
   59.1138   36.2067   46.2339 H   0  0  0  0  0  0  0  0  0  0  0  0
   57.4000   30.6420   45.0540 C   0  0  0  0  0  0  0  0  0  0  0  0
   57.5420   30.3819   46.1133 H   0  0  0  0  0  0  0  0  0  0  0  0
   55.7830   26.7060   45.9590 N   0  0  0  0  0  0  0  0  0  0  0  0
   56.3310   25.7310   46.7290 C   0  0  0  0  0  0  0  0  0  0  0  0
   55.7342   24.8512   47.0113 H   0  0  0  0  0  0  0  0  0  0  0  0
   57.6510   25.8470   47.1610 C   0  0  0  0  0  0  0  0  0  0  0  0
   58.1074   25.0659   47.7867 H   0  0  0  0  0  0  0  0  0  0  0  0
   59.8190   29.0970   48.6860 C   0  0  0  0  0  0  0  0  0  0  0  0
   59.0730   29.8940   47.7980 C   0  0  0  0  0  0  0  0  0  0  0  0
   58.6781   29.4538   46.8705 H   0  0  0  0  0  0  0  0  0  0  0  0
   58.8300   31.2380   48.0840 C   0  0  0  0  0  0  0  0  0  0  0  0
   58.2469   31.8515   47.3815 H   0  0  0  0  0  0  0  0  0  0  0  0
   59.3240   31.8050   49.2570 C   0  0  0  0  0  0  0  0  0  0  0  0
   59.1405   32.8681   49.4719 H   0  0  0  0  0  0  0  0  0  0  0  0
   60.0510   31.0280   50.1600 C   0  0  0  0  0  0  0  0  0  0  0  0
   60.4315   31.4821   51.0869 H   0  0  0  0  0  0  0  0  0  0  0  0
   60.3020   29.6670   49.8950 C   0  0  0  0  0  0  0  0  0  0  0  0
   63.4540   32.0190   47.8750 C   0  0  0  0  0  0  0  0  0  0  0  0
   63.4071   30.9239   47.9675 H   0  0  0  0  0  0  0  0  0  0  0  0
   64.2356   32.2311   47.1306 H   0  0  0  0  0  0  0  0  0  0  0  0
   62.0940   32.5870   47.4720 C   0  0  0  0  0  0  0  0  0  0  0  0
   61.3071   31.8298   47.6040 H   0  0  0  0  0  0  0  0  0  0  0  0
   62.0757   32.8884   46.4142 H   0  0  0  0  0  0  0  0  0  0  0  0
   61.8530   33.7760   48.4040 C   0  0  0  0  0  0  0  0  0  0  0  0
   60.8435   33.7327   48.8388 H   0  0  0  0  0  0  0  0  0  0  0  0
   61.9198   34.7416   47.8814 H   0  0  0  0  0  0  0  0  0  0  0  0
  1  2  1  0
  2  3  2  0
  3  4  1  0
  4  5  2  0
  5  6  1  0
  5  7  1  0
  7  8  1  0
  7  9  2  0
  9 10  1  0
  9 11  1  0
 11 12  1  0
 11 13  2  0
 13 14  1  0
 14 15  1  0
 15 16  2  0
 15 17  1  0
 17 18  1  0
 18 19  2  0
 19 20  1  0
 19 21  1  0
 21 22  1  0
 21 23  2  0
 23 24  1  0
 24 25  1  0
 25 26  2  0
 26 27  1  0
 27 28  2  0
 28 29  1  0
 29 30  2  0
 30 31  1  0
 30 32  1  0
 32 33  1  0
 32 34  2  0
 34 35  1  0
 34 36  1  0
 36 37  1  0
 37 38  1  0
 37 39  1  0
 37 40  1  0
 40 41  2  0
 40 42  2  0
 40 43  1  0
 43 44  1  0
 43 45  1  0
 43 46  1  0
 36 47  2  0
 47 48  1  0
 27 49  1  0
 49 50  1  0
 50 51  1  0
 50 52  2  0
 52 53  1  0
 23 54  1  0
 54 55  2  0
 55 56  1  0
 55 57  1  0
 57 58  1  0
 57 59  2  0
 59 60  1  0
 59 61  1  0
 61 62  1  0
 61 63  2  0
  3 64  1  0
 64 65  1  0
 64 66  1  0
 64 67  1  0
 67 68  1  0
 67 69  1  0
 67 70  1  0
 70 71  1  0
 70 72  1  0
 70  2  1  0
 13  4  1  0
 63 18  1  0
 52 25  1  0
 63 54  1  0
 47 29  1  0
M  CHG  3  14  -1  17  -1  49  -1
M  END
>  <UniqueID>  (8) 
8

>  <SMILES>  (8) 
CS(=O)(=O)Cc1cccc(/N=c2\nc(Oc3ccc([N-]C(=O)[N-]c4ccccc4C4=CCCC4)c4ccccc34)cc[n-]2)c1

>  <Energy>  (8) 
108.32256510510753

>  <Genealogy>  (8) 
CS(=O)(=O)Cc1cccc(N=c2nc(Oc3ccc([N-]C(=O)[N-]c4ccccc4C4=CCCC4)c4ccccc34)cc[n-]2)c1 (protonated)
CS(=O)(=O)Cc1cccc(/N=c2\nc(Oc3ccc([N-]C(=O)[N-]c4ccccc4C4=CCCC4)c4ccccc34)cc[n-]2)c1 (cis-trans isomerization)
CS(=O)(=O)Cc1cccc(/N=c2\nc(Oc3ccc([N-]C(=O)[N-]c4ccccc4C4=CCCC4)c4ccccc34)cc[n-]2)c1 (3D coordinates assigned)
CS(=O)(=O)Cc1cccc(/N=c2\nc(Oc3ccc([N-]C(=O)[N-]c4ccccc4C4=CCCC4)c4ccccc34)cc[n-]2)c1 (nonaromatic ring conformer: 108.32256510510753 kcal/mol)

>  <smiles>  (8) 
CS(=O)(=O)Cc1cccc(N=c2nc(Oc3ccc(NC(=O)Nc4ccccc4C4=CCCC4)c4ccccc34)cc[nH]2)c1

>  <score_type>  (8) 
oracle

>  <origin>  (8) 
adg

>  <m_score__min__energy>  (8) 
-14.779999999999999

>  <m_primary>  (8) 
energy

$$$$
8:0
     RDKit          3D

 54 56  0  0  0  0  0  0  0  0999 V2000
   58.3267   33.3050   49.6328 H   0  0  0  0  0  0  0  0  0  0  0  0
   59.3690   32.9880   49.4810 C   0  0  0  0  0  0  0  0  0  0  0  0
   59.7710   31.6300   49.9040 C   0  0  0  0  0  0  0  0  0  0  0  0
   60.0690   31.4110   51.1090 O   0  0  0  0  0  0  0  0  0  0  0  0
   59.7780   30.5370   48.9650 N   0  0  0  0  0  0  0  0  0  0  0  0
   60.2220   30.7190   47.5780 C   0  0  0  0  0  0  0  0  0  0  0  0
   60.3053   31.7935   47.3579 H   0  0  0  0  0  0  0  0  0  0  0  0
   61.2023   30.2391   47.4414 H   0  0  0  0  0  0  0  0  0  0  0  0
   59.2070   30.0820   46.6290 C   0  0  0  0  0  0  0  0  0  0  0  0
   58.3074   30.7139   46.5924 H   0  0  0  0  0  0  0  0  0  0  0  0
   59.6707   29.9997   45.6349 H   0  0  0  0  0  0  0  0  0  0  0  0
   58.8230   28.7280   47.0720 N   0  0  0  0  0  0  0  0  0  0  0  0
   57.9460   27.9190   46.2560 C   0  0  0  0  0  0  0  0  0  0  0  0
   57.8530   26.6780   46.4680 O   0  0  0  0  0  0  0  0  0  0  0  0
   57.1030   28.5220   45.1700 C   0  0  0  0  0  0  0  0  0  0  0  0
   56.7464   27.7280   44.4974 H   0  0  0  0  0  0  0  0  0  0  0  0
   56.2387   29.0362   45.6156 H   0  0  0  0  0  0  0  0  0  0  0  0
   57.9060   29.4780   44.4140 N   0  0  0  0  0  0  0  0  0  0  0  0
   56.9520   30.8760   44.0210 S   0  0  0  0  0  0  0  0  0  0  0  0
   55.5520   30.7050   44.5420 O   0  0  0  0  0  0  0  0  0  0  0  0
   56.8870   31.0200   42.5270 O   0  0  0  0  0  0  0  0  0  0  0  0
   57.6800   32.3260   44.7090 C   0  0  0  0  0  0  0  0  0  0  0  0
   57.3720   32.7060   46.0240 C   0  0  0  0  0  0  0  0  0  0  0  0
   56.6838   32.0936   46.6250 H   0  0  0  0  0  0  0  0  0  0  0  0
   57.9380   33.8620   46.5730 C   0  0  0  0  0  0  0  0  0  0  0  0
   57.6982   34.1546   47.6059 H   0  0  0  0  0  0  0  0  0  0  0  0
   58.8070   34.6440   45.8100 C   0  0  0  0  0  0  0  0  0  0  0  0
   59.2548   35.5502   46.2439 H   0  0  0  0  0  0  0  0  0  0  0  0
   59.1090   34.2770   44.4950 C   0  0  0  0  0  0  0  0  0  0  0  0
   59.7880   34.8988   43.8930 H   0  0  0  0  0  0  0  0  0  0  0  0
   58.5480   33.1190   43.9440 C   0  0  0  0  0  0  0  0  0  0  0  0
   58.7881   32.8306   42.9100 H   0  0  0  0  0  0  0  0  0  0  0  0
   59.4240   28.1650   48.2930 C   0  0  0  0  0  0  0  0  0  0  0  0
   58.8566   27.2733   48.5978 H   0  0  0  0  0  0  0  0  0  0  0  0
   60.4697   27.8956   48.0834 H   0  0  0  0  0  0  0  0  0  0  0  0
   59.3950   29.1960   49.4310 C   0  0  0  0  0  0  0  0  0  0  0  0
   58.3768   29.2405   49.8448 H   0  0  0  0  0  0  0  0  0  0  0  0
   60.1200   28.8806   50.1957 H   0  0  0  0  0  0  0  0  0  0  0  0
   60.2310   33.8460   48.9190 C   0  0  0  0  0  0  0  0  0  0  0  0
   59.8317   34.7417   48.4208 H   0  0  0  0  0  0  0  0  0  0  0  0
   61.7030   33.6410   48.9390 C   0  0  0  0  0  0  0  0  0  0  0  0
   62.4010   33.6120   50.1650 C   0  0  0  0  0  0  0  0  0  0  0  0
   61.8475   33.7221   51.1092 H   0  0  0  0  0  0  0  0  0  0  0  0
   63.7870   33.4450   50.1920 C   0  0  0  0  0  0  0  0  0  0  0  0
   64.3179   33.4168   51.1550 H   0  0  0  0  0  0  0  0  0  0  0  0
   64.4990   33.3140   49.0010 C   0  0  0  0  0  0  0  0  0  0  0  0
   65.5906   33.1804   49.0260 H   0  0  0  0  0  0  0  0  0  0  0  0
   63.8300   33.3520   47.7770 C   0  0  0  0  0  0  0  0  0  0  0  0
   64.3998   33.2567   46.8409 H   0  0  0  0  0  0  0  0  0  0  0  0
   62.4340   33.5110   47.7300 C   0  0  0  0  0  0  0  0  0  0  0  0
   61.7490   33.5420   46.3880 C   0  0  0  0  0  0  0  0  0  0  0  0
   60.6598   33.5913   46.5334 H   0  0  0  0  0  0  0  0  0  0  0  0
   62.0842   34.4259   45.8255 H   0  0  0  0  0  0  0  0  0  0  0  0
   62.0030   32.6314   45.8255 H   0  0  0  0  0  0  0  0  0  0  0  0
  1  2  1  0
  2  3  1  0
  3  4  2  0
  3  5  1  0
  5  6  1  0
  6  7  1  0
  6  8  1  0
  6  9  1  0
  9 10  1  0
  9 11  1  0
  9 12  1  0
 12 13  1  0
 13 14  2  0
 13 15  1  0
 15 16  1  0
 15 17  1  0
 15 18  1  0
 18 19  1  0
 19 20  2  0
 19 21  2  0
 19 22  1  0
 22 23  2  0
 23 24  1  0
 23 25  1  0
 25 26  1  0
 25 27  2  0
 27 28  1  0
 27 29  1  0
 29 30  1  0
 29 31  2  0
 31 32  1  0
 12 33  1  0
 33 34  1  0
 33 35  1  0
 33 36  1  0
 36 37  1  0
 36 38  1  0
  2 39  2  0
 39 40  1  0
 39 41  1  0
 41 42  2  0
 42 43  1  0
 42 44  1  0
 44 45  1  0
 44 46  2  0
 46 47  1  0
 46 48  1  0
 48 49  1  0
 48 50  2  0
 50 51  1  0
 51 52  1  0
 51 53  1  0
 51 54  1  0
 36  5  1  0
 50 41  1  0
 31 22  1  0
M  CHG  1  18  -1
M  END
>  <UniqueID>  (9) 
9

>  <SMILES>  (9) 
Cc1ccccc1/C=C/C(=O)N1CCN(C(=O)C[N-]S(=O)(=O)c2ccccc2)CC1

>  <Energy>  (9) 
58.84581880980629

>  <Genealogy>  (9) 
Cc1ccccc1C=CC(=O)N1CCN(C(=O)C[N-]S(=O)(=O)c2ccccc2)CC1 (protonated)
Cc1ccccc1/C=C/C(=O)N1CCN(C(=O)C[N-]S(=O)(=O)c2ccccc2)CC1 (cis-trans isomerization)
Cc1ccccc1/C=C/C(=O)N1CCN(C(=O)C[N-]S(=O)(=O)c2ccccc2)CC1 (3D coordinates assigned)
Cc1ccccc1/C=C/C(=O)N1CCN(C(=O)C[N-]S(=O)(=O)c2ccccc2)CC1 (nonaromatic ring conformer: 58.84581880980629 kcal/mol)

>  <smiles>  (9) 
Cc1ccccc1C=CC(=O)N1CCN(C(=O)CNS(=O)(=O)c2ccccc2)CC1

>  <score_type>  (9) 
oracle

>  <origin>  (9) 
adg

>  <m_score__min__energy>  (9) 
-10.26

>  <m_primary>  (9) 
energy

$$$$
9:0
     RDKit          3D

 61 64  0  0  0  0  0  0  0  0999 V2000
   59.1920   34.9740   44.9010 C   0  0  0  0  0  0  0  0  0  0  0  0
   58.1830   34.0060   45.4410 C   0  0  0  0  0  0  0  0  0  0  0  0
   56.9580   34.2460   45.2780 O   0  0  0  0  0  0  0  0  0  0  0  0
   58.6010   32.7760   46.1440 C   0  0  0  0  0  0  0  0  0  0  0  0
   58.3460   31.4680   45.7140 C   0  0  0  0  0  0  0  0  0  0  0  0
   57.7340   31.0150   44.4160 C   0  0  0  0  0  0  0  0  0  0  0  0
   56.8450   29.8560   44.6390 N   0  0  0  0  0  0  0  0  0  0  0  0
   57.4120   28.6380   44.0340 C   0  0  0  0  0  0  0  0  0  0  0  0
   55.5180   30.1230   44.0610 C   0  0  0  0  0  0  0  0  0  0  0  0
   58.8980   30.6470   46.6780 C   0  0  0  0  0  0  0  0  0  0  0  0
   58.9550   29.2560   46.7590 C   0  0  0  0  0  0  0  0  0  0  0  0
   59.5810   28.6740   47.8860 C   0  0  0  0  0  0  0  0  0  0  0  0
   59.6570   27.2020   48.0200 C   0  0  0  0  0  0  0  0  0  0  0  0
   60.3970   26.6850   48.9020 O   0  0  0  0  0  0  0  0  0  0  0  0
   58.8880   26.3600   47.1540 N   0  0  0  0  0  0  0  0  0  0  0  0
   57.4430   26.4760   46.9840 C   0  0  0  0  0  0  0  0  0  0  0  0
   56.9610   25.5800   45.8700 C   0  0  0  0  0  0  0  0  0  0  0  0
   57.7640   25.3560   44.7370 C   0  0  0  0  0  0  0  0  0  0  0  0
   57.3190   24.5140   43.7130 C   0  0  0  0  0  0  0  0  0  0  0  0
   56.0670   23.8990   43.8040 C   0  0  0  0  0  0  0  0  0  0  0  0
   55.2560   24.1250   44.9210 C   0  0  0  0  0  0  0  0  0  0  0  0
   55.6990   24.9640   45.9500 C   0  0  0  0  0  0  0  0  0  0  0  0
   60.1260   29.5150   48.8910 C   0  0  0  0  0  0  0  0  0  0  0  0
   60.0640   30.9140   48.7720 C   0  0  0  0  0  0  0  0  0  0  0  0
   59.4450   31.4540   47.6410 C   0  0  0  0  0  0  0  0  0  0  0  0
   59.2850   32.7580   47.3230 N   0  0  0  0  0  0  0  0  0  0  0  0
   59.7380   33.9100   48.1150 C   0  0  0  0  0  0  0  0  0  0  0  0
   61.1560   33.7070   48.5880 C   0  0  0  0  0  0  0  0  0  0  0  0
   61.4730   33.8070   49.9540 C   0  0  0  0  0  0  0  0  0  0  0  0
   62.7870   33.6090   50.3910 C   0  0  0  0  0  0  0  0  0  0  0  0
   63.7980   33.3230   49.4670 C   0  0  0  0  0  0  0  0  0  0  0  0
   65.5920   33.0560   50.0640 Br  0  0  0  0  0  0  0  0  0  0  0  0
   63.4920   33.2330   48.1050 C   0  0  0  0  0  0  0  0  0  0  0  0
   62.1780   33.4200   47.6670 C   0  0  0  0  0  0  0  0  0  0  0  0
   59.7084   35.4695   45.7364 H   0  0  0  0  0  0  0  0  0  0  0  0
   59.9258   34.4333   44.2852 H   0  0  0  0  0  0  0  0  0  0  0  0
   58.6822   35.7296   44.2852 H   0  0  0  0  0  0  0  0  0  0  0  0
   57.1502   31.8409   43.9835 H   0  0  0  0  0  0  0  0  0  0  0  0
   58.5392   30.7182   43.7278 H   0  0  0  0  0  0  0  0  0  0  0  0
   57.7328   27.9489   44.8291 H   0  0  0  0  0  0  0  0  0  0  0  0
   56.6490   28.1489   43.4106 H   0  0  0  0  0  0  0  0  0  0  0  0
   58.2775   28.9070   43.4106 H   0  0  0  0  0  0  0  0  0  0  0  0
   54.7881   30.2698   44.8708 H   0  0  0  0  0  0  0  0  0  0  0  0
   55.5642   31.0298   43.4401 H   0  0  0  0  0  0  0  0  0  0  0  0
   55.2099   29.2688   43.4401 H   0  0  0  0  0  0  0  0  0  0  0  0
   58.5239   28.6270   45.9662 H   0  0  0  0  0  0  0  0  0  0  0  0
   56.9452   26.1860   47.9211 H   0  0  0  0  0  0  0  0  0  0  0  0
   57.2006   27.5180   46.7283 H   0  0  0  0  0  0  0  0  0  0  0  0
   58.7459   25.8451   44.6562 H   0  0  0  0  0  0  0  0  0  0  0  0
   57.9556   24.3352   42.8339 H   0  0  0  0  0  0  0  0  0  0  0  0
   55.7195   23.2372   42.9970 H   0  0  0  0  0  0  0  0  0  0  0  0
   54.2696   23.6431   44.9908 H   0  0  0  0  0  0  0  0  0  0  0  0
   55.0572   25.1425   46.8254 H   0  0  0  0  0  0  0  0  0  0  0  0
   60.6031   29.0660   49.7746 H   0  0  0  0  0  0  0  0  0  0  0  0
   60.4910   31.5664   49.5479 H   0  0  0  0  0  0  0  0  0  0  0  0
   59.6908   34.8164   47.4936 H   0  0  0  0  0  0  0  0  0  0  0  0
   59.0838   34.0149   48.9930 H   0  0  0  0  0  0  0  0  0  0  0  0
   60.6836   34.0422   50.6830 H   0  0  0  0  0  0  0  0  0  0  0  0
   63.0258   33.6782   51.4625 H   0  0  0  0  0  0  0  0  0  0  0  0
   64.2873   33.0146   47.3771 H   0  0  0  0  0  0  0  0  0  0  0  0
   61.9424   33.3421   46.5953 H   0  0  0  0  0  0  0  0  0  0  0  0
  1  2  1  0
  2  3  2  0
  2  4  1  0
  4  5  2  0
  5  6  1  0
  6  7  1  0
  7  8  1  0
  7  9  1  0
  5 10  1  0
 10 11  2  0
 11 12  1  0
 12 13  1  0
 13 14  2  0
 13 15  1  0
 15 16  1  0
 16 17  1  0
 17 18  2  0
 18 19  1  0
 19 20  2  0
 20 21  1  0
 21 22  2  0
 12 23  2  0
 23 24  1  0
 24 25  2  0
 25 26  1  0
 26 27  1  0
 27 28  1  0
 28 29  2  0
 29 30  1  0
 30 31  2  0
 31 32  1  0
 31 33  1  0
 33 34  2  0
 26  4  1  0
 34 28  1  0
 25 10  1  0
 22 17  1  0
  1 35  1  0
  1 36  1  0
  1 37  1  0
  6 38  1  0
  6 39  1  0
  8 40  1  0
  8 41  1  0
  8 42  1  0
  9 43  1  0
  9 44  1  0
  9 45  1  0
 11 46  1  0
 16 47  1  0
 16 48  1  0
 18 49  1  0
 19 50  1  0
 20 51  1  0
 21 52  1  0
 22 53  1  0
 23 54  1  0
 24 55  1  0
 27 56  1  0
 27 57  1  0
 29 58  1  0
 30 59  1  0
 33 60  1  0
 34 61  1  0
M  CHG  1  15  -1
M  END
>  <UniqueID>  (10) 
10

>  <SMILES>  (10) 
CC(=O)c1c(CN(C)C)c2cc(C(=O)[N-]Cc3ccccc3)ccc2n1Cc1ccc(Br)cc1

>  <Energy>  (10) 
99.6122660145594

>  <Genealogy>  (10) 
CC(=O)c1c(CN(C)C)c2cc(C(=O)[N-]Cc3ccccc3)ccc2n1Cc1ccc(Br)cc1 (protonated)
CC(=O)c1c(CN(C)C)c2cc(C(=O)[N-]Cc3ccccc3)ccc2n1Cc1ccc(Br)cc1 (3D coordinates assigned)
CC(=O)c1c(CN(C)C)c2cc(C(=O)[N-]Cc3ccccc3)ccc2n1Cc1ccc(Br)cc1 (optimized conformer: 99.6122660145594 kcal/mol)

>  <smiles>  (10) 
CC(=O)c1c(CN(C)C)c2cc(C(=O)NCc3ccccc3)ccc2n1Cc1ccc(Br)cc1

>  <score_type>  (10) 
oracle

>  <origin>  (10) 
adg

>  <m_score__min__energy>  (10) 
-10.91

>  <m_primary>  (10) 
energy

$$$$
10:0
     RDKit          3D

 41 43  0  0  0  0  0  0  0  0999 V2000
   58.7350   33.0690   48.0990 C   0  0  0  0  0  0  0  0  0  0  0  0
   59.9550   33.1330   48.8330 O   0  0  0  0  0  0  0  0  0  0  0  0
   61.2360   33.1390   48.2550 C   0  0  0  0  0  0  0  0  0  0  0  0
   61.5720   34.0190   47.2060 C   0  0  0  0  0  0  0  0  0  0  0  0
   62.8520   33.9950   46.6470 C   0  0  0  0  0  0  0  0  0  0  0  0
   63.8080   33.0970   47.1210 C   0  0  0  0  0  0  0  0  0  0  0  0
   63.4890   32.2180   48.1580 C   0  0  0  0  0  0  0  0  0  0  0  0
   62.2070   32.2360   48.7360 C   0  0  0  0  0  0  0  0  0  0  0  0
   61.8610   31.2610   49.8290 C   0  0  0  0  0  0  0  0  0  0  0  0
   61.7420   29.9560   49.2680 O   0  0  0  0  0  0  0  0  0  0  0  0
   60.8030   29.5930   48.2900 C   0  0  0  0  0  0  0  0  0  0  0  0
   60.6330   30.3330   47.0880 C   0  0  0  0  0  0  0  0  0  0  0  0
   59.6780   29.9390   46.1340 C   0  0  0  0  0  0  0  0  0  0  0  0
   58.9120   28.7970   46.3940 C   0  0  0  0  0  0  0  0  0  0  0  0
   59.0790   28.0880   47.5550 C   0  0  0  0  0  0  0  0  0  0  0  0
   60.0070   28.4580   48.5250 C   0  0  0  0  0  0  0  0  0  0  0  0
   58.1820   27.0470   47.5420 C   0  0  0  0  0  0  0  0  0  0  0  0
   57.4860   27.1670   46.3400 C   0  0  0  0  0  0  0  0  0  0  0  0
   56.3940   26.2470   45.9480 C   0  0  0  0  0  0  0  0  0  0  0  0
   56.6710   25.0820   45.5580 O   0  0  0  0  0  0  0  0  0  0  0  0
   55.0610   26.6320   45.9960 O   0  0  0  0  0  0  0  0  0  0  0  0
   57.9470   28.2380   45.6260 N   0  0  0  0  0  0  0  0  0  0  0  0
   57.4500   28.7640   44.3480 C   0  0  0  0  0  0  0  0  0  0  0  0
   56.2820   29.6700   44.5820 C   0  0  0  0  0  0  0  0  0  0  0  0
   55.1450   29.1840   44.8250 O   0  0  0  0  0  0  0  0  0  0  0  0
   56.4350   31.0480   44.4890 O   0  0  0  0  0  0  0  0  0  0  0  0
   57.8878   33.0246   48.7991 H   0  0  0  0  0  0  0  0  0  0  0  0
   58.6408   33.9634   47.4657 H   0  0  0  0  0  0  0  0  0  0  0  0
   58.7349   32.1696   47.4657 H   0  0  0  0  0  0  0  0  0  0  0  0
   60.8222   34.7283   46.8257 H   0  0  0  0  0  0  0  0  0  0  0  0
   63.1067   34.6866   45.8304 H   0  0  0  0  0  0  0  0  0  0  0  0
   64.8145   33.0811   46.6774 H   0  0  0  0  0  0  0  0  0  0  0  0
   64.2445   31.5076   48.5248 H   0  0  0  0  0  0  0  0  0  0  0  0
   62.6549   31.2639   50.5904 H   0  0  0  0  0  0  0  0  0  0  0  0
   60.9093   31.5515   50.2978 H   0  0  0  0  0  0  0  0  0  0  0  0
   61.2541   31.2217   46.9026 H   0  0  0  0  0  0  0  0  0  0  0  0
   59.5366   30.5138   45.2069 H   0  0  0  0  0  0  0  0  0  0  0  0
   60.1147   27.8765   49.4525 H   0  0  0  0  0  0  0  0  0  0  0  0
   58.0424   26.2796   48.3177 H   0  0  0  0  0  0  0  0  0  0  0  0
   58.2529   29.3273   43.8499 H   0  0  0  0  0  0  0  0  0  0  0  0
   57.1315   27.9239   43.7133 H   0  0  0  0  0  0  0  0  0  0  0  0
  1  2  1  0
  2  3  1  0
  3  4  2  0
  4  5  1  0
  5  6  2  0
  6  7  1  0
  7  8  2  0
  8  9  1  0
  9 10  1  0
 10 11  1  0
 11 12  2  0
 12 13  1  0
 13 14  2  0
 14 15  1  0
 15 16  2  0
 15 17  1  0
 17 18  2  0
 18 19  1  0
 19 20  2  0
 19 21  1  0
 18 22  1  0
 22 23  1  0
 23 24  1  0
 24 25  2  0
 24 26  1  0
  8  3  1  0
 16 11  1  0
 22 14  1  0
  1 27  1  0
  1 28  1  0
  1 29  1  0
  4 30  1  0
  5 31  1  0
  6 32  1  0
  7 33  1  0
  9 34  1  0
  9 35  1  0
 12 36  1  0
 13 37  1  0
 16 38  1  0
 17 39  1  0
 23 40  1  0
 23 41  1  0
M  CHG  2  21  -1  26  -1
M  END
>  <UniqueID>  (11) 
11

>  <SMILES>  (11) 
COc1ccccc1COc1ccc2c(c1)cc(C(=O)[O-])n2CC(=O)[O-]

>  <Energy>  (11) 
77.32435543011688

>  <Genealogy>  (11) 
COc1ccccc1COc1ccc2c(c1)cc(C(=O)[O-])n2CC(=O)[O-] (protonated)
COc1ccccc1COc1ccc2c(c1)cc(C(=O)[O-])n2CC(=O)[O-] (3D coordinates assigned)
COc1ccccc1COc1ccc2c(c1)cc(C(=O)[O-])n2CC(=O)[O-] (optimized conformer: 77.32435543011688 kcal/mol)

>  <smiles>  (11) 
COc1ccccc1COc1ccc2c(c1)cc(C(=O)O)n2CC(=O)O

>  <score_type>  (11) 
oracle

>  <origin>  (11) 
adg

>  <m_score__min__energy>  (11) 
-12.34

>  <m_primary>  (11) 
energy

$$$$
11:0
     RDKit          3D

 64 66  0  0  0  0  0  0  0  0999 V2000
   57.9620   26.5600   43.9350 C   0  0  0  0  0  0  0  0  0  0  0  0
   58.1970   27.0350   45.1700 C   0  0  0  0  0  0  0  0  0  0  0  0
   58.5100   26.2880   46.3170 C   0  0  0  0  0  0  0  0  0  0  0  0
   58.4890   24.9600   46.5460 C   0  0  0  0  0  0  0  0  0  0  0  0
   57.2920   24.1520   46.8260 C   0  0  0  0  0  0  0  0  0  0  0  0
   57.3330   22.9340   47.3910 N   0  0  0  0  0  0  0  0  0  0  0  0
   56.0290   22.6250   47.5640 C   0  0  0  0  0  0  0  0  0  0  0  0
   55.6520   21.5290   48.0580 O   0  0  0  0  0  0  0  0  0  0  0  0
   55.1630   23.5820   47.1730 N   0  0  0  0  0  0  0  0  0  0  0  0
   55.9790   24.5500   46.7220 C   0  0  0  0  0  0  0  0  0  0  0  0
   55.5370   25.7770   46.2430 O   0  0  0  0  0  0  0  0  0  0  0  0
   58.8700   27.2070   47.2890 C   0  0  0  0  0  0  0  0  0  0  0  0
   58.7190   28.4600   46.7360 C   0  0  0  0  0  0  0  0  0  0  0  0
   58.9830   29.7450   47.4610 C   0  0  0  0  0  0  0  0  0  0  0  0
   58.2930   28.3620   45.4550 N   0  0  0  0  0  0  0  0  0  0  0  0
   58.0950   29.4880   44.5260 C   0  0  0  0  0  0  0  0  0  0  0  0
   56.7370   30.0880   44.7150 C   0  0  0  0  0  0  0  0  0  0  0  0
   55.7240   29.3440   44.8120 O   0  0  0  0  0  0  0  0  0  0  0  0
   56.5970   31.5090   44.7550 N   0  0  0  0  0  0  0  0  0  0  0  0
   57.5290   32.4210   44.1040 C   0  0  0  0  0  0  0  0  0  0  0  0
   57.3940   33.8230   44.7000 C   0  0  0  0  0  0  0  0  0  0  0  0
   58.2130   33.9520   45.9590 C   0  0  0  0  0  0  0  0  0  0  0  0
   59.2920   34.8470   46.0110 C   0  0  0  0  0  0  0  0  0  0  0  0
   60.0930   34.9220   47.1530 C   0  0  0  0  0  0  0  0  0  0  0  0
   59.8260   34.1010   48.2630 C   0  0  0  0  0  0  0  0  0  0  0  0
   60.6220   34.1290   49.4170 O   0  0  0  0  0  0  0  0  0  0  0  0
   61.5170   33.1200   49.7920 C   0  0  0  0  0  0  0  0  0  0  0  0
   61.1120   32.0860   50.3910 O   0  0  0  0  0  0  0  0  0  0  0  0
   62.9710   33.2720   49.4690 C   0  0  0  0  0  0  0  0  0  0  0  0
   63.1770   34.0580   48.1670 C   0  0  0  0  0  0  0  0  0  0  0  0
   63.4990   33.1360   46.9800 C   0  0  0  0  0  0  0  0  0  0  0  0
   63.3210   31.6480   47.3200 C   0  0  0  0  0  0  0  0  0  0  0  0
   61.8770   31.1700   47.1560 C   0  0  0  0  0  0  0  0  0  0  0  0
   58.7620   33.1920   48.2030 C   0  0  0  0  0  0  0  0  0  0  0  0
   57.9580   33.1210   47.0620 C   0  0  0  0  0  0  0  0  0  0  0  0
   57.7254   27.2537   43.1147 H   0  0  0  0  0  0  0  0  0  0  0  0
   58.0062   25.4775   43.7444 H   0  0  0  0  0  0  0  0  0  0  0  0
   59.4541   24.4327   46.5213 H   0  0  0  0  0  0  0  0  0  0  0  0
   54.8460   26.3110   46.7530 H   0  0  0  0  0  0  0  0  0  0  0  0
   59.2118   26.9795   48.3095 H   0  0  0  0  0  0  0  0  0  0  0  0
   58.9466   29.5680   48.5461 H   0  0  0  0  0  0  0  0  0  0  0  0
   59.9778   30.1243   47.1845 H   0  0  0  0  0  0  0  0  0  0  0  0
   58.2183   30.4858   47.1845 H   0  0  0  0  0  0  0  0  0  0  0  0
   58.8599   30.2549   44.7178 H   0  0  0  0  0  0  0  0  0  0  0  0
   58.1810   29.1181   43.4936 H   0  0  0  0  0  0  0  0  0  0  0  0
   58.5569   32.0592   44.2539 H   0  0  0  0  0  0  0  0  0  0  0  0
   57.3005   32.4630   43.0288 H   0  0  0  0  0  0  0  0  0  0  0  0
   57.7444   34.5624   43.9648 H   0  0  0  0  0  0  0  0  0  0  0  0
   56.3370   33.9998   44.9480 H   0  0  0  0  0  0  0  0  0  0  0  0
   59.5085   35.4934   45.1477 H   0  0  0  0  0  0  0  0  0  0  0  0
   60.9369   35.6269   47.1841 H   0  0  0  0  0  0  0  0  0  0  0  0
   63.4663   33.8075   50.2924 H   0  0  0  0  0  0  0  0  0  0  0  0
   63.4032   32.2688   49.3395 H   0  0  0  0  0  0  0  0  0  0  0  0
   62.2576   34.6184   47.9417 H   0  0  0  0  0  0  0  0  0  0  0  0
   64.0317   34.7352   48.3116 H   0  0  0  0  0  0  0  0  0  0  0  0
   62.8283   33.3891   46.1457 H   0  0  0  0  0  0  0  0  0  0  0  0
   64.5550   33.2923   46.7146 H   0  0  0  0  0  0  0  0  0  0  0  0
   63.9649   31.0558   46.6531 H   0  0  0  0  0  0  0  0  0  0  0  0
   63.5954   31.5151   48.3769 H   0  0  0  0  0  0  0  0  0  0  0  0
   61.4254   31.0205   48.1478 H   0  0  0  0  0  0  0  0  0  0  0  0
   61.3014   31.9255   46.6011 H   0  0  0  0  0  0  0  0  0  0  0  0
   61.8659   30.2203   46.6011 H   0  0  0  0  0  0  0  0  0  0  0  0
   58.5582   32.5308   49.0581 H   0  0  0  0  0  0  0  0  0  0  0  0
   57.1198   32.4094   47.0277 H   0  0  0  0  0  0  0  0  0  0  0  0
  1  2  2  0
  2  3  1  0
  3  4  2  3
  4  5  1  0
  5  6  1  0
  6  7  1  0
  7  8  2  0
  7  9  1  0
  9 10  1  0
 10 11  1  0
  3 12  1  0
 12 13  2  0
 13 14  1  0
 13 15  1  0
 15 16  1  0
 16 17  1  0
 17 18  2  0
 17 19  1  0
 19 20  1  0
 20 21  1  0
 21 22  1  0
 22 23  2  0
 23 24  1  0
 24 25  2  0
 25 26  1  0
 26 27  1  0
 27 28  2  0
 27 29  1  0
 29 30  1  0
 30 31  1  0
 31 32  1  0
 32 33  1  0
 25 34  1  0
 34 35  2  0
 15  2  1  0
 35 22  1  0
 10  5  2  0
  1 36  1  0
  1 37  1  0
  4 38  1  0
 11 39  1  0
 12 40  1  0
 14 41  1  0
 14 42  1  0
 14 43  1  0
 16 44  1  0
 16 45  1  0
 20 46  1  0
 20 47  1  0
 21 48  1  0
 21 49  1  0
 23 50  1  0
 24 51  1  0
 29 52  1  0
 29 53  1  0
 30 54  1  0
 30 55  1  0
 31 56  1  0
 31 57  1  0
 32 58  1  0
 32 59  1  0
 33 60  1  0
 33 61  1  0
 33 62  1  0
 34 63  1  0
 35 64  1  0
M  CHG  3   6  -1   9  -1  19  -1
M  END
>  <UniqueID>  (12) 
12

>  <SMILES>  (12) 
C=c1c(=Cc2[n-]c(=O)[n-]c2O)cc(C)n1CC(=O)[N-]CCc1ccc(OC(=O)CCCCC)cc1

>  <Energy>  (12) 
123.4932371243796

>  <Genealogy>  (12) 
C=c1c(=Cc2[n-]c(=O)[n-]c2O)cc(C)n1CC(=O)[N-]CCc1ccc(OC(=O)CCCCC)cc1 (protonated)
C=c1c(=Cc2[n-]c(=O)[n-]c2O)cc(C)n1CC(=O)[N-]CCc1ccc(OC(=O)CCCCC)cc1 (3D coordinates assigned)
C=c1c(=Cc2[n-]c(=O)[n-]c2O)cc(C)n1CC(=O)[N-]CCc1ccc(OC(=O)CCCCC)cc1 (optimized conformer: 123.4932371243796 kcal/mol)

>  <smiles>  (12) 
C=c1c(=Cc2[nH]c(=O)[nH]c2O)cc(C)n1CC(=O)NCCc1ccc(OC(=O)CCCCC)cc1

>  <score_type>  (12) 
oracle

>  <origin>  (12) 
adg

>  <m_score__min__energy>  (12) 
-15.449999999999999

>  <m_primary>  (12) 
energy

$$$$
12:0
     RDKit          3D

 62 66  0  0  0  0  0  0  0  0999 V2000
   59.7380   29.1350   44.6760 C   0  0  0  0  0  0  0  0  0  0  0  0
   59.5770   28.7210   45.9420 C   0  0  0  0  0  0  0  0  0  0  0  0
   58.8600   27.5910   46.3680 C   0  0  0  0  0  0  0  0  0  0  0  0
   57.9990   26.7900   45.7120 C   0  0  0  0  0  0  0  0  0  0  0  0
   57.2950   25.6320   46.2920 C   0  0  0  0  0  0  0  0  0  0  0  0
   57.8940   24.4800   46.6510 N   0  0  0  0  0  0  0  0  0  0  0  0
   56.8590   23.6770   46.9800 C   0  0  0  0  0  0  0  0  0  0  0  0
   57.0180   22.5010   47.3950 O   0  0  0  0  0  0  0  0  0  0  0  0
   55.6400   24.2330   46.8250 N   0  0  0  0  0  0  0  0  0  0  0  0
   55.9310   25.4660   46.3760 C   0  0  0  0  0  0  0  0  0  0  0  0
   54.9610   26.4120   46.0540 O   0  0  0  0  0  0  0  0  0  0  0  0
   59.1590   27.4260   47.7070 C   0  0  0  0  0  0  0  0  0  0  0  0
   59.9600   28.4860   48.0710 C   0  0  0  0  0  0  0  0  0  0  0  0
   60.4130   28.7290   49.4530 C   0  0  0  0  0  0  0  0  0  0  0  0
   61.2350   27.9270   49.9720 O   0  0  0  0  0  0  0  0  0  0  0  0
   59.9060   29.8350   50.2250 N   0  0  0  0  0  0  0  0  0  0  0  0
   60.7490   30.4080   51.2830 C   0  0  0  0  0  0  0  0  0  0  0  0
   60.1420   31.6950   51.8510 C   0  0  0  0  0  0  0  0  0  0  0  0
   58.7240   31.4870   52.1780 N   0  0  0  0  0  0  0  0  0  0  0  0
   58.1720   31.9510   53.4260 C   0  0  0  0  0  0  0  0  0  0  0  0
   57.2830   31.2660   54.0010 O   0  0  0  0  0  0  0  0  0  0  0  0
   58.6200   33.2150   54.0560 C   0  0  0  0  0  0  0  0  0  0  0  0
   59.1960   33.2190   55.3390 C   0  0  0  0  0  0  0  0  0  0  0  0
   59.6240   34.4180   55.9180 C   0  0  0  0  0  0  0  0  0  0  0  0
   59.4960   35.6210   55.2190 C   0  0  0  0  0  0  0  0  0  0  0  0
   59.9130   36.7820   55.7810 F   0  0  0  0  0  0  0  0  0  0  0  0
   58.9440   35.6230   53.9340 C   0  0  0  0  0  0  0  0  0  0  0  0
   58.5090   34.4270   53.3540 C   0  0  0  0  0  0  0  0  0  0  0  0
   57.8600   30.7260   51.2650 C   0  0  0  0  0  0  0  0  0  0  0  0
   58.5740   30.3950   49.9520 C   0  0  0  0  0  0  0  0  0  0  0  0
   60.2260   29.2770   47.0030 N   0  0  0  0  0  0  0  0  0  0  0  0
   61.1940   30.3890   46.9700 C   0  0  0  0  0  0  0  0  0  0  0  0
   60.4860   31.7200   47.0140 C   0  0  0  0  0  0  0  0  0  0  0  0
   59.0860   31.7780   46.8930 C   0  0  0  0  0  0  0  0  0  0  0  0
   58.4240   33.0080   46.9320 C   0  0  0  0  0  0  0  0  0  0  0  0
   59.1540   34.1910   47.0840 C   0  0  0  0  0  0  0  0  0  0  0  0
   58.5100   35.3830   47.1210 F   0  0  0  0  0  0  0  0  0  0  0  0
   60.5460   34.1450   47.1990 C   0  0  0  0  0  0  0  0  0  0  0  0
   61.2120   32.9160   47.1580 C   0  0  0  0  0  0  0  0  0  0  0  0
   60.3247   30.0410   44.4640 H   0  0  0  0  0  0  0  0  0  0  0  0
   59.2833   28.5684   43.8500 H   0  0  0  0  0  0  0  0  0  0  0  0
   57.8046   27.0192   44.6539 H   0  0  0  0  0  0  0  0  0  0  0  0
   54.0160   26.3410   46.4130 H   0  0  0  0  0  0  0  0  0  0  0  0
   58.8220   26.6055   48.3575 H   0  0  0  0  0  0  0  0  0  0  0  0
   60.8521   29.6730   52.0949 H   0  0  0  0  0  0  0  0  0  0  0  0
   61.7295   30.6521   50.8481 H   0  0  0  0  0  0  0  0  0  0  0  0
   60.6867   31.9820   52.7626 H   0  0  0  0  0  0  0  0  0  0  0  0
   60.2231   32.4926   51.0979 H   0  0  0  0  0  0  0  0  0  0  0  0
   59.3105   32.2739   55.8901 H   0  0  0  0  0  0  0  0  0  0  0  0
   60.0627   34.4139   56.9267 H   0  0  0  0  0  0  0  0  0  0  0  0
   58.8517   36.5677   53.3780 H   0  0  0  0  0  0  0  0  0  0  0  0
   58.0774   34.4353   52.3422 H   0  0  0  0  0  0  0  0  0  0  0  0
   57.5628   29.7873   51.7554 H   0  0  0  0  0  0  0  0  0  0  0  0
   56.9811   31.3444   51.0303 H   0  0  0  0  0  0  0  0  0  0  0  0
   57.9790   29.6599   49.3902 H   0  0  0  0  0  0  0  0  0  0  0  0
   58.6863   31.3168   49.3624 H   0  0  0  0  0  0  0  0  0  0  0  0
   61.8645   30.3088   47.8383 H   0  0  0  0  0  0  0  0  0  0  0  0
   61.7686   30.3272   46.0341 H   0  0  0  0  0  0  0  0  0  0  0  0
   58.5090   30.8500   46.7670 H   0  0  0  0  0  0  0  0  0  0  0  0
   57.3282   33.0457   46.8431 H   0  0  0  0  0  0  0  0  0  0  0  0
   61.1183   35.0763   47.3219 H   0  0  0  0  0  0  0  0  0  0  0  0
   62.3086   32.8845   47.2387 H   0  0  0  0  0  0  0  0  0  0  0  0
  1  2  2  0
  2  3  1  0
  3  4  2  3
  4  5  1  0
  5  6  1  0
  6  7  1  0
  7  8  2  0
  7  9  1  0
  9 10  1  0
 10 11  1  0
  3 12  1  0
 12 13  2  0
 13 14  1  0
 14 15  2  0
 14 16  1  0
 16 17  1  0
 17 18  1  0
 18 19  1  0
 19 20  1  0
 20 21  2  0
 20 22  1  0
 22 23  2  0
 23 24  1  0
 24 25  2  0
 25 26  1  0
 25 27  1  0
 27 28  2  0
 19 29  1  0
 29 30  1  0
 13 31  1  0
 31 32  1  0
 32 33  1  0
 33 34  2  0
 34 35  1  0
 35 36  2  0
 36 37  1  0
 36 38  1  0
 38 39  2  0
 31  2  1  0
 39 33  1  0
 10  5  2  0
 30 16  1  0
 28 22  1  0
  1 40  1  0
  1 41  1  0
  4 42  1  0
 11 43  1  0
 12 44  1  0
 17 45  1  0
 17 46  1  0
 18 47  1  0
 18 48  1  0
 23 49  1  0
 24 50  1  0
 27 51  1  0
 28 52  1  0
 29 53  1  0
 29 54  1  0
 30 55  1  0
 30 56  1  0
 32 57  1  0
 32 58  1  0
 34 59  1  0
 35 60  1  0
 38 61  1  0
 39 62  1  0
M  CHG  2   6  -1   9  -1
M  END
>  <UniqueID>  (13) 
13

>  <SMILES>  (13) 
C=c1c(=Cc2[n-]c(=O)[n-]c2O)cc(C(=O)N2CCN(C(=O)c3ccc(F)cc3)CC2)n1Cc1ccc(F)cc1

>  <Energy>  (13) 
145.48142460685654

>  <Genealogy>  (13) 
C=c1c(=Cc2[n-]c(=O)[n-]c2O)cc(C(=O)N2CCN(C(=O)c3ccc(F)cc3)CC2)n1Cc1ccc(F)cc1 (protonated)
C=c1c(=Cc2[n-]c(=O)[n-]c2O)cc(C(=O)N2CCN(C(=O)c3ccc(F)cc3)CC2)n1Cc1ccc(F)cc1 (3D coordinates assigned)
C=c1c(=Cc2[n-]c(=O)[n-]c2O)cc(C(=O)N2CCN(C(=O)c3ccc(F)cc3)CC2)n1Cc1ccc(F)cc1 (nonaromatic ring conformer: 145.48142460685654 kcal/mol)

>  <smiles>  (13) 
C=c1c(=Cc2[nH]c(=O)[nH]c2O)cc(C(=O)N2CCN(C(=O)c3ccc(F)cc3)CC2)n1Cc1ccc(F)cc1

>  <score_type>  (13) 
oracle

>  <origin>  (13) 
adg

>  <m_score__min__energy>  (13) 
-14.029999999999999

>  <m_primary>  (13) 
energy

$$$$
13:0
     RDKit          3D

 52 54  0  0  0  0  0  0  0  0999 V2000
   60.3850   30.7560   50.0040 C   0  0  0  0  0  0  0  0  0  0  0  0
   59.2640   31.3700   49.6150 C   0  0  0  0  0  0  0  0  0  0  0  0
   58.3250   31.9200   50.6500 C   0  0  0  0  0  0  0  0  0  0  0  0
   59.0120   31.6430   48.1810 C   0  0  0  0  0  0  0  0  0  0  0  0
   58.5000   30.7330   47.2820 C   0  0  0  0  0  0  0  0  0  0  0  0
   58.1770   29.4130   47.5820 O   0  0  0  0  0  0  0  0  0  0  0  0
   58.3200   31.2890   46.0680 N   0  0  0  0  0  0  0  0  0  0  0  0
   57.7290   30.5850   44.9210 C   0  0  0  0  0  0  0  0  0  0  0  0
   57.9370   29.1060   45.0640 C   0  0  0  0  0  0  0  0  0  0  0  0
   56.9280   28.2150   45.0970 N   0  0  0  0  0  0  0  0  0  0  0  0
   57.5600   27.0200   45.1540 C   0  0  0  0  0  0  0  0  0  0  0  0
   56.8650   25.7130   45.2120 C   0  0  0  0  0  0  0  0  0  0  0  0
   57.5650   24.5490   44.8410 C   0  0  0  0  0  0  0  0  0  0  0  0
   56.9390   23.3000   44.8840 C   0  0  0  0  0  0  0  0  0  0  0  0
   55.6110   23.1960   45.2970 C   0  0  0  0  0  0  0  0  0  0  0  0
   54.9020   24.3400   45.6660 C   0  0  0  0  0  0  0  0  0  0  0  0
   55.5190   25.5970   45.6270 C   0  0  0  0  0  0  0  0  0  0  0  0
   54.7820   26.7150   46.0010 O   0  0  0  0  0  0  0  0  0  0  0  0
   58.8710   27.1450   45.1460 O   0  0  0  0  0  0  0  0  0  0  0  0
   59.1370   28.4260   45.0880 C   0  0  0  0  0  0  0  0  0  0  0  0
   60.5150   28.9950   45.0220 C   0  0  0  0  0  0  0  0  0  0  0  0
   58.7360   32.5820   46.1650 C   0  0  0  0  0  0  0  0  0  0  0  0
   58.8960   33.3920   45.1060 C   0  0  0  0  0  0  0  0  0  0  0  0
   59.1300   32.8520   47.4920 C   0  0  0  0  0  0  0  0  0  0  0  0
   59.5610   34.0050   48.0470 C   0  0  0  0  0  0  0  0  0  0  0  0
   60.6400   34.1180   49.0390 C   0  0  0  0  0  0  0  0  0  0  0  0
   60.3470   34.2080   50.2600 O   0  0  0  0  0  0  0  0  0  0  0  0
   62.0010   34.2300   48.6130 N   0  0  0  0  0  0  0  0  0  0  0  0
   62.6380   33.3430   47.2710 S   0  0  0  0  0  0  0  0  0  0  0  0
   62.3650   31.6020   47.5140 C   0  0  0  0  0  0  0  0  0  0  0  0
   64.1150   33.6030   47.1700 O   0  0  0  0  0  0  0  0  0  0  0  0
   61.9730   33.7970   46.0030 O   0  0  0  0  0  0  0  0  0  0  0  0
   61.0787   30.3500   49.2530 H   0  0  0  0  0  0  0  0  0  0  0  0
   60.6142   30.6564   51.0752 H   0  0  0  0  0  0  0  0  0  0  0  0
   58.7125   31.6930   51.6542 H   0  0  0  0  0  0  0  0  0  0  0  0
   58.2413   33.0099   50.5270 H   0  0  0  0  0  0  0  0  0  0  0  0
   57.3334   31.4599   50.5270 H   0  0  0  0  0  0  0  0  0  0  0  0
   56.6508   30.7988   44.8785 H   0  0  0  0  0  0  0  0  0  0  0  0
   58.2145   30.9302   43.9963 H   0  0  0  0  0  0  0  0  0  0  0  0
   58.6129   24.6232   44.5147 H   0  0  0  0  0  0  0  0  0  0  0  0
   57.4950   22.3971   44.5914 H   0  0  0  0  0  0  0  0  0  0  0  0
   55.1219   22.2113   45.3319 H   0  0  0  0  0  0  0  0  0  0  0  0
   53.8540   24.2543   45.9889 H   0  0  0  0  0  0  0  0  0  0  0  0
   60.8960   29.1523   46.0419 H   0  0  0  0  0  0  0  0  0  0  0  0
   61.1752   28.2959   44.4877 H   0  0  0  0  0  0  0  0  0  0  0  0
   60.4896   29.9562   44.4877 H   0  0  0  0  0  0  0  0  0  0  0  0
   59.2355   34.4280   45.2523 H   0  0  0  0  0  0  0  0  0  0  0  0
   58.6876   33.0195   44.0922 H   0  0  0  0  0  0  0  0  0  0  0  0
   59.0648   34.9346   47.7314 H   0  0  0  0  0  0  0  0  0  0  0  0
   62.3307   31.3831   48.5915 H   0  0  0  0  0  0  0  0  0  0  0  0
   61.4105   31.3123   47.0504 H   0  0  0  0  0  0  0  0  0  0  0  0
   63.1851   31.0340   47.0504 H   0  0  0  0  0  0  0  0  0  0  0  0
  1  2  2  0
  2  3  1  0
  2  4  1  0
  4  5  2  0
  5  6  1  0
  5  7  1  0
  7  8  1  0
  8  9  1  0
  9 10  1  0
 10 11  2  0
 11 12  1  0
 12 13  2  0
 13 14  1  0
 14 15  2  0
 15 16  1  0
 16 17  2  0
 17 18  1  0
 11 19  1  0
 19 20  1  0
 20 21  1  0
  7 22  1  0
 22 23  2  0
 22 24  1  0
 24 25  2  3
 25 26  1  0
 26 27  2  0
 26 28  1  0
 28 29  1  0
 29 30  1  0
 29 31  2  0
 29 32  2  0
 24  4  1  0
 20  9  2  0
 17 12  1  0
  1 33  1  0
  1 34  1  0
  3 35  1  0
  3 36  1  0
  3 37  1  0
  8 38  1  0
  8 39  1  0
 13 40  1  0
 14 41  1  0
 15 42  1  0
 16 43  1  0
 21 44  1  0
 21 45  1  0
 21 46  1  0
 23 47  1  0
 23 48  1  0
 25 49  1  0
 30 50  1  0
 30 51  1  0
 30 52  1  0
M  CHG  3   6  -1  18  -1  28  -1
M  END
>  <UniqueID>  (14) 
14

>  <SMILES>  (14) 
C=C(C)c1c([O-])n(Cc2nc(-c3ccccc3[O-])oc2C)c(=C)c1=CC(=O)[N-]S(C)(=O)=O

>  <Energy>  (14) 
125.27066516899005

>  <Genealogy>  (14) 
C=C(C)c1c([O-])n(Cc2nc(-c3ccccc3[O-])oc2C)c(=C)c1=CC(=O)[N-]S(C)(=O)=O (protonated)
C=C(C)c1c([O-])n(Cc2nc(-c3ccccc3[O-])oc2C)c(=C)c1=CC(=O)[N-]S(C)(=O)=O (3D coordinates assigned)
C=C(C)c1c([O-])n(Cc2nc(-c3ccccc3[O-])oc2C)c(=C)c1=CC(=O)[N-]S(C)(=O)=O (optimized conformer: 125.27066516899005 kcal/mol)

>  <smiles>  (14) 
C=C(C)c1c(O)n(Cc2nc(-c3ccccc3O)oc2C)c(=C)c1=CC(=O)NS(C)(=O)=O

>  <score_type>  (14) 
oracle

>  <origin>  (14) 
adg

>  <m_score__min__energy>  (14) 
-15

>  <m_primary>  (14) 
energy

$$$$
14:0
     RDKit          3D

 35 37  0  0  0  0  0  0  0  0999 V2000
   57.0580   34.5950   44.9590 O   0  0  0  0  0  0  0  0  0  0  0  0
   57.7670   33.6000   45.2620 C   0  0  0  0  0  0  0  0  0  0  0  0
   59.0500   33.4180   45.7510 C   0  0  0  0  0  0  0  0  0  0  0  0
   60.1490   34.2610   46.1120 N   0  0  0  0  0  0  0  0  0  0  0  0
   61.2660   33.8160   46.8940 C   0  0  0  0  0  0  0  0  0  0  0  0
   61.0630   33.4200   48.2260 C   0  0  0  0  0  0  0  0  0  0  0  0
   62.1420   33.0060   49.0120 C   0  0  0  0  0  0  0  0  0  0  0  0
   63.4340   33.0000   48.4810 C   0  0  0  0  0  0  0  0  0  0  0  0
   63.6500   33.4160   47.1640 C   0  0  0  0  0  0  0  0  0  0  0  0
   62.5730   33.8300   46.3740 C   0  0  0  0  0  0  0  0  0  0  0  0
   58.8680   32.0470   45.7030 C   0  0  0  0  0  0  0  0  0  0  0  0
   59.6890   30.9070   45.9780 N   0  0  0  0  0  0  0  0  0  0  0  0
   58.8790   29.7180   45.9230 C   0  0  0  0  0  0  0  0  0  0  0  0
   58.4620   29.2010   44.6860 C   0  0  0  0  0  0  0  0  0  0  0  0
   57.7060   28.0260   44.6280 C   0  0  0  0  0  0  0  0  0  0  0  0
   57.3580   27.3410   45.8070 C   0  0  0  0  0  0  0  0  0  0  0  0
   56.5820   26.1310   45.7510 N   0  0  0  0  0  0  0  0  0  0  0  0
   57.1240   25.0380   45.4850 O   0  0  0  0  0  0  0  0  0  0  0  0
   55.2270   26.1580   45.9910 O   0  0  0  0  0  0  0  0  0  0  0  0
   57.7870   27.8560   47.0430 C   0  0  0  0  0  0  0  0  0  0  0  0
   58.5420   29.0300   47.1000 C   0  0  0  0  0  0  0  0  0  0  0  0
   57.5870   32.2330   45.2210 C   0  0  0  0  0  0  0  0  0  0  0  0
   56.6490   31.4700   44.8740 O   0  0  0  0  0  0  0  0  0  0  0  0
   60.0790   35.2750   45.8700 H   0  0  0  0  0  0  0  0  0  0  0  0
   60.0494   33.4357   48.6530 H   0  0  0  0  0  0  0  0  0  0  0  0
   61.9735   32.6844   50.0504 H   0  0  0  0  0  0  0  0  0  0  0  0
   64.2812   32.6680   49.0990 H   0  0  0  0  0  0  0  0  0  0  0  0
   64.6685   33.4177   46.7486 H   0  0  0  0  0  0  0  0  0  0  0  0
   62.7485   34.1679   45.3420 H   0  0  0  0  0  0  0  0  0  0  0  0
   60.1170   31.0140   46.9270 H   0  0  0  0  0  0  0  0  0  0  0  0
   60.4610   30.8610   45.2730 H   0  0  0  0  0  0  0  0  0  0  0  0
   58.7317   29.7236   43.7564 H   0  0  0  0  0  0  0  0  0  0  0  0
   57.3807   27.6340   43.6530 H   0  0  0  0  0  0  0  0  0  0  0  0
   57.5259   27.3300   47.9731 H   0  0  0  0  0  0  0  0  0  0  0  0
   58.8749   29.4183   48.0738 H   0  0  0  0  0  0  0  0  0  0  0  0
  1  2  2  0
  2  3  1  0
  3  4  1  0
  4  5  1  0
  5  6  2  0
  6  7  1  0
  7  8  2  0
  8  9  1  0
  9 10  2  0
  3 11  2  0
 11 12  1  0
 12 13  1  0
 13 14  2  0
 14 15  1  0
 15 16  2  0
 16 17  1  0
 17 18  2  0
 17 19  1  0
 16 20  1  0
 20 21  2  0
 11 22  1  0
 22 23  2  0
 22  2  1  0
 10  5  1  0
 21 13  1  0
  4 24  1  0
  6 25  1  0
  7 26  1  0
  8 27  1  0
  9 28  1  0
 10 29  1  0
 12 30  1  0
 12 31  1  0
 14 32  1  0
 15 33  1  0
 20 34  1  0
 21 35  1  0
M  CHG  3  12   1  17   1  19  -1
M  END
>  <UniqueID>  (15) 
15

>  <SMILES>  (15) 
O=c1c(Nc2ccccc2)c([NH2+]c2ccc([N+](=O)[O-])cc2)c1=O

>  <Energy>  (15) 
32.987396113636684

>  <Genealogy>  (15) 
O=c1c(Nc2ccccc2)c([NH2+]c2ccc([N+](=O)[O-])cc2)c1=O (protonated)
O=c1c(Nc2ccccc2)c([NH2+]c2ccc([N+](=O)[O-])cc2)c1=O (3D coordinates assigned)
O=c1c(Nc2ccccc2)c([NH2+]c2ccc([N+](=O)[O-])cc2)c1=O (optimized conformer: 32.987396113636684 kcal/mol)

>  <smiles>  (15) 
O=c1c(Nc2ccccc2)c(Nc2ccc([N+](=O)[O-])cc2)c1=O

>  <score_type>  (15) 
oracle

>  <origin>  (15) 
adg

>  <m_score__min__energy>  (15) 
-6.1699999999999999

>  <m_primary>  (15) 
energy

$$$$
15:0
     RDKit          3D

 34 35  0  0  0  0  0  0  0  0999 V2000
   50.1860   28.7700   55.1800 C   0  0  0  0  0  0  0  0  0  0  0  0
   51.5090   28.8150   54.9940 C   0  0  0  0  0  0  0  0  0  0  0  0
   52.1570   28.5020   53.6680 C   0  0  0  0  0  0  0  0  0  0  0  0
   53.4130   29.2470   53.4810 N   0  0  0  0  0  0  0  0  0  0  0  0
   54.6630   28.8430   53.8350 C   0  0  0  0  0  0  0  0  0  0  0  0
   55.0270   27.5760   54.5050 C   0  0  0  0  0  0  0  0  0  0  0  0
   54.5080   27.2550   55.6080 O   0  0  0  0  0  0  0  0  0  0  0  0
   55.9490   26.7220   53.8870 O   0  0  0  0  0  0  0  0  0  0  0  0
   56.5400   25.5990   54.5380 C   0  0  0  0  0  0  0  0  0  0  0  0
   55.5710   24.4220   54.5650 C   0  0  0  0  0  0  0  0  0  0  0  0
   55.5980   29.7750   53.4220 C   0  0  0  0  0  0  0  0  0  0  0  0
   54.9060   30.7700   52.7710 C   0  0  0  0  0  0  0  0  0  0  0  0
   53.5690   30.4270   52.8280 C   0  0  0  0  0  0  0  0  0  0  0  0
   52.5090   31.1980   52.1460 C   0  0  0  0  0  0  0  0  0  0  0  0
   52.5360   31.5940   50.8250 C   0  0  0  0  0  0  0  0  0  0  0  0
   51.3910   32.3390   50.6380 C   0  0  0  0  0  0  0  0  0  0  0  0
   51.0200   32.9230   49.4350 O   0  0  0  0  0  0  0  0  0  0  0  0
   50.6650   32.4500   51.7670 N   0  0  0  0  0  0  0  0  0  0  0  0
   51.3640   31.7570   52.6870 C   0  0  0  0  0  0  0  0  0  0  0  0
   50.9770   31.6640   54.0190 O   0  0  0  0  0  0  0  0  0  0  0  0
   49.7609   29.0070   56.1665 H   0  0  0  0  0  0  0  0  0  0  0  0
   49.5224   28.4960   54.3466 H   0  0  0  0  0  0  0  0  0  0  0  0
   52.1517   29.0917   55.8428 H   0  0  0  0  0  0  0  0  0  0  0  0
   52.3728   27.4243   53.6233 H   0  0  0  0  0  0  0  0  0  0  0  0
   51.4615   28.8008   52.8699 H   0  0  0  0  0  0  0  0  0  0  0  0
   57.4507   25.3049   53.9956 H   0  0  0  0  0  0  0  0  0  0  0  0
   56.7865   25.8787   55.5729 H   0  0  0  0  0  0  0  0  0  0  0  0
   55.3497   24.1532   55.6084 H   0  0  0  0  0  0  0  0  0  0  0  0
   54.6388   24.7027   54.0530 H   0  0  0  0  0  0  0  0  0  0  0  0
   56.0255   23.5610   54.0530 H   0  0  0  0  0  0  0  0  0  0  0  0
   56.6852   29.7294   53.5830 H   0  0  0  0  0  0  0  0  0  0  0  0
   55.3344   31.6654   52.2969 H   0  0  0  0  0  0  0  0  0  0  0  0
   53.3092   31.3637   50.0772 H   0  0  0  0  0  0  0  0  0  0  0  0
   51.6470   31.4070   54.7340 H   0  0  0  0  0  0  0  0  0  0  0  0
  1  2  2  0
  2  3  1  0
  3  4  1  0
  4  5  1  0
  5  6  1  0
  6  7  2  0
  6  8  1  0
  8  9  1  0
  9 10  1  0
  5 11  2  0
 11 12  1  0
 12 13  2  0
 13 14  1  0
 14 15  1  0
 15 16  2  0
 16 17  1  0
 16 18  1  0
 18 19  1  0
 19 20  1  0
 13  4  1  0
 19 14  2  0
  1 21  1  0
  1 22  1  0
  2 23  1  0
  3 24  1  0
  3 25  1  0
  9 26  1  0
  9 27  1  0
 10 28  1  0
 10 29  1  0
 10 30  1  0
 11 31  1  0
 12 32  1  0
 15 33  1  0
 20 34  1  0
M  CHG  2  17  -1  18  -1
M  END
>  <UniqueID>  (16) 
16

>  <SMILES>  (16) 
C=CCn1c(C(=O)OCC)ccc1-c1cc([O-])[n-]c1O

>  <Energy>  (16) 
86.96858558172923

>  <Genealogy>  (16) 
C=CCn1c(C(=O)OCC)ccc1-c1cc([O-])[n-]c1O (protonated)
C=CCn1c(C(=O)OCC)ccc1-c1cc([O-])[n-]c1O (3D coordinates assigned)
C=CCn1c(C(=O)OCC)ccc1-c1cc([O-])[n-]c1O (optimized conformer: 86.96858558172923 kcal/mol)

>  <smiles>  (16) 
C=CCn1c(C(=O)OCC)ccc1-c1cc(O)[nH]c1O

>  <score_type>  (16) 
oracle

>  <origin>  (16) 
adg

>  <m_score__min__energy>  (16) 
-12.109999999999999

>  <m_primary>  (16) 
energy

$$$$
16:0
     RDKit          3D

 61 64  0  0  0  0  0  0  0  0999 V2000
   57.8379   27.2857   47.4352 H   0  0  0  0  0  0  0  0  0  0  0  0
   57.4450   27.0640   46.4320 C   0  0  0  0  0  0  0  0  0  0  0  0
   56.2670   26.1650   46.3580 C   0  0  0  0  0  0  0  0  0  0  0  0
   55.1670   26.6540   45.9840 O   0  0  0  0  0  0  0  0  0  0  0  0
   56.3170   24.7690   46.6990 N   0  0  0  0  0  0  0  0  0  0  0  0
   56.7260   23.7820   45.9480 C   0  0  0  0  0  0  0  0  0  0  0  0
   57.3600   22.7380   46.5480 N   0  0  0  0  0  0  0  0  0  0  0  0
   57.8540   21.6830   45.8430 C   0  0  0  0  0  0  0  0  0  0  0  0
   58.3541   20.8556   46.3677 H   0  0  0  0  0  0  0  0  0  0  0  0
   57.7250   21.6530   44.4550 C   0  0  0  0  0  0  0  0  0  0  0  0
   58.1463   20.8179   43.8761 H   0  0  0  0  0  0  0  0  0  0  0  0
   57.0560   22.6930   43.8070 C   0  0  0  0  0  0  0  0  0  0  0  0
   56.9349   22.6730   42.7139 H   0  0  0  0  0  0  0  0  0  0  0  0
   56.5420   23.7560   44.5460 C   0  0  0  0  0  0  0  0  0  0  0  0
   55.9973   24.5687   44.0432 H   0  0  0  0  0  0  0  0  0  0  0  0
   58.0800   27.6350   45.3910 C   0  0  0  0  0  0  0  0  0  0  0  0
   58.9267   27.0862   44.9530 H   0  0  0  0  0  0  0  0  0  0  0  0
   57.7320   28.9390   44.7890 C   0  0  0  0  0  0  0  0  0  0  0  0
   56.6530   29.0650   43.8960 C   0  0  0  0  0  0  0  0  0  0  0  0
   56.0728   28.1754   43.6099 H   0  0  0  0  0  0  0  0  0  0  0  0
   56.3140   30.3150   43.3700 C   0  0  0  0  0  0  0  0  0  0  0  0
   55.4584   30.4099   42.6853 H   0  0  0  0  0  0  0  0  0  0  0  0
   57.0620   31.4440   43.7140 C   0  0  0  0  0  0  0  0  0  0  0  0
   56.7737   32.4314   43.3242 H   0  0  0  0  0  0  0  0  0  0  0  0
   58.1800   31.3240   44.5550 C   0  0  0  0  0  0  0  0  0  0  0  0
   58.8900   32.5090   44.9280 N   0  0  0  0  0  0  0  0  0  0  0  0
   58.3870   33.5810   45.7390 C   0  0  0  0  0  0  0  0  0  0  0  0
   58.2360   34.7160   45.2100 O   0  0  0  0  0  0  0  0  0  0  0  0
   58.1510   33.4180   47.1930 C   0  0  0  0  0  0  0  0  0  0  0  0
   57.0090   33.1070   47.6130 O   0  0  0  0  0  0  0  0  0  0  0  0
   59.2440   33.6030   48.1710 C   0  0  0  0  0  0  0  0  0  0  0  0
   60.3890   34.3270   47.7900 C   0  0  0  0  0  0  0  0  0  0  0  0
   60.4815   34.6969   46.7582 H   0  0  0  0  0  0  0  0  0  0  0  0
   61.4080   34.5800   48.7090 C   0  0  0  0  0  0  0  0  0  0  0  0
   62.2955   35.1538   48.4038 H   0  0  0  0  0  0  0  0  0  0  0  0
   61.2990   34.1040   50.0150 C   0  0  0  0  0  0  0  0  0  0  0  0
   62.1039   34.2994   50.7388 H   0  0  0  0  0  0  0  0  0  0  0  0
   60.1680   33.3780   50.4080 C   0  0  0  0  0  0  0  0  0  0  0  0
   60.0945   32.9997   51.4383 H   0  0  0  0  0  0  0  0  0  0  0  0
   59.1260   33.1280   49.4990 C   0  0  0  0  0  0  0  0  0  0  0  0
   57.9920   32.3380   49.8990 N   0  0  0  0  0  0  0  0  0  0  0  0
   57.0250   32.6910   49.7350 H   0  0  0  0  0  0  0  0  0  0  0  0
   58.1440   30.8990   50.8600 S   0  0  0  0  0  0  0  0  0  0  0  0
   56.7830   30.4210   51.2830 O   0  0  0  0  0  0  0  0  0  0  0  0
   58.9870   31.1830   52.0750 O   0  0  0  0  0  0  0  0  0  0  0  0
   58.9250   29.6340   49.8720 C   0  0  0  0  0  0  0  0  0  0  0  0
   59.2640   28.8201   50.5297 H   0  0  0  0  0  0  0  0  0  0  0  0
   58.1953   29.2553   49.1411 H   0  0  0  0  0  0  0  0  0  0  0  0
   60.1080   30.1940   49.1290 C   0  0  0  0  0  0  0  0  0  0  0  0
   61.2920   30.5240   49.8140 C   0  0  0  0  0  0  0  0  0  0  0  0
   61.3571   30.3715   50.9014 H   0  0  0  0  0  0  0  0  0  0  0  0
   62.3900   31.0470   49.1140 C   0  0  0  0  0  0  0  0  0  0  0  0
   63.3131   31.3044   49.6540 H   0  0  0  0  0  0  0  0  0  0  0  0
   62.3130   31.2420   47.7290 C   0  0  0  0  0  0  0  0  0  0  0  0
   63.1730   31.6569   47.1828 H   0  0  0  0  0  0  0  0  0  0  0  0
   61.1430   30.9090   47.0420 C   0  0  0  0  0  0  0  0  0  0  0  0
   61.0820   31.0635   45.9546 H   0  0  0  0  0  0  0  0  0  0  0  0
   60.0480   30.3790   47.7350 C   0  0  0  0  0  0  0  0  0  0  0  0
   59.1347   30.1053   47.1864 H   0  0  0  0  0  0  0  0  0  0  0  0
   58.5140   30.0670   45.0920 C   0  0  0  0  0  0  0  0  0  0  0  0
   59.3893   29.9668   45.7506 H   0  0  0  0  0  0  0  0  0  0  0  0
  1  2  1  0
  2  3  1  0
  3  4  2  0
  3  5  1  0
  5  6  2  0
  6  7  1  0
  7  8  1  0
  8  9  1  0
  8 10  2  0
 10 11  1  0
 10 12  1  0
 12 13  1  0
 12 14  2  0
 14 15  1  0
  2 16  2  3
 16 17  1  0
 16 18  1  0
 18 19  2  0
 19 20  1  0
 19 21  1  0
 21 22  1  0
 21 23  2  0
 23 24  1  0
 23 25  1  0
 25 26  1  0
 26 27  1  0
 27 28  2  0
 27 29  1  0
 29 30  2  0
 29 31  1  0
 31 32  2  0
 32 33  1  0
 32 34  1  0
 34 35  1  0
 34 36  2  0
 36 37  1  0
 36 38  1  0
 38 39  1  0
 38 40  2  0
 40 41  1  0
 41 42  1  0
 41 43  1  0
 43 44  2  0
 43 45  2  0
 43 46  1  0
 46 47  1  0
 46 48  1  0
 46 49  1  0
 49 50  2  0
 50 51  1  0
 50 52  1  0
 52 53  1  0
 52 54  2  0
 54 55  1  0
 54 56  1  0
 56 57  1  0
 56 58  2  0
 58 59  1  0
 25 60  2  0
 60 61  1  0
 14  6  1  0
 60 18  1  0
 40 31  1  0
 58 49  1  0
M  CHG  2   7  -1  26  -1
M  END
>  <UniqueID>  (17) 
17

>  <SMILES>  (17) 
O=C(C=Cc1cccc([N-]C(=O)C(=O)c2ccccc2NS(=O)(=O)Cc2ccccc2)c1)/N=c1\cccc[n-]1

>  <Energy>  (17) 
92.00555103683631

>  <Genealogy>  (17) 
O=C(C=Cc1cccc([N-]C(=O)C(=O)c2ccccc2NS(=O)(=O)Cc2ccccc2)c1)N=c1cccc[n-]1 (protonated)
O=C(C=Cc1cccc([N-]C(=O)C(=O)c2ccccc2NS(=O)(=O)Cc2ccccc2)c1)/N=c1\cccc[n-]1 (cis-trans isomerization)
O=C(C=Cc1cccc([N-]C(=O)C(=O)c2ccccc2NS(=O)(=O)Cc2ccccc2)c1)/N=c1\cccc[n-]1 (3D coordinates assigned)
O=C(C=Cc1cccc([N-]C(=O)C(=O)c2ccccc2NS(=O)(=O)Cc2ccccc2)c1)/N=c1\cccc[n-]1 (optimized conformer: 92.00555103683631 kcal/mol)

>  <smiles>  (17) 
O=C(C=Cc1cccc(NC(=O)C(=O)c2ccccc2NS(=O)(=O)Cc2ccccc2)c1)N=c1cccc[nH]1

>  <score_type>  (17) 
oracle

>  <origin>  (17) 
adg

>  <m_score__min__energy>  (17) 
-14.42

>  <m_primary>  (17) 
energy

$$$$
17:0
     RDKit          3D

 31 33  0  0  0  0  0  0  0  0999 V2000
   55.5260   25.6520   47.2950 H   0  0  0  0  0  0  0  0  0  0  0  0
   55.8570   25.9250   46.3420 N   0  0  0  0  0  0  0  0  0  0  0  0
   56.5650   26.9910   46.1280 C   0  0  0  0  0  0  0  0  0  0  0  0
   57.8250   27.1380   46.7240 C   0  0  0  0  0  0  0  0  0  0  0  0
   58.2232   26.3475   47.3771 H   0  0  0  0  0  0  0  0  0  0  0  0
   58.5710   28.2910   46.4850 C   0  0  0  0  0  0  0  0  0  0  0  0
   59.5646   28.4054   46.9429 H   0  0  0  0  0  0  0  0  0  0  0  0
   58.0590   29.3070   45.6620 C   0  0  0  0  0  0  0  0  0  0  0  0
   58.7770   30.4990   45.4010 C   0  0  0  0  0  0  0  0  0  0  0  0
   60.0500   30.7650   46.0090 N   0  0  0  0  0  0  0  0  0  0  0  0
   60.8530   30.1560   45.7280 H   0  0  0  0  0  0  0  0  0  0  0  0
   60.3210   31.9210   46.8230 C   0  0  0  0  0  0  0  0  0  0  0  0
   61.6380   32.3050   47.1460 C   0  0  0  0  0  0  0  0  0  0  0  0
   62.4878   31.7153   46.7717 H   0  0  0  0  0  0  0  0  0  0  0  0
   61.8690   33.4320   47.9400 C   0  0  0  0  0  0  0  0  0  0  0  0
   62.8996   33.7296   48.1834 H   0  0  0  0  0  0  0  0  0  0  0  0
   60.7950   34.1810   48.4250 C   0  0  0  0  0  0  0  0  0  0  0  0
   60.9799   35.0682   49.0484 H   0  0  0  0  0  0  0  0  0  0  0  0
   59.4850   33.8030   48.1180 C   0  0  0  0  0  0  0  0  0  0  0  0
   58.6391   34.3923   48.5017 H   0  0  0  0  0  0  0  0  0  0  0  0
   59.2480   32.6770   47.3240 C   0  0  0  0  0  0  0  0  0  0  0  0
   58.2147   32.3810   47.0900 H   0  0  0  0  0  0  0  0  0  0  0  0
   58.2490   31.4430   44.5100 C   0  0  0  0  0  0  0  0  0  0  0  0
   58.8225   32.3520   44.2759 H   0  0  0  0  0  0  0  0  0  0  0  0
   57.0020   31.2400   43.9170 C   0  0  0  0  0  0  0  0  0  0  0  0
   56.5944   31.9929   43.2264 H   0  0  0  0  0  0  0  0  0  0  0  0
   56.2710   30.0860   44.1970 C   0  0  0  0  0  0  0  0  0  0  0  0
   55.2821   29.9401   43.7380 H   0  0  0  0  0  0  0  0  0  0  0  0
   56.7900   29.1100   45.0610 C   0  0  0  0  0  0  0  0  0  0  0  0
   56.0810   27.9700   45.3150 N   0  0  0  0  0  0  0  0  0  0  0  0
   55.1410   27.8380   44.8710 H   0  0  0  0  0  0  0  0  0  0  0  0
  1  2  1  0
  2  3  2  0
  3  4  1  0
  4  5  1  0
  4  6  2  0
  6  7  1  0
  6  8  1  0
  8  9  2  0
  9 10  1  0
 10 11  1  0
 10 12  1  0
 12 13  2  0
 13 14  1  0
 13 15  1  0
 15 16  1  0
 15 17  2  0
 17 18  1  0
 17 19  1  0
 19 20  1  0
 19 21  2  0
 21 22  1  0
  9 23  1  0
 23 24  1  0
 23 25  2  0
 25 26  1  0
 25 27  1  0
 27 28  1  0
 27 29  2  0
 29 30  1  0
 30 31  1  0
 30  3  1  0
 29  8  1  0
 21 12  1  0
M  END
>  <UniqueID>  (18) 
18

>  <SMILES>  (18) 
[H]/N=c1\ccc2c(Nc3ccccc3)cccc2[nH]1

>  <Energy>  (18) 
45.61292177563465

>  <Genealogy>  (18) 
[H]/N=c1\ccc2c(Nc3ccccc3)cccc2[nH]1 (cis-trans isomerization)
[H]/N=c1\ccc2c(Nc3ccccc3)cccc2[nH]1 (3D coordinates assigned)
[H]/N=c1\ccc2c(Nc3ccccc3)cccc2[nH]1 (optimized conformer: 45.61292177563465 kcal/mol)

>  <smiles>  (18) 
N=c1ccc2c(Nc3ccccc3)cccc2[nH]1

>  <score_type>  (18) 
oracle

>  <origin>  (18) 
adg

>  <m_score__min__energy>  (18) 
-7.0300000000000002

>  <m_primary>  (18) 
energy

$$$$
18:0
     RDKit          3D

 39 42  0  0  0  0  0  0  0  0999 V2000
   53.2590   22.9700   45.5320 N   0  0  0  0  0  0  0  0  0  0  0  0
   54.2760   23.4720   45.7580 C   0  0  0  0  0  0  0  0  0  0  0  0
   55.5450   24.0980   46.0370 C   0  0  0  0  0  0  0  0  0  0  0  0
   56.6440   23.3130   46.4420 C   0  0  0  0  0  0  0  0  0  0  0  0
   57.8390   23.8990   46.7380 N   0  0  0  0  0  0  0  0  0  0  0  0
   57.9690   25.2420   46.6110 C   0  0  0  0  0  0  0  0  0  0  0  0
   59.0800   25.9330   46.9330 N   0  0  0  0  0  0  0  0  0  0  0  0
   58.7350   27.2210   46.6880 C   0  0  0  0  0  0  0  0  0  0  0  0
   59.6480   28.3600   46.9370 C   0  0  0  0  0  0  0  0  0  0  0  0
   60.2680   29.0040   45.8520 C   0  0  0  0  0  0  0  0  0  0  0  0
   61.1290   30.0850   46.0650 C   0  0  0  0  0  0  0  0  0  0  0  0
   61.3720   30.5430   47.3630 C   0  0  0  0  0  0  0  0  0  0  0  0
   62.4500   31.9000   47.6290 Cl  0  0  0  0  0  0  0  0  0  0  0  0
   60.7480   29.9210   48.4480 C   0  0  0  0  0  0  0  0  0  0  0  0
   59.8870   28.8390   48.2390 C   0  0  0  0  0  0  0  0  0  0  0  0
   57.4270   27.2670   46.2150 C   0  0  0  0  0  0  0  0  0  0  0  0
   56.6670   28.4520   45.9690 N   0  0  0  0  0  0  0  0  0  0  0  0
   56.6760   29.2700   44.4400 S   0  0  0  0  0  0  0  0  0  0  0  0
   55.2610   29.4300   43.9570 O   0  0  0  0  0  0  0  0  0  0  0  0
   57.4460   28.4480   43.4460 O   0  0  0  0  0  0  0  0  0  0  0  0
   57.4300   30.8550   44.5970 C   0  0  0  0  0  0  0  0  0  0  0  0
   57.5380   31.6970   43.4790 C   0  0  0  0  0  0  0  0  0  0  0  0
   58.1370   32.9540   43.6000 C   0  0  0  0  0  0  0  0  0  0  0  0
   58.6260   33.3820   44.8380 C   0  0  0  0  0  0  0  0  0  0  0  0
   58.5140   32.5520   45.9570 C   0  0  0  0  0  0  0  0  0  0  0  0
   57.9150   31.2930   45.8420 C   0  0  0  0  0  0  0  0  0  0  0  0
   57.8060   30.5070   46.9420 F   0  0  0  0  0  0  0  0  0  0  0  0
   56.9460   26.0080   46.1940 N   0  0  0  0  0  0  0  0  0  0  0  0
   55.7140   25.4900   45.9330 C   0  0  0  0  0  0  0  0  0  0  0  0
   54.7460   26.2340   45.6250 O   0  0  0  0  0  0  0  0  0  0  0  0
   56.5366   22.2210   46.5196 H   0  0  0  0  0  0  0  0  0  0  0  0
   60.0742   28.6547   44.8271 H   0  0  0  0  0  0  0  0  0  0  0  0
   61.6160   30.5758   45.2095 H   0  0  0  0  0  0  0  0  0  0  0  0
   60.9347   30.2837   49.4696 H   0  0  0  0  0  0  0  0  0  0  0  0
   59.3935   28.3593   49.0971 H   0  0  0  0  0  0  0  0  0  0  0  0
   57.1498   31.3664   42.5043 H   0  0  0  0  0  0  0  0  0  0  0  0
   58.2239   33.6078   42.7196 H   0  0  0  0  0  0  0  0  0  0  0  0
   59.0984   34.3710   44.9312 H   0  0  0  0  0  0  0  0  0  0  0  0
   58.8980   32.8897   46.9309 H   0  0  0  0  0  0  0  0  0  0  0  0
  1  2  3  0
  2  3  1  0
  3  4  2  0
  4  5  1  0
  5  6  1  0
  6  7  2  0
  7  8  1  0
  8  9  1  0
  9 10  2  0
 10 11  1  0
 11 12  2  0
 12 13  1  0
 12 14  1  0
 14 15  2  0
  8 16  2  0
 16 17  1  0
 17 18  1  0
 18 19  2  0
 18 20  2  0
 18 21  1  0
 21 22  2  0
 22 23  1  0
 23 24  2  0
 24 25  1  0
 25 26  2  0
 26 27  1  0
 16 28  1  0
 28 29  1  0
 29 30  2  0
 29  3  1  0
 28  6  1  0
 15  9  1  0
 26 21  1  0
  4 31  1  0
 10 32  1  0
 11 33  1  0
 14 34  1  0
 15 35  1  0
 22 36  1  0
 23 37  1  0
 24 38  1  0
 25 39  1  0
M  CHG  2   5  -1  17  -1
M  END
>  <UniqueID>  (19) 
19

>  <SMILES>  (19) 
N#Cc1c[n-]c2nc(-c3ccc(Cl)cc3)c([N-]S(=O)(=O)c3ccccc3F)n2c1=O

>  <Energy>  (19) 
95.99951232376557

>  <Genealogy>  (19) 
N#Cc1c[n-]c2nc(-c3ccc(Cl)cc3)c([N-]S(=O)(=O)c3ccccc3F)n2c1=O (protonated)
N#Cc1c[n-]c2nc(-c3ccc(Cl)cc3)c([N-]S(=O)(=O)c3ccccc3F)n2c1=O (3D coordinates assigned)
N#Cc1c[n-]c2nc(-c3ccc(Cl)cc3)c([N-]S(=O)(=O)c3ccccc3F)n2c1=O (optimized conformer: 95.99951232376557 kcal/mol)

>  <smiles>  (19) 
N#Cc1c[nH]c2nc(-c3ccc(Cl)cc3)c(NS(=O)(=O)c3ccccc3F)n2c1=O

>  <score_type>  (19) 
oracle

>  <origin>  (19) 
adg

>  <m_score__min__energy>  (19) 
-11.49

>  <m_primary>  (19) 
energy

$$$$
19:0
     RDKit          3D

 55 58  0  0  0  0  0  0  0  0999 V2000
   58.5250   29.5450   47.7870 O   0  0  0  0  0  0  0  0  0  0  0  0
   59.5390   30.1810   47.3910 C   0  0  0  0  0  0  0  0  0  0  0  0
   59.7680   30.3540   45.9840 N   0  0  0  0  0  0  0  0  0  0  0  0
   58.7490   30.1090   45.0040 C   0  0  0  0  0  0  0  0  0  0  0  0
   58.0470   31.1980   44.4650 C   0  0  0  0  0  0  0  0  0  0  0  0
   57.0510   30.9940   43.5060 C   0  0  0  0  0  0  0  0  0  0  0  0
   56.7390   29.6990   43.0880 C   0  0  0  0  0  0  0  0  0  0  0  0
   57.4110   28.6050   43.6370 C   0  0  0  0  0  0  0  0  0  0  0  0
   58.4120   28.7990   44.5980 C   0  0  0  0  0  0  0  0  0  0  0  0
   59.1560   27.3830   45.3300 Cl  0  0  0  0  0  0  0  0  0  0  0  0
   60.4720   30.6870   48.3580 N   0  0  0  0  0  0  0  0  0  0  0  0
   60.1490   30.9670   49.6090 N   0  0  0  0  0  0  0  0  0  0  0  0
   61.2610   31.4510   50.2010 C   0  0  0  0  0  0  0  0  0  0  0  0
   61.2910   31.8740   51.9210 S   0  0  0  0  0  0  0  0  0  0  0  0
   61.7560   30.6770   52.7020 O   0  0  0  0  0  0  0  0  0  0  0  0
   62.2240   33.0160   52.1930 O   0  0  0  0  0  0  0  0  0  0  0  0
   59.6740   32.3760   52.5260 C   0  0  0  0  0  0  0  0  0  0  0  0
   58.5730   31.3470   52.2940 C   0  0  0  0  0  0  0  0  0  0  0  0
   57.8460   32.3350   51.3900 C   0  0  0  0  0  0  0  0  0  0  0  0
   58.9500   33.3610   51.6130 C   0  0  0  0  0  0  0  0  0  0  0  0
   62.3100   31.4830   49.3340 N   0  0  0  0  0  0  0  0  0  0  0  0
   63.6930   31.9380   49.5120 C   0  0  0  0  0  0  0  0  0  0  0  0
   63.9740   33.1820   48.6580 C   0  0  0  0  0  0  0  0  0  0  0  0
   62.9060   34.1270   48.7460 O   0  0  0  0  0  0  0  0  0  0  0  0
   61.7040   34.0740   48.0210 C   0  0  0  0  0  0  0  0  0  0  0  0
   61.6590   33.8650   46.6300 C   0  0  0  0  0  0  0  0  0  0  0  0
   60.4320   33.8410   45.9600 C   0  0  0  0  0  0  0  0  0  0  0  0
   59.2280   34.0210   46.6650 C   0  0  0  0  0  0  0  0  0  0  0  0
   57.9640   34.0030   45.9760 N   0  0  0  0  0  0  0  0  0  0  0  0
   57.8260   34.5880   44.8820 O   0  0  0  0  0  0  0  0  0  0  0  0
   56.8850   33.3390   46.5140 O   0  0  0  0  0  0  0  0  0  0  0  0
   59.2790   34.2190   48.0550 C   0  0  0  0  0  0  0  0  0  0  0  0
   60.5050   34.2390   48.7230 C   0  0  0  0  0  0  0  0  0  0  0  0
   61.7700   31.0040   48.1950 C   0  0  0  0  0  0  0  0  0  0  0  0
   62.4020   30.8900   47.1100 O   0  0  0  0  0  0  0  0  0  0  0  0
   60.7540   30.4290   45.6510 H   0  0  0  0  0  0  0  0  0  0  0  0
   58.2822   32.2191   44.7996 H   0  0  0  0  0  0  0  0  0  0  0  0
   56.5129   31.8539   43.0805 H   0  0  0  0  0  0  0  0  0  0  0  0
   55.9627   29.5402   42.3251 H   0  0  0  0  0  0  0  0  0  0  0  0
   57.1532   27.5858   43.3134 H   0  0  0  0  0  0  0  0  0  0  0  0
   59.9539   32.6664   53.5494 H   0  0  0  0  0  0  0  0  0  0  0  0
   58.9113   30.4340   51.7821 H   0  0  0  0  0  0  0  0  0  0  0  0
   58.0538   30.8835   53.1458 H   0  0  0  0  0  0  0  0  0  0  0  0
   57.7493   32.0003   50.3466 H   0  0  0  0  0  0  0  0  0  0  0  0
   56.7962   32.5981   51.5869 H   0  0  0  0  0  0  0  0  0  0  0  0
   59.5089   33.6253   50.7032 H   0  0  0  0  0  0  0  0  0  0  0  0
   58.7076   34.3744   51.9654 H   0  0  0  0  0  0  0  0  0  0  0  0
   63.8579   32.1836   50.5715 H   0  0  0  0  0  0  0  0  0  0  0  0
   64.3718   31.1328   49.1944 H   0  0  0  0  0  0  0  0  0  0  0  0
   64.9016   33.6564   49.0110 H   0  0  0  0  0  0  0  0  0  0  0  0
   64.0716   32.8667   47.6087 H   0  0  0  0  0  0  0  0  0  0  0  0
   62.5931   33.7199   46.0675 H   0  0  0  0  0  0  0  0  0  0  0  0
   60.4079   33.6800   44.8721 H   0  0  0  0  0  0  0  0  0  0  0  0
   58.3464   34.3593   48.6211 H   0  0  0  0  0  0  0  0  0  0  0  0
   60.5284   34.3861   49.8129 H   0  0  0  0  0  0  0  0  0  0  0  0
  1  2  2  0
  2  3  1  0
  3  4  1  0
  4  5  2  0
  5  6  1  0
  6  7  2  0
  7  8  1  0
  8  9  2  0
  9 10  1  0
  2 11  1  0
 11 12  1  0
 12 13  2  0
 13 14  1  0
 14 15  2  0
 14 16  2  0
 14 17  1  0
 17 18  1  0
 18 19  1  0
 19 20  1  0
 13 21  1  0
 21 22  1  0
 22 23  1  0
 23 24  1  0
 24 25  1  0
 25 26  2  0
 26 27  1  0
 27 28  2  0
 28 29  1  0
 29 30  2  0
 29 31  1  0
 28 32  1  0
 32 33  2  0
 21 34  1  0
 34 35  2  0
  9  4  1  0
 34 11  1  0
 20 17  1  0
 33 25  1  0
  3 36  1  0
  5 37  1  0
  6 38  1  0
  7 39  1  0
  8 40  1  0
 17 41  1  0
 18 42  1  0
 18 43  1  0
 19 44  1  0
 19 45  1  0
 20 46  1  0
 20 47  1  0
 22 48  1  0
 22 49  1  0
 23 50  1  0
 23 51  1  0
 26 52  1  0
 27 53  1  0
 32 54  1  0
 33 55  1  0
M  CHG  2  29   1  31  -1
M  END
>  <UniqueID>  (20) 
20

>  <SMILES>  (20) 
O=C(Nc1ccccc1Cl)n1nc(S(=O)(=O)C2CCC2)n(CCOc2ccc([N+](=O)[O-])cc2)c1=O

>  <Energy>  (20) 
160.72688895175952

>  <Genealogy>  (20) 
O=C(Nc1ccccc1Cl)n1nc(S(=O)(=O)C2CCC2)n(CCOc2ccc([N+](=O)[O-])cc2)c1=O (3D coordinates assigned)
O=C(Nc1ccccc1Cl)n1nc(S(=O)(=O)C2CCC2)n(CCOc2ccc([N+](=O)[O-])cc2)c1=O (nonaromatic ring conformer: 160.72688895175952 kcal/mol)

>  <smiles>  (20) 
O=C(Nc1ccccc1Cl)n1nc(S(=O)(=O)C2CCC2)n(CCOc2ccc([N+](=O)[O-])cc2)c1=O

>  <score_type>  (20) 
oracle

>  <origin>  (20) 
adg

>  <m_score__min__energy>  (20) 
-9.8000000000000007

>  <m_primary>  (20) 
energy

$$$$
20:0
     RDKit          3D

 40 42  0  0  0  0  0  0  0  0999 V2000
   57.8471   29.1560   47.6311 H   0  0  0  0  0  0  0  0  0  0  0  0
   57.7910   28.1810   47.1250 C   0  0  0  0  0  0  0  0  0  0  0  0
   57.6800   27.2600   47.7162 H   0  0  0  0  0  0  0  0  0  0  0  0
   57.8580   28.1150   45.7860 C   0  0  0  0  0  0  0  0  0  0  0  0
   57.8020   26.9610   44.9950 C   0  0  0  0  0  0  0  0  0  0  0  0
   57.7200   25.6860   45.4290 C   0  0  0  0  0  0  0  0  0  0  0  0
   58.6290   25.2220   45.8394 H   0  0  0  0  0  0  0  0  0  0  0  0
   56.4900   24.8760   45.3880 C   0  0  0  0  0  0  0  0  0  0  0  0
   55.2440   25.4530   45.6600 C   0  0  0  0  0  0  0  0  0  0  0  0
   55.1460   26.7990   45.9980 O   0  0  0  0  0  0  0  0  0  0  0  0
   54.1180   24.6970   45.5980 N   0  0  0  0  0  0  0  0  0  0  0  0
   54.1770   23.3810   45.2670 C   0  0  0  0  0  0  0  0  0  0  0  0
   53.1200   22.6960   45.2160 O   0  0  0  0  0  0  0  0  0  0  0  0
   55.3710   22.8030   44.9830 N   0  0  0  0  0  0  0  0  0  0  0  0
   56.5240   23.5200   45.0270 C   0  0  0  0  0  0  0  0  0  0  0  0
   57.6180   22.9530   44.7540 O   0  0  0  0  0  0  0  0  0  0  0  0
   57.8780   27.4410   43.6810 C   0  0  0  0  0  0  0  0  0  0  0  0
   57.9120   26.6630   42.3990 C   0  0  0  0  0  0  0  0  0  0  0  0
   57.9590   25.5873   42.6240 H   0  0  0  0  0  0  0  0  0  0  0  0
   57.0037   26.8764   41.8164 H   0  0  0  0  0  0  0  0  0  0  0  0
   58.7982   26.9548   41.8164 H   0  0  0  0  0  0  0  0  0  0  0  0
   57.9870   28.7830   43.7150 N   0  0  0  0  0  0  0  0  0  0  0  0
   58.0870   29.4110   42.8870 H   0  0  0  0  0  0  0  0  0  0  0  0
   57.9600   29.1940   44.9730 N   0  0  0  0  0  0  0  0  0  0  0  0
   58.1400   30.5700   45.3450 C   0  0  0  0  0  0  0  0  0  0  0  0
   57.3390   31.4440   44.9130 O   0  0  0  0  0  0  0  0  0  0  0  0
   59.1810   30.9450   46.2660 N   0  0  0  0  0  0  0  0  0  0  0  0
   60.4600   30.2160   46.2220 C   0  0  0  0  0  0  0  0  0  0  0  0
   60.2857   29.1766   46.5372 H   0  0  0  0  0  0  0  0  0  0  0  0
   60.8397   30.2650   45.1908 H   0  0  0  0  0  0  0  0  0  0  0  0
   61.5140   30.8370   47.1380 C   0  0  0  0  0  0  0  0  0  0  0  0
   62.2952   30.0919   47.3488 H   0  0  0  0  0  0  0  0  0  0  0  0
   61.9518   31.7123   46.6358 H   0  0  0  0  0  0  0  0  0  0  0  0
   60.9280   31.2520   48.3520 O   0  0  0  0  0  0  0  0  0  0  0  0
   60.1140   32.3760   48.0960 C   0  0  0  0  0  0  0  0  0  0  0  0
   59.7809   32.8047   49.0527 H   0  0  0  0  0  0  0  0  0  0  0  0
   60.7011   33.1128   47.5281 H   0  0  0  0  0  0  0  0  0  0  0  0
   58.8860   31.9850   47.2670 C   0  0  0  0  0  0  0  0  0  0  0  0
   58.1083   31.6077   47.9472 H   0  0  0  0  0  0  0  0  0  0  0  0
   58.5531   32.8821   46.7245 H   0  0  0  0  0  0  0  0  0  0  0  0
  1  2  1  0
  2  3  1  0
  2  4  2  0
  4  5  1  0
  5  6  2  0
  6  7  1  0
  6  8  1  0
  8  9  2  0
  9 10  1  0
  9 11  1  0
 11 12  1  0
 12 13  2  0
 12 14  1  0
 14 15  1  0
 15 16  2  0
  5 17  1  0
 17 18  1  0
 18 19  1  0
 18 20  1  0
 18 21  1  0
 17 22  2  0
 22 23  1  0
 22 24  1  0
 24 25  1  0
 25 26  2  0
 25 27  1  0
 27 28  1  0
 28 29  1  0
 28 30  1  0
 28 31  1  0
 31 32  1  0
 31 33  1  0
 31 34  1  0
 34 35  1  0
 35 36  1  0
 35 37  1  0
 35 38  1  0
 38 39  1  0
 38 40  1  0
 24  4  1  0
 38 27  1  0
 15  8  1  0
M  CHG  4  10  -1  11  -1  14  -1  22   1
M  END
>  <UniqueID>  (21) 
21

>  <SMILES>  (21) 
C=c1/c(=C/c2c([O-])[n-]c(=O)[n-]c2=O)c(C)[nH+]n1C(=O)N1CCOCC1

>  <Energy>  (21) 
96.29935712379947

>  <Genealogy>  (21) 
C=c1c(=Cc2c([O-])[n-]c(=O)[n-]c2=O)c(C)[nH+]n1C(=O)N1CCOCC1 (protonated)
C=c1/c(=C/c2c([O-])[n-]c(=O)[n-]c2=O)c(C)[nH+]n1C(=O)N1CCOCC1 (cis-trans isomerization)
C=c1/c(=C/c2c([O-])[n-]c(=O)[n-]c2=O)c(C)[nH+]n1C(=O)N1CCOCC1 (3D coordinates assigned)
C=c1/c(=C/c2c([O-])[n-]c(=O)[n-]c2=O)c(C)[nH+]n1C(=O)N1CCOCC1 (nonaromatic ring conformer: 96.29935712379947 kcal/mol)

>  <smiles>  (21) 
C=c1c(=Cc2c(O)[nH]c(=O)[nH]c2=O)c(C)nn1C(=O)N1CCOCC1

>  <score_type>  (21) 
oracle

>  <origin>  (21) 
adg

>  <m_score__min__energy>  (21) 
-13.91

>  <m_primary>  (21) 
energy

$$$$
21:0
     RDKit          3D

 43 45  0  0  0  0  0  0  0  0999 V2000
   58.4700   32.6700   50.5880 N   0  0  0  0  0  0  0  0  0  0  0  0
   58.6940   30.9650   50.7730 S   0  0  0  0  0  0  0  0  0  0  0  0
   59.7300   30.7370   51.8360 O   0  0  0  0  0  0  0  0  0  0  0  0
   57.3920   30.3450   51.1980 O   0  0  0  0  0  0  0  0  0  0  0  0
   59.2470   30.2470   49.2510 C   0  0  0  0  0  0  0  0  0  0  0  0
   60.0040   29.0640   49.2870 C   0  0  0  0  0  0  0  0  0  0  0  0
   60.3560   28.4080   48.1050 C   0  0  0  0  0  0  0  0  0  0  0  0
   59.9390   28.9140   46.8740 C   0  0  0  0  0  0  0  0  0  0  0  0
   59.1980   30.0950   46.8200 C   0  0  0  0  0  0  0  0  0  0  0  0
   58.8820   30.7920   47.9940 C   0  0  0  0  0  0  0  0  0  0  0  0
   58.1990   32.0490   47.8870 N   0  0  0  0  0  0  0  0  0  0  0  0
   58.5060   33.0250   46.8760 C   0  0  0  0  0  0  0  0  0  0  0  0
   57.8270   32.9580   45.6500 C   0  0  0  0  0  0  0  0  0  0  0  0
   58.0390   33.9280   44.6670 C   0  0  0  0  0  0  0  0  0  0  0  0
   58.9460   34.9640   44.8910 C   0  0  0  0  0  0  0  0  0  0  0  0
   59.6600   35.0230   46.0890 C   0  0  0  0  0  0  0  0  0  0  0  0
   59.4550   34.0580   47.0880 C   0  0  0  0  0  0  0  0  0  0  0  0
   60.3360   34.0650   48.2710 C   0  0  0  0  0  0  0  0  0  0  0  0
   59.8790   34.5070   49.3600 O   0  0  0  0  0  0  0  0  0  0  0  0
   61.6950   33.5980   48.2060 N   0  0  0  0  0  0  0  0  0  0  0  0
   62.3530   33.1510   46.9890 C   0  0  0  0  0  0  0  0  0  0  0  0
   63.7650   32.7630   47.4060 C   0  0  0  0  0  0  0  0  0  0  0  0
   63.9900   33.4070   48.7690 C   0  0  0  0  0  0  0  0  0  0  0  0
   62.6020   33.6710   49.3370 C   0  0  0  0  0  0  0  0  0  0  0  0
   59.3150   33.1370   50.9860 H   0  0  0  0  0  0  0  0  0  0  0  0
   58.4790   32.8700   49.5620 H   0  0  0  0  0  0  0  0  0  0  0  0
   60.3226   28.6504   50.2552 H   0  0  0  0  0  0  0  0  0  0  0  0
   60.9627   27.4913   48.1451 H   0  0  0  0  0  0  0  0  0  0  0  0
   60.1943   28.3820   45.9457 H   0  0  0  0  0  0  0  0  0  0  0  0
   58.8590   30.4822   45.8478 H   0  0  0  0  0  0  0  0  0  0  0  0
   57.4910   32.2850   48.6190 H   0  0  0  0  0  0  0  0  0  0  0  0
   57.1220   32.1350   45.4612 H   0  0  0  0  0  0  0  0  0  0  0  0
   57.4900   33.8747   43.7153 H   0  0  0  0  0  0  0  0  0  0  0  0
   59.0988   35.7358   44.1222 H   0  0  0  0  0  0  0  0  0  0  0  0
   60.3883   35.8312   46.2515 H   0  0  0  0  0  0  0  0  0  0  0  0
   61.8262   32.2839   46.5639 H   0  0  0  0  0  0  0  0  0  0  0  0
   62.3573   33.9347   46.2171 H   0  0  0  0  0  0  0  0  0  0  0  0
   63.8551   31.6692   47.4801 H   0  0  0  0  0  0  0  0  0  0  0  0
   64.5104   33.1016   46.6714 H   0  0  0  0  0  0  0  0  0  0  0  0
   64.5499   32.7259   49.4268 H   0  0  0  0  0  0  0  0  0  0  0  0
   64.5771   34.3336   48.6871 H   0  0  0  0  0  0  0  0  0  0  0  0
   62.3428   32.9087   50.0865 H   0  0  0  0  0  0  0  0  0  0  0  0
   62.5476   34.6483   49.8390 H   0  0  0  0  0  0  0  0  0  0  0  0
  1  2  1  0
  2  3  2  0
  2  4  2  0
  2  5  1  0
  5  6  2  0
  6  7  1  0
  7  8  2  0
  8  9  1  0
  9 10  2  0
 10 11  1  0
 11 12  1  0
 12 13  2  0
 13 14  1  0
 14 15  2  0
 15 16  1  0
 16 17  2  0
 17 18  1  0
 18 19  2  0
 18 20  1  0
 20 21  1  0
 21 22  1  0
 22 23  1  0
 23 24  1  0
 10  5  1  0
 17 12  1  0
 24 20  1  0
  1 25  1  0
  1 26  1  0
  6 27  1  0
  7 28  1  0
  8 29  1  0
  9 30  1  0
 11 31  1  0
 13 32  1  0
 14 33  1  0
 15 34  1  0
 16 35  1  0
 21 36  1  0
 21 37  1  0
 22 38  1  0
 22 39  1  0
 23 40  1  0
 23 41  1  0
 24 42  1  0
 24 43  1  0
M  END
>  <UniqueID>  (22) 
22

>  <SMILES>  (22) 
NS(=O)(=O)c1ccccc1Nc1ccccc1C(=O)N1CCCC1

>  <Energy>  (22) 
56.26048087637104

>  <Genealogy>  (22) 
NS(=O)(=O)c1ccccc1Nc1ccccc1C(=O)N1CCCC1 (3D coordinates assigned)
NS(=O)(=O)c1ccccc1Nc1ccccc1C(=O)N1CCCC1 (nonaromatic ring conformer: 56.26048087637104 kcal/mol)

>  <smiles>  (22) 
NS(=O)(=O)c1ccccc1Nc1ccccc1C(=O)N1CCCC1

>  <score_type>  (22) 
oracle

>  <origin>  (22) 
adg

>  <m_score__min__energy>  (22) 
-9.1999999999999993

>  <m_primary>  (22) 
energy

$$$$
22:0
     RDKit          3D

 59 63  0  0  0  0  0  0  0  0999 V2000
   56.6180   29.6840   45.0750 C   0  0  0  0  0  0  0  0  0  0  0  0
   57.6460   29.3170   45.8460 C   0  0  0  0  0  0  0  0  0  0  0  0
   58.2510   30.2490   46.6370 N   0  0  0  0  0  0  0  0  0  0  0  0
   59.1900   29.7250   47.4520 C   0  0  0  0  0  0  0  0  0  0  0  0
   59.9810   30.5600   48.4270 C   0  0  1  0  0  0  0  0  0  0  0  0
   60.6000   31.7620   47.7450 C   0  0  0  0  0  0  0  0  0  0  0  0
   61.9860   32.0050   47.8120 C   0  0  0  0  0  0  0  0  0  0  0  0
   62.5430   33.1080   47.1600 C   0  0  0  0  0  0  0  0  0  0  0  0
   61.7280   33.9780   46.4320 C   0  0  0  0  0  0  0  0  0  0  0  0
   60.3480   33.7520   46.3620 C   0  0  0  0  0  0  0  0  0  0  0  0
   59.3070   34.8490   45.3990 S   0  0  0  0  0  0  0  0  0  0  0  0
   57.8040   33.8610   45.6880 C   0  0  0  0  0  0  0  0  0  0  0  0
   59.7860   32.6580   47.0280 C   0  0  0  0  0  0  0  0  0  0  0  0
   59.1660   30.9720   49.6320 C   0  0  0  0  0  0  0  0  0  0  0  0
   58.1600   30.2290   50.1470 N   0  0  0  0  0  0  0  0  0  0  0  0
   57.6350   30.8850   51.1700 N   0  0  0  0  0  0  0  0  0  0  0  0
   56.5060   30.4010   51.9220 C   0  0  0  0  0  0  0  0  0  0  0  0
   56.6460   29.3590   52.8580 C   0  0  0  0  0  0  0  0  0  0  0  0
   55.5370   28.9060   53.5820 C   0  0  0  0  0  0  0  0  0  0  0  0
   54.2800   29.4800   53.3730 C   0  0  0  0  0  0  0  0  0  0  0  0
   54.1280   30.5030   52.4340 C   0  0  0  0  0  0  0  0  0  0  0  0
   55.2330   30.9580   51.7070 C   0  0  0  0  0  0  0  0  0  0  0  0
   58.2800   32.0620   51.3030 C   0  0  0  0  0  0  0  0  0  0  0  0
   57.9720   32.9510   52.1380 O   0  0  0  0  0  0  0  0  0  0  0  0
   59.2680   32.1670   50.3410 C   0  0  0  0  0  0  0  0  0  0  0  0
   60.1670   33.3140   50.0930 C   0  0  0  0  0  0  0  0  0  0  0  0
   59.6650   34.5630   49.4320 C   0  0  0  0  0  0  0  0  0  0  0  0
   61.3920   33.2290   50.3770 O   0  0  0  0  0  0  0  0  0  0  0  0
   59.2960   28.0590   47.2390 S   0  0  0  0  0  0  0  0  0  0  0  0
   58.1410   28.0010   46.0150 C   0  0  0  0  0  0  0  0  0  0  0  0
   57.8550   26.8550   45.3660 C   0  0  0  0  0  0  0  0  0  0  0  0
   57.2610   25.6460   45.9690 C   0  0  0  0  0  0  0  0  0  0  0  0
   55.8950   25.6150   46.2880 C   0  0  0  0  0  0  0  0  0  0  0  0
   55.0750   26.6970   45.9860 O   0  0  0  0  0  0  0  0  0  0  0  0
   55.3620   24.5180   46.8850 N   0  0  0  0  0  0  0  0  0  0  0  0
   56.1340   23.4470   47.2020 C   0  0  0  0  0  0  0  0  0  0  0  0
   55.6160   22.4390   47.7510 O   0  0  0  0  0  0  0  0  0  0  0  0
   57.4650   23.4650   46.9330 N   0  0  0  0  0  0  0  0  0  0  0  0
   58.0460   24.5370   46.3370 C   0  0  0  0  0  0  0  0  0  0  0  0
   59.2880   24.5280   46.1250 O   0  0  0  0  0  0  0  0  0  0  0  0
   56.1206   28.9429   44.4321 H   0  0  0  0  0  0  0  0  0  0  0  0
   56.2692   30.7272   45.0833 H   0  0  0  0  0  0  0  0  0  0  0  0
   60.7959   29.9223   48.8003 H   0  0  0  0  0  0  0  0  0  0  0  0
   62.6338   31.3221   48.3812 H   0  0  0  0  0  0  0  0  0  0  0  0
   63.6259   33.2917   47.2201 H   0  0  0  0  0  0  0  0  0  0  0  0
   62.1706   34.8412   45.9134 H   0  0  0  0  0  0  0  0  0  0  0  0
   57.6390   33.7525   46.7701 H   0  0  0  0  0  0  0  0  0  0  0  0
   56.9394   34.3675   45.2342 H   0  0  0  0  0  0  0  0  0  0  0  0
   57.9261   32.8664   45.2342 H   0  0  0  0  0  0  0  0  0  0  0  0
   58.6985   32.4968   46.9909 H   0  0  0  0  0  0  0  0  0  0  0  0
   57.6316   28.8986   53.0212 H   0  0  0  0  0  0  0  0  0  0  0  0
   55.6551   28.0963   54.3172 H   0  0  0  0  0  0  0  0  0  0  0  0
   53.4111   29.1265   53.9474 H   0  0  0  0  0  0  0  0  0  0  0  0
   53.1377   30.9515   52.2660 H   0  0  0  0  0  0  0  0  0  0  0  0
   55.1052   31.7571   50.9619 H   0  0  0  0  0  0  0  0  0  0  0  0
   59.3718   35.2925   50.2013 H   0  0  0  0  0  0  0  0  0  0  0  0
   60.4608   34.9913   48.8049 H   0  0  0  0  0  0  0  0  0  0  0  0
   58.7941   34.3214   48.8049 H   0  0  0  0  0  0  0  0  0  0  0  0
   58.0848   26.8174   44.2909 H   0  0  0  0  0  0  0  0  0  0  0  0
  1  2  2  0
  2  3  1  0
  3  4  2  0
  4  5  1  0
  5  6  1  0
  6  7  2  0
  7  8  1  0
  8  9  2  0
  9 10  1  0
 10 11  1  0
 11 12  1  0
 10 13  2  0
  5 14  1  0
 14 15  1  0
 15 16  1  0
 16 17  1  0
 17 18  2  0
 18 19  1  0
 19 20  2  0
 20 21  1  0
 21 22  2  0
 16 23  1  0
 23 24  2  0
 23 25  1  0
 25 26  1  0
 26 27  1  0
 26 28  2  0
  4 29  1  0
 29 30  1  0
 30 31  2  3
 31 32  1  0
 32 33  2  0
 33 34  1  0
 33 35  1  0
 35 36  1  0
 36 37  2  0
 36 38  1  0
 38 39  1  0
 39 40  2  0
 30  2  1  0
 39 32  1  0
 13  6  1  0
 25 14  2  0
 22 17  1  0
  1 41  1  0
  1 42  1  0
  5 43  1  1
  7 44  1  0
  8 45  1  0
  9 46  1  0
 12 47  1  0
 12 48  1  0
 12 49  1  0
 13 50  1  0
 18 51  1  0
 19 52  1  0
 20 53  1  0
 21 54  1  0
 22 55  1  0
 27 56  1  0
 27 57  1  0
 27 58  1  0
 31 59  1  0
M  CHG  4  15  -1  34  -1  35  -1  38  -1
M  END
>  <UniqueID>  (23) 
23

>  <SMILES>  (23) 
C=c1nc([C@@H](c2cccc(SC)c2)c2[n-]n(-c3ccccc3)c(=O)c2C(C)=O)sc1=Cc1c([O-])[n-]c(=O)[n-]c1=O

>  <Energy>  (23) 
144.57204636118595

>  <Genealogy>  (23) 
C=c1nc(C(c2cccc(SC)c2)c2[n-]n(-c3ccccc3)c(=O)c2C(C)=O)sc1=Cc1c([O-])[n-]c(=O)[n-]c1=O (protonated)
C=c1nc([C@@H](c2cccc(SC)c2)c2[n-]n(-c3ccccc3)c(=O)c2C(C)=O)sc1=Cc1c([O-])[n-]c(=O)[n-]c1=O (chirality)
C=c1nc([C@@H](c2cccc(SC)c2)c2[n-]n(-c3ccccc3)c(=O)c2C(C)=O)sc1=Cc1c([O-])[n-]c(=O)[n-]c1=O (3D coordinates assigned)
C=c1nc([C@@H](c2cccc(SC)c2)c2[n-]n(-c3ccccc3)c(=O)c2C(C)=O)sc1=Cc1c([O-])[n-]c(=O)[n-]c1=O (optimized conformer: 144.57204636118595 kcal/mol)

>  <smiles>  (23) 
C=c1nc(C(c2cccc(SC)c2)c2[nH]n(-c3ccccc3)c(=O)c2C(C)=O)sc1=Cc1c(O)[nH]c(=O)[nH]c1=O

>  <score_type>  (23) 
oracle

>  <origin>  (23) 
adg

>  <m_score__min__energy>  (23) 
-18.969999999999999

>  <m_primary>  (23) 
energy

$$$$
23:0
     RDKit          3D

 69 73  0  0  1  0  0  0  0  0999 V2000
   57.2570   21.1380   42.9960 C   0  0  0  0  0  0  0  0  0  0  0  0
   56.2430   21.8800   43.6950 N   0  0  0  0  0  0  0  0  0  0  0  0
   56.6450   22.0060   45.0830 C   0  0  0  0  0  0  0  0  0  0  0  0
   57.9870   22.6870   45.1250 C   0  0  0  0  0  0  0  0  0  0  0  0
   57.8900   24.0380   44.4790 C   0  0  0  0  0  0  0  0  0  0  0  0
   58.2250   25.0690   45.5210 C   0  0  0  0  0  0  0  0  0  0  0  0
   57.2560   25.8870   46.0570 C   0  0  0  0  0  0  0  0  0  0  0  0
   57.5260   26.8400   47.0080 C   0  0  0  0  0  0  0  0  0  0  0  0
   58.8490   26.9840   47.4520 C   0  0  0  0  0  0  0  0  0  0  0  0
   59.1810   27.8670   48.4600 N   0  0  0  0  0  0  0  0  0  0  0  0
   59.3350   29.1040   48.3410 C   0  0  0  0  0  0  0  0  0  0  0  0
   58.8550   29.6530   47.1720 N   0  0  0  0  0  0  0  0  0  0  0  0
   59.0010   30.9350   46.8670 C   0  0  0  0  0  0  0  0  0  0  0  0
   58.4990   31.5070   45.6400 C   0  0  0  0  0  0  0  0  0  0  0  0
   58.5900   32.8610   45.4070 C   0  0  0  0  0  0  0  0  0  0  0  0
   58.1250   33.4440   44.2500 C   0  0  0  0  0  0  0  0  0  0  0  0
   57.5680   32.6430   43.3330 N   0  0  0  0  0  0  0  0  0  0  0  0
   57.4770   31.3140   43.5570 C   0  0  0  0  0  0  0  0  0  0  0  0
   56.9260   30.6060   42.6230 N   0  0  0  0  0  0  0  0  0  0  0  0
   57.9330   30.7370   44.6920 N   0  0  0  0  0  0  0  0  0  0  0  0
   59.6500   31.7170   47.7550 N   0  0  0  0  0  0  0  0  0  0  0  0
   60.1320   31.2290   48.9060 C   0  0  0  0  0  0  0  0  0  0  0  0
   60.9720   32.3640   49.9970 S   0  0  0  0  0  0  0  0  0  0  0  0
   62.7610   32.1080   49.7990 C   0  0  2  0  0  0  0  0  0  0  0  0
   63.3840   33.4930   49.7920 C   0  0  0  0  0  0  0  0  0  0  0  0
   62.7160   34.2200   48.6160 C   0  0  0  0  0  0  0  0  0  0  0  0
   63.2400   33.5470   47.3870 C   0  0  0  0  0  0  0  0  0  0  0  0
   63.3990   34.1740   46.2990 O   0  0  0  0  0  0  0  0  0  0  0  0
   63.5630   32.1480   47.4720 N   0  0  0  0  0  0  0  0  0  0  0  0
   62.9820   31.3520   48.5230 C   0  0  0  0  0  0  0  0  0  0  0  0
   59.9840   29.8630   49.2510 C   0  0  0  0  0  0  0  0  0  0  0  0
   60.4250   29.5390   50.5730 C   0  0  0  0  0  0  0  0  0  0  0  0
   61.7310   29.3450   51.0560 N   0  0  0  0  0  0  0  0  0  0  0  0
   59.4920   29.3880   51.4540 O   0  0  0  0  0  0  0  0  0  0  0  0
   59.8680   26.1700   46.9320 C   0  0  0  0  0  0  0  0  0  0  0  0
   59.5380   25.2150   45.9660 C   0  0  0  0  0  0  0  0  0  0  0  0
   56.4980   24.2630   43.9730 C   0  0  0  0  0  0  0  0  0  0  0  0
   55.9910   23.1490   43.0860 C   0  0  0  0  0  0  0  0  0  0  0  0
   57.9225   20.6510   43.7240 H   0  0  0  0  0  0  0  0  0  0  0  0
   56.7818   20.3728   42.3646 H   0  0  0  0  0  0  0  0  0  0  0  0
   57.8425   21.8225   42.3646 H   0  0  0  0  0  0  0  0  0  0  0  0
   55.9051   22.6073   45.6317 H   0  0  0  0  0  0  0  0  0  0  0  0
   56.7085   21.0128   45.5515 H   0  0  0  0  0  0  0  0  0  0  0  0
   58.3048   22.8043   46.1716 H   0  0  0  0  0  0  0  0  0  0  0  0
   58.7225   22.0757   44.5815 H   0  0  0  0  0  0  0  0  0  0  0  0
   58.5844   24.1077   43.6288 H   0  0  0  0  0  0  0  0  0  0  0  0
   56.2192   25.7720   45.7079 H   0  0  0  0  0  0  0  0  0  0  0  0
   56.7241   27.4754   47.4121 H   0  0  0  0  0  0  0  0  0  0  0  0
   58.3460   29.0530   46.4730 H   0  0  0  0  0  0  0  0  0  0  0  0
   59.0514   33.5005   46.1739 H   0  0  0  0  0  0  0  0  0  0  0  0
   58.2080   34.5284   44.0848 H   0  0  0  0  0  0  0  0  0  0  0  0
   57.2070   33.0590   42.4480 H   0  0  0  0  0  0  0  0  0  0  0  0
   57.3600   29.7570   42.1960 H   0  0  0  0  0  0  0  0  0  0  0  0
   63.2209   31.5163   50.6042 H   0  0  0  0  0  0  0  0  0  0  0  0
   63.1773   34.0153   50.7378 H   0  0  0  0  0  0  0  0  0  0  0  0
   64.4784   33.4546   49.6876 H   0  0  0  0  0  0  0  0  0  0  0  0
   61.6220   34.1207   48.6729 H   0  0  0  0  0  0  0  0  0  0  0  0
   62.9384   35.2973   48.6201 H   0  0  0  0  0  0  0  0  0  0  0  0
   64.2180   31.7050   46.7770 H   0  0  0  0  0  0  0  0  0  0  0  0
   62.0117   30.9697   48.1732 H   0  0  0  0  0  0  0  0  0  0  0  0
   63.6949   30.5447   48.7467 H   0  0  0  0  0  0  0  0  0  0  0  0
   62.4280   28.8920   50.4310 H   0  0  0  0  0  0  0  0  0  0  0  0
   62.0060   29.6440   52.0190 H   0  0  0  0  0  0  0  0  0  0  0  0
   60.9061   26.2816   47.2781 H   0  0  0  0  0  0  0  0  0  0  0  0
   60.3259   24.5693   45.5509 H   0  0  0  0  0  0  0  0  0  0  0  0
   55.8238   24.3539   44.8374 H   0  0  0  0  0  0  0  0  0  0  0  0
   56.5197   25.1779   43.3626 H   0  0  0  0  0  0  0  0  0  0  0  0
   54.9084   23.2702   42.9332 H   0  0  0  0  0  0  0  0  0  0  0  0
   56.5138   23.1935   42.1192 H   0  0  0  0  0  0  0  0  0  0  0  0
  1  2  1  0
  2  3  1  0
  3  4  1  0
  4  5  1  0
  5  6  1  0
  6  7  2  0
  7  8  1  0
  8  9  2  0
  9 10  1  0
 10 11  2  0
 11 12  1  0
 12 13  1  0
 13 14  1  0
 14 15  1  0
 15 16  2  0
 16 17  1  0
 17 18  1  0
 18 19  2  3
 18 20  1  0
 13 21  2  0
 21 22  1  0
 22 23  1  0
 23 24  1  0
 24 25  1  0
 25 26  1  0
 26 27  1  0
 27 28  2  0
 27 29  1  0
 29 30  1  0
 22 31  2  0
 31 32  1  0
 32 33  1  0
 32 34  2  0
  9 35  1  0
 35 36  2  0
  5 37  1  0
 37 38  1  0
 38  2  1  0
 36  6  1  0
 31 11  1  0
 20 14  2  0
 30 24  1  0
  1 39  1  0
  1 40  1  0
  1 41  1  0
  3 42  1  0
  3 43  1  0
  4 44  1  0
  4 45  1  0
  5 46  1  0
  7 47  1  0
  8 48  1  0
 12 49  1  0
 15 50  1  0
 16 51  1  0
 17 52  1  0
 19 53  1  0
 24 54  1  1
 25 55  1  0
 25 56  1  0
 26 57  1  0
 26 58  1  0
 29 59  1  0
 30 60  1  0
 30 61  1  0
 33 62  1  0
 33 63  1  0
 35 64  1  0
 36 65  1  0
 37 66  1  0
 37 67  1  0
 38 68  1  0
 38 69  1  0
M  END
>  <smiles>  (24) 
CN1CCC(c2ccc(N=c3[nH]c(-c4cc[nH]c(=N)n4)nc(SC4CCC(=O)NC4)c3C(N)=O)cc2)CC1

>  <score_type>  (24) 
oracle

>  <origin>  (24) 
adg

>  <m_score__min__energy>  (24) 
-10.76

>  <m_primary>  (24) 
energy

$$$$
24:0
     RDKit          3D

 48 51  0  0  0  0  0  0  0  0999 V2000
   58.4750   25.3430   47.0850 C   0  0  0  0  0  0  0  0  0  0  0  0
   57.7620   26.5160   46.4450 C   0  0  0  0  0  0  0  0  0  0  0  0
   58.4520   27.7220   46.1320 C   0  0  0  0  0  0  0  0  0  0  0  0
   59.9310   27.8530   46.4760 C   0  0  0  0  0  0  0  0  0  0  0  0
   60.1910   29.0700   47.2470 N   0  0  0  0  0  0  0  0  0  0  0  0
   59.5830   29.4360   48.3870 C   0  0  0  0  0  0  0  0  0  0  0  0
   60.0540   30.6790   48.7410 C   0  0  0  0  0  0  0  0  0  0  0  0
   60.9430   31.1040   47.8210 N   0  0  0  0  0  0  0  0  0  0  0  0
   60.9960   30.1020   46.9190 C   0  0  0  0  0  0  0  0  0  0  0  0
   57.7390   28.7750   45.4890 C   0  0  0  0  0  0  0  0  0  0  0  0
   58.3530   29.9750   45.0570 C   0  0  0  0  0  0  0  0  0  0  0  0
   57.6030   30.9960   44.4590 C   0  0  0  0  0  0  0  0  0  0  0  0
   58.2780   32.1810   44.0140 N   0  0  0  0  0  0  0  0  0  0  0  0
   58.6890   33.2690   44.8490 C   0  0  0  0  0  0  0  0  0  0  0  0
   58.4360   34.4480   44.4850 O   0  0  0  0  0  0  0  0  0  0  0  0
   59.4320   33.0320   46.0530 N   0  0  0  0  0  0  0  0  0  0  0  0
   59.6300   34.0660   47.0660 C   0  0  0  0  0  0  0  0  0  0  0  0
   61.0410   34.0130   47.5850 C   0  0  0  0  0  0  0  0  0  0  0  0
   62.1030   33.7430   46.7060 C   0  0  0  0  0  0  0  0  0  0  0  0
   63.4120   33.6570   47.1880 C   0  0  0  0  0  0  0  0  0  0  0  0
   63.6700   33.8370   48.5490 C   0  0  0  0  0  0  0  0  0  0  0  0
   62.6190   34.1000   49.4310 C   0  0  0  0  0  0  0  0  0  0  0  0
   61.3070   34.1840   48.9530 C   0  0  0  0  0  0  0  0  0  0  0  0
   56.2310   30.8090   44.2400 C   0  0  0  0  0  0  0  0  0  0  0  0
   55.6110   29.6290   44.6420 C   0  0  0  0  0  0  0  0  0  0  0  0
   56.3510   28.6150   45.2570 C   0  0  0  0  0  0  0  0  0  0  0  0
   55.7240   27.4700   45.6200 N   0  0  0  0  0  0  0  0  0  0  0  0
   56.3780   26.4350   46.1960 C   0  0  0  0  0  0  0  0  0  0  0  0
   55.7250   25.4020   46.5040 O   0  0  0  0  0  0  0  0  0  0  0  0
   58.4200   25.4335   48.1799 H   0  0  0  0  0  0  0  0  0  0  0  0
   57.9939   24.4053   46.7700 H   0  0  0  0  0  0  0  0  0  0  0  0
   59.5289   25.3383   46.7700 H   0  0  0  0  0  0  0  0  0  0  0  0
   60.2398   26.9798   47.0695 H   0  0  0  0  0  0  0  0  0  0  0  0
   60.5027   27.9071   45.5378 H   0  0  0  0  0  0  0  0  0  0  0  0
   58.8386   28.8452   48.9409 H   0  0  0  0  0  0  0  0  0  0  0  0
   59.7516   31.2402   49.6374 H   0  0  0  0  0  0  0  0  0  0  0  0
   61.6252   30.1240   46.0170 H   0  0  0  0  0  0  0  0  0  0  0  0
   59.4364   30.1080   45.1930 H   0  0  0  0  0  0  0  0  0  0  0  0
   59.8520   32.0900   46.2180 H   0  0  0  0  0  0  0  0  0  0  0  0
   59.4426   35.0539   46.6199 H   0  0  0  0  0  0  0  0  0  0  0  0
   58.9319   33.8947   47.8987 H   0  0  0  0  0  0  0  0  0  0  0  0
   61.9035   33.5987   45.6339 H   0  0  0  0  0  0  0  0  0  0  0  0
   64.2400   33.4473   46.4949 H   0  0  0  0  0  0  0  0  0  0  0  0
   64.7011   33.7716   48.9264 H   0  0  0  0  0  0  0  0  0  0  0  0
   62.8234   34.2412   50.5026 H   0  0  0  0  0  0  0  0  0  0  0  0
   60.4810   34.3847   49.6512 H   0  0  0  0  0  0  0  0  0  0  0  0
   55.6421   31.5975   43.7487 H   0  0  0  0  0  0  0  0  0  0  0  0
   54.5322   29.4938   44.4746 H   0  0  0  0  0  0  0  0  0  0  0  0
  1  2  1  0
  2  3  2  0
  3  4  1  0
  4  5  1  0
  5  6  1  0
  6  7  2  0
  7  8  1  0
  8  9  2  0
  3 10  1  0
 10 11  2  0
 11 12  1  0
 12 13  1  0
 13 14  1  0
 14 15  2  0
 14 16  1  0
 16 17  1  0
 17 18  1  0
 18 19  2  0
 19 20  1  0
 20 21  2  0
 21 22  1  0
 22 23  2  0
 12 24  2  0
 24 25  1  0
 25 26  2  0
 26 27  1  0
 27 28  1  0
 28 29  2  0
 28  2  1  0
  9  5  1  0
 26 10  1  0
 23 18  1  0
  1 30  1  0
  1 31  1  0
  1 32  1  0
  4 33  1  0
  4 34  1  0
  6 35  1  0
  7 36  1  0
  9 37  1  0
 11 38  1  0
 16 39  1  0
 17 40  1  0
 17 41  1  0
 19 42  1  0
 20 43  1  0
 21 44  1  0
 22 45  1  0
 23 46  1  0
 24 47  1  0
 25 48  1  0
M  CHG  2  13  -1  27  -1
M  END
>  <UniqueID>  (25) 
24

>  <SMILES>  (25) 
Cc1c(Cn2ccnc2)c2cc([N-]C(=O)NCc3ccccc3)ccc2[n-]c1=O

>  <Energy>  (25) 
91.4580506079504

>  <Genealogy>  (25) 
Cc1c(Cn2ccnc2)c2cc([N-]C(=O)NCc3ccccc3)ccc2[n-]c1=O (protonated)
Cc1c(Cn2ccnc2)c2cc([N-]C(=O)NCc3ccccc3)ccc2[n-]c1=O (3D coordinates assigned)
Cc1c(Cn2ccnc2)c2cc([N-]C(=O)NCc3ccccc3)ccc2[n-]c1=O (optimized conformer: 91.4580506079504 kcal/mol)

>  <smiles>  (25) 
Cc1c(Cn2ccnc2)c2cc(NC(=O)NCc3ccccc3)ccc2[nH]c1=O

>  <score_type>  (25) 
oracle

>  <origin>  (25) 
adg

>  <m_score__min__energy>  (25) 
-11.640000000000001

>  <m_primary>  (25) 
energy

$$$$
25:0
     RDKit          3D

 36 39  0  0  0  0  0  0  0  0999 V2000
   56.3090   25.4790   46.7770 N   0  0  0  0  0  0  0  0  0  0  0  0
   56.7660   26.5810   46.2770 C   0  0  0  0  0  0  0  0  0  0  0  0
   58.1220   26.9000   46.4130 C   0  0  0  0  0  0  0  0  0  0  0  0
   58.6080   28.0920   45.8710 C   0  0  0  0  0  0  0  0  0  0  0  0
   57.7360   28.9570   45.1970 C   0  0  0  0  0  0  0  0  0  0  0  0
   58.1910   30.1610   44.6390 C   0  0  0  0  0  0  0  0  0  0  0  0
   57.3000   31.0080   43.9560 C   0  0  0  0  0  0  0  0  0  0  0  0
   57.7890   32.2790   43.3700 C   0  0  0  0  0  0  0  0  0  0  0  0
   58.1820   32.2970   42.1730 O   0  0  0  0  0  0  0  0  0  0  0  0
   57.8790   33.4870   44.1390 N   0  0  0  0  0  0  0  0  0  0  0  0
   58.5470   33.6380   45.3990 C   0  0  0  0  0  0  0  0  0  0  0  0
   59.6570   34.5090   45.5520 C   0  0  0  0  0  0  0  0  0  0  0  0
   60.3020   34.6310   46.7920 C   0  0  0  0  0  0  0  0  0  0  0  0
   59.8300   33.8640   47.8540 C   0  0  0  0  0  0  0  0  0  0  0  0
   58.7700   32.9980   47.7160 C   0  0  0  0  0  0  0  0  0  0  0  0
   58.1140   32.8620   46.4920 C   0  0  0  0  0  0  0  0  0  0  0  0
   58.4790   32.2890   49.0080 C   0  0  0  0  0  0  0  0  0  0  0  0
   59.4850   32.8300   49.9260 N   0  0  0  0  0  0  0  0  0  0  0  0
   60.2830   33.7690   49.2180 C   0  0  0  0  0  0  0  0  0  0  0  0
   61.2400   34.4090   49.7270 O   0  0  0  0  0  0  0  0  0  0  0  0
   55.9440   30.6480   43.8630 C   0  0  0  0  0  0  0  0  0  0  0  0
   55.4870   29.4490   44.4170 C   0  0  0  0  0  0  0  0  0  0  0  0
   56.3750   28.6000   45.0810 C   0  0  0  0  0  0  0  0  0  0  0  0
   55.9310   27.4320   45.6210 N   0  0  0  0  0  0  0  0  0  0  0  0
   55.5190   25.4770   47.4620 H   0  0  0  0  0  0  0  0  0  0  0  0
   58.8008   26.2161   46.9435 H   0  0  0  0  0  0  0  0  0  0  0  0
   59.6722   28.3509   45.9730 H   0  0  0  0  0  0  0  0  0  0  0  0
   59.2496   30.4439   44.7361 H   0  0  0  0  0  0  0  0  0  0  0  0
   60.0146   35.0933   44.6913 H   0  0  0  0  0  0  0  0  0  0  0  0
   61.1556   35.3126   46.9214 H   0  0  0  0  0  0  0  0  0  0  0  0
   57.2734   32.1610   46.3825 H   0  0  0  0  0  0  0  0  0  0  0  0
   57.4620   32.5152   49.3608 H   0  0  0  0  0  0  0  0  0  0  0  0
   58.5254   31.1938   48.9169 H   0  0  0  0  0  0  0  0  0  0  0  0
   59.5970   32.5700   50.9300 H   0  0  0  0  0  0  0  0  0  0  0  0
   55.2366   31.3159   43.3497 H   0  0  0  0  0  0  0  0  0  0  0  0
   54.4256   29.1735   44.3298 H   0  0  0  0  0  0  0  0  0  0  0  0
  1  2  2  3
  2  3  1  0
  3  4  2  0
  4  5  1  0
  5  6  2  0
  6  7  1  0
  7  8  1  0
  8  9  2  0
  8 10  1  0
 10 11  1  0
 11 12  2  0
 12 13  1  0
 13 14  2  0
 14 15  1  0
 15 16  2  0
 15 17  1  0
 17 18  1  0
 18 19  1  0
 19 20  2  0
  7 21  2  0
 21 22  1  0
 22 23  2  0
 23 24  1  0
 24  2  1  0
 23  5  1  0
 16 11  1  0
 19 14  1  0
  1 25  1  0
  3 26  1  0
  4 27  1  0
  6 28  1  0
 12 29  1  0
 13 30  1  0
 16 31  1  0
 17 32  1  0
 17 33  1  0
 18 34  1  0
 21 35  1  0
 22 36  1  0
M  CHG  2  10  -1  24  -1
M  END
>  <UniqueID>  (26) 
25

>  <SMILES>  (26) 
N=c1ccc2cc(C(=O)[N-]c3ccc4c(c3)CNC4=O)ccc2[n-]1

>  <Energy>  (26) 
71.68984763156978

>  <Genealogy>  (26) 
N=c1ccc2cc(C(=O)[N-]c3ccc4c(c3)CNC4=O)ccc2[n-]1 (protonated)
N=c1ccc2cc(C(=O)[N-]c3ccc4c(c3)CNC4=O)ccc2[n-]1 (3D coordinates assigned)
N=c1ccc2cc(C(=O)[N-]c3ccc4c(c3)CNC4=O)ccc2[n-]1 (nonaromatic ring conformer: 71.68984763156978 kcal/mol)

>  <smiles>  (26) 
N=c1ccc2cc(C(=O)Nc3ccc4c(c3)CNC4=O)ccc2[nH]1

>  <score_type>  (26) 
oracle

>  <origin>  (26) 
adg

>  <m_score__min__energy>  (26) 
-10.960000000000001

>  <m_primary>  (26) 
energy

$$$$
26:0
     RDKit          3D

 57 61  0  0  0  0  0  0  0  0999 V2000
   59.5760   28.6980   48.2830 C   0  0  0  0  0  0  0  0  0  0  0  0
   59.0340   29.4200   47.2900 C   0  0  0  0  0  0  0  0  0  0  0  0
   58.6030   28.9590   46.0360 C   0  0  0  0  0  0  0  0  0  0  0  0
   58.4240   27.7110   45.5650 C   0  0  0  0  0  0  0  0  0  0  0  0
   57.2150   26.8880   45.7430 C   0  0  0  0  0  0  0  0  0  0  0  0
   57.2050   25.6380   46.2420 N   0  0  0  0  0  0  0  0  0  0  0  0
   55.8880   25.3630   46.3650 C   0  0  0  0  0  0  0  0  0  0  0  0
   55.4640   24.2600   46.7980 O   0  0  0  0  0  0  0  0  0  0  0  0
   55.0630   26.3690   46.0050 N   0  0  0  0  0  0  0  0  0  0  0  0
   55.9210   27.3300   45.6280 C   0  0  0  0  0  0  0  0  0  0  0  0
   55.5280   28.5900   45.1930 O   0  0  0  0  0  0  0  0  0  0  0  0
   58.3400   30.0900   45.2770 C   0  0  0  0  0  0  0  0  0  0  0  0
   58.5430   31.1790   46.0980 C   0  0  0  0  0  0  0  0  0  0  0  0
   58.3950   32.6110   45.6840 C   0  0  0  0  0  0  0  0  0  0  0  0
   58.9580   30.7740   47.3180 N   0  0  0  0  0  0  0  0  0  0  0  0
   59.3570   31.6480   48.3870 C   0  0  0  0  0  0  0  0  0  0  0  0
   58.4600   31.8940   49.4320 C   0  0  0  0  0  0  0  0  0  0  0  0
   58.8350   32.6960   50.5080 C   0  0  0  0  0  0  0  0  0  0  0  0
   60.1210   33.2320   50.5650 C   0  0  0  0  0  0  0  0  0  0  0  0
   61.0480   32.9800   49.5400 C   0  0  0  0  0  0  0  0  0  0  0  0
   62.4260   33.4960   49.7010 C   0  0  0  0  0  0  0  0  0  0  0  0
   62.5890   34.6970   50.0480 O   0  0  0  0  0  0  0  0  0  0  0  0
   63.5740   32.6440   49.5070 N   0  0  0  0  0  0  0  0  0  0  0  0
   64.8440   33.2050   49.0130 C   0  0  0  0  0  0  0  0  0  0  0  0
   65.8790   33.2470   50.1460 C   0  0  0  0  0  0  0  0  0  0  0  0
   65.8760   31.9230   50.8530 C   0  0  0  0  0  0  0  0  0  0  0  0
   66.9320   31.1530   51.0400 C   0  0  0  0  0  0  0  0  0  0  0  0
   66.4830   29.8900   51.5800 C   0  0  0  0  0  0  0  0  0  0  0  0
   67.2460   28.9310   51.8630 O   0  0  0  0  0  0  0  0  0  0  0  0
   65.0030   29.8560   51.7210 C   0  0  0  0  0  0  0  0  0  0  0  0
   64.5900   31.2720   51.2690 C   0  0  2  0  0  0  0  0  0  0  0  0
   63.6160   31.2870   50.0790 C   0  0  0  0  0  0  0  0  0  0  0  0
   60.6490   32.2220   48.4080 C   0  0  0  0  0  0  0  0  0  0  0  0
   61.5750   32.0040   47.2340 C   0  0  0  0  0  0  0  0  0  0  0  0
   59.8718   29.1890   49.2219 H   0  0  0  0  0  0  0  0  0  0  0  0
   59.7245   27.6153   48.1580 H   0  0  0  0  0  0  0  0  0  0  0  0
   59.2540   27.2659   44.9967 H   0  0  0  0  0  0  0  0  0  0  0  0
   58.0290   30.1135   44.2221 H   0  0  0  0  0  0  0  0  0  0  0  0
   58.3293   33.2466   46.5794 H   0  0  0  0  0  0  0  0  0  0  0  0
   59.2669   32.9113   45.0843 H   0  0  0  0  0  0  0  0  0  0  0  0
   57.4801   32.7266   45.0843 H   0  0  0  0  0  0  0  0  0  0  0  0
   57.4531   31.4519   49.4041 H   0  0  0  0  0  0  0  0  0  0  0  0
   58.1158   32.9065   51.3133 H   0  0  0  0  0  0  0  0  0  0  0  0
   60.4125   33.8583   51.4210 H   0  0  0  0  0  0  0  0  0  0  0  0
   65.2255   32.5763   48.1950 H   0  0  0  0  0  0  0  0  0  0  0  0
   64.6679   34.2278   48.6485 H   0  0  0  0  0  0  0  0  0  0  0  0
   66.8777   33.4404   49.7275 H   0  0  0  0  0  0  0  0  0  0  0  0
   65.6255   34.0496   50.8543 H   0  0  0  0  0  0  0  0  0  0  0  0
   67.9750   31.4261   50.8221 H   0  0  0  0  0  0  0  0  0  0  0  0
   64.5597   29.0867   51.0717 H   0  0  0  0  0  0  0  0  0  0  0  0
   64.6657   29.6052   52.7375 H   0  0  0  0  0  0  0  0  0  0  0  0
   64.0601   31.7832   52.0862 H   0  0  0  0  0  0  0  0  0  0  0  0
   63.9587   30.5752   49.3136 H   0  0  0  0  0  0  0  0  0  0  0  0
   62.6109   30.9972   50.4193 H   0  0  0  0  0  0  0  0  0  0  0  0
   62.5840   31.7665   47.6020 H   0  0  0  0  0  0  0  0  0  0  0  0
   61.2017   31.1692   46.6227 H   0  0  0  0  0  0  0  0  0  0  0  0
   61.6134   32.9177   46.6227 H   0  0  0  0  0  0  0  0  0  0  0  0
  1  2  2  0
  2  3  1  0
  3  4  2  3
  4  5  1  0
  5  6  1  0
  6  7  1  0
  7  8  2  0
  7  9  1  0
  9 10  1  0
 10 11  1  0
  3 12  1  0
 12 13  2  0
 13 14  1  0
 13 15  1  0
 15 16  1  0
 16 17  2  0
 17 18  1  0
 18 19  2  0
 19 20  1  0
 20 21  1  0
 21 22  2  0
 21 23  1  0
 23 24  1  0
 24 25  1  0
 25 26  1  0
 26 27  2  0
 27 28  1  0
 28 29  2  0
 28 30  1  0
 30 31  1  0
 31 32  1  0
 20 33  2  0
 33 34  1  0
 15  2  1  0
 33 16  1  0
 10  5  2  0
 32 23  1  0
 31 26  1  0
  1 35  1  0
  1 36  1  0
  4 37  1  0
 12 38  1  0
 14 39  1  0
 14 40  1  0
 14 41  1  0
 17 42  1  0
 18 43  1  0
 19 44  1  0
 24 45  1  0
 24 46  1  0
 25 47  1  0
 25 48  1  0
 27 49  1  0
 30 50  1  0
 30 51  1  0
 31 52  1  1
 32 53  1  0
 32 54  1  0
 34 55  1  0
 34 56  1  0
 34 57  1  0
M  CHG  3   6  -1   9  -1  11  -1
M  END
>  <UniqueID>  (27) 
26

>  <SMILES>  (27) 
C=c1c(=Cc2[n-]c(=O)[n-]c2[O-])cc(C)n1-c1cccc(C(=O)N2CCC3=CC(=O)C[C@@H]3C2)c1C

>  <Energy>  (27) 
154.16491381107156

>  <Genealogy>  (27) 
C=c1c(=Cc2[n-]c(=O)[n-]c2[O-])cc(C)n1-c1cccc(C(=O)N2CCC3=CC(=O)CC3C2)c1C (protonated)
C=c1c(=Cc2[n-]c(=O)[n-]c2[O-])cc(C)n1-c1cccc(C(=O)N2CCC3=CC(=O)C[C@@H]3C2)c1C (chirality)
C=c1c(=Cc2[n-]c(=O)[n-]c2[O-])cc(C)n1-c1cccc(C(=O)N2CCC3=CC(=O)C[C@@H]3C2)c1C (3D coordinates assigned)
C=c1c(=Cc2[n-]c(=O)[n-]c2[O-])cc(C)n1-c1cccc(C(=O)N2CCC3=CC(=O)C[C@@H]3C2)c1C (nonaromatic ring conformer: 154.16491381107156 kcal/mol)

>  <smiles>  (27) 
C=c1c(=Cc2[nH]c(=O)[nH]c2O)cc(C)n1-c1cccc(C(=O)N2CCC3=CC(=O)CC3C2)c1C

>  <score_type>  (27) 
oracle

>  <origin>  (27) 
adg

>  <m_score__min__energy>  (27) 
-17.920000000000002

>  <m_primary>  (27) 
energy

$$$$
27:0
     RDKit          3D

 60 63  0  0  0  0  0  0  0  0999 V2000
   58.6590   34.0170   52.1160 C   0  0  0  0  0  0  0  0  0  0  0  0
   58.7860   32.5710   51.8800 N   0  0  0  0  0  0  0  0  0  0  0  0
   60.1360   32.1180   52.2540 C   0  0  0  0  0  0  0  0  0  0  0  0
   60.2650   30.6000   52.0660 C   0  0  0  0  0  0  0  0  0  0  0  0
   59.8350   30.1460   50.7270 N   0  0  0  0  0  0  0  0  0  0  0  0
   60.9040   29.9260   49.7290 C   0  0  0  0  0  0  0  0  0  0  0  0
   60.4030   29.4340   48.3930 C   0  0  0  0  0  0  0  0  0  0  0  0
   59.4670   28.3930   48.3260 C   0  0  0  0  0  0  0  0  0  0  0  0
   59.0020   27.9350   47.0920 C   0  0  0  0  0  0  0  0  0  0  0  0
   59.4300   28.5460   45.9030 C   0  0  0  0  0  0  0  0  0  0  0  0
   58.8490   28.1350   44.5770 C   0  0  0  0  0  0  0  0  0  0  0  0
   57.3930   28.2550   44.6040 N   0  0  0  0  0  0  0  0  0  0  0  0
   56.6750   29.4850   44.7770 C   0  0  0  0  0  0  0  0  0  0  0  0
   55.4190   29.4560   44.8510 O   0  0  0  0  0  0  0  0  0  0  0  0
   57.3700   30.7800   44.8500 C   0  0  0  0  0  0  0  0  0  0  0  0
   57.7660   31.3030   46.0850 C   0  0  0  0  0  0  0  0  0  0  0  0
   58.3670   32.5620   46.1500 C   0  0  0  0  0  0  0  0  0  0  0  0
   58.5990   33.2830   44.9600 C   0  0  0  0  0  0  0  0  0  0  0  0
   59.1660   34.4560   44.9530 N   0  0  0  0  0  0  0  0  0  0  0  0
   59.8780   35.0580   46.0430 C   0  0  0  0  0  0  0  0  0  0  0  0
   59.6550   36.2670   46.3190 O   0  0  0  0  0  0  0  0  0  0  0  0
   60.8090   34.2670   46.8850 C   0  0  0  0  0  0  0  0  0  0  0  0
   62.0160   33.7830   46.3490 C   0  0  0  0  0  0  0  0  0  0  0  0
   62.9010   33.0500   47.1470 C   0  0  0  0  0  0  0  0  0  0  0  0
   62.5980   32.8050   48.4880 C   0  0  0  0  0  0  0  0  0  0  0  0
   61.4090   33.2930   49.0340 C   0  0  0  0  0  0  0  0  0  0  0  0
   60.5130   34.0120   48.2370 C   0  0  0  0  0  0  0  0  0  0  0  0
   58.2400   32.7280   43.7710 N   0  0  0  0  0  0  0  0  0  0  0  0
   57.6330   31.5150   43.6890 C   0  0  0  0  0  0  0  0  0  0  0  0
   60.3490   29.6040   45.9680 C   0  0  0  0  0  0  0  0  0  0  0  0
   60.8340   30.0430   47.2020 C   0  0  0  0  0  0  0  0  0  0  0  0
   58.5860   30.7560   50.2280 C   0  0  0  0  0  0  0  0  0  0  0  0
   58.5420   32.2710   50.4600 C   0  0  0  0  0  0  0  0  0  0  0  0
   58.6419   34.2117   53.1985 H   0  0  0  0  0  0  0  0  0  0  0  0
   59.5148   34.5390   51.6630 H   0  0  0  0  0  0  0  0  0  0  0  0
   57.7254   34.3818   51.6630 H   0  0  0  0  0  0  0  0  0  0  0  0
   60.8770   32.6257   51.6191 H   0  0  0  0  0  0  0  0  0  0  0  0
   60.3127   32.3617   53.3120 H   0  0  0  0  0  0  0  0  0  0  0  0
   61.3181   30.3170   52.2108 H   0  0  0  0  0  0  0  0  0  0  0  0
   59.6058   30.1196   52.8040 H   0  0  0  0  0  0  0  0  0  0  0  0
   61.4318   30.8782   49.5715 H   0  0  0  0  0  0  0  0  0  0  0  0
   61.5600   29.1406   50.1324 H   0  0  0  0  0  0  0  0  0  0  0  0
   59.0956   27.9330   49.2536 H   0  0  0  0  0  0  0  0  0  0  0  0
   58.2971   27.0916   47.0512 H   0  0  0  0  0  0  0  0  0  0  0  0
   59.2524   28.7850   43.7866 H   0  0  0  0  0  0  0  0  0  0  0  0
   59.1187   27.0876   44.3766 H   0  0  0  0  0  0  0  0  0  0  0  0
   57.6041   30.7227   47.0054 H   0  0  0  0  0  0  0  0  0  0  0  0
   58.6572   32.9881   47.1217 H   0  0  0  0  0  0  0  0  0  0  0  0
   62.2655   33.9820   45.2963 H   0  0  0  0  0  0  0  0  0  0  0  0
   63.8378   32.6657   46.7171 H   0  0  0  0  0  0  0  0  0  0  0  0
   63.2952   32.2282   49.1135 H   0  0  0  0  0  0  0  0  0  0  0  0
   61.1767   33.1113   50.0937 H   0  0  0  0  0  0  0  0  0  0  0  0
   59.5711   34.3806   48.6693 H   0  0  0  0  0  0  0  0  0  0  0  0
   57.3476   31.1098   42.7070 H   0  0  0  0  0  0  0  0  0  0  0  0
   60.6895   30.0905   45.0420 H   0  0  0  0  0  0  0  0  0  0  0  0
   61.5577   30.8704   47.2419 H   0  0  0  0  0  0  0  0  0  0  0  0
   58.5046   30.5615   49.1484 H   0  0  0  0  0  0  0  0  0  0  0  0
   57.7487   30.3073   50.7827 H   0  0  0  0  0  0  0  0  0  0  0  0
   59.3162   32.7558   49.8472 H   0  0  0  0  0  0  0  0  0  0  0  0
   57.5492   32.6506   50.1766 H   0  0  0  0  0  0  0  0  0  0  0  0
  1  2  1  0
  2  3  1  0
  3  4  1  0
  4  5  1  0
  5  6  1  0
  6  7  1  0
  7  8  2  0
  8  9  1  0
  9 10  2  0
 10 11  1  0
 11 12  1  0
 12 13  1  0
 13 14  2  0
 13 15  1  0
 15 16  1  0
 16 17  2  0
 17 18  1  0
 18 19  2  3
 19 20  1  0
 20 21  2  0
 20 22  1  0
 22 23  2  0
 23 24  1  0
 24 25  2  0
 25 26  1  0
 26 27  2  0
 18 28  1  0
 28 29  1  0
 10 30  1  0
 30 31  2  0
  5 32  1  0
 32 33  1  0
 33  2  1  0
 31  7  1  0
 29 15  2  0
 27 22  1  0
  1 34  1  0
  1 35  1  0
  1 36  1  0
  3 37  1  0
  3 38  1  0
  4 39  1  0
  4 40  1  0
  6 41  1  0
  6 42  1  0
  8 43  1  0
  9 44  1  0
 11 45  1  0
 11 46  1  0
 16 47  1  0
 17 48  1  0
 23 49  1  0
 24 50  1  0
 25 51  1  0
 26 52  1  0
 27 53  1  0
 29 54  1  0
 30 55  1  0
 31 56  1  0
 32 57  1  0
 32 58  1  0
 33 59  1  0
 33 60  1  0
M  CHG  2  12  -1  28  -1
M  END
>  <UniqueID>  (28) 
27

>  <SMILES>  (28) 
CN1CCN(Cc2ccc(C[N-]C(=O)c3ccc(=NC(=O)c4ccccc4)[n-]c3)cc2)CC1

>  <Energy>  (28) 
82.113643809368

>  <Genealogy>  (28) 
CN1CCN(Cc2ccc(C[N-]C(=O)c3ccc(=NC(=O)c4ccccc4)[n-]c3)cc2)CC1 (protonated)
CN1CCN(Cc2ccc(C[N-]C(=O)c3ccc(=NC(=O)c4ccccc4)[n-]c3)cc2)CC1 (3D coordinates assigned)
CN1CCN(Cc2ccc(C[N-]C(=O)c3ccc(=NC(=O)c4ccccc4)[n-]c3)cc2)CC1 (nonaromatic ring conformer: 82.113643809368 kcal/mol)

>  <smiles>  (28) 
CN1CCN(Cc2ccc(CNC(=O)c3ccc(=NC(=O)c4ccccc4)[nH]c3)cc2)CC1

>  <score_type>  (28) 
oracle

>  <origin>  (28) 
adg

>  <m_score__min__energy>  (28) 
-13.06

>  <m_primary>  (28) 
energy

$$$$
28:0
     RDKit          3D

 52 52  0  0  0  0  0  0  0  0999 V2000
   56.2670   29.5710   42.6180 C   0  0  0  0  0  0  0  0  0  0  0  0
   57.1320   29.8660   43.8080 C   0  0  0  0  0  0  0  0  0  0  0  0
   56.9690   31.0560   44.5260 C   0  0  0  0  0  0  0  0  0  0  0  0
   57.7960   31.3580   45.6180 C   0  0  0  0  0  0  0  0  0  0  0  0
   57.6020   32.6720   46.3340 C   0  0  0  0  0  0  0  0  0  0  0  0
   58.7960   30.4330   46.0170 C   0  0  0  0  0  0  0  0  0  0  0  0
   59.6780   30.7300   47.1670 C   0  0  0  0  0  0  0  0  0  0  0  0
   60.8410   31.1770   46.9740 O   0  0  0  0  0  0  0  0  0  0  0  0
   59.2120   30.5030   48.4640 O   0  0  0  0  0  0  0  0  0  0  0  0
   58.8560   31.5530   49.3540 C   0  0  0  0  0  0  0  0  0  0  0  0
   59.7740   32.6300   49.2000 O   0  0  0  0  0  0  0  0  0  0  0  0
   60.7110   32.9710   50.1800 C   0  0  0  0  0  0  0  0  0  0  0  0
   60.4450   33.8480   51.0480 O   0  0  0  0  0  0  0  0  0  0  0  0
   62.0520   32.2940   50.1830 C   0  0  1  0  0  0  0  0  0  0  0  0
   62.0580   31.2030   49.2080 N   0  0  0  0  0  0  0  0  0  0  0  0
   63.1780   33.2870   49.8460 C   0  0  0  0  0  0  0  0  0  0  0  0
   64.1090   32.8500   48.3280 S   0  0  0  0  0  0  0  0  0  0  0  0
   63.0460   33.7760   47.2200 C   0  0  0  0  0  0  0  0  0  0  0  0
   63.5580   34.5590   46.3710 O   0  0  0  0  0  0  0  0  0  0  0  0
   61.6240   33.6330   47.3220 N   0  0  0  0  0  0  0  0  0  0  0  0
   60.6920   34.5530   46.6640 C   0  0  0  0  0  0  0  0  0  0  0  0
   60.1330   33.9150   45.3890 C   0  0  0  0  0  0  0  0  0  0  0  0
   59.5550   34.9270   47.6200 C   0  0  0  0  0  0  0  0  0  0  0  0
   58.9570   29.2270   45.2910 C   0  0  0  0  0  0  0  0  0  0  0  0
   60.0050   28.2100   45.6670 C   0  0  0  0  0  0  0  0  0  0  0  0
   58.1410   28.9710   44.1770 C   0  0  0  0  0  0  0  0  0  0  0  0
   55.2771   29.2334   42.9589 H   0  0  0  0  0  0  0  0  0  0  0  0
   56.1550   30.4817   42.0114 H   0  0  0  0  0  0  0  0  0  0  0  0
   56.7348   28.7816   42.0114 H   0  0  0  0  0  0  0  0  0  0  0  0
   56.1814   31.7645   44.2299 H   0  0  0  0  0  0  0  0  0  0  0  0
   57.6267   32.5045   47.4209 H   0  0  0  0  0  0  0  0  0  0  0  0
   58.4074   33.3659   46.0515 H   0  0  0  0  0  0  0  0  0  0  0  0
   56.6304   33.1035   46.0515 H   0  0  0  0  0  0  0  0  0  0  0  0
   57.8384   31.9014   49.1234 H   0  0  0  0  0  0  0  0  0  0  0  0
   58.8887   31.1855   50.3903 H   0  0  0  0  0  0  0  0  0  0  0  0
   62.2304   31.8953   51.1926 H   0  0  0  0  0  0  0  0  0  0  0  0
   62.3450   31.5870   48.2780 H   0  0  0  0  0  0  0  0  0  0  0  0
   61.0750   30.8670   49.0840 H   0  0  0  0  0  0  0  0  0  0  0  0
   62.7333   34.2834   49.7069 H   0  0  0  0  0  0  0  0  0  0  0  0
   63.8924   33.2618   50.6821 H   0  0  0  0  0  0  0  0  0  0  0  0
   61.2530   32.9100   47.9830 H   0  0  0  0  0  0  0  0  0  0  0  0
   61.2325   35.4705   46.3883 H   0  0  0  0  0  0  0  0  0  0  0  0
   59.4301   33.1128   45.6582 H   0  0  0  0  0  0  0  0  0  0  0  0
   59.6081   34.6788   44.7965 H   0  0  0  0  0  0  0  0  0  0  0  0
   60.9592   33.4951   44.7965 H   0  0  0  0  0  0  0  0  0  0  0  0
   59.8977   34.8143   48.6592 H   0  0  0  0  0  0  0  0  0  0  0  0
   59.2561   35.9708   47.4437 H   0  0  0  0  0  0  0  0  0  0  0  0
   58.6948   34.2645   47.4437 H   0  0  0  0  0  0  0  0  0  0  0  0
   60.0742   28.1428   46.7628 H   0  0  0  0  0  0  0  0  0  0  0  0
   59.7271   27.2281   45.2563 H   0  0  0  0  0  0  0  0  0  0  0  0
   60.9781   28.5172   45.2563 H   0  0  0  0  0  0  0  0  0  0  0  0
   58.2975   28.0555   43.5877 H   0  0  0  0  0  0  0  0  0  0  0  0
  1  2  1  0
  2  3  2  0
  3  4  1  0
  4  5  1  0
  4  6  2  0
  6  7  1  0
  7  8  2  0
  7  9  1  0
  9 10  1  0
 10 11  1  0
 11 12  1  0
 12 13  2  0
 12 14  1  0
 14 15  1  0
 14 16  1  0
 16 17  1  0
 17 18  1  0
 18 19  2  0
 18 20  1  0
 20 21  1  0
 21 22  1  0
 21 23  1  0
  6 24  1  0
 24 25  1  0
 24 26  2  0
 26  2  1  0
  1 27  1  0
  1 28  1  0
  1 29  1  0
  3 30  1  0
  5 31  1  0
  5 32  1  0
  5 33  1  0
 10 34  1  0
 10 35  1  0
 14 36  1  1
 15 37  1  0
 15 38  1  0
 16 39  1  0
 16 40  1  0
 20 41  1  0
 21 42  1  0
 22 43  1  0
 22 44  1  0
 22 45  1  0
 23 46  1  0
 23 47  1  0
 23 48  1  0
 25 49  1  0
 25 50  1  0
 25 51  1  0
 26 52  1  0
M  END
>  <UniqueID>  (29) 
28

>  <SMILES>  (29) 
Cc1cc(C)c(C(=O)OCOC(=O)[C@@H](N)CSC(=O)NC(C)C)c(C)c1

>  <Energy>  (29) 
39.602264282463366

>  <Genealogy>  (29) 
Cc1cc(C)c(C(=O)OCOC(=O)[C@@H](N)CSC(=O)NC(C)C)c(C)c1 (chirality)
Cc1cc(C)c(C(=O)OCOC(=O)[C@@H](N)CSC(=O)NC(C)C)c(C)c1 (3D coordinates assigned)
Cc1cc(C)c(C(=O)OCOC(=O)[C@@H](N)CSC(=O)NC(C)C)c(C)c1 (optimized conformer: 39.602264282463366 kcal/mol)

>  <smiles>  (29) 
Cc1cc(C)c(C(=O)OCOC(=O)C(N)CSC(=O)NC(C)C)c(C)c1

>  <score_type>  (29) 
oracle

>  <origin>  (29) 
adg

>  <m_score__min__energy>  (29) 
-7.5099999999999998

>  <m_primary>  (29) 
energy

$$$$
29:0
     RDKit          3D

 47 50  0  0  1  0  0  0  0  0999 V2000
   55.1430   29.3280   45.0430 O   0  0  0  0  0  0  0  0  0  0  0  0
   55.9480   29.3620   43.9200 C   0  0  0  0  0  0  0  0  0  0  0  0
   56.6320   30.6850   43.9080 C   0  0  0  0  0  0  0  0  0  0  0  0
   57.3630   31.1500   42.8100 C   0  0  0  0  0  0  0  0  0  0  0  0
   57.8370   32.4040   43.1830 C   0  0  0  0  0  0  0  0  0  0  0  0
   57.3780   32.6290   44.4640 C   0  0  0  0  0  0  0  0  0  0  0  0
   57.6100   33.8250   45.3140 C   0  0  0  0  0  0  0  0  0  0  0  0
   57.1910   33.4590   46.7360 C   0  0  0  0  0  0  0  0  0  0  0  0
   58.3060   32.7120   47.3280 C   0  0  0  0  0  0  0  0  0  0  0  0
   59.3620   33.3780   47.9140 C   0  0  0  0  0  0  0  0  0  0  0  0
   59.3080   30.6610   47.8330 C   0  0  0  0  0  0  0  0  0  0  0  0
   59.2280   29.3880   47.7660 N   0  0  0  0  0  0  0  0  0  0  0  0
   62.4310   33.7970   48.1940 C   0  0  0  0  0  0  0  0  0  0  0  0
   62.4090   33.4910   46.7380 C   0  0  0  0  0  0  0  0  0  0  0  0
   63.4220   32.7960   47.6060 C   0  0  0  0  0  0  0  0  0  0  0  0
   60.3630   31.2610   48.4170 N   0  0  0  0  0  0  0  0  0  0  0  0
   60.3760   32.5980   48.4500 C   0  0  0  0  0  0  0  0  0  0  0  0
   61.3620   33.1920   48.9960 N   0  0  0  0  0  0  0  0  0  0  0  0
   58.9340   28.6880   46.5620 C   0  0  0  0  0  0  0  0  0  0  0  0
   59.6040   29.1040   45.4250 C   0  0  0  0  0  0  0  0  0  0  0  0
   59.4290   28.5380   44.2190 N   0  0  0  0  0  0  0  0  0  0  0  0
   58.5530   27.5150   44.1320 C   0  0  0  0  0  0  0  0  0  0  0  0
   57.8490   27.0530   45.2430 C   0  0  0  0  0  0  0  0  0  0  0  0
   56.9710   26.0190   45.1260 F   0  0  0  0  0  0  0  0  0  0  0  0
   58.0350   27.6450   46.4930 C   0  0  0  0  0  0  0  0  0  0  0  0
   58.2860   31.3670   47.2910 N   0  0  0  0  0  0  0  0  0  0  0  0
   56.6740   31.5990   44.8590 O   0  0  0  0  0  0  0  0  0  0  0  0
   55.2610   30.1140   45.6220 H   0  0  0  0  0  0  0  0  0  0  0  0
   56.6923   28.5534   43.9653 H   0  0  0  0  0  0  0  0  0  0  0  0
   55.3504   29.2232   43.0070 H   0  0  0  0  0  0  0  0  0  0  0  0
   57.5284   30.6333   41.8531 H   0  0  0  0  0  0  0  0  0  0  0  0
   58.4554   33.0818   42.5762 H   0  0  0  0  0  0  0  0  0  0  0  0
   58.6749   34.1001   45.2943 H   0  0  0  0  0  0  0  0  0  0  0  0
   57.0294   34.6835   44.9455 H   0  0  0  0  0  0  0  0  0  0  0  0
   56.9941   34.3707   47.3192 H   0  0  0  0  0  0  0  0  0  0  0  0
   56.2703   32.8571   46.7333 H   0  0  0  0  0  0  0  0  0  0  0  0
   59.3984   34.4767   47.9544 H   0  0  0  0  0  0  0  0  0  0  0  0
   62.4994   34.7211   48.7867 H   0  0  0  0  0  0  0  0  0  0  0  0
   61.5707   32.9199   46.3124 H   0  0  0  0  0  0  0  0  0  0  0  0
   62.4668   34.0984   45.8227 H   0  0  0  0  0  0  0  0  0  0  0  0
   63.3199   31.7228   47.8247 H   0  0  0  0  0  0  0  0  0  0  0  0
   64.5165   32.6861   47.6006 H   0  0  0  0  0  0  0  0  0  0  0  0
   61.1190   30.6670   48.8170 H   0  0  0  0  0  0  0  0  0  0  0  0
   60.3147   29.9390   45.5127 H   0  0  0  0  0  0  0  0  0  0  0  0
   58.3900   27.0322   43.1571 H   0  0  0  0  0  0  0  0  0  0  0  0
   57.4896   27.2956   47.3821 H   0  0  0  0  0  0  0  0  0  0  0  0
   57.4780   30.8630   46.8420 H   0  0  0  0  0  0  0  0  0  0  0  0
  1  2  1  0
  2  3  1  0
  3  4  2  0
  4  5  1  0
  5  6  2  0
  6  7  1  0
  7  8  1  0
  8  9  1  0
  9 10  2  0
 10 11  1  0
 11 12  2  0
 12 13  1  0
 13 14  1  0
 14 15  1  0
 11 16  1  0
 16 17  1  0
 17 18  2  0
 18 19  1  0
 19 20  2  0
 20 21  1  0
 21 22  2  0
 22 23  1  0
 23 24  1  0
 23 25  2  0
 17 26  1  0
  6 27  1  0
 27  3  1  0
 26  9  1  0
 15 13  1  0
 25 19  1  0
  1 28  1  0
  2 29  1  0
  2 30  1  0
  4 31  1  0
  5 32  1  0
  7 33  1  0
  7 34  1  0
  8 35  1  0
  8 36  1  0
 10 37  1  0
 13 38  1  0
 14 39  1  0
 14 40  1  0
 15 41  1  0
 15 42  1  0
 16 43  1  0
 20 44  1  0
 22 45  1  0
 25 46  1  0
 26 47  1  0
M  END
>  <smiles>  (30) 
OCc1ccc(CCc2cc(=NC3CC3)[nH]c(=Nc3cncc(F)c3)[nH]2)o1

>  <score_type>  (30) 
oracle

>  <origin>  (30) 
adg

>  <m_score__min__energy>  (30) 
-8.6199999999999992

>  <m_primary>  (30) 
energy

$$$$
30:0
     RDKit          3D

 79 83  0  0  0  0  0  0  0  0999 V2000
   57.2640   30.2990   51.1480 O   0  0  0  0  0  0  0  0  0  0  0  0
   58.3720   30.5590   50.7070 C   0  0  0  0  0  0  0  0  0  0  0  0
   59.2480   29.4270   50.2320 C   0  0  0  0  0  0  0  0  0  0  0  0
   60.1030   29.8600   49.2140 O   0  0  0  0  0  0  0  0  0  0  0  0
   58.8400   31.9970   50.5720 C   0  0  2  0  0  0  0  0  0  0  0  0
   59.0680   32.3880   49.1730 N   0  0  0  0  0  0  0  0  0  0  0  0
   59.6180   33.6130   48.6620 C   0  0  0  0  0  0  0  0  0  0  0  0
   58.8930   34.6370   48.5300 O   0  0  0  0  0  0  0  0  0  0  0  0
   61.1030   33.6590   48.3430 C   0  0  1  0  0  0  0  0  0  0  0  0
   61.8360   32.2670   48.5470 C   0  0  1  0  0  0  0  0  0  0  0  0
   62.3040   31.7350   47.1910 C   0  0  0  0  0  0  0  0  0  0  0  0
   63.3980   32.7500   46.8610 C   0  0  2  0  0  0  0  0  0  0  0  0
   64.1430   32.9440   48.2030 C   0  0  0  0  0  0  0  0  0  0  0  0
   63.1880   32.3990   49.2780 C   0  0  1  0  0  0  0  0  0  0  0  0
   63.1320   33.2510   50.4830 N   0  0  0  0  0  0  0  0  0  0  0  0
   64.4550   33.3950   51.1210 C   0  0  0  0  0  0  0  0  0  0  0  0
   65.1490   32.0640   51.3070 C   0  0  0  0  0  0  0  0  0  0  0  0
   66.4080   31.8290   50.7200 C   0  0  0  0  0  0  0  0  0  0  0  0
   67.0370   30.5880   50.8690 C   0  0  0  0  0  0  0  0  0  0  0  0
   66.4230   29.5740   51.6080 C   0  0  0  0  0  0  0  0  0  0  0  0
   65.1730   29.8000   52.1940 C   0  0  0  0  0  0  0  0  0  0  0  0
   64.5370   31.0360   52.0480 C   0  0  0  0  0  0  0  0  0  0  0  0
   63.3240   31.2290   52.6270 F   0  0  0  0  0  0  0  0  0  0  0  0
   62.7210   34.0710   46.4010 C   0  0  0  0  0  0  0  0  0  0  0  0
   61.3720   34.2040   46.9820 N   0  0  0  0  0  0  0  0  0  0  0  0
   60.3030   34.5490   46.0890 C   0  0  0  0  0  0  0  0  0  0  0  0
   59.8840   35.7390   46.0480 O   0  0  0  0  0  0  0  0  0  0  0  0
   59.6440   33.4960   45.2470 C   0  0  0  0  0  0  0  0  0  0  0  0
   58.2430   33.1810   45.7740 C   0  0  0  0  0  0  0  0  0  0  0  0
   57.8550   31.7610   45.4500 C   0  0  0  0  0  0  0  0  0  0  0  0
   58.3360   30.6920   46.2300 C   0  0  0  0  0  0  0  0  0  0  0  0
   57.9520   29.3770   45.9400 C   0  0  0  0  0  0  0  0  0  0  0  0
   57.0940   29.1190   44.8620 C   0  0  0  0  0  0  0  0  0  0  0  0
   56.6340   30.1730   44.0680 C   0  0  0  0  0  0  0  0  0  0  0  0
   57.0100   31.4880   44.3640 C   0  0  0  0  0  0  0  0  0  0  0  0
   60.0520   32.2600   51.4370 C   0  0  0  0  0  0  0  0  0  0  0  0
   60.9580   31.4430   51.4650 O   0  0  0  0  0  0  0  0  0  0  0  0
   60.0690   33.4350   52.3970 C   0  0  2  0  0  0  0  0  0  0  0  0
   60.2210   33.0420   53.8440 C   0  0  0  0  0  0  0  0  0  0  0  0
   59.5240   34.1740   54.5800 C   0  0  0  0  0  0  0  0  0  0  0  0
   58.6800   34.8660   53.6860 O   0  0  0  0  0  0  0  0  0  0  0  0
   58.7690   34.2250   52.4360 C   0  0  0  0  0  0  0  0  0  0  0  0
   59.8489   29.0565   51.0756 H   0  0  0  0  0  0  0  0  0  0  0  0
   58.6074   28.6237   49.8392 H   0  0  0  0  0  0  0  0  0  0  0  0
   60.4260   30.7580   49.4890 H   0  0  0  0  0  0  0  0  0  0  0  0
   58.0230   32.6362   50.9380 H   0  0  0  0  0  0  0  0  0  0  0  0
   61.5322   34.3541   49.0797 H   0  0  0  0  0  0  0  0  0  0  0  0
   61.1097   31.6466   49.0925 H   0  0  0  0  0  0  0  0  0  0  0  0
   62.7067   30.7145   47.2714 H   0  0  0  0  0  0  0  0  0  0  0  0
   61.5121   31.6492   46.4323 H   0  0  0  0  0  0  0  0  0  0  0  0
   64.0805   32.4328   46.0588 H   0  0  0  0  0  0  0  0  0  0  0  0
   65.0875   32.3801   48.2047 H   0  0  0  0  0  0  0  0  0  0  0  0
   64.4021   33.9982   48.3802 H   0  0  0  0  0  0  0  0  0  0  0  0
   63.5228   31.4337   49.6855 H   0  0  0  0  0  0  0  0  0  0  0  0
   62.4680   32.8200   51.1710 H   0  0  0  0  0  0  0  0  0  0  0  0
   65.0851   34.0374   50.4883 H   0  0  0  0  0  0  0  0  0  0  0  0
   64.3029   33.8379   52.1164 H   0  0  0  0  0  0  0  0  0  0  0  0
   66.8991   32.6253   50.1415 H   0  0  0  0  0  0  0  0  0  0  0  0
   68.0175   30.4104   50.4030 H   0  0  0  0  0  0  0  0  0  0  0  0
   66.9210   28.6006   51.7288 H   0  0  0  0  0  0  0  0  0  0  0  0
   64.6879   29.0004   52.7730 H   0  0  0  0  0  0  0  0  0  0  0  0
   63.3375   34.9227   46.7244 H   0  0  0  0  0  0  0  0  0  0  0  0
   62.6303   34.0550   45.3049 H   0  0  0  0  0  0  0  0  0  0  0  0
   59.5672   33.8578   44.2110 H   0  0  0  0  0  0  0  0  0  0  0  0
   60.2513   32.5797   45.2872 H   0  0  0  0  0  0  0  0  0  0  0  0
   58.2290   33.3184   46.8653 H   0  0  0  0  0  0  0  0  0  0  0  0
   57.5246   33.8609   45.2928 H   0  0  0  0  0  0  0  0  0  0  0  0
   59.0165   30.8908   47.0710 H   0  0  0  0  0  0  0  0  0  0  0  0
   58.3237   28.5465   46.5581 H   0  0  0  0  0  0  0  0  0  0  0  0
   56.7829   28.0873   44.6411 H   0  0  0  0  0  0  0  0  0  0  0  0
   55.9763   29.9689   43.2102 H   0  0  0  0  0  0  0  0  0  0  0  0
   56.6398   32.3147   43.7398 H   0  0  0  0  0  0  0  0  0  0  0  0
   60.9206   34.0096   52.0038 H   0  0  0  0  0  0  0  0  0  0  0  0
   59.7307   32.0782   54.0456 H   0  0  0  0  0  0  0  0  0  0  0  0
   61.2692   32.9069   54.1490 H   0  0  0  0  0  0  0  0  0  0  0  0
   58.9248   33.7611   55.4049 H   0  0  0  0  0  0  0  0  0  0  0  0
   60.2765   34.8667   54.9849 H   0  0  0  0  0  0  0  0  0  0  0  0
   57.9154   33.5436   52.3056 H   0  0  0  0  0  0  0  0  0  0  0  0
   58.7526   34.9690   51.6260 H   0  0  0  0  0  0  0  0  0  0  0  0
  1  2  2  0
  2  3  1  0
  3  4  1  0
  2  5  1  0
  5  6  1  0
  6  7  1  0
  7  8  2  0
  7  9  1  0
  9 10  1  0
 10 11  1  0
 11 12  1  0
 12 13  1  0
 13 14  1  0
 14 15  1  0
 15 16  1  0
 16 17  1  0
 17 18  2  0
 18 19  1  0
 19 20  2  0
 20 21  1  0
 21 22  2  0
 22 23  1  0
 12 24  1  0
 24 25  1  0
 25 26  1  0
 26 27  2  0
 26 28  1  0
 28 29  1  0
 29 30  1  0
 30 31  2  0
 31 32  1  0
 32 33  2  0
 33 34  1  0
 34 35  2  0
  5 36  1  0
 36 37  2  0
 36 38  1  0
 38 39  1  0
 39 40  1  0
 40 41  1  0
 41 42  1  0
 25  9  1  0
 35 30  1  0
 42 38  1  0
 14 10  1  0
 22 17  1  0
  3 43  1  0
  3 44  1  0
  4 45  1  0
  5 46  1  1
  9 47  1  1
 10 48  1  1
 11 49  1  0
 11 50  1  0
 12 51  1  6
 13 52  1  0
 13 53  1  0
 14 54  1  1
 15 55  1  0
 16 56  1  0
 16 57  1  0
 18 58  1  0
 19 59  1  0
 20 60  1  0
 21 61  1  0
 24 62  1  0
 24 63  1  0
 28 64  1  0
 28 65  1  0
 29 66  1  0
 29 67  1  0
 31 68  1  0
 32 69  1  0
 33 70  1  0
 34 71  1  0
 35 72  1  0
 38 73  1  6
 39 74  1  0
 39 75  1  0
 40 76  1  0
 40 77  1  0
 42 78  1  0
 42 79  1  0
M  CHG  1   6  -1
M  END
>  <UniqueID>  (31) 
29

>  <SMILES>  (31) 
O=C(CO)[C@H]([N-]C(=O)[C@H]1C2CC(CC2NCc2ccccc2F)CN1C(=O)CCc1ccccc1)C(=O)C1CCOC1

>  <Energy>  (31) 
110.78100116203744

>  <Genealogy>  (31) 
O=C(CO)C([N-]C(=O)C1C2CC(CC2NCc2ccccc2F)CN1C(=O)CCc1ccccc1)C(=O)C1CCOC1 (protonated)
O=C(CO)[C@H]([N-]C(=O)[C@H]1C2CC(CC2NCc2ccccc2F)CN1C(=O)CCc1ccccc1)C(=O)C1CCOC1 (chirality)
O=C(CO)[C@H]([N-]C(=O)[C@H]1C2CC(CC2NCc2ccccc2F)CN1C(=O)CCc1ccccc1)C(=O)C1CCOC1 (3D coordinates assigned)
O=C(CO)[C@H]([N-]C(=O)[C@H]1C2CC(CC2NCc2ccccc2F)CN1C(=O)CCc1ccccc1)C(=O)C1CCOC1 (nonaromatic ring conformer: 110.78100116203744 kcal/mol)

>  <smiles>  (31) 
O=C(CO)C(NC(=O)C1C2CC(CC2NCc2ccccc2F)CN1C(=O)CCc1ccccc1)C(=O)C1CCOC1

>  <score_type>  (31) 
oracle

>  <origin>  (31) 
adg

>  <m_score__min__energy>  (31) 
-10.609999999999999

>  <m_primary>  (31) 
energy

$$$$
31:0
     RDKit          3D

 51 54  0  0  0  0  0  0  0  0999 V2000
   52.5319   28.4708   53.5053 H   0  0  0  0  0  0  0  0  0  0  0  0
   53.6150   28.3280   53.6340 C   0  0  0  0  0  0  0  0  0  0  0  0
   53.9983   27.3964   54.0757 H   0  0  0  0  0  0  0  0  0  0  0  0
   54.4710   29.2930   53.2510 C   0  0  0  0  0  0  0  0  0  0  0  0
   54.0570   30.4740   52.5540 C   0  0  0  0  0  0  0  0  0  0  0  0
   52.7840   30.9410   52.4780 C   0  0  0  0  0  0  0  0  0  0  0  0
   52.2986   31.2183   53.4254 H   0  0  0  0  0  0  0  0  0  0  0  0
   51.9900   31.1120   51.2470 C   0  0  0  0  0  0  0  0  0  0  0  0
   52.0180   30.2450   50.2200 N   0  0  0  0  0  0  0  0  0  0  0  0
   51.2380   30.8370   49.2890 C   0  0  0  0  0  0  0  0  0  0  0  0
   51.0020   30.3140   48.1700 O   0  0  0  0  0  0  0  0  0  0  0  0
   50.7370   32.0390   49.6500 N   0  0  0  0  0  0  0  0  0  0  0  0
   51.2330   32.2050   50.8860 C   0  0  0  0  0  0  0  0  0  0  0  0
   51.0240   33.3450   51.6530 O   0  0  0  0  0  0  0  0  0  0  0  0
   55.0540   31.2350   51.9140 C   0  0  0  0  0  0  0  0  0  0  0  0
   54.7595   32.0693   51.2604 H   0  0  0  0  0  0  0  0  0  0  0  0
   56.4090   30.9510   52.0930 C   0  0  0  0  0  0  0  0  0  0  0  0
   57.4320   31.8080   51.4540 C   0  0  0  0  0  0  0  0  0  0  0  0
   57.7080   32.9280   51.9660 O   0  0  0  0  0  0  0  0  0  0  0  0
   58.1180   31.3880   50.2620 N   0  0  0  0  0  0  0  0  0  0  0  0
   58.6410   30.0140   50.1840 C   0  0  0  0  0  0  0  0  0  0  0  0
   59.1773   29.7834   51.1163 H   0  0  0  0  0  0  0  0  0  0  0  0
   57.7907   29.3314   50.0389 H   0  0  0  0  0  0  0  0  0  0  0  0
   59.5990   29.8390   49.0050 C   0  0  0  0  0  0  0  0  0  0  0  0
   60.5657   30.3013   49.2536 H   0  0  0  0  0  0  0  0  0  0  0  0
   59.7284   28.7640   48.8113 H   0  0  0  0  0  0  0  0  0  0  0  0
   59.0790   30.4490   47.8450 O   0  0  0  0  0  0  0  0  0  0  0  0
   59.1020   31.8500   48.0170 C   0  0  0  0  0  0  0  0  0  0  0  0
   60.1170   32.1589   48.3074 H   0  0  0  0  0  0  0  0  0  0  0  0
   58.8089   32.3217   47.0675 H   0  0  0  0  0  0  0  0  0  0  0  0
   58.1150   32.2930   49.1030 C   0  0  0  0  0  0  0  0  0  0  0  0
   58.3912   33.3025   49.4416 H   0  0  0  0  0  0  0  0  0  0  0  0
   57.1053   32.2780   48.6667 H   0  0  0  0  0  0  0  0  0  0  0  0
   56.7730   29.8380   52.8620 C   0  0  0  0  0  0  0  0  0  0  0  0
   58.1340   29.5280   53.0170 O   0  0  0  0  0  0  0  0  0  0  0  0
   59.0640   30.3290   53.6890 C   0  0  0  0  0  0  0  0  0  0  0  0
   58.5860   31.2700   54.6100 C   0  0  0  0  0  0  0  0  0  0  0  0
   57.5032   31.3729   54.7739 H   0  0  0  0  0  0  0  0  0  0  0  0
   59.4760   32.0790   55.3220 C   0  0  0  0  0  0  0  0  0  0  0  0
   59.0933   32.8109   56.0485 H   0  0  0  0  0  0  0  0  0  0  0  0
   60.8510   31.9580   55.1110 C   0  0  0  0  0  0  0  0  0  0  0  0
   61.5514   32.5840   55.6833 H   0  0  0  0  0  0  0  0  0  0  0  0
   61.3390   31.0430   54.1740 C   0  0  0  0  0  0  0  0  0  0  0  0
   62.4234   30.9516   54.0139 H   0  0  0  0  0  0  0  0  0  0  0  0
   60.4550   30.2390   53.4350 C   0  0  0  0  0  0  0  0  0  0  0  0
   61.0080   29.3010   52.3970 C   0  0  0  0  0  0  0  0  0  0  0  0
   61.5062   28.4559   52.8947 H   0  0  0  0  0  0  0  0  0  0  0  0
   60.1874   28.9245   51.7687 H   0  0  0  0  0  0  0  0  0  0  0  0
   61.7348   29.8367   51.7687 H   0  0  0  0  0  0  0  0  0  0  0  0
   55.8080   29.0630   53.4340 N   0  0  0  0  0  0  0  0  0  0  0  0
   56.1110   28.2340   53.9960 H   0  0  0  0  0  0  0  0  0  0  0  0
  1  2  1  0
  2  3  1  0
  2  4  2  0
  4  5  1  0
  5  6  2  0
  6  7  1  0
  6  8  1  0
  8  9  1  0
  9 10  1  0
 10 11  2  0
 10 12  1  0
 12 13  1  0
 13 14  1  0
  5 15  1  0
 15 16  1  0
 15 17  2  0
 17 18  1  0
 18 19  2  0
 18 20  1  0
 20 21  1  0
 21 22  1  0
 21 23  1  0
 21 24  1  0
 24 25  1  0
 24 26  1  0
 24 27  1  0
 27 28  1  0
 28 29  1  0
 28 30  1  0
 28 31  1  0
 31 32  1  0
 31 33  1  0
 17 34  1  0
 34 35  1  0
 35 36  1  0
 36 37  2  0
 37 38  1  0
 37 39  1  0
 39 40  1  0
 39 41  2  0
 41 42  1  0
 41 43  1  0
 43 44  1  0
 43 45  2  0
 45 46  1  0
 46 47  1  0
 46 48  1  0
 46 49  1  0
 34 50  2  0
 50 51  1  0
 50  4  1  0
 13  8  2  0
 31 20  1  0
 45 36  1  0
M  CHG  4   9  -1  12  -1  14  -1  50   1
M  END
>  <UniqueID>  (32) 
30

>  <SMILES>  (32) 
C=c1[nH+]c(Oc2ccccc2C)c(C(=O)N2CCOCC2)c/c1=C/c1[n-]c(=O)[n-]c1[O-]

>  <Energy>  (32) 
120.99054457164407

>  <Genealogy>  (32) 
C=c1[nH+]c(Oc2ccccc2C)c(C(=O)N2CCOCC2)cc1=Cc1[n-]c(=O)[n-]c1[O-] (protonated)
C=c1[nH+]c(Oc2ccccc2C)c(C(=O)N2CCOCC2)c/c1=C/c1[n-]c(=O)[n-]c1[O-] (cis-trans isomerization)
C=c1[nH+]c(Oc2ccccc2C)c(C(=O)N2CCOCC2)c/c1=C/c1[n-]c(=O)[n-]c1[O-] (3D coordinates assigned)
C=c1[nH+]c(Oc2ccccc2C)c(C(=O)N2CCOCC2)c/c1=C/c1[n-]c(=O)[n-]c1[O-] (nonaromatic ring conformer: 120.99054457164407 kcal/mol)

>  <smiles>  (32) 
C=c1nc(Oc2ccccc2C)c(C(=O)N2CCOCC2)cc1=Cc1[nH]c(=O)[nH]c1O

>  <score_type>  (32) 
oracle

>  <origin>  (32) 
adg

>  <m_score__min__energy>  (32) 
-14.949999999999999

>  <m_primary>  (32) 
energy

$$$$
32:0
     RDKit          3D

 53 57  0  0  0  0  0  0  0  0999 V2000
   56.2062   22.8150   45.6847 H   0  0  0  0  0  0  0  0  0  0  0  0
   56.8090   23.7350   45.7040 C   0  0  0  0  0  0  0  0  0  0  0  0
   58.1420   23.6160   45.9020 C   0  0  0  0  0  0  0  0  0  0  0  0
   58.5563   22.6053   46.0318 H   0  0  0  0  0  0  0  0  0  0  0  0
   59.1000   24.7900   45.9560 C   0  0  0  0  0  0  0  0  0  0  0  0
   59.6111   24.7881   46.9300 H   0  0  0  0  0  0  0  0  0  0  0  0
   59.8202   24.6821   45.1316 H   0  0  0  0  0  0  0  0  0  0  0  0
   58.3900   26.0930   45.7850 C   0  0  0  0  0  0  0  0  0  0  0  0
   57.0380   26.2140   45.5910 C   0  0  0  0  0  0  0  0  0  0  0  0
   56.7740   27.5640   45.4790 C   0  0  0  0  0  0  0  0  0  0  0  0
   55.5210   28.1170   45.2440 O   0  0  0  0  0  0  0  0  0  0  0  0
   57.9170   28.2810   45.6020 N   0  0  0  0  0  0  0  0  0  0  0  0
   58.0530   29.7120   45.5380 C   0  0  0  0  0  0  0  0  0  0  0  0
   58.5020   30.4340   46.6560 C   0  0  0  0  0  0  0  0  0  0  0  0
   58.7417   29.9036   47.5894 H   0  0  0  0  0  0  0  0  0  0  0  0
   58.6460   31.8230   46.5890 C   0  0  0  0  0  0  0  0  0  0  0  0
   58.9999   32.3806   47.4687 H   0  0  0  0  0  0  0  0  0  0  0  0
   58.3410   32.5070   45.4050 C   0  0  0  0  0  0  0  0  0  0  0  0
   58.5800   34.2490   45.2860 S   0  0  0  0  0  0  0  0  0  0  0  0
   59.5460   34.5310   44.1710 O   0  0  0  0  0  0  0  0  0  0  0  0
   57.2790   34.9440   44.9960 O   0  0  0  0  0  0  0  0  0  0  0  0
   59.2270   34.8610   46.7770 N   0  0  0  0  0  0  0  0  0  0  0  0
   60.2350   34.3290   47.3970 C   0  0  0  0  0  0  0  0  0  0  0  0
   61.3790   34.0150   46.7310 N   0  0  0  0  0  0  0  0  0  0  0  0
   62.4520   33.4760   47.3660 C   0  0  0  0  0  0  0  0  0  0  0  0
   63.6730   33.1580   46.5530 C   0  0  0  0  0  0  0  0  0  0  0  0
   64.5149   32.9387   47.2262 H   0  0  0  0  0  0  0  0  0  0  0  0
   63.4731   32.2820   45.9185 H   0  0  0  0  0  0  0  0  0  0  0  0
   63.9258   34.0203   45.9185 H   0  0  0  0  0  0  0  0  0  0  0  0
   62.3880   33.2480   48.7570 C   0  0  0  0  0  0  0  0  0  0  0  0
   63.5220   32.6930   49.5300 C   0  0  0  0  0  0  0  0  0  0  0  0
   63.3750   31.4830   50.2270 C   0  0  0  0  0  0  0  0  0  0  0  0
   62.4175   30.9427   50.1911 H   0  0  0  0  0  0  0  0  0  0  0  0
   64.4420   30.9620   50.9670 C   0  0  0  0  0  0  0  0  0  0  0  0
   64.3241   30.0097   51.5048 H   0  0  0  0  0  0  0  0  0  0  0  0
   65.6580   31.6500   51.0240 C   0  0  0  0  0  0  0  0  0  0  0  0
   66.4969   31.2376   51.6037 H   0  0  0  0  0  0  0  0  0  0  0  0
   65.8070   32.8620   50.3440 C   0  0  0  0  0  0  0  0  0  0  0  0
   66.7627   33.4046   50.3918 H   0  0  0  0  0  0  0  0  0  0  0  0
   64.7430   33.3860   49.6030 C   0  0  0  0  0  0  0  0  0  0  0  0
   64.8619   34.3439   49.0754 H   0  0  0  0  0  0  0  0  0  0  0  0
   61.1900   33.5560   49.4170 C   0  0  0  0  0  0  0  0  0  0  0  0
   61.0932   33.3636   50.4957 H   0  0  0  0  0  0  0  0  0  0  0  0
   60.1490   34.0910   48.7290 N   0  0  0  0  0  0  0  0  0  0  0  0
   57.8860   31.7920   44.2910 C   0  0  0  0  0  0  0  0  0  0  0  0
   57.6391   32.3255   43.3613 H   0  0  0  0  0  0  0  0  0  0  0  0
   57.7440   30.4030   44.3550 C   0  0  0  0  0  0  0  0  0  0  0  0
   57.3884   29.8482   43.4742 H   0  0  0  0  0  0  0  0  0  0  0  0
   58.9040   27.3740   45.7880 C   0  0  0  0  0  0  0  0  0  0  0  0
   60.2430   27.6970   45.9810 O   0  0  0  0  0  0  0  0  0  0  0  0
   56.0940   25.0580   45.5070 C   0  0  0  0  0  0  0  0  0  0  0  0
   55.3257   25.1676   46.2866 H   0  0  0  0  0  0  0  0  0  0  0  0
   55.6409   25.0572   44.5047 H   0  0  0  0  0  0  0  0  0  0  0  0
  1  2  1  0
  2  3  2  0
  3  4  1  0
  3  5  1  0
  5  6  1  0
  5  7  1  0
  5  8  1  0
  8  9  1  0
  9 10  2  0
 10 11  1  0
 10 12  1  0
 12 13  1  0
 13 14  2  0
 14 15  1  0
 14 16  1  0
 16 17  1  0
 16 18  2  0
 18 19  1  0
 19 20  2  0
 19 21  2  0
 19 22  1  0
 22 23  2  0
 23 24  1  0
 24 25  2  0
 25 26  1  0
 26 27  1  0
 26 28  1  0
 26 29  1  0
 25 30  1  0
 30 31  1  0
 31 32  2  0
 32 33  1  0
 32 34  1  0
 34 35  1  0
 34 36  2  0
 36 37  1  0
 36 38  1  0
 38 39  1  0
 38 40  2  0
 40 41  1  0
 30 42  2  0
 42 43  1  0
 42 44  1  0
 18 45  1  0
 45 46  1  0
 45 47  2  0
 47 48  1  0
 12 49  1  0
 49 50  1  0
  9 51  1  0
 51 52  1  0
 51 53  1  0
 51  2  1  0
 49  8  2  0
 47 13  1  0
 44 23  1  0
 40 31  1  0
M  CHG  3  11  -1  44  -1  50  -1
M  END
>  <UniqueID>  (33) 
31

>  <SMILES>  (33) 
Cc1n/c(=N\S(=O)(=O)c2ccc(-n3c([O-])c4c(c3[O-])CC=CC4)cc2)[n-]cc1-c1ccccc1

>  <Energy>  (33) 
106.89405769604882

>  <Genealogy>  (33) 
Cc1nc(=NS(=O)(=O)c2ccc(-n3c([O-])c4c(c3[O-])CC=CC4)cc2)[n-]cc1-c1ccccc1 (protonated)
Cc1n/c(=N\S(=O)(=O)c2ccc(-n3c([O-])c4c(c3[O-])CC=CC4)cc2)[n-]cc1-c1ccccc1 (cis-trans isomerization)
Cc1n/c(=N\S(=O)(=O)c2ccc(-n3c([O-])c4c(c3[O-])CC=CC4)cc2)[n-]cc1-c1ccccc1 (3D coordinates assigned)
Cc1n/c(=N\S(=O)(=O)c2ccc(-n3c([O-])c4c(c3[O-])CC=CC4)cc2)[n-]cc1-c1ccccc1 (nonaromatic ring conformer: 106.89405769604882 kcal/mol)

>  <smiles>  (33) 
Cc1nc(=NS(=O)(=O)c2ccc(-n3c(O)c4c(c3O)CC=CC4)cc2)[nH]cc1-c1ccccc1

>  <score_type>  (33) 
oracle

>  <origin>  (33) 
adg

>  <m_score__min__energy>  (33) 
-15.34

>  <m_primary>  (33) 
energy

$$$$
33:0
     RDKit          3D

 60 63  0  0  0  0  0  0  0  0999 V2000
   56.9560   33.6540   45.3370 C   0  0  0  0  0  0  0  0  0  0  0  0
   57.7640   32.5930   45.2150 C   0  0  0  0  0  0  0  0  0  0  0  0
   59.1480   32.7090   45.5730 N   0  0  0  0  0  0  0  0  0  0  0  0
   59.7500   34.0210   45.7930 C   0  0  0  0  0  0  0  0  0  0  0  0
   60.8500   33.9140   46.8150 C   0  0  0  0  0  0  0  0  0  0  0  0
   60.5520   33.9990   48.1830 C   0  0  0  0  0  0  0  0  0  0  0  0
   61.5540   33.8090   49.1390 C   0  0  0  0  0  0  0  0  0  0  0  0
   62.8760   33.5350   48.7440 C   0  0  0  0  0  0  0  0  0  0  0  0
   63.9310   33.3450   49.7690 C   0  0  0  0  0  0  0  0  0  0  0  0
   63.6430   33.5160   50.9850 O   0  0  0  0  0  0  0  0  0  0  0  0
   65.2640   32.9530   49.3930 N   0  0  0  0  0  0  0  0  0  0  0  0
   66.3270   32.7140   50.3350 C   0  0  0  0  0  0  0  0  0  0  0  0
   67.5270   33.4450   50.2600 C   0  0  0  0  0  0  0  0  0  0  0  0
   68.5930   33.1490   51.1130 C   0  0  0  0  0  0  0  0  0  0  0  0
   68.4890   32.1030   52.0280 C   0  0  0  0  0  0  0  0  0  0  0  0
   67.3100   31.3640   52.1100 C   0  0  0  0  0  0  0  0  0  0  0  0
   66.2180   31.6690   51.2820 C   0  0  0  0  0  0  0  0  0  0  0  0
   64.9960   30.9430   51.4440 N   0  0  0  0  0  0  0  0  0  0  0  0
   63.1660   33.4160   47.3730 C   0  0  0  0  0  0  0  0  0  0  0  0
   62.1610   33.6060   46.4170 C   0  0  0  0  0  0  0  0  0  0  0  0
   57.2920   31.3230   44.6280 C   0  0  0  0  0  0  0  0  0  0  0  0
   56.0600   31.0830   44.5060 O   0  0  0  0  0  0  0  0  0  0  0  0
   58.2540   30.3660   44.1770 N   0  0  0  0  0  0  0  0  0  0  0  0
   58.6310   29.1770   44.8800 C   0  0  0  0  0  0  0  0  0  0  0  0
   59.9850   28.9480   45.1360 C   0  0  0  0  0  0  0  0  0  0  0  0
   60.3950   27.7620   45.7530 C   0  0  0  0  0  0  0  0  0  0  0  0
   59.4550   26.7890   46.1010 C   0  0  0  0  0  0  0  0  0  0  0  0
   58.0930   26.9940   45.8240 C   0  0  0  0  0  0  0  0  0  0  0  0
   57.0760   25.9390   46.1670 C   0  0  0  0  0  0  0  0  0  0  0  0
   57.3700   24.6710   45.4290 C   0  0  0  0  0  0  0  0  0  0  0  0
   58.5360   24.0030   45.6370 N   0  0  0  0  0  0  0  0  0  0  0  0
   58.9030   22.8310   45.0320 C   0  0  0  0  0  0  0  0  0  0  0  0
   60.0240   22.3300   45.3220 O   0  0  0  0  0  0  0  0  0  0  0  0
   58.1100   22.1770   44.1270 N   0  0  0  0  0  0  0  0  0  0  0  0
   56.8810   22.5830   43.7170 C   0  0  0  0  0  0  0  0  0  0  0  0
   56.2300   21.9120   42.8760 O   0  0  0  0  0  0  0  0  0  0  0  0
   56.2500   24.0070   44.3530 S   0  0  0  0  0  0  0  0  0  0  0  0
   57.6850   28.1940   45.2190 C   0  0  0  0  0  0  0  0  0  0  0  0
   55.8937   33.5706   45.0639 H   0  0  0  0  0  0  0  0  0  0  0  0
   57.3546   34.6088   45.7103 H   0  0  0  0  0  0  0  0  0  0  0  0
   59.7900   31.9340   45.2900 H   0  0  0  0  0  0  0  0  0  0  0  0
   60.1668   34.3947   44.8461 H   0  0  0  0  0  0  0  0  0  0  0  0
   58.9805   34.7161   46.1600 H   0  0  0  0  0  0  0  0  0  0  0  0
   59.5231   34.2166   48.5056 H   0  0  0  0  0  0  0  0  0  0  0  0
   61.3067   33.8743   50.2089 H   0  0  0  0  0  0  0  0  0  0  0  0
   65.4760   32.8000   48.3810 H   0  0  0  0  0  0  0  0  0  0  0  0
   67.6265   34.2561   49.5237 H   0  0  0  0  0  0  0  0  0  0  0  0
   69.5172   33.7433   51.0623 H   0  0  0  0  0  0  0  0  0  0  0  0
   69.3371   31.8606   52.6853 H   0  0  0  0  0  0  0  0  0  0  0  0
   67.2345   30.5352   52.8293 H   0  0  0  0  0  0  0  0  0  0  0  0
   64.0810   31.4460   51.4500 H   0  0  0  0  0  0  0  0  0  0  0  0
   64.9760   29.9000   51.4640 H   0  0  0  0  0  0  0  0  0  0  0  0
   64.1888   33.1721   47.0498 H   0  0  0  0  0  0  0  0  0  0  0  0
   62.3998   33.5134   45.3472 H   0  0  0  0  0  0  0  0  0  0  0  0
   60.7318   29.7037   44.8511 H   0  0  0  0  0  0  0  0  0  0  0  0
   61.4613   27.5947   45.9650 H   0  0  0  0  0  0  0  0  0  0  0  0
   59.7817   25.8608   46.5927 H   0  0  0  0  0  0  0  0  0  0  0  0
   57.1070   25.7440   47.2491 H   0  0  0  0  0  0  0  0  0  0  0  0
   56.0778   26.2979   45.8759 H   0  0  0  0  0  0  0  0  0  0  0  0
   56.6189   28.3657   45.0092 H   0  0  0  0  0  0  0  0  0  0  0  0
  1  2  2  0
  2  3  1  0
  3  4  1  0
  4  5  1  0
  5  6  2  0
  6  7  1  0
  7  8  2  0
  8  9  1  0
  9 10  2  0
  9 11  1  0
 11 12  1  0
 12 13  2  0
 13 14  1  0
 14 15  2  0
 15 16  1  0
 16 17  2  0
 17 18  1  0
  8 19  1  0
 19 20  2  0
  2 21  1  0
 21 22  2  0
 21 23  1  0
 23 24  1  0
 24 25  2  0
 25 26  1  0
 26 27  2  0
 27 28  1  0
 28 29  1  0
 29 30  1  0
 30 31  2  0
 31 32  1  0
 32 33  2  0
 32 34  1  0
 34 35  1  0
 35 36  2  0
 35 37  1  0
 28 38  2  0
 20  5  1  0
 38 24  1  0
 17 12  1  0
 37 30  1  0
  1 39  1  0
  1 40  1  0
  3 41  1  0
  4 42  1  0
  4 43  1  0
  6 44  1  0
  7 45  1  0
 11 46  1  0
 13 47  1  0
 14 48  1  0
 15 49  1  0
 16 50  1  0
 18 51  1  0
 18 52  1  0
 19 53  1  0
 20 54  1  0
 25 55  1  0
 26 56  1  0
 27 57  1  0
 29 58  1  0
 29 59  1  0
 38 60  1  0
M  CHG  2  23  -1  34  -1
M  END
>  <UniqueID>  (34) 
32

>  <SMILES>  (34) 
C=C(NCc1ccc(C(=O)Nc2ccccc2N)cc1)C(=O)[N-]c1cccc(Cc2nc(=O)[n-]c(=O)s2)c1

>  <Energy>  (34) 
75.80581243701653

>  <Genealogy>  (34) 
C=C(NCc1ccc(C(=O)Nc2ccccc2N)cc1)C(=O)[N-]c1cccc(Cc2nc(=O)[n-]c(=O)s2)c1 (protonated)
C=C(NCc1ccc(C(=O)Nc2ccccc2N)cc1)C(=O)[N-]c1cccc(Cc2nc(=O)[n-]c(=O)s2)c1 (3D coordinates assigned)
C=C(NCc1ccc(C(=O)Nc2ccccc2N)cc1)C(=O)[N-]c1cccc(Cc2nc(=O)[n-]c(=O)s2)c1 (optimized conformer: 75.80581243701653 kcal/mol)

>  <smiles>  (34) 
C=C(NCc1ccc(C(=O)Nc2ccccc2N)cc1)C(=O)Nc1cccc(Cc2nc(=O)[nH]c(=O)s2)c1

>  <score_type>  (34) 
oracle

>  <origin>  (34) 
adg

>  <m_score__min__energy>  (34) 
-13.81

>  <m_primary>  (34) 
energy

$$$$
34:0
     RDKit          3D

 39 41  0  0  0  0  0  0  0  0999 V2000
   54.6840   23.9260   46.4260 C   0  0  0  0  0  0  0  0  0  0  0  0
   55.8400   24.5830   46.5590 C   0  0  0  0  0  0  0  0  0  0  0  0
   55.8630   25.9270   46.3580 N   0  0  0  0  0  0  0  0  0  0  0  0
   57.0030   26.6570   46.4700 C   0  0  0  0  0  0  0  0  0  0  0  0
   56.9400   27.9060   46.3220 O   0  0  0  0  0  0  0  0  0  0  0  0
   58.2190   26.0000   46.7860 C   0  0  0  0  0  0  0  0  0  0  0  0
   59.4160   26.6130   46.8860 C   0  0  0  0  0  0  0  0  0  0  0  0
   59.6620   27.9540   47.4630 C   0  0  0  0  0  0  0  0  0  0  0  0
   59.8540   28.0590   48.8450 C   0  0  0  0  0  0  0  0  0  0  0  0
   60.0680   29.3040   49.4310 C   0  0  0  0  0  0  0  0  0  0  0  0
   60.0990   30.4430   48.6270 C   0  0  0  0  0  0  0  0  0  0  0  0
   59.9400   30.3350   47.2810 N   0  0  0  0  0  0  0  0  0  0  0  0
   59.7520   29.1270   46.6700 C   0  0  0  0  0  0  0  0  0  0  0  0
   59.6130   29.0860   45.1980 C   0  0  0  0  0  0  0  0  0  0  0  0
   60.6030   28.7370   44.5000 O   0  0  0  0  0  0  0  0  0  0  0  0
   58.3780   29.4300   44.5550 N   0  0  0  0  0  0  0  0  0  0  0  0
   57.7560   28.5930   43.5460 C   0  0  0  0  0  0  0  0  0  0  0  0
   56.5120   29.3510   43.1090 C   0  0  0  0  0  0  0  0  0  0  0  0
   56.2060   30.3400   44.2390 C   0  0  1  0  0  0  0  0  0  0  0  0
   55.2590   29.7920   45.1180 O   0  0  0  0  0  0  0  0  0  0  0  0
   57.5320   30.5370   44.9720 C   0  0  0  0  0  0  0  0  0  0  0  0
   58.1780   24.6580   47.0140 N   0  0  0  0  0  0  0  0  0  0  0  0
   57.0360   23.9330   46.9090 C   0  0  0  0  0  0  0  0  0  0  0  0
   57.0710   22.6910   47.1240 O   0  0  0  0  0  0  0  0  0  0  0  0
   54.6482   22.8382   46.5852 H   0  0  0  0  0  0  0  0  0  0  0  0
   53.7683   24.4730   46.1573 H   0  0  0  0  0  0  0  0  0  0  0  0
   60.2904   26.0661   46.5035 H   0  0  0  0  0  0  0  0  0  0  0  0
   59.8358   27.1547   49.4710 H   0  0  0  0  0  0  0  0  0  0  0  0
   60.2113   29.3882   50.5184 H   0  0  0  0  0  0  0  0  0  0  0  0
   60.2526   31.4321   49.0833 H   0  0  0  0  0  0  0  0  0  0  0  0
   59.9840   31.2070   46.7060 H   0  0  0  0  0  0  0  0  0  0  0  0
   58.4365   28.4454   42.6945 H   0  0  0  0  0  0  0  0  0  0  0  0
   57.5123   27.5933   43.9349 H   0  0  0  0  0  0  0  0  0  0  0  0
   56.7026   29.8902   42.1694 H   0  0  0  0  0  0  0  0  0  0  0  0
   55.6669   28.6707   42.9270 H   0  0  0  0  0  0  0  0  0  0  0  0
   55.7964   31.2857   43.8545 H   0  0  0  0  0  0  0  0  0  0  0  0
   55.7050   29.7110   46.0010 H   0  0  0  0  0  0  0  0  0  0  0  0
   57.9884   31.4969   44.6886 H   0  0  0  0  0  0  0  0  0  0  0  0
   57.3948   30.5556   46.0633 H   0  0  0  0  0  0  0  0  0  0  0  0
  1  2  2  0
  2  3  1  0
  3  4  1  0
  4  5  2  0
  4  6  1  0
  6  7  2  3
  7  8  1  0
  8  9  2  0
  9 10  1  0
 10 11  2  0
 11 12  1  0
 12 13  2  0
 13 14  1  0
 14 15  2  0
 14 16  1  0
 16 17  1  0
 17 18  1  0
 18 19  1  0
 19 20  1  0
 19 21  1  0
  6 22  1  0
 22 23  1  0
 23 24  2  0
 23  2  1  0
 13  8  1  0
 21 16  1  0
  1 25  1  0
  1 26  1  0
  7 27  1  0
  9 28  1  0
 10 29  1  0
 11 30  1  0
 12 31  1  0
 17 32  1  0
 17 33  1  0
 18 34  1  0
 18 35  1  0
 19 36  1  6
 20 37  1  0
 21 38  1  0
 21 39  1  0
M  CHG  3   3  -1  12   1  22  -1
M  END
>  <UniqueID>  (35) 
33

>  <SMILES>  (35) 
C=c1[n-]c(=O)c(=Cc2ccc[nH+]c2C(=O)N2CC[C@@H](O)C2)[n-]c1=O

>  <Energy>  (35) 
60.916977886354836

>  <Genealogy>  (35) 
C=c1[n-]c(=O)c(=Cc2ccc[nH+]c2C(=O)N2CCC(O)C2)[n-]c1=O (protonated)
C=c1[n-]c(=O)c(=Cc2ccc[nH+]c2C(=O)N2CC[C@@H](O)C2)[n-]c1=O (chirality)
C=c1[n-]c(=O)c(=Cc2ccc[nH+]c2C(=O)N2CC[C@@H](O)C2)[n-]c1=O (3D coordinates assigned)
C=c1[n-]c(=O)c(=Cc2ccc[nH+]c2C(=O)N2CC[C@@H](O)C2)[n-]c1=O (nonaromatic ring conformer: 60.916977886354836 kcal/mol)

>  <smiles>  (35) 
C=c1[nH]c(=O)c(=Cc2cccnc2C(=O)N2CCC(O)C2)[nH]c1=O

>  <score_type>  (35) 
oracle

>  <origin>  (35) 
adg

>  <m_score__min__energy>  (35) 
-9.6799999999999997

>  <m_primary>  (35) 
energy

$$$$
35:0
     RDKit          3D

 41 42  0  0  0  0  0  0  0  0999 V2000
   57.4790   32.3520   41.2250 C   0  0  0  0  0  0  0  0  0  0  0  0
   57.3650   31.7550   42.4120 C   0  0  0  0  0  0  0  0  0  0  0  0
   58.5010   31.7590   43.3970 C   0  0  0  0  0  0  0  0  0  0  0  0
   58.0320   32.2270   44.7100 N   0  0  0  0  0  0  0  0  0  0  0  0
   57.4010   33.5500   44.8310 C   0  0  0  0  0  0  0  0  0  0  0  0
   58.4590   34.6470   44.8770 C   0  0  0  0  0  0  0  0  0  0  0  0
   58.2060   31.3880   45.8720 C   0  0  0  0  0  0  0  0  0  0  0  0
   58.1420   31.8890   47.0290 O   0  0  0  0  0  0  0  0  0  0  0  0
   58.4670   29.9840   45.7330 N   0  0  0  0  0  0  0  0  0  0  0  0
   59.5170   29.3320   46.2750 C   0  0  0  0  0  0  0  0  0  0  0  0
   60.6150   29.9860   47.0560 C   0  0  0  0  0  0  0  0  0  0  0  0
   59.3950   27.9740   46.0700 C   0  0  0  0  0  0  0  0  0  0  0  0
   58.2260   27.7780   45.3550 C   0  0  0  0  0  0  0  0  0  0  0  0
   57.8230   26.5620   44.9410 C   0  0  0  0  0  0  0  0  0  0  0  0
   57.2330   25.5220   45.7970 C   0  0  0  0  0  0  0  0  0  0  0  0
   57.9300   24.5280   46.3780 N   0  0  0  0  0  0  0  0  0  0  0  0
   57.0100   23.9180   47.1590 C   0  0  0  0  0  0  0  0  0  0  0  0
   57.2830   22.9170   47.8690 O   0  0  0  0  0  0  0  0  0  0  0  0
   55.7840   24.4790   47.1340 N   0  0  0  0  0  0  0  0  0  0  0  0
   55.9400   25.4980   46.2740 C   0  0  0  0  0  0  0  0  0  0  0  0
   54.9220   26.3890   45.9450 O   0  0  0  0  0  0  0  0  0  0  0  0
   57.6450   29.0460   45.1980 C   0  0  0  0  0  0  0  0  0  0  0  0
   56.4240   29.3290   44.7200 C   0  0  0  0  0  0  0  0  0  0  0  0
   56.6358   32.3375   40.5188 H   0  0  0  0  0  0  0  0  0  0  0  0
   58.4163   32.8590   40.9521 H   0  0  0  0  0  0  0  0  0  0  0  0
   56.4234   31.2508   42.6751 H   0  0  0  0  0  0  0  0  0  0  0  0
   58.8999   30.7387   43.4960 H   0  0  0  0  0  0  0  0  0  0  0  0
   59.2885   32.4361   43.0345 H   0  0  0  0  0  0  0  0  0  0  0  0
   56.7438   33.7177   43.9650 H   0  0  0  0  0  0  0  0  0  0  0  0
   56.8176   33.5807   45.7630 H   0  0  0  0  0  0  0  0  0  0  0  0
   58.6917   34.8883   45.9247 H   0  0  0  0  0  0  0  0  0  0  0  0
   59.3708   34.2986   44.3698 H   0  0  0  0  0  0  0  0  0  0  0  0
   58.0778   35.5456   44.3698 H   0  0  0  0  0  0  0  0  0  0  0  0
   60.4192   29.8694   48.1321 H   0  0  0  0  0  0  0  0  0  0  0  0
   61.5757   29.5128   46.8047 H   0  0  0  0  0  0  0  0  0  0  0  0
   60.6565   31.0561   46.8047 H   0  0  0  0  0  0  0  0  0  0  0  0
   60.0933   27.1950   46.4098 H   0  0  0  0  0  0  0  0  0  0  0  0
   57.9453   26.3268   43.8734 H   0  0  0  0  0  0  0  0  0  0  0  0
   54.0200   26.3460   46.4020 H   0  0  0  0  0  0  0  0  0  0  0  0
   56.0898   30.3746   44.6493 H   0  0  0  0  0  0  0  0  0  0  0  0
   55.7570   28.5155   44.3987 H   0  0  0  0  0  0  0  0  0  0  0  0
  1  2  2  0
  2  3  1  0
  3  4  1  0
  4  5  1  0
  5  6  1  0
  4  7  1  0
  7  8  2  0
  7  9  1  0
  9 10  1  0
 10 11  1  0
 10 12  2  0
 12 13  1  0
 13 14  2  3
 14 15  1  0
 15 16  1  0
 16 17  1  0
 17 18  2  0
 17 19  1  0
 19 20  1  0
 20 21  1  0
 13 22  1  0
 22 23  2  0
 22  9  1  0
 20 15  2  0
  1 24  1  0
  1 25  1  0
  2 26  1  0
  3 27  1  0
  3 28  1  0
  5 29  1  0
  5 30  1  0
  6 31  1  0
  6 32  1  0
  6 33  1  0
 11 34  1  0
 11 35  1  0
 11 36  1  0
 12 37  1  0
 14 38  1  0
 21 39  1  0
 23 40  1  0
 23 41  1  0
M  CHG  2  16  -1  19  -1
M  END
>  <UniqueID>  (36) 
34

>  <SMILES>  (36) 
C=CCN(CC)C(=O)n1c(C)cc(=Cc2[n-]c(=O)[n-]c2O)c1=C

>  <Energy>  (36) 
106.33501763956465

>  <Genealogy>  (36) 
C=CCN(CC)C(=O)n1c(C)cc(=Cc2[n-]c(=O)[n-]c2O)c1=C (protonated)
C=CCN(CC)C(=O)n1c(C)cc(=Cc2[n-]c(=O)[n-]c2O)c1=C (3D coordinates assigned)
C=CCN(CC)C(=O)n1c(C)cc(=Cc2[n-]c(=O)[n-]c2O)c1=C (optimized conformer: 106.33501763956465 kcal/mol)

>  <smiles>  (36) 
C=CCN(CC)C(=O)n1c(C)cc(=Cc2[nH]c(=O)[nH]c2O)c1=C

>  <score_type>  (36) 
oracle

>  <origin>  (36) 
adg

>  <m_score__min__energy>  (36) 
-11.710000000000001

>  <m_primary>  (36) 
energy

$$$$
36:0
     RDKit          3D

 35 37  0  0  0  0  0  0  0  0999 V2000
   56.4515   30.1949   43.1036 H   0  0  0  0  0  0  0  0  0  0  0  0
   56.6870   29.1590   43.3890 C   0  0  0  0  0  0  0  0  0  0  0  0
   56.0815   28.3290   42.9959 H   0  0  0  0  0  0  0  0  0  0  0  0
   57.7120   28.9080   44.2160 C   0  0  0  0  0  0  0  0  0  0  0  0
   58.1540   27.6570   44.6840 C   0  0  0  0  0  0  0  0  0  0  0  0
   57.6490   26.4180   44.5170 C   0  0  0  0  0  0  0  0  0  0  0  0
   57.6492   26.0112   43.4950 H   0  0  0  0  0  0  0  0  0  0  0  0
   57.0990   25.5630   45.5760 C   0  0  0  0  0  0  0  0  0  0  0  0
   57.7880   24.5720   46.1690 N   0  0  0  0  0  0  0  0  0  0  0  0
   56.9590   24.1600   47.1530 C   0  0  0  0  0  0  0  0  0  0  0  0
   57.2500   23.2170   47.9320 O   0  0  0  0  0  0  0  0  0  0  0  0
   55.7990   24.8460   47.2430 N   0  0  0  0  0  0  0  0  0  0  0  0
   55.9110   25.7420   46.2490 C   0  0  0  0  0  0  0  0  0  0  0  0
   54.9590   26.7160   45.9760 O   0  0  0  0  0  0  0  0  0  0  0  0
   59.2940   27.9020   45.4360 C   0  0  0  0  0  0  0  0  0  0  0  0
   59.9324   27.1494   45.9219 H   0  0  0  0  0  0  0  0  0  0  0  0
   59.4740   29.2690   45.4580 C   0  0  0  0  0  0  0  0  0  0  0  0
   60.6190   29.9770   46.1110 C   0  0  0  0  0  0  0  0  0  0  0  0
   60.5146   29.9125   47.2041 H   0  0  0  0  0  0  0  0  0  0  0  0
   61.5644   29.5056   45.8045 H   0  0  0  0  0  0  0  0  0  0  0  0
   60.6197   31.0334   45.8045 H   0  0  0  0  0  0  0  0  0  0  0  0
   58.5420   29.8690   44.6960 N   0  0  0  0  0  0  0  0  0  0  0  0
   58.5040   31.2530   44.4380 N   0  0  0  0  0  0  0  0  0  0  0  0
   57.7840   32.2030   45.2360 C   0  0  0  0  0  0  0  0  0  0  0  0
   56.5240   32.1950   45.1910 O   0  0  0  0  0  0  0  0  0  0  0  0
   58.4720   33.1770   46.1140 C   0  0  0  0  0  0  0  0  0  0  0  0
   58.6300   32.9010   47.4810 C   0  0  0  0  0  0  0  0  0  0  0  0
   58.2491   31.9589   47.9021 H   0  0  0  0  0  0  0  0  0  0  0  0
   59.2730   33.8280   48.3040 C   0  0  0  0  0  0  0  0  0  0  0  0
   59.3892   33.6208   49.3780 H   0  0  0  0  0  0  0  0  0  0  0  0
   59.7560   34.9870   47.7800 N   0  0  0  0  0  0  0  0  0  0  0  0
   59.6320   35.2740   46.4570 C   0  0  0  0  0  0  0  0  0  0  0  0
   60.0351   36.2174   46.0602 H   0  0  0  0  0  0  0  0  0  0  0  0
   58.9940   34.3740   45.6000 C   0  0  0  0  0  0  0  0  0  0  0  0
   58.9013   34.6023   44.5280 H   0  0  0  0  0  0  0  0  0  0  0  0
  1  2  1  0
  2  3  1  0
  2  4  2  0
  4  5  1  0
  5  6  2  0
  6  7  1  0
  6  8  1  0
  8  9  1  0
  9 10  1  0
 10 11  2  0
 10 12  1  0
 12 13  1  0
 13 14  1  0
  5 15  1  0
 15 16  1  0
 15 17  2  0
 17 18  1  0
 18 19  1  0
 18 20  1  0
 18 21  1  0
 17 22  1  0
 22 23  1  0
 23 24  1  0
 24 25  2  0
 24 26  1  0
 26 27  2  0
 27 28  1  0
 27 29  1  0
 29 30  1  0
 29 31  2  0
 31 32  1  0
 32 33  1  0
 32 34  2  0
 34 35  1  0
 22  4  1  0
 34 26  1  0
 13  8  2  0
M  CHG  4   9  -1  12  -1  14  -1  23  -1
M  END
>  <UniqueID>  (37) 
35

>  <SMILES>  (37) 
C=c1/c(=C\c2[n-]c(=O)[n-]c2[O-])cc(C)n1[N-]C(=O)c1ccncc1

>  <Energy>  (37) 
116.81575283552347

>  <Genealogy>  (37) 
C=c1c(=Cc2[n-]c(=O)[n-]c2[O-])cc(C)n1[N-]C(=O)c1ccncc1 (protonated)
C=c1/c(=C\c2[n-]c(=O)[n-]c2[O-])cc(C)n1[N-]C(=O)c1ccncc1 (cis-trans isomerization)
C=c1/c(=C\c2[n-]c(=O)[n-]c2[O-])cc(C)n1[N-]C(=O)c1ccncc1 (3D coordinates assigned)
C=c1/c(=C\c2[n-]c(=O)[n-]c2[O-])cc(C)n1[N-]C(=O)c1ccncc1 (optimized conformer: 116.81575283552347 kcal/mol)

>  <smiles>  (37) 
C=c1c(=Cc2[nH]c(=O)[nH]c2O)cc(C)n1NC(=O)c1ccncc1

>  <score_type>  (37) 
oracle

>  <origin>  (37) 
adg

>  <m_score__min__energy>  (37) 
-16.829999999999998

>  <m_primary>  (37) 
energy

$$$$
37:0
     RDKit          3D

 56 60  0  0  0  0  0  0  0  0999 V2000
   57.8120   27.0470   47.0210 O   0  0  0  0  0  0  0  0  0  0  0  0
   56.9020   26.6970   46.2240 C   0  0  0  0  0  0  0  0  0  0  0  0
   56.5380   25.3100   46.1630 N   0  0  0  0  0  0  0  0  0  0  0  0
   55.3460   24.8410   45.9420 C   0  0  0  0  0  0  0  0  0  0  0  0
   54.2670   25.5960   45.6330 N   0  0  0  0  0  0  0  0  0  0  0  0
   53.1710   24.8720   45.4180 N   0  0  0  0  0  0  0  0  0  0  0  0
   53.3690   23.5400   45.5470 C   0  0  0  0  0  0  0  0  0  0  0  0
   54.9740   23.2030   45.9420 S   0  0  0  0  0  0  0  0  0  0  0  0
   56.1880   27.6910   45.4700 N   0  0  0  0  0  0  0  0  0  0  0  0
   56.7420   28.9630   45.0900 C   0  0  0  0  0  0  0  0  0  0  0  0
   56.2930   29.6490   43.9460 C   0  0  0  0  0  0  0  0  0  0  0  0
   56.8260   30.9010   43.6200 C   0  0  0  0  0  0  0  0  0  0  0  0
   57.7850   31.5030   44.4420 C   0  0  0  0  0  0  0  0  0  0  0  0
   58.2870   32.7600   44.0800 O   0  0  0  0  0  0  0  0  0  0  0  0
   58.2850   33.8960   44.9010 C   0  0  0  0  0  0  0  0  0  0  0  0
   57.6590   34.9350   44.5500 O   0  0  0  0  0  0  0  0  0  0  0  0
   59.0700   33.8940   46.1550 C   0  0  0  0  0  0  0  0  0  0  0  0
   60.4350   34.2300   46.1500 C   0  0  0  0  0  0  0  0  0  0  0  0
   61.1710   34.2240   47.3380 C   0  0  0  0  0  0  0  0  0  0  0  0
   60.5590   33.8790   48.5520 C   0  0  0  0  0  0  0  0  0  0  0  0
   61.3280   33.8890   49.8170 C   0  0  0  0  0  0  0  0  0  0  0  0
   60.7150   34.0940   50.9000 O   0  0  0  0  0  0  0  0  0  0  0  0
   62.7560   33.6890   49.8400 N   0  0  0  0  0  0  0  0  0  0  0  0
   63.4210   32.9320   48.7680 C   0  0  0  0  0  0  0  0  0  0  0  0
   64.4600   31.9870   49.3610 C   0  0  0  0  0  0  0  0  0  0  0  0
   65.4280   32.7550   50.2150 C   0  0  0  0  0  0  0  0  0  0  0  0
   66.7640   32.3400   50.3190 C   0  0  0  0  0  0  0  0  0  0  0  0
   67.6560   33.0390   51.1360 C   0  0  0  0  0  0  0  0  0  0  0  0
   67.2200   34.1480   51.8620 C   0  0  0  0  0  0  0  0  0  0  0  0
   65.8880   34.5590   51.7780 C   0  0  0  0  0  0  0  0  0  0  0  0
   64.9820   33.8700   50.9560 C   0  0  0  0  0  0  0  0  0  0  0  0
   63.5320   34.2970   50.9360 C   0  0  0  0  0  0  0  0  0  0  0  0
   59.1910   33.5650   48.5620 C   0  0  0  0  0  0  0  0  0  0  0  0
   58.4550   33.5630   47.3740 C   0  0  0  0  0  0  0  0  0  0  0  0
   58.2400   30.8170   45.5830 C   0  0  0  0  0  0  0  0  0  0  0  0
   57.7140   29.5610   45.9060 C   0  0  0  0  0  0  0  0  0  0  0  0
   52.5873   22.7779   45.4122 H   0  0  0  0  0  0  0  0  0  0  0  0
   55.1780   27.5160   45.2680 H   0  0  0  0  0  0  0  0  0  0  0  0
   55.5200   29.1991   43.3056 H   0  0  0  0  0  0  0  0  0  0  0  0
   56.4880   31.4167   42.7091 H   0  0  0  0  0  0  0  0  0  0  0  0
   60.9274   34.4996   45.2041 H   0  0  0  0  0  0  0  0  0  0  0  0
   62.2378   34.4917   47.3209 H   0  0  0  0  0  0  0  0  0  0  0  0
   62.6704   32.3473   48.2159 H   0  0  0  0  0  0  0  0  0  0  0  0
   63.9217   33.6361   48.0872 H   0  0  0  0  0  0  0  0  0  0  0  0
   63.9533   31.2293   49.9767 H   0  0  0  0  0  0  0  0  0  0  0  0
   65.0102   31.4980   48.5436 H   0  0  0  0  0  0  0  0  0  0  0  0
   67.1104   31.4612   49.7553 H   0  0  0  0  0  0  0  0  0  0  0  0
   68.7046   32.7143   51.2071 H   0  0  0  0  0  0  0  0  0  0  0  0
   67.9259   34.6989   52.5009 H   0  0  0  0  0  0  0  0  0  0  0  0
   65.5465   35.4280   52.3595 H   0  0  0  0  0  0  0  0  0  0  0  0
   63.0705   34.0078   51.8917 H   0  0  0  0  0  0  0  0  0  0  0  0
   63.5170   35.3856   50.7785 H   0  0  0  0  0  0  0  0  0  0  0  0
   58.6945   33.3186   49.5121 H   0  0  0  0  0  0  0  0  0  0  0  0
   57.3870   33.3005   47.3935 H   0  0  0  0  0  0  0  0  0  0  0  0
   59.0117   31.2693   46.2233 H   0  0  0  0  0  0  0  0  0  0  0  0
   58.0658   29.0381   46.8076 H   0  0  0  0  0  0  0  0  0  0  0  0
  1  2  2  0
  2  3  1  0
  3  4  2  3
  4  5  1  0
  5  6  1  0
  6  7  2  0
  7  8  1  0
  2  9  1  0
  9 10  1  0
 10 11  2  0
 11 12  1  0
 12 13  2  0
 13 14  1  0
 14 15  1  0
 15 16  2  0
 15 17  1  0
 17 18  2  0
 18 19  1  0
 19 20  2  0
 20 21  1  0
 21 22  2  0
 21 23  1  0
 23 24  1  0
 24 25  1  0
 25 26  1  0
 26 27  2  0
 27 28  1  0
 28 29  2  0
 29 30  1  0
 30 31  2  0
 31 32  1  0
 20 33  1  0
 33 34  2  0
 13 35  1  0
 35 36  2  0
  8  4  1  0
 36 10  1  0
 34 17  1  0
 32 23  1  0
 31 26  1  0
  7 37  1  0
  9 38  1  0
 11 39  1  0
 12 40  1  0
 18 41  1  0
 19 42  1  0
 24 43  1  0
 24 44  1  0
 25 45  1  0
 25 46  1  0
 27 47  1  0
 28 48  1  0
 29 49  1  0
 30 50  1  0
 32 51  1  0
 32 52  1  0
 33 53  1  0
 34 54  1  0
 35 55  1  0
 36 56  1  0
M  CHG  1   5  -1
M  END
>  <UniqueID>  (38) 
36

>  <SMILES>  (38) 
O=C(N=c1[n-]ncs1)Nc1ccc(OC(=O)c2ccc(C(=O)N3CCc4ccccc4C3)cc2)cc1

>  <Energy>  (38) 
115.51241356562228

>  <Genealogy>  (38) 
O=C(N=c1[n-]ncs1)Nc1ccc(OC(=O)c2ccc(C(=O)N3CCc4ccccc4C3)cc2)cc1 (protonated)
O=C(N=c1[n-]ncs1)Nc1ccc(OC(=O)c2ccc(C(=O)N3CCc4ccccc4C3)cc2)cc1 (3D coordinates assigned)
O=C(N=c1[n-]ncs1)Nc1ccc(OC(=O)c2ccc(C(=O)N3CCc4ccccc4C3)cc2)cc1 (nonaromatic ring conformer: 115.51241356562228 kcal/mol)

>  <smiles>  (38) 
O=C(N=c1[nH]ncs1)Nc1ccc(OC(=O)c2ccc(C(=O)N3CCc4ccccc4C3)cc2)cc1

>  <score_type>  (38) 
oracle

>  <origin>  (38) 
adg

>  <m_score__min__energy>  (38) 
-12.48

>  <m_primary>  (38) 
energy

$$$$
38:0
     RDKit          3D

 46 47  0  0  0  0  0  0  0  0999 V2000
   59.3880   33.5790   50.9710 C   0  0  0  0  0  0  0  0  0  0  0  0
   60.2280   33.7510   49.7730 N   0  0  0  0  0  0  0  0  0  0  0  0
   61.6840   33.8820   49.9420 C   0  0  0  0  0  0  0  0  0  0  0  0
   59.6310   33.7900   48.4450 C   0  0  0  0  0  0  0  0  0  0  0  0
   59.9870   34.7910   47.5140 C   0  0  0  0  0  0  0  0  0  0  0  0
   59.3990   34.8340   46.2470 C   0  0  0  0  0  0  0  0  0  0  0  0
   58.4450   33.8800   45.8720 C   0  0  0  0  0  0  0  0  0  0  0  0
   57.8280   33.9230   44.4970 C   0  0  0  0  0  0  0  0  0  0  0  0
   58.5130   32.9930   43.5830 N   0  0  0  0  0  0  0  0  0  0  0  0
   57.5760   32.1670   42.8050 C   0  0  0  0  0  0  0  0  0  0  0  0
   57.0010   31.0640   43.6440 C   0  0  0  0  0  0  0  0  0  0  0  0
   56.1280   31.3400   44.5100 O   0  0  0  0  0  0  0  0  0  0  0  0
   57.4200   29.7050   43.4360 N   0  0  0  0  0  0  0  0  0  0  0  0
   57.0490   28.6170   44.2920 C   0  0  0  0  0  0  0  0  0  0  0  0
   56.0640   28.7280   45.0730 O   0  0  0  0  0  0  0  0  0  0  0  0
   57.7880   27.3860   44.2270 N   0  0  0  0  0  0  0  0  0  0  0  0
   57.6960   26.3270   45.2010 C   0  0  0  0  0  0  0  0  0  0  0  0
   57.1440   25.0780   44.8590 C   0  0  0  0  0  0  0  0  0  0  0  0
   57.0060   24.0730   45.8200 C   0  0  0  0  0  0  0  0  0  0  0  0
   57.4120   24.3030   47.1350 C   0  0  0  0  0  0  0  0  0  0  0  0
   57.9550   25.5400   47.4920 C   0  0  0  0  0  0  0  0  0  0  0  0
   58.0940   26.5540   46.5360 C   0  0  0  0  0  0  0  0  0  0  0  0
   58.7980   28.0870   47.0390 Cl  0  0  0  0  0  0  0  0  0  0  0  0
   58.0890   32.8760   46.7820 C   0  0  0  0  0  0  0  0  0  0  0  0
   58.6710   32.8310   48.0520 C   0  0  0  0  0  0  0  0  0  0  0  0
   60.0051   33.7054   51.8728 H   0  0  0  0  0  0  0  0  0  0  0  0
   58.5857   34.3315   50.9674 H   0  0  0  0  0  0  0  0  0  0  0  0
   58.9460   32.5717   50.9674 H   0  0  0  0  0  0  0  0  0  0  0  0
   61.9281   33.9040   51.0143 H   0  0  0  0  0  0  0  0  0  0  0  0
   62.1866   33.0254   49.4690 H   0  0  0  0  0  0  0  0  0  0  0  0
   62.0256   34.8145   49.4690 H   0  0  0  0  0  0  0  0  0  0  0  0
   60.7371   35.5467   47.7900 H   0  0  0  0  0  0  0  0  0  0  0  0
   59.6880   35.6240   45.5382 H   0  0  0  0  0  0  0  0  0  0  0  0
   56.7673   33.6406   44.5694 H   0  0  0  0  0  0  0  0  0  0  0  0
   57.9282   34.9436   44.0991 H   0  0  0  0  0  0  0  0  0  0  0  0
   59.0540   33.5730   42.8990 H   0  0  0  0  0  0  0  0  0  0  0  0
   56.7570   32.8027   42.4375 H   0  0  0  0  0  0  0  0  0  0  0  0
   58.1237   31.7163   41.9643 H   0  0  0  0  0  0  0  0  0  0  0  0
   58.1100   29.5140   42.6760 H   0  0  0  0  0  0  0  0  0  0  0  0
   58.4250   27.2550   43.4100 H   0  0  0  0  0  0  0  0  0  0  0  0
   56.8181   24.8913   43.8251 H   0  0  0  0  0  0  0  0  0  0  0  0
   56.5769   23.0997   45.5396 H   0  0  0  0  0  0  0  0  0  0  0  0
   57.3046   23.5107   47.8905 H   0  0  0  0  0  0  0  0  0  0  0  0
   58.2749   25.7183   48.5292 H   0  0  0  0  0  0  0  0  0  0  0  0
   57.3459   32.1175   46.4949 H   0  0  0  0  0  0  0  0  0  0  0  0
   58.3774   32.0378   48.7553 H   0  0  0  0  0  0  0  0  0  0  0  0
  1  2  1  0
  2  3  1  0
  2  4  1  0
  4  5  2  0
  5  6  1  0
  6  7  2  0
  7  8  1  0
  8  9  1  0
  9 10  1  0
 10 11  1  0
 11 12  2  0
 11 13  1  0
 13 14  1  0
 14 15  2  0
 14 16  1  0
 16 17  1  0
 17 18  2  0
 18 19  1  0
 19 20  2  0
 20 21  1  0
 21 22  2  0
 22 23  1  0
  7 24  1  0
 24 25  2  0
 25  4  1  0
 22 17  1  0
  1 26  1  0
  1 27  1  0
  1 28  1  0
  3 29  1  0
  3 30  1  0
  3 31  1  0
  5 32  1  0
  6 33  1  0
  8 34  1  0
  8 35  1  0
  9 36  1  0
 10 37  1  0
 10 38  1  0
 13 39  1  0
 16 40  1  0
 18 41  1  0
 19 42  1  0
 20 43  1  0
 21 44  1  0
 24 45  1  0
 25 46  1  0
M  END
>  <UniqueID>  (39) 
37

>  <SMILES>  (39) 
CN(C)c1ccc(CNCC(=O)NC(=O)Nc2ccccc2Cl)cc1

>  <Energy>  (39) 
44.83336753217693

>  <Genealogy>  (39) 
CN(C)c1ccc(CNCC(=O)NC(=O)Nc2ccccc2Cl)cc1 (3D coordinates assigned)
CN(C)c1ccc(CNCC(=O)NC(=O)Nc2ccccc2Cl)cc1 (optimized conformer: 44.83336753217693 kcal/mol)

>  <smiles>  (39) 
CN(C)c1ccc(CNCC(=O)NC(=O)Nc2ccccc2Cl)cc1

>  <score_type>  (39) 
oracle

>  <origin>  (39) 
adg

>  <m_score__min__energy>  (39) 
-8.2100000000000009

>  <m_primary>  (39) 
energy

$$$$
39:0
     RDKit          3D

 59 62  0  0  0  0  0  0  0  0999 V2000
   61.1730   34.2370   46.8930 C   0  0  0  0  0  0  0  0  0  0  0  0
   59.7580   33.9390   46.4940 C   0  0  0  0  0  0  0  0  0  0  0  0
   58.7620   33.7900   47.4720 C   0  0  0  0  0  0  0  0  0  0  0  0
   57.4630   33.4320   47.1000 C   0  0  0  0  0  0  0  0  0  0  0  0
   57.1510   33.2200   45.7560 C   0  0  0  0  0  0  0  0  0  0  0  0
   58.1320   33.3690   44.7680 C   0  0  0  0  0  0  0  0  0  0  0  0
   57.7910   33.0940   43.4020 N   0  0  0  0  0  0  0  0  0  0  0  0
   57.4780   31.8050   42.8570 C   0  0  0  0  0  0  0  0  0  0  0  0
   57.2420   31.7110   41.6230 O   0  0  0  0  0  0  0  0  0  0  0  0
   57.4890   30.5800   43.6900 C   0  0  0  0  0  0  0  0  0  0  0  0
   56.2890   29.9640   44.0800 C   0  0  0  0  0  0  0  0  0  0  0  0
   56.3180   28.8220   44.8800 C   0  0  0  0  0  0  0  0  0  0  0  0
   57.5460   28.2940   45.2790 C   0  0  0  0  0  0  0  0  0  0  0  0
   57.5940   26.8100   46.2850 S   0  0  0  0  0  0  0  0  0  0  0  0
   59.4020   26.8240   46.5730 C   0  0  0  0  0  0  0  0  0  0  0  0
   59.8190   27.8530   47.5840 C   0  0  0  0  0  0  0  0  0  0  0  0
   59.9640   27.5030   48.7860 O   0  0  0  0  0  0  0  0  0  0  0  0
   60.0110   29.2210   47.1980 N   0  0  0  0  0  0  0  0  0  0  0  0
   60.2740   30.2520   48.1570 C   0  0  0  0  0  0  0  0  0  0  0  0
   61.3550   31.1210   48.2150 C   0  0  0  0  0  0  0  0  0  0  0  0
   62.4820   31.2150   47.2310 C   0  0  0  0  0  0  0  0  0  0  0  0
   61.2030   31.9160   49.3070 N   0  0  0  0  0  0  0  0  0  0  0  0
   62.1290   32.9670   49.7370 C   0  0  0  0  0  0  0  0  0  0  0  0
   60.0540   31.6080   49.9070 N   0  0  0  0  0  0  0  0  0  0  0  0
   59.5330   32.2120   51.1050 C   0  0  0  0  0  0  0  0  0  0  0  0
   59.2460   33.5870   51.1330 C   0  0  0  0  0  0  0  0  0  0  0  0
   58.7360   34.1780   52.2910 C   0  0  0  0  0  0  0  0  0  0  0  0
   58.5210   33.4040   53.4360 C   0  0  0  0  0  0  0  0  0  0  0  0
   58.8240   32.0390   53.4230 C   0  0  0  0  0  0  0  0  0  0  0  0
   59.3320   31.4440   52.2640 C   0  0  0  0  0  0  0  0  0  0  0  0
   59.4760   30.6020   49.2210 C   0  0  0  0  0  0  0  0  0  0  0  0
   58.3650   30.0810   49.5120 O   0  0  0  0  0  0  0  0  0  0  0  0
   58.7010   28.9090   44.9130 N   0  0  0  0  0  0  0  0  0  0  0  0
   58.7010   30.0300   44.1410 C   0  0  0  0  0  0  0  0  0  0  0  0
   59.4430   33.7130   45.1460 C   0  0  0  0  0  0  0  0  0  0  0  0
   61.2489   34.2530   47.9903 H   0  0  0  0  0  0  0  0  0  0  0  0
   61.8389   33.4594   46.4907 H   0  0  0  0  0  0  0  0  0  0  0  0
   61.4687   35.2171   46.4907 H   0  0  0  0  0  0  0  0  0  0  0  0
   59.0040   33.9552   48.5323 H   0  0  0  0  0  0  0  0  0  0  0  0
   56.6844   33.3170   47.8685 H   0  0  0  0  0  0  0  0  0  0  0  0
   56.1277   32.9340   45.4712 H   0  0  0  0  0  0  0  0  0  0  0  0
   55.3253   30.3825   43.7543 H   0  0  0  0  0  0  0  0  0  0  0  0
   55.3797   28.3413   45.1940 H   0  0  0  0  0  0  0  0  0  0  0  0
   59.7087   25.8312   46.9340 H   0  0  0  0  0  0  0  0  0  0  0  0
   59.8887   27.0780   45.6198 H   0  0  0  0  0  0  0  0  0  0  0  0
   59.7220   29.5120   46.2370 H   0  0  0  0  0  0  0  0  0  0  0  0
   63.4361   31.2946   47.7727 H   0  0  0  0  0  0  0  0  0  0  0  0
   62.4931   30.3147   46.5991 H   0  0  0  0  0  0  0  0  0  0  0  0
   62.3438   32.1047   46.5991 H   0  0  0  0  0  0  0  0  0  0  0  0
   62.1595   33.0016   50.8360 H   0  0  0  0  0  0  0  0  0  0  0  0
   63.1352   32.7504   49.3489 H   0  0  0  0  0  0  0  0  0  0  0  0
   61.7874   33.9379   49.3489 H   0  0  0  0  0  0  0  0  0  0  0  0
   59.4239   34.2013   50.2381 H   0  0  0  0  0  0  0  0  0  0  0  0
   58.5032   35.2530   52.3026 H   0  0  0  0  0  0  0  0  0  0  0  0
   58.1138   33.8688   54.3461 H   0  0  0  0  0  0  0  0  0  0  0  0
   58.6625   31.4321   54.3261 H   0  0  0  0  0  0  0  0  0  0  0  0
   59.5750   30.3712   52.2598 H   0  0  0  0  0  0  0  0  0  0  0  0
   59.6539   30.5075   43.8689 H   0  0  0  0  0  0  0  0  0  0  0  0
   60.2262   33.8053   44.3791 H   0  0  0  0  0  0  0  0  0  0  0  0
  1  2  1  0
  2  3  2  0
  3  4  1  0
  4  5  2  0
  5  6  1  0
  6  7  1  0
  7  8  1  0
  8  9  2  0
  8 10  1  0
 10 11  2  0
 11 12  1  0
 12 13  2  0
 13 14  1  0
 14 15  1  0
 15 16  1  0
 16 17  2  0
 16 18  1  0
 18 19  1  0
 19 20  2  0
 20 21  1  0
 20 22  1  0
 22 23  1  0
 22 24  1  0
 24 25  1  0
 25 26  2  0
 26 27  1  0
 27 28  2  0
 28 29  1  0
 29 30  2  0
 24 31  1  0
 31 32  2  0
 13 33  1  0
 33 34  2  0
  6 35  2  0
 35  2  1  0
 34 10  1  0
 31 19  1  0
 30 25  1  0
  1 36  1  0
  1 37  1  0
  1 38  1  0
  3 39  1  0
  4 40  1  0
  5 41  1  0
 11 42  1  0
 12 43  1  0
 15 44  1  0
 15 45  1  0
 18 46  1  0
 21 47  1  0
 21 48  1  0
 21 49  1  0
 23 50  1  0
 23 51  1  0
 23 52  1  0
 26 53  1  0
 27 54  1  0
 28 55  1  0
 29 56  1  0
 30 57  1  0
 34 58  1  0
 35 59  1  0
M  CHG  1   7  -1
M  END
>  <UniqueID>  (40) 
38

>  <SMILES>  (40) 
Cc1cccc([N-]C(=O)c2ccc(SCC(=O)Nc3c(C)n(C)n(-c4ccccc4)c3=O)nc2)c1

>  <Energy>  (40) 
102.84052884596963

>  <Genealogy>  (40) 
Cc1cccc([N-]C(=O)c2ccc(SCC(=O)Nc3c(C)n(C)n(-c4ccccc4)c3=O)nc2)c1 (protonated)
Cc1cccc([N-]C(=O)c2ccc(SCC(=O)Nc3c(C)n(C)n(-c4ccccc4)c3=O)nc2)c1 (3D coordinates assigned)
Cc1cccc([N-]C(=O)c2ccc(SCC(=O)Nc3c(C)n(C)n(-c4ccccc4)c3=O)nc2)c1 (optimized conformer: 102.84052884596963 kcal/mol)

>  <smiles>  (40) 
Cc1cccc(NC(=O)c2ccc(SCC(=O)Nc3c(C)n(C)n(-c4ccccc4)c3=O)nc2)c1

>  <score_type>  (40) 
oracle

>  <origin>  (40) 
adg

>  <m_score__min__energy>  (40) 
-12.029999999999999

>  <m_primary>  (40) 
energy

$$$$
40:0
     RDKit          3D

 61 64  0  0  0  0  0  0  0  0999 V2000
   57.7420   29.7160   50.9280 O   0  0  0  0  0  0  0  0  0  0  0  0
   58.5100   30.2860   51.7470 C   0  0  0  0  0  0  0  0  0  0  0  0
   59.8190   29.7090   52.1180 C   0  0  0  0  0  0  0  0  0  0  0  0
   60.7730   29.2790   51.2770 C   0  0  0  0  0  0  0  0  0  0  0  0
   60.5620   28.7950   49.9020 C   0  0  0  0  0  0  0  0  0  0  0  0
   60.6280   27.4710   49.5120 C   0  0  0  0  0  0  0  0  0  0  0  0
   60.3620   27.4660   48.1610 C   0  0  0  0  0  0  0  0  0  0  0  0
   60.1120   28.7800   47.8220 C   0  0  0  0  0  0  0  0  0  0  0  0
   59.8210   29.2620   46.4600 C   0  0  0  0  0  0  0  0  0  0  0  0
   58.6090   29.2410   45.8600 C   0  0  0  0  0  0  0  0  0  0  0  0
   58.1020   30.4720   45.1950 C   0  0  0  0  0  0  0  0  0  0  0  0
   58.8110   31.5130   45.1330 O   0  0  0  0  0  0  0  0  0  0  0  0
   56.7930   30.4970   44.6270 N   0  0  0  0  0  0  0  0  0  0  0  0
   55.9450   29.3510   44.6670 C   0  0  0  0  0  0  0  0  0  0  0  0
   54.7850   29.4140   44.1820 O   0  0  0  0  0  0  0  0  0  0  0  0
   56.4150   28.1340   45.2450 N   0  0  0  0  0  0  0  0  0  0  0  0
   57.7430   28.0300   45.7710 C   0  0  0  0  0  0  0  0  0  0  0  0
   58.1760   26.8930   46.0920 O   0  0  0  0  0  0  0  0  0  0  0  0
   60.2430   29.5490   48.8780 O   0  0  0  0  0  0  0  0  0  0  0  0
   58.1370   31.5480   52.3000 N   0  0  0  0  0  0  0  0  0  0  0  0
   57.8180   32.7000   51.4660 C   0  0  0  0  0  0  0  0  0  0  0  0
   59.0630   33.5640   51.2680 C   0  0  0  0  0  0  0  0  0  0  0  0
   59.7190   33.1860   49.9980 N   0  0  0  0  0  0  0  0  0  0  0  0
   58.7970   32.4620   49.0970 C   0  0  0  0  0  0  0  0  0  0  0  0
   58.6530   33.2150   47.8000 C   0  0  0  0  0  0  0  0  0  0  0  0
   57.4310   33.1880   47.1070 C   0  0  0  0  0  0  0  0  0  0  0  0
   57.2950   33.8650   45.8940 C   0  0  0  0  0  0  0  0  0  0  0  0
   58.3730   34.5810   45.3650 C   0  0  0  0  0  0  0  0  0  0  0  0
   59.5910   34.6150   46.0490 C   0  0  0  0  0  0  0  0  0  0  0  0
   59.7340   33.9330   47.2620 C   0  0  0  0  0  0  0  0  0  0  0  0
   60.9550   32.4120   50.2350 C   0  0  0  0  0  0  0  0  0  0  0  0
   61.9190   32.6310   49.1010 C   0  0  0  0  0  0  0  0  0  0  0  0
   62.5180   33.8900   48.9290 C   0  0  0  0  0  0  0  0  0  0  0  0
   63.4180   34.1040   47.8840 C   0  0  0  0  0  0  0  0  0  0  0  0
   63.7300   33.0650   47.0040 C   0  0  0  0  0  0  0  0  0  0  0  0
   63.1340   31.8110   47.1640 C   0  0  0  0  0  0  0  0  0  0  0  0
   62.2250   31.5940   48.2050 C   0  0  0  0  0  0  0  0  0  0  0  0
   60.0336   29.6230   53.1934 H   0  0  0  0  0  0  0  0  0  0  0  0
   61.8080   29.2891   51.6493 H   0  0  0  0  0  0  0  0  0  0  0  0
   60.8475   26.6013   50.1488 H   0  0  0  0  0  0  0  0  0  0  0  0
   60.3511   26.5942   47.4903 H   0  0  0  0  0  0  0  0  0  0  0  0
   60.6613   29.6740   45.8820 H   0  0  0  0  0  0  0  0  0  0  0  0
   55.7970   27.2900   45.2360 H   0  0  0  0  0  0  0  0  0  0  0  0
   57.4569   32.3519   50.4870 H   0  0  0  0  0  0  0  0  0  0  0  0
   57.0386   33.2984   51.9604 H   0  0  0  0  0  0  0  0  0  0  0  0
   58.7730   34.6245   51.2311 H   0  0  0  0  0  0  0  0  0  0  0  0
   59.7592   33.4070   52.1051 H   0  0  0  0  0  0  0  0  0  0  0  0
   59.1986   31.4583   48.8937 H   0  0  0  0  0  0  0  0  0  0  0  0
   57.8116   32.3770   49.5784 H   0  0  0  0  0  0  0  0  0  0  0  0
   56.5781   32.6311   47.5221 H   0  0  0  0  0  0  0  0  0  0  0  0
   56.3376   33.8351   45.3531 H   0  0  0  0  0  0  0  0  0  0  0  0
   58.2624   35.1172   44.4109 H   0  0  0  0  0  0  0  0  0  0  0  0
   60.4388   35.1790   45.6329 H   0  0  0  0  0  0  0  0  0  0  0  0
   60.6954   33.9590   47.7959 H   0  0  0  0  0  0  0  0  0  0  0  0
   61.4178   32.7424   51.1766 H   0  0  0  0  0  0  0  0  0  0  0  0
   60.7069   31.3423   50.2992 H   0  0  0  0  0  0  0  0  0  0  0  0
   62.2767   34.7105   49.6208 H   0  0  0  0  0  0  0  0  0  0  0  0
   63.8824   35.0925   47.7531 H   0  0  0  0  0  0  0  0  0  0  0  0
   64.4448   33.2338   46.1851 H   0  0  0  0  0  0  0  0  0  0  0  0
   63.3800   30.9935   46.4704 H   0  0  0  0  0  0  0  0  0  0  0  0
   61.7491   30.6092   48.3219 H   0  0  0  0  0  0  0  0  0  0  0  0
  1  2  2  0
  2  3  1  0
  3  4  2  3
  4  5  1  0
  5  6  2  0
  6  7  1  0
  7  8  2  0
  8  9  1  0
  9 10  2  3
 10 11  1  0
 11 12  2  0
 11 13  1  0
 13 14  1  0
 14 15  2  0
 14 16  1  0
 16 17  1  0
 17 18  2  0
  8 19  1  0
  2 20  1  0
 20 21  1  0
 21 22  1  0
 22 23  1  0
 23 24  1  0
 24 25  1  0
 25 26  2  0
 26 27  1  0
 27 28  2  0
 28 29  1  0
 29 30  2  0
 23 31  1  0
 31 32  1  0
 32 33  2  0
 33 34  1  0
 34 35  2  0
 35 36  1  0
 36 37  2  0
 19  5  1  0
 30 25  1  0
 37 32  1  0
 17 10  1  0
  3 38  1  0
  4 39  1  0
  6 40  1  0
  7 41  1  0
  9 42  1  0
 16 43  1  0
 21 44  1  0
 21 45  1  0
 22 46  1  0
 22 47  1  0
 24 48  1  0
 24 49  1  0
 26 50  1  0
 27 51  1  0
 28 52  1  0
 29 53  1  0
 30 54  1  0
 31 55  1  0
 31 56  1  0
 33 57  1  0
 34 58  1  0
 35 59  1  0
 36 60  1  0
 37 61  1  0
M  CHG  2  13  -1  20  -1
M  END
>  <UniqueID>  (41) 
39

>  <SMILES>  (41) 
O=C(C=Cc1ccc(C=C2C(=O)[N-]C(=O)NC2=O)o1)[N-]CCN(Cc1ccccc1)Cc1ccccc1

>  <Energy>  (41) 
99.01722446969991

>  <Genealogy>  (41) 
O=C(C=Cc1ccc(C=C2C(=O)[N-]C(=O)NC2=O)o1)[N-]CCN(Cc1ccccc1)Cc1ccccc1 (protonated)
O=C(C=Cc1ccc(C=C2C(=O)[N-]C(=O)NC2=O)o1)[N-]CCN(Cc1ccccc1)Cc1ccccc1 (3D coordinates assigned)
O=C(C=Cc1ccc(C=C2C(=O)[N-]C(=O)NC2=O)o1)[N-]CCN(Cc1ccccc1)Cc1ccccc1 (nonaromatic ring conformer: 99.01722446969991 kcal/mol)

>  <smiles>  (41) 
O=C(C=Cc1ccc(C=C2C(=O)NC(=O)NC2=O)o1)NCCN(Cc1ccccc1)Cc1ccccc1

>  <score_type>  (41) 
oracle

>  <origin>  (41) 
adg

>  <m_score__min__energy>  (41) 
-13.68

>  <m_primary>  (41) 
energy

$$$$
41:0
     RDKit          3D

 25 26  0  0  0  0  0  0  0  0999 V2000
   54.3970   28.7360   44.5040 H   0  0  0  0  0  0  0  0  0  0  0  0
   55.3180   29.1440   44.3970 O   0  0  0  0  0  0  0  0  0  0  0  0
   56.4080   28.6900   45.1370 C   0  0  0  0  0  0  0  0  0  0  0  0
   57.5840   29.4510   45.2120 C   0  0  0  0  0  0  0  0  0  0  0  0
   57.6416   30.4209   44.6963 H   0  0  0  0  0  0  0  0  0  0  0  0
   58.6870   28.9820   45.9410 C   0  0  0  0  0  0  0  0  0  0  0  0
   59.8970   29.8230   46.0490 C   0  0  0  0  0  0  0  0  0  0  0  0
   60.8575   29.3337   45.8300 H   0  0  0  0  0  0  0  0  0  0  0  0
   59.9480   31.1320   46.3890 C   0  0  0  0  0  0  0  0  0  0  0  0
   58.9050   31.9030   45.9670 N   0  0  0  0  0  0  0  0  0  0  0  0
   58.7570   33.2000   46.3330 C   0  0  0  0  0  0  0  0  0  0  0  0
   57.7650   33.8590   45.9220 O   0  0  0  0  0  0  0  0  0  0  0  0
   59.7010   33.7800   47.1770 C   0  0  0  0  0  0  0  0  0  0  0  0
   59.5730   34.9700   47.5690 O   0  0  0  0  0  0  0  0  0  0  0  0
   60.7820   33.0550   47.5570 N   0  0  0  0  0  0  0  0  0  0  0  0
   60.9710   31.7640   47.1670 C   0  0  0  0  0  0  0  0  0  0  0  0
   62.1640   31.2200   47.4390 C   0  0  0  0  0  0  0  0  0  0  0  0
   62.3737   30.1803   47.1474 H   0  0  0  0  0  0  0  0  0  0  0  0
   62.9343   31.8128   47.9540 H   0  0  0  0  0  0  0  0  0  0  0  0
   58.5840   27.7680   46.6430 C   0  0  0  0  0  0  0  0  0  0  0  0
   59.4278   27.4143   47.2537 H   0  0  0  0  0  0  0  0  0  0  0  0
   57.4120   27.0090   46.5670 C   0  0  0  0  0  0  0  0  0  0  0  0
   57.3439   26.0499   47.1012 H   0  0  0  0  0  0  0  0  0  0  0  0
   56.3270   27.4660   45.8140 C   0  0  0  0  0  0  0  0  0  0  0  0
   55.1660   26.7050   45.7440 O   0  0  0  0  0  0  0  0  0  0  0  0
  1  2  1  0
  2  3  1  0
  3  4  2  0
  4  5  1  0
  4  6  1  0
  6  7  1  0
  7  8  1  0
  7  9  2  0
  9 10  1  0
 10 11  1  0
 11 12  2  0
 11 13  1  0
 13 14  2  0
 13 15  1  0
 15 16  1  0
 16 17  2  0
 17 18  1  0
 17 19  1  0
  6 20  2  0
 20 21  1  0
 20 22  1  0
 22 23  1  0
 22 24  2  0
 24 25  1  0
 24  3  1  0
 16  9  1  0
M  CHG  3  10  -1  15  -1  25  -1
M  END
>  <UniqueID>  (42) 
40

>  <SMILES>  (42) 
C=c1[n-]c(=O)c(=O)[n-]/c1=C/c1ccc([O-])c(O)c1

>  <Energy>  (42) 
47.156056585527374

>  <Genealogy>  (42) 
C=c1[n-]c(=O)c(=O)[n-]c1=Cc1ccc([O-])c(O)c1 (protonated)
C=c1[n-]c(=O)c(=O)[n-]/c1=C/c1ccc([O-])c(O)c1 (cis-trans isomerization)
C=c1[n-]c(=O)c(=O)[n-]/c1=C/c1ccc([O-])c(O)c1 (3D coordinates assigned)
C=c1[n-]c(=O)c(=O)[n-]/c1=C/c1ccc([O-])c(O)c1 (optimized conformer: 47.156056585527374 kcal/mol)

>  <smiles>  (42) 
C=c1[nH]c(=O)c(=O)[nH]c1=Cc1ccc(O)c(O)c1

>  <score_type>  (42) 
oracle

>  <origin>  (42) 
adg

>  <m_score__min__energy>  (42) 
-11.869999999999999

>  <m_primary>  (42) 
energy

$$$$
42:0
     RDKit          3D

 58 61  0  0  0  0  0  0  0  0999 V2000
   59.3200   25.6630   45.8100 O   0  0  0  0  0  0  0  0  0  0  0  0
   58.2550   26.1020   46.3160 C   0  0  0  0  0  0  0  0  0  0  0  0
   57.6590   25.3820   47.4010 N   0  0  0  0  0  0  0  0  0  0  0  0
   56.7700   23.8950   47.2690 S   0  0  0  0  0  0  0  0  0  0  0  0
   55.3260   24.1280   47.6100 O   0  0  0  0  0  0  0  0  0  0  0  0
   57.3490   22.8770   48.2080 O   0  0  0  0  0  0  0  0  0  0  0  0
   56.8650   23.3010   45.6160 C   0  0  0  0  0  0  0  0  0  0  0  0
   55.9940   23.8010   44.6370 C   0  0  0  0  0  0  0  0  0  0  0  0
   56.0740   23.3330   43.3230 C   0  0  0  0  0  0  0  0  0  0  0  0
   57.0180   22.3610   42.9810 C   0  0  0  0  0  0  0  0  0  0  0  0
   57.8850   21.8560   43.9550 C   0  0  0  0  0  0  0  0  0  0  0  0
   57.8090   22.3230   45.2690 C   0  0  0  0  0  0  0  0  0  0  0  0
   57.6610   27.3440   45.7740 C   0  0  0  0  0  0  0  0  0  0  0  0
   58.4600   28.4690   45.4440 C   0  0  0  0  0  0  0  0  0  0  0  0
   59.9800   28.4020   45.5840 C   0  0  0  0  0  0  0  0  0  0  0  0
   60.4890   29.1080   46.8210 C   0  0  0  0  0  0  0  0  0  0  0  0
   61.1360   30.3510   46.7190 C   0  0  0  0  0  0  0  0  0  0  0  0
   61.5690   31.0210   47.8660 C   0  0  0  0  0  0  0  0  0  0  0  0
   61.3550   30.4600   49.1270 C   0  0  0  0  0  0  0  0  0  0  0  0
   61.7780   31.1310   50.2680 O   0  0  0  0  0  0  0  0  0  0  0  0
   60.7120   29.2240   49.2410 C   0  0  0  0  0  0  0  0  0  0  0  0
   60.2730   28.5540   48.0950 C   0  0  0  0  0  0  0  0  0  0  0  0
   57.7960   29.6590   45.0330 C   0  0  0  0  0  0  0  0  0  0  0  0
   58.4970   30.9720   44.7760 C   0  0  0  0  0  0  0  0  0  0  0  0
   57.5330   32.1260   44.4680 C   0  0  0  0  0  0  0  0  0  0  0  0
   58.1320   33.7190   45.0370 S   0  0  0  0  0  0  0  0  0  0  0  0
   57.0000   34.7070   44.9950 O   0  0  0  0  0  0  0  0  0  0  0  0
   59.2240   34.2160   44.1290 O   0  0  0  0  0  0  0  0  0  0  0  0
   58.7210   33.6180   46.6940 C   0  0  0  0  0  0  0  0  0  0  0  0
   59.7020   34.5050   47.1650 C   0  0  0  0  0  0  0  0  0  0  0  0
   60.1430   34.4270   48.4900 C   0  0  0  0  0  0  0  0  0  0  0  0
   59.6040   33.4680   49.3530 C   0  0  0  0  0  0  0  0  0  0  0  0
   58.6270   32.5830   48.8900 C   0  0  0  0  0  0  0  0  0  0  0  0
   58.1810   32.6620   47.5660 C   0  0  0  0  0  0  0  0  0  0  0  0
   56.4420   29.6530   44.9160 N   0  0  0  0  0  0  0  0  0  0  0  0
   55.7060   28.5800   45.1940 N   0  0  0  0  0  0  0  0  0  0  0  0
   56.2670   27.4290   45.6300 C   0  0  0  0  0  0  0  0  0  0  0  0
   55.5260   26.4510   45.9160 O   0  0  0  0  0  0  0  0  0  0  0  0
   55.2468   24.5628   44.9041 H   0  0  0  0  0  0  0  0  0  0  0  0
   55.3927   23.7304   42.5563 H   0  0  0  0  0  0  0  0  0  0  0  0
   57.0790   21.9933   41.9461 H   0  0  0  0  0  0  0  0  0  0  0  0
   58.6275   21.0903   43.6860 H   0  0  0  0  0  0  0  0  0  0  0  0
   58.4910   21.9230   46.0337 H   0  0  0  0  0  0  0  0  0  0  0  0
   60.2816   27.3453   45.6339 H   0  0  0  0  0  0  0  0  0  0  0  0
   60.4146   28.9111   44.7111 H   0  0  0  0  0  0  0  0  0  0  0  0
   61.3029   30.8000   45.7288 H   0  0  0  0  0  0  0  0  0  0  0  0
   62.0790   31.9914   47.7758 H   0  0  0  0  0  0  0  0  0  0  0  0
   60.5512   28.7779   50.2336 H   0  0  0  0  0  0  0  0  0  0  0  0
   59.7557   27.5880   48.1907 H   0  0  0  0  0  0  0  0  0  0  0  0
   59.0827   31.2355   45.6690 H   0  0  0  0  0  0  0  0  0  0  0  0
   59.1325   30.8334   43.8889 H   0  0  0  0  0  0  0  0  0  0  0  0
   57.3851   32.1768   43.3792 H   0  0  0  0  0  0  0  0  0  0  0  0
   56.5946   31.9196   45.0034 H   0  0  0  0  0  0  0  0  0  0  0  0
   60.1250   35.2636   46.4900 H   0  0  0  0  0  0  0  0  0  0  0  0
   60.9150   35.1211   48.8537 H   0  0  0  0  0  0  0  0  0  0  0  0
   59.9490   33.4103   50.3959 H   0  0  0  0  0  0  0  0  0  0  0  0
   58.2081   31.8236   49.5667 H   0  0  0  0  0  0  0  0  0  0  0  0
   57.4035   31.9712   47.2078 H   0  0  0  0  0  0  0  0  0  0  0  0
  1  2  2  0
  2  3  1  0
  3  4  1  0
  4  5  2  0
  4  6  2  0
  4  7  1  0
  7  8  2  0
  8  9  1  0
  9 10  2  0
 10 11  1  0
 11 12  2  0
  2 13  1  0
 13 14  2  0
 14 15  1  0
 15 16  1  0
 16 17  2  0
 17 18  1  0
 18 19  2  0
 19 20  1  0
 19 21  1  0
 21 22  2  0
 14 23  1  0
 23 24  1  0
 24 25  1  0
 25 26  1  0
 26 27  2  0
 26 28  2  0
 26 29  1  0
 29 30  2  0
 30 31  1  0
 31 32  2  0
 32 33  1  0
 33 34  2  0
 23 35  2  0
 35 36  1  0
 36 37  1  0
 37 38  2  0
 12  7  1  0
 37 13  1  0
 22 16  1  0
 34 29  1  0
  8 39  1  0
  9 40  1  0
 10 41  1  0
 11 42  1  0
 12 43  1  0
 15 44  1  0
 15 45  1  0
 17 46  1  0
 18 47  1  0
 21 48  1  0
 22 49  1  0
 24 50  1  0
 24 51  1  0
 25 52  1  0
 25 53  1  0
 30 54  1  0
 31 55  1  0
 32 56  1  0
 33 57  1  0
 34 58  1  0
M  CHG  3   3  -1  20  -1  36  -1
M  END
>  <UniqueID>  (43) 
41

>  <SMILES>  (43) 
O=C([N-]S(=O)(=O)c1ccccc1)c1c(Cc2ccc([O-])cc2)c(CCS(=O)(=O)c2ccccc2)n[n-]c1=O

>  <Energy>  (43) 
66.1863988633708

>  <Genealogy>  (43) 
O=C([N-]S(=O)(=O)c1ccccc1)c1c(Cc2ccc([O-])cc2)c(CCS(=O)(=O)c2ccccc2)n[n-]c1=O (protonated)
O=C([N-]S(=O)(=O)c1ccccc1)c1c(Cc2ccc([O-])cc2)c(CCS(=O)(=O)c2ccccc2)n[n-]c1=O (3D coordinates assigned)
O=C([N-]S(=O)(=O)c1ccccc1)c1c(Cc2ccc([O-])cc2)c(CCS(=O)(=O)c2ccccc2)n[n-]c1=O (optimized conformer: 66.1863988633708 kcal/mol)

>  <smiles>  (43) 
O=C(NS(=O)(=O)c1ccccc1)c1c(Cc2ccc(O)cc2)c(CCS(=O)(=O)c2ccccc2)n[nH]c1=O

>  <score_type>  (43) 
oracle

>  <origin>  (43) 
adg

>  <m_score__min__energy>  (43) 
-16.41

>  <m_primary>  (43) 
energy

$$$$
43:0
     RDKit          3D

 53 56  0  0  0  0  0  0  0  0999 V2000
   56.0460   30.6890   44.7850 O   0  0  0  0  0  0  0  0  0  0  0  0
   57.2590   30.3620   44.8810 C   0  0  0  0  0  0  0  0  0  0  0  0
   58.2580   31.3120   44.4880 N   0  0  0  0  0  0  0  0  0  0  0  0
   58.6840   32.4590   45.2400 C   0  0  0  0  0  0  0  0  0  0  0  0
   58.4700   33.7690   44.7750 C   0  0  0  0  0  0  0  0  0  0  0  0
   58.8910   34.8610   45.5360 C   0  0  0  0  0  0  0  0  0  0  0  0
   59.5120   34.6590   46.7710 C   0  0  0  0  0  0  0  0  0  0  0  0
   59.7060   33.3590   47.2560 C   0  0  0  0  0  0  0  0  0  0  0  0
   60.4510   33.0900   48.8300 S   0  0  0  0  0  0  0  0  0  0  0  0
   59.4730   32.4020   49.7420 O   0  0  0  0  0  0  0  0  0  0  0  0
   60.8020   34.4260   49.4260 O   0  0  0  0  0  0  0  0  0  0  0  0
   61.8950   32.1210   48.6240 N   0  0  0  0  0  0  0  0  0  0  0  0
   62.9470   32.4830   49.5990 C   0  0  0  0  0  0  0  0  0  0  0  0
   64.0130   33.4230   49.0040 C   0  0  0  0  0  0  0  0  0  0  0  0
   63.4370   34.2620   48.0290 O   0  0  0  0  0  0  0  0  0  0  0  0
   63.0670   33.5040   46.8900 C   0  0  0  0  0  0  0  0  0  0  0  0
   62.3840   32.1590   47.2360 C   0  0  0  0  0  0  0  0  0  0  0  0
   59.2800   32.2640   46.4920 C   0  0  0  0  0  0  0  0  0  0  0  0
   57.6120   29.0350   45.4410 C   0  0  0  0  0  0  0  0  0  0  0  0
   58.3240   28.9330   46.6460 C   0  0  0  0  0  0  0  0  0  0  0  0
   58.6720   27.6810   47.1540 C   0  0  0  0  0  0  0  0  0  0  0  0
   58.3020   26.5180   46.4750 C   0  0  0  0  0  0  0  0  0  0  0  0
   57.5600   26.5940   45.2810 C   0  0  0  0  0  0  0  0  0  0  0  0
   57.1670   25.3640   44.5430 C   0  0  0  0  0  0  0  0  0  0  0  0
   57.7480   25.0770   43.4610 O   0  0  0  0  0  0  0  0  0  0  0  0
   56.0870   24.4750   45.0220 C   0  0  0  0  0  0  0  0  0  0  0  0
   56.1920   23.0900   44.8200 C   0  0  0  0  0  0  0  0  0  0  0  0
   55.2070   22.2310   45.3040 C   0  0  0  0  0  0  0  0  0  0  0  0
   54.1210   22.7620   46.0010 C   0  0  0  0  0  0  0  0  0  0  0  0
   53.2260   22.0010   46.4520 O   0  0  0  0  0  0  0  0  0  0  0  0
   54.0280   24.1030   46.1940 N   0  0  0  0  0  0  0  0  0  0  0  0
   54.9650   24.9700   45.7260 C   0  0  0  0  0  0  0  0  0  0  0  0
   54.7700   26.3360   45.9390 O   0  0  0  0  0  0  0  0  0  0  0  0
   57.2210   27.8620   44.7730 C   0  0  0  0  0  0  0  0  0  0  0  0
   57.9697   33.9335   43.8093 H   0  0  0  0  0  0  0  0  0  0  0  0
   58.7333   35.8834   45.1621 H   0  0  0  0  0  0  0  0  0  0  0  0
   59.8492   35.5221   47.3637 H   0  0  0  0  0  0  0  0  0  0  0  0
   62.4744   32.9851   50.4561 H   0  0  0  0  0  0  0  0  0  0  0  0
   63.4543   31.5544   49.8997 H   0  0  0  0  0  0  0  0  0  0  0  0
   64.4408   34.0409   49.8073 H   0  0  0  0  0  0  0  0  0  0  0  0
   64.8014   32.8171   48.5336 H   0  0  0  0  0  0  0  0  0  0  0  0
   62.3698   34.1026   46.2854 H   0  0  0  0  0  0  0  0  0  0  0  0
   63.9932   33.2651   46.3467 H   0  0  0  0  0  0  0  0  0  0  0  0
   61.5318   32.0100   46.5566 H   0  0  0  0  0  0  0  0  0  0  0  0
   63.1334   31.3620   47.1215 H   0  0  0  0  0  0  0  0  0  0  0  0
   59.4149   31.2432   46.8790 H   0  0  0  0  0  0  0  0  0  0  0  0
   58.6090   29.8441   47.1924 H   0  0  0  0  0  0  0  0  0  0  0  0
   59.2401   27.6096   48.0932 H   0  0  0  0  0  0  0  0  0  0  0  0
   58.5924   25.5357   46.8760 H   0  0  0  0  0  0  0  0  0  0  0  0
   57.0564   22.6804   44.2768 H   0  0  0  0  0  0  0  0  0  0  0  0
   55.2848   21.1463   45.1384 H   0  0  0  0  0  0  0  0  0  0  0  0
   54.3830   26.7100   46.7950 H   0  0  0  0  0  0  0  0  0  0  0  0
   56.6422   27.9359   43.8405 H   0  0  0  0  0  0  0  0  0  0  0  0
  1  2  2  0
  2  3  1  0
  3  4  1  0
  4  5  2  0
  5  6  1  0
  6  7  2  0
  7  8  1  0
  8  9  1  0
  9 10  2  0
  9 11  2  0
  9 12  1  0
 12 13  1  0
 13 14  1  0
 14 15  1  0
 15 16  1  0
 16 17  1  0
  8 18  2  0
  2 19  1  0
 19 20  2  0
 20 21  1  0
 21 22  2  0
 22 23  1  0
 23 24  1  0
 24 25  2  0
 24 26  1  0
 26 27  1  0
 27 28  2  0
 28 29  1  0
 29 30  2  0
 29 31  1  0
 31 32  1  0
 32 33  1  0
 23 34  2  0
 18  4  1  0
 34 19  1  0
 17 12  1  0
 32 26  2  0
  5 35  1  0
  6 36  1  0
  7 37  1  0
 13 38  1  0
 13 39  1  0
 14 40  1  0
 14 41  1  0
 16 42  1  0
 16 43  1  0
 17 44  1  0
 17 45  1  0
 18 46  1  0
 20 47  1  0
 21 48  1  0
 22 49  1  0
 27 50  1  0
 28 51  1  0
 33 52  1  0
 34 53  1  0
M  CHG  2   3  -1  31  -1
M  END
>  <UniqueID>  (44) 
42

>  <SMILES>  (44) 
O=C([N-]c1cccc(S(=O)(=O)N2CCOCC2)c1)c1cccc(C(=O)c2ccc(=O)[n-]c2O)c1

>  <Energy>  (44) 
84.12252819647063

>  <Genealogy>  (44) 
O=C([N-]c1cccc(S(=O)(=O)N2CCOCC2)c1)c1cccc(C(=O)c2ccc(=O)[n-]c2O)c1 (protonated)
O=C([N-]c1cccc(S(=O)(=O)N2CCOCC2)c1)c1cccc(C(=O)c2ccc(=O)[n-]c2O)c1 (3D coordinates assigned)
O=C([N-]c1cccc(S(=O)(=O)N2CCOCC2)c1)c1cccc(C(=O)c2ccc(=O)[n-]c2O)c1 (nonaromatic ring conformer: 84.12252819647063 kcal/mol)

>  <smiles>  (44) 
O=C(Nc1cccc(S(=O)(=O)N2CCOCC2)c1)c1cccc(C(=O)c2ccc(=O)[nH]c2O)c1

>  <score_type>  (44) 
oracle

>  <origin>  (44) 
adg

>  <m_score__min__energy>  (44) 
-14.82

>  <m_primary>  (44) 
energy

$$$$
44:0
     RDKit          3D

 62 65  0  0  0  0  0  0  0  0999 V2000
   54.5363   29.0028   43.9224 H   0  0  0  0  0  0  0  0  0  0  0  0
   55.5220   29.4010   44.2050 C   0  0  0  0  0  0  0  0  0  0  0  0
   56.1990   28.8570   45.2470 N   0  0  0  0  0  0  0  0  0  0  0  0
   57.4350   29.3010   45.6160 C   0  0  0  0  0  0  0  0  0  0  0  0
   58.0420   28.7960   46.6460 N   0  0  0  0  0  0  0  0  0  0  0  0
   59.0080   27.3560   46.5720 S   0  0  0  0  0  0  0  0  0  0  0  0
   60.3590   27.6990   46.0090 O   0  0  0  0  0  0  0  0  0  0  0  0
   59.1760   26.8030   47.9590 O   0  0  0  0  0  0  0  0  0  0  0  0
   58.2070   26.1510   45.5650 C   0  0  0  0  0  0  0  0  0  0  0  0
   58.0800   26.3560   44.1850 C   0  0  0  0  0  0  0  0  0  0  0  0
   58.4833   27.2709   43.7264 H   0  0  0  0  0  0  0  0  0  0  0  0
   57.4410   25.3990   43.3890 C   0  0  0  0  0  0  0  0  0  0  0  0
   57.3491   25.5620   42.3050 H   0  0  0  0  0  0  0  0  0  0  0  0
   56.9170   24.2330   43.9660 C   0  0  0  0  0  0  0  0  0  0  0  0
   56.2670   23.1950   43.0990 C   0  0  0  0  0  0  0  0  0  0  0  0
   55.7901   22.4335   43.7336 H   0  0  0  0  0  0  0  0  0  0  0  0
   55.5060   23.6720   42.4639 H   0  0  0  0  0  0  0  0  0  0  0  0
   57.0284   22.7186   42.4639 H   0  0  0  0  0  0  0  0  0  0  0  0
   57.0530   24.0250   45.3470 C   0  0  0  0  0  0  0  0  0  0  0  0
   56.6536   23.1084   45.8056 H   0  0  0  0  0  0  0  0  0  0  0  0
   57.6950   24.9800   46.1420 C   0  0  0  0  0  0  0  0  0  0  0  0
   57.7987   24.8118   47.2241 H   0  0  0  0  0  0  0  0  0  0  0  0
   58.0380   30.3440   44.9010 C   0  0  0  0  0  0  0  0  0  0  0  0
   59.0526   30.6800   45.1611 H   0  0  0  0  0  0  0  0  0  0  0  0
   57.3390   30.9560   43.8520 C   0  0  0  0  0  0  0  0  0  0  0  0
   57.8900   32.1560   43.1870 C   0  0  0  0  0  0  0  0  0  0  0  0
   58.4740   32.0440   42.0770 O   0  0  0  0  0  0  0  0  0  0  0  0
   57.7560   33.4570   43.7800 N   0  0  0  0  0  0  0  0  0  0  0  0
   58.2430   33.7800   45.0890 C   0  0  0  0  0  0  0  0  0  0  0  0
   57.5900   33.2700   46.2150 C   0  0  0  0  0  0  0  0  0  0  0  0
   56.6388   32.7297   46.0997 H   0  0  0  0  0  0  0  0  0  0  0  0
   58.1430   33.4450   47.4880 C   0  0  0  0  0  0  0  0  0  0  0  0
   57.6252   33.0394   48.3697 H   0  0  0  0  0  0  0  0  0  0  0  0
   59.3580   34.1370   47.6470 C   0  0  0  0  0  0  0  0  0  0  0  0
   60.0290   34.2220   49.0050 C   0  0  0  0  0  0  0  0  0  0  0  0
   60.7850   35.0201   48.9659 H   0  0  0  0  0  0  0  0  0  0  0  0
   59.2324   34.4214   49.7369 H   0  0  0  0  0  0  0  0  0  0  0  0
   60.7000   32.9660   49.4390 N   0  0  0  0  0  0  0  0  0  0  0  0
   61.4000   33.2680   50.1590 H   0  0  0  0  0  0  0  0  0  0  0  0
   59.7900   32.0130   50.1360 C   0  0  0  0  0  0  0  0  0  0  0  0
   60.3064   31.6158   51.0223 H   0  0  0  0  0  0  0  0  0  0  0  0
   58.8780   32.5622   50.4127 H   0  0  0  0  0  0  0  0  0  0  0  0
   59.3730   30.8340   49.2370 C   0  0  0  0  0  0  0  0  0  0  0  0
   58.7347   30.1536   49.8198 H   0  0  0  0  0  0  0  0  0  0  0  0
   58.8358   31.2463   48.3702 H   0  0  0  0  0  0  0  0  0  0  0  0
   60.5410   30.0720   48.7260 N   0  0  0  0  0  0  0  0  0  0  0  0
   60.7520   28.8320   49.4890 C   0  0  0  0  0  0  0  0  0  0  0  0
   60.7144   29.0532   50.5659 H   0  0  0  0  0  0  0  0  0  0  0  0
   59.9643   28.1072   49.2358 H   0  0  0  0  0  0  0  0  0  0  0  0
   61.7351   28.4085   49.2358 H   0  0  0  0  0  0  0  0  0  0  0  0
   61.7900   30.8640   48.6680 C   0  0  0  0  0  0  0  0  0  0  0  0
   62.3012   30.8016   49.6400 H   0  0  0  0  0  0  0  0  0  0  0  0
   62.4280   30.4551   47.8706 H   0  0  0  0  0  0  0  0  0  0  0  0
   61.4930   32.3340   48.3510 C   0  0  0  0  0  0  0  0  0  0  0  0
   62.4433   32.8762   48.2374 H   0  0  0  0  0  0  0  0  0  0  0  0
   60.9084   32.3798   47.4203 H   0  0  0  0  0  0  0  0  0  0  0  0
   59.9410   34.7510   46.5270 C   0  0  0  0  0  0  0  0  0  0  0  0
   60.8332   35.3822   46.6517 H   0  0  0  0  0  0  0  0  0  0  0  0
   59.3950   34.5650   45.2570 C   0  0  0  0  0  0  0  0  0  0  0  0
   59.8691   35.0355   44.3830 H   0  0  0  0  0  0  0  0  0  0  0  0
   56.0740   30.4640   43.4920 C   0  0  0  0  0  0  0  0  0  0  0  0
   55.5226   30.9142   42.6534 H   0  0  0  0  0  0  0  0  0  0  0  0
  1  2  1  0
  2  3  1  0
  3  4  1  0
  4  5  2  0
  5  6  1  0
  6  7  2  0
  6  8  2  0
  6  9  1  0
  9 10  2  0
 10 11  1  0
 10 12  1  0
 12 13  1  0
 12 14  2  0
 14 15  1  0
 15 16  1  0
 15 17  1  0
 15 18  1  0
 14 19  1  0
 19 20  1  0
 19 21  2  0
 21 22  1  0
  4 23  1  0
 23 24  1  0
 23 25  2  0
 25 26  1  0
 26 27  2  0
 26 28  1  0
 28 29  1  0
 29 30  2  0
 30 31  1  0
 30 32  1  0
 32 33  1  0
 32 34  2  0
 34 35  1  0
 35 36  1  0
 35 37  1  0
 35 38  1  0
 38 39  1  0
 38 40  1  0
 40 41  1  0
 40 42  1  0
 40 43  1  0
 43 44  1  0
 43 45  1  0
 43 46  1  0
 46 47  1  0
 47 48  1  0
 47 49  1  0
 47 50  1  0
 46 51  1  0
 51 52  1  0
 51 53  1  0
 51 54  1  0
 54 55  1  0
 54 56  1  0
 34 57  1  0
 57 58  1  0
 57 59  2  0
 59 60  1  0
 25 61  1  0
 61 62  1  0
 61  2  2  0
 21  9  1  0
 59 29  1  0
 54 38  1  0
M  CHG  3   3  -1  28  -1  38   1
M  END
>  <UniqueID>  (45) 
43

>  <SMILES>  (45) 
Cc1ccc(S(=O)(=O)/N=c2/cc(C(=O)[N-]c3ccc(C[NH+]4CCN(C)CC4)cc3)cc[n-]2)cc1

>  <Energy>  (45) 
86.86453059194515

>  <Genealogy>  (45) 
Cc1ccc(S(=O)(=O)N=c2cc(C(=O)[N-]c3ccc(C[NH+]4CCN(C)CC4)cc3)cc[n-]2)cc1 (protonated)
Cc1ccc(S(=O)(=O)/N=c2/cc(C(=O)[N-]c3ccc(C[NH+]4CCN(C)CC4)cc3)cc[n-]2)cc1 (cis-trans isomerization)
Cc1ccc(S(=O)(=O)/N=c2/cc(C(=O)[N-]c3ccc(C[NH+]4CCN(C)CC4)cc3)cc[n-]2)cc1 (3D coordinates assigned)
Cc1ccc(S(=O)(=O)/N=c2/cc(C(=O)[N-]c3ccc(C[NH+]4CCN(C)CC4)cc3)cc[n-]2)cc1 (nonaromatic ring conformer: 86.86453059194515 kcal/mol)

>  <smiles>  (45) 
Cc1ccc(S(=O)(=O)N=c2cc(C(=O)Nc3ccc(CN4CCN(C)CC4)cc3)cc[nH]2)cc1

>  <score_type>  (45) 
oracle

>  <origin>  (45) 
adg

>  <m_score__min__energy>  (45) 
-11.5

>  <m_primary>  (45) 
energy

$$$$
45:0
     RDKit          3D

 27 29  0  0  0  0  0  0  0  0999 V2000
   59.6810   32.2250   50.3600 H   0  0  0  0  0  0  0  0  0  0  0  0
   59.2800   33.0980   50.0410 O   0  0  0  0  0  0  0  0  0  0  0  0
   59.2570   33.4340   48.6890 C   0  0  0  0  0  0  0  0  0  0  0  0
   60.2140   34.3360   48.1800 C   0  0  0  0  0  0  0  0  0  0  0  0
   60.9683   34.7700   48.8528 H   0  0  0  0  0  0  0  0  0  0  0  0
   60.2100   34.6840   46.8180 C   0  0  0  0  0  0  0  0  0  0  0  0
   60.9566   35.3825   46.4122 H   0  0  0  0  0  0  0  0  0  0  0  0
   59.2350   34.1210   45.9940 C   0  0  0  0  0  0  0  0  0  0  0  0
   58.3090   33.2470   46.4860 C   0  0  0  0  0  0  0  0  0  0  0  0
   58.2880   32.8780   47.8300 C   0  0  0  0  0  0  0  0  0  0  0  0
   57.5352   32.1717   48.2100 H   0  0  0  0  0  0  0  0  0  0  0  0
   57.4620   32.7990   45.4970 O   0  0  0  0  0  0  0  0  0  0  0  0
   57.7990   33.4040   44.2460 C   0  0  2  0  0  0  0  0  0  0  0  0
   56.9696   34.0055   43.8456 H   0  0  0  0  0  0  0  0  0  0  0  0
   58.0690   32.3640   43.1880 C   0  0  0  0  0  0  0  0  0  0  0  0
   57.9000   32.6620   41.9760 O   0  0  0  0  0  0  0  0  0  0  0  0
   58.3840   31.0080   43.5340 N   0  0  0  0  0  0  0  0  0  0  0  0
   57.5660   30.1760   44.1030 C   0  0  0  0  0  0  0  0  0  0  0  0
   55.9090   30.3080   44.1030 S   0  0  0  0  0  0  0  0  0  0  0  0
   55.5210   28.9340   44.9570 N   0  0  0  0  0  0  0  0  0  0  0  0
   56.7110   28.3430   45.2500 C   0  0  0  0  0  0  0  0  0  0  0  0
   56.7678   27.4029   45.8183 H   0  0  0  0  0  0  0  0  0  0  0  0
   57.8670   29.0020   44.7850 C   0  0  0  0  0  0  0  0  0  0  0  0
   58.8901   28.6302   44.9434 H   0  0  0  0  0  0  0  0  0  0  0  0
   59.0380   34.3010   44.5320 C   0  0  0  0  0  0  0  0  0  0  0  0
   59.9169   33.9567   43.9671 H   0  0  0  0  0  0  0  0  0  0  0  0
   58.8974   35.3506   44.2345 H   0  0  0  0  0  0  0  0  0  0  0  0
  1  2  1  0
  2  3  1  0
  3  4  2  0
  4  5  1  0
  4  6  1  0
  6  7  1  0
  6  8  2  0
  8  9  1  0
  9 10  2  0
 10 11  1  0
  9 12  1  0
 12 13  1  0
 13 14  1  6
 13 15  1  0
 15 16  2  0
 15 17  1  0
 17 18  2  0
 18 19  1  0
 19 20  1  0
 20 21  1  0
 21 22  1  0
 21 23  2  0
 23 24  1  0
 13 25  1  0
 25 26  1  0
 25 27  1  0
 10  3  1  0
 23 18  1  0
 25  8  1  0
M  CHG  1  20  -1
M  END
>  <UniqueID>  (46) 
44

>  <SMILES>  (46) 
O=C(/N=c1\cc[n-]s1)[C@@H]1Cc2ccc(O)cc2O1

>  <Energy>  (46) 
85.88520762420193

>  <Genealogy>  (46) 
O=C(N=c1cc[n-]s1)C1Cc2ccc(O)cc2O1 (protonated)
O=C(N=c1cc[n-]s1)[C@@H]1Cc2ccc(O)cc2O1 (chirality)
O=C(/N=c1\cc[n-]s1)[C@@H]1Cc2ccc(O)cc2O1 (cis-trans isomerization)
O=C(/N=c1\cc[n-]s1)[C@@H]1Cc2ccc(O)cc2O1 (3D coordinates assigned)
O=C(/N=c1\cc[n-]s1)[C@@H]1Cc2ccc(O)cc2O1 (nonaromatic ring conformer: 85.88520762420193 kcal/mol)

>  <smiles>  (46) 
O=C(N=c1cc[nH]s1)C1Cc2ccc(O)cc2O1

>  <score_type>  (46) 
oracle

>  <origin>  (46) 
adg

>  <m_score__min__energy>  (46) 
-8.4299999999999997

>  <m_primary>  (46) 
energy

$$$$
46:0
     RDKit          3D

 38 40  0  0  0  0  0  0  0  0999 V2000
   65.0440   32.7260   46.6680 H   0  0  0  0  0  0  0  0  0  0  0  0
   64.1120   33.0420   46.4270 O   0  0  0  0  0  0  0  0  0  0  0  0
   63.1160   33.1720   47.3940 C   0  0  0  0  0  0  0  0  0  0  0  0
   63.3120   32.6230   48.6640 C   0  0  0  0  0  0  0  0  0  0  0  0
   64.2453   32.0875   48.8925 H   0  0  0  0  0  0  0  0  0  0  0  0
   62.3240   32.7530   49.6450 C   0  0  0  0  0  0  0  0  0  0  0  0
   62.4839   32.3237   50.6450 H   0  0  0  0  0  0  0  0  0  0  0  0
   61.1340   33.4270   49.3580 C   0  0  0  0  0  0  0  0  0  0  0  0
   60.3623   33.5321   50.1348 H   0  0  0  0  0  0  0  0  0  0  0  0
   60.9200   33.9710   48.0800 C   0  0  0  0  0  0  0  0  0  0  0  0
   59.6590   34.7330   47.7820 C   0  0  0  0  0  0  0  0  0  0  0  0
   59.9181   35.7432   47.4321 H   0  0  0  0  0  0  0  0  0  0  0  0
   59.0526   34.7988   48.6974 H   0  0  0  0  0  0  0  0  0  0  0  0
   58.8730   34.0290   46.7230 C   0  0  0  0  0  0  0  0  0  0  0  0
   58.1740   32.5060   46.8800 S   0  0  0  0  0  0  0  0  0  0  0  0
   57.4540   32.5800   45.3520 C   0  0  0  0  0  0  0  0  0  0  0  0
   56.7190   31.6610   44.7960 N   0  0  0  0  0  0  0  0  0  0  0  0
   57.1470   30.6070   43.9200 C   0  0  0  0  0  0  0  0  0  0  0  0
   56.4920   30.3020   42.8860 O   0  0  0  0  0  0  0  0  0  0  0  0
   58.3710   29.8210   44.2680 C   0  0  0  0  0  0  0  0  0  0  0  0
   58.8666   29.4902   43.3433 H   0  0  0  0  0  0  0  0  0  0  0  0
   59.0543   30.4561   44.8509 H   0  0  0  0  0  0  0  0  0  0  0  0
   57.9940   28.6180   45.0890 C   0  0  0  0  0  0  0  0  0  0  0  0
   58.9880   27.8420   45.7060 C   0  0  0  0  0  0  0  0  0  0  0  0
   60.0456   28.1293   45.6110 H   0  0  0  0  0  0  0  0  0  0  0  0
   58.6380   26.7050   46.4410 C   0  0  0  0  0  0  0  0  0  0  0  0
   59.4200   26.1046   46.9289 H   0  0  0  0  0  0  0  0  0  0  0  0
   57.2970   26.3300   46.5570 C   0  0  0  0  0  0  0  0  0  0  0  0
   57.0237   25.4374   47.1389 H   0  0  0  0  0  0  0  0  0  0  0  0
   56.3020   27.0900   45.9330 C   0  0  0  0  0  0  0  0  0  0  0  0
   54.9690   26.7120   46.0420 O   0  0  0  0  0  0  0  0  0  0  0  0
   56.6480   28.2280   45.1970 C   0  0  0  0  0  0  0  0  0  0  0  0
   55.8643   28.8196   44.7012 H   0  0  0  0  0  0  0  0  0  0  0  0
   57.7240   33.7480   44.7300 N   0  0  0  0  0  0  0  0  0  0  0  0
   58.5060   34.5600   45.4910 C   0  0  0  0  0  0  0  0  0  0  0  0
   58.8235   35.5591   45.1579 H   0  0  0  0  0  0  0  0  0  0  0  0
   61.9230   33.8500   47.1030 C   0  0  0  0  0  0  0  0  0  0  0  0
   61.7718   34.2889   46.1057 H   0  0  0  0  0  0  0  0  0  0  0  0
  1  2  1  0
  2  3  1  0
  3  4  2  0
  4  5  1  0
  4  6  1  0
  6  7  1  0
  6  8  2  0
  8  9  1  0
  8 10  1  0
 10 11  1  0
 11 12  1  0
 11 13  1  0
 11 14  1  0
 14 15  1  0
 15 16  1  0
 16 17  2  0
 17 18  1  0
 18 19  2  0
 18 20  1  0
 20 21  1  0
 20 22  1  0
 20 23  1  0
 23 24  2  0
 24 25  1  0
 24 26  1  0
 26 27  1  0
 26 28  2  0
 28 29  1  0
 28 30  1  0
 30 31  1  0
 30 32  2  0
 32 33  1  0
 16 34  1  0
 34 35  1  0
 35 36  1  0
 10 37  2  0
 37 38  1  0
 37  3  1  0
 35 14  2  0
 32 23  1  0
M  CHG  2  31  -1  34  -1
M  END
>  <UniqueID>  (47) 
45

>  <SMILES>  (47) 
O=C(Cc1cccc([O-])c1)/N=c1/[n-]cc(Cc2cccc(O)c2)s1

>  <Energy>  (47) 
69.72274380954434

>  <Genealogy>  (47) 
O=C(Cc1cccc([O-])c1)N=c1[n-]cc(Cc2cccc(O)c2)s1 (protonated)
O=C(Cc1cccc([O-])c1)/N=c1/[n-]cc(Cc2cccc(O)c2)s1 (cis-trans isomerization)
O=C(Cc1cccc([O-])c1)/N=c1/[n-]cc(Cc2cccc(O)c2)s1 (3D coordinates assigned)
O=C(Cc1cccc([O-])c1)/N=c1/[n-]cc(Cc2cccc(O)c2)s1 (optimized conformer: 69.72274380954434 kcal/mol)

>  <smiles>  (47) 
O=C(Cc1cccc(O)c1)N=c1[nH]cc(Cc2cccc(O)c2)s1

>  <score_type>  (47) 
oracle

>  <origin>  (47) 
adg

>  <m_score__min__energy>  (47) 
-13.65

>  <m_primary>  (47) 
energy

$$$$
47:0
     RDKit          3D

 63 66  0  0  0  0  0  0  0  0999 V2000
   58.3190   27.9660   44.2160 C   0  0  0  0  0  0  0  0  0  0  0  0
   57.9260   29.3520   43.9960 N   0  0  0  0  0  0  0  0  0  0  0  0
   56.7640   29.9130   44.6220 C   0  0  0  0  0  0  0  0  0  0  0  0
   55.9330   29.1590   45.1930 O   0  0  0  0  0  0  0  0  0  0  0  0
   56.4810   31.3180   44.5430 N   0  0  0  0  0  0  0  0  0  0  0  0
   57.1720   32.2750   45.0890 C   0  0  0  0  0  0  0  0  0  0  0  0
   56.5830   33.2970   45.7460 N   0  0  0  0  0  0  0  0  0  0  0  0
   57.4970   34.1560   46.2720 C   0  0  0  0  0  0  0  0  0  0  0  0
   58.8250   33.8010   46.0490 C   0  0  0  0  0  0  0  0  0  0  0  0
   60.0330   34.5790   46.4770 C   0  0  0  0  0  0  0  0  0  0  0  0
   60.5930   34.0440   47.7770 C   0  0  0  0  0  0  0  0  0  0  0  0
   59.7500   33.9960   48.9010 C   0  0  0  0  0  0  0  0  0  0  0  0
   60.2080   33.4950   50.1300 C   0  0  0  0  0  0  0  0  0  0  0  0
   59.3090   33.4790   51.3100 C   0  0  0  0  0  0  0  0  0  0  0  0
   59.0490   34.5630   51.9010 O   0  0  0  0  0  0  0  0  0  0  0  0
   58.7390   32.2530   51.8070 N   0  0  0  0  0  0  0  0  0  0  0  0
   58.1630   31.2520   50.9030 C   0  0  0  0  0  0  0  0  0  0  0  0
   56.7080   30.9850   51.2930 C   0  0  0  0  0  0  0  0  0  0  0  0
   56.6030   30.7420   52.7390 N   0  0  0  0  0  0  0  0  0  0  0  0
   55.7190   29.7140   53.2310 C   0  0  0  0  0  0  0  0  0  0  0  0
   55.5820   28.6470   52.5710 O   0  0  0  0  0  0  0  0  0  0  0  0
   55.0030   29.8620   54.5530 C   0  0  0  0  0  0  0  0  0  0  0  0
   53.6050   30.3970   54.3760 C   0  0  0  0  0  0  0  0  0  0  0  0
   52.8570   30.8130   55.4900 C   0  0  0  0  0  0  0  0  0  0  0  0
   51.5510   31.2840   55.3250 C   0  0  0  0  0  0  0  0  0  0  0  0
   50.9800   31.3340   54.0510 C   0  0  0  0  0  0  0  0  0  0  0  0
   51.7130   30.9100   52.9400 C   0  0  0  0  0  0  0  0  0  0  0  0
   53.0210   30.4400   53.0990 C   0  0  0  0  0  0  0  0  0  0  0  0
   57.2050   31.7320   53.6470 C   0  0  0  0  0  0  0  0  0  0  0  0
   58.6580   31.9990   53.2480 C   0  0  0  0  0  0  0  0  0  0  0  0
   61.5360   33.0550   50.2320 C   0  0  0  0  0  0  0  0  0  0  0  0
   62.3780   33.0820   49.1220 C   0  0  0  0  0  0  0  0  0  0  0  0
   61.9200   33.5610   47.8840 C   0  0  0  0  0  0  0  0  0  0  0  0
   62.8670   33.5780   46.7120 C   0  0  0  0  0  0  0  0  0  0  0  0
   58.8570   32.3780   45.1500 S   0  0  0  0  0  0  0  0  0  0  0  0
   58.3752   27.7679   45.2966 H   0  0  0  0  0  0  0  0  0  0  0  0
   57.5752   27.2970   43.7587 H   0  0  0  0  0  0  0  0  0  0  0  0
   59.3033   27.7870   43.7587 H   0  0  0  0  0  0  0  0  0  0  0  0
   58.4820   29.9280   43.3260 H   0  0  0  0  0  0  0  0  0  0  0  0
   57.2099   35.0597   46.8295 H   0  0  0  0  0  0  0  0  0  0  0  0
   60.8039   34.5041   45.6959 H   0  0  0  0  0  0  0  0  0  0  0  0
   59.7374   35.6276   46.6291 H   0  0  0  0  0  0  0  0  0  0  0  0
   58.7144   34.3569   48.8162 H   0  0  0  0  0  0  0  0  0  0  0  0
   58.2021   31.6265   49.8695 H   0  0  0  0  0  0  0  0  0  0  0  0
   58.7387   30.3177   50.9782 H   0  0  0  0  0  0  0  0  0  0  0  0
   56.0949   31.8585   51.0265 H   0  0  0  0  0  0  0  0  0  0  0  0
   56.3510   30.0950   50.7541 H   0  0  0  0  0  0  0  0  0  0  0  0
   54.9483   28.8774   55.0404 H   0  0  0  0  0  0  0  0  0  0  0  0
   55.5673   30.5775   55.1691 H   0  0  0  0  0  0  0  0  0  0  0  0
   53.3004   30.7680   56.4957 H   0  0  0  0  0  0  0  0  0  0  0  0
   50.9722   31.6157   56.1996 H   0  0  0  0  0  0  0  0  0  0  0  0
   49.9532   31.7072   53.9227 H   0  0  0  0  0  0  0  0  0  0  0  0
   51.2607   30.9458   51.9379 H   0  0  0  0  0  0  0  0  0  0  0  0
   53.5935   30.1033   52.2221 H   0  0  0  0  0  0  0  0  0  0  0  0
   56.6343   32.6707   53.5911 H   0  0  0  0  0  0  0  0  0  0  0  0
   57.1809   31.3389   54.6741 H   0  0  0  0  0  0  0  0  0  0  0  0
   59.0313   32.8773   53.7951 H   0  0  0  0  0  0  0  0  0  0  0  0
   59.2701   31.1195   53.4965 H   0  0  0  0  0  0  0  0  0  0  0  0
   61.9158   32.6857   51.1960 H   0  0  0  0  0  0  0  0  0  0  0  0
   63.4137   32.7238   49.2167 H   0  0  0  0  0  0  0  0  0  0  0  0
   63.9039   33.5966   47.0787 H   0  0  0  0  0  0  0  0  0  0  0  0
   62.7103   32.6769   46.1009 H   0  0  0  0  0  0  0  0  0  0  0  0
   62.6781   34.4729   46.1009 H   0  0  0  0  0  0  0  0  0  0  0  0
  1  2  1  0
  2  3  1  0
  3  4  2  0
  3  5  1  0
  5  6  2  3
  6  7  1  0
  7  8  1  0
  8  9  2  0
  9 10  1  0
 10 11  1  0
 11 12  2  0
 12 13  1  0
 13 14  1  0
 14 15  2  0
 14 16  1  0
 16 17  1  0
 17 18  1  0
 18 19  1  0
 19 20  1  0
 20 21  2  0
 20 22  1  0
 22 23  1  0
 23 24  2  0
 24 25  1  0
 25 26  2  0
 26 27  1  0
 27 28  2  0
 19 29  1  0
 29 30  1  0
 13 31  2  0
 31 32  1  0
 32 33  2  0
 33 34  1  0
  9 35  1  0
 35  6  1  0
 33 11  1  0
 30 16  1  0
 28 23  1  0
  1 36  1  0
  1 37  1  0
  1 38  1  0
  2 39  1  0
  8 40  1  0
 10 41  1  0
 10 42  1  0
 12 43  1  0
 17 44  1  0
 17 45  1  0
 18 46  1  0
 18 47  1  0
 22 48  1  0
 22 49  1  0
 24 50  1  0
 25 51  1  0
 26 52  1  0
 27 53  1  0
 28 54  1  0
 29 55  1  0
 29 56  1  0
 30 57  1  0
 30 58  1  0
 31 59  1  0
 32 60  1  0
 34 61  1  0
 34 62  1  0
 34 63  1  0
M  CHG  1   7  -1
M  END
>  <UniqueID>  (48) 
46

>  <SMILES>  (48) 
CNC(=O)N=c1[n-]cc(Cc2cc(C(=O)N3CCN(C(=O)Cc4ccccc4)CC3)ccc2C)s1

>  <Energy>  (48) 
103.90522524223505

>  <Genealogy>  (48) 
CNC(=O)N=c1[n-]cc(Cc2cc(C(=O)N3CCN(C(=O)Cc4ccccc4)CC3)ccc2C)s1 (protonated)
CNC(=O)N=c1[n-]cc(Cc2cc(C(=O)N3CCN(C(=O)Cc4ccccc4)CC3)ccc2C)s1 (3D coordinates assigned)
CNC(=O)N=c1[n-]cc(Cc2cc(C(=O)N3CCN(C(=O)Cc4ccccc4)CC3)ccc2C)s1 (nonaromatic ring conformer: 103.90522524223505 kcal/mol)

>  <smiles>  (48) 
CNC(=O)N=c1[nH]cc(Cc2cc(C(=O)N3CCN(C(=O)Cc4ccccc4)CC3)ccc2C)s1

>  <score_type>  (48) 
oracle

>  <origin>  (48) 
adg

>  <m_score__min__energy>  (48) 
-10.91

>  <m_primary>  (48) 
energy

$$$$
48:0
     RDKit          3D

 52 54  0  0  0  0  0  0  0  0999 V2000
   65.5520   33.9440   51.1900 C   0  0  0  0  0  0  0  0  0  0  0  0
   65.4720   32.7960   50.1890 C   0  0  0  0  0  0  0  0  0  0  0  0
   64.8140   31.5880   50.8010 C   0  0  0  0  0  0  0  0  0  0  0  0
   65.4750   30.5220   50.9250 O   0  0  0  0  0  0  0  0  0  0  0  0
   63.4060   31.6270   51.2670 C   0  0  0  0  0  0  0  0  0  0  0  0
   63.0930   31.1370   52.5420 C   0  0  0  0  0  0  0  0  0  0  0  0
   64.0970   30.6200   53.3630 O   0  0  0  0  0  0  0  0  0  0  0  0
   61.7800   31.1910   53.0030 C   0  0  0  0  0  0  0  0  0  0  0  0
   60.7580   31.7140   52.2100 C   0  0  0  0  0  0  0  0  0  0  0  0
   59.4920   31.7790   52.7810 O   0  0  0  0  0  0  0  0  0  0  0  0
   61.0300   32.1750   50.8890 C   0  0  0  0  0  0  0  0  0  0  0  0
   60.0310   32.6720   49.9910 C   0  0  0  0  0  0  0  0  0  0  0  0
   58.5630   32.6330   50.3790 C   0  0  0  0  0  0  0  0  0  0  0  0
   60.4260   33.1990   48.7210 C   0  0  0  0  0  0  0  0  0  0  0  0
   59.4110   33.8410   47.7790 C   0  0  0  0  0  0  0  0  0  0  0  0
   58.7530   32.8420   46.8510 C   0  0  0  0  0  0  0  0  0  0  0  0
   57.9800   33.2570   45.7500 C   0  0  0  0  0  0  0  0  0  0  0  0
   57.3530   32.3160   44.9290 C   0  0  0  0  0  0  0  0  0  0  0  0
   57.4790   30.9470   45.2000 C   0  0  0  0  0  0  0  0  0  0  0  0
   56.6770   29.7640   44.1730 S   0  0  0  0  0  0  0  0  0  0  0  0
   55.1540   29.3400   44.8680 N   0  0  0  0  0  0  0  0  0  0  0  0
   57.5340   28.5350   44.0510 O   0  0  0  0  0  0  0  0  0  0  0  0
   56.4620   30.3410   42.8020 O   0  0  0  0  0  0  0  0  0  0  0  0
   58.2220   30.5280   46.3100 C   0  0  0  0  0  0  0  0  0  0  0  0
   58.8490   31.4680   47.1330 C   0  0  0  0  0  0  0  0  0  0  0  0
   61.7880   33.0980   48.3380 C   0  0  0  0  0  0  0  0  0  0  0  0
   62.3300   33.5870   47.0180 C   0  0  0  0  0  0  0  0  0  0  0  0
   63.7520   33.0820   46.7930 C   0  0  0  0  0  0  0  0  0  0  0  0
   62.6880   32.5780   49.2030 N   0  0  0  0  0  0  0  0  0  0  0  0
   62.3770   32.1370   50.4430 C   0  0  0  0  0  0  0  0  0  0  0  0
   65.5239   33.5410   52.2131 H   0  0  0  0  0  0  0  0  0  0  0  0
   66.4909   34.4970   51.0394 H   0  0  0  0  0  0  0  0  0  0  0  0
   64.6989   34.6219   51.0394 H   0  0  0  0  0  0  0  0  0  0  0  0
   64.8864   33.1205   49.3162 H   0  0  0  0  0  0  0  0  0  0  0  0
   66.4943   32.5225   49.8887 H   0  0  0  0  0  0  0  0  0  0  0  0
   65.0630   30.5770   53.0600 H   0  0  0  0  0  0  0  0  0  0  0  0
   61.5446   30.8149   54.0095 H   0  0  0  0  0  0  0  0  0  0  0  0
   58.4735   32.6306   51.4753 H   0  0  0  0  0  0  0  0  0  0  0  0
   58.0524   33.5179   49.9713 H   0  0  0  0  0  0  0  0  0  0  0  0
   58.1001   31.7222   49.9713 H   0  0  0  0  0  0  0  0  0  0  0  0
   58.6300   34.3262   48.3828 H   0  0  0  0  0  0  0  0  0  0  0  0
   59.9538   34.5646   47.1531 H   0  0  0  0  0  0  0  0  0  0  0  0
   57.8688   34.3299   45.5344 H   0  0  0  0  0  0  0  0  0  0  0  0
   56.7582   32.6513   44.0666 H   0  0  0  0  0  0  0  0  0  0  0  0
   55.3460   28.6540   45.6320 H   0  0  0  0  0  0  0  0  0  0  0  0
   58.3128   29.4552   46.5354 H   0  0  0  0  0  0  0  0  0  0  0  0
   59.4224   31.1298   48.0087 H   0  0  0  0  0  0  0  0  0  0  0  0
   61.6849   33.2207   46.2058 H   0  0  0  0  0  0  0  0  0  0  0  0
   62.3453   34.6868   47.0300 H   0  0  0  0  0  0  0  0  0  0  0  0
   64.2379   32.9095   47.7647 H   0  0  0  0  0  0  0  0  0  0  0  0
   63.7211   32.1399   46.2260 H   0  0  0  0  0  0  0  0  0  0  0  0
   64.3223   33.8326   46.2260 H   0  0  0  0  0  0  0  0  0  0  0  0
  1  2  1  0
  2  3  1  0
  3  4  2  0
  3  5  1  0
  5  6  2  0
  6  7  1  0
  6  8  1  0
  8  9  2  0
  9 10  1  0
  9 11  1  0
 11 12  2  0
 12 13  1  0
 12 14  1  0
 14 15  1  0
 15 16  1  0
 16 17  2  0
 17 18  1  0
 18 19  2  0
 19 20  1  0
 20 21  1  0
 20 22  2  0
 20 23  2  0
 19 24  1  0
 24 25  2  0
 14 26  2  0
 26 27  1  0
 27 28  1  0
 26 29  1  0
 29 30  2  0
 30  5  1  0
 30 11  1  0
 25 16  1  0
  1 31  1  0
  1 32  1  0
  1 33  1  0
  2 34  1  0
  2 35  1  0
  7 36  1  0
  8 37  1  0
 13 38  1  0
 13 39  1  0
 13 40  1  0
 15 41  1  0
 15 42  1  0
 17 43  1  0
 18 44  1  0
 21 45  1  0
 24 46  1  0
 25 47  1  0
 27 48  1  0
 27 49  1  0
 28 50  1  0
 28 51  1  0
 28 52  1  0
M  CHG  2  10  -1  21  -1
M  END
>  <UniqueID>  (49) 
47

>  <SMILES>  (49) 
CCC(=O)c1c(O)cc([O-])c2c(C)c(Cc3ccc(S([NH-])(=O)=O)cc3)c(CC)nc12

>  <Energy>  (49) 
69.80919895407098

>  <Genealogy>  (49) 
CCC(=O)c1c(O)cc([O-])c2c(C)c(Cc3ccc(S([NH-])(=O)=O)cc3)c(CC)nc12 (protonated)
CCC(=O)c1c(O)cc([O-])c2c(C)c(Cc3ccc(S([NH-])(=O)=O)cc3)c(CC)nc12 (3D coordinates assigned)
CCC(=O)c1c(O)cc([O-])c2c(C)c(Cc3ccc(S([NH-])(=O)=O)cc3)c(CC)nc12 (optimized conformer: 69.80919895407098 kcal/mol)

>  <smiles>  (49) 
CCC(=O)c1c(O)cc(O)c2c(C)c(Cc3ccc(S(N)(=O)=O)cc3)c(CC)nc12

>  <score_type>  (49) 
oracle

>  <origin>  (49) 
adg

>  <m_score__min__energy>  (49) 
-11.039999999999999

>  <m_primary>  (49) 
energy

$$$$
49:0
     RDKit          3D

 80 85  0  0  0  0  0  0  0  0999 V2000
   60.9560   29.8190   52.3040 O   0  0  0  0  0  0  0  0  0  0  0  0
   60.9150   30.4460   51.2120 C   0  0  0  0  0  0  0  0  0  0  0  0
   61.3650   29.7820   50.0260 N   0  0  0  0  0  0  0  0  0  0  0  0
   60.7600   30.0820   48.4280 S   0  0  0  0  0  0  0  0  0  0  0  0
   61.8950   30.5400   47.5580 O   0  0  0  0  0  0  0  0  0  0  0  0
   59.7330   31.1800   48.4680 O   0  0  0  0  0  0  0  0  0  0  0  0
   60.0760   28.6030   47.7560 C   0  0  0  0  0  0  0  0  0  0  0  0
   60.7130   27.9350   46.7030 C   0  0  0  0  0  0  0  0  0  0  0  0
   60.1470   26.7850   46.1540 C   0  0  0  0  0  0  0  0  0  0  0  0
   58.9320   26.2850   46.6560 C   0  0  0  0  0  0  0  0  0  0  0  0
   58.3140   25.0520   46.0510 C   0  0  0  0  0  0  0  0  0  0  0  0
   57.0430   25.3810   45.2700 C   0  0  0  0  0  0  0  0  0  0  0  0
   56.7860   26.8150   45.2990 N   0  0  0  0  0  0  0  0  0  0  0  0
   57.4500   27.7310   44.4230 C   0  0  0  0  0  0  0  0  0  0  0  0
   58.1430   27.2770   43.4720 O   0  0  0  0  0  0  0  0  0  0  0  0
   57.3820   29.1990   44.6550 C   0  0  0  0  0  0  0  0  0  0  0  0
   58.5330   29.8850   45.0940 C   0  0  0  0  0  0  0  0  0  0  0  0
   58.4800   31.2530   45.3890 C   0  0  0  0  0  0  0  0  0  0  0  0
   59.6070   31.9440   45.8630 C   0  0  0  0  0  0  0  0  0  0  0  0
   59.5210   33.3160   46.1670 C   0  0  0  0  0  0  0  0  0  0  0  0
   60.6150   34.0390   46.6640 O   0  0  0  0  0  0  0  0  0  0  0  0
   61.2310   33.8270   47.9040 C   0  0  0  0  0  0  0  0  0  0  0  0
   60.5590   33.8670   48.9680 O   0  0  0  0  0  0  0  0  0  0  0  0
   62.6920   33.4630   47.9430 C   0  0  0  0  0  0  0  0  0  0  0  0
   63.3330   33.2050   49.2840 C   0  0  0  0  0  0  0  0  0  0  0  0
   63.2600   34.1720   50.3000 C   0  0  0  0  0  0  0  0  0  0  0  0
   63.8630   33.9360   51.5400 C   0  0  0  0  0  0  0  0  0  0  0  0
   64.5530   32.7420   51.7680 C   0  0  0  0  0  0  0  0  0  0  0  0
   64.6480   31.7850   50.7540 C   0  0  0  0  0  0  0  0  0  0  0  0
   64.0460   32.0180   49.5130 C   0  0  0  0  0  0  0  0  0  0  0  0
   63.5700   34.1970   46.9330 C   0  0  0  0  0  0  0  0  0  0  0  0
   63.2830   32.7140   46.7470 C   0  0  0  0  0  0  0  0  0  0  0  0
   58.2960   33.9780   46.0120 C   0  0  0  0  0  0  0  0  0  0  0  0
   57.1730   33.2970   45.5340 C   0  0  0  0  0  0  0  0  0  0  0  0
   57.2590   31.9360   45.2230 C   0  0  0  0  0  0  0  0  0  0  0  0
   56.1610   31.2650   44.7810 N   0  0  0  0  0  0  0  0  0  0  0  0
   56.1850   29.9360   44.4940 C   0  0  0  0  0  0  0  0  0  0  0  0
   55.1250   29.3830   44.0910 O   0  0  0  0  0  0  0  0  0  0  0  0
   58.3140   26.9350   47.7360 C   0  0  0  0  0  0  0  0  0  0  0  0
   58.8810   28.0890   48.2780 C   0  0  0  0  0  0  0  0  0  0  0  0
   60.3940   31.7830   51.1690 N   0  0  0  0  0  0  0  0  0  0  0  0
   59.9930   32.5140   52.3750 C   0  0  0  0  0  0  0  0  0  0  0  0
   61.2150   32.7330   53.3020 C   0  0  0  0  0  0  0  0  0  0  0  0
   61.0950   33.9900   54.1870 C   0  0  0  0  0  0  0  0  0  0  0  0
   59.6340   34.3330   54.5030 C   0  0  0  0  0  0  0  0  0  0  0  0
   58.8220   34.6100   53.2200 C   0  0  0  0  0  0  0  0  0  0  0  0
   59.3450   33.8500   51.9850 C   0  0  0  0  0  0  0  0  0  0  0  0
   61.6646   28.3193   46.3070 H   0  0  0  0  0  0  0  0  0  0  0  0
   60.6524   26.2671   45.3255 H   0  0  0  0  0  0  0  0  0  0  0  0
   59.0410   24.5871   45.3689 H   0  0  0  0  0  0  0  0  0  0  0  0
   58.0458   24.3668   46.8687 H   0  0  0  0  0  0  0  0  0  0  0  0
   57.1644   25.0556   44.2263 H   0  0  0  0  0  0  0  0  0  0  0  0
   56.1939   24.8568   45.7330 H   0  0  0  0  0  0  0  0  0  0  0  0
   59.4821   29.3402   45.2059 H   0  0  0  0  0  0  0  0  0  0  0  0
   60.5601   31.4115   45.9972 H   0  0  0  0  0  0  0  0  0  0  0  0
   62.7272   35.1174   50.1202 H   0  0  0  0  0  0  0  0  0  0  0  0
   63.7940   34.6912   52.3368 H   0  0  0  0  0  0  0  0  0  0  0  0
   65.0213   32.5556   52.7457 H   0  0  0  0  0  0  0  0  0  0  0  0
   65.1964   30.8482   50.9318 H   0  0  0  0  0  0  0  0  0  0  0  0
   64.1318   31.2677   48.7132 H   0  0  0  0  0  0  0  0  0  0  0  0
   63.1226   34.9331   46.2489 H   0  0  0  0  0  0  0  0  0  0  0  0
   64.4816   34.8092   46.9972 H   0  0  0  0  0  0  0  0  0  0  0  0
   62.6277   32.3790   45.9295 H   0  0  0  0  0  0  0  0  0  0  0  0
   63.9002   31.8121   46.6220 H   0  0  0  0  0  0  0  0  0  0  0  0
   58.2173   35.0446   46.2691 H   0  0  0  0  0  0  0  0  0  0  0  0
   56.2208   33.8318   45.4023 H   0  0  0  0  0  0  0  0  0  0  0  0
   57.3801   26.5334   48.1562 H   0  0  0  0  0  0  0  0  0  0  0  0
   58.3877   28.5980   49.1192 H   0  0  0  0  0  0  0  0  0  0  0  0
   60.1280   32.1870   50.2450 H   0  0  0  0  0  0  0  0  0  0  0  0
   59.2515   31.9197   52.9291 H   0  0  0  0  0  0  0  0  0  0  0  0
   61.3183   31.8547   53.9561 H   0  0  0  0  0  0  0  0  0  0  0  0
   62.0927   32.8746   52.6542 H   0  0  0  0  0  0  0  0  0  0  0  0
   61.6302   33.8118   55.1314 H   0  0  0  0  0  0  0  0  0  0  0  0
   61.5311   34.8363   53.6360 H   0  0  0  0  0  0  0  0  0  0  0  0
   59.1772   33.4876   55.0384 H   0  0  0  0  0  0  0  0  0  0  0  0
   59.6214   35.2436   55.1199 H   0  0  0  0  0  0  0  0  0  0  0  0
   57.7785   34.3105   53.3970 H   0  0  0  0  0  0  0  0  0  0  0  0
   58.9167   35.6842   53.0028 H   0  0  0  0  0  0  0  0  0  0  0  0
   58.5035   33.6532   51.3044 H   0  0  0  0  0  0  0  0  0  0  0  0
   60.1088   34.4727   51.4963 H   0  0  0  0  0  0  0  0  0  0  0  0
  1  2  2  0
  2  3  1  0
  3  4  1  0
  4  5  2  0
  4  6  2  0
  4  7  1  0
  7  8  2  0
  8  9  1  0
  9 10  2  0
 10 11  1  0
 11 12  1  0
 12 13  1  0
 13 14  1  0
 14 15  2  0
 14 16  1  0
 16 17  2  0
 17 18  1  0
 18 19  2  0
 19 20  1  0
 20 21  1  0
 21 22  1  0
 22 23  2  0
 22 24  1  0
 24 25  1  0
 25 26  2  0
 26 27  1  0
 27 28  2  0
 28 29  1  0
 29 30  2  0
 24 31  1  0
 31 32  1  0
 20 33  2  0
 33 34  1  0
 34 35  2  0
 35 36  1  0
 36 37  1  0
 37 38  2  0
 10 39  1  0
 39 40  2  0
  2 41  1  0
 41 42  1  0
 42 43  1  0
 43 44  1  0
 44 45  1  0
 45 46  1  0
 46 47  1  0
 40  7  1  0
 47 42  1  0
 37 16  1  0
 35 18  1  0
 32 24  1  0
 30 25  1  0
  8 48  1  0
  9 49  1  0
 11 50  1  0
 11 51  1  0
 12 52  1  0
 12 53  1  0
 17 54  1  0
 19 55  1  0
 26 56  1  0
 27 57  1  0
 28 58  1  0
 29 59  1  0
 30 60  1  0
 31 61  1  0
 31 62  1  0
 32 63  1  0
 32 64  1  0
 33 65  1  0
 34 66  1  0
 39 67  1  0
 40 68  1  0
 41 69  1  0
 42 70  1  0
 43 71  1  0
 43 72  1  0
 44 73  1  0
 44 74  1  0
 45 75  1  0
 45 76  1  0
 46 77  1  0
 46 78  1  0
 47 79  1  0
 47 80  1  0
M  CHG  3   3  -1  13  -1  36  -1
M  END
>  <UniqueID>  (50) 
48

>  <SMILES>  (50) 
O=C([N-]S(=O)(=O)c1ccc(CC[N-]C(=O)c2cc3cc(OC(=O)C4(c5ccccc5)CC4)ccc3[n-]c2=O)cc1)NC1CCCCC1

>  <Energy>  (50) 
362.5754512336886

>  <Genealogy>  (50) 
O=C([N-]S(=O)(=O)c1ccc(CC[N-]C(=O)c2cc3cc(OC(=O)C4(c5ccccc5)CC4)ccc3[n-]c2=O)cc1)NC1CCCCC1 (protonated)
O=C([N-]S(=O)(=O)c1ccc(CC[N-]C(=O)c2cc3cc(OC(=O)C4(c5ccccc5)CC4)ccc3[n-]c2=O)cc1)NC1CCCCC1 (3D coordinates assigned)
O=C([N-]S(=O)(=O)c1ccc(CC[N-]C(=O)c2cc3cc(OC(=O)C4(c5ccccc5)CC4)ccc3[n-]c2=O)cc1)NC1CCCCC1 (nonaromatic ring conformer: 362.5754512336886 kcal/mol)

>  <smiles>  (50) 
O=C(NC1CCCCC1)NS(=O)(=O)c1ccc(CCNC(=O)c2cc3cc(OC(=O)C4(c5ccccc5)CC4)ccc3[nH]c2=O)cc1

>  <score_type>  (50) 
oracle

>  <origin>  (50) 
adg

>  <m_score__min__energy>  (50) 
-15.869999999999999

>  <m_primary>  (50) 
energy

$$$$
50:0
     RDKit          3D

 46 48  0  0  0  0  0  0  0  0999 V2000
   58.3880   28.4450   44.3170 C   0  0  0  0  0  0  0  0  0  0  0  0
   58.8230   29.6670   45.0040 N   0  0  0  0  0  0  0  0  0  0  0  0
   60.1440   29.7130   45.6440 C   0  0  0  0  0  0  0  0  0  0  0  0
   57.8980   30.7680   45.1240 C   0  0  0  0  0  0  0  0  0  0  0  0
   56.6580   30.5420   45.0400 O   0  0  0  0  0  0  0  0  0  0  0  0
   58.3550   32.1630   45.3380 C   0  0  0  0  0  0  0  0  0  0  0  0
   57.6380   33.2390   44.8000 C   0  0  0  0  0  0  0  0  0  0  0  0
   58.0950   34.5390   45.0100 C   0  0  0  0  0  0  0  0  0  0  0  0
   59.2590   34.7630   45.7440 C   0  0  0  0  0  0  0  0  0  0  0  0
   59.9780   33.6670   46.2600 C   0  0  0  0  0  0  0  0  0  0  0  0
   61.2000   33.8490   47.0210 N   0  0  0  0  0  0  0  0  0  0  0  0
   62.5140   33.8300   46.3650 C   0  0  0  0  0  0  0  0  0  0  0  0
   63.4300   32.8710   47.1320 C   0  0  0  0  0  0  0  0  0  0  0  0
   63.5610   33.2130   48.5750 N   0  0  0  0  0  0  0  0  0  0  0  0
   63.6070   31.9980   49.4160 C   0  0  0  0  0  0  0  0  0  0  0  0
   64.9090   31.9210   50.1570 C   0  0  0  0  0  0  0  0  0  0  0  0
   65.1220   31.2450   51.3460 C   0  0  0  0  0  0  0  0  0  0  0  0
   66.4480   31.4500   51.6710 C   0  0  0  0  0  0  0  0  0  0  0  0
   66.9820   32.2400   50.6700 C   0  0  0  0  0  0  0  0  0  0  0  0
   66.0400   32.5240   49.7510 N   0  0  0  0  0  0  0  0  0  0  0  0
   62.5740   34.2080   49.0680 C   0  0  0  0  0  0  0  0  0  0  0  0
   61.1670   33.9980   48.4850 C   0  0  0  0  0  0  0  0  0  0  0  0
   59.4980   32.4090   46.0370 N   0  0  0  0  0  0  0  0  0  0  0  0
   58.1166   27.6824   45.0619 H   0  0  0  0  0  0  0  0  0  0  0  0
   57.5146   28.6696   43.6871 H   0  0  0  0  0  0  0  0  0  0  0  0
   59.2069   28.0672   43.6871 H   0  0  0  0  0  0  0  0  0  0  0  0
   60.0221   29.7088   46.7372 H   0  0  0  0  0  0  0  0  0  0  0  0
   60.7309   28.8347   45.3371 H   0  0  0  0  0  0  0  0  0  0  0  0
   60.6684   30.6299   45.3371 H   0  0  0  0  0  0  0  0  0  0  0  0
   56.7225   33.0599   44.2170 H   0  0  0  0  0  0  0  0  0  0  0  0
   57.5357   35.3906   44.5954 H   0  0  0  0  0  0  0  0  0  0  0  0
   59.6138   35.7894   45.9191 H   0  0  0  0  0  0  0  0  0  0  0  0
   62.4044   33.4861   45.3259 H   0  0  0  0  0  0  0  0  0  0  0  0
   62.9470   34.8412   46.3621 H   0  0  0  0  0  0  0  0  0  0  0  0
   63.0189   31.8540   47.0497 H   0  0  0  0  0  0  0  0  0  0  0  0
   64.4322   32.9490   46.6854 H   0  0  0  0  0  0  0  0  0  0  0  0
   62.7795   32.0275   50.1402 H   0  0  0  0  0  0  0  0  0  0  0  0
   63.5132   31.1135   48.7688 H   0  0  0  0  0  0  0  0  0  0  0  0
   64.3839   30.6622   51.9166 H   0  0  0  0  0  0  0  0  0  0  0  0
   66.9764   31.0608   52.5538 H   0  0  0  0  0  0  0  0  0  0  0  0
   68.0253   32.5863   50.6302 H   0  0  0  0  0  0  0  0  0  0  0  0
   66.1660   33.1030   48.8910 H   0  0  0  0  0  0  0  0  0  0  0  0
   62.5147   34.1298   50.1636 H   0  0  0  0  0  0  0  0  0  0  0  0
   62.9190   35.2014   48.7454 H   0  0  0  0  0  0  0  0  0  0  0  0
   60.7306   33.0896   48.9259 H   0  0  0  0  0  0  0  0  0  0  0  0
   60.5609   34.8839   48.7255 H   0  0  0  0  0  0  0  0  0  0  0  0
  1  2  1  0
  2  3  1  0
  2  4  1  0
  4  5  2  0
  4  6  1  0
  6  7  2  0
  7  8  1  0
  8  9  2  0
  9 10  1  0
 10 11  1  0
 11 12  1  0
 12 13  1  0
 13 14  1  0
 14 15  1  0
 15 16  1  0
 16 17  2  0
 17 18  1  0
 18 19  2  0
 19 20  1  0
 14 21  1  0
 21 22  1  0
 10 23  2  0
 23  6  1  0
 22 11  1  0
 20 16  1  0
  1 24  1  0
  1 25  1  0
  1 26  1  0
  3 27  1  0
  3 28  1  0
  3 29  1  0
  7 30  1  0
  8 31  1  0
  9 32  1  0
 12 33  1  0
 12 34  1  0
 13 35  1  0
 13 36  1  0
 15 37  1  0
 15 38  1  0
 17 39  1  0
 18 40  1  0
 19 41  1  0
 20 42  1  0
 21 43  1  0
 21 44  1  0
 22 45  1  0
 22 46  1  0
M  END
>  <UniqueID>  (51) 
49

>  <SMILES>  (51) 
CN(C)C(=O)c1cccc(N2CCN(Cc3ccc[nH]3)CC2)n1

>  <Energy>  (51) 
83.02601557658387

>  <Genealogy>  (51) 
CN(C)C(=O)c1cccc(N2CCN(Cc3ccc[nH]3)CC2)n1 (3D coordinates assigned)
CN(C)C(=O)c1cccc(N2CCN(Cc3ccc[nH]3)CC2)n1 (nonaromatic ring conformer: 83.02601557658387 kcal/mol)

>  <smiles>  (51) 
CN(C)C(=O)c1cccc(N2CCN(Cc3ccc[nH]3)CC2)n1

>  <score_type>  (51) 
oracle

>  <origin>  (51) 
adg

>  <m_score__min__energy>  (51) 
-7.9100000000000001

>  <m_primary>  (51) 
energy

$$$$
51:0
     RDKit          3D

 55 59  0  0  0  0  0  0  0  0999 V2000
   63.0383   33.7401   52.9447 H   0  0  0  0  0  0  0  0  0  0  0  0
   62.2430   33.0270   52.6820 C   0  0  0  0  0  0  0  0  0  0  0  0
   61.4520   32.4320   53.6150 N   0  0  0  0  0  0  0  0  0  0  0  0
   60.5490   31.6000   53.0520 C   0  0  0  0  0  0  0  0  0  0  0  0
   59.7020   30.9220   53.7730 N   0  0  0  0  0  0  0  0  0  0  0  0
   58.2680   30.9490   53.7010 C   0  0  0  0  0  0  0  0  0  0  0  0
   57.6120   31.9430   54.1190 O   0  0  0  0  0  0  0  0  0  0  0  0
   57.5810   29.7970   53.1930 N   0  0  0  0  0  0  0  0  0  0  0  0
   58.1100   28.8970   53.1590 H   0  0  0  0  0  0  0  0  0  0  0  0
   56.1940   29.7870   52.8130 C   0  0  0  0  0  0  0  0  0  0  0  0
   55.6970   30.8150   51.9980 C   0  0  0  0  0  0  0  0  0  0  0  0
   56.3753   31.6023   51.6374 H   0  0  0  0  0  0  0  0  0  0  0  0
   54.3460   30.8460   51.6410 C   0  0  0  0  0  0  0  0  0  0  0  0
   53.9679   31.6494   50.9917 H   0  0  0  0  0  0  0  0  0  0  0  0
   53.4740   29.8570   52.1080 C   0  0  0  0  0  0  0  0  0  0  0  0
   51.7780   29.9000   51.6650 Cl  0  0  0  0  0  0  0  0  0  0  0  0
   53.9560   28.8400   52.9380 C   0  0  0  0  0  0  0  0  0  0  0  0
   53.2703   28.0649   53.3110 H   0  0  0  0  0  0  0  0  0  0  0  0
   55.3080   28.8060   53.2950 C   0  0  0  0  0  0  0  0  0  0  0  0
   55.6802   28.0089   53.9554 H   0  0  0  0  0  0  0  0  0  0  0  0
   60.6910   31.5670   51.3660 S   0  0  0  0  0  0  0  0  0  0  0  0
   61.9660   32.6620   51.3720 C   0  0  0  0  0  0  0  0  0  0  0  0
   62.8040   33.2430   49.9430 S   0  0  0  0  0  0  0  0  0  0  0  0
   63.6720   34.4130   50.3110 O   0  0  0  0  0  0  0  0  0  0  0  0
   63.6760   32.1350   49.4250 O   0  0  0  0  0  0  0  0  0  0  0  0
   61.6520   33.7350   48.7050 C   0  0  0  0  0  0  0  0  0  0  0  0
   62.0400   33.7960   47.3590 C   0  0  0  0  0  0  0  0  0  0  0  0
   63.0752   33.5545   47.0761 H   0  0  0  0  0  0  0  0  0  0  0  0
   61.1180   34.1620   46.3760 C   0  0  0  0  0  0  0  0  0  0  0  0
   61.4290   34.1961   45.3214 H   0  0  0  0  0  0  0  0  0  0  0  0
   59.8000   34.4860   46.7230 C   0  0  0  0  0  0  0  0  0  0  0  0
   58.8790   34.8320   45.6790 N   0  0  0  0  0  0  0  0  0  0  0  0
   57.7860   34.0370   45.1970 C   0  0  0  0  0  0  0  0  0  0  0  0
   56.7300   34.5850   44.7830 O   0  0  0  0  0  0  0  0  0  0  0  0
   57.9160   32.6110   45.1400 N   0  0  0  0  0  0  0  0  0  0  0  0
   56.8550   31.7160   44.6750 C   0  0  0  0  0  0  0  0  0  0  0  0
   55.9582   31.8037   45.3058 H   0  0  0  0  0  0  0  0  0  0  0  0
   56.5154   31.9383   43.6526 H   0  0  0  0  0  0  0  0  0  0  0  0
   57.4730   30.3740   44.8090 C   0  0  0  0  0  0  0  0  0  0  0  0
   56.9070   29.1360   44.5030 C   0  0  0  0  0  0  0  0  0  0  0  0
   55.8804   29.0679   44.1137 H   0  0  0  0  0  0  0  0  0  0  0  0
   57.6770   27.9790   44.7030 C   0  0  0  0  0  0  0  0  0  0  0  0
   57.2523   26.9914   44.4701 H   0  0  0  0  0  0  0  0  0  0  0  0
   58.9920   28.0780   45.2010 C   0  0  0  0  0  0  0  0  0  0  0  0
   59.5902   27.1678   45.3548 H   0  0  0  0  0  0  0  0  0  0  0  0
   59.5400   29.3340   45.5010 C   0  0  0  0  0  0  0  0  0  0  0  0
   60.5654   29.4209   45.8897 H   0  0  0  0  0  0  0  0  0  0  0  0
   58.7570   30.4710   45.2960 C   0  0  0  0  0  0  0  0  0  0  0  0
   59.1240   31.8870   45.5390 C   0  0  0  0  0  0  0  0  0  0  0  0
   59.3561   32.0591   46.6004 H   0  0  0  0  0  0  0  0  0  0  0  0
   60.0220   32.2036   44.9883 H   0  0  0  0  0  0  0  0  0  0  0  0
   59.4050   34.3990   48.0710 C   0  0  0  0  0  0  0  0  0  0  0  0
   58.3657   34.6238   48.3527 H   0  0  0  0  0  0  0  0  0  0  0  0
   60.3280   34.0280   49.0540 C   0  0  0  0  0  0  0  0  0  0  0  0
   60.0125   33.9661   50.1060 H   0  0  0  0  0  0  0  0  0  0  0  0
  1  2  1  0
  2  3  1  0
  3  4  1  0
  4  5  2  0
  5  6  1  0
  6  7  2  0
  6  8  1  0
  8  9  1  0
  8 10  1  0
 10 11  2  0
 11 12  1  0
 11 13  1  0
 13 14  1  0
 13 15  2  0
 15 16  1  0
 15 17  1  0
 17 18  1  0
 17 19  2  0
 19 20  1  0
  4 21  1  0
 21 22  1  0
 22 23  1  0
 23 24  2  0
 23 25  2  0
 23 26  1  0
 26 27  2  0
 27 28  1  0
 27 29  1  0
 29 30  1  0
 29 31  2  0
 31 32  1  0
 32 33  1  0
 33 34  2  0
 33 35  1  0
 35 36  1  0
 36 37  1  0
 36 38  1  0
 36 39  1  0
 39 40  2  0
 40 41  1  0
 40 42  1  0
 42 43  1  0
 42 44  2  0
 44 45  1  0
 44 46  1  0
 46 47  1  0
 46 48  2  0
 48 49  1  0
 49 50  1  0
 49 51  1  0
 31 52  1  0
 52 53  1  0
 52 54  2  0
 54 55  1  0
 22  2  2  0
 54 26  1  0
 19 10  1  0
 49 35  1  0
 48 39  1  0
M  CHG  2   3  -1  32  -1
M  END
>  <UniqueID>  (52) 
50

>  <SMILES>  (52) 
O=C(/N=c1/[n-]cc(S(=O)(=O)c2ccc([N-]C(=O)N3Cc4ccccc4C3)cc2)s1)Nc1ccc(Cl)cc1

>  <Energy>  (52) 
112.98978976011016

>  <Genealogy>  (52) 
O=C(N=c1[n-]cc(S(=O)(=O)c2ccc([N-]C(=O)N3Cc4ccccc4C3)cc2)s1)Nc1ccc(Cl)cc1 (protonated)
O=C(/N=c1/[n-]cc(S(=O)(=O)c2ccc([N-]C(=O)N3Cc4ccccc4C3)cc2)s1)Nc1ccc(Cl)cc1 (cis-trans isomerization)
O=C(/N=c1/[n-]cc(S(=O)(=O)c2ccc([N-]C(=O)N3Cc4ccccc4C3)cc2)s1)Nc1ccc(Cl)cc1 (3D coordinates assigned)
O=C(/N=c1/[n-]cc(S(=O)(=O)c2ccc([N-]C(=O)N3Cc4ccccc4C3)cc2)s1)Nc1ccc(Cl)cc1 (nonaromatic ring conformer: 112.98978976011016 kcal/mol)

>  <smiles>  (52) 
O=C(N=c1[nH]cc(S(=O)(=O)c2ccc(NC(=O)N3Cc4ccccc4C3)cc2)s1)Nc1ccc(Cl)cc1

>  <score_type>  (52) 
oracle

>  <origin>  (52) 
adg

>  <m_score__min__energy>  (52) 
-12.279999999999999

>  <m_primary>  (52) 
energy

$$$$
52:0
     RDKit          3D

 43 46  0  0  1  0  0  0  0  0999 V2000
   59.0140   30.2030   48.0540 O   0  0  0  0  0  0  0  0  0  0  0  0
   59.1510   30.1730   46.8080 C   0  0  0  0  0  0  0  0  0  0  0  0
   59.7700   31.2210   46.1500 N   0  0  0  0  0  0  0  0  0  0  0  0
   59.2630   32.3140   45.8030 C   0  0  0  0  0  0  0  0  0  0  0  0
   58.2500   32.5240   44.9080 C   0  0  0  0  0  0  0  0  0  0  0  0
   57.3980   31.6260   44.1710 C   0  0  0  0  0  0  0  0  0  0  0  0
   57.2180   31.2630   42.9130 N   0  0  0  0  0  0  0  0  0  0  0  0
   56.2690   30.3600   42.7560 N   0  0  0  0  0  0  0  0  0  0  0  0
   55.8110   30.1330   44.0110 C   0  0  0  0  0  0  0  0  0  0  0  0
   54.8920   29.3340   44.3290 O   0  0  0  0  0  0  0  0  0  0  0  0
   56.4820   30.8790   44.8150 O   0  0  0  0  0  0  0  0  0  0  0  0
   58.1390   33.9310   44.8740 C   0  0  0  0  0  0  0  0  0  0  0  0
   59.0400   34.4740   45.7040 N   0  0  0  0  0  0  0  0  0  0  0  0
   59.7300   33.5110   46.2760 N   0  0  0  0  0  0  0  0  0  0  0  0
   60.7740   33.7280   47.2180 C   0  0  0  0  0  0  0  0  0  0  0  0
   62.0880   33.6230   46.7550 C   0  0  0  0  0  0  0  0  0  0  0  0
   63.1430   33.8250   47.6190 C   0  0  0  0  0  0  0  0  0  0  0  0
   62.8840   34.1300   48.9460 C   0  0  0  0  0  0  0  0  0  0  0  0
   61.5810   34.2310   49.3950 C   0  0  0  0  0  0  0  0  0  0  0  0
   60.5240   34.0320   48.5390 C   0  0  0  0  0  0  0  0  0  0  0  0
   58.6610   29.0420   45.9840 C   0  0  0  0  0  0  0  0  0  0  0  0
   59.2990   28.6470   44.8320 C   0  0  0  0  0  0  0  0  0  0  0  0
   58.8550   27.5890   44.0670 C   0  0  0  0  0  0  0  0  0  0  0  0
   57.7170   26.8830   44.4600 C   0  0  0  0  0  0  0  0  0  0  0  0
   57.0740   27.2670   45.6050 C   0  0  0  0  0  0  0  0  0  0  0  0
   55.9330   26.5580   46.0010 O   0  0  0  0  0  0  0  0  0  0  0  0
   55.9570   25.1740   46.1850 C   0  0  0  0  0  0  0  0  0  0  0  0
   56.3180   24.9170   47.5140 F   0  0  0  0  0  0  0  0  0  0  0  0
   56.8930   24.5230   45.4010 F   0  0  0  0  0  0  0  0  0  0  0  0
   54.6880   24.6080   46.0030 F   0  0  0  0  0  0  0  0  0  0  0  0
   57.5380   28.3280   46.3540 C   0  0  0  0  0  0  0  0  0  0  0  0
   55.9440   29.9210   41.8680 H   0  0  0  0  0  0  0  0  0  0  0  0
   57.4221   34.4955   44.2597 H   0  0  0  0  0  0  0  0  0  0  0  0
   59.1760   35.5000   45.8720 H   0  0  0  0  0  0  0  0  0  0  0  0
   62.2809   33.3789   45.6999 H   0  0  0  0  0  0  0  0  0  0  0  0
   64.1794   33.7450   47.2591 H   0  0  0  0  0  0  0  0  0  0  0  0
   63.7185   34.2922   49.6441 H   0  0  0  0  0  0  0  0  0  0  0  0
   61.3873   34.4736   50.4503 H   0  0  0  0  0  0  0  0  0  0  0  0
   59.4897   34.1145   48.9043 H   0  0  0  0  0  0  0  0  0  0  0  0
   60.1964   29.1949   44.5087 H   0  0  0  0  0  0  0  0  0  0  0  0
   59.3947   27.3031   43.1522 H   0  0  0  0  0  0  0  0  0  0  0  0
   57.3455   26.0372   43.8628 H   0  0  0  0  0  0  0  0  0  0  0  0
   56.9997   28.6131   47.2700 H   0  0  0  0  0  0  0  0  0  0  0  0
  1  2  2  0
  2  3  1  0
  3  4  2  0
  4  5  1  0
  5  6  1  0
  6  7  2  0
  7  8  1  0
  8  9  1  0
  9 10  2  0
  9 11  1  0
  5 12  2  0
 12 13  1  0
 13 14  1  0
 14 15  1  0
 15 16  2  0
 16 17  1  0
 17 18  2  0
 18 19  1  0
 19 20  2  0
  2 21  1  0
 21 22  2  0
 22 23  1  0
 23 24  2  0
 24 25  1  0
 25 26  1  0
 26 27  1  0
 27 28  1  0
 27 29  1  0
 27 30  1  0
 25 31  2  0
 14  4  1  0
 20 15  1  0
 31 21  1  0
 11  6  1  0
  8 32  1  0
 12 33  1  0
 13 34  1  0
 16 35  1  0
 17 36  1  0
 18 37  1  0
 19 38  1  0
 20 39  1  0
 22 40  1  0
 23 41  1  0
 24 42  1  0
 31 43  1  0
M  END
>  <smiles>  (53) 
O=C(N=c1c(-c2n[nH]c(=O)o2)c[nH]n1-c1ccccc1)c1cccc(OC(F)(F)F)c1

>  <score_type>  (53) 
oracle

>  <origin>  (53) 
adg

>  <m_score__min__energy>  (53) 
-9.0099999999999998

>  <m_primary>  (53) 
energy

$$$$
53:0
     RDKit          3D

 51 54  0  0  0  0  0  0  0  0999 V2000
   64.5200   31.8750   47.9950 H   0  0  0  0  0  0  0  0  0  0  0  0
   64.4230   31.9670   48.9780 O   0  0  0  0  0  0  0  0  0  0  0  0
   64.5140   33.3380   49.2530 C   0  0  0  0  0  0  0  0  0  0  0  0
   65.0222   33.8442   48.4191 H   0  0  0  0  0  0  0  0  0  0  0  0
   65.0862   33.4838   50.1811 H   0  0  0  0  0  0  0  0  0  0  0  0
   63.1060   33.9320   49.4280 C   0  0  1  0  0  0  0  0  0  0  0  0
   63.0830   34.8436   48.8128 H   0  0  0  0  0  0  0  0  0  0  0  0
   62.0900   32.9640   49.0320 N   0  0  0  0  0  0  0  0  0  0  0  0
   61.8450   32.5790   47.6630 C   0  0  0  0  0  0  0  0  0  0  0  0
   62.8080   32.2210   46.9310 O   0  0  0  0  0  0  0  0  0  0  0  0
   60.4860   32.5590   47.0950 C   0  0  0  0  0  0  0  0  0  0  0  0
   59.6530   33.6770   47.2420 C   0  0  0  0  0  0  0  0  0  0  0  0
   60.0183   34.5661   47.7769 H   0  0  0  0  0  0  0  0  0  0  0  0
   58.3590   33.6660   46.7110 C   0  0  0  0  0  0  0  0  0  0  0  0
   57.7122   34.5486   46.8237 H   0  0  0  0  0  0  0  0  0  0  0  0
   57.8860   32.5370   46.0380 C   0  0  0  0  0  0  0  0  0  0  0  0
   56.6220   32.5320   45.5480 F   0  0  0  0  0  0  0  0  0  0  0  0
   58.7060   31.4060   45.9020 C   0  0  0  0  0  0  0  0  0  0  0  0
   58.2260   30.2350   45.2190 N   0  0  0  0  0  0  0  0  0  0  0  0
   57.6310   30.2170   44.0060 C   0  0  0  0  0  0  0  0  0  0  0  0
   57.3740   31.4240   43.1570 C   0  0  0  0  0  0  0  0  0  0  0  0
   57.1887   32.2944   43.8036 H   0  0  0  0  0  0  0  0  0  0  0  0
   58.2508   31.6190   42.5220 H   0  0  0  0  0  0  0  0  0  0  0  0
   56.4938   31.2450   42.5220 H   0  0  0  0  0  0  0  0  0  0  0  0
   57.2610   28.9310   43.6740 C   0  0  0  0  0  0  0  0  0  0  0  0
   56.7250   28.6175   42.7660 H   0  0  0  0  0  0  0  0  0  0  0  0
   57.6930   28.1090   44.7020 C   0  0  0  0  0  0  0  0  0  0  0  0
   57.5690   26.7680   44.6640 C   0  0  0  0  0  0  0  0  0  0  0  0
   57.8006   26.2683   43.7118 H   0  0  0  0  0  0  0  0  0  0  0  0
   57.1500   25.9140   45.7880 C   0  0  0  0  0  0  0  0  0  0  0  0
   57.8900   24.9210   46.3140 N   0  0  0  0  0  0  0  0  0  0  0  0
   57.0510   24.3440   47.2010 C   0  0  0  0  0  0  0  0  0  0  0  0
   57.3910   23.3670   47.9190 O   0  0  0  0  0  0  0  0  0  0  0  0
   55.8170   24.8880   47.2510 N   0  0  0  0  0  0  0  0  0  0  0  0
   55.8930   25.8700   46.3390 C   0  0  0  0  0  0  0  0  0  0  0  0
   54.8330   26.7080   46.0130 O   0  0  0  0  0  0  0  0  0  0  0  0
   58.2510   28.9560   45.6740 C   0  0  0  0  0  0  0  0  0  0  0  0
   58.6060   28.6310   46.9260 C   0  0  0  0  0  0  0  0  0  0  0  0
   59.0352   29.3943   47.5917 H   0  0  0  0  0  0  0  0  0  0  0  0
   58.4679   27.6012   47.2871 H   0  0  0  0  0  0  0  0  0  0  0  0
   60.0000   31.4170   46.4410 C   0  0  0  0  0  0  0  0  0  0  0  0
   60.6378   30.5253   46.3507 H   0  0  0  0  0  0  0  0  0  0  0  0
   61.3510   32.4360   50.1720 C   0  0  0  0  0  0  0  0  0  0  0  0
   60.2952   32.7400   50.1186 H   0  0  0  0  0  0  0  0  0  0  0  0
   61.3699   31.3364   50.1937 H   0  0  0  0  0  0  0  0  0  0  0  0
   62.0130   33.0330   51.4050 C   0  0  0  0  0  0  0  0  0  0  0  0
   61.2529   33.3512   52.1337 H   0  0  0  0  0  0  0  0  0  0  0  0
   62.6596   32.3039   51.9152 H   0  0  0  0  0  0  0  0  0  0  0  0
   62.8040   34.2360   50.8990 C   0  0  0  0  0  0  0  0  0  0  0  0
   62.2061   35.1551   50.9876 H   0  0  0  0  0  0  0  0  0  0  0  0
   63.7232   34.3967   51.4815 H   0  0  0  0  0  0  0  0  0  0  0  0
  1  2  1  0
  2  3  1  0
  3  4  1  0
  3  5  1  0
  3  6  1  0
  6  7  1  6
  6  8  1  0
  8  9  1  0
  9 10  2  0
  9 11  1  0
 11 12  2  0
 12 13  1  0
 12 14  1  0
 14 15  1  0
 14 16  2  0
 16 17  1  0
 16 18  1  0
 18 19  1  0
 19 20  1  0
 20 21  1  0
 21 22  1  0
 21 23  1  0
 21 24  1  0
 20 25  2  0
 25 26  1  0
 25 27  1  0
 27 28  2  0
 28 29  1  0
 28 30  1  0
 30 31  1  0
 31 32  1  0
 32 33  2  0
 32 34  1  0
 34 35  1  0
 35 36  1  0
 27 37  1  0
 37 38  2  0
 38 39  1  0
 38 40  1  0
 18 41  2  0
 41 42  1  0
  8 43  1  0
 43 44  1  0
 43 45  1  0
 43 46  1  0
 46 47  1  0
 46 48  1  0
 46 49  1  0
 49 50  1  0
 49 51  1  0
 49  6  1  0
 41 11  1  0
 37 19  1  0
 35 30  2  0
M  CHG  3  31  -1  34  -1  36  -1
M  END
>  <UniqueID>  (54) 
51

>  <SMILES>  (54) 
C=c1/c(=C\c2[n-]c(=O)[n-]c2[O-])cc(C)n1-c1cc(C(=O)N2CCC[C@H]2CO)ccc1F

>  <Energy>  (54) 
132.6238578125995

>  <Genealogy>  (54) 
C=c1c(=Cc2[n-]c(=O)[n-]c2[O-])cc(C)n1-c1cc(C(=O)N2CCCC2CO)ccc1F (protonated)
C=c1c(=Cc2[n-]c(=O)[n-]c2[O-])cc(C)n1-c1cc(C(=O)N2CCC[C@H]2CO)ccc1F (chirality)
C=c1/c(=C\c2[n-]c(=O)[n-]c2[O-])cc(C)n1-c1cc(C(=O)N2CCC[C@H]2CO)ccc1F (cis-trans isomerization)
C=c1/c(=C\c2[n-]c(=O)[n-]c2[O-])cc(C)n1-c1cc(C(=O)N2CCC[C@H]2CO)ccc1F (3D coordinates assigned)
C=c1/c(=C\c2[n-]c(=O)[n-]c2[O-])cc(C)n1-c1cc(C(=O)N2CCC[C@H]2CO)ccc1F (nonaromatic ring conformer: 132.6238578125995 kcal/mol)

>  <smiles>  (54) 
C=c1c(=Cc2[nH]c(=O)[nH]c2O)cc(C)n1-c1cc(C(=O)N2CCCC2CO)ccc1F

>  <score_type>  (54) 
oracle

>  <origin>  (54) 
adg

>  <m_score__min__energy>  (54) 
-16.41

>  <m_primary>  (54) 
energy

$$$$
54:0
     RDKit          3D

 57 60  0  0  1  0  0  0  0  0999 V2000
   57.9350   32.1060   42.0330 C   0  0  0  0  0  0  0  0  0  0  0  0
   57.0120   31.2420   42.4040 C   0  0  0  0  0  0  0  0  0  0  0  0
   57.0650   30.4680   43.6440 C   0  0  0  0  0  0  0  0  0  0  0  0
   56.2400   30.7760   44.5330 O   0  0  0  0  0  0  0  0  0  0  0  0
   57.9830   29.4210   43.8620 N   0  0  0  0  0  0  0  0  0  0  0  0
   58.1160   28.6250   45.0010 C   0  0  0  0  0  0  0  0  0  0  0  0
   57.5140   27.4140   45.2270 C   0  0  0  0  0  0  0  0  0  0  0  0
   57.7000   26.6800   46.3990 C   0  0  0  0  0  0  0  0  0  0  0  0
   58.5130   27.1450   47.3990 C   0  0  0  0  0  0  0  0  0  0  0  0
   59.1310   28.3610   47.1940 C   0  0  0  0  0  0  0  0  0  0  0  0
   59.9810   28.8790   48.2070 N   0  0  0  0  0  0  0  0  0  0  0  0
   59.6370   29.9140   48.9320 C   0  0  0  0  0  0  0  0  0  0  0  0
   58.7390   29.8110   49.9290 N   0  0  0  0  0  0  0  0  0  0  0  0
   58.3560   30.8470   50.7010 C   0  0  0  0  0  0  0  0  0  0  0  0
   57.3990   30.6380   51.7320 N   0  0  0  0  0  0  0  0  0  0  0  0
   57.5440   29.4340   52.5270 C   0  0  0  0  0  0  0  0  0  0  0  0
   56.2680   29.0810   53.2550 C   0  0  0  0  0  0  0  0  0  0  0  0
   55.5760   30.2150   53.6770 O   0  0  0  0  0  0  0  0  0  0  0  0
   55.1280   30.8640   52.5290 C   0  0  0  0  0  0  0  0  0  0  0  0
   56.3390   31.6040   51.9520 C   0  0  0  0  0  0  0  0  0  0  0  0
   58.9170   32.0380   50.4370 N   0  0  0  0  0  0  0  0  0  0  0  0
   59.8160   32.1590   49.4430 C   0  0  0  0  0  0  0  0  0  0  0  0
   60.3190   33.3080   49.2340 N   0  0  0  0  0  0  0  0  0  0  0  0
   59.6550   34.4770   48.7500 C   0  0  0  0  0  0  0  0  0  0  0  0
   59.0750   34.2500   47.3880 C   0  0  0  0  0  0  0  0  0  0  0  0
   57.9430   33.4660   47.1980 C   0  0  0  0  0  0  0  0  0  0  0  0
   57.3930   33.2430   45.9530 C   0  0  0  0  0  0  0  0  0  0  0  0
   57.9510   33.7980   44.8460 C   0  0  0  0  0  0  0  0  0  0  0  0
   59.0750   34.5820   44.9970 C   0  0  0  0  0  0  0  0  0  0  0  0
   59.6260   34.8020   46.2500 C   0  0  0  0  0  0  0  0  0  0  0  0
   60.2000   31.1260   48.6730 N   0  0  0  0  0  0  0  0  0  0  0  0
   58.9430   29.0820   46.0360 C   0  0  0  0  0  0  0  0  0  0  0  0
   57.8272   32.6527   41.0846 H   0  0  0  0  0  0  0  0  0  0  0  0
   58.8134   32.2806   42.6717 H   0  0  0  0  0  0  0  0  0  0  0  0
   56.1478   31.0935   41.7399 H   0  0  0  0  0  0  0  0  0  0  0  0
   58.6480   29.2270   43.0540 H   0  0  0  0  0  0  0  0  0  0  0  0
   56.8544   27.0024   44.4489 H   0  0  0  0  0  0  0  0  0  0  0  0
   57.1869   25.7148   46.5218 H   0  0  0  0  0  0  0  0  0  0  0  0
   58.6664   26.5729   48.3259 H   0  0  0  0  0  0  0  0  0  0  0  0
   57.8166   28.6004   51.8631 H   0  0  0  0  0  0  0  0  0  0  0  0
   58.3261   29.6149   53.2791 H   0  0  0  0  0  0  0  0  0  0  0  0
   55.6219   28.5021   52.5787 H   0  0  0  0  0  0  0  0  0  0  0  0
   56.5368   28.4959   54.1468 H   0  0  0  0  0  0  0  0  0  0  0  0
   54.7473   30.1318   51.8017 H   0  0  0  0  0  0  0  0  0  0  0  0
   54.3069   31.5593   52.7579 H   0  0  0  0  0  0  0  0  0  0  0  0
   56.0651   32.0796   50.9987 H   0  0  0  0  0  0  0  0  0  0  0  0
   56.6754   32.3842   52.6507 H   0  0  0  0  0  0  0  0  0  0  0  0
   58.6620   32.8560   50.9920 H   0  0  0  0  0  0  0  0  0  0  0  0
   58.8444   34.7420   49.4448 H   0  0  0  0  0  0  0  0  0  0  0  0
   60.3916   35.2911   48.6819 H   0  0  0  0  0  0  0  0  0  0  0  0
   57.4667   33.0049   48.0758 H   0  0  0  0  0  0  0  0  0  0  0  0
   56.4972   32.6120   45.8560 H   0  0  0  0  0  0  0  0  0  0  0  0
   57.5156   33.6257   43.8506 H   0  0  0  0  0  0  0  0  0  0  0  0
   59.5408   35.0391   44.1115 H   0  0  0  0  0  0  0  0  0  0  0  0
   60.5237   35.4315   46.3389 H   0  0  0  0  0  0  0  0  0  0  0  0
   60.9010   31.2270   47.9000 H   0  0  0  0  0  0  0  0  0  0  0  0
   59.4581   30.0470   45.9197 H   0  0  0  0  0  0  0  0  0  0  0  0
  1  2  2  0
  2  3  1  0
  3  4  2  0
  3  5  1  0
  5  6  1  0
  6  7  2  0
  7  8  1  0
  8  9  2  0
  9 10  1  0
 10 11  1  0
 11 12  2  0
 12 13  1  0
 13 14  2  0
 14 15  1  0
 15 16  1  0
 16 17  1  0
 17 18  1  0
 18 19  1  0
 19 20  1  0
 14 21  1  0
 21 22  1  0
 22 23  2  0
 23 24  1  0
 24 25  1  0
 25 26  2  0
 26 27  1  0
 27 28  2  0
 28 29  1  0
 29 30  2  0
 22 31  1  0
 10 32  2  0
 32  6  1  0
 31 12  1  0
 20 15  1  0
 30 25  1  0
  1 33  1  0
  1 34  1  0
  2 35  1  0
  5 36  1  0
  7 37  1  0
  8 38  1  0
  9 39  1  0
 16 40  1  0
 16 41  1  0
 17 42  1  0
 17 43  1  0
 19 44  1  0
 19 45  1  0
 20 46  1  0
 20 47  1  0
 21 48  1  0
 24 49  1  0
 24 50  1  0
 26 51  1  0
 27 52  1  0
 28 53  1  0
 29 54  1  0
 30 55  1  0
 31 56  1  0
 32 57  1  0
M  END
>  <smiles>  (55) 
C=CC(=O)Nc1cccc(N=c2nc(N3CCOCC3)[nH]c(=NCc3ccccc3)[nH]2)c1

>  <score_type>  (55) 
oracle

>  <origin>  (55) 
adg

>  <m_score__min__energy>  (55) 
-9.1400000000000006

>  <m_primary>  (55) 
energy

$$$$
55:0
     RDKit          3D

 49 53  0  0  0  0  0  0  0  0999 V2000
   57.5049   29.0101   43.9846 H   0  0  0  0  0  0  0  0  0  0  0  0
   57.4240   27.9380   44.2170 C   0  0  0  0  0  0  0  0  0  0  0  0
   56.9386   27.2557   43.5037 H   0  0  0  0  0  0  0  0  0  0  0  0
   57.9180   27.4620   45.3720 C   0  0  0  0  0  0  0  0  0  0  0  0
   57.8910   26.1290   45.8070 C   0  0  0  0  0  0  0  0  0  0  0  0
   57.3480   25.0790   45.1540 C   0  0  0  0  0  0  0  0  0  0  0  0
   57.9980   24.5344   44.4533 H   0  0  0  0  0  0  0  0  0  0  0  0
   55.9550   24.5950   45.2970 C   0  0  0  0  0  0  0  0  0  0  0  0
   55.5280   23.3350   45.0940 N   0  0  0  0  0  0  0  0  0  0  0  0
   54.2070   23.3990   45.3670 C   0  0  0  0  0  0  0  0  0  0  0  0
   53.4490   22.3990   45.2860 O   0  0  0  0  0  0  0  0  0  0  0  0
   53.7640   24.6200   45.7360 N   0  0  0  0  0  0  0  0  0  0  0  0
   54.8820   25.3630   45.6880 C   0  0  0  0  0  0  0  0  0  0  0  0
   54.9210   26.7160   45.9970 O   0  0  0  0  0  0  0  0  0  0  0  0
   58.5550   26.1130   47.0290 C   0  0  0  0  0  0  0  0  0  0  0  0
   58.7375   25.2334   47.6638 H   0  0  0  0  0  0  0  0  0  0  0  0
   58.9410   27.4110   47.2930 C   0  0  0  0  0  0  0  0  0  0  0  0
   59.7080   27.8420   48.5060 C   0  0  0  0  0  0  0  0  0  0  0  0
   59.1638   27.5362   49.4117 H   0  0  0  0  0  0  0  0  0  0  0  0
   60.7016   27.3701   48.4984 H   0  0  0  0  0  0  0  0  0  0  0  0
   59.8216   28.9361   48.4984 H   0  0  0  0  0  0  0  0  0  0  0  0
   58.5620   28.2300   46.2870 N   0  0  0  0  0  0  0  0  0  0  0  0
   58.8040   29.6450   46.2230 C   0  0  0  0  0  0  0  0  0  0  0  0
   60.0980   30.1590   46.4930 C   0  0  0  0  0  0  0  0  0  0  0  0
   60.9109   29.4696   46.7650 H   0  0  0  0  0  0  0  0  0  0  0  0
   60.3540   31.5400   46.4170 C   0  0  0  0  0  0  0  0  0  0  0  0
   61.3548   31.9463   46.6253 H   0  0  0  0  0  0  0  0  0  0  0  0
   59.2930   32.3760   46.0680 C   0  0  0  0  0  0  0  0  0  0  0  0
   58.0470   31.8830   45.8060 C   0  0  0  0  0  0  0  0  0  0  0  0
   57.2720   32.9760   45.4830 C   0  0  0  0  0  0  0  0  0  0  0  0
   56.2050   32.9531   45.2165 H   0  0  0  0  0  0  0  0  0  0  0  0
   58.0500   34.0840   45.5500 N   0  0  0  0  0  0  0  0  0  0  0  0
   59.2750   33.7140   45.9130 N   0  0  0  0  0  0  0  0  0  0  0  0
   60.4030   34.6390   46.0140 C   0  0  0  0  0  0  0  0  0  0  0  0
   60.9566   34.6429   45.0635 H   0  0  0  0  0  0  0  0  0  0  0  0
   60.0227   35.6484   46.2297 H   0  0  0  0  0  0  0  0  0  0  0  0
   61.3260   34.2110   47.1270 C   0  0  0  0  0  0  0  0  0  0  0  0
   62.6380   33.8110   46.8200 C   0  0  0  0  0  0  0  0  0  0  0  0
   62.9844   33.8262   45.7761 H   0  0  0  0  0  0  0  0  0  0  0  0
   63.5050   33.3940   47.8340 C   0  0  0  0  0  0  0  0  0  0  0  0
   64.5297   33.0803   47.5859 H   0  0  0  0  0  0  0  0  0  0  0  0
   63.0720   33.3750   49.1620 C   0  0  0  0  0  0  0  0  0  0  0  0
   63.7547   33.0435   49.9583 H   0  0  0  0  0  0  0  0  0  0  0  0
   61.7720   33.7770   49.4790 C   0  0  0  0  0  0  0  0  0  0  0  0
   61.4337   33.7633   50.5256 H   0  0  0  0  0  0  0  0  0  0  0  0
   60.8990   34.1970   48.4690 C   0  0  0  0  0  0  0  0  0  0  0  0
   59.6470   34.5950   48.8070 F   0  0  0  0  0  0  0  0  0  0  0  0
   57.7570   30.5240   45.8690 C   0  0  0  0  0  0  0  0  0  0  0  0
   56.7470   30.1470   45.6506 H   0  0  0  0  0  0  0  0  0  0  0  0
  1  2  1  0
  2  3  1  0
  2  4  2  0
  4  5  1  0
  5  6  2  0
  6  7  1  0
  6  8  1  0
  8  9  1  0
  9 10  1  0
 10 11  2  0
 10 12  1  0
 12 13  1  0
 13 14  1  0
  5 15  1  0
 15 16  1  0
 15 17  2  0
 17 18  1  0
 18 19  1  0
 18 20  1  0
 18 21  1  0
 17 22  1  0
 22 23  1  0
 23 24  2  0
 24 25  1  0
 24 26  1  0
 26 27  1  0
 26 28  2  0
 28 29  1  0
 29 30  1  0
 30 31  1  0
 30 32  2  0
 32 33  1  0
 33 34  1  0
 34 35  1  0
 34 36  1  0
 34 37  1  0
 37 38  2  0
 38 39  1  0
 38 40  1  0
 40 41  1  0
 40 42  2  0
 42 43  1  0
 42 44  1  0
 44 45  1  0
 44 46  2  0
 46 47  1  0
 29 48  2  0
 48 49  1  0
 22  4  1  0
 48 23  1  0
 13  8  2  0
 33 28  1  0
 46 37  1  0
M  CHG  3   9  -1  12  -1  14  -1
M  END
>  <UniqueID>  (56) 
52

>  <SMILES>  (56) 
C=c1/c(=C/c2[n-]c(=O)[n-]c2[O-])cc(C)n1-c1ccc2c(cnn2Cc2ccccc2F)c1

>  <Energy>  (56) 
161.69899750487008

>  <Genealogy>  (56) 
C=c1c(=Cc2[n-]c(=O)[n-]c2[O-])cc(C)n1-c1ccc2c(cnn2Cc2ccccc2F)c1 (protonated)
C=c1/c(=C/c2[n-]c(=O)[n-]c2[O-])cc(C)n1-c1ccc2c(cnn2Cc2ccccc2F)c1 (cis-trans isomerization)
C=c1/c(=C/c2[n-]c(=O)[n-]c2[O-])cc(C)n1-c1ccc2c(cnn2Cc2ccccc2F)c1 (3D coordinates assigned)
C=c1/c(=C/c2[n-]c(=O)[n-]c2[O-])cc(C)n1-c1ccc2c(cnn2Cc2ccccc2F)c1 (optimized conformer: 161.69899750487008 kcal/mol)

>  <smiles>  (56) 
C=c1c(=Cc2[nH]c(=O)[nH]c2O)cc(C)n1-c1ccc2c(cnn2Cc2ccccc2F)c1

>  <score_type>  (56) 
oracle

>  <origin>  (56) 
adg

>  <m_score__min__energy>  (56) 
-17.219999999999999

>  <m_primary>  (56) 
energy

$$$$
56:0
     RDKit          3D

 32 33  0  0  0  0  0  0  0  0999 V2000
   56.4570   29.7840   42.8070 C   0  0  0  0  0  0  0  0  0  0  0  0
   56.1740   29.6010   44.0970 C   0  0  0  0  0  0  0  0  0  0  0  0
   57.1180   28.9700   45.0530 C   0  0  0  0  0  0  0  0  0  0  0  0
   56.7800   27.8260   45.7890 C   0  0  0  0  0  0  0  0  0  0  0  0
   55.5230   27.2380   45.6670 O   0  0  0  0  0  0  0  0  0  0  0  0
   57.6750   27.2960   46.6540 N   0  0  0  0  0  0  0  0  0  0  0  0
   58.8970   27.8490   46.8560 C   0  0  0  0  0  0  0  0  0  0  0  0
   59.8930   27.1080   47.9340 S   0  0  0  0  0  0  0  0  0  0  0  0
   59.2610   28.9920   46.1770 N   0  0  0  0  0  0  0  0  0  0  0  0
   60.5650   29.6530   46.4280 C   0  0  0  0  0  0  0  0  0  0  0  0
   60.4800   30.6390   47.6040 C   0  0  0  0  0  0  0  0  0  0  0  0
   60.2550   32.0520   47.1330 C   0  0  0  0  0  0  0  0  0  0  0  0
   61.3480   32.8720   46.8020 C   0  0  0  0  0  0  0  0  0  0  0  0
   61.1420   34.1990   46.4180 C   0  0  0  0  0  0  0  0  0  0  0  0
   59.8450   34.7190   46.3640 C   0  0  0  0  0  0  0  0  0  0  0  0
   59.6470   36.0090   45.9940 F   0  0  0  0  0  0  0  0  0  0  0  0
   58.7530   33.9110   46.6970 C   0  0  0  0  0  0  0  0  0  0  0  0
   58.9560   32.5830   47.0830 C   0  0  0  0  0  0  0  0  0  0  0  0
   58.3780   29.5520   45.2820 C   0  0  0  0  0  0  0  0  0  0  0  0
   58.6910   30.6000   44.6500 O   0  0  0  0  0  0  0  0  0  0  0  0
   55.7183   30.2577   42.1437 H   0  0  0  0  0  0  0  0  0  0  0  0
   57.4291   29.4612   42.4060 H   0  0  0  0  0  0  0  0  0  0  0  0
   55.1943   29.9335   44.4706 H   0  0  0  0  0  0  0  0  0  0  0  0
   54.7700   27.4850   46.2990 H   0  0  0  0  0  0  0  0  0  0  0  0
   61.3166   28.8841   46.6599 H   0  0  0  0  0  0  0  0  0  0  0  0
   60.8459   30.2158   45.5256 H   0  0  0  0  0  0  0  0  0  0  0  0
   59.6452   30.3439   48.2567 H   0  0  0  0  0  0  0  0  0  0  0  0
   61.4361   30.6073   48.1470 H   0  0  0  0  0  0  0  0  0  0  0  0
   62.3697   32.4668   46.8456 H   0  0  0  0  0  0  0  0  0  0  0  0
   62.0006   34.8355   46.1579 H   0  0  0  0  0  0  0  0  0  0  0  0
   57.7332   34.3211   46.6551 H   0  0  0  0  0  0  0  0  0  0  0  0
   58.0952   31.9517   47.3485 H   0  0  0  0  0  0  0  0  0  0  0  0
  1  2  2  0
  2  3  1  0
  3  4  2  0
  4  5  1  0
  4  6  1  0
  6  7  1  0
  7  8  2  0
  7  9  1  0
  9 10  1  0
 10 11  1  0
 11 12  1  0
 12 13  2  0
 13 14  1  0
 14 15  2  0
 15 16  1  0
 15 17  1  0
 17 18  2  0
  9 19  1  0
 19 20  2  0
 19  3  1  0
 18 12  1  0
  1 21  1  0
  1 22  1  0
  2 23  1  0
  5 24  1  0
 10 25  1  0
 10 26  1  0
 11 27  1  0
 11 28  1  0
 13 29  1  0
 14 30  1  0
 17 31  1  0
 18 32  1  0
M  CHG  1   6  -1
M  END
>  <UniqueID>  (57) 
53

>  <SMILES>  (57) 
C=Cc1c(O)[n-]c(=S)n(CCc2ccc(F)cc2)c1=O

>  <Energy>  (57) 
39.472862567604736

>  <Genealogy>  (57) 
C=Cc1c(O)[n-]c(=S)n(CCc2ccc(F)cc2)c1=O (protonated)
C=Cc1c(O)[n-]c(=S)n(CCc2ccc(F)cc2)c1=O (3D coordinates assigned)
C=Cc1c(O)[n-]c(=S)n(CCc2ccc(F)cc2)c1=O (optimized conformer: 39.472862567604736 kcal/mol)

>  <smiles>  (57) 
C=Cc1c(O)[nH]c(=S)n(CCc2ccc(F)cc2)c1=O

>  <score_type>  (57) 
oracle

>  <origin>  (57) 
adg

>  <m_score__min__energy>  (57) 
-8.8499999999999996

>  <m_primary>  (57) 
energy

$$$$
57:0
     RDKit          3D

107113  0  0  0  0  0  0  0  0999 V2000
   63.8060   34.9930   51.5620 C   0  0  0  0  0  0  0  0  0  0  0  0
   64.3720   33.6400   51.4590 N   0  0  0  0  0  0  0  0  0  0  0  0
   65.8160   33.6600   51.7900 C   0  0  0  0  0  0  0  0  0  0  0  0
   66.5810   32.4330   51.2440 C   0  0  0  0  0  0  0  0  0  0  0  0
   65.6630   31.3270   50.9430 N   0  0  0  0  0  0  0  0  0  0  0  0
   66.0180   29.9770   51.2930 C   0  0  0  0  0  0  0  0  0  0  0  0
   67.2650   29.4550   50.9100 C   0  0  0  0  0  0  0  0  0  0  0  0
   67.6340   28.1600   51.2800 C   0  0  0  0  0  0  0  0  0  0  0  0
   66.7650   27.3750   52.0370 C   0  0  0  0  0  0  0  0  0  0  0  0
   65.5180   27.8770   52.4140 C   0  0  0  0  0  0  0  0  0  0  0  0
   65.1240   29.1750   52.0300 C   0  0  0  0  0  0  0  0  0  0  0  0
   63.8710   29.7030   52.3880 O   0  0  0  0  0  0  0  0  0  0  0  0
   62.6670   28.9940   52.3150 C   0  0  0  0  0  0  0  0  0  0  0  0
   61.8590   28.8220   53.4470 C   0  0  0  0  0  0  0  0  0  0  0  0
   60.6300   28.1680   53.3340 C   0  0  0  0  0  0  0  0  0  0  0  0
   60.1930   27.7070   52.0880 C   0  0  0  0  0  0  0  0  0  0  0  0
   60.9950   27.8790   50.9490 C   0  0  0  0  0  0  0  0  0  0  0  0
   60.4630   27.5270   49.5770 C   0  0  0  0  0  0  0  0  0  0  0  0
   59.7400   28.7180   48.9170 C   0  0  1  0  0  0  0  0  0  0  0  0
   58.5800   28.2270   48.1660 N   0  0  0  0  0  0  0  0  0  0  0  0
   59.0420   27.7690   46.5500 S   0  0  0  0  0  0  0  0  0  0  0  0
   58.5600   26.3740   46.2560 O   0  0  0  0  0  0  0  0  0  0  0  0
   60.5400   27.7970   46.4360 O   0  0  0  0  0  0  0  0  0  0  0  0
   58.3450   28.9120   45.4020 C   0  0  0  0  0  0  0  0  0  0  0  0
   57.5580   28.4610   44.3330 C   0  0  0  0  0  0  0  0  0  0  0  0
   56.9290   29.3790   43.4890 C   0  0  0  0  0  0  0  0  0  0  0  0
   57.0790   30.7500   43.7090 C   0  0  0  0  0  0  0  0  0  0  0  0
   57.8570   31.2150   44.7830 C   0  0  0  0  0  0  0  0  0  0  0  0
   58.0100   32.6630   45.0300 C   0  0  0  0  0  0  0  0  0  0  0  0
   57.3570   33.4760   44.3210 O   0  0  0  0  0  0  0  0  0  0  0  0
   58.9010   33.1640   46.0450 N   0  0  0  0  0  0  0  0  0  0  0  0
   58.5130   34.3140   46.8670 C   0  0  0  0  0  0  0  0  0  0  0  0
   59.7410   35.1880   47.1380 C   0  0  0  0  0  0  0  0  0  0  0  0
   60.8040   34.4170   47.6610 O   0  0  0  0  0  0  0  0  0  0  0  0
   61.2410   33.4810   46.6930 C   0  0  0  0  0  0  0  0  0  0  0  0
   60.1410   32.4600   46.3890 C   0  0  0  0  0  0  0  0  0  0  0  0
   58.5010   30.2870   45.6160 C   0  0  0  0  0  0  0  0  0  0  0  0
   59.3020   29.7340   49.9410 C   0  0  0  0  0  0  0  0  0  0  0  0
   58.4000   29.4280   50.7650 O   0  0  0  0  0  0  0  0  0  0  0  0
   59.8480   31.0590   49.9580 N   0  0  0  0  0  0  0  0  0  0  0  0
   61.1330   31.2970   50.6360 C   0  0  0  0  0  0  0  0  0  0  0  0
   61.0970   32.5440   51.5510 C   0  0  0  0  0  0  0  0  0  0  0  0
   59.6840   33.1820   51.6480 C   0  0  0  0  0  0  0  0  0  0  0  0
   58.6940   32.2940   52.3350 N   0  0  0  0  0  0  0  0  0  0  0  0
   57.2980   32.7230   52.0930 C   0  0  0  0  0  0  0  0  0  0  0  0
   56.3140   31.6220   52.5230 C   0  0  0  0  0  0  0  0  0  0  0  0
   56.8300   30.8040   53.7150 C   0  0  0  0  0  0  0  0  0  0  0  0
   57.7480   31.6460   54.6000 C   0  0  0  0  0  0  0  0  0  0  0  0
   58.9500   32.1920   53.7980 C   0  0  0  0  0  0  0  0  0  0  0  0
   59.2730   33.4750   50.1880 C   0  0  0  0  0  0  0  0  0  0  0  0
   59.0400   32.1650   49.4170 C   0  0  0  0  0  0  0  0  0  0  0  0
   62.2630   28.4710   51.0850 C   0  0  0  0  0  0  0  0  0  0  0  0
   64.4640   31.5820   50.1360 C   0  0  0  0  0  0  0  0  0  0  0  0
   64.1290   33.0780   50.1200 C   0  0  0  0  0  0  0  0  0  0  0  0
   63.6929   35.2634   52.6222 H   0  0  0  0  0  0  0  0  0  0  0  0
   64.4794   35.7106   51.0704 H   0  0  0  0  0  0  0  0  0  0  0  0
   62.8223   35.0173   51.0704 H   0  0  0  0  0  0  0  0  0  0  0  0
   66.2610   34.5695   51.3602 H   0  0  0  0  0  0  0  0  0  0  0  0
   65.9012   33.6379   52.8865 H   0  0  0  0  0  0  0  0  0  0  0  0
   67.1107   32.7205   50.3238 H   0  0  0  0  0  0  0  0  0  0  0  0
   67.2932   32.0961   52.0116 H   0  0  0  0  0  0  0  0  0  0  0  0
   67.9553   30.0706   50.3146 H   0  0  0  0  0  0  0  0  0  0  0  0
   68.6114   27.7587   50.9739 H   0  0  0  0  0  0  0  0  0  0  0  0
   67.0622   26.3594   52.3374 H   0  0  0  0  0  0  0  0  0  0  0  0
   64.8380   27.2553   53.0150 H   0  0  0  0  0  0  0  0  0  0  0  0
   62.1925   29.2018   54.4240 H   0  0  0  0  0  0  0  0  0  0  0  0
   60.0050   28.0153   54.2262 H   0  0  0  0  0  0  0  0  0  0  0  0
   59.2168   27.2076   52.0003 H   0  0  0  0  0  0  0  0  0  0  0  0
   61.3042   27.2227   48.9368 H   0  0  0  0  0  0  0  0  0  0  0  0
   59.7364   26.7093   49.6929 H   0  0  0  0  0  0  0  0  0  0  0  0
   60.4435   29.2157   48.2334 H   0  0  0  0  0  0  0  0  0  0  0  0
   57.4356   27.3818   44.1586 H   0  0  0  0  0  0  0  0  0  0  0  0
   56.3145   29.0216   42.6496 H   0  0  0  0  0  0  0  0  0  0  0  0
   56.5859   31.4692   43.0385 H   0  0  0  0  0  0  0  0  0  0  0  0
   57.7531   34.9049   46.3347 H   0  0  0  0  0  0  0  0  0  0  0  0
   58.0994   33.9580   47.8221 H   0  0  0  0  0  0  0  0  0  0  0  0
   60.0648   35.6559   46.1966 H   0  0  0  0  0  0  0  0  0  0  0  0
   59.4688   35.9571   47.8759 H   0  0  0  0  0  0  0  0  0  0  0  0
   61.5033   34.0149   45.7677 H   0  0  0  0  0  0  0  0  0  0  0  0
   62.1178   32.9476   47.0888 H   0  0  0  0  0  0  0  0  0  0  0  0
   60.4507   31.8285   45.5433 H   0  0  0  0  0  0  0  0  0  0  0  0
   59.9710   31.8300   47.2746 H   0  0  0  0  0  0  0  0  0  0  0  0
   59.1330   30.6425   46.4432 H   0  0  0  0  0  0  0  0  0  0  0  0
   61.3772   30.4166   51.2487 H   0  0  0  0  0  0  0  0  0  0  0  0
   61.8930   31.4728   49.8605 H   0  0  0  0  0  0  0  0  0  0  0  0
   61.4185   32.2480   52.5605 H   0  0  0  0  0  0  0  0  0  0  0  0
   61.7691   33.2956   51.1112 H   0  0  0  0  0  0  0  0  0  0  0  0
   59.7040   34.0941   52.2625 H   0  0  0  0  0  0  0  0  0  0  0  0
   57.0946   33.6363   52.6713 H   0  0  0  0  0  0  0  0  0  0  0  0
   57.1668   32.9175   51.0183 H   0  0  0  0  0  0  0  0  0  0  0  0
   55.3601   32.0919   52.8044 H   0  0  0  0  0  0  0  0  0  0  0  0
   56.1913   30.9336   51.6738 H   0  0  0  0  0  0  0  0  0  0  0  0
   55.9732   30.4579   54.3118 H   0  0  0  0  0  0  0  0  0  0  0  0
   57.4028   29.9472   53.3306 H   0  0  0  0  0  0  0  0  0  0  0  0
   57.1755   32.4916   55.0088 H   0  0  0  0  0  0  0  0  0  0  0  0
   58.1308   31.0087   55.4108 H   0  0  0  0  0  0  0  0  0  0  0  0
   59.1955   33.1944   54.1787 H   0  0  0  0  0  0  0  0  0  0  0  0
   59.7772   31.4793   53.9316 H   0  0  0  0  0  0  0  0  0  0  0  0
   58.3451   34.0657   50.1854 H   0  0  0  0  0  0  0  0  0  0  0  0
   60.0827   34.0354   49.6977 H   0  0  0  0  0  0  0  0  0  0  0  0
   57.9758   31.8955   49.4870 H   0  0  0  0  0  0  0  0  0  0  0  0
   59.3398   32.3267   48.3711 H   0  0  0  0  0  0  0  0  0  0  0  0
   62.9394   28.5223   50.2191 H   0  0  0  0  0  0  0  0  0  0  0  0
   64.6432   31.2411   49.1056 H   0  0  0  0  0  0  0  0  0  0  0  0
   63.6179   31.0350   50.5775 H   0  0  0  0  0  0  0  0  0  0  0  0
   64.7662   33.5904   49.3842 H   0  0  0  0  0  0  0  0  0  0  0  0
   63.0733   33.2186   49.8449 H   0  0  0  0  0  0  0  0  0  0  0  0
  1  2  1  0
  2  3  1  0
  3  4  1  0
  4  5  1  0
  5  6  1  0
  6  7  2  0
  7  8  1  0
  8  9  2  0
  9 10  1  0
 10 11  2  0
 11 12  1  0
 12 13  1  0
 13 14  2  0
 14 15  1  0
 15 16  2  0
 16 17  1  0
 17 18  1  0
 18 19  1  0
 19 20  1  0
 20 21  1  0
 21 22  2  0
 21 23  2  0
 21 24  1  0
 24 25  2  0
 25 26  1  0
 26 27  2  0
 27 28  1  0
 28 29  1  0
 29 30  2  0
 29 31  1  0
 31 32  1  0
 32 33  1  0
 33 34  1  0
 34 35  1  0
 35 36  1  0
 28 37  2  0
 19 38  1  0
 38 39  2  0
 38 40  1  0
 40 41  1  0
 41 42  1  0
 42 43  1  0
 43 44  1  0
 44 45  1  0
 45 46  1  0
 46 47  1  0
 47 48  1  0
 48 49  1  0
 43 50  1  0
 50 51  1  0
 17 52  2  0
  5 53  1  0
 53 54  1  0
 54  2  1  0
 11  6  1  0
 52 13  1  0
 37 24  1  0
 51 40  1  0
 36 31  1  0
 49 44  1  0
  1 55  1  0
  1 56  1  0
  1 57  1  0
  3 58  1  0
  3 59  1  0
  4 60  1  0
  4 61  1  0
  7 62  1  0
  8 63  1  0
  9 64  1  0
 10 65  1  0
 14 66  1  0
 15 67  1  0
 16 68  1  0
 18 69  1  0
 18 70  1  0
 19 71  1  6
 25 72  1  0
 26 73  1  0
 27 74  1  0
 32 75  1  0
 32 76  1  0
 33 77  1  0
 33 78  1  0
 35 79  1  0
 35 80  1  0
 36 81  1  0
 36 82  1  0
 37 83  1  0
 41 84  1  0
 41 85  1  0
 42 86  1  0
 42 87  1  0
 43 88  1  0
 45 89  1  0
 45 90  1  0
 46 91  1  0
 46 92  1  0
 47 93  1  0
 47 94  1  0
 48 95  1  0
 48 96  1  0
 49 97  1  0
 49 98  1  0
 50 99  1  0
 50100  1  0
 51101  1  0
 51102  1  0
 52103  1  0
 53104  1  0
 53105  1  0
 54106  1  0
 54107  1  0
M  CHG  1  20  -1
M  END
>  <UniqueID>  (58) 
54

>  <SMILES>  (58) 
CN1CCN(c2ccccc2Oc2cccc(C[C@@H]([N-]S(=O)(=O)c3cccc(C(=O)N4CCOCC4)c3)C(=O)N3CCC(N4CCCCC4)CC3)c2)CC1

>  <Energy>  (58) 
150.08292158543557

>  <Genealogy>  (58) 
CN1CCN(c2ccccc2Oc2cccc(CC([N-]S(=O)(=O)c3cccc(C(=O)N4CCOCC4)c3)C(=O)N3CCC(N4CCCCC4)CC3)c2)CC1 (protonated)
CN1CCN(c2ccccc2Oc2cccc(C[C@@H]([N-]S(=O)(=O)c3cccc(C(=O)N4CCOCC4)c3)C(=O)N3CCC(N4CCCCC4)CC3)c2)CC1 (chirality)
CN1CCN(c2ccccc2Oc2cccc(C[C@@H]([N-]S(=O)(=O)c3cccc(C(=O)N4CCOCC4)c3)C(=O)N3CCC(N4CCCCC4)CC3)c2)CC1 (3D coordinates assigned)
CN1CCN(c2ccccc2Oc2cccc(C[C@@H]([N-]S(=O)(=O)c3cccc(C(=O)N4CCOCC4)c3)C(=O)N3CCC(N4CCCCC4)CC3)c2)CC1 (nonaromatic ring conformer: 150.08292158543557 kcal/mol)

>  <smiles>  (58) 
CN1CCN(c2ccccc2Oc2cccc(CC(NS(=O)(=O)c3cccc(C(=O)N4CCOCC4)c3)C(=O)N3CCC(N4CCCCC4)CC3)c2)CC1

>  <score_type>  (58) 
oracle

>  <origin>  (58) 
adg

>  <m_score__min__energy>  (58) 
-14.26

>  <m_primary>  (58) 
energy

$$$$
58:0
     RDKit          3D

 51 54  0  0  0  0  0  0  0  0999 V2000
   54.8020   26.3290   46.0120 N   0  0  0  0  0  0  0  0  0  0  0  0
   55.8830   25.4310   46.2590 C   0  0  0  0  0  0  0  0  0  0  0  0
   55.6320   24.2160   46.4820 O   0  0  0  0  0  0  0  0  0  0  0  0
   57.2840   25.9180   46.2550 C   0  0  0  0  0  0  0  0  0  0  0  0
   58.3530   25.0060   46.2970 C   0  0  0  0  0  0  0  0  0  0  0  0
   59.6720   25.4600   46.2800 C   0  0  0  0  0  0  0  0  0  0  0  0
   59.9430   26.8280   46.2310 C   0  0  0  0  0  0  0  0  0  0  0  0
   58.8940   27.7620   46.2030 C   0  0  0  0  0  0  0  0  0  0  0  0
   59.1980   29.2130   46.1560 C   0  0  0  0  0  0  0  0  0  0  0  0
   60.4000   29.5940   46.2130 O   0  0  0  0  0  0  0  0  0  0  0  0
   58.1460   30.1890   46.0660 N   0  0  0  0  0  0  0  0  0  0  0  0
   58.4330   31.6190   45.9300 C   0  0  0  0  0  0  0  0  0  0  0  0
   58.4740   32.2890   47.3170 C   0  0  0  0  0  0  0  0  0  0  0  0
   58.0260   33.7680   47.3090 C   0  0  0  0  0  0  0  0  0  0  0  0
   58.2510   34.4570   46.0190 N   0  0  0  0  0  0  0  0  0  0  0  0
   59.5420   35.1680   45.8920 C   0  0  0  0  0  0  0  0  0  0  0  0
   60.6320   34.5670   46.7360 C   0  0  0  0  0  0  0  0  0  0  0  0
   61.7070   33.8230   46.2540 C   0  0  0  0  0  0  0  0  0  0  0  0
   62.3920   33.4220   47.3790 C   0  0  0  0  0  0  0  0  0  0  0  0
   63.5240   32.6190   47.5130 C   0  0  0  0  0  0  0  0  0  0  0  0
   63.9830   32.3460   48.8140 C   0  0  0  0  0  0  0  0  0  0  0  0
   63.3060   32.8730   49.9390 C   0  0  0  0  0  0  0  0  0  0  0  0
   63.8860   32.5120   51.5540 Cl  0  0  0  0  0  0  0  0  0  0  0  0
   62.1640   33.6800   49.7690 C   0  0  0  0  0  0  0  0  0  0  0  0
   61.7360   33.9350   48.4670 C   0  0  0  0  0  0  0  0  0  0  0  0
   60.6630   34.6470   48.0870 N   0  0  0  0  0  0  0  0  0  0  0  0
   57.7840   33.7600   44.7950 C   0  0  0  0  0  0  0  0  0  0  0  0
   57.3930   32.2940   45.0370 C   0  0  0  0  0  0  0  0  0  0  0  0
   57.5660   27.2960   46.2020 C   0  0  0  0  0  0  0  0  0  0  0  0
   54.5580   27.0780   46.6980 H   0  0  0  0  0  0  0  0  0  0  0  0
   58.1479   23.9263   46.3436 H   0  0  0  0  0  0  0  0  0  0  0  0
   60.5010   24.7374   46.3053 H   0  0  0  0  0  0  0  0  0  0  0  0
   60.9858   27.1776   46.2142 H   0  0  0  0  0  0  0  0  0  0  0  0
   57.1600   29.8970   46.2480 H   0  0  0  0  0  0  0  0  0  0  0  0
   59.4189   31.7346   45.4561 H   0  0  0  0  0  0  0  0  0  0  0  0
   57.8101   31.7292   47.9923 H   0  0  0  0  0  0  0  0  0  0  0  0
   59.5225   32.2738   47.6492 H   0  0  0  0  0  0  0  0  0  0  0  0
   56.9508   33.8052   47.5383 H   0  0  0  0  0  0  0  0  0  0  0  0
   58.6370   34.2901   48.0600 H   0  0  0  0  0  0  0  0  0  0  0  0
   59.8571   35.1361   44.8386 H   0  0  0  0  0  0  0  0  0  0  0  0
   59.3850   36.1983   46.2439 H   0  0  0  0  0  0  0  0  0  0  0  0
   61.9542   33.6040   45.2047 H   0  0  0  0  0  0  0  0  0  0  0  0
   64.0406   32.2128   46.6309 H   0  0  0  0  0  0  0  0  0  0  0  0
   64.8747   31.7183   48.9580 H   0  0  0  0  0  0  0  0  0  0  0  0
   61.6277   34.0952   50.6350 H   0  0  0  0  0  0  0  0  0  0  0  0
   59.9780   35.1340   48.7070 H   0  0  0  0  0  0  0  0  0  0  0  0
   56.9061   34.2946   44.4033 H   0  0  0  0  0  0  0  0  0  0  0  0
   58.6227   33.7583   44.0833 H   0  0  0  0  0  0  0  0  0  0  0  0
   56.4098   32.2551   45.5287 H   0  0  0  0  0  0  0  0  0  0  0  0
   57.3474   31.7674   44.0723 H   0  0  0  0  0  0  0  0  0  0  0  0
   56.7374   28.0183   46.1592 H   0  0  0  0  0  0  0  0  0  0  0  0
  1  2  1  0
  2  3  2  0
  2  4  1  0
  4  5  2  0
  5  6  1  0
  6  7  2  0
  7  8  1  0
  8  9  1  0
  9 10  2  0
  9 11  1  0
 11 12  1  0
 12 13  1  0
 13 14  1  0
 14 15  1  0
 15 16  1  0
 16 17  1  0
 17 18  2  0
 18 19  1  0
 19 20  2  0
 20 21  1  0
 21 22  2  0
 22 23  1  0
 22 24  1  0
 24 25  2  0
 25 26  1  0
 15 27  1  0
 27 28  1  0
  8 29  2  0
 29  4  1  0
 28 12  1  0
 26 17  1  0
 25 19  1  0
  1 30  1  0
  5 31  1  0
  6 32  1  0
  7 33  1  0
 11 34  1  0
 12 35  1  0
 13 36  1  0
 13 37  1  0
 14 38  1  0
 14 39  1  0
 16 40  1  0
 16 41  1  0
 18 42  1  0
 20 43  1  0
 21 44  1  0
 24 45  1  0
 26 46  1  0
 27 47  1  0
 27 48  1  0
 28 49  1  0
 28 50  1  0
 29 51  1  0
M  CHG  1   1  -1
M  END
>  <UniqueID>  (59) 
55

>  <SMILES>  (59) 
[NH-]C(=O)c1cccc(C(=O)NC2CCN(Cc3cc4ccc(Cl)cc4[nH]3)CC2)c1

>  <Energy>  (59) 
97.70686927721862

>  <Genealogy>  (59) 
[NH-]C(=O)c1cccc(C(=O)NC2CCN(Cc3cc4ccc(Cl)cc4[nH]3)CC2)c1 (protonated)
[NH-]C(=O)c1cccc(C(=O)NC2CCN(Cc3cc4ccc(Cl)cc4[nH]3)CC2)c1 (3D coordinates assigned)
[NH-]C(=O)c1cccc(C(=O)NC2CCN(Cc3cc4ccc(Cl)cc4[nH]3)CC2)c1 (nonaromatic ring conformer: 97.70686927721862 kcal/mol)

>  <smiles>  (59) 
NC(=O)c1cccc(C(=O)NC2CCN(Cc3cc4ccc(Cl)cc4[nH]3)CC2)c1

>  <score_type>  (59) 
oracle

>  <origin>  (59) 
adg

>  <m_score__min__energy>  (59) 
-13.67

>  <m_primary>  (59) 
energy

$$$$
59:0
     RDKit          3D

 64 67  0  0  0  0  0  0  0  0999 V2000
   59.0078   34.7882   44.6893 H   0  0  0  0  0  0  0  0  0  0  0  0
   59.5910   34.9550   45.6070 C   0  0  0  0  0  0  0  0  0  0  0  0
   60.4846   35.5960   45.5819 H   0  0  0  0  0  0  0  0  0  0  0  0
   59.2140   34.3790   46.7520 C   0  0  0  0  0  0  0  0  0  0  0  0
   58.3190   33.7397   46.7669 H   0  0  0  0  0  0  0  0  0  0  0  0
   59.9920   34.5900   48.0190 C   0  0  0  0  0  0  0  0  0  0  0  0
   61.0164   34.2137   47.8808 H   0  0  0  0  0  0  0  0  0  0  0  0
   60.0087   35.6655   48.2492 H   0  0  0  0  0  0  0  0  0  0  0  0
   59.3650   33.8790   49.1350 N   0  0  0  0  0  0  0  0  0  0  0  0
   59.3990   32.5870   49.3150 C   0  0  0  0  0  0  0  0  0  0  0  0
   58.6200   31.7020   48.4940 N   0  0  0  0  0  0  0  0  0  0  0  0
   59.0530   30.5940   47.9610 C   0  0  0  0  0  0  0  0  0  0  0  0
   58.5270   29.4160   48.3890 N   0  0  0  0  0  0  0  0  0  0  0  0
   58.9100   28.2180   47.8700 C   0  0  0  0  0  0  0  0  0  0  0  0
   58.4624   27.2869   48.2477 H   0  0  0  0  0  0  0  0  0  0  0  0
   59.8720   28.1700   46.8570 C   0  0  0  0  0  0  0  0  0  0  0  0
   60.3540   26.6070   46.1180 S   0  0  0  0  0  0  0  0  0  0  0  0
   58.6970   25.9180   46.2370 C   0  0  0  0  0  0  0  0  0  0  0  0
   58.4970   24.8740   47.0860 N   0  0  0  0  0  0  0  0  0  0  0  0
   57.2700   24.3210   47.2770 C   0  0  0  0  0  0  0  0  0  0  0  0
   57.1515   23.4689   47.9625 H   0  0  0  0  0  0  0  0  0  0  0  0
   56.1630   24.8330   46.6050 C   0  0  0  0  0  0  0  0  0  0  0  0
   55.1663   24.3949   46.7622 H   0  0  0  0  0  0  0  0  0  0  0  0
   56.3300   25.9050   45.7320 C   0  0  0  0  0  0  0  0  0  0  0  0
   55.4598   26.3213   45.2033 H   0  0  0  0  0  0  0  0  0  0  0  0
   57.6020   26.4560   45.5240 C   0  0  0  0  0  0  0  0  0  0  0  0
   57.7400   27.6200   44.6300 C   0  0  0  0  0  0  0  0  0  0  0  0
   58.2630   27.4760   43.4930 O   0  0  0  0  0  0  0  0  0  0  0  0
   57.3340   28.9180   45.0910 N   0  0  0  0  0  0  0  0  0  0  0  0
   57.1090   29.0220   46.1060 H   0  0  0  0  0  0  0  0  0  0  0  0
   57.4270   30.1190   44.3060 C   0  0  0  0  0  0  0  0  0  0  0  0
   58.0430   31.2810   44.8080 C   0  0  0  0  0  0  0  0  0  0  0  0
   58.4438   31.2902   45.8324 H   0  0  0  0  0  0  0  0  0  0  0  0
   58.1470   32.4230   44.0090 C   0  0  0  0  0  0  0  0  0  0  0  0
   58.6181   33.3323   44.4106 H   0  0  0  0  0  0  0  0  0  0  0  0
   57.6540   32.4130   42.7010 C   0  0  0  0  0  0  0  0  0  0  0  0
   57.7360   33.3139   42.0751 H   0  0  0  0  0  0  0  0  0  0  0  0
   57.0570   31.2580   42.1890 C   0  0  0  0  0  0  0  0  0  0  0  0
   56.6732   31.2485   41.1582 H   0  0  0  0  0  0  0  0  0  0  0  0
   56.9470   30.1140   42.9860 C   0  0  0  0  0  0  0  0  0  0  0  0
   56.4819   29.2051   42.5767 H   0  0  0  0  0  0  0  0  0  0  0  0
   60.4590   29.3610   46.4260 C   0  0  0  0  0  0  0  0  0  0  0  0
   61.2448   29.3384   45.6566 H   0  0  0  0  0  0  0  0  0  0  0  0
   60.0520   30.5780   46.9680 C   0  0  0  0  0  0  0  0  0  0  0  0
   60.5068   31.5185   46.6235 H   0  0  0  0  0  0  0  0  0  0  0  0
   60.1950   32.0300   50.3670 N   0  0  0  0  0  0  0  0  0  0  0  0
   60.1820   30.9940   50.4940 H   0  0  0  0  0  0  0  0  0  0  0  0
   61.0390   32.8630   51.2250 C   0  0  0  0  0  0  0  0  0  0  0  0
   60.8012   33.9209   51.0399 H   0  0  0  0  0  0  0  0  0  0  0  0
   60.8380   32.5909   52.2717 H   0  0  0  0  0  0  0  0  0  0  0  0
   62.5320   32.6330   50.9490 C   0  0  0  0  0  0  0  0  0  0  0  0
   63.1158   33.3728   51.5163 H   0  0  0  0  0  0  0  0  0  0  0  0
   62.7800   31.6070   51.2587 H   0  0  0  0  0  0  0  0  0  0  0  0
   62.8650   32.7700   49.4840 C   0  0  0  0  0  0  0  0  0  0  0  0
   62.9330   31.6310   48.6600 C   0  0  0  0  0  0  0  0  0  0  0  0
   62.7390   30.6351   49.0850 H   0  0  0  0  0  0  0  0  0  0  0  0
   63.2460   31.7600   47.3040 C   0  0  0  0  0  0  0  0  0  0  0  0
   63.3044   30.8656   46.6663 H   0  0  0  0  0  0  0  0  0  0  0  0
   63.4850   33.0240   46.7570 C   0  0  0  0  0  0  0  0  0  0  0  0
   63.7323   33.1233   45.6898 H   0  0  0  0  0  0  0  0  0  0  0  0
   63.4100   34.1610   47.5650 C   0  0  0  0  0  0  0  0  0  0  0  0
   63.5921   35.1555   47.1317 H   0  0  0  0  0  0  0  0  0  0  0  0
   63.1040   34.0370   48.9230 C   0  0  0  0  0  0  0  0  0  0  0  0
   63.0499   34.9349   49.5561 H   0  0  0  0  0  0  0  0  0  0  0  0
  1  2  1  0
  2  3  1  0
  2  4  2  0
  4  5  1  0
  4  6  1  0
  6  7  1  0
  6  8  1  0
  6  9  1  0
  9 10  2  0
 10 11  1  0
 11 12  2  0
 12 13  1  0
 13 14  1  0
 14 15  1  0
 14 16  2  0
 16 17  1  0
 17 18  1  0
 18 19  2  0
 19 20  1  0
 20 21  1  0
 20 22  2  0
 22 23  1  0
 22 24  1  0
 24 25  1  0
 24 26  2  0
 26 27  1  0
 27 28  2  0
 27 29  1  0
 29 30  1  0
 29 31  1  0
 31 32  2  0
 32 33  1  0
 32 34  1  0
 34 35  1  0
 34 36  2  0
 36 37  1  0
 36 38  1  0
 38 39  1  0
 38 40  2  0
 40 41  1  0
 16 42  1  0
 42 43  1  0
 42 44  2  0
 44 45  1  0
 10 46  1  0
 46 47  1  0
 46 48  1  0
 48 49  1  0
 48 50  1  0
 48 51  1  0
 51 52  1  0
 51 53  1  0
 51 54  1  0
 54 55  2  0
 55 56  1  0
 55 57  1  0
 57 58  1  0
 57 59  2  0
 59 60  1  0
 59 61  1  0
 61 62  1  0
 61 63  2  0
 63 64  1  0
 44 12  1  0
 63 54  1  0
 26 18  1  0
 40 31  1  0
M  CHG  1  13  -1
M  END
>  <UniqueID>  (60) 
56

>  <SMILES>  (60) 
C=CCN=C(/N=c1\ccc(Sc2ncccc2C(=O)Nc2ccccc2)c[n-]1)NCCc1ccccc1

>  <Energy>  (60) 
74.6511379688227

>  <Genealogy>  (60) 
C=CCN=C(N=c1ccc(Sc2ncccc2C(=O)Nc2ccccc2)c[n-]1)NCCc1ccccc1 (protonated)
C=CCN=C(/N=c1\ccc(Sc2ncccc2C(=O)Nc2ccccc2)c[n-]1)NCCc1ccccc1 (cis-trans isomerization)
C=CCN=C(/N=c1\ccc(Sc2ncccc2C(=O)Nc2ccccc2)c[n-]1)NCCc1ccccc1 (3D coordinates assigned)
C=CCN=C(/N=c1\ccc(Sc2ncccc2C(=O)Nc2ccccc2)c[n-]1)NCCc1ccccc1 (optimized conformer: 74.6511379688227 kcal/mol)

>  <smiles>  (60) 
C=CCN=C(N=c1ccc(Sc2ncccc2C(=O)Nc2ccccc2)c[nH]1)NCCc1ccccc1

>  <score_type>  (60) 
oracle

>  <origin>  (60) 
adg

>  <m_score__min__energy>  (60) 
-11.31

>  <m_primary>  (60) 
energy

$$$$
60:0
     RDKit          3D

 38 39  0  0  0  0  0  0  0  0999 V2000
   57.2740   24.6490   43.1740 C   0  0  0  0  0  0  0  0  0  0  0  0
   57.9250   25.1280   44.3930 N   0  0  0  0  0  0  0  0  0  0  0  0
   58.2320   26.4080   44.6960 C   0  0  0  0  0  0  0  0  0  0  0  0
   57.8050   27.8410   43.6960 S   0  0  0  0  0  0  0  0  0  0  0  0
   57.5070   28.9460   45.1190 C   0  0  0  0  0  0  0  0  0  0  0  0
   56.3110   29.8080   44.8780 C   0  0  0  0  0  0  0  0  0  0  0  0
   55.1550   29.3050   44.9140 O   0  0  0  0  0  0  0  0  0  0  0  0
   56.4930   31.1890   44.5480 N   0  0  0  0  0  0  0  0  0  0  0  0
   57.5800   32.0070   45.0770 C   0  0  0  0  0  0  0  0  0  0  0  0
   58.2750   32.7960   43.9760 C   0  0  0  0  0  0  0  0  0  0  0  0
   58.7670   34.0810   44.6330 C   0  0  0  0  0  0  0  0  0  0  0  0
   58.0410   34.2030   45.9720 C   0  0  0  0  0  0  0  0  0  0  0  0
   57.0400   33.0580   46.0320 C   0  0  0  0  0  0  0  0  0  0  0  0
   58.9310   26.4680   45.8850 C   0  0  0  0  0  0  0  0  0  0  0  0
   59.0620   25.1680   46.3280 C   0  0  0  0  0  0  0  0  0  0  0  0
   58.4430   24.3710   45.3840 C   0  0  0  0  0  0  0  0  0  0  0  0
   58.3630   22.6140   45.4580 S   0  0  0  0  0  0  0  0  0  0  0  0
   59.9630   21.9580   45.4550 N   0  0  0  0  0  0  0  0  0  0  0  0
   57.5990   22.0970   44.2730 O   0  0  0  0  0  0  0  0  0  0  0  0
   57.6610   22.1930   46.7190 O   0  0  0  0  0  0  0  0  0  0  0  0
   56.4146   24.0167   43.4415 H   0  0  0  0  0  0  0  0  0  0  0  0
   56.9266   25.5085   42.5819 H   0  0  0  0  0  0  0  0  0  0  0  0
   57.9912   24.0616   42.5819 H   0  0  0  0  0  0  0  0  0  0  0  0
   57.3376   28.3372   46.0194 H   0  0  0  0  0  0  0  0  0  0  0  0
   58.3867   29.5923   45.2546 H   0  0  0  0  0  0  0  0  0  0  0  0
   58.2725   31.3080   45.5688 H   0  0  0  0  0  0  0  0  0  0  0  0
   59.1228   32.2237   43.5714 H   0  0  0  0  0  0  0  0  0  0  0  0
   57.5952   33.0049   43.1368 H   0  0  0  0  0  0  0  0  0  0  0  0
   59.8537   34.0303   44.7955 H   0  0  0  0  0  0  0  0  0  0  0  0
   58.5621   34.9526   43.9940 H   0  0  0  0  0  0  0  0  0  0  0  0
   58.7591   34.1228   46.8014 H   0  0  0  0  0  0  0  0  0  0  0  0
   57.5355   35.1759   46.0611 H   0  0  0  0  0  0  0  0  0  0  0  0
   56.9759   32.6547   47.0534 H   0  0  0  0  0  0  0  0  0  0  0  0
   56.0262   33.3830   45.7554 H   0  0  0  0  0  0  0  0  0  0  0  0
   59.3091   27.3739   46.3814 H   0  0  0  0  0  0  0  0  0  0  0  0
   59.5602   24.8326   47.2496 H   0  0  0  0  0  0  0  0  0  0  0  0
   59.8720   20.9300   45.2940 H   0  0  0  0  0  0  0  0  0  0  0  0
   60.4540   22.3520   44.6220 H   0  0  0  0  0  0  0  0  0  0  0  0
  1  2  1  0
  2  3  1  0
  3  4  1  0
  4  5  1  0
  5  6  1  0
  6  7  2  0
  6  8  1  0
  8  9  1  0
  9 10  1  0
 10 11  1  0
 11 12  1  0
 12 13  1  0
  3 14  2  0
 14 15  1  0
 15 16  2  0
 16 17  1  0
 17 18  1  0
 17 19  2  0
 17 20  2  0
 16  2  1  0
 13  9  1  0
  1 21  1  0
  1 22  1  0
  1 23  1  0
  5 24  1  0
  5 25  1  0
  9 26  1  0
 10 27  1  0
 10 28  1  0
 11 29  1  0
 11 30  1  0
 12 31  1  0
 12 32  1  0
 13 33  1  0
 13 34  1  0
 14 35  1  0
 15 36  1  0
 18 37  1  0
 18 38  1  0
M  CHG  1   8  -1
M  END
>  <UniqueID>  (61) 
57

>  <SMILES>  (61) 
Cn1c(SCC(=O)[N-]C2CCCC2)ccc1S(N)(=O)=O

>  <Energy>  (61) 
52.636881672281866

>  <Genealogy>  (61) 
Cn1c(SCC(=O)[N-]C2CCCC2)ccc1S(N)(=O)=O (protonated)
Cn1c(SCC(=O)[N-]C2CCCC2)ccc1S(N)(=O)=O (3D coordinates assigned)
Cn1c(SCC(=O)[N-]C2CCCC2)ccc1S(N)(=O)=O (nonaromatic ring conformer: 52.636881672281866 kcal/mol)

>  <smiles>  (61) 
Cn1c(SCC(=O)NC2CCCC2)ccc1S(N)(=O)=O

>  <score_type>  (61) 
oracle

>  <origin>  (61) 
adg

>  <m_score__min__energy>  (61) 
-9.1300000000000008

>  <m_primary>  (61) 
energy

$$$$
61:0
     RDKit          3D

 43 45  0  0  0  0  0  0  0  0999 V2000
   54.9460   26.3380   46.0890 O   0  0  0  0  0  0  0  0  0  0  0  0
   56.0500   25.7590   45.9140 C   0  0  0  0  0  0  0  0  0  0  0  0
   57.2220   26.3020   46.5400 N   0  0  0  0  0  0  0  0  0  0  0  0
   57.9570   27.4570   46.1090 C   0  0  0  0  0  0  0  0  0  0  0  0
   59.3620   27.4850   46.1170 C   0  0  0  0  0  0  0  0  0  0  0  0
   60.0430   28.6230   45.6800 C   0  0  0  0  0  0  0  0  0  0  0  0
   59.3330   29.7310   45.2130 C   0  0  0  0  0  0  0  0  0  0  0  0
   57.9320   29.7020   45.1690 C   0  0  0  0  0  0  0  0  0  0  0  0
   57.0330   31.0880   44.5460 S   0  0  0  0  0  0  0  0  0  0  0  0
   55.5810   30.7210   44.4190 O   0  0  0  0  0  0  0  0  0  0  0  0
   57.5460   31.4350   43.1760 O   0  0  0  0  0  0  0  0  0  0  0  0
   57.1940   32.4800   45.5920 N   0  0  0  0  0  0  0  0  0  0  0  0
   57.4470   33.7210   44.8180 C   0  0  0  0  0  0  0  0  0  0  0  0
   58.9130   34.1720   44.8700 C   0  0  0  0  0  0  0  0  0  0  0  0
   59.3690   34.4160   46.3190 C   0  0  0  0  0  0  0  0  0  0  0  0
   58.6510   33.5020   47.3300 C   0  0  0  0  0  0  0  0  0  0  0  0
   58.1790   32.2070   46.6620 C   0  0  0  0  0  0  0  0  0  0  0  0
   57.2510   28.5610   45.6170 C   0  0  0  0  0  0  0  0  0  0  0  0
   56.0970   24.5340   45.0840 C   0  0  0  0  0  0  0  0  0  0  0  0
   57.3100   24.1740   44.4770 C   0  0  0  0  0  0  0  0  0  0  0  0
   57.4040   22.9920   43.7430 C   0  0  0  0  0  0  0  0  0  0  0  0
   56.2790   22.1780   43.6090 C   0  0  0  0  0  0  0  0  0  0  0  0
   56.3490   21.1020   42.9610 O   0  0  0  0  0  0  0  0  0  0  0  0
   55.1020   22.5510   44.1760 N   0  0  0  0  0  0  0  0  0  0  0  0
   54.9710   23.7010   44.8900 C   0  0  0  0  0  0  0  0  0  0  0  0
   53.7090   24.0300   45.3860 O   0  0  0  0  0  0  0  0  0  0  0  0
   59.9265   26.6086   46.4682 H   0  0  0  0  0  0  0  0  0  0  0  0
   61.1425   28.6467   45.7037 H   0  0  0  0  0  0  0  0  0  0  0  0
   59.8741   30.6286   44.8789 H   0  0  0  0  0  0  0  0  0  0  0  0
   57.1726   33.5413   43.7680 H   0  0  0  0  0  0  0  0  0  0  0  0
   56.8408   34.5199   45.2700 H   0  0  0  0  0  0  0  0  0  0  0  0
   59.5448   33.3910   44.4217 H   0  0  0  0  0  0  0  0  0  0  0  0
   59.0073   35.1151   44.3117 H   0  0  0  0  0  0  0  0  0  0  0  0
   60.4513   34.2302   46.3834 H   0  0  0  0  0  0  0  0  0  0  0  0
   59.1189   35.4561   46.5754 H   0  0  0  0  0  0  0  0  0  0  0  0
   59.3454   33.2532   48.1460 H   0  0  0  0  0  0  0  0  0  0  0  0
   57.7716   34.0350   47.7206 H   0  0  0  0  0  0  0  0  0  0  0  0
   59.0477   31.6919   46.2260 H   0  0  0  0  0  0  0  0  0  0  0  0
   57.6961   31.5794   47.4255 H   0  0  0  0  0  0  0  0  0  0  0  0
   56.1519   28.5333   45.5815 H   0  0  0  0  0  0  0  0  0  0  0  0
   58.1896   24.8264   44.5805 H   0  0  0  0  0  0  0  0  0  0  0  0
   58.3565   22.7041   43.2740 H   0  0  0  0  0  0  0  0  0  0  0  0
   53.5310   24.8630   45.9320 H   0  0  0  0  0  0  0  0  0  0  0  0
  1  2  2  0
  2  3  1  0
  3  4  1  0
  4  5  2  0
  5  6  1  0
  6  7  2  0
  7  8  1  0
  8  9  1  0
  9 10  2  0
  9 11  2  0
  9 12  1  0
 12 13  1  0
 13 14  1  0
 14 15  1  0
 15 16  1  0
 16 17  1  0
  8 18  2  0
  2 19  1  0
 19 20  1  0
 20 21  2  0
 21 22  1  0
 22 23  2  0
 22 24  1  0
 24 25  1  0
 25 26  1  0
 18  4  1  0
 25 19  2  0
 17 12  1  0
  5 27  1  0
  6 28  1  0
  7 29  1  0
 13 30  1  0
 13 31  1  0
 14 32  1  0
 14 33  1  0
 15 34  1  0
 15 35  1  0
 16 36  1  0
 16 37  1  0
 17 38  1  0
 17 39  1  0
 18 40  1  0
 20 41  1  0
 21 42  1  0
 26 43  1  0
M  CHG  2   3  -1  24  -1
M  END
>  <UniqueID>  (62) 
58

>  <SMILES>  (62) 
O=C([N-]c1cccc(S(=O)(=O)N2CCCCC2)c1)c1ccc(=O)[n-]c1O

>  <Energy>  (62) 
59.379441697084445

>  <Genealogy>  (62) 
O=C([N-]c1cccc(S(=O)(=O)N2CCCCC2)c1)c1ccc(=O)[n-]c1O (protonated)
O=C([N-]c1cccc(S(=O)(=O)N2CCCCC2)c1)c1ccc(=O)[n-]c1O (3D coordinates assigned)
O=C([N-]c1cccc(S(=O)(=O)N2CCCCC2)c1)c1ccc(=O)[n-]c1O (nonaromatic ring conformer: 59.379441697084445 kcal/mol)

>  <smiles>  (62) 
O=C(Nc1cccc(S(=O)(=O)N2CCCCC2)c1)c1ccc(=O)[nH]c1O

>  <score_type>  (62) 
oracle

>  <origin>  (62) 
adg

>  <m_score__min__energy>  (62) 
-13.640000000000001

>  <m_primary>  (62) 
energy

$$$$
62:0
     RDKit          3D

 52 55  0  0  0  0  0  0  0  0999 V2000
   51.2515   22.0511   48.5557 H   0  0  0  0  0  0  0  0  0  0  0  0
   52.3280   22.0900   48.3330 C   0  0  0  0  0  0  0  0  0  0  0  0
   52.8010   21.6590   47.0920 C   0  0  0  0  0  0  0  0  0  0  0  0
   52.0955   21.2814   46.3373 H   0  0  0  0  0  0  0  0  0  0  0  0
   54.1680   21.7060   46.8060 C   0  0  0  0  0  0  0  0  0  0  0  0
   54.5327   21.3673   45.8251 H   0  0  0  0  0  0  0  0  0  0  0  0
   55.0820   22.1840   47.7650 C   0  0  0  0  0  0  0  0  0  0  0  0
   56.5350   22.2240   47.4620 C   0  0  0  0  0  0  0  0  0  0  0  0
   57.3310   21.4780   48.0910 O   0  0  0  0  0  0  0  0  0  0  0  0
   57.0500   23.0450   46.4070 N   0  0  0  0  0  0  0  0  0  0  0  0
   57.2070   24.3430   46.3720 C   0  0  0  0  0  0  0  0  0  0  0  0
   58.4320   24.8220   46.7150 N   0  0  0  0  0  0  0  0  0  0  0  0
   58.7500   26.1410   46.7010 C   0  0  0  0  0  0  0  0  0  0  0  0
   60.3970   26.6000   47.1140 Cl  0  0  0  0  0  0  0  0  0  0  0  0
   57.7880   27.0890   46.3190 C   0  0  0  0  0  0  0  0  0  0  0  0
   58.1050   28.5330   46.2850 C   0  0  0  0  0  0  0  0  0  0  0  0
   58.0650   29.2370   45.0730 C   0  0  0  0  0  0  0  0  0  0  0  0
   57.8063   28.7103   44.1426 H   0  0  0  0  0  0  0  0  0  0  0  0
   58.3520   30.6040   45.0410 C   0  0  0  0  0  0  0  0  0  0  0  0
   58.3297   31.1446   44.0833 H   0  0  0  0  0  0  0  0  0  0  0  0
   58.6690   31.2930   46.2240 C   0  0  0  0  0  0  0  0  0  0  0  0
   58.9870   32.7740   46.1880 C   0  0  0  0  0  0  0  0  0  0  0  0
   59.1232   33.0706   45.1375 H   0  0  0  0  0  0  0  0  0  0  0  0
   58.1439   33.2866   46.6742 H   0  0  0  0  0  0  0  0  0  0  0  0
   60.2070   33.1610   46.9410 N   0  0  0  0  0  0  0  0  0  0  0  0
   60.5760   34.0160   46.4570 H   0  0  0  0  0  0  0  0  0  0  0  0
   61.2680   32.1320   46.8840 C   0  0  0  0  0  0  0  0  0  0  0  0
   60.8555   31.1713   47.2259 H   0  0  0  0  0  0  0  0  0  0  0  0
   61.6226   32.0529   45.8457 H   0  0  0  0  0  0  0  0  0  0  0  0
   62.4640   32.5160   47.7830 C   0  0  0  0  0  0  0  0  0  0  0  0
   62.4828   31.8485   48.6571 H   0  0  0  0  0  0  0  0  0  0  0  0
   63.3862   32.4141   47.1922 H   0  0  0  0  0  0  0  0  0  0  0  0
   62.3690   33.8540   48.2290 O   0  0  0  0  0  0  0  0  0  0  0  0
   61.2210   34.0100   49.0460 C   0  0  0  0  0  0  0  0  0  0  0  0
   61.3586   33.4214   49.9651 H   0  0  0  0  0  0  0  0  0  0  0  0
   61.1094   35.0817   49.2673 H   0  0  0  0  0  0  0  0  0  0  0  0
   59.9280   33.5360   48.3410 C   0  0  0  0  0  0  0  0  0  0  0  0
   59.5240   32.6635   48.8753 H   0  0  0  0  0  0  0  0  0  0  0  0
   59.1979   34.3587   48.3489 H   0  0  0  0  0  0  0  0  0  0  0  0
   58.7210   30.5830   47.4350 C   0  0  0  0  0  0  0  0  0  0  0  0
   58.9895   31.1068   48.3643 H   0  0  0  0  0  0  0  0  0  0  0  0
   58.4340   29.2160   47.4670 C   0  0  0  0  0  0  0  0  0  0  0  0
   58.4659   28.6722   48.4226 H   0  0  0  0  0  0  0  0  0  0  0  0
   56.5020   26.6410   45.9770 C   0  0  0  0  0  0  0  0  0  0  0  0
   55.5210   27.5680   45.6270 O   0  0  0  0  0  0  0  0  0  0  0  0
   56.1910   25.2710   46.0070 C   0  0  0  0  0  0  0  0  0  0  0  0
   54.8200   24.8900   45.7440 C   0  0  0  0  0  0  0  0  0  0  0  0
   53.7260   24.5860   45.5220 N   0  0  0  0  0  0  0  0  0  0  0  0
   54.5920   22.6210   49.0120 C   0  0  0  0  0  0  0  0  0  0  0  0
   55.2912   23.0040   49.7699 H   0  0  0  0  0  0  0  0  0  0  0  0
   53.2240   22.5710   49.2920 C   0  0  0  0  0  0  0  0  0  0  0  0
   52.8512   22.9110   50.2695 H   0  0  0  0  0  0  0  0  0  0  0  0
  1  2  1  0
  2  3  2  0
  3  4  1  0
  3  5  1  0
  5  6  1  0
  5  7  2  0
  7  8  1  0
  8  9  2  0
  8 10  1  0
 10 11  2  0
 11 12  1  0
 12 13  1  0
 13 14  1  0
 13 15  2  0
 15 16  1  0
 16 17  2  0
 17 18  1  0
 17 19  1  0
 19 20  1  0
 19 21  2  0
 21 22  1  0
 22 23  1  0
 22 24  1  0
 22 25  1  0
 25 26  1  0
 25 27  1  0
 27 28  1  0
 27 29  1  0
 27 30  1  0
 30 31  1  0
 30 32  1  0
 30 33  1  0
 33 34  1  0
 34 35  1  0
 34 36  1  0
 34 37  1  0
 37 38  1  0
 37 39  1  0
 21 40  1  0
 40 41  1  0
 40 42  2  0
 42 43  1  0
 15 44  1  0
 44 45  1  0
 44 46  2  0
 46 47  1  0
 47 48  3  0
  7 49  1  0
 49 50  1  0
 49 51  2  0
 51 52  1  0
 51  2  1  0
 46 11  1  0
 42 16  1  0
 37 25  1  0
M  CHG  3  12  -1  25   1  45  -1
M  END
>  <UniqueID>  (63) 
59

>  <SMILES>  (63) 
N#Cc1c([O-])c(-c2ccc(C[NH+]3CCOCC3)cc2)c(Cl)[n-]/c1=N/C(=O)c1ccccc1

>  <Energy>  (63) 
93.9896773763484

>  <Genealogy>  (63) 
N#Cc1c([O-])c(-c2ccc(C[NH+]3CCOCC3)cc2)c(Cl)[n-]c1=NC(=O)c1ccccc1 (protonated)
N#Cc1c([O-])c(-c2ccc(C[NH+]3CCOCC3)cc2)c(Cl)[n-]/c1=N/C(=O)c1ccccc1 (cis-trans isomerization)
N#Cc1c([O-])c(-c2ccc(C[NH+]3CCOCC3)cc2)c(Cl)[n-]/c1=N/C(=O)c1ccccc1 (3D coordinates assigned)
N#Cc1c([O-])c(-c2ccc(C[NH+]3CCOCC3)cc2)c(Cl)[n-]/c1=N/C(=O)c1ccccc1 (nonaromatic ring conformer: 93.9896773763484 kcal/mol)

>  <smiles>  (63) 
N#Cc1c(O)c(-c2ccc(CN3CCOCC3)cc2)c(Cl)[nH]c1=NC(=O)c1ccccc1

>  <score_type>  (63) 
oracle

>  <origin>  (63) 
adg

>  <m_score__min__energy>  (63) 
-11.01

>  <m_primary>  (63) 
energy

$$$$
63:0
     RDKit          3D

 61 65  0  0  0  0  0  0  0  0999 V2000
   57.8380   23.6390   45.9840 C   0  0  0  0  0  0  0  0  0  0  0  0
   57.3340   24.7260   47.2990 S   0  0  0  0  0  0  0  0  0  0  0  0
   55.9260   25.1870   47.0400 O   0  0  0  0  0  0  0  0  0  0  0  0
   57.3980   23.9780   48.6010 O   0  0  0  0  0  0  0  0  0  0  0  0
   58.4010   26.0930   47.3490 N   0  0  0  0  0  0  0  0  0  0  0  0
   58.4620   27.1000   46.3230 C   0  0  0  0  0  0  0  0  0  0  0  0
   59.6430   27.2500   45.5810 C   0  0  0  0  0  0  0  0  0  0  0  0
   59.7340   28.2230   44.5840 C   0  0  0  0  0  0  0  0  0  0  0  0
   58.6500   29.0630   44.3210 C   0  0  0  0  0  0  0  0  0  0  0  0
   57.4600   28.9360   45.0560 C   0  0  0  0  0  0  0  0  0  0  0  0
   56.3200   29.8450   44.7860 C   0  0  0  0  0  0  0  0  0  0  0  0
   55.1450   29.4020   44.8650 O   0  0  0  0  0  0  0  0  0  0  0  0
   56.5090   31.2340   44.4770 N   0  0  0  0  0  0  0  0  0  0  0  0
   57.4910   32.1120   45.0480 C   0  0  0  0  0  0  0  0  0  0  0  0
   57.3330   33.4940   44.8940 C   0  0  0  0  0  0  0  0  0  0  0  0
   58.2620   34.3770   45.4520 C   0  0  0  0  0  0  0  0  0  0  0  0
   59.3670   33.8820   46.1500 C   0  0  0  0  0  0  0  0  0  0  0  0
   59.5670   32.5000   46.2760 C   0  0  0  0  0  0  0  0  0  0  0  0
   60.6950   32.0150   47.0270 N   0  0  0  0  0  0  0  0  0  0  0  0
   60.6250   30.9840   48.0260 C   0  0  0  0  0  0  0  0  0  0  0  0
   60.6320   31.3460   49.3970 C   0  0  0  0  0  0  0  0  0  0  0  0
   60.5820   30.3630   50.4010 C   0  0  0  0  0  0  0  0  0  0  0  0
   60.5560   29.0290   50.0000 C   0  0  0  0  0  0  0  0  0  0  0  0
   60.4940   27.8350   50.6880 C   0  0  0  0  0  0  0  0  0  0  0  0
   60.4620   27.6240   52.1460 C   0  0  0  0  0  0  0  0  0  0  0  0
   59.5000   28.0770   52.9660 C   0  0  0  0  0  0  0  0  0  0  0  0
   58.8280   29.3910   52.8510 C   0  0  0  0  0  0  0  0  0  0  0  0
   59.2910   30.5220   53.5490 C   0  0  0  0  0  0  0  0  0  0  0  0
   58.6270   31.7470   53.4260 C   0  0  0  0  0  0  0  0  0  0  0  0
   57.4850   31.8470   52.6270 C   0  0  0  0  0  0  0  0  0  0  0  0
   56.9990   30.7210   51.9580 C   0  0  0  0  0  0  0  0  0  0  0  0
   57.6610   29.4940   52.0770 C   0  0  0  0  0  0  0  0  0  0  0  0
   60.4180   26.8260   49.7880 N   0  0  0  0  0  0  0  0  0  0  0  0
   60.4580   27.3350   48.5600 N   0  0  0  0  0  0  0  0  0  0  0  0
   60.5450   28.6710   48.6830 C   0  0  0  0  0  0  0  0  0  0  0  0
   60.5930   29.6160   47.6630 C   0  0  0  0  0  0  0  0  0  0  0  0
   58.6190   31.6180   45.7270 C   0  0  0  0  0  0  0  0  0  0  0  0
   57.3650   27.9330   46.0370 C   0  0  0  0  0  0  0  0  0  0  0  0
   58.2643   22.7195   46.4115 H   0  0  0  0  0  0  0  0  0  0  0  0
   56.9658   23.3849   45.3637 H   0  0  0  0  0  0  0  0  0  0  0  0
   58.5955   24.1405   45.3637 H   0  0  0  0  0  0  0  0  0  0  0  0
   58.9710   26.2190   48.2170 H   0  0  0  0  0  0  0  0  0  0  0  0
   60.5036   26.5963   45.7862 H   0  0  0  0  0  0  0  0  0  0  0  0
   60.6626   28.3283   44.0038 H   0  0  0  0  0  0  0  0  0  0  0  0
   58.7285   29.8279   43.5344 H   0  0  0  0  0  0  0  0  0  0  0  0
   56.4736   33.8873   44.3312 H   0  0  0  0  0  0  0  0  0  0  0  0
   58.1232   35.4626   45.3416 H   0  0  0  0  0  0  0  0  0  0  0  0
   60.0847   34.5814   46.6036 H   0  0  0  0  0  0  0  0  0  0  0  0
   61.6250   32.4620   46.8550 H   0  0  0  0  0  0  0  0  0  0  0  0
   60.6771   32.4085   49.6784 H   0  0  0  0  0  0  0  0  0  0  0  0
   60.5640   30.6376   51.4660 H   0  0  0  0  0  0  0  0  0  0  0  0
   61.2875   27.0530   52.5961 H   0  0  0  0  0  0  0  0  0  0  0  0
   59.1860   27.4187   53.7895 H   0  0  0  0  0  0  0  0  0  0  0  0
   60.1786   30.4423   54.1939 H   0  0  0  0  0  0  0  0  0  0  0  0
   59.0042   32.6324   53.9587 H   0  0  0  0  0  0  0  0  0  0  0  0
   56.9684   32.8128   52.5247 H   0  0  0  0  0  0  0  0  0  0  0  0
   56.0946   30.7991   51.3368 H   0  0  0  0  0  0  0  0  0  0  0  0
   57.2654   28.6062   51.5619 H   0  0  0  0  0  0  0  0  0  0  0  0
   60.6057   29.3095   46.6066 H   0  0  0  0  0  0  0  0  0  0  0  0
   58.7612   30.5321   45.8297 H   0  0  0  0  0  0  0  0  0  0  0  0
   56.4220   27.7982   46.5871 H   0  0  0  0  0  0  0  0  0  0  0  0
  1  2  1  0
  2  3  2  0
  2  4  2  0
  2  5  1  0
  5  6  1  0
  6  7  2  0
  7  8  1  0
  8  9  2  0
  9 10  1  0
 10 11  1  0
 11 12  2  0
 11 13  1  0
 13 14  1  0
 14 15  2  0
 15 16  1  0
 16 17  2  0
 17 18  1  0
 18 19  1  0
 19 20  1  0
 20 21  1  0
 21 22  2  0
 22 23  1  0
 23 24  2  0
 24 25  1  0
 25 26  2  3
 26 27  1  0
 27 28  2  0
 28 29  1  0
 29 30  2  0
 30 31  1  0
 31 32  2  0
 24 33  1  0
 33 34  1  0
 34 35  2  0
 35 36  1  0
 18 37  2  0
 10 38  2  0
 38  6  1  0
 37 14  1  0
 36 20  2  0
 35 23  1  0
 32 27  1  0
  1 39  1  0
  1 40  1  0
  1 41  1  0
  5 42  1  0
  7 43  1  0
  8 44  1  0
  9 45  1  0
 15 46  1  0
 16 47  1  0
 17 48  1  0
 19 49  1  0
 21 50  1  0
 22 51  1  0
 25 52  1  0
 26 53  1  0
 28 54  1  0
 29 55  1  0
 30 56  1  0
 31 57  1  0
 32 58  1  0
 36 59  1  0
 37 60  1  0
 38 61  1  0
M  CHG  2  13  -1  33  -1
M  END
>  <UniqueID>  (64) 
60

>  <SMILES>  (64) 
CS(=O)(=O)Nc1cccc(C(=O)[N-]c2cccc(Nc3ccc4c(C=Cc5ccccc5)[n-]nc4c3)c2)c1

>  <Energy>  (64) 
122.94540233298599

>  <Genealogy>  (64) 
CS(=O)(=O)Nc1cccc(C(=O)[N-]c2cccc(Nc3ccc4c(C=Cc5ccccc5)[n-]nc4c3)c2)c1 (protonated)
CS(=O)(=O)Nc1cccc(C(=O)[N-]c2cccc(Nc3ccc4c(C=Cc5ccccc5)[n-]nc4c3)c2)c1 (3D coordinates assigned)
CS(=O)(=O)Nc1cccc(C(=O)[N-]c2cccc(Nc3ccc4c(C=Cc5ccccc5)[n-]nc4c3)c2)c1 (optimized conformer: 122.94540233298599 kcal/mol)

>  <smiles>  (64) 
CS(=O)(=O)Nc1cccc(C(=O)Nc2cccc(Nc3ccc4c(C=Cc5ccccc5)[nH]nc4c3)c2)c1

>  <score_type>  (64) 
oracle

>  <origin>  (64) 
adg

>  <m_score__min__energy>  (64) 
-14.460000000000001

>  <m_primary>  (64) 
energy

$$$$
64:0
     RDKit          3D

 33 35  0  0  0  0  0  0  0  0999 V2000
   55.8040   29.7440   43.7170 C   0  0  0  0  0  0  0  0  0  0  0  0
   56.7120   29.7640   44.6950 C   0  0  0  0  0  0  0  0  0  0  0  0
   57.0600   30.8970   45.3400 N   0  0  0  0  0  0  0  0  0  0  0  0
   57.9800   30.5900   46.2430 N   0  0  0  0  0  0  0  0  0  0  0  0
   58.5690   31.5440   47.1440 C   0  0  0  0  0  0  0  0  0  0  0  0
   58.7350   31.2390   48.3560 O   0  0  0  0  0  0  0  0  0  0  0  0
   58.9470   32.8980   46.6860 C   0  0  0  0  0  0  0  0  0  0  0  0
   58.9030   33.1990   45.3130 C   0  0  0  0  0  0  0  0  0  0  0  0
   59.2590   34.4710   44.8560 C   0  0  0  0  0  0  0  0  0  0  0  0
   59.6530   35.4560   45.7630 C   0  0  0  0  0  0  0  0  0  0  0  0
   59.6810   35.1760   47.1310 C   0  0  0  0  0  0  0  0  0  0  0  0
   59.3200   33.9070   47.5990 C   0  0  0  0  0  0  0  0  0  0  0  0
   59.3070   33.6700   48.9690 O   0  0  0  0  0  0  0  0  0  0  0  0
   58.2180   29.2640   46.1950 C   0  0  0  0  0  0  0  0  0  0  0  0
   59.0700   28.6750   46.9150 O   0  0  0  0  0  0  0  0  0  0  0  0
   57.4250   28.6810   45.2160 C   0  0  0  0  0  0  0  0  0  0  0  0
   57.3730   27.3920   44.8270 C   0  0  0  0  0  0  0  0  0  0  0  0
   57.2310   26.2570   45.7620 C   0  0  0  0  0  0  0  0  0  0  0  0
   55.9850   25.9670   46.3360 C   0  0  0  0  0  0  0  0  0  0  0  0
   54.8620   26.7150   46.0020 O   0  0  0  0  0  0  0  0  0  0  0  0
   55.8670   24.9440   47.2210 N   0  0  0  0  0  0  0  0  0  0  0  0
   56.9430   24.1950   47.5740 C   0  0  0  0  0  0  0  0  0  0  0  0
   56.7700   22.9690   48.6370 S   0  0  0  0  0  0  0  0  0  0  0  0
   58.1660   24.4740   47.0540 N   0  0  0  0  0  0  0  0  0  0  0  0
   58.3370   25.4880   46.1670 C   0  0  0  0  0  0  0  0  0  0  0  0
   59.4900   25.7350   45.7250 O   0  0  0  0  0  0  0  0  0  0  0  0
   55.5523   28.7958   43.2195 H   0  0  0  0  0  0  0  0  0  0  0  0
   55.3074   30.6758   43.4084 H   0  0  0  0  0  0  0  0  0  0  0  0
   58.5865   32.4287   44.5943 H   0  0  0  0  0  0  0  0  0  0  0  0
   59.2286   34.6962   43.7797 H   0  0  0  0  0  0  0  0  0  0  0  0
   59.9417   36.4535   45.4001 H   0  0  0  0  0  0  0  0  0  0  0  0
   59.9880   35.9558   47.8436 H   0  0  0  0  0  0  0  0  0  0  0  0
   57.4401   27.1721   43.7513 H   0  0  0  0  0  0  0  0  0  0  0  0
  1  2  2  0
  2  3  1  0
  3  4  1  0
  4  5  1  0
  5  6  2  0
  5  7  1  0
  7  8  2  0
  8  9  1  0
  9 10  2  0
 10 11  1  0
 11 12  2  0
 12 13  1  0
  4 14  1  0
 14 15  2  0
 14 16  1  0
 16 17  2  3
 17 18  1  0
 18 19  2  0
 19 20  1  0
 19 21  1  0
 21 22  1  0
 22 23  2  0
 22 24  1  0
 24 25  1  0
 25 26  2  0
 16  2  1  0
 25 18  1  0
 12  7  1  0
  1 27  1  0
  1 28  1  0
  8 29  1  0
  9 30  1  0
 10 31  1  0
 11 32  1  0
 17 33  1  0
M  CHG  5   3  -1  13  -1  20  -1  21  -1  24  -1
M  END
>  <UniqueID>  (65) 
61

>  <SMILES>  (65) 
C=c1[n-]n(C(=O)c2ccccc2[O-])c(=O)c1=Cc1c([O-])[n-]c(=S)[n-]c1=O

>  <Energy>  (65) 
87.42329999843729

>  <Genealogy>  (65) 
C=c1[n-]n(C(=O)c2ccccc2[O-])c(=O)c1=Cc1c([O-])[n-]c(=S)[n-]c1=O (protonated)
C=c1[n-]n(C(=O)c2ccccc2[O-])c(=O)c1=Cc1c([O-])[n-]c(=S)[n-]c1=O (3D coordinates assigned)
C=c1[n-]n(C(=O)c2ccccc2[O-])c(=O)c1=Cc1c([O-])[n-]c(=S)[n-]c1=O (optimized conformer: 87.42329999843729 kcal/mol)

>  <smiles>  (65) 
C=c1[nH]n(C(=O)c2ccccc2O)c(=O)c1=Cc1c(O)[nH]c(=S)[nH]c1=O

>  <score_type>  (65) 
oracle

>  <origin>  (65) 
adg

>  <m_score__min__energy>  (65) 
-17.219999999999999

>  <m_primary>  (65) 
energy

$$$$
65:0
     RDKit          3D

 56 59  0  0  0  0  0  0  0  0999 V2000
   59.8670   30.4400   47.4590 O   0  0  0  0  0  0  0  0  0  0  0  0
   59.8480   29.3180   46.8830 C   0  0  0  0  0  0  0  0  0  0  0  0
   59.9300   29.2530   45.3920 C   0  0  0  0  0  0  0  0  0  0  0  0
   59.9480   27.8950   45.0030 O   0  0  0  0  0  0  0  0  0  0  0  0
   58.8620   27.6100   44.1430 C   0  0  0  0  0  0  0  0  0  0  0  0
   57.6720   27.1430   44.9320 C   0  0  0  0  0  0  0  0  0  0  0  0
   57.5890   25.9120   45.4670 N   0  0  0  0  0  0  0  0  0  0  0  0
   56.3920   25.9190   46.0860 C   0  0  0  0  0  0  0  0  0  0  0  0
   55.9470   24.9230   46.7150 O   0  0  0  0  0  0  0  0  0  0  0  0
   55.7090   27.0760   45.9810 N   0  0  0  0  0  0  0  0  0  0  0  0
   56.5240   27.8580   45.2470 C   0  0  0  0  0  0  0  0  0  0  0  0
   56.1850   29.2460   44.8840 C   0  0  0  0  0  0  0  0  0  0  0  0
   55.0900   29.4860   44.3070 O   0  0  0  0  0  0  0  0  0  0  0  0
   57.0830   30.3160   45.1870 N   0  0  0  0  0  0  0  0  0  0  0  0
   57.1600   31.5410   44.4050 C   0  0  0  0  0  0  0  0  0  0  0  0
   57.8930   32.5830   45.1990 C   0  0  0  0  0  0  0  0  0  0  0  0
   58.5420   33.6400   44.5420 C   0  0  0  0  0  0  0  0  0  0  0  0
   59.1870   34.6380   45.2790 C   0  0  0  0  0  0  0  0  0  0  0  0
   59.1750   34.5940   46.6760 C   0  0  0  0  0  0  0  0  0  0  0  0
   58.5140   33.5550   47.3370 C   0  0  0  0  0  0  0  0  0  0  0  0
   57.8690   32.5550   46.6030 C   0  0  0  0  0  0  0  0  0  0  0  0
   59.7090   28.1110   47.6460 N   0  0  0  0  0  0  0  0  0  0  0  0
   60.0430   28.0040   49.0400 C   0  0  0  0  0  0  0  0  0  0  0  0
   60.6860   26.8480   49.5070 C   0  0  0  0  0  0  0  0  0  0  0  0
   61.0430   26.7350   50.8520 C   0  0  0  0  0  0  0  0  0  0  0  0
   60.7800   27.7810   51.7400 C   0  0  0  0  0  0  0  0  0  0  0  0
   60.1770   28.9590   51.2840 C   0  0  0  0  0  0  0  0  0  0  0  0
   59.9300   29.9890   52.2040 O   0  0  0  0  0  0  0  0  0  0  0  0
   59.7140   31.3340   51.8680 C   0  0  0  0  0  0  0  0  0  0  0  0
   60.6020   32.0430   51.0350 C   0  0  0  0  0  0  0  0  0  0  0  0
   60.3620   33.3870   50.7320 C   0  0  0  0  0  0  0  0  0  0  0  0
   59.2440   34.0360   51.2650 C   0  0  0  0  0  0  0  0  0  0  0  0
   58.3700   33.3430   52.1080 C   0  0  0  0  0  0  0  0  0  0  0  0
   58.6090   31.9980   52.4140 C   0  0  0  0  0  0  0  0  0  0  0  0
   59.7990   29.0630   49.9330 C   0  0  0  0  0  0  0  0  0  0  0  0
   59.0561   29.7540   44.9501 H   0  0  0  0  0  0  0  0  0  0  0  0
   60.8428   29.7574   45.0423 H   0  0  0  0  0  0  0  0  0  0  0  0
   58.5926   28.5200   43.5869 H   0  0  0  0  0  0  0  0  0  0  0  0
   59.1608   26.8130   43.4462 H   0  0  0  0  0  0  0  0  0  0  0  0
   57.6991   31.3459   43.4662 H   0  0  0  0  0  0  0  0  0  0  0  0
   56.1457   31.8971   44.1717 H   0  0  0  0  0  0  0  0  0  0  0  0
   58.5432   33.6834   43.4429 H   0  0  0  0  0  0  0  0  0  0  0  0
   59.7040   35.4580   44.7592 H   0  0  0  0  0  0  0  0  0  0  0  0
   59.6859   35.3772   47.2553 H   0  0  0  0  0  0  0  0  0  0  0  0
   58.5012   33.5240   48.4365 H   0  0  0  0  0  0  0  0  0  0  0  0
   57.3413   31.7441   47.1265 H   0  0  0  0  0  0  0  0  0  0  0  0
   59.3140   27.2720   47.1650 H   0  0  0  0  0  0  0  0  0  0  0  0
   60.9100   26.0268   48.8103 H   0  0  0  0  0  0  0  0  0  0  0  0
   61.5331   25.8191   51.2138 H   0  0  0  0  0  0  0  0  0  0  0  0
   61.0479   27.6784   52.8019 H   0  0  0  0  0  0  0  0  0  0  0  0
   61.4872   31.5376   50.6215 H   0  0  0  0  0  0  0  0  0  0  0  0
   61.0532   33.9340   50.0739 H   0  0  0  0  0  0  0  0  0  0  0  0
   59.0522   35.0913   51.0212 H   0  0  0  0  0  0  0  0  0  0  0  0
   57.4934   33.8553   52.5313 H   0  0  0  0  0  0  0  0  0  0  0  0
   57.9250   31.4601   53.0869 H   0  0  0  0  0  0  0  0  0  0  0  0
   59.3089   29.9794   49.5722 H   0  0  0  0  0  0  0  0  0  0  0  0
  1  2  2  0
  2  3  1  0
  3  4  1  0
  4  5  1  0
  5  6  1  0
  6  7  1  0
  7  8  1  0
  8  9  2  0
  8 10  1  0
 10 11  1  0
 11 12  1  0
 12 13  2  0
 12 14  1  0
 14 15  1  0
 15 16  1  0
 16 17  2  0
 17 18  1  0
 18 19  2  0
 19 20  1  0
 20 21  2  0
  2 22  1  0
 22 23  1  0
 23 24  2  0
 24 25  1  0
 25 26  2  0
 26 27  1  0
 27 28  1  0
 28 29  1  0
 29 30  2  0
 30 31  1  0
 31 32  2  0
 32 33  1  0
 33 34  2  0
 27 35  2  0
 11  6  2  0
 21 16  1  0
 35 23  1  0
 34 29  1  0
  3 36  1  0
  3 37  1  0
  5 38  1  0
  5 39  1  0
 15 40  1  0
 15 41  1  0
 17 42  1  0
 18 43  1  0
 19 44  1  0
 20 45  1  0
 21 46  1  0
 22 47  1  0
 24 48  1  0
 25 49  1  0
 26 50  1  0
 30 51  1  0
 31 52  1  0
 32 53  1  0
 33 54  1  0
 34 55  1  0
 35 56  1  0
M  CHG  3   7  -1  10  -1  14  -1
M  END
>  <UniqueID>  (66) 
62

>  <SMILES>  (66) 
O=C(COCc1[n-]c(=O)[n-]c1C(=O)[N-]Cc1ccccc1)Nc1cccc(Oc2ccccc2)c1

>  <Energy>  (66) 
90.52358014207144

>  <Genealogy>  (66) 
O=C(COCc1[n-]c(=O)[n-]c1C(=O)[N-]Cc1ccccc1)Nc1cccc(Oc2ccccc2)c1 (protonated)
O=C(COCc1[n-]c(=O)[n-]c1C(=O)[N-]Cc1ccccc1)Nc1cccc(Oc2ccccc2)c1 (3D coordinates assigned)
O=C(COCc1[n-]c(=O)[n-]c1C(=O)[N-]Cc1ccccc1)Nc1cccc(Oc2ccccc2)c1 (optimized conformer: 90.52358014207144 kcal/mol)

>  <smiles>  (66) 
O=C(COCc1[nH]c(=O)[nH]c1C(=O)NCc1ccccc1)Nc1cccc(Oc2ccccc2)c1

>  <score_type>  (66) 
oracle

>  <origin>  (66) 
adg

>  <m_score__min__energy>  (66) 
-14.300000000000001

>  <m_primary>  (66) 
energy

$$$$
66:0
     RDKit          3D

 37 39  0  0  0  0  0  0  0  0999 V2000
   59.2224   26.2172   43.8193 H   0  0  0  0  0  0  0  0  0  0  0  0
   58.2280   26.2830   44.2850 C   0  0  0  0  0  0  0  0  0  0  0  0
   57.5120   25.1960   44.3490 N   0  0  0  0  0  0  0  0  0  0  0  0
   56.9510   24.5890   45.5240 C   0  0  0  0  0  0  0  0  0  0  0  0
   57.5780   24.6940   46.7760 C   0  0  0  0  0  0  0  0  0  0  0  0
   58.5059   25.2761   46.8767 H   0  0  0  0  0  0  0  0  0  0  0  0
   57.0280   24.0620   47.8950 C   0  0  0  0  0  0  0  0  0  0  0  0
   57.5154   24.1672   48.8755 H   0  0  0  0  0  0  0  0  0  0  0  0
   55.8630   23.2970   47.7780 C   0  0  0  0  0  0  0  0  0  0  0  0
   55.3490   22.6840   48.9300 O   0  0  0  0  0  0  0  0  0  0  0  0
   53.9600   22.5300   49.2070 C   0  0  0  0  0  0  0  0  0  0  0  0
   53.8029   22.5126   50.2956 H   0  0  0  0  0  0  0  0  0  0  0  0
   53.4033   23.3719   48.7696 H   0  0  0  0  0  0  0  0  0  0  0  0
   53.6013   21.5866   48.7696 H   0  0  0  0  0  0  0  0  0  0  0  0
   55.2540   23.1620   46.5150 C   0  0  0  0  0  0  0  0  0  0  0  0
   54.3419   22.5565   46.4081 H   0  0  0  0  0  0  0  0  0  0  0  0
   55.8050   23.7950   45.3970 C   0  0  0  0  0  0  0  0  0  0  0  0
   55.3348   23.6683   44.4106 H   0  0  0  0  0  0  0  0  0  0  0  0
   57.7910   27.5970   44.7970 C   0  0  0  0  0  0  0  0  0  0  0  0
   56.5770   27.9560   45.3630 C   0  0  0  0  0  0  0  0  0  0  0  0
   55.5070   27.1100   45.6230 O   0  0  0  0  0  0  0  0  0  0  0  0
   56.5530   29.2840   45.5890 N   0  0  0  0  0  0  0  0  0  0  0  0
   55.7650   29.8200   46.0150 H   0  0  0  0  0  0  0  0  0  0  0  0
   57.7000   29.8030   45.1700 N   0  0  0  0  0  0  0  0  0  0  0  0
   58.0260   31.2040   45.2260 C   0  0  0  0  0  0  0  0  0  0  0  0
   57.8390   32.0190   44.0960 C   0  0  0  0  0  0  0  0  0  0  0  0
   57.4475   31.5821   43.1655 H   0  0  0  0  0  0  0  0  0  0  0  0
   58.1480   33.3830   44.1480 C   0  0  0  0  0  0  0  0  0  0  0  0
   58.0041   34.0129   43.2578 H   0  0  0  0  0  0  0  0  0  0  0  0
   58.6390   33.9460   45.3290 C   0  0  0  0  0  0  0  0  0  0  0  0
   58.8820   35.0181   45.3682 H   0  0  0  0  0  0  0  0  0  0  0  0
   58.8210   33.1460   46.4600 C   0  0  0  0  0  0  0  0  0  0  0  0
   59.2064   33.5896   47.3899 H   0  0  0  0  0  0  0  0  0  0  0  0
   58.5140   31.7820   46.4120 C   0  0  0  0  0  0  0  0  0  0  0  0
   58.6550   31.1579   47.3068 H   0  0  0  0  0  0  0  0  0  0  0  0
   58.4560   28.8000   44.6680 C   0  0  0  0  0  0  0  0  0  0  0  0
   59.5850   28.9550   44.1290 O   0  0  0  0  0  0  0  0  0  0  0  0
  1  2  1  0
  2  3  2  0
  3  4  1  0
  4  5  2  0
  5  6  1  0
  5  7  1  0
  7  8  1  0
  7  9  2  0
  9 10  1  0
 10 11  1  0
 11 12  1  0
 11 13  1  0
 11 14  1  0
  9 15  1  0
 15 16  1  0
 15 17  2  0
 17 18  1  0
  2 19  1  0
 19 20  2  0
 20 21  1  0
 20 22  1  0
 22 23  1  0
 22 24  1  0
 24 25  1  0
 25 26  2  0
 26 27  1  0
 26 28  1  0
 28 29  1  0
 28 30  2  0
 30 31  1  0
 30 32  1  0
 32 33  1  0
 32 34  2  0
 34 35  1  0
 24 36  1  0
 36 37  2  0
 17  4  1  0
 36 19  1  0
 34 25  1  0
M  CHG  1  21  -1
M  END
>  <UniqueID>  (67) 
63

>  <SMILES>  (67) 
COc1ccc(/N=C\c2c([O-])[nH]n(-c3ccccc3)c2=O)cc1

>  <Energy>  (67) 
88.90578617480556

>  <Genealogy>  (67) 
COc1ccc(N=Cc2c([O-])[nH]n(-c3ccccc3)c2=O)cc1 (protonated)
COc1ccc(/N=C\c2c([O-])[nH]n(-c3ccccc3)c2=O)cc1 (cis-trans isomerization)
COc1ccc(/N=C\c2c([O-])[nH]n(-c3ccccc3)c2=O)cc1 (3D coordinates assigned)
COc1ccc(/N=C\c2c([O-])[nH]n(-c3ccccc3)c2=O)cc1 (optimized conformer: 88.90578617480556 kcal/mol)

>  <smiles>  (67) 
COc1ccc(N=Cc2c(O)[nH]n(-c3ccccc3)c2=O)cc1

>  <score_type>  (67) 
oracle

>  <origin>  (67) 
adg

>  <m_score__min__energy>  (67) 
-10.16

>  <m_primary>  (67) 
energy

$$$$
67:0
     RDKit          3D

 42 44  0  0  0  0  0  0  0  0999 V2000
   58.1630   27.6910   47.2080 O   0  0  0  0  0  0  0  0  0  0  0  0
   57.3170   27.3720   46.3270 C   0  0  0  0  0  0  0  0  0  0  0  0
   57.0670   28.2540   45.2190 N   0  0  0  0  0  0  0  0  0  0  0  0
   57.4780   29.6310   45.1810 C   0  0  0  0  0  0  0  0  0  0  0  0
   58.6200   30.0750   45.8710 C   0  0  0  0  0  0  0  0  0  0  0  0
   58.9850   31.4250   45.8370 C   0  0  0  0  0  0  0  0  0  0  0  0
   58.2070   32.3490   45.1290 C   0  0  0  0  0  0  0  0  0  0  0  0
   58.6950   34.0420   45.0710 S   0  0  0  0  0  0  0  0  0  0  0  0
   59.6260   34.2660   43.9110 O   0  0  0  0  0  0  0  0  0  0  0  0
   57.4700   34.8900   44.8720 O   0  0  0  0  0  0  0  0  0  0  0  0
   59.4840   34.4880   46.5650 N   0  0  0  0  0  0  0  0  0  0  0  0
   58.8220   33.8140   47.7050 C   0  0  0  0  0  0  0  0  0  0  0  0
   59.7200   33.7940   48.9450 C   0  0  0  0  0  0  0  0  0  0  0  0
   61.0120   33.0000   48.6800 C   0  0  0  0  0  0  0  0  0  0  0  0
   61.4000   32.9780   47.1920 C   0  0  0  0  0  0  0  0  0  0  0  0
   60.9490   34.2620   46.4810 C   0  0  0  0  0  0  0  0  0  0  0  0
   57.0600   31.9130   44.4540 C   0  0  0  0  0  0  0  0  0  0  0  0
   56.6930   30.5650   44.4880 C   0  0  0  0  0  0  0  0  0  0  0  0
   56.6160   26.0730   46.4220 C   0  0  0  0  0  0  0  0  0  0  0  0
   57.2220   24.9630   47.0290 C   0  0  0  0  0  0  0  0  0  0  0  0
   56.5110   23.7640   47.0940 C   0  0  0  0  0  0  0  0  0  0  0  0
   57.0270   22.7490   47.6310 O   0  0  0  0  0  0  0  0  0  0  0  0
   55.2580   23.6900   46.5750 N   0  0  0  0  0  0  0  0  0  0  0  0
   54.6810   24.7720   45.9910 C   0  0  0  0  0  0  0  0  0  0  0  0
   53.5190   24.6850   45.5160 O   0  0  0  0  0  0  0  0  0  0  0  0
   55.3580   25.9480   45.9190 N   0  0  0  0  0  0  0  0  0  0  0  0
   56.6440   27.8490   44.3530 H   0  0  0  0  0  0  0  0  0  0  0  0
   59.2292   29.3574   46.4402 H   0  0  0  0  0  0  0  0  0  0  0  0
   59.8870   31.7620   46.3687 H   0  0  0  0  0  0  0  0  0  0  0  0
   57.8922   34.3501   47.9459 H   0  0  0  0  0  0  0  0  0  0  0  0
   58.6113   32.7740   47.4153 H   0  0  0  0  0  0  0  0  0  0  0  0
   59.9824   34.8275   49.2154 H   0  0  0  0  0  0  0  0  0  0  0  0
   59.1724   33.3072   49.7655 H   0  0  0  0  0  0  0  0  0  0  0  0
   61.8317   33.4609   49.2507 H   0  0  0  0  0  0  0  0  0  0  0  0
   60.8333   31.9605   48.9924 H   0  0  0  0  0  0  0  0  0  0  0  0
   62.4929   32.8862   47.1076 H   0  0  0  0  0  0  0  0  0  0  0  0
   60.9006   32.1220   46.7147 H   0  0  0  0  0  0  0  0  0  0  0  0
   61.4627   35.1177   46.9435 H   0  0  0  0  0  0  0  0  0  0  0  0
   61.2049   34.1557   45.4165 H   0  0  0  0  0  0  0  0  0  0  0  0
   56.4457   32.6342   43.8950 H   0  0  0  0  0  0  0  0  0  0  0  0
   55.7822   30.2338   43.9677 H   0  0  0  0  0  0  0  0  0  0  0  0
   58.2375   25.0363   47.4455 H   0  0  0  0  0  0  0  0  0  0  0  0
  1  2  2  0
  2  3  1  0
  3  4  1  0
  4  5  2  0
  5  6  1  0
  6  7  2  0
  7  8  1  0
  8  9  2  0
  8 10  2  0
  8 11  1  0
 11 12  1  0
 12 13  1  0
 13 14  1  0
 14 15  1  0
 15 16  1  0
  7 17  1  0
 17 18  2  0
  2 19  1  0
 19 20  2  0
 20 21  1  0
 21 22  2  0
 21 23  1  0
 23 24  1  0
 24 25  2  0
 24 26  1  0
 18  4  1  0
 26 19  1  0
 16 11  1  0
  3 27  1  0
  5 28  1  0
  6 29  1  0
 12 30  1  0
 12 31  1  0
 13 32  1  0
 13 33  1  0
 14 34  1  0
 14 35  1  0
 15 36  1  0
 15 37  1  0
 16 38  1  0
 16 39  1  0
 17 40  1  0
 18 41  1  0
 20 42  1  0
M  CHG  2  23  -1  26  -1
M  END
>  <UniqueID>  (68) 
64

>  <SMILES>  (68) 
O=C(Nc1ccc(S(=O)(=O)N2CCCCC2)cc1)c1cc(=O)[n-]c(=O)[n-]1

>  <Energy>  (68) 
53.56665958208365

>  <Genealogy>  (68) 
O=C(Nc1ccc(S(=O)(=O)N2CCCCC2)cc1)c1cc(=O)[n-]c(=O)[n-]1 (protonated)
O=C(Nc1ccc(S(=O)(=O)N2CCCCC2)cc1)c1cc(=O)[n-]c(=O)[n-]1 (3D coordinates assigned)
O=C(Nc1ccc(S(=O)(=O)N2CCCCC2)cc1)c1cc(=O)[n-]c(=O)[n-]1 (nonaromatic ring conformer: 53.56665958208365 kcal/mol)

>  <smiles>  (68) 
O=C(Nc1ccc(S(=O)(=O)N2CCCCC2)cc1)c1cc(=O)[nH]c(=O)[nH]1

>  <score_type>  (68) 
oracle

>  <origin>  (68) 
adg

>  <m_score__min__energy>  (68) 
-12.91

>  <m_primary>  (68) 
energy

$$$$
68:0
     RDKit          3D

 46 48  0  0  0  0  0  0  0  0999 V2000
   57.7320   28.4230   43.4220 C   0  0  0  0  0  0  0  0  0  0  0  0
   58.0810   28.8440   44.6410 C   0  0  0  0  0  0  0  0  0  0  0  0
   59.1260   28.0790   45.4150 C   0  0  0  0  0  0  0  0  0  0  0  0
   58.4290   27.3540   46.9430 S   0  0  0  0  0  0  0  0  0  0  0  0
   58.0300   25.7550   46.2060 C   0  0  0  0  0  0  0  0  0  0  0  0
   59.0650   24.8100   46.1550 C   0  0  0  0  0  0  0  0  0  0  0  0
   58.8570   23.5560   45.5840 C   0  0  0  0  0  0  0  0  0  0  0  0
   57.6070   23.2260   45.0700 C   0  0  0  0  0  0  0  0  0  0  0  0
   56.5550   24.1420   45.1370 C   0  0  0  0  0  0  0  0  0  0  0  0
   56.7390   25.4170   45.7120 C   0  0  0  0  0  0  0  0  0  0  0  0
   55.5640   26.3290   45.7830 C   0  0  0  0  0  0  0  0  0  0  0  0
   54.4030   25.8930   45.9880 O   0  0  0  0  0  0  0  0  0  0  0  0
   55.7320   27.6980   45.6180 O   0  0  0  0  0  0  0  0  0  0  0  0
   57.5030   30.0840   45.2190 C   0  0  0  0  0  0  0  0  0  0  0  0
   56.3530   30.4430   44.8510 O   0  0  0  0  0  0  0  0  0  0  0  0
   58.2250   30.9360   46.1890 C   0  0  0  0  0  0  0  0  0  0  0  0
   58.8450   30.5310   47.3720 C   0  0  0  0  0  0  0  0  0  0  0  0
   59.5030   31.5710   48.0400 C   0  0  0  0  0  0  0  0  0  0  0  0
   59.4050   32.7860   47.3830 C   0  0  0  0  0  0  0  0  0  0  0  0
   60.1030   34.3040   47.9210 S   0  0  0  0  0  0  0  0  0  0  0  0
   59.6420   34.5970   49.3210 O   0  0  0  0  0  0  0  0  0  0  0  0
   59.6390   35.4010   47.0030 O   0  0  0  0  0  0  0  0  0  0  0  0
   61.8490   34.2020   47.8840 N   0  0  0  0  0  0  0  0  0  0  0  0
   62.3040   33.3800   46.7480 C   0  0  0  0  0  0  0  0  0  0  0  0
   63.2190   32.2920   47.2870 C   0  0  0  0  0  0  0  0  0  0  0  0
   62.8490   32.1790   48.7430 C   0  0  0  0  0  0  0  0  0  0  0  0
   62.3580   33.5660   49.1080 C   0  0  0  0  0  0  0  0  0  0  0  0
   58.5200   32.5810   45.9720 S   0  0  0  0  0  0  0  0  0  0  0  0
   56.9714   28.9719   42.8474 H   0  0  0  0  0  0  0  0  0  0  0  0
   58.2053   27.5275   42.9930 H   0  0  0  0  0  0  0  0  0  0  0  0
   59.5188   27.2697   44.7820 H   0  0  0  0  0  0  0  0  0  0  0  0
   59.9270   28.7777   45.6980 H   0  0  0  0  0  0  0  0  0  0  0  0
   60.0520   25.0615   46.5704 H   0  0  0  0  0  0  0  0  0  0  0  0
   59.6803   22.8278   45.5397 H   0  0  0  0  0  0  0  0  0  0  0  0
   57.4468   22.2401   44.6092 H   0  0  0  0  0  0  0  0  0  0  0  0
   55.5689   23.8654   44.7357 H   0  0  0  0  0  0  0  0  0  0  0  0
   58.8193   29.4959   47.7434 H   0  0  0  0  0  0  0  0  0  0  0  0
   60.0424   31.4366   48.9892 H   0  0  0  0  0  0  0  0  0  0  0  0
   61.4372   32.9237   46.2475 H   0  0  0  0  0  0  0  0  0  0  0  0
   62.8424   34.0033   46.0189 H   0  0  0  0  0  0  0  0  0  0  0  0
   63.0414   31.3401   46.7652 H   0  0  0  0  0  0  0  0  0  0  0  0
   64.2833   32.5291   47.1419 H   0  0  0  0  0  0  0  0  0  0  0  0
   62.0538   31.4327   48.8871 H   0  0  0  0  0  0  0  0  0  0  0  0
   63.6921   31.8512   49.3688 H   0  0  0  0  0  0  0  0  0  0  0  0
   61.5528   33.4931   49.8539 H   0  0  0  0  0  0  0  0  0  0  0  0
   63.1771   34.1618   49.5371 H   0  0  0  0  0  0  0  0  0  0  0  0
  1  2  2  0
  2  3  1  0
  3  4  1  0
  4  5  1  0
  5  6  2  0
  6  7  1  0
  7  8  2  0
  8  9  1  0
  9 10  2  0
 10 11  1  0
 11 12  2  0
 11 13  1  0
  2 14  1  0
 14 15  2  0
 14 16  1  0
 16 17  2  0
 17 18  1  0
 18 19  2  0
 19 20  1  0
 20 21  2  0
 20 22  2  0
 20 23  1  0
 23 24  1  0
 24 25  1  0
 25 26  1  0
 26 27  1  0
 19 28  1  0
 10  5  1  0
 28 16  1  0
 27 23  1  0
  1 29  1  0
  1 30  1  0
  3 31  1  0
  3 32  1  0
  6 33  1  0
  7 34  1  0
  8 35  1  0
  9 36  1  0
 17 37  1  0
 18 38  1  0
 24 39  1  0
 24 40  1  0
 25 41  1  0
 25 42  1  0
 26 43  1  0
 26 44  1  0
 27 45  1  0
 27 46  1  0
M  CHG  1  13  -1
M  END
>  <UniqueID>  (69) 
65

>  <SMILES>  (69) 
C=C(CSc1ccccc1C(=O)[O-])C(=O)c1ccc(S(=O)(=O)N2CCCC2)s1

>  <Energy>  (69) 
75.80471185076686

>  <Genealogy>  (69) 
C=C(CSc1ccccc1C(=O)[O-])C(=O)c1ccc(S(=O)(=O)N2CCCC2)s1 (protonated)
C=C(CSc1ccccc1C(=O)[O-])C(=O)c1ccc(S(=O)(=O)N2CCCC2)s1 (3D coordinates assigned)
C=C(CSc1ccccc1C(=O)[O-])C(=O)c1ccc(S(=O)(=O)N2CCCC2)s1 (nonaromatic ring conformer: 75.80471185076686 kcal/mol)

>  <smiles>  (69) 
C=C(CSc1ccccc1C(=O)O)C(=O)c1ccc(S(=O)(=O)N2CCCC2)s1

>  <score_type>  (69) 
oracle

>  <origin>  (69) 
adg

>  <m_score__min__energy>  (69) 
-12.34

>  <m_primary>  (69) 
energy

$$$$
69:0
     RDKit          3D

 52 56  0  0  0  0  0  0  0  0999 V2000
   60.3880   26.4340   49.9080 O   0  0  0  0  0  0  0  0  0  0  0  0
   60.7460   27.5010   49.3380 C   0  0  0  0  0  0  0  0  0  0  0  0
   61.2360   28.6520   50.1510 C   0  0  0  0  0  0  0  0  0  0  0  0
   60.1980   29.7390   50.1250 C   0  0  0  0  0  0  0  0  0  0  0  0
   59.8560   30.5730   49.0510 C   0  0  0  0  0  0  0  0  0  0  0  0
   60.5290   30.6240   47.7090 C   0  0  0  0  0  0  0  0  0  0  0  0
   60.4560   32.0110   47.1470 C   0  0  0  0  0  0  0  0  0  0  0  0
   61.4670   32.9680   47.1610 C   0  0  0  0  0  0  0  0  0  0  0  0
   61.0700   34.0840   46.5080 N   0  0  0  0  0  0  0  0  0  0  0  0
   59.8220   33.8370   46.0740 C   0  0  0  0  0  0  0  0  0  0  0  0
   59.0020   34.6840   45.3290 C   0  0  0  0  0  0  0  0  0  0  0  0
   57.7300   34.2100   44.9580 C   0  0  0  0  0  0  0  0  0  0  0  0
   57.3120   32.9120   45.3320 C   0  0  0  0  0  0  0  0  0  0  0  0
   58.1620   32.0780   46.0820 C   0  0  0  0  0  0  0  0  0  0  0  0
   59.4150   32.5790   46.4400 C   0  0  0  0  0  0  0  0  0  0  0  0
   58.7460   31.2910   49.3430 N   0  0  0  0  0  0  0  0  0  0  0  0
   58.3720   30.9160   50.5750 C   0  0  0  0  0  0  0  0  0  0  0  0
   57.2450   31.3400   51.2770 C   0  0  0  0  0  0  0  0  0  0  0  0
   56.9920   30.7570   52.5320 C   0  0  0  0  0  0  0  0  0  0  0  0
   57.8550   29.7620   53.0470 C   0  0  0  0  0  0  0  0  0  0  0  0
   57.5820   29.1800   54.2790 O   0  0  0  0  0  0  0  0  0  0  0  0
   58.9860   29.3560   52.3150 C   0  0  0  0  0  0  0  0  0  0  0  0
   59.2220   29.9650   51.0810 C   0  0  0  0  0  0  0  0  0  0  0  0
   60.8040   27.5760   47.9120 N   0  0  0  0  0  0  0  0  0  0  0  0
   60.3710   26.4830   47.0520 C   0  0  0  0  0  0  0  0  0  0  0  0
   58.8830   26.5730   46.8530 C   0  0  0  0  0  0  0  0  0  0  0  0
   58.0550   25.4820   47.1680 C   0  0  0  0  0  0  0  0  0  0  0  0
   56.6840   25.5330   46.8910 C   0  0  0  0  0  0  0  0  0  0  0  0
   56.1330   26.6690   46.2910 C   0  0  0  0  0  0  0  0  0  0  0  0
   54.7740   26.7090   46.0010 O   0  0  0  0  0  0  0  0  0  0  0  0
   56.9510   27.7570   45.9710 C   0  0  0  0  0  0  0  0  0  0  0  0
   58.3220   27.7070   46.2410 C   0  0  0  0  0  0  0  0  0  0  0  0
   61.4051   28.3268   51.1881 H   0  0  0  0  0  0  0  0  0  0  0  0
   62.1822   29.0282   49.7347 H   0  0  0  0  0  0  0  0  0  0  0  0
   61.5836   30.3317   47.8199 H   0  0  0  0  0  0  0  0  0  0  0  0
   60.0179   29.9314   47.0241 H   0  0  0  0  0  0  0  0  0  0  0  0
   62.4502   32.8353   47.6362 H   0  0  0  0  0  0  0  0  0  0  0  0
   61.6280   34.9540   46.3620 H   0  0  0  0  0  0  0  0  0  0  0  0
   59.3388   35.6906   45.0405 H   0  0  0  0  0  0  0  0  0  0  0  0
   57.0564   34.8536   44.3731 H   0  0  0  0  0  0  0  0  0  0  0  0
   56.3160   32.5518   45.0348 H   0  0  0  0  0  0  0  0  0  0  0  0
   57.8496   31.0652   46.3763 H   0  0  0  0  0  0  0  0  0  0  0  0
   58.2490   31.9630   48.7150 H   0  0  0  0  0  0  0  0  0  0  0  0
   56.5741   32.1068   50.8625 H   0  0  0  0  0  0  0  0  0  0  0  0
   56.1170   31.0772   53.1167 H   0  0  0  0  0  0  0  0  0  0  0  0
   59.6641   28.5818   52.7034 H   0  0  0  0  0  0  0  0  0  0  0  0
   60.8779   26.5572   46.0786 H   0  0  0  0  0  0  0  0  0  0  0  0
   60.6247   25.5204   47.5201 H   0  0  0  0  0  0  0  0  0  0  0  0
   58.4863   24.5840   47.6343 H   0  0  0  0  0  0  0  0  0  0  0  0
   56.0397   24.6786   47.1456 H   0  0  0  0  0  0  0  0  0  0  0  0
   56.5152   28.6536   45.5061 H   0  0  0  0  0  0  0  0  0  0  0  0
   58.9643   28.5589   45.9733 H   0  0  0  0  0  0  0  0  0  0  0  0
  1  2  2  0
  2  3  1  0
  3  4  1  0
  4  5  2  0
  5  6  1  0
  6  7  1  0
  7  8  2  0
  8  9  1  0
  9 10  1  0
 10 11  2  0
 11 12  1  0
 12 13  2  0
 13 14  1  0
 14 15  2  0
  5 16  1  0
 16 17  1  0
 17 18  2  0
 18 19  1  0
 19 20  2  0
 20 21  1  0
 20 22  1  0
 22 23  2  0
  2 24  1  0
 24 25  1  0
 25 26  1  0
 26 27  2  0
 27 28  1  0
 28 29  2  0
 29 30  1  0
 29 31  1  0
 31 32  2  0
 23  4  1  0
 32 26  1  0
 15  7  1  0
 23 17  1  0
 15 10  1  0
  3 33  1  0
  3 34  1  0
  6 35  1  0
  6 36  1  0
  8 37  1  0
  9 38  1  0
 11 39  1  0
 12 40  1  0
 13 41  1  0
 14 42  1  0
 16 43  1  0
 18 44  1  0
 19 45  1  0
 22 46  1  0
 25 47  1  0
 25 48  1  0
 27 49  1  0
 28 50  1  0
 31 51  1  0
 32 52  1  0
M  CHG  3  21  -1  24  -1  30  -1
M  END
>  <UniqueID>  (70) 
66

>  <SMILES>  (70) 
O=C(Cc1c(Cc2c[nH]c3ccccc23)[nH]c2ccc([O-])cc12)[N-]Cc1ccc([O-])cc1

>  <Energy>  (70) 
113.67682627689966

>  <Genealogy>  (70) 
O=C(Cc1c(Cc2c[nH]c3ccccc23)[nH]c2ccc([O-])cc12)[N-]Cc1ccc([O-])cc1 (protonated)
O=C(Cc1c(Cc2c[nH]c3ccccc23)[nH]c2ccc([O-])cc12)[N-]Cc1ccc([O-])cc1 (3D coordinates assigned)
O=C(Cc1c(Cc2c[nH]c3ccccc23)[nH]c2ccc([O-])cc12)[N-]Cc1ccc([O-])cc1 (optimized conformer: 113.67682627689966 kcal/mol)

>  <smiles>  (70) 
O=C(Cc1c(Cc2c[nH]c3ccccc23)[nH]c2ccc(O)cc12)NCc1ccc(O)cc1

>  <score_type>  (70) 
oracle

>  <origin>  (70) 
adg

>  <m_score__min__energy>  (70) 
-14.800000000000001

>  <m_primary>  (70) 
energy

$$$$
70:0
     RDKit          3D

 50 53  0  0  0  0  0  0  0  0999 V2000
   58.7842   29.9984   49.0661 H   0  0  0  0  0  0  0  0  0  0  0  0
   58.7640   29.2700   48.2420 C   0  0  0  0  0  0  0  0  0  0  0  0
   58.9402   28.2036   48.4461 H   0  0  0  0  0  0  0  0  0  0  0  0
   58.5240   29.6830   46.9860 C   0  0  0  0  0  0  0  0  0  0  0  0
   58.4680   28.8730   45.8400 C   0  0  0  0  0  0  0  0  0  0  0  0
   58.4160   27.5330   45.7030 C   0  0  0  0  0  0  0  0  0  0  0  0
   59.3600   27.0139   45.4807 H   0  0  0  0  0  0  0  0  0  0  0  0
   57.2060   26.7040   45.8250 C   0  0  0  0  0  0  0  0  0  0  0  0
   57.1860   25.4360   46.2770 N   0  0  0  0  0  0  0  0  0  0  0  0
   55.8680   25.1490   46.3420 C   0  0  0  0  0  0  0  0  0  0  0  0
   55.4360   24.0270   46.7150 O   0  0  0  0  0  0  0  0  0  0  0  0
   55.0480   26.1630   45.9880 N   0  0  0  0  0  0  0  0  0  0  0  0
   55.9130   27.1430   45.6780 C   0  0  0  0  0  0  0  0  0  0  0  0
   55.5270   28.4140   45.2720 O   0  0  0  0  0  0  0  0  0  0  0  0
   58.4530   29.7330   44.7580 C   0  0  0  0  0  0  0  0  0  0  0  0
   58.4664   29.4488   43.6954 H   0  0  0  0  0  0  0  0  0  0  0  0
   58.4180   31.0140   45.2640 C   0  0  0  0  0  0  0  0  0  0  0  0
   58.4150   32.2520   44.4160 C   0  0  0  0  0  0  0  0  0  0  0  0
   58.4128   33.1406   45.0644 H   0  0  0  0  0  0  0  0  0  0  0  0
   59.3131   32.2636   43.7810 H   0  0  0  0  0  0  0  0  0  0  0  0
   57.5168   32.2593   43.7810 H   0  0  0  0  0  0  0  0  0  0  0  0
   58.4560   30.9940   46.6180 N   0  0  0  0  0  0  0  0  0  0  0  0
   58.5010   32.1880   47.4790 C   0  0  0  0  0  0  0  0  0  0  0  0
   58.0750   33.0423   46.9325 H   0  0  0  0  0  0  0  0  0  0  0  0
   57.9192   31.9860   48.3904 H   0  0  0  0  0  0  0  0  0  0  0  0
   59.9190   32.5130   47.8750 C   0  0  0  0  0  0  0  0  0  0  0  0
   60.1830   33.5450   48.7880 C   0  0  0  0  0  0  0  0  0  0  0  0
   59.3503   34.1255   49.2120 H   0  0  0  0  0  0  0  0  0  0  0  0
   61.4980   33.8410   49.1630 C   0  0  0  0  0  0  0  0  0  0  0  0
   61.6910   34.6468   49.8864 H   0  0  0  0  0  0  0  0  0  0  0  0
   62.5750   33.1160   48.6220 C   0  0  0  0  0  0  0  0  0  0  0  0
   63.9730   33.4160   49.0180 C   0  0  0  0  0  0  0  0  0  0  0  0
   64.8790   33.4160   48.1400 O   0  0  0  0  0  0  0  0  0  0  0  0
   64.3020   33.7490   50.3770 N   0  0  0  0  0  0  0  0  0  0  0  0
   63.5460   34.1350   50.9860 H   0  0  0  0  0  0  0  0  0  0  0  0
   65.6390   33.6810   50.9030 C   0  0  0  0  0  0  0  0  0  0  0  0
   66.5460   32.7180   50.4210 C   0  0  0  0  0  0  0  0  0  0  0  0
   66.2364   32.0287   49.6216 H   0  0  0  0  0  0  0  0  0  0  0  0
   67.8360   32.6310   50.9500 C   0  0  0  0  0  0  0  0  0  0  0  0
   68.5391   31.8791   50.5623 H   0  0  0  0  0  0  0  0  0  0  0  0
   68.2340   33.4970   51.9700 C   0  0  0  0  0  0  0  0  0  0  0  0
   69.2516   33.4300   52.3823 H   0  0  0  0  0  0  0  0  0  0  0  0
   67.3410   34.4480   52.4670 C   0  0  0  0  0  0  0  0  0  0  0  0
   67.6572   35.1266   53.2729 H   0  0  0  0  0  0  0  0  0  0  0  0
   66.0440   34.5430   51.9450 C   0  0  0  0  0  0  0  0  0  0  0  0
   64.8790   35.8910   52.6510 Br  0  0  0  0  0  0  0  0  0  0  0  0
   62.3050   32.0790   47.7120 C   0  0  0  0  0  0  0  0  0  0  0  0
   63.1356   31.4938   47.2907 H   0  0  0  0  0  0  0  0  0  0  0  0
   60.9920   31.7850   47.3380 C   0  0  0  0  0  0  0  0  0  0  0  0
   60.7974   30.9770   46.6174 H   0  0  0  0  0  0  0  0  0  0  0  0
  1  2  1  0
  2  3  1  0
  2  4  2  0
  4  5  1  0
  5  6  2  0
  6  7  1  0
  6  8  1  0
  8  9  1  0
  9 10  1  0
 10 11  2  0
 10 12  1  0
 12 13  1  0
 13 14  1  0
  5 15  1  0
 15 16  1  0
 15 17  2  0
 17 18  1  0
 18 19  1  0
 18 20  1  0
 18 21  1  0
 17 22  1  0
 22 23  1  0
 23 24  1  0
 23 25  1  0
 23 26  1  0
 26 27  2  0
 27 28  1  0
 27 29  1  0
 29 30  1  0
 29 31  2  0
 31 32  1  0
 32 33  2  0
 32 34  1  0
 34 35  1  0
 34 36  1  0
 36 37  2  0
 37 38  1  0
 37 39  1  0
 39 40  1  0
 39 41  2  0
 41 42  1  0
 41 43  1  0
 43 44  1  0
 43 45  2  0
 45 46  1  0
 31 47  1  0
 47 48  1  0
 47 49  2  0
 49 50  1  0
 22  4  1  0
 49 26  1  0
 13  8  2  0
 45 36  1  0
M  CHG  3   9  -1  12  -1  14  -1
M  END
>  <UniqueID>  (71) 
67

>  <SMILES>  (71) 
C=c1/c(=C\c2[n-]c(=O)[n-]c2[O-])cc(C)n1Cc1ccc(C(=O)Nc2ccccc2Br)cc1

>  <Energy>  (71) 
129.64476754811645

>  <Genealogy>  (71) 
C=c1c(=Cc2[n-]c(=O)[n-]c2[O-])cc(C)n1Cc1ccc(C(=O)Nc2ccccc2Br)cc1 (protonated)
C=c1/c(=C\c2[n-]c(=O)[n-]c2[O-])cc(C)n1Cc1ccc(C(=O)Nc2ccccc2Br)cc1 (cis-trans isomerization)
C=c1/c(=C\c2[n-]c(=O)[n-]c2[O-])cc(C)n1Cc1ccc(C(=O)Nc2ccccc2Br)cc1 (3D coordinates assigned)
C=c1/c(=C\c2[n-]c(=O)[n-]c2[O-])cc(C)n1Cc1ccc(C(=O)Nc2ccccc2Br)cc1 (optimized conformer: 129.64476754811645 kcal/mol)

>  <smiles>  (71) 
C=c1c(=Cc2[nH]c(=O)[nH]c2O)cc(C)n1Cc1ccc(C(=O)Nc2ccccc2Br)cc1

>  <score_type>  (71) 
oracle

>  <origin>  (71) 
adg

>  <m_score__min__energy>  (71) 
-17.809999999999999

>  <m_primary>  (71) 
energy

$$$$
71:0
     RDKit          3D

 53 56  0  0  0  0  0  0  0  0999 V2000
   55.9790   27.1480   46.0460 O   0  0  0  0  0  0  0  0  0  0  0  0
   57.1660   26.9680   45.6660 C   0  0  0  0  0  0  0  0  0  0  0  0
   57.6150   27.5170   44.3340 C   0  0  0  0  0  0  0  0  0  0  0  0
   57.5450   29.0240   44.2990 C   0  0  0  0  0  0  0  0  0  0  0  0
   58.7280   29.7690   44.1560 C   0  0  0  0  0  0  0  0  0  0  0  0
   58.6880   31.1660   44.1490 C   0  0  0  0  0  0  0  0  0  0  0  0
   57.4700   31.8320   44.2970 C   0  0  0  0  0  0  0  0  0  0  0  0
   56.2890   31.1030   44.4560 C   0  0  0  0  0  0  0  0  0  0  0  0
   56.3190   29.7000   44.4610 C   0  0  0  0  0  0  0  0  0  0  0  0
   55.1360   28.9810   44.6310 O   0  0  0  0  0  0  0  0  0  0  0  0
   58.0320   26.1740   46.4880 N   0  0  0  0  0  0  0  0  0  0  0  0
   59.3900   26.5300   46.8870 C   0  0  0  0  0  0  0  0  0  0  0  0
   59.5120   28.0160   47.0980 C   0  0  0  0  0  0  0  0  0  0  0  0
   60.4900   28.7560   46.4160 C   0  0  0  0  0  0  0  0  0  0  0  0
   60.6060   30.1330   46.6250 C   0  0  0  0  0  0  0  0  0  0  0  0
   59.7460   30.7930   47.5190 C   0  0  0  0  0  0  0  0  0  0  0  0
   59.8640   32.2530   47.7400 C   0  0  0  0  0  0  0  0  0  0  0  0
   58.8260   32.9690   47.7540 O   0  0  0  0  0  0  0  0  0  0  0  0
   61.1450   32.8690   47.9620 N   0  0  0  0  0  0  0  0  0  0  0  0
   62.0090   33.1440   46.8050 C   0  0  0  0  0  0  0  0  0  0  0  0
   63.4490   32.7430   47.1210 C   0  0  0  0  0  0  0  0  0  0  0  0
   63.9580   33.5160   48.3400 C   0  0  0  0  0  0  0  0  0  0  0  0
   63.0020   33.4280   49.5040 C   0  0  0  0  0  0  0  0  0  0  0  0
   63.4680   33.7180   50.7960 C   0  0  0  0  0  0  0  0  0  0  0  0
   62.5920   33.7130   51.8820 C   0  0  0  0  0  0  0  0  0  0  0  0
   61.2390   33.4360   51.6860 C   0  0  0  0  0  0  0  0  0  0  0  0
   60.7570   33.1580   50.4040 C   0  0  0  0  0  0  0  0  0  0  0  0
   61.6310   33.1470   49.2980 C   0  0  0  0  0  0  0  0  0  0  0  0
   58.7530   30.0520   48.1830 C   0  0  0  0  0  0  0  0  0  0  0  0
   58.6390   28.6750   47.9760 C   0  0  0  0  0  0  0  0  0  0  0  0
   58.6536   27.2041   44.1513 H   0  0  0  0  0  0  0  0  0  0  0  0
   56.9425   27.1244   43.5571 H   0  0  0  0  0  0  0  0  0  0  0  0
   59.6916   29.2493   44.0489 H   0  0  0  0  0  0  0  0  0  0  0  0
   59.6174   31.7415   44.0267 H   0  0  0  0  0  0  0  0  0  0  0  0
   57.4402   32.9316   44.2884 H   0  0  0  0  0  0  0  0  0  0  0  0
   55.3316   31.6309   44.5778 H   0  0  0  0  0  0  0  0  0  0  0  0
   55.1410   28.0100   44.9200 H   0  0  0  0  0  0  0  0  0  0  0  0
   59.6385   26.0108   47.8244 H   0  0  0  0  0  0  0  0  0  0  0  0
   60.0832   26.2288   46.0878 H   0  0  0  0  0  0  0  0  0  0  0  0
   61.1686   28.2499   45.7136 H   0  0  0  0  0  0  0  0  0  0  0  0
   61.3760   30.7042   46.0858 H   0  0  0  0  0  0  0  0  0  0  0  0
   61.6521   32.5676   45.9387 H   0  0  0  0  0  0  0  0  0  0  0  0
   61.9755   34.2196   46.5770 H   0  0  0  0  0  0  0  0  0  0  0  0
   63.4876   31.6643   47.3328 H   0  0  0  0  0  0  0  0  0  0  0  0
   64.0853   32.9789   46.2553 H   0  0  0  0  0  0  0  0  0  0  0  0
   64.9288   33.0986   48.6453 H   0  0  0  0  0  0  0  0  0  0  0  0
   64.0518   34.5747   48.0564 H   0  0  0  0  0  0  0  0  0  0  0  0
   64.5315   33.9509   50.9534 H   0  0  0  0  0  0  0  0  0  0  0  0
   62.9685   33.9276   52.8931 H   0  0  0  0  0  0  0  0  0  0  0  0
   60.5494   33.4364   52.5430 H   0  0  0  0  0  0  0  0  0  0  0  0
   59.6877   32.9462   50.2569 H   0  0  0  0  0  0  0  0  0  0  0  0
   58.0607   30.5600   48.8705 H   0  0  0  0  0  0  0  0  0  0  0  0
   57.8607   28.1048   48.5043 H   0  0  0  0  0  0  0  0  0  0  0  0
  1  2  2  0
  2  3  1  0
  3  4  1  0
  4  5  2  0
  5  6  1  0
  6  7  2  0
  7  8  1  0
  8  9  2  0
  9 10  1  0
  2 11  1  0
 11 12  1  0
 12 13  1  0
 13 14  2  0
 14 15  1  0
 15 16  2  0
 16 17  1  0
 17 18  2  0
 17 19  1  0
 19 20  1  0
 20 21  1  0
 21 22  1  0
 22 23  1  0
 23 24  2  0
 24 25  1  0
 25 26  2  0
 26 27  1  0
 27 28  2  0
 16 29  1  0
 29 30  2  0
  9  4  1  0
 30 13  1  0
 28 19  1  0
 28 23  1  0
  3 31  1  0
  3 32  1  0
  5 33  1  0
  6 34  1  0
  7 35  1  0
  8 36  1  0
 10 37  1  0
 12 38  1  0
 12 39  1  0
 14 40  1  0
 15 41  1  0
 20 42  1  0
 20 43  1  0
 21 44  1  0
 21 45  1  0
 22 46  1  0
 22 47  1  0
 24 48  1  0
 25 49  1  0
 26 50  1  0
 27 51  1  0
 29 52  1  0
 30 53  1  0
M  CHG  1  11  -1
M  END
>  <UniqueID>  (72) 
68

>  <SMILES>  (72) 
O=C(Cc1ccccc1O)[N-]Cc1ccc(C(=O)N2CCCc3ccccc32)cc1

>  <Energy>  (72) 
62.43947488543278

>  <Genealogy>  (72) 
O=C(Cc1ccccc1O)[N-]Cc1ccc(C(=O)N2CCCc3ccccc32)cc1 (protonated)
O=C(Cc1ccccc1O)[N-]Cc1ccc(C(=O)N2CCCc3ccccc32)cc1 (3D coordinates assigned)
O=C(Cc1ccccc1O)[N-]Cc1ccc(C(=O)N2CCCc3ccccc32)cc1 (nonaromatic ring conformer: 62.43947488543278 kcal/mol)

>  <smiles>  (72) 
O=C(Cc1ccccc1O)NCc1ccc(C(=O)N2CCCc3ccccc32)cc1

>  <score_type>  (72) 
oracle

>  <origin>  (72) 
adg

>  <m_score__min__energy>  (72) 
-12.34

>  <m_primary>  (72) 
energy

$$$$
72:0
     RDKit          3D

 47 50  0  0  0  0  0  0  0  0999 V2000
   61.3260   29.8510   49.2630 H   0  0  0  0  0  0  0  0  0  0  0  0
   60.4550   29.3050   49.0840 N   0  0  0  0  0  0  0  0  0  0  0  0
   59.1990   29.7330   49.6070 C   0  0  0  0  0  0  0  0  0  0  0  0
   58.1830   29.0070   49.4330 O   0  0  0  0  0  0  0  0  0  0  0  0
   59.0950   31.0190   50.3440 C   0  0  0  0  0  0  0  0  0  0  0  0
   58.8970   31.0130   51.6810 C   0  0  0  0  0  0  0  0  0  0  0  0
   59.1087   31.9432   52.2287 H   0  0  0  0  0  0  0  0  0  0  0  0
   58.4180   29.8540   52.4660 C   0  0  0  0  0  0  0  0  0  0  0  0
   59.1360   28.6720   52.6600 C   0  0  0  0  0  0  0  0  0  0  0  0
   60.1575   28.4732   52.3035 H   0  0  0  0  0  0  0  0  0  0  0  0
   58.1720   27.6040   53.5320 S   0  0  0  0  0  0  0  0  0  0  0  0
   56.8460   28.6260   53.6720 C   0  0  0  0  0  0  0  0  0  0  0  0
   55.5340   28.2600   54.2920 C   0  0  0  0  0  0  0  0  0  0  0  0
   55.1546   27.3395   53.8243 H   0  0  0  0  0  0  0  0  0  0  0  0
   55.6775   28.0997   55.3707 H   0  0  0  0  0  0  0  0  0  0  0  0
   54.5640   29.3410   54.0920 N   0  0  0  0  0  0  0  0  0  0  0  0
   54.0820   29.6710   52.7750 C   0  0  0  0  0  0  0  0  0  0  0  0
   54.5680   29.1070   51.7560 O   0  0  0  0  0  0  0  0  0  0  0  0
   53.0010   30.6690   52.6320 C   0  0  0  0  0  0  0  0  0  0  0  0
   52.6030   31.1380   51.3680 C   0  0  0  0  0  0  0  0  0  0  0  0
   53.0994   30.7605   50.4619 H   0  0  0  0  0  0  0  0  0  0  0  0
   51.5780   32.0830   51.2590 C   0  0  0  0  0  0  0  0  0  0  0  0
   51.1940   32.5430   50.0040 O   0  0  0  0  0  0  0  0  0  0  0  0
   50.9400   32.5620   52.4080 C   0  0  0  0  0  0  0  0  0  0  0  0
   49.9170   33.4970   52.3020 O   0  0  0  0  0  0  0  0  0  0  0  0
   51.3290   32.0980   53.6690 C   0  0  0  0  0  0  0  0  0  0  0  0
   50.8179   32.4686   54.5698 H   0  0  0  0  0  0  0  0  0  0  0  0
   52.3670   31.1630   53.7910 C   0  0  0  0  0  0  0  0  0  0  0  0
   52.7360   30.6160   55.1490 C   0  0  0  0  0  0  0  0  0  0  0  0
   52.1255   29.7244   55.3548 H   0  0  0  0  0  0  0  0  0  0  0  0
   52.5488   31.3962   55.9015 H   0  0  0  0  0  0  0  0  0  0  0  0
   54.2190   30.2310   55.2070 C   0  0  0  0  0  0  0  0  0  0  0  0
   54.4221   29.7158   56.1574 H   0  0  0  0  0  0  0  0  0  0  0  0
   54.8266   31.1450   55.1332 H   0  0  0  0  0  0  0  0  0  0  0  0
   57.1270   29.8140   53.0110 C   0  0  0  0  0  0  0  0  0  0  0  0
   56.4080   30.6419   52.9236 H   0  0  0  0  0  0  0  0  0  0  0  0
   59.1400   32.2810   49.5650 C   0  0  0  0  0  0  0  0  0  0  0  0
   59.8150   33.4060   50.0690 C   0  0  0  0  0  0  0  0  0  0  0  0
   60.3142   33.3529   51.0477 H   0  0  0  0  0  0  0  0  0  0  0  0
   59.8540   34.5930   49.3300 C   0  0  0  0  0  0  0  0  0  0  0  0
   60.3882   35.4693   49.7259 H   0  0  0  0  0  0  0  0  0  0  0  0
   59.2150   34.6670   48.0890 C   0  0  0  0  0  0  0  0  0  0  0  0
   59.2491   35.6004   47.5080 H   0  0  0  0  0  0  0  0  0  0  0  0
   58.5330   33.5560   47.5860 C   0  0  0  0  0  0  0  0  0  0  0  0
   58.0278   33.6167   46.6108 H   0  0  0  0  0  0  0  0  0  0  0  0
   58.4920   32.3670   48.3210 C   0  0  0  0  0  0  0  0  0  0  0  0
   57.9505   31.4958   47.9239 H   0  0  0  0  0  0  0  0  0  0  0  0
  1  2  1  0
  2  3  1  0
  3  4  2  0
  3  5  1  0
  5  6  2  0
  6  7  1  0
  6  8  1  0
  8  9  2  0
  9 10  1  0
  9 11  1  0
 11 12  1  0
 12 13  1  0
 13 14  1  0
 13 15  1  0
 13 16  1  0
 16 17  1  0
 17 18  2  0
 17 19  1  0
 19 20  2  0
 20 21  1  0
 20 22  1  0
 22 23  1  0
 22 24  2  0
 24 25  1  0
 24 26  1  0
 26 27  1  0
 26 28  2  0
 28 29  1  0
 29 30  1  0
 29 31  1  0
 29 32  1  0
 32 33  1  0
 32 34  1  0
 12 35  2  0
 35 36  1  0
  5 37  1  0
 37 38  2  0
 38 39  1  0
 38 40  1  0
 40 41  1  0
 40 42  2  0
 42 43  1  0
 42 44  1  0
 44 45  1  0
 44 46  2  0
 46 47  1  0
 35  8  1  0
 46 37  1  0
 32 16  1  0
 28 19  1  0
M  CHG  3   2  -1  23  -1  25  -1
M  END
>  <UniqueID>  (73) 
69

>  <SMILES>  (73) 
[NH-]C(=O)/C(=C/c1csc(CN2CCc3cc([O-])c([O-])cc3C2=O)c1)c1ccccc1

>  <Energy>  (73) 
86.25562514351455

>  <Genealogy>  (73) 
[NH-]C(=O)C(=Cc1csc(CN2CCc3cc([O-])c([O-])cc3C2=O)c1)c1ccccc1 (protonated)
[NH-]C(=O)/C(=C/c1csc(CN2CCc3cc([O-])c([O-])cc3C2=O)c1)c1ccccc1 (cis-trans isomerization)
[NH-]C(=O)/C(=C/c1csc(CN2CCc3cc([O-])c([O-])cc3C2=O)c1)c1ccccc1 (3D coordinates assigned)
[NH-]C(=O)/C(=C/c1csc(CN2CCc3cc([O-])c([O-])cc3C2=O)c1)c1ccccc1 (nonaromatic ring conformer: 86.25562514351455 kcal/mol)

>  <smiles>  (73) 
NC(=O)C(=Cc1csc(CN2CCc3cc(O)c(O)cc3C2=O)c1)c1ccccc1

>  <score_type>  (73) 
oracle

>  <origin>  (73) 
adg

>  <m_score__min__energy>  (73) 
-15.74

>  <m_primary>  (73) 
energy

$$$$
73:0
     RDKit          3D

 50 53  0  0  0  0  0  0  0  0999 V2000
   54.4630   30.2680   44.2460 H   0  0  0  0  0  0  0  0  0  0  0  0
   54.9540   29.3630   44.4230 N   0  0  0  0  0  0  0  0  0  0  0  0
   56.1700   29.3290   44.8590 C   0  0  0  0  0  0  0  0  0  0  0  0
   56.6310   28.2220   45.5180 N   0  0  0  0  0  0  0  0  0  0  0  0
   57.9150   28.2180   45.9530 C   0  0  0  0  0  0  0  0  0  0  0  0
   58.7430   29.2820   45.7670 C   0  0  0  0  0  0  0  0  0  0  0  0
   58.2820   30.4150   45.1120 C   0  0  0  0  0  0  0  0  0  0  0  0
   58.9333   31.2882   44.9593 H   0  0  0  0  0  0  0  0  0  0  0  0
   56.9910   30.4090   44.6630 N   0  0  0  0  0  0  0  0  0  0  0  0
   59.9390   28.9780   46.3840 C   0  0  0  0  0  0  0  0  0  0  0  0
   61.1230   29.8800   46.5690 C   0  0  0  0  0  0  0  0  0  0  0  0
   62.0369   29.2694   46.6125 H   0  0  0  0  0  0  0  0  0  0  0  0
   61.1664   30.5793   45.7210 H   0  0  0  0  0  0  0  0  0  0  0  0
   61.0040   30.6630   47.8200 N   0  0  0  0  0  0  0  0  0  0  0  0
   61.7410   31.9480   47.7800 C   0  0  0  0  0  0  0  0  0  0  0  0
   61.7627   32.3727   48.7945 H   0  0  0  0  0  0  0  0  0  0  0  0
   62.7534   31.7382   47.4043 H   0  0  0  0  0  0  0  0  0  0  0  0
   61.0960   32.9760   46.8290 C   0  0  0  0  0  0  0  0  0  0  0  0
   61.3850   33.9862   47.1545 H   0  0  0  0  0  0  0  0  0  0  0  0
   61.4542   32.7582   45.8120 H   0  0  0  0  0  0  0  0  0  0  0  0
   59.5520   32.8850   46.8100 C   0  0  0  0  0  0  0  0  0  0  0  0
   59.2583   32.2414   45.9677 H   0  0  0  0  0  0  0  0  0  0  0  0
   58.9390   34.2460   46.5910 C   0  0  0  0  0  0  0  0  0  0  0  0
   58.1010   34.4220   45.6670 O   0  0  0  0  0  0  0  0  0  0  0  0
   59.2670   35.3340   47.4580 N   0  0  0  0  0  0  0  0  0  0  0  0
   58.8340   36.2720   47.3100 H   0  0  0  0  0  0  0  0  0  0  0  0
   59.9350   35.2060   48.2490 H   0  0  0  0  0  0  0  0  0  0  0  0
   59.0210   32.2370   48.0950 C   0  0  0  0  0  0  0  0  0  0  0  0
   59.3156   32.8528   48.9576 H   0  0  0  0  0  0  0  0  0  0  0  0
   57.9251   32.1696   48.0285 H   0  0  0  0  0  0  0  0  0  0  0  0
   59.5940   30.8140   48.2700 C   0  0  0  0  0  0  0  0  0  0  0  0
   59.5426   30.5505   49.3367 H   0  0  0  0  0  0  0  0  0  0  0  0
   58.9879   30.1498   47.6363 H   0  0  0  0  0  0  0  0  0  0  0  0
   59.7640   27.7110   46.9380 C   0  0  0  0  0  0  0  0  0  0  0  0
   60.5236   27.1677   47.5192 H   0  0  0  0  0  0  0  0  0  0  0  0
   58.5220   27.2450   46.6570 N   0  0  0  0  0  0  0  0  0  0  0  0
   57.9160   26.0260   47.1860 C   0  0  0  0  0  0  0  0  0  0  0  0
   58.6172   25.5410   47.8811 H   0  0  0  0  0  0  0  0  0  0  0  0
   56.9871   26.2817   47.7169 H   0  0  0  0  0  0  0  0  0  0  0  0
   57.6010   25.0850   46.0560 C   0  0  0  0  0  0  0  0  0  0  0  0
   56.3300   25.0940   45.4580 C   0  0  0  0  0  0  0  0  0  0  0  0
   55.5736   25.8208   45.7891 H   0  0  0  0  0  0  0  0  0  0  0  0
   56.0230   24.1820   44.4430 C   0  0  0  0  0  0  0  0  0  0  0  0
   55.0289   24.1981   43.9723 H   0  0  0  0  0  0  0  0  0  0  0  0
   56.9780   23.2500   44.0260 C   0  0  0  0  0  0  0  0  0  0  0  0
   56.6780   22.3640   43.0430 F   0  0  0  0  0  0  0  0  0  0  0  0
   58.2410   23.2260   44.6260 C   0  0  0  0  0  0  0  0  0  0  0  0
   58.9909   22.4904   44.2996 H   0  0  0  0  0  0  0  0  0  0  0  0
   58.5510   24.1370   45.6410 C   0  0  0  0  0  0  0  0  0  0  0  0
   59.5427   24.1110   46.1162 H   0  0  0  0  0  0  0  0  0  0  0  0
  1  2  1  0
  2  3  2  0
  3  4  1  0
  4  5  2  0
  5  6  1  0
  6  7  2  0
  7  8  1  0
  7  9  1  0
  6 10  1  0
 10 11  1  0
 11 12  1  0
 11 13  1  0
 11 14  1  0
 14 15  1  0
 15 16  1  0
 15 17  1  0
 15 18  1  0
 18 19  1  0
 18 20  1  0
 18 21  1  0
 21 22  1  0
 21 23  1  0
 23 24  2  0
 23 25  1  0
 25 26  1  0
 25 27  1  0
 21 28  1  0
 28 29  1  0
 28 30  1  0
 28 31  1  0
 31 32  1  0
 31 33  1  0
 10 34  2  0
 34 35  1  0
 34 36  1  0
 36 37  1  0
 37 38  1  0
 37 39  1  0
 37 40  1  0
 40 41  2  0
 41 42  1  0
 41 43  1  0
 43 44  1  0
 43 45  2  0
 45 46  1  0
 45 47  1  0
 47 48  1  0
 47 49  2  0
 49 50  1  0
  9  3  1  0
 31 14  1  0
 49 40  1  0
 36  5  1  0
M  CHG  1   9  -1
M  END
>  <UniqueID>  (74) 
70

>  <SMILES>  (74) 
[H]/N=c1\nc2c(c[n-]1)c(CN1CCC(C(N)=O)CC1)cn2Cc1ccc(F)cc1

>  <Energy>  (74) 
94.24727020957954

>  <Genealogy>  (74) 
N=c1nc2c(c[n-]1)c(CN1CCC(C(N)=O)CC1)cn2Cc1ccc(F)cc1 (protonated)
[H]/N=c1\nc2c(c[n-]1)c(CN1CCC(C(N)=O)CC1)cn2Cc1ccc(F)cc1 (cis-trans isomerization)
[H]/N=c1\nc2c(c[n-]1)c(CN1CCC(C(N)=O)CC1)cn2Cc1ccc(F)cc1 (3D coordinates assigned)
[H]/N=c1\nc2c(c[n-]1)c(CN1CCC(C(N)=O)CC1)cn2Cc1ccc(F)cc1 (nonaromatic ring conformer: 94.24727020957954 kcal/mol)

>  <smiles>  (74) 
N=c1nc2c(c[nH]1)c(CN1CCC(C(N)=O)CC1)cn2Cc1ccc(F)cc1

>  <score_type>  (74) 
oracle

>  <origin>  (74) 
adg

>  <m_score__min__energy>  (74) 
-9.8599999999999994

>  <m_primary>  (74) 
energy

$$$$
74:0
     RDKit          3D

 38 40  0  0  0  0  0  0  0  0999 V2000
   59.9220   27.0900   47.9700 C   0  0  0  0  0  0  0  0  0  0  0  0
   58.8760   27.9820   48.3350 O   0  0  0  0  0  0  0  0  0  0  0  0
   59.1160   29.2270   48.9220 C   0  0  0  0  0  0  0  0  0  0  0  0
   59.4640   29.3060   50.1310 O   0  0  0  0  0  0  0  0  0  0  0  0
   58.9560   30.4580   48.1290 C   0  0  0  0  0  0  0  0  0  0  0  0
   59.2780   31.6910   48.5860 N   0  0  0  0  0  0  0  0  0  0  0  0
   58.9680   32.5480   47.5950 C   0  0  0  0  0  0  0  0  0  0  0  0
   59.1300   33.9320   47.6130 C   0  0  0  0  0  0  0  0  0  0  0  0
   58.7550   34.6550   46.4700 C   0  0  0  0  0  0  0  0  0  0  0  0
   58.2440   33.9890   45.3370 C   0  0  0  0  0  0  0  0  0  0  0  0
   58.1010   32.5850   45.3260 C   0  0  0  0  0  0  0  0  0  0  0  0
   57.5830   31.8880   44.1010 C   0  0  0  0  0  0  0  0  0  0  0  0
   58.4520   31.8920   46.4990 C   0  0  0  0  0  0  0  0  0  0  0  0
   58.4350   30.5490   46.8420 C   0  0  0  0  0  0  0  0  0  0  0  0
   57.9510   29.4600   46.0530 N   0  0  0  0  0  0  0  0  0  0  0  0
   58.8350   28.6470   45.2710 C   0  0  0  0  0  0  0  0  0  0  0  0
   60.0750   28.8780   45.2660 O   0  0  0  0  0  0  0  0  0  0  0  0
   58.2960   27.4890   44.4910 C   0  0  0  0  0  0  0  0  0  0  0  0
   57.2060   26.8190   45.2670 C   0  0  0  0  0  0  0  0  0  0  0  0
   57.3220   25.6050   45.8340 N   0  0  0  0  0  0  0  0  0  0  0  0
   56.1490   25.4550   46.4870 C   0  0  0  0  0  0  0  0  0  0  0  0
   55.8690   24.4220   47.1490 O   0  0  0  0  0  0  0  0  0  0  0  0
   55.3020   26.5010   46.3810 N   0  0  0  0  0  0  0  0  0  0  0  0
   55.9900   27.3580   45.6100 C   0  0  0  0  0  0  0  0  0  0  0  0
   55.5200   28.6120   45.2380 O   0  0  0  0  0  0  0  0  0  0  0  0
   60.3942   26.6874   48.8783 H   0  0  0  0  0  0  0  0  0  0  0  0
   59.5076   26.2630   47.3747 H   0  0  0  0  0  0  0  0  0  0  0  0
   60.6732   27.6298   47.3747 H   0  0  0  0  0  0  0  0  0  0  0  0
   59.6810   31.9330   49.5190 H   0  0  0  0  0  0  0  0  0  0  0  0
   59.5397   34.4427   48.4969 H   0  0  0  0  0  0  0  0  0  0  0  0
   58.8606   35.7499   46.4579 H   0  0  0  0  0  0  0  0  0  0  0  0
   57.9531   34.5713   44.4503 H   0  0  0  0  0  0  0  0  0  0  0  0
   56.9518   31.0387   44.4017 H   0  0  0  0  0  0  0  0  0  0  0  0
   56.9880   32.5931   43.5020 H   0  0  0  0  0  0  0  0  0  0  0  0
   58.4297   31.5216   43.5020 H   0  0  0  0  0  0  0  0  0  0  0  0
   56.9190   29.3600   45.9270 H   0  0  0  0  0  0  0  0  0  0  0  0
   57.8936   27.8496   43.5329 H   0  0  0  0  0  0  0  0  0  0  0  0
   59.1056   26.7679   44.3049 H   0  0  0  0  0  0  0  0  0  0  0  0
  1  2  1  0
  2  3  1  0
  3  4  2  0
  3  5  1  0
  5  6  1  0
  6  7  1  0
  7  8  2  0
  8  9  1  0
  9 10  2  0
 10 11  1  0
 11 12  1  0
 11 13  2  0
 13 14  1  0
 14 15  1  0
 15 16  1  0
 16 17  2  0
 16 18  1  0
 18 19  1  0
 19 20  1  0
 20 21  1  0
 21 22  2  0
 21 23  1  0
 23 24  1  0
 24 25  1  0
 14  5  2  0
 24 19  2  0
 13  7  1  0
  1 26  1  0
  1 27  1  0
  1 28  1  0
  6 29  1  0
  8 30  1  0
  9 31  1  0
 10 32  1  0
 12 33  1  0
 12 34  1  0
 12 35  1  0
 15 36  1  0
 18 37  1  0
 18 38  1  0
M  CHG  3  20  -1  23  -1  25  -1
M  END
>  <UniqueID>  (75) 
71

>  <SMILES>  (75) 
COC(=O)c1[nH]c2cccc(C)c2c1NC(=O)Cc1[n-]c(=O)[n-]c1[O-]

>  <Energy>  (75) 
102.83020963611624

>  <Genealogy>  (75) 
COC(=O)c1[nH]c2cccc(C)c2c1NC(=O)Cc1[n-]c(=O)[n-]c1[O-] (protonated)
COC(=O)c1[nH]c2cccc(C)c2c1NC(=O)Cc1[n-]c(=O)[n-]c1[O-] (3D coordinates assigned)
COC(=O)c1[nH]c2cccc(C)c2c1NC(=O)Cc1[n-]c(=O)[n-]c1[O-] (optimized conformer: 102.83020963611624 kcal/mol)

>  <smiles>  (75) 
COC(=O)c1[nH]c2cccc(C)c2c1NC(=O)Cc1[nH]c(=O)[nH]c1O

>  <score_type>  (75) 
oracle

>  <origin>  (75) 
adg

>  <m_score__min__energy>  (75) 
-15.35

>  <m_primary>  (75) 
energy

$$$$
75:0
     RDKit          3D

 54 56  0  0  0  0  0  0  0  0999 V2000
   57.8260   32.5150   47.3220 C   0  0  0  0  0  0  0  0  0  0  0  0
   57.9910   32.4090   45.8260 C   0  0  0  0  0  0  0  0  0  0  0  0
   58.4170   33.5280   45.0930 C   0  0  0  0  0  0  0  0  0  0  0  0
   58.5050   33.4680   43.6950 C   0  0  0  0  0  0  0  0  0  0  0  0
   58.1540   32.2960   43.0160 C   0  0  0  0  0  0  0  0  0  0  0  0
   57.7150   31.1800   43.7340 C   0  0  0  0  0  0  0  0  0  0  0  0
   57.6230   31.2320   45.1350 C   0  0  0  0  0  0  0  0  0  0  0  0
   57.1520   30.0860   45.8500 N   0  0  0  0  0  0  0  0  0  0  0  0
   56.2920   29.1100   45.2460 C   0  0  0  0  0  0  0  0  0  0  0  0
   55.1640   29.4480   44.7920 O   0  0  0  0  0  0  0  0  0  0  0  0
   56.7000   27.7420   45.1440 N   0  0  0  0  0  0  0  0  0  0  0  0
   56.3310   26.7100   46.1120 C   0  0  0  0  0  0  0  0  0  0  0  0
   57.5440   26.0430   46.6920 C   0  0  0  0  0  0  0  0  0  0  0  0
   57.5180   25.5590   47.8590 O   0  0  0  0  0  0  0  0  0  0  0  0
   58.7070   25.8820   45.8740 N   0  0  0  0  0  0  0  0  0  0  0  0
   60.0650   26.0620   46.3680 C   0  0  0  0  0  0  0  0  0  0  0  0
   60.1680   27.3670   47.1100 C   0  0  0  0  0  0  0  0  0  0  0  0
   60.1050   28.5910   46.4300 C   0  0  0  0  0  0  0  0  0  0  0  0
   60.2590   29.7950   47.1290 C   0  0  0  0  0  0  0  0  0  0  0  0
   60.4860   29.7830   48.5120 C   0  0  0  0  0  0  0  0  0  0  0  0
   60.7530   31.2930   49.3860 S   0  0  0  0  0  0  0  0  0  0  0  0
   59.4240   31.9470   49.6710 O   0  0  0  0  0  0  0  0  0  0  0  0
   61.4130   30.9890   50.7000 O   0  0  0  0  0  0  0  0  0  0  0  0
   61.7520   32.4030   48.4790 N   0  0  0  0  0  0  0  0  0  0  0  0
   62.8370   31.6830   47.7970 C   0  0  0  0  0  0  0  0  0  0  0  0
   63.7650   32.7010   47.0960 C   0  0  0  0  0  0  0  0  0  0  0  0
   63.1830   33.9950   46.9910 O   0  0  0  0  0  0  0  0  0  0  0  0
   61.8610   33.8990   46.4970 C   0  0  0  0  0  0  0  0  0  0  0  0
   60.9490   33.1570   47.5000 C   0  0  0  0  0  0  0  0  0  0  0  0
   60.5220   28.5640   49.1960 C   0  0  0  0  0  0  0  0  0  0  0  0
   60.3640   27.3600   48.5020 C   0  0  0  0  0  0  0  0  0  0  0  0
   58.6511   31.9850   47.8204 H   0  0  0  0  0  0  0  0  0  0  0  0
   57.8388   33.5743   47.6182 H   0  0  0  0  0  0  0  0  0  0  0  0
   56.8679   32.0630   47.6182 H   0  0  0  0  0  0  0  0  0  0  0  0
   58.6832   34.4570   45.6184 H   0  0  0  0  0  0  0  0  0  0  0  0
   58.8514   34.3458   43.1297 H   0  0  0  0  0  0  0  0  0  0  0  0
   58.2234   32.2530   41.9190 H   0  0  0  0  0  0  0  0  0  0  0  0
   57.4407   30.2580   43.2004 H   0  0  0  0  0  0  0  0  0  0  0  0
   55.7538   27.1730   46.9259 H   0  0  0  0  0  0  0  0  0  0  0  0
   55.7320   25.9473   45.5929 H   0  0  0  0  0  0  0  0  0  0  0  0
   60.3194   25.2347   47.0469 H   0  0  0  0  0  0  0  0  0  0  0  0
   60.7628   26.0713   45.5177 H   0  0  0  0  0  0  0  0  0  0  0  0
   59.9340   28.6061   45.3435 H   0  0  0  0  0  0  0  0  0  0  0  0
   60.2016   30.7527   46.5910 H   0  0  0  0  0  0  0  0  0  0  0  0
   63.4149   31.1060   48.5339 H   0  0  0  0  0  0  0  0  0  0  0  0
   62.4111   30.9976   47.0495 H   0  0  0  0  0  0  0  0  0  0  0  0
   64.6984   32.7810   47.6725 H   0  0  0  0  0  0  0  0  0  0  0  0
   63.9469   32.3353   46.0746 H   0  0  0  0  0  0  0  0  0  0  0  0
   61.4644   34.9115   46.3308 H   0  0  0  0  0  0  0  0  0  0  0  0
   61.8789   33.3332   45.5538 H   0  0  0  0  0  0  0  0  0  0  0  0
   60.3268   33.8911   48.0329 H   0  0  0  0  0  0  0  0  0  0  0  0
   60.3158   32.4499   46.9442 H   0  0  0  0  0  0  0  0  0  0  0  0
   60.6753   28.5519   50.2852 H   0  0  0  0  0  0  0  0  0  0  0  0
   60.3932   26.4049   49.0470 H   0  0  0  0  0  0  0  0  0  0  0  0
  1  2  1  0
  2  3  2  0
  3  4  1  0
  4  5  2  0
  5  6  1  0
  6  7  2  0
  7  8  1  0
  8  9  1  0
  9 10  2  0
  9 11  1  0
 11 12  1  0
 12 13  1  0
 13 14  2  0
 13 15  1  0
 15 16  1  0
 16 17  1  0
 17 18  2  0
 18 19  1  0
 19 20  2  0
 20 21  1  0
 21 22  2  0
 21 23  2  0
 21 24  1  0
 24 25  1  0
 25 26  1  0
 26 27  1  0
 27 28  1  0
 28 29  1  0
 20 30  1  0
 30 31  2  0
  7  2  1  0
 31 17  1  0
 29 24  1  0
  1 32  1  0
  1 33  1  0
  1 34  1  0
  3 35  1  0
  4 36  1  0
  5 37  1  0
  6 38  1  0
 12 39  1  0
 12 40  1  0
 16 41  1  0
 16 42  1  0
 18 43  1  0
 19 44  1  0
 25 45  1  0
 25 46  1  0
 26 47  1  0
 26 48  1  0
 28 49  1  0
 28 50  1  0
 29 51  1  0
 29 52  1  0
 30 53  1  0
 31 54  1  0
M  CHG  3   8  -1  11  -1  15  -1
M  END
>  <UniqueID>  (76) 
72

>  <SMILES>  (76) 
Cc1ccccc1[N-]C(=O)[N-]CC(=O)[N-]Cc1ccc(S(=O)(=O)N2CCOCC2)cc1

>  <Energy>  (76) 
60.02610815448544

>  <Genealogy>  (76) 
Cc1ccccc1[N-]C(=O)[N-]CC(=O)[N-]Cc1ccc(S(=O)(=O)N2CCOCC2)cc1 (protonated)
Cc1ccccc1[N-]C(=O)[N-]CC(=O)[N-]Cc1ccc(S(=O)(=O)N2CCOCC2)cc1 (3D coordinates assigned)
Cc1ccccc1[N-]C(=O)[N-]CC(=O)[N-]Cc1ccc(S(=O)(=O)N2CCOCC2)cc1 (nonaromatic ring conformer: 60.02610815448544 kcal/mol)

>  <smiles>  (76) 
Cc1ccccc1NC(=O)NCC(=O)NCc1ccc(S(=O)(=O)N2CCOCC2)cc1

>  <score_type>  (76) 
oracle

>  <origin>  (76) 
adg

>  <m_score__min__energy>  (76) 
-15

>  <m_primary>  (76) 
energy

$$$$
76:0
     RDKit          3D

 41 43  0  0  0  0  0  0  0  0999 V2000
   58.8065   35.3201   43.9502 H   0  0  0  0  0  0  0  0  0  0  0  0
   58.9590   34.7240   44.8620 C   0  0  0  0  0  0  0  0  0  0  0  0
   58.5360   33.3980   44.9070 C   0  0  0  0  0  0  0  0  0  0  0  0
   58.0494   32.9497   44.0282 H   0  0  0  0  0  0  0  0  0  0  0  0
   58.7260   32.6310   46.0640 C   0  0  0  0  0  0  0  0  0  0  0  0
   58.2660   31.2720   46.0710 N   0  0  0  0  0  0  0  0  0  0  0  0
   59.0550   30.0820   46.2000 C   0  0  0  0  0  0  0  0  0  0  0  0
   60.1070   30.1380   46.8880 O   0  0  0  0  0  0  0  0  0  0  0  0
   58.6500   28.7830   45.6110 C   0  0  0  0  0  0  0  0  0  0  0  0
   58.7480   28.5410   44.2330 C   0  0  0  0  0  0  0  0  0  0  0  0
   59.1263   29.3269   43.5628 H   0  0  0  0  0  0  0  0  0  0  0  0
   58.3660   27.3040   43.7110 C   0  0  0  0  0  0  0  0  0  0  0  0
   58.4674   27.1026   42.6344 H   0  0  0  0  0  0  0  0  0  0  0  0
   57.8550   26.3250   44.5630 C   0  0  0  0  0  0  0  0  0  0  0  0
   57.3980   24.7150   43.9050 S   0  0  0  0  0  0  0  0  0  0  0  0
   58.4300   23.7850   45.0930 C   0  0  0  0  0  0  0  0  0  0  0  0
   59.2687   24.4169   45.4205 H   0  0  0  0  0  0  0  0  0  0  0  0
   58.8166   22.8781   44.6050 H   0  0  0  0  0  0  0  0  0  0  0  0
   57.6060   23.3920   46.2870 C   0  0  0  0  0  0  0  0  0  0  0  0
   57.6730   22.2080   46.6990 O   0  0  0  0  0  0  0  0  0  0  0  0
   56.6350   24.2750   46.8700 N   0  0  0  0  0  0  0  0  0  0  0  0
   55.5370   24.6810   46.3110 C   0  0  0  0  0  0  0  0  0  0  0  0
   55.1870   25.9720   46.1510 N   0  0  0  0  0  0  0  0  0  0  0  0
   53.9970   25.9620   45.6200 O   0  0  0  0  0  0  0  0  0  0  0  0
   53.5700   24.7320   45.4360 C   0  0  0  0  0  0  0  0  0  0  0  0
   52.2340   24.3700   44.8770 C   0  0  0  0  0  0  0  0  0  0  0  0
   51.5310   24.1795   45.7013 H   0  0  0  0  0  0  0  0  0  0  0  0
   51.8584   25.1988   44.2589 H   0  0  0  0  0  0  0  0  0  0  0  0
   52.3282   23.4650   44.2589 H   0  0  0  0  0  0  0  0  0  0  0  0
   54.5320   23.8480   45.8750 C   0  0  0  0  0  0  0  0  0  0  0  0
   54.5035   22.7484   45.8765 H   0  0  0  0  0  0  0  0  0  0  0  0
   57.7200   26.5850   45.8920 N   0  0  0  0  0  0  0  0  0  0  0  0
   57.3190   25.8530   46.5210 H   0  0  0  0  0  0  0  0  0  0  0  0
   58.1050   27.7760   46.4260 C   0  0  0  0  0  0  0  0  0  0  0  0
   57.9886   27.9522   47.5055 H   0  0  0  0  0  0  0  0  0  0  0  0
   59.3160   33.2250   47.1940 C   0  0  0  0  0  0  0  0  0  0  0  0
   59.4328   32.6456   48.1217 H   0  0  0  0  0  0  0  0  0  0  0  0
   59.7530   34.5480   47.1390 C   0  0  0  0  0  0  0  0  0  0  0  0
   60.2378   35.0025   48.0155 H   0  0  0  0  0  0  0  0  0  0  0  0
   59.5770   35.2960   45.9760 C   0  0  0  0  0  0  0  0  0  0  0  0
   60.0150   36.5810   45.9280 F   0  0  0  0  0  0  0  0  0  0  0  0
  1  2  1  0
  2  3  2  0
  3  4  1  0
  3  5  1  0
  5  6  1  0
  6  7  1  0
  7  8  2  0
  7  9  1  0
  9 10  2  0
 10 11  1  0
 10 12  1  0
 12 13  1  0
 12 14  2  0
 14 15  1  0
 15 16  1  0
 16 17  1  0
 16 18  1  0
 16 19  1  0
 19 20  2  0
 19 21  1  0
 21 22  2  0
 22 23  1  0
 23 24  1  0
 24 25  1  0
 25 26  1  0
 26 27  1  0
 26 28  1  0
 26 29  1  0
 25 30  2  0
 30 31  1  0
 14 32  1  0
 32 33  1  0
 32 34  2  0
 34 35  1  0
  5 36  2  0
 36 37  1  0
 36 38  1  0
 38 39  1  0
 38 40  2  0
 40 41  1  0
 40  2  1  0
 34  9  1  0
 30 22  1  0
M  CHG  3   6  -1  23  -1  32   1
M  END
>  <UniqueID>  (77) 
73

>  <SMILES>  (77) 
Cc1c/c(=N/C(=O)CSc2ccc(C(=O)[N-]c3ccc(F)cc3)c[nH+]2)[n-]o1

>  <Energy>  (77) 
77.8925455184038

>  <Genealogy>  (77) 
Cc1cc(=NC(=O)CSc2ccc(C(=O)[N-]c3ccc(F)cc3)c[nH+]2)[n-]o1 (protonated)
Cc1c/c(=N/C(=O)CSc2ccc(C(=O)[N-]c3ccc(F)cc3)c[nH+]2)[n-]o1 (cis-trans isomerization)
Cc1c/c(=N/C(=O)CSc2ccc(C(=O)[N-]c3ccc(F)cc3)c[nH+]2)[n-]o1 (3D coordinates assigned)
Cc1c/c(=N/C(=O)CSc2ccc(C(=O)[N-]c3ccc(F)cc3)c[nH+]2)[n-]o1 (optimized conformer: 77.8925455184038 kcal/mol)

>  <smiles>  (77) 
Cc1cc(=NC(=O)CSc2ccc(C(=O)Nc3ccc(F)cc3)cn2)[nH]o1

>  <score_type>  (77) 
oracle

>  <origin>  (77) 
adg

>  <m_score__min__energy>  (77) 
-10.029999999999999

>  <m_primary>  (77) 
energy

$$$$
77:0
     RDKit          3D

 48 50  0  0  0  0  0  0  0  0999 V2000
   55.1410   29.4080   44.8280 N   0  0  0  0  0  0  0  0  0  0  0  0
   56.2810   29.7680   44.0500 C   0  0  0  0  0  0  0  0  0  0  0  0
   56.2220   29.6770   42.7950 O   0  0  0  0  0  0  0  0  0  0  0  0
   57.5300   30.2080   44.7160 C   0  0  0  0  0  0  0  0  0  0  0  0
   57.7020   31.5770   44.9990 C   0  0  0  0  0  0  0  0  0  0  0  0
   58.8150   32.0270   45.7170 C   0  0  0  0  0  0  0  0  0  0  0  0
   58.9800   33.7410   46.0910 S   0  0  0  0  0  0  0  0  0  0  0  0
   60.1320   34.3250   45.3170 O   0  0  0  0  0  0  0  0  0  0  0  0
   57.7210   34.4500   45.6790 O   0  0  0  0  0  0  0  0  0  0  0  0
   59.2390   33.9480   47.8040 N   0  0  0  0  0  0  0  0  0  0  0  0
   58.6340   32.8270   48.5460 C   0  0  0  0  0  0  0  0  0  0  0  0
   59.1020   32.8210   50.0150 C   0  0  0  0  0  0  0  0  0  0  0  0
   59.7210   34.0450   50.3540 O   0  0  0  0  0  0  0  0  0  0  0  0
   60.9130   34.2030   49.6020 C   0  0  0  0  0  0  0  0  0  0  0  0
   60.6800   34.0270   48.0860 C   0  0  0  0  0  0  0  0  0  0  0  0
   59.7620   31.1070   46.1790 C   0  0  0  0  0  0  0  0  0  0  0  0
   59.6150   29.7490   45.8930 C   0  0  0  0  0  0  0  0  0  0  0  0
   58.5270   29.2910   45.1410 C   0  0  0  0  0  0  0  0  0  0  0  0
   58.4740   27.8970   44.8160 N   0  0  0  0  0  0  0  0  0  0  0  0
   58.7770   26.8470   45.7420 C   0  0  0  0  0  0  0  0  0  0  0  0
   59.9400   26.3630   45.8020 O   0  0  0  0  0  0  0  0  0  0  0  0
   57.7240   26.3730   46.6900 C   0  0  0  0  0  0  0  0  0  0  0  0
   56.9200   25.2670   46.0580 C   0  0  0  0  0  0  0  0  0  0  0  0
   57.5420   24.0450   45.7470 C   0  0  0  0  0  0  0  0  0  0  0  0
   56.8200   23.0200   45.1310 C   0  0  0  0  0  0  0  0  0  0  0  0
   55.4740   23.2080   44.8100 C   0  0  0  0  0  0  0  0  0  0  0  0
   54.8480   24.4220   45.1000 C   0  0  0  0  0  0  0  0  0  0  0  0
   55.5660   25.4580   45.7170 C   0  0  0  0  0  0  0  0  0  0  0  0
   54.9380   26.6740   45.9900 O   0  0  0  0  0  0  0  0  0  0  0  0
   55.2170   28.7090   45.5990 H   0  0  0  0  0  0  0  0  0  0  0  0
   56.9513   32.3018   44.6509 H   0  0  0  0  0  0  0  0  0  0  0  0
   57.5388   32.9261   48.5177 H   0  0  0  0  0  0  0  0  0  0  0  0
   58.9477   31.8842   48.0741 H   0  0  0  0  0  0  0  0  0  0  0  0
   58.2316   32.6647   50.6692 H   0  0  0  0  0  0  0  0  0  0  0  0
   59.8334   32.0100   50.1466 H   0  0  0  0  0  0  0  0  0  0  0  0
   61.3139   35.2112   49.7831 H   0  0  0  0  0  0  0  0  0  0  0  0
   61.6194   33.4243   49.9254 H   0  0  0  0  0  0  0  0  0  0  0  0
   61.1096   34.8858   47.5494 H   0  0  0  0  0  0  0  0  0  0  0  0
   61.1646   33.0977   47.7519 H   0  0  0  0  0  0  0  0  0  0  0  0
   60.6234   31.4543   46.7683 H   0  0  0  0  0  0  0  0  0  0  0  0
   60.3620   29.0310   46.2624 H   0  0  0  0  0  0  0  0  0  0  0  0
   58.2019   25.9975   47.6068 H   0  0  0  0  0  0  0  0  0  0  0  0
   57.0547   27.2112   46.9338 H   0  0  0  0  0  0  0  0  0  0  0  0
   58.6042   23.8951   45.9904 H   0  0  0  0  0  0  0  0  0  0  0  0
   57.3121   22.0640   44.8986 H   0  0  0  0  0  0  0  0  0  0  0  0
   54.9061   22.3986   44.3280 H   0  0  0  0  0  0  0  0  0  0  0  0
   53.7881   24.5669   44.8439 H   0  0  0  0  0  0  0  0  0  0  0  0
   55.1520   27.5120   45.4620 H   0  0  0  0  0  0  0  0  0  0  0  0
  1  2  1  0
  2  3  2  0
  2  4  1  0
  4  5  2  0
  5  6  1  0
  6  7  1  0
  7  8  2  0
  7  9  2  0
  7 10  1  0
 10 11  1  0
 11 12  1  0
 12 13  1  0
 13 14  1  0
 14 15  1  0
  6 16  2  0
 16 17  1  0
 17 18  2  0
 18 19  1  0
 19 20  1  0
 20 21  2  0
 20 22  1  0
 22 23  1  0
 23 24  2  0
 24 25  1  0
 25 26  2  0
 26 27  1  0
 27 28  2  0
 28 29  1  0
 18  4  1  0
 28 23  1  0
 15 10  1  0
  1 30  1  0
  5 31  1  0
 11 32  1  0
 11 33  1  0
 12 34  1  0
 12 35  1  0
 14 36  1  0
 14 37  1  0
 15 38  1  0
 15 39  1  0
 16 40  1  0
 17 41  1  0
 22 42  1  0
 22 43  1  0
 24 44  1  0
 25 45  1  0
 26 46  1  0
 27 47  1  0
 29 48  1  0
M  CHG  2   1  -1  19  -1
M  END
>  <UniqueID>  (78) 
74

>  <SMILES>  (78) 
[NH-]C(=O)c1cc(S(=O)(=O)N2CCOCC2)ccc1[N-]C(=O)Cc1ccccc1O

>  <Energy>  (78) 
64.11622251529323

>  <Genealogy>  (78) 
[NH-]C(=O)c1cc(S(=O)(=O)N2CCOCC2)ccc1[N-]C(=O)Cc1ccccc1O (protonated)
[NH-]C(=O)c1cc(S(=O)(=O)N2CCOCC2)ccc1[N-]C(=O)Cc1ccccc1O (3D coordinates assigned)
[NH-]C(=O)c1cc(S(=O)(=O)N2CCOCC2)ccc1[N-]C(=O)Cc1ccccc1O (nonaromatic ring conformer: 64.11622251529323 kcal/mol)

>  <smiles>  (78) 
NC(=O)c1cc(S(=O)(=O)N2CCOCC2)ccc1NC(=O)Cc1ccccc1O

>  <score_type>  (78) 
oracle

>  <origin>  (78) 
adg

>  <m_score__min__energy>  (78) 
-14.32

>  <m_primary>  (78) 
energy

$$$$
78:0
     RDKit          3D

 47 49  0  0  0  0  0  0  0  0999 V2000
   55.1360   26.4470   46.0020 N   0  0  0  0  0  0  0  0  0  0  0  0
   56.8280   26.7950   45.9480 S   0  0  0  0  0  0  0  0  0  0  0  0
   57.4330   26.5560   47.3020 O   0  0  0  0  0  0  0  0  0  0  0  0
   57.4940   25.8840   44.9550 O   0  0  0  0  0  0  0  0  0  0  0  0
   57.0680   28.4730   45.4720 C   0  0  0  0  0  0  0  0  0  0  0  0
   56.2300   29.0600   44.5170 C   0  0  0  0  0  0  0  0  0  0  0  0
   56.4390   30.3830   44.1200 C   0  0  0  0  0  0  0  0  0  0  0  0
   57.4790   31.1280   44.6790 C   0  0  0  0  0  0  0  0  0  0  0  0
   58.3150   30.5610   45.6560 C   0  0  0  0  0  0  0  0  0  0  0  0
   59.4490   31.3650   46.2560 C   0  0  0  0  0  0  0  0  0  0  0  0
   60.0680   30.6910   47.4270 N   0  0  1  0  0  0  0  0  0  0  0  0
   61.5290   30.5490   47.2790 C   0  0  0  0  0  0  0  0  0  0  0  0
   62.2440   31.8970   47.2150 C   0  0  0  0  0  0  0  0  0  0  0  0
   61.7730   32.8390   48.2850 C   0  0  0  0  0  0  0  0  0  0  0  0
   62.4760   33.8040   48.5490 O   0  0  0  0  0  0  0  0  0  0  0  0
   60.4820   32.6390   49.0570 C   0  0  1  0  0  0  0  0  0  0  0  0
   59.5670   33.8840   48.9300 C   0  0  0  0  0  0  0  0  0  0  0  0
   59.0980   34.0970   47.5100 C   0  0  0  0  0  0  0  0  0  0  0  0
   59.9790   34.6240   46.5490 C   0  0  0  0  0  0  0  0  0  0  0  0
   59.5480   34.8350   45.2360 C   0  0  0  0  0  0  0  0  0  0  0  0
   58.2370   34.5220   44.8700 C   0  0  0  0  0  0  0  0  0  0  0  0
   57.3550   33.9960   45.8170 C   0  0  0  0  0  0  0  0  0  0  0  0
   57.7820   33.7820   47.1300 C   0  0  0  0  0  0  0  0  0  0  0  0
   59.7280   31.3130   48.7290 C   0  0  0  0  0  0  0  0  0  0  0  0
   58.1180   29.2190   46.0280 C   0  0  0  0  0  0  0  0  0  0  0  0
   54.7170   27.0810   46.7170 H   0  0  0  0  0  0  0  0  0  0  0  0
   55.4056   28.4787   44.0783 H   0  0  0  0  0  0  0  0  0  0  0  0
   55.7822   30.8391   43.3647 H   0  0  0  0  0  0  0  0  0  0  0  0
   57.6451   32.1653   44.3527 H   0  0  0  0  0  0  0  0  0  0  0  0
   60.2208   31.5147   45.4866 H   0  0  0  0  0  0  0  0  0  0  0  0
   59.0326   32.3221   46.6032 H   0  0  0  0  0  0  0  0  0  0  0  0
   59.6990   29.7100   47.4620 H   0  0  0  0  0  0  0  0  0  0  0  0
   61.9175   29.9841   48.1392 H   0  0  0  0  0  0  0  0  0  0  0  0
   61.7195   30.0242   46.3312 H   0  0  0  0  0  0  0  0  0  0  0  0
   63.3244   31.7314   47.3390 H   0  0  0  0  0  0  0  0  0  0  0  0
   62.0188   32.3532   46.2397 H   0  0  0  0  0  0  0  0  0  0  0  0
   60.7752   32.5271   50.1113 H   0  0  0  0  0  0  0  0  0  0  0  0
   58.6885   33.7471   49.5777 H   0  0  0  0  0  0  0  0  0  0  0  0
   60.1494   34.7669   49.2323 H   0  0  0  0  0  0  0  0  0  0  0  0
   61.0128   34.8715   46.8319 H   0  0  0  0  0  0  0  0  0  0  0  0
   60.2426   35.2483   44.4898 H   0  0  0  0  0  0  0  0  0  0  0  0
   57.8992   34.6896   43.8367 H   0  0  0  0  0  0  0  0  0  0  0  0
   56.3225   33.7498   45.5285 H   0  0  0  0  0  0  0  0  0  0  0  0
   57.0841   33.3645   47.8707 H   0  0  0  0  0  0  0  0  0  0  0  0
   59.9589   30.5867   49.5222 H   0  0  0  0  0  0  0  0  0  0  0  0
   58.6623   31.5787   48.6677 H   0  0  0  0  0  0  0  0  0  0  0  0
   58.7922   28.7509   46.7603 H   0  0  0  0  0  0  0  0  0  0  0  0
  1  2  1  0
  2  3  2  0
  2  4  2  0
  2  5  1  0
  5  6  2  0
  6  7  1  0
  7  8  2  0
  8  9  1  0
  9 10  1  0
 10 11  1  0
 11 12  1  0
 12 13  1  0
 13 14  1  0
 14 15  2  0
 14 16  1  0
 16 17  1  0
 17 18  1  0
 18 19  2  0
 19 20  1  0
 20 21  2  0
 21 22  1  0
 22 23  2  0
 16 24  1  0
  9 25  2  0
 25  5  1  0
 24 11  1  0
 23 18  1  0
  1 26  1  0
  6 27  1  0
  7 28  1  0
  8 29  1  0
 10 30  1  0
 10 31  1  0
 11 32  1  1
 12 33  1  0
 12 34  1  0
 13 35  1  0
 13 36  1  0
 16 37  1  1
 17 38  1  0
 17 39  1  0
 19 40  1  0
 20 41  1  0
 21 42  1  0
 22 43  1  0
 23 44  1  0
 24 45  1  0
 24 46  1  0
 25 47  1  0
M  CHG  2   1  -1  11   1
M  END
>  <UniqueID>  (79) 
75

>  <SMILES>  (79) 
[NH-]S(=O)(=O)c1cccc(C[N@H+]2CCC(=O)[C@@H](Cc3ccccc3)C2)c1

>  <Energy>  (79) 
54.332524208477786

>  <Genealogy>  (79) 
[NH-]S(=O)(=O)c1cccc(C[NH+]2CCC(=O)C(Cc3ccccc3)C2)c1 (protonated)
[NH-]S(=O)(=O)c1cccc(C[N@H+]2CCC(=O)[C@@H](Cc3ccccc3)C2)c1 (chirality)
[NH-]S(=O)(=O)c1cccc(C[N@H+]2CCC(=O)[C@@H](Cc3ccccc3)C2)c1 (3D coordinates assigned)
[NH-]S(=O)(=O)c1cccc(C[N@H+]2CCC(=O)[C@@H](Cc3ccccc3)C2)c1 (nonaromatic ring conformer: 54.332524208477786 kcal/mol)

>  <smiles>  (79) 
NS(=O)(=O)c1cccc(CN2CCC(=O)C(Cc3ccccc3)C2)c1

>  <score_type>  (79) 
oracle

>  <origin>  (79) 
adg

>  <m_score__min__energy>  (79) 
-10.85

>  <m_primary>  (79) 
energy

$$$$
79:0
     RDKit          3D

 43 45  0  0  0  0  0  0  0  0999 V2000
   59.7690   35.5960   46.1040 C   0  0  0  0  0  0  0  0  0  0  0  0
   59.4490   34.5740   47.1620 C   0  0  0  0  0  0  0  0  0  0  0  0
   60.1720   34.5960   48.3670 C   0  0  0  0  0  0  0  0  0  0  0  0
   59.8870   33.6880   49.3870 C   0  0  0  0  0  0  0  0  0  0  0  0
   58.8790   32.7400   49.2150 C   0  0  0  0  0  0  0  0  0  0  0  0
   58.1600   32.6920   48.0210 C   0  0  0  0  0  0  0  0  0  0  0  0
   58.4360   33.5950   46.9770 C   0  0  0  0  0  0  0  0  0  0  0  0
   57.6480   33.5090   45.7200 C   0  0  0  0  0  0  0  0  0  0  0  0
   56.6420   34.2510   45.5610 O   0  0  0  0  0  0  0  0  0  0  0  0
   58.0450   32.5810   44.6040 C   0  0  0  0  0  0  0  0  0  0  0  0
   58.9000   31.4990   45.0980 N   0  0  0  0  0  0  0  0  0  0  0  0
   58.4530   30.1400   45.2870 C   0  0  0  0  0  0  0  0  0  0  0  0
   58.8000   29.4120   46.4390 C   0  0  0  0  0  0  0  0  0  0  0  0
   58.3830   28.0890   46.5980 C   0  0  0  0  0  0  0  0  0  0  0  0
   57.6010   27.4680   45.6140 C   0  0  0  0  0  0  0  0  0  0  0  0
   57.1710   26.0570   45.7710 C   0  0  0  0  0  0  0  0  0  0  0  0
   58.1270   25.0260   45.7150 C   0  0  0  0  0  0  0  0  0  0  0  0
   57.7410   23.6920   45.8730 C   0  0  0  0  0  0  0  0  0  0  0  0
   56.3990   23.3720   46.0840 C   0  0  0  0  0  0  0  0  0  0  0  0
   55.4380   24.3840   46.1320 C   0  0  0  0  0  0  0  0  0  0  0  0
   55.8150   25.7230   45.9730 C   0  0  0  0  0  0  0  0  0  0  0  0
   54.8330   26.7080   45.9940 O   0  0  0  0  0  0  0  0  0  0  0  0
   57.2500   28.1900   44.4630 C   0  0  0  0  0  0  0  0  0  0  0  0
   57.6680   29.5190   44.2980 C   0  0  0  0  0  0  0  0  0  0  0  0
   57.3150   30.2190   43.1440 O   0  0  0  0  0  0  0  0  0  0  0  0
   60.0647   36.5405   46.5841 H   0  0  0  0  0  0  0  0  0  0  0  0
   60.5952   35.2288   45.4774 H   0  0  0  0  0  0  0  0  0  0  0  0
   58.8809   35.7655   45.4774 H   0  0  0  0  0  0  0  0  0  0  0  0
   60.9719   35.3379   48.5075 H   0  0  0  0  0  0  0  0  0  0  0  0
   60.4575   33.7199   50.3270 H   0  0  0  0  0  0  0  0  0  0  0  0
   58.6505   32.0288   50.0225 H   0  0  0  0  0  0  0  0  0  0  0  0
   57.3678   31.9396   47.8935 H   0  0  0  0  0  0  0  0  0  0  0  0
   57.1381   32.1471   44.1575 H   0  0  0  0  0  0  0  0  0  0  0  0
   58.6074   33.1565   43.8539 H   0  0  0  0  0  0  0  0  0  0  0  0
   59.8620   31.7630   45.4100 H   0  0  0  0  0  0  0  0  0  0  0  0
   59.4061   29.8897   47.2228 H   0  0  0  0  0  0  0  0  0  0  0  0
   58.6699   27.5304   47.5011 H   0  0  0  0  0  0  0  0  0  0  0  0
   59.1858   25.2717   45.5457 H   0  0  0  0  0  0  0  0  0  0  0  0
   58.4960   22.8931   45.8310 H   0  0  0  0  0  0  0  0  0  0  0  0
   56.0981   22.3218   46.2126 H   0  0  0  0  0  0  0  0  0  0  0  0
   54.3807   24.1282   46.2954 H   0  0  0  0  0  0  0  0  0  0  0  0
   56.6414   27.7094   43.6828 H   0  0  0  0  0  0  0  0  0  0  0  0
   57.8700   30.1640   42.2980 H   0  0  0  0  0  0  0  0  0  0  0  0
  1  2  1  0
  2  3  2  0
  3  4  1  0
  4  5  2  0
  5  6  1  0
  6  7  2  0
  7  8  1  0
  8  9  2  0
  8 10  1  0
 10 11  1  0
 11 12  1  0
 12 13  2  0
 13 14  1  0
 14 15  2  0
 15 16  1  0
 16 17  2  0
 17 18  1  0
 18 19  2  0
 19 20  1  0
 20 21  2  0
 21 22  1  0
 15 23  1  0
 23 24  2  0
 24 25  1  0
  7  2  1  0
 24 12  1  0
 21 16  1  0
  1 26  1  0
  1 27  1  0
  1 28  1  0
  3 29  1  0
  4 30  1  0
  5 31  1  0
  6 32  1  0
 10 33  1  0
 10 34  1  0
 11 35  1  0
 13 36  1  0
 14 37  1  0
 17 38  1  0
 18 39  1  0
 19 40  1  0
 20 41  1  0
 23 42  1  0
 25 43  1  0
M  CHG  1  22  -1
M  END
>  <UniqueID>  (80) 
76

>  <SMILES>  (80) 
Cc1ccccc1C(=O)CNc1ccc(-c2ccccc2[O-])cc1O

>  <Energy>  (80) 
55.44835866671997

>  <Genealogy>  (80) 
Cc1ccccc1C(=O)CNc1ccc(-c2ccccc2[O-])cc1O (protonated)
Cc1ccccc1C(=O)CNc1ccc(-c2ccccc2[O-])cc1O (3D coordinates assigned)
Cc1ccccc1C(=O)CNc1ccc(-c2ccccc2[O-])cc1O (optimized conformer: 55.44835866671997 kcal/mol)

>  <smiles>  (80) 
Cc1ccccc1C(=O)CNc1ccc(-c2ccccc2O)cc1O

>  <score_type>  (80) 
oracle

>  <origin>  (80) 
adg

>  <m_score__min__energy>  (80) 
-12.27

>  <m_primary>  (80) 
energy

$$$$
80:0
     RDKit          3D

 52 55  0  0  0  0  0  0  0  0999 V2000
   60.4280   27.5310   50.0420 O   0  0  0  0  0  0  0  0  0  0  0  0
   60.0400   27.7580   48.8630 C   0  0  0  0  0  0  0  0  0  0  0  0
   60.1720   26.6870   47.8240 C   0  0  0  0  0  0  0  0  0  0  0  0
   58.5330   26.0610   47.3040 S   0  0  0  0  0  0  0  0  0  0  0  0
   58.1020   27.5170   46.3520 C   0  0  0  0  0  0  0  0  0  0  0  0
   59.0760   28.3820   45.9720 N   0  0  0  0  0  0  0  0  0  0  0  0
   58.7910   29.4720   45.2130 C   0  0  0  0  0  0  0  0  0  0  0  0
   59.7240   30.2510   44.8810 O   0  0  0  0  0  0  0  0  0  0  0  0
   57.4700   29.7140   44.8000 C   0  0  0  0  0  0  0  0  0  0  0  0
   57.1170   30.9410   43.9890 C   0  0  0  0  0  0  0  0  0  0  0  0
   57.6630   32.1830   44.6460 C   0  0  0  0  0  0  0  0  0  0  0  0
   57.3740   32.4610   45.9920 C   0  0  0  0  0  0  0  0  0  0  0  0
   57.8450   33.6370   46.5850 C   0  0  0  0  0  0  0  0  0  0  0  0
   58.6050   34.5420   45.8390 C   0  0  0  0  0  0  0  0  0  0  0  0
   58.8960   34.2720   44.5000 C   0  0  0  0  0  0  0  0  0  0  0  0
   58.4250   33.1010   43.9030 C   0  0  0  0  0  0  0  0  0  0  0  0
   56.4800   28.8110   45.2230 C   0  0  0  0  0  0  0  0  0  0  0  0
   55.1480   29.0000   44.8760 O   0  0  0  0  0  0  0  0  0  0  0  0
   56.8170   27.7390   45.9850 N   0  0  0  0  0  0  0  0  0  0  0  0
   59.4680   29.0290   48.5130 N   0  0  0  0  0  0  0  0  0  0  0  0
   59.1660   30.0560   49.4690 C   0  0  0  0  0  0  0  0  0  0  0  0
   58.6990   29.7140   50.7500 C   0  0  0  0  0  0  0  0  0  0  0  0
   58.3080   30.7080   51.6490 C   0  0  0  0  0  0  0  0  0  0  0  0
   58.3630   32.0490   51.2740 C   0  0  0  0  0  0  0  0  0  0  0  0
   58.8180   32.4040   50.0010 C   0  0  0  0  0  0  0  0  0  0  0  0
   59.2410   31.4200   49.1000 C   0  0  0  0  0  0  0  0  0  0  0  0
   59.7200   31.8240   47.8440 O   0  0  0  0  0  0  0  0  0  0  0  0
   61.0470   32.1890   47.5690 C   0  0  0  0  0  0  0  0  0  0  0  0
   61.3810   33.4560   47.0510 C   0  0  0  0  0  0  0  0  0  0  0  0
   62.7170   33.7860   46.8050 C   0  0  0  0  0  0  0  0  0  0  0  0
   63.7260   32.8520   47.0550 C   0  0  0  0  0  0  0  0  0  0  0  0
   63.3990   31.5860   47.5470 C   0  0  0  0  0  0  0  0  0  0  0  0
   62.0640   31.2540   47.7990 C   0  0  0  0  0  0  0  0  0  0  0  0
   60.6926   27.1001   46.9474 H   0  0  0  0  0  0  0  0  0  0  0  0
   60.7420   25.8515   48.2565 H   0  0  0  0  0  0  0  0  0  0  0  0
   57.5478   30.8452   42.9814 H   0  0  0  0  0  0  0  0  0  0  0  0
   56.0219   31.0235   43.9268 H   0  0  0  0  0  0  0  0  0  0  0  0
   56.7752   31.7515   46.5819 H   0  0  0  0  0  0  0  0  0  0  0  0
   57.6169   33.8498   47.6398 H   0  0  0  0  0  0  0  0  0  0  0  0
   58.9740   35.4669   46.3064 H   0  0  0  0  0  0  0  0  0  0  0  0
   59.4973   34.9832   43.9147 H   0  0  0  0  0  0  0  0  0  0  0  0
   58.6514   32.8960   42.8462 H   0  0  0  0  0  0  0  0  0  0  0  0
   59.3460   29.2510   47.4970 H   0  0  0  0  0  0  0  0  0  0  0  0
   58.6413   28.6562   51.0461 H   0  0  0  0  0  0  0  0  0  0  0  0
   57.9562   30.4324   52.6541 H   0  0  0  0  0  0  0  0  0  0  0  0
   58.0476   32.8300   51.9815 H   0  0  0  0  0  0  0  0  0  0  0  0
   58.8438   33.4632   49.7054 H   0  0  0  0  0  0  0  0  0  0  0  0
   60.5877   34.1881   46.8394 H   0  0  0  0  0  0  0  0  0  0  0  0
   62.9742   34.7816   46.4144 H   0  0  0  0  0  0  0  0  0  0  0  0
   64.7773   33.1135   46.8645 H   0  0  0  0  0  0  0  0  0  0  0  0
   64.1931   30.8488   47.7366 H   0  0  0  0  0  0  0  0  0  0  0  0
   61.8115   30.2534   48.1798 H   0  0  0  0  0  0  0  0  0  0  0  0
  1  2  2  0
  2  3  1  0
  3  4  1  0
  4  5  1  0
  5  6  2  0
  6  7  1  0
  7  8  2  0
  7  9  1  0
  9 10  1  0
 10 11  1  0
 11 12  2  0
 12 13  1  0
 13 14  2  0
 14 15  1  0
 15 16  2  0
  9 17  2  0
 17 18  1  0
 17 19  1  0
  2 20  1  0
 20 21  1  0
 21 22  2  0
 22 23  1  0
 23 24  2  0
 24 25  1  0
 25 26  2  0
 26 27  1  0
 27 28  1  0
 28 29  2  0
 29 30  1  0
 30 31  2  0
 31 32  1  0
 32 33  2  0
 19  5  1  0
 26 21  1  0
 33 28  1  0
 16 11  1  0
  3 34  1  0
  3 35  1  0
 10 36  1  0
 10 37  1  0
 12 38  1  0
 13 39  1  0
 14 40  1  0
 15 41  1  0
 16 42  1  0
 20 43  1  0
 22 44  1  0
 23 45  1  0
 24 46  1  0
 25 47  1  0
 29 48  1  0
 30 49  1  0
 31 50  1  0
 32 51  1  0
 33 52  1  0
M  CHG  2  18  -1  19  -1
M  END
>  <UniqueID>  (81) 
77

>  <SMILES>  (81) 
O=C(CSc1nc(=O)c(Cc2ccccc2)c([O-])[n-]1)Nc1ccccc1Oc1ccccc1

>  <Energy>  (81) 
62.39140671548632

>  <Genealogy>  (81) 
O=C(CSc1nc(=O)c(Cc2ccccc2)c([O-])[n-]1)Nc1ccccc1Oc1ccccc1 (protonated)
O=C(CSc1nc(=O)c(Cc2ccccc2)c([O-])[n-]1)Nc1ccccc1Oc1ccccc1 (3D coordinates assigned)
O=C(CSc1nc(=O)c(Cc2ccccc2)c([O-])[n-]1)Nc1ccccc1Oc1ccccc1 (optimized conformer: 62.39140671548632 kcal/mol)

>  <smiles>  (81) 
O=C(CSc1nc(=O)c(Cc2ccccc2)c(O)[nH]1)Nc1ccccc1Oc1ccccc1

>  <score_type>  (81) 
oracle

>  <origin>  (81) 
adg

>  <m_score__min__energy>  (81) 
-14.699999999999999

>  <m_primary>  (81) 
energy

$$$$
81:0
     RDKit          3D

 46 49  0  0  0  0  0  0  0  0999 V2000
   54.3540   27.0940   46.3580 H   0  0  0  0  0  0  0  0  0  0  0  0
   55.1840   26.6210   46.0220 O   0  0  0  0  0  0  0  0  0  0  0  0
   55.1210   25.3140   45.5450 C   0  0  0  0  0  0  0  0  0  0  0  0
   54.0600   24.5310   45.8740 N   0  0  0  0  0  0  0  0  0  0  0  0
   53.9820   23.2420   45.4580 C   0  0  0  0  0  0  0  0  0  0  0  0
   52.9890   22.5380   45.7740 O   0  0  0  0  0  0  0  0  0  0  0  0
   54.9800   22.7080   44.7090 N   0  0  0  0  0  0  0  0  0  0  0  0
   56.0620   23.4490   44.3500 C   0  0  0  0  0  0  0  0  0  0  0  0
   56.9710   22.9190   43.6560 O   0  0  0  0  0  0  0  0  0  0  0  0
   56.1520   24.7930   44.7430 C   0  0  0  0  0  0  0  0  0  0  0  0
   57.3370   25.6030   44.3800 C   0  0  0  0  0  0  0  0  0  0  0  0
   57.7151   25.5393   43.3490 H   0  0  0  0  0  0  0  0  0  0  0  0
   57.9770   26.4140   45.2450 C   0  0  0  0  0  0  0  0  0  0  0  0
   58.4470   26.0600   46.5040 C   0  0  0  0  0  0  0  0  0  0  0  0
   58.3909   25.0657   46.9710 H   0  0  0  0  0  0  0  0  0  0  0  0
   58.9980   27.2000   47.0540 C   0  0  0  0  0  0  0  0  0  0  0  0
   59.6280   27.2720   48.4120 C   0  0  0  0  0  0  0  0  0  0  0  0
   58.8485   27.1829   49.1830 H   0  0  0  0  0  0  0  0  0  0  0  0
   60.3509   26.4506   48.5248 H   0  0  0  0  0  0  0  0  0  0  0  0
   60.1470   28.2353   48.5248 H   0  0  0  0  0  0  0  0  0  0  0  0
   58.8970   28.2370   46.1910 N   0  0  0  0  0  0  0  0  0  0  0  0
   59.3550   29.5790   46.4350 C   0  0  0  0  0  0  0  0  0  0  0  0
   58.4620   30.6560   46.3570 C   0  0  0  0  0  0  0  0  0  0  0  0
   57.4088   30.4760   46.0954 H   0  0  0  0  0  0  0  0  0  0  0  0
   58.9030   31.9580   46.6100 C   0  0  0  0  0  0  0  0  0  0  0  0
   58.1984   32.7993   46.5339 H   0  0  0  0  0  0  0  0  0  0  0  0
   60.2420   32.1970   46.9610 C   0  0  0  0  0  0  0  0  0  0  0  0
   60.7220   33.5680   47.2290 C   0  0  0  0  0  0  0  0  0  0  0  0
   60.3560   34.5040   46.4710 O   0  0  0  0  0  0  0  0  0  0  0  0
   61.6260   33.8640   48.3020 N   0  0  0  0  0  0  0  0  0  0  0  0
   63.0740   33.9620   48.1590 C   0  0  0  0  0  0  0  0  0  0  0  0
   63.2268   34.8407   48.8029 H   0  0  0  0  0  0  0  0  0  0  0  0
   63.7700   32.6230   48.0000 C   0  0  0  0  0  0  0  0  0  0  0  0
   64.7820   32.4771   48.4058 H   0  0  0  0  0  0  0  0  0  0  0  0
   63.5203   31.5812   48.2497 H   0  0  0  0  0  0  0  0  0  0  0  0
   63.5570   33.5210   46.7910 C   0  0  0  0  0  0  0  0  0  0  0  0
   64.4150   34.0246   46.3218 H   0  0  0  0  0  0  0  0  0  0  0  0
   63.0893   33.3979   45.8030 H   0  0  0  0  0  0  0  0  0  0  0  0
   61.1380   31.1190   47.0180 C   0  0  0  0  0  0  0  0  0  0  0  0
   62.1952   31.2993   47.2627 H   0  0  0  0  0  0  0  0  0  0  0  0
   60.6960   29.8180   46.7660 C   0  0  0  0  0  0  0  0  0  0  0  0
   61.4032   28.9777   46.8276 H   0  0  0  0  0  0  0  0  0  0  0  0
   58.2700   27.7710   45.0820 C   0  0  0  0  0  0  0  0  0  0  0  0
   58.0200   28.5140   43.9920 C   0  0  0  0  0  0  0  0  0  0  0  0
   58.2961   29.5787   43.9769 H   0  0  0  0  0  0  0  0  0  0  0  0
   57.5390   28.0581   43.1141 H   0  0  0  0  0  0  0  0  0  0  0  0
  1  2  1  0
  2  3  1  0
  3  4  1  0
  4  5  1  0
  5  6  2  0
  5  7  1  0
  7  8  1  0
  8  9  2  0
  8 10  1  0
 10 11  1  0
 11 12  1  0
 11 13  2  0
 13 14  1  0
 14 15  1  0
 14 16  2  0
 16 17  1  0
 17 18  1  0
 17 19  1  0
 17 20  1  0
 16 21  1  0
 21 22  1  0
 22 23  2  0
 23 24  1  0
 23 25  1  0
 25 26  1  0
 25 27  2  0
 27 28  1  0
 28 29  2  0
 28 30  1  0
 30 31  1  0
 31 32  1  0
 31 33  1  0
 33 34  1  0
 33 35  1  0
 33 36  1  0
 36 37  1  0
 36 38  1  0
 27 39  1  0
 39 40  1  0
 39 41  2  0
 41 42  1  0
 21 43  1  0
 43 44  2  0
 44 45  1  0
 44 46  1  0
 10  3  2  0
 43 13  1  0
 41 22  1  0
 36 31  1  0
M  CHG  3   4  -1   7  -1  30  -1
M  END
>  <UniqueID>  (82) 
78

>  <SMILES>  (82) 
C=c1/c(=C/c2c(O)[n-]c(=O)[n-]c2=O)cc(C)n1-c1ccc(C(=O)[N-]C2CC2)cc1

>  <Energy>  (82) 
361.6119673753185

>  <Genealogy>  (82) 
C=c1c(=Cc2c(O)[n-]c(=O)[n-]c2=O)cc(C)n1-c1ccc(C(=O)[N-]C2CC2)cc1 (protonated)
C=c1/c(=C/c2c(O)[n-]c(=O)[n-]c2=O)cc(C)n1-c1ccc(C(=O)[N-]C2CC2)cc1 (cis-trans isomerization)
C=c1/c(=C/c2c(O)[n-]c(=O)[n-]c2=O)cc(C)n1-c1ccc(C(=O)[N-]C2CC2)cc1 (3D coordinates assigned)
C=c1/c(=C/c2c(O)[n-]c(=O)[n-]c2=O)cc(C)n1-c1ccc(C(=O)[N-]C2CC2)cc1 (nonaromatic ring conformer: 361.6119673753185 kcal/mol)

>  <smiles>  (82) 
C=c1c(=Cc2c(O)[nH]c(=O)[nH]c2=O)cc(C)n1-c1ccc(C(=O)NC2CC2)cc1

>  <score_type>  (82) 
oracle

>  <origin>  (82) 
adg

>  <m_score__min__energy>  (82) 
-13.800000000000001

>  <m_primary>  (82) 
energy

$$$$
82:0
     RDKit          3D

 46 48  0  0  0  0  0  0  0  0999 V2000
   64.6430   32.2940   49.3820 C   0  0  0  0  0  0  0  0  0  0  0  0
   64.0520   31.9040   48.1460 O   0  0  0  0  0  0  0  0  0  0  0  0
   62.7290   32.1840   47.7780 C   0  0  0  0  0  0  0  0  0  0  0  0
   61.7530   31.2040   47.9910 C   0  0  0  0  0  0  0  0  0  0  0  0
   60.4200   31.4390   47.6470 C   0  0  0  0  0  0  0  0  0  0  0  0
   60.0400   32.6490   47.0490 C   0  0  0  0  0  0  0  0  0  0  0  0
   58.6280   32.9000   46.6830 C   0  0  0  0  0  0  0  0  0  0  0  0
   57.7830   33.6050   47.4630 N   0  0  0  0  0  0  0  0  0  0  0  0
   56.6100   33.6880   46.8560 N   0  0  0  0  0  0  0  0  0  0  0  0
   56.6910   33.0450   45.6780 C   0  0  0  0  0  0  0  0  0  0  0  0
   57.9610   32.5280   45.5230 C   0  0  0  0  0  0  0  0  0  0  0  0
   58.4670   31.8040   44.2980 C   0  0  0  0  0  0  0  0  0  0  0  0
   57.4850   30.8340   43.7530 N   0  0  0  0  0  0  0  0  0  0  0  0
   57.2700   31.0470   42.3080 C   0  0  0  0  0  0  0  0  0  0  0  0
   57.9610   29.4470   43.9710 C   0  0  0  0  0  0  0  0  0  0  0  0
   57.0500   28.6760   44.8940 C   0  0  0  0  0  0  0  0  0  0  0  0
   55.8590   29.0640   45.0390 O   0  0  0  0  0  0  0  0  0  0  0  0
   57.4980   27.4200   45.5570 C   0  0  0  0  0  0  0  0  0  0  0  0
   58.8740   27.1490   45.7060 C   0  0  0  0  0  0  0  0  0  0  0  0
   59.3040   25.9660   46.3100 C   0  0  0  0  0  0  0  0  0  0  0  0
   58.3730   25.0320   46.7680 C   0  0  0  0  0  0  0  0  0  0  0  0
   57.0080   25.2810   46.6240 C   0  0  0  0  0  0  0  0  0  0  0  0
   56.5610   26.4680   46.0230 C   0  0  0  0  0  0  0  0  0  0  0  0
   55.1910   26.7030   45.9020 O   0  0  0  0  0  0  0  0  0  0  0  0
   61.0130   33.6490   46.8580 C   0  0  0  0  0  0  0  0  0  0  0  0
   60.6820   34.8370   46.2900 F   0  0  0  0  0  0  0  0  0  0  0  0
   62.3450   33.4190   47.2180 C   0  0  0  0  0  0  0  0  0  0  0  0
   64.0440   31.8987   50.2157 H   0  0  0  0  0  0  0  0  0  0  0  0
   65.6654   31.8926   49.4424 H   0  0  0  0  0  0  0  0  0  0  0  0
   64.6760   33.3918   49.4424 H   0  0  0  0  0  0  0  0  0  0  0  0
   62.0387   30.2385   48.4340 H   0  0  0  0  0  0  0  0  0  0  0  0
   59.6614   30.6679   47.8470 H   0  0  0  0  0  0  0  0  0  0  0  0
   55.8718   32.9463   44.9505 H   0  0  0  0  0  0  0  0  0  0  0  0
   58.6946   32.5476   43.5200 H   0  0  0  0  0  0  0  0  0  0  0  0
   59.3608   31.2363   44.5961 H   0  0  0  0  0  0  0  0  0  0  0  0
   56.4955   31.8143   42.1617 H   0  0  0  0  0  0  0  0  0  0  0  0
   58.2093   31.3807   41.8428 H   0  0  0  0  0  0  0  0  0  0  0  0
   56.9450   30.1047   41.8428 H   0  0  0  0  0  0  0  0  0  0  0  0
   58.0045   28.9298   43.0012 H   0  0  0  0  0  0  0  0  0  0  0  0
   58.9551   29.4983   44.4392 H   0  0  0  0  0  0  0  0  0  0  0  0
   59.6152   27.8763   45.3430 H   0  0  0  0  0  0  0  0  0  0  0  0
   60.3801   25.7692   46.4254 H   0  0  0  0  0  0  0  0  0  0  0  0
   58.7155   24.1004   47.2421 H   0  0  0  0  0  0  0  0  0  0  0  0
   56.2770   24.5420   46.9839 H   0  0  0  0  0  0  0  0  0  0  0  0
   54.7900   27.0750   45.0480 H   0  0  0  0  0  0  0  0  0  0  0  0
   63.0971   34.2066   47.0631 H   0  0  0  0  0  0  0  0  0  0  0  0
  1  2  1  0
  2  3  1  0
  3  4  2  0
  4  5  1  0
  5  6  2  0
  6  7  1  0
  7  8  1  0
  8  9  1  0
  9 10  2  0
 10 11  1  0
 11 12  1  0
 12 13  1  0
 13 14  1  0
 13 15  1  0
 15 16  1  0
 16 17  2  0
 16 18  1  0
 18 19  2  0
 19 20  1  0
 20 21  2  0
 21 22  1  0
 22 23  2  0
 23 24  1  0
  6 25  1  0
 25 26  1  0
 25 27  2  0
 27  3  1  0
 11  7  2  0
 23 18  1  0
  1 28  1  0
  1 29  1  0
  1 30  1  0
  4 31  1  0
  5 32  1  0
 10 33  1  0
 12 34  1  0
 12 35  1  0
 14 36  1  0
 14 37  1  0
 14 38  1  0
 15 39  1  0
 15 40  1  0
 19 41  1  0
 20 42  1  0
 21 43  1  0
 22 44  1  0
 24 45  1  0
 27 46  1  0
M  CHG  1   8  -1
M  END
>  <UniqueID>  (83) 
79

>  <SMILES>  (83) 
COc1ccc(-c2[n-]ncc2CN(C)CC(=O)c2ccccc2O)c(F)c1

>  <Energy>  (83) 
87.30342926731457

>  <Genealogy>  (83) 
COc1ccc(-c2[n-]ncc2CN(C)CC(=O)c2ccccc2O)c(F)c1 (protonated)
COc1ccc(-c2[n-]ncc2CN(C)CC(=O)c2ccccc2O)c(F)c1 (3D coordinates assigned)
COc1ccc(-c2[n-]ncc2CN(C)CC(=O)c2ccccc2O)c(F)c1 (optimized conformer: 87.30342926731457 kcal/mol)

>  <smiles>  (83) 
COc1ccc(-c2[nH]ncc2CN(C)CC(=O)c2ccccc2O)c(F)c1

>  <score_type>  (83) 
oracle

>  <origin>  (83) 
adg

>  <m_score__min__energy>  (83) 
-9.4499999999999993

>  <m_primary>  (83) 
energy

$$$$
83:0
     RDKit          3D

 38 40  0  0  0  0  0  0  0  0999 V2000
   55.1530   29.2590   44.8460 N   0  0  0  0  0  0  0  0  0  0  0  0
   56.5360   29.5270   45.0710 C   0  0  0  0  0  0  0  0  0  0  0  0
   57.2180   28.7050   45.7420 O   0  0  0  0  0  0  0  0  0  0  0  0
   57.1670   30.7500   44.5210 C   0  0  0  0  0  0  0  0  0  0  0  0
   57.2330   30.9590   43.1320 C   0  0  0  0  0  0  0  0  0  0  0  0
   57.8060   32.1230   42.6170 C   0  0  0  0  0  0  0  0  0  0  0  0
   58.3320   33.0870   43.4800 C   0  0  0  0  0  0  0  0  0  0  0  0
   58.3090   32.8870   44.8640 C   0  0  0  0  0  0  0  0  0  0  0  0
   58.8330   33.9180   45.7180 N   0  0  0  0  0  0  0  0  0  0  0  0
   59.8630   33.8290   46.5080 C   0  0  0  0  0  0  0  0  0  0  0  0
   61.1010   33.5340   46.0270 N   0  0  0  0  0  0  0  0  0  0  0  0
   62.1810   33.4680   46.8470 C   0  0  0  0  0  0  0  0  0  0  0  0
   62.0380   33.7160   48.2210 C   0  0  0  0  0  0  0  0  0  0  0  0
   63.1910   33.6450   49.1490 C   0  0  0  0  0  0  0  0  0  0  0  0
   63.1890   34.3490   50.1960 O   0  0  0  0  0  0  0  0  0  0  0  0
   64.3300   32.8210   48.8480 N   0  0  0  0  0  0  0  0  0  0  0  0
   65.2760   32.3730   49.8350 C   0  0  0  0  0  0  0  0  0  0  0  0
   66.4600   33.0870   50.0930 C   0  0  0  0  0  0  0  0  0  0  0  0
   67.3530   32.6430   51.0750 C   0  0  0  0  0  0  0  0  0  0  0  0
   67.0660   31.4930   51.8140 C   0  0  0  0  0  0  0  0  0  0  0  0
   65.8810   30.7880   51.5800 C   0  0  0  0  0  0  0  0  0  0  0  0
   65.5160   29.3510   52.5170 Cl  0  0  0  0  0  0  0  0  0  0  0  0
   64.9870   31.2300   50.5990 C   0  0  0  0  0  0  0  0  0  0  0  0
   60.7520   34.0190   48.6930 C   0  0  0  0  0  0  0  0  0  0  0  0
   59.7030   34.0750   47.8330 N   0  0  0  0  0  0  0  0  0  0  0  0
   57.6990   31.7290   45.3830 C   0  0  0  0  0  0  0  0  0  0  0  0
   54.4550   29.3610   45.6160 H   0  0  0  0  0  0  0  0  0  0  0  0
   56.8300   30.1994   42.4460 H   0  0  0  0  0  0  0  0  0  0  0  0
   57.8434   32.2814   41.5291 H   0  0  0  0  0  0  0  0  0  0  0  0
   58.7672   34.0096   43.0684 H   0  0  0  0  0  0  0  0  0  0  0  0
   63.1698   33.2197   46.4338 H   0  0  0  0  0  0  0  0  0  0  0  0
   64.5480   32.6320   47.8430 H   0  0  0  0  0  0  0  0  0  0  0  0
   66.6852   33.9987   49.5203 H   0  0  0  0  0  0  0  0  0  0  0  0
   68.2821   33.2004   51.2651 H   0  0  0  0  0  0  0  0  0  0  0  0
   67.7724   31.1416   52.5805 H   0  0  0  0  0  0  0  0  0  0  0  0
   64.0512   30.6787   50.4246 H   0  0  0  0  0  0  0  0  0  0  0  0
   60.5930   34.2120   49.7642 H   0  0  0  0  0  0  0  0  0  0  0  0
   57.6373   31.5874   46.4721 H   0  0  0  0  0  0  0  0  0  0  0  0
  1  2  1  0
  2  3  2  0
  2  4  1  0
  4  5  2  0
  5  6  1  0
  6  7  2  0
  7  8  1  0
  8  9  1  0
  9 10  2  3
 10 11  1  0
 11 12  2  0
 12 13  1  0
 13 14  1  0
 14 15  2  0
 14 16  1  0
 16 17  1  0
 17 18  2  0
 18 19  1  0
 19 20  2  0
 20 21  1  0
 21 22  1  0
 21 23  2  0
 13 24  2  0
 24 25  1  0
  8 26  2  0
 26  4  1  0
 25 10  1  0
 23 17  1  0
  1 27  1  0
  5 28  1  0
  6 29  1  0
  7 30  1  0
 12 31  1  0
 16 32  1  0
 18 33  1  0
 19 34  1  0
 20 35  1  0
 23 36  1  0
 24 37  1  0
 26 38  1  0
M  CHG  2   1  -1  25  -1
M  END
>  <UniqueID>  (84) 
80

>  <SMILES>  (84) 
[NH-]C(=O)c1cccc(N=c2ncc(C(=O)Nc3cccc(Cl)c3)c[n-]2)c1

>  <Energy>  (84) 
54.02903950696756

>  <Genealogy>  (84) 
[NH-]C(=O)c1cccc(N=c2ncc(C(=O)Nc3cccc(Cl)c3)c[n-]2)c1 (protonated)
[NH-]C(=O)c1cccc(N=c2ncc(C(=O)Nc3cccc(Cl)c3)c[n-]2)c1 (3D coordinates assigned)
[NH-]C(=O)c1cccc(N=c2ncc(C(=O)Nc3cccc(Cl)c3)c[n-]2)c1 (optimized conformer: 54.02903950696756 kcal/mol)

>  <smiles>  (84) 
NC(=O)c1cccc(N=c2ncc(C(=O)Nc3cccc(Cl)c3)c[nH]2)c1

>  <score_type>  (84) 
oracle

>  <origin>  (84) 
adg

>  <m_score__min__energy>  (84) 
-13.460000000000001

>  <m_primary>  (84) 
energy

$$$$
84:0
     RDKit          3D

 61 64  0  0  0  0  0  0  0  0999 V2000
   62.0380   33.3380   51.2570 C   0  0  0  0  0  0  0  0  0  0  0  0
   63.5620   33.3510   51.0990 C   0  0  0  0  0  0  0  0  0  0  0  0
   63.9820   33.3570   49.6760 N   0  0  0  0  0  0  0  0  0  0  0  0
   64.1140   31.9760   49.1330 C   0  0  0  0  0  0  0  0  0  0  0  0
   62.8630   31.5330   48.3590 C   0  0  0  0  0  0  0  0  0  0  0  0
   62.5860   32.4160   47.1960 N   0  0  0  0  0  0  0  0  0  0  0  0
   61.1540   32.3760   46.8230 C   0  0  0  0  0  0  0  0  0  0  0  0
   60.5780   31.0020   47.0550 C   0  0  0  0  0  0  0  0  0  0  0  0
   60.8020   29.9710   46.1290 C   0  0  0  0  0  0  0  0  0  0  0  0
   60.2370   28.7090   46.3250 C   0  0  0  0  0  0  0  0  0  0  0  0
   59.4390   28.4560   47.4560 C   0  0  0  0  0  0  0  0  0  0  0  0
   58.8470   27.1180   47.6750 C   0  0  0  0  0  0  0  0  0  0  0  0
   59.5090   26.2420   48.2910 O   0  0  0  0  0  0  0  0  0  0  0  0
   57.5530   26.7740   47.1660 N   0  0  0  0  0  0  0  0  0  0  0  0
   57.2880   25.7890   46.1550 C   0  0  0  0  0  0  0  0  0  0  0  0
   56.9370   24.4770   46.5300 C   0  0  0  0  0  0  0  0  0  0  0  0
   56.7120   23.4940   45.5700 C   0  0  0  0  0  0  0  0  0  0  0  0
   56.8530   23.7980   44.2190 C   0  0  0  0  0  0  0  0  0  0  0  0
   56.5750   22.5570   43.0130 Cl  0  0  0  0  0  0  0  0  0  0  0  0
   57.2190   25.0900   43.8250 C   0  0  0  0  0  0  0  0  0  0  0  0
   57.4400   26.1060   44.7790 C   0  0  0  0  0  0  0  0  0  0  0  0
   57.7790   27.4790   44.3000 C   0  0  0  0  0  0  0  0  0  0  0  0
   58.8720   27.6740   43.6970 O   0  0  0  0  0  0  0  0  0  0  0  0
   56.8740   28.5770   44.5150 N   0  0  0  0  0  0  0  0  0  0  0  0
   57.1900   29.8380   44.5980 C   0  0  0  0  0  0  0  0  0  0  0  0
   57.3820   30.5710   43.4190 C   0  0  0  0  0  0  0  0  0  0  0  0
   57.7660   31.9140   43.5020 C   0  0  0  0  0  0  0  0  0  0  0  0
   57.9630   32.5070   44.7540 C   0  0  0  0  0  0  0  0  0  0  0  0
   58.4850   34.3390   44.8840 Br  0  0  0  0  0  0  0  0  0  0  0  0
   57.7580   31.7480   45.9090 C   0  0  0  0  0  0  0  0  0  0  0  0
   57.3840   30.4430   45.8070 N   0  0  0  0  0  0  0  0  0  0  0  0
   59.2240   29.4860   48.3860 C   0  0  0  0  0  0  0  0  0  0  0  0
   59.7790   30.7530   48.1800 C   0  0  0  0  0  0  0  0  0  0  0  0
   63.0560   33.8090   47.4000 C   0  0  0  0  0  0  0  0  0  0  0  0
   63.0500   34.2000   48.8830 C   0  0  0  0  0  0  0  0  0  0  0  0
   61.7802   33.3358   52.3264 H   0  0  0  0  0  0  0  0  0  0  0  0
   61.6122   34.2325   50.7790 H   0  0  0  0  0  0  0  0  0  0  0  0
   61.6275   32.4363   50.7790 H   0  0  0  0  0  0  0  0  0  0  0  0
   63.9605   34.2516   51.5889 H   0  0  0  0  0  0  0  0  0  0  0  0
   63.9554   32.4338   51.5615 H   0  0  0  0  0  0  0  0  0  0  0  0
   64.9250   33.8110   49.6130 H   0  0  0  0  0  0  0  0  0  0  0  0
   64.9796   31.9435   48.4551 H   0  0  0  0  0  0  0  0  0  0  0  0
   64.2445   31.2906   49.9834 H   0  0  0  0  0  0  0  0  0  0  0  0
   63.0149   30.5056   47.9966 H   0  0  0  0  0  0  0  0  0  0  0  0
   62.0027   31.5909   49.0420 H   0  0  0  0  0  0  0  0  0  0  0  0
   60.6020   33.1061   47.4331 H   0  0  0  0  0  0  0  0  0  0  0  0
   61.0611   32.6213   45.7547 H   0  0  0  0  0  0  0  0  0  0  0  0
   61.4267   30.1584   45.2432 H   0  0  0  0  0  0  0  0  0  0  0  0
   60.4166   27.9089   45.5918 H   0  0  0  0  0  0  0  0  0  0  0  0
   56.8393   24.2257   47.5965 H   0  0  0  0  0  0  0  0  0  0  0  0
   56.4232   22.4785   45.8788 H   0  0  0  0  0  0  0  0  0  0  0  0
   57.3362   25.3170   42.7551 H   0  0  0  0  0  0  0  0  0  0  0  0
   57.2324   30.0954   42.4385 H   0  0  0  0  0  0  0  0  0  0  0  0
   57.9128   32.5027   42.5844 H   0  0  0  0  0  0  0  0  0  0  0  0
   57.8987   32.2045   46.8999 H   0  0  0  0  0  0  0  0  0  0  0  0
   58.6153   29.2950   49.2821 H   0  0  0  0  0  0  0  0  0  0  0  0
   59.5877   31.5585   48.9043 H   0  0  0  0  0  0  0  0  0  0  0  0
   64.0813   33.8994   47.0120 H   0  0  0  0  0  0  0  0  0  0  0  0
   62.3705   34.4832   46.8656 H   0  0  0  0  0  0  0  0  0  0  0  0
   63.3548   35.2529   48.9756 H   0  0  0  0  0  0  0  0  0  0  0  0
   62.0330   34.0489   49.2740 H   0  0  0  0  0  0  0  0  0  0  0  0
  1  2  1  0
  2  3  1  0
  3  4  1  0
  4  5  1  0
  5  6  1  0
  6  7  1  0
  7  8  1  0
  8  9  2  0
  9 10  1  0
 10 11  2  0
 11 12  1  0
 12 13  2  0
 12 14  1  0
 14 15  1  0
 15 16  2  0
 16 17  1  0
 17 18  2  0
 18 19  1  0
 18 20  1  0
 20 21  2  0
 21 22  1  0
 22 23  2  0
 22 24  1  0
 24 25  2  3
 25 26  1  0
 26 27  2  0
 27 28  1  0
 28 29  1  0
 28 30  2  0
 30 31  1  0
 11 32  1  0
 32 33  2  0
  6 34  1  0
 34 35  1  0
 35  3  1  0
 33  8  1  0
 21 15  1  0
 31 25  1  0
  1 36  1  0
  1 37  1  0
  1 38  1  0
  2 39  1  0
  2 40  1  0
  3 41  1  0
  4 42  1  0
  4 43  1  0
  5 44  1  0
  5 45  1  0
  7 46  1  0
  7 47  1  0
  9 48  1  0
 10 49  1  0
 16 50  1  0
 17 51  1  0
 20 52  1  0
 26 53  1  0
 27 54  1  0
 30 55  1  0
 32 56  1  0
 33 57  1  0
 34 58  1  0
 34 59  1  0
 35 60  1  0
 35 61  1  0
M  CHG  3   3   1  14  -1  31  -1
M  END
>  <UniqueID>  (85) 
81

>  <SMILES>  (85) 
CC[NH+]1CCN(Cc2ccc(C(=O)[N-]c3ccc(Cl)cc3C(=O)N=c3ccc(Br)c[n-]3)cc2)CC1

>  <Energy>  (85) 
90.92617475524145

>  <Genealogy>  (85) 
CC[NH+]1CCN(Cc2ccc(C(=O)[N-]c3ccc(Cl)cc3C(=O)N=c3ccc(Br)c[n-]3)cc2)CC1 (protonated)
CC[NH+]1CCN(Cc2ccc(C(=O)[N-]c3ccc(Cl)cc3C(=O)N=c3ccc(Br)c[n-]3)cc2)CC1 (3D coordinates assigned)
CC[NH+]1CCN(Cc2ccc(C(=O)[N-]c3ccc(Cl)cc3C(=O)N=c3ccc(Br)c[n-]3)cc2)CC1 (nonaromatic ring conformer: 90.92617475524145 kcal/mol)

>  <smiles>  (85) 
CCN1CCN(Cc2ccc(C(=O)Nc3ccc(Cl)cc3C(=O)N=c3ccc(Br)c[nH]3)cc2)CC1

>  <score_type>  (85) 
oracle

>  <origin>  (85) 
adg

>  <m_score__min__energy>  (85) 
-12.43

>  <m_primary>  (85) 
energy

$$$$
85:0
     RDKit          3D

 37 38  0  0  0  0  0  0  0  0999 V2000
   54.7650   26.1870   45.8690 N   0  0  0  0  0  0  0  0  0  0  0  0
   56.2240   25.3370   46.2370 S   0  0  0  0  0  0  0  0  0  0  0  0
   56.1650   24.8210   47.6480 O   0  0  0  0  0  0  0  0  0  0  0  0
   56.3680   24.1710   45.3010 O   0  0  0  0  0  0  0  0  0  0  0  0
   57.5970   26.4250   46.0630 C   0  0  0  0  0  0  0  0  0  0  0  0
   58.2150   26.5960   44.8160 C   0  0  0  0  0  0  0  0  0  0  0  0
   59.2930   27.4740   44.6820 C   0  0  0  0  0  0  0  0  0  0  0  0
   59.7650   28.1810   45.7910 C   0  0  0  0  0  0  0  0  0  0  0  0
   59.1660   28.0000   47.0480 C   0  0  0  0  0  0  0  0  0  0  0  0
   59.6080   28.7330   48.1970 N   0  0  0  0  0  0  0  0  0  0  0  0
   58.8840   29.7830   48.8520 C   0  0  0  0  0  0  0  0  0  0  0  0
   58.1550   29.4920   49.8370 O   0  0  0  0  0  0  0  0  0  0  0  0
   59.0530   31.2380   48.4660 C   0  0  0  0  0  0  0  0  0  0  0  0
   58.5580   31.5450   47.1050 N   0  0  0  0  0  0  0  0  0  0  0  0
   59.5660   31.3030   46.0520 C   0  0  0  0  0  0  0  0  0  0  0  0
   58.8680   30.8970   44.7510 C   0  0  0  0  0  0  0  0  0  0  0  0
   57.4300   31.9160   44.4770 S   0  0  0  0  0  0  0  0  0  0  0  0
   57.3920   32.3900   43.0520 O   0  0  0  0  0  0  0  0  0  0  0  0
   56.1820   31.1340   44.7830 O   0  0  0  0  0  0  0  0  0  0  0  0
   57.5510   33.3090   45.5810 C   0  0  0  0  0  0  0  0  0  0  0  0
   57.9220   32.8830   47.0180 C   0  0  0  0  0  0  0  0  0  0  0  0
   58.0660   27.1420   47.1720 C   0  0  0  0  0  0  0  0  0  0  0  0
   54.8000   27.0920   46.3900 H   0  0  0  0  0  0  0  0  0  0  0  0
   57.8501   26.0375   43.9414 H   0  0  0  0  0  0  0  0  0  0  0  0
   59.7716   27.6093   43.7009 H   0  0  0  0  0  0  0  0  0  0  0  0
   60.6068   28.8802   45.6792 H   0  0  0  0  0  0  0  0  0  0  0  0
   58.4986   31.8569   49.1868 H   0  0  0  0  0  0  0  0  0  0  0  0
   60.1315   31.4543   48.4765 H   0  0  0  0  0  0  0  0  0  0  0  0
   60.1466   32.2220   45.8838 H   0  0  0  0  0  0  0  0  0  0  0  0
   60.2388   30.4936   46.3717 H   0  0  0  0  0  0  0  0  0  0  0  0
   59.5664   31.0211   43.9103 H   0  0  0  0  0  0  0  0  0  0  0  0
   58.5529   29.8458   44.8266 H   0  0  0  0  0  0  0  0  0  0  0  0
   58.3245   33.9941   45.2036 H   0  0  0  0  0  0  0  0  0  0  0  0
   56.5664   33.7982   45.6171 H   0  0  0  0  0  0  0  0  0  0  0  0
   58.6211   33.6259   47.4295 H   0  0  0  0  0  0  0  0  0  0  0  0
   56.9818   32.8264   47.5862 H   0  0  0  0  0  0  0  0  0  0  0  0
   57.5671   27.0302   48.1460 H   0  0  0  0  0  0  0  0  0  0  0  0
  1  2  1  0
  2  3  2  0
  2  4  2  0
  2  5  1  0
  5  6  2  0
  6  7  1  0
  7  8  2  0
  8  9  1  0
  9 10  1  0
 10 11  1  0
 11 12  2  0
 11 13  1  0
 13 14  1  0
 14 15  1  0
 15 16  1  0
 16 17  1  0
 17 18  2  0
 17 19  2  0
 17 20  1  0
 20 21  1  0
  9 22  2  0
 22  5  1  0
 21 14  1  0
  1 23  1  0
  6 24  1  0
  7 25  1  0
  8 26  1  0
 13 27  1  0
 13 28  1  0
 15 29  1  0
 15 30  1  0
 16 31  1  0
 16 32  1  0
 20 33  1  0
 20 34  1  0
 21 35  1  0
 21 36  1  0
 22 37  1  0
M  CHG  2   1  -1  10  -1
M  END
>  <UniqueID>  (86) 
82

>  <SMILES>  (86) 
[NH-]S(=O)(=O)c1cccc([N-]C(=O)CN2CCS(=O)(=O)CC2)c1

>  <Energy>  (86) 
44.78855680656954

>  <Genealogy>  (86) 
[NH-]S(=O)(=O)c1cccc([N-]C(=O)CN2CCS(=O)(=O)CC2)c1 (protonated)
[NH-]S(=O)(=O)c1cccc([N-]C(=O)CN2CCS(=O)(=O)CC2)c1 (3D coordinates assigned)
[NH-]S(=O)(=O)c1cccc([N-]C(=O)CN2CCS(=O)(=O)CC2)c1 (nonaromatic ring conformer: 44.78855680656954 kcal/mol)

>  <smiles>  (86) 
NS(=O)(=O)c1cccc(NC(=O)CN2CCS(=O)(=O)CC2)c1

>  <score_type>  (86) 
oracle

>  <origin>  (86) 
adg

>  <m_score__min__energy>  (86) 
-12.48

>  <m_primary>  (86) 
energy

$$$$
