0:0
     RDKit          3D

 45 47  0  0  0  0  0  0  0  0999 V2000
   65.0380   33.0890   49.3950 C   0  0  0  0  0  0  0  0  0  0  0  0
   63.8210   32.4240   48.9130 N   0  0  0  0  0  0  0  0  0  0  0  0
   63.3860   32.6540   47.6370 C   0  0  0  0  0  0  0  0  0  0  0  0
   62.2240   32.0440   47.1580 C   0  0  0  0  0  0  0  0  0  0  0  0
   61.4980   31.1820   47.9900 C   0  0  0  0  0  0  0  0  0  0  0  0
   60.2870   30.5480   47.5430 N   0  0  0  0  0  0  0  0  0  0  0  0
   59.9700   29.1700   47.7980 C   0  0  0  0  0  0  0  0  0  0  0  0
   60.5490   28.5570   48.7370 O   0  0  0  0  0  0  0  0  0  0  0  0
   58.9290   28.4710   47.0050 C   0  0  0  0  0  0  0  0  0  0  0  0
   58.7670   27.0790   47.1210 C   0  0  0  0  0  0  0  0  0  0  0  0
   57.7830   26.4160   46.3840 C   0  0  0  0  0  0  0  0  0  0  0  0
   56.9580   27.1290   45.5140 C   0  0  0  0  0  0  0  0  0  0  0  0
   57.1220   28.5140   45.3610 C   0  0  0  0  0  0  0  0  0  0  0  0
   56.2220   29.2890   44.4430 C   0  0  0  0  0  0  0  0  0  0  0  0
   56.2690   30.7020   44.8020 N   0  0  0  0  0  0  0  0  0  0  0  0
   57.2000   31.6520   44.2690 C   0  0  0  0  0  0  0  0  0  0  0  0
   57.3860   31.6830   43.0240 O   0  0  0  0  0  0  0  0  0  0  0  0
   57.9120   32.6220   45.1250 C   0  0  0  0  0  0  0  0  0  0  0  0
   57.7890   32.5790   46.5230 C   0  0  0  0  0  0  0  0  0  0  0  0
   58.4790   33.4970   47.3200 C   0  0  0  0  0  0  0  0  0  0  0  0
   59.3060   34.4560   46.7270 C   0  0  0  0  0  0  0  0  0  0  0  0
   59.9770   35.3440   47.5030 F   0  0  0  0  0  0  0  0  0  0  0  0
   59.4510   34.4910   45.3380 C   0  0  0  0  0  0  0  0  0  0  0  0
   58.7630   33.5740   44.5390 C   0  0  0  0  0  0  0  0  0  0  0  0
   58.1010   29.1820   46.1160 C   0  0  0  0  0  0  0  0  0  0  0  0
   61.9380   30.9820   49.3030 C   0  0  0  0  0  0  0  0  0  0  0  0
   63.1080   31.6060   49.7510 C   0  0  0  0  0  0  0  0  0  0  0  0
   63.4950   31.4040   50.9350 O   0  0  0  0  0  0  0  0  0  0  0  0
   65.0432   33.0918   50.4950 H   0  0  0  0  0  0  0  0  0  0  0  0
   65.9220   32.5485   49.0256 H   0  0  0  0  0  0  0  0  0  0  0  0
   65.0607   34.1249   49.0256 H   0  0  0  0  0  0  0  0  0  0  0  0
   63.9574   33.3267   46.9805 H   0  0  0  0  0  0  0  0  0  0  0  0
   61.8805   32.2398   46.1315 H   0  0  0  0  0  0  0  0  0  0  0  0
   59.5470   31.1530   47.1220 H   0  0  0  0  0  0  0  0  0  0  0  0
   59.4201   26.5079   47.7972 H   0  0  0  0  0  0  0  0  0  0  0  0
   57.6582   25.3282   46.4900 H   0  0  0  0  0  0  0  0  0  0  0  0
   56.1762   26.6036   44.9460 H   0  0  0  0  0  0  0  0  0  0  0  0
   56.5599   29.1624   43.4039 H   0  0  0  0  0  0  0  0  0  0  0  0
   55.1907   28.9185   44.5386 H   0  0  0  0  0  0  0  0  0  0  0  0
   57.1469   31.8196   46.9931 H   0  0  0  0  0  0  0  0  0  0  0  0
   58.3713   33.4650   48.4142 H   0  0  0  0  0  0  0  0  0  0  0  0
   60.1074   35.2412   44.8728 H   0  0  0  0  0  0  0  0  0  0  0  0
   58.8882   33.5976   43.4464 H   0  0  0  0  0  0  0  0  0  0  0  0
   58.2214   30.2704   46.0113 H   0  0  0  0  0  0  0  0  0  0  0  0
   61.3647   30.3347   49.9829 H   0  0  0  0  0  0  0  0  0  0  0  0
  1  2  1  0
  2  3  1  0
  3  4  2  0
  4  5  1  0
  5  6  1  0
  6  7  1  0
  7  8  2  0
  7  9  1  0
  9 10  2  0
 10 11  1  0
 11 12  2  0
 12 13  1  0
 13 14  1  0
 14 15  1  0
 15 16  1  0
 16 17  2  0
 16 18  1  0
 18 19  2  0
 19 20  1  0
 20 21  2  0
 21 22  1  0
 21 23  1  0
 23 24  2  0
 13 25  2  0
  5 26  2  0
 26 27  1  0
 27 28  2  0
 27  2  1  0
 25  9  1  0
 24 18  1  0
  1 29  1  0
  1 30  1  0
  1 31  1  0
  3 32  1  0
  4 33  1  0
  6 34  1  0
 10 35  1  0
 11 36  1  0
 12 37  1  0
 14 38  1  0
 14 39  1  0
 19 40  1  0
 20 41  1  0
 23 42  1  0
 24 43  1  0
 25 44  1  0
 26 45  1  0
M  CHG  1  15  -1
M  END
>  <UniqueID>  (1) 
1

>  <SMILES>  (1) 
Cn1ccc(NC(=O)c2cccc(C[N-]C(=O)c3ccc(F)cc3)c2)cc1=O

>  <Energy>  (1) 
58.58522321436584

>  <Genealogy>  (1) 
Cn1ccc(NC(=O)c2cccc(C[N-]C(=O)c3ccc(F)cc3)c2)cc1=O (protonated)
Cn1ccc(NC(=O)c2cccc(C[N-]C(=O)c3ccc(F)cc3)c2)cc1=O (3D coordinates assigned)
Cn1ccc(NC(=O)c2cccc(C[N-]C(=O)c3ccc(F)cc3)c2)cc1=O (optimized conformer: 58.58522321436584 kcal/mol)

>  <smiles>  (1) 
Cn1ccc(NC(=O)c2cccc(CNC(=O)c3ccc(F)cc3)c2)cc1=O

>  <score_type>  (1) 
oracle

>  <origin>  (1) 
adg

>  <m_score__min__energy>  (1) 
-9.9600000000000009

>  <m_primary>  (1) 
energy

$$$$
1:0
     RDKit          3D

 37 39  0  0  0  0  0  0  0  0999 V2000
   56.5290   29.3590   43.0550 O   0  0  0  0  0  0  0  0  0  0  0  0
   56.6210   29.5700   44.2930 C   0  0  0  0  0  0  0  0  0  0  0  0
   55.9100   28.7030   45.1900 N   0  0  0  0  0  0  0  0  0  0  0  0
   56.3310   27.5510   45.6200 C   0  0  0  0  0  0  0  0  0  0  0  0
   55.5250   26.5690   46.0800 N   0  0  0  0  0  0  0  0  0  0  0  0
   56.2420   25.4890   46.4910 C   0  0  0  0  0  0  0  0  0  0  0  0
   57.6210   25.6160   46.3680 C   0  0  0  0  0  0  0  0  0  0  0  0
   57.9530   27.1350   45.7210 S   0  0  0  0  0  0  0  0  0  0  0  0
   57.4070   30.7330   44.7720 C   0  0  0  0  0  0  0  0  0  0  0  0
   57.0220   32.0370   44.4170 C   0  0  0  0  0  0  0  0  0  0  0  0
   57.7500   33.1380   44.8780 C   0  0  0  0  0  0  0  0  0  0  0  0
   58.8650   32.9540   45.7030 C   0  0  0  0  0  0  0  0  0  0  0  0
   59.7570   34.3530   46.2950 S   0  0  0  0  0  0  0  0  0  0  0  0
   61.2300   34.1720   46.0540 O   0  0  0  0  0  0  0  0  0  0  0  0
   59.2980   35.5760   45.5510 O   0  0  0  0  0  0  0  0  0  0  0  0
   59.4620   34.5750   47.9920 N   0  0  0  0  0  0  0  0  0  0  0  0
   59.8390   33.3680   48.7230 C   0  0  0  0  0  0  0  0  0  0  0  0
   61.3340   33.2370   48.7170 C   0  0  0  0  0  0  0  0  0  0  0  0
   61.9550   32.1640   48.0630 C   0  0  0  0  0  0  0  0  0  0  0  0
   63.3480   32.0750   48.0370 C   0  0  0  0  0  0  0  0  0  0  0  0
   64.1090   33.0690   48.6560 C   0  0  0  0  0  0  0  0  0  0  0  0
   63.4940   34.1120   49.2720 N   0  0  0  0  0  0  0  0  0  0  0  0
   62.1390   34.2210   49.3130 C   0  0  0  0  0  0  0  0  0  0  0  0
   59.2380   31.6570   46.0800 C   0  0  0  0  0  0  0  0  0  0  0  0
   58.5130   30.5540   45.6220 C   0  0  0  0  0  0  0  0  0  0  0  0
   55.7659   24.5817   46.8913 H   0  0  0  0  0  0  0  0  0  0  0  0
   58.3662   24.8559   46.6453 H   0  0  0  0  0  0  0  0  0  0  0  0
   56.1436   32.1923   43.7733 H   0  0  0  0  0  0  0  0  0  0  0  0
   57.4444   34.1548   44.5904 H   0  0  0  0  0  0  0  0  0  0  0  0
   59.4796   33.4382   49.7602 H   0  0  0  0  0  0  0  0  0  0  0  0
   59.3879   32.4875   48.2421 H   0  0  0  0  0  0  0  0  0  0  0  0
   61.3450   31.3924   47.5705 H   0  0  0  0  0  0  0  0  0  0  0  0
   63.8413   31.2303   47.5339 H   0  0  0  0  0  0  0  0  0  0  0  0
   65.2072   33.0074   48.6448 H   0  0  0  0  0  0  0  0  0  0  0  0
   61.6726   35.0820   49.8142 H   0  0  0  0  0  0  0  0  0  0  0  0
   60.1055   31.5066   46.7395 H   0  0  0  0  0  0  0  0  0  0  0  0
   58.8090   29.5397   45.9280 H   0  0  0  0  0  0  0  0  0  0  0  0
  1  2  2  0
  2  3  1  0
  3  4  2  3
  4  5  1  0
  5  6  1  0
  6  7  2  0
  7  8  1  0
  2  9  1  0
  9 10  2  0
 10 11  1  0
 11 12  2  0
 12 13  1  0
 13 14  2  0
 13 15  2  0
 13 16  1  0
 16 17  1  0
 17 18  1  0
 18 19  2  0
 19 20  1  0
 20 21  2  0
 21 22  1  0
 22 23  2  0
 12 24  1  0
 24 25  2  0
  8  4  1  0
 25  9  1  0
 23 18  1  0
  6 26  1  0
  7 27  1  0
 10 28  1  0
 11 29  1  0
 17 30  1  0
 17 31  1  0
 19 32  1  0
 20 33  1  0
 21 34  1  0
 23 35  1  0
 24 36  1  0
 25 37  1  0
M  CHG  2   5  -1  16  -1
M  END
>  <UniqueID>  (2) 
2

>  <SMILES>  (2) 
O=C(N=c1[n-]ccs1)c1ccc(S(=O)(=O)[N-]Cc2cccnc2)cc1

>  <Energy>  (2) 
75.59073816829871

>  <Genealogy>  (2) 
O=C(N=c1[n-]ccs1)c1ccc(S(=O)(=O)[N-]Cc2cccnc2)cc1 (protonated)
O=C(N=c1[n-]ccs1)c1ccc(S(=O)(=O)[N-]Cc2cccnc2)cc1 (3D coordinates assigned)
O=C(N=c1[n-]ccs1)c1ccc(S(=O)(=O)[N-]Cc2cccnc2)cc1 (optimized conformer: 75.59073816829871 kcal/mol)

>  <smiles>  (2) 
O=C(N=c1[nH]ccs1)c1ccc(S(=O)(=O)NCc2cccnc2)cc1

>  <score_type>  (2) 
oracle

>  <origin>  (2) 
adg

>  <m_score__min__energy>  (2) 
-10.81

>  <m_primary>  (2) 
energy

$$$$
2:0
     RDKit          3D

 29 30  0  0  0  0  0  0  0  0999 V2000
   60.3520   28.3990   45.2420 C   0  0  0  0  0  0  0  0  0  0  0  0
   58.9260   27.9450   45.4490 C   0  0  0  0  0  0  0  0  0  0  0  0
   57.8430   28.6400   44.8590 C   0  0  0  0  0  0  0  0  0  0  0  0
   58.0740   29.7820   43.9960 N   0  0  0  0  0  0  0  0  0  0  0  0
   57.0750   30.8480   44.1760 C   0  0  0  0  0  0  0  0  0  0  0  0
   57.6900   32.0340   44.8740 C   0  0  0  0  0  0  0  0  0  0  0  0
   57.7820   33.2720   44.2180 C   0  0  0  0  0  0  0  0  0  0  0  0
   58.3200   34.3810   44.8790 C   0  0  0  0  0  0  0  0  0  0  0  0
   58.7570   34.2640   46.2020 C   0  0  0  0  0  0  0  0  0  0  0  0
   58.6550   33.0390   46.8660 C   0  0  0  0  0  0  0  0  0  0  0  0
   58.1170   31.9270   46.2080 C   0  0  0  0  0  0  0  0  0  0  0  0
   56.5770   28.1720   45.0530 N   0  0  0  0  0  0  0  0  0  0  0  0
   56.3240   27.0930   45.8350 C   0  0  0  0  0  0  0  0  0  0  0  0
   55.1420   26.6960   45.9970 O   0  0  0  0  0  0  0  0  0  0  0  0
   57.3470   26.4430   46.4430 N   0  0  0  0  0  0  0  0  0  0  0  0
   58.6320   26.8430   46.2740 C   0  0  0  0  0  0  0  0  0  0  0  0
   59.5510   26.2120   46.8610 O   0  0  0  0  0  0  0  0  0  0  0  0
   60.8335   28.5523   46.2191 H   0  0  0  0  0  0  0  0  0  0  0  0
   60.9029   27.6318   44.6781 H   0  0  0  0  0  0  0  0  0  0  0  0
   60.3579   29.3435   44.6781 H   0  0  0  0  0  0  0  0  0  0  0  0
   58.0520   29.4510   43.0020 H   0  0  0  0  0  0  0  0  0  0  0  0
   59.0170   30.1840   44.2070 H   0  0  0  0  0  0  0  0  0  0  0  0
   56.6992   31.1622   43.1911 H   0  0  0  0  0  0  0  0  0  0  0  0
   56.2488   30.4618   44.7910 H   0  0  0  0  0  0  0  0  0  0  0  0
   57.4297   33.3700   43.1806 H   0  0  0  0  0  0  0  0  0  0  0  0
   58.3994   35.3463   44.3575 H   0  0  0  0  0  0  0  0  0  0  0  0
   59.1812   35.1367   46.7202 H   0  0  0  0  0  0  0  0  0  0  0  0
   58.9979   32.9483   47.9072 H   0  0  0  0  0  0  0  0  0  0  0  0
   58.0283   30.9666   46.7369 H   0  0  0  0  0  0  0  0  0  0  0  0
  1  2  1  0
  2  3  2  0
  3  4  1  0
  4  5  1  0
  5  6  1  0
  6  7  2  0
  7  8  1  0
  8  9  2  0
  9 10  1  0
 10 11  2  0
  3 12  1  0
 12 13  1  0
 13 14  2  0
 13 15  1  0
 15 16  1  0
 16 17  2  0
 16  2  1  0
 11  6  1  0
  1 18  1  0
  1 19  1  0
  1 20  1  0
  4 21  1  0
  4 22  1  0
  5 23  1  0
  5 24  1  0
  7 25  1  0
  8 26  1  0
  9 27  1  0
 10 28  1  0
 11 29  1  0
M  CHG  3   4   1  12  -1  15  -1
M  END
>  <UniqueID>  (3) 
3

>  <SMILES>  (3) 
Cc1c([NH2+]Cc2ccccc2)[n-]c(=O)[n-]c1=O

>  <Energy>  (3) 
34.67342793597373

>  <Genealogy>  (3) 
Cc1c([NH2+]Cc2ccccc2)[n-]c(=O)[n-]c1=O (protonated)
Cc1c([NH2+]Cc2ccccc2)[n-]c(=O)[n-]c1=O (3D coordinates assigned)
Cc1c([NH2+]Cc2ccccc2)[n-]c(=O)[n-]c1=O (optimized conformer: 34.67342793597373 kcal/mol)

>  <smiles>  (3) 
Cc1c(NCc2ccccc2)[nH]c(=O)[nH]c1=O

>  <score_type>  (3) 
oracle

>  <origin>  (3) 
adg

>  <m_score__min__energy>  (3) 
-9.0700000000000003

>  <m_primary>  (3) 
energy

$$$$
3:0
     RDKit          3D

 43 45  0  0  0  0  0  0  0  0999 V2000
   54.7260   26.3200   45.8640 O   0  0  0  0  0  0  0  0  0  0  0  0
   55.3250   25.2180   45.9910 C   0  0  0  0  0  0  0  0  0  0  0  0
   54.6950   23.9500   45.4710 C   0  0  0  0  0  0  0  0  0  0  0  0
   55.6860   23.0850   44.7350 C   0  0  0  0  0  0  0  0  0  0  0  0
   55.7290   23.0960   43.3300 C   0  0  0  0  0  0  0  0  0  0  0  0
   56.6270   22.2720   42.6460 C   0  0  0  0  0  0  0  0  0  0  0  0
   57.4830   21.4260   43.3580 C   0  0  0  0  0  0  0  0  0  0  0  0
   57.4370   21.3990   44.7550 C   0  0  0  0  0  0  0  0  0  0  0  0
   56.5400   22.2210   45.4430 C   0  0  0  0  0  0  0  0  0  0  0  0
   56.5710   25.1930   46.6950 N   0  0  0  0  0  0  0  0  0  0  0  0
   57.8780   25.2360   46.0540 C   0  0  0  0  0  0  0  0  0  0  0  0
   58.1180   26.6100   45.5180 C   0  0  0  0  0  0  0  0  0  0  0  0
   59.2200   26.8780   44.9660 O   0  0  0  0  0  0  0  0  0  0  0  0
   57.1280   27.6330   45.7080 N   0  0  0  0  0  0  0  0  0  0  0  0
   57.2680   28.9710   45.2020 C   0  0  0  0  0  0  0  0  0  0  0  0
   56.4740   29.4000   44.1230 C   0  0  0  0  0  0  0  0  0  0  0  0
   56.5350   30.7220   43.6810 C   0  0  0  0  0  0  0  0  0  0  0  0
   57.3770   31.6350   44.3170 C   0  0  0  0  0  0  0  0  0  0  0  0
   58.1640   31.2260   45.3940 C   0  0  0  0  0  0  0  0  0  0  0  0
   58.1260   29.8940   45.8440 C   0  0  0  0  0  0  0  0  0  0  0  0
   58.9830   29.4900   46.9280 N   0  0  0  0  0  0  0  0  0  0  0  0
   60.2970   29.7650   47.0610 C   0  0  0  0  0  0  0  0  0  0  0  0
   60.7630   29.2540   48.2550 C   0  0  0  0  0  0  0  0  0  0  0  0
   59.6850   28.6550   48.8760 C   0  0  0  0  0  0  0  0  0  0  0  0
   58.6030   28.8240   48.0370 C   0  0  0  0  0  0  0  0  0  0  0  0
   54.2898   23.3809   46.3207 H   0  0  0  0  0  0  0  0  0  0  0  0
   53.9006   24.2316   44.7641 H   0  0  0  0  0  0  0  0  0  0  0  0
   55.0530   23.7559   42.7665 H   0  0  0  0  0  0  0  0  0  0  0  0
   56.6605   22.2890   41.5466 H   0  0  0  0  0  0  0  0  0  0  0  0
   58.1928   20.7815   42.8187 H   0  0  0  0  0  0  0  0  0  0  0  0
   58.1078   20.7298   45.3137 H   0  0  0  0  0  0  0  0  0  0  0  0
   56.5020   22.1919   46.5420 H   0  0  0  0  0  0  0  0  0  0  0  0
   58.6569   24.9870   46.7898 H   0  0  0  0  0  0  0  0  0  0  0  0
   57.9096   24.5075   45.2304 H   0  0  0  0  0  0  0  0  0  0  0  0
   56.3070   27.4140   46.3160 H   0  0  0  0  0  0  0  0  0  0  0  0
   55.8001   28.6880   43.6241 H   0  0  0  0  0  0  0  0  0  0  0  0
   55.9181   31.0451   42.8295 H   0  0  0  0  0  0  0  0  0  0  0  0
   57.4203   32.6776   43.9691 H   0  0  0  0  0  0  0  0  0  0  0  0
   58.8204   31.9521   45.8959 H   0  0  0  0  0  0  0  0  0  0  0  0
   60.9056   30.3142   46.3276 H   0  0  0  0  0  0  0  0  0  0  0  0
   61.7927   29.3124   48.6376 H   0  0  0  0  0  0  0  0  0  0  0  0
   59.6883   28.1430   49.8496 H   0  0  0  0  0  0  0  0  0  0  0  0
   57.5825   28.4684   48.2422 H   0  0  0  0  0  0  0  0  0  0  0  0
  1  2  2  0
  2  3  1  0
  3  4  1  0
  4  5  2  0
  5  6  1  0
  6  7  2  0
  7  8  1  0
  8  9  2  0
  2 10  1  0
 10 11  1  0
 11 12  1  0
 12 13  2  0
 12 14  1  0
 14 15  1  0
 15 16  2  0
 16 17  1  0
 17 18  2  0
 18 19  1  0
 19 20  2  0
 20 21  1  0
 21 22  1  0
 22 23  2  0
 23 24  1  0
 24 25  2  0
  9  4  1  0
 20 15  1  0
 25 21  1  0
  3 26  1  0
  3 27  1  0
  5 28  1  0
  6 29  1  0
  7 30  1  0
  8 31  1  0
  9 32  1  0
 11 33  1  0
 11 34  1  0
 14 35  1  0
 16 36  1  0
 17 37  1  0
 18 38  1  0
 19 39  1  0
 22 40  1  0
 23 41  1  0
 24 42  1  0
 25 43  1  0
M  CHG  1  10  -1
M  END
>  <UniqueID>  (4) 
4

>  <SMILES>  (4) 
O=C(Cc1ccccc1)[N-]CC(=O)Nc1ccccc1-n1cccc1

>  <Energy>  (4) 
76.01245077299279

>  <Genealogy>  (4) 
O=C(Cc1ccccc1)[N-]CC(=O)Nc1ccccc1-n1cccc1 (protonated)
O=C(Cc1ccccc1)[N-]CC(=O)Nc1ccccc1-n1cccc1 (3D coordinates assigned)
O=C(Cc1ccccc1)[N-]CC(=O)Nc1ccccc1-n1cccc1 (optimized conformer: 76.01245077299279 kcal/mol)

>  <smiles>  (4) 
O=C(Cc1ccccc1)NCC(=O)Nc1ccccc1-n1cccc1

>  <score_type>  (4) 
oracle

>  <origin>  (4) 
adg

>  <m_score__min__energy>  (4) 
-9.9299999999999997

>  <m_primary>  (4) 
energy

$$$$
4:0
     RDKit          3D

 48 49  0  0  0  0  0  0  0  0999 V2000
   60.0894   26.3371   44.8118 H   0  0  0  0  0  0  0  0  0  0  0  0
   59.2670   26.8920   45.2870 C   0  0  0  0  0  0  0  0  0  0  0  0
   59.4020   28.2190   45.4210 C   0  0  0  0  0  0  0  0  0  0  0  0
   60.2448   28.6110   46.0092 H   0  0  0  0  0  0  0  0  0  0  0  0
   58.4550   29.1740   44.8040 C   0  0  0  0  0  0  0  0  0  0  0  0
   57.6660   28.7240   43.7350 C   0  0  0  0  0  0  0  0  0  0  0  0
   57.7749   27.6908   43.3734 H   0  0  0  0  0  0  0  0  0  0  0  0
   56.7460   29.5750   43.1280 C   0  0  0  0  0  0  0  0  0  0  0  0
   56.1165   29.2055   42.3050 H   0  0  0  0  0  0  0  0  0  0  0  0
   56.6210   30.8940   43.5610 C   0  0  0  0  0  0  0  0  0  0  0  0
   55.8848   31.5587   43.0854 H   0  0  0  0  0  0  0  0  0  0  0  0
   57.4260   31.3760   44.5960 C   0  0  0  0  0  0  0  0  0  0  0  0
   57.3320   32.7180   44.9430 O   0  0  0  0  0  0  0  0  0  0  0  0
   58.3470   30.5180   45.2380 C   0  0  0  0  0  0  0  0  0  0  0  0
   59.2060   30.9930   46.2430 O   0  0  0  0  0  0  0  0  0  0  0  0
   58.7960   31.2430   47.5890 C   0  0  0  0  0  0  0  0  0  0  0  0
   58.0404   30.4986   47.8803 H   0  0  0  0  0  0  0  0  0  0  0  0
   58.3751   32.2576   47.6475 H   0  0  0  0  0  0  0  0  0  0  0  0
   59.9910   31.1490   48.5470 C   0  0  0  0  0  0  0  0  0  0  0  0
   60.7662   30.5271   48.0756 H   0  0  0  0  0  0  0  0  0  0  0  0
   59.6178   30.7135   49.4856 H   0  0  0  0  0  0  0  0  0  0  0  0
   60.6110   32.5170   48.8990 C   0  0  0  0  0  0  0  0  0  0  0  0
   61.5174   32.6500   48.2901 H   0  0  0  0  0  0  0  0  0  0  0  0
   60.8166   32.4978   49.9794 H   0  0  0  0  0  0  0  0  0  0  0  0
   59.6820   33.7260   48.6510 C   0  0  0  0  0  0  0  0  0  0  0  0
   59.6599   34.3300   49.5701 H   0  0  0  0  0  0  0  0  0  0  0  0
   58.7053   33.3030   48.3732 H   0  0  0  0  0  0  0  0  0  0  0  0
   60.0880   34.6500   47.4860 C   0  0  0  0  0  0  0  0  0  0  0  0
   61.1808   34.7722   47.5144 H   0  0  0  0  0  0  0  0  0  0  0  0
   59.5349   35.5889   47.6361 H   0  0  0  0  0  0  0  0  0  0  0  0
   59.7020   34.1490   46.0820 C   0  0  0  0  0  0  0  0  0  0  0  0
   58.8943   33.4091   46.1830 H   0  0  0  0  0  0  0  0  0  0  0  0
   60.6033   33.7112   45.6281 H   0  0  0  0  0  0  0  0  0  0  0  0
   59.2230   35.2720   45.1610 C   0  0  0  0  0  0  0  0  0  0  0  0
   58.8631   36.1157   45.7681 H   0  0  0  0  0  0  0  0  0  0  0  0
   60.0568   35.6064   44.5262 H   0  0  0  0  0  0  0  0  0  0  0  0
   58.4045   34.9016   44.5262 H   0  0  0  0  0  0  0  0  0  0  0  0
   58.0800   26.1220   45.7380 C   0  0  0  0  0  0  0  0  0  0  0  0
   56.7620   26.6180   45.6260 C   0  0  0  0  0  0  0  0  0  0  0  0
   56.5888   27.6246   45.2176 H   0  0  0  0  0  0  0  0  0  0  0  0
   55.6760   25.8350   46.0320 C   0  0  0  0  0  0  0  0  0  0  0  0
   54.3800   26.3360   45.9300 O   0  0  0  0  0  0  0  0  0  0  0  0
   55.8890   24.5490   46.5410 C   0  0  0  0  0  0  0  0  0  0  0  0
   55.0340   23.9397   46.8693 H   0  0  0  0  0  0  0  0  0  0  0  0
   57.1880   24.0370   46.6330 C   0  0  0  0  0  0  0  0  0  0  0  0
   57.3980   22.7490   47.1170 O   0  0  0  0  0  0  0  0  0  0  0  0
   58.2760   24.8190   46.2310 C   0  0  0  0  0  0  0  0  0  0  0  0
   59.2951   24.4110   46.3011 H   0  0  0  0  0  0  0  0  0  0  0  0
  1  2  1  0
  2  3  2  0
  3  4  1  0
  3  5  1  0
  5  6  2  0
  6  7  1  0
  6  8  1  0
  8  9  1  0
  8 10  2  0
 10 11  1  0
 10 12  1  0
 12 13  1  0
 12 14  2  0
 14 15  1  0
 15 16  1  0
 16 17  1  0
 16 18  1  0
 16 19  1  0
 19 20  1  0
 19 21  1  0
 19 22  1  0
 22 23  1  0
 22 24  1  0
 22 25  1  0
 25 26  1  0
 25 27  1  0
 25 28  1  0
 28 29  1  0
 28 30  1  0
 28 31  1  0
 31 32  1  0
 31 33  1  0
 31 34  1  0
 34 35  1  0
 34 36  1  0
 34 37  1  0
  2 38  1  0
 38 39  2  0
 39 40  1  0
 39 41  1  0
 41 42  1  0
 41 43  2  0
 43 44  1  0
 43 45  1  0
 45 46  1  0
 45 47  2  0
 47 48  1  0
 14  5  1  0
 47 38  1  0
M  CHG  3  13  -1  42  -1  46  -1
M  END
>  <UniqueID>  (5) 
5

>  <SMILES>  (5) 
CCCCCCCOc1c([O-])cccc1/C=C/c1cc([O-])cc([O-])c1

>  <Energy>  (5) 
50.15490450281824

>  <Genealogy>  (5) 
CCCCCCCOc1c([O-])cccc1C=Cc1cc([O-])cc([O-])c1 (protonated)
CCCCCCCOc1c([O-])cccc1/C=C/c1cc([O-])cc([O-])c1 (cis-trans isomerization)
CCCCCCCOc1c([O-])cccc1/C=C/c1cc([O-])cc([O-])c1 (3D coordinates assigned)
CCCCCCCOc1c([O-])cccc1/C=C/c1cc([O-])cc([O-])c1 (optimized conformer: 50.15490450281824 kcal/mol)

>  <smiles>  (5) 
CCCCCCCOc1c(O)cccc1C=Cc1cc(O)cc(O)c1

>  <score_type>  (5) 
oracle

>  <origin>  (5) 
adg

>  <m_score__min__energy>  (5) 
-14.27

>  <m_primary>  (5) 
energy

$$$$
5:0
     RDKit          3D

 32 33  0  0  0  0  0  0  0  0999 V2000
   57.0530   32.2830   52.5190 O   0  0  0  0  0  0  0  0  0  0  0  0
   57.6590   31.6060   51.6450 C   0  0  0  0  0  0  0  0  0  0  0  0
   57.3980   30.2040   51.5270 N   0  0  0  0  0  0  0  0  0  0  0  0
   56.6660   29.4380   52.5260 C   0  0  0  0  0  0  0  0  0  0  0  0
   55.1570   29.6950   52.3910 C   0  0  0  0  0  0  0  0  0  0  0  0
   54.8460   31.0830   52.0030 N   0  0  0  0  0  0  0  0  0  0  0  0
   53.5140   31.2050   51.4700 C   0  0  0  0  0  0  0  0  0  0  0  0
   53.0920   30.4080   50.3950 C   0  0  0  0  0  0  0  0  0  0  0  0
   51.8010   30.5850   49.8970 C   0  0  0  0  0  0  0  0  0  0  0  0
   51.3950   29.8930   48.9280 O   0  0  0  0  0  0  0  0  0  0  0  0
   50.9790   31.5100   50.4580 N   0  0  0  0  0  0  0  0  0  0  0  0
   51.3980   32.2740   51.5000 C   0  0  0  0  0  0  0  0  0  0  0  0
   50.6230   33.1270   52.0040 O   0  0  0  0  0  0  0  0  0  0  0  0
   52.6530   32.1210   51.9960 N   0  0  0  0  0  0  0  0  0  0  0  0
   58.6510   32.2520   50.7550 C   0  0  0  0  0  0  0  0  0  0  0  0
   58.4980   32.2000   49.3560 C   0  0  0  0  0  0  0  0  0  0  0  0
   59.4450   32.7940   48.5170 C   0  0  0  0  0  0  0  0  0  0  0  0
   60.5500   33.4510   49.0620 C   0  0  0  0  0  0  0  0  0  0  0  0
   60.7120   33.5130   50.4480 C   0  0  0  0  0  0  0  0  0  0  0  0
   61.7870   34.1510   50.9750 F   0  0  0  0  0  0  0  0  0  0  0  0
   59.7690   32.9170   51.2920 C   0  0  0  0  0  0  0  0  0  0  0  0
   56.8665   28.3662   52.3807 H   0  0  0  0  0  0  0  0  0  0  0  0
   56.9948   29.7491   53.5286 H   0  0  0  0  0  0  0  0  0  0  0  0
   54.7522   29.0170   51.6252 H   0  0  0  0  0  0  0  0  0  0  0  0
   54.7014   29.5166   53.3762 H   0  0  0  0  0  0  0  0  0  0  0  0
   54.9850   31.7250   52.8190 H   0  0  0  0  0  0  0  0  0  0  0  0
   55.5210   31.3760   51.2580 H   0  0  0  0  0  0  0  0  0  0  0  0
   53.7657   29.6587   49.9538 H   0  0  0  0  0  0  0  0  0  0  0  0
   57.6271   31.6883   48.9205 H   0  0  0  0  0  0  0  0  0  0  0  0
   59.3196   32.7438   47.4253 H   0  0  0  0  0  0  0  0  0  0  0  0
   61.2929   33.9197   48.3999 H   0  0  0  0  0  0  0  0  0  0  0  0
   59.9022   32.9685   52.3827 H   0  0  0  0  0  0  0  0  0  0  0  0
  1  2  2  0
  2  3  1  0
  3  4  1  0
  4  5  1  0
  5  6  1  0
  6  7  1  0
  7  8  2  0
  8  9  1  0
  9 10  2  0
  9 11  1  0
 11 12  1  0
 12 13  2  0
 12 14  1  0
  2 15  1  0
 15 16  2  0
 16 17  1  0
 17 18  2  0
 18 19  1  0
 19 20  1  0
 19 21  2  0
 14  7  1  0
 21 15  1  0
  4 22  1  0
  4 23  1  0
  5 24  1  0
  5 25  1  0
  6 26  1  0
  6 27  1  0
  8 28  1  0
 16 29  1  0
 17 30  1  0
 18 31  1  0
 21 32  1  0
M  CHG  4   3  -1   6   1  11  -1  14  -1
M  END
>  <UniqueID>  (6) 
6

>  <SMILES>  (6) 
O=C([N-]CC[NH2+]c1cc(=O)[n-]c(=O)[n-]1)c1cccc(F)c1

>  <Energy>  (6) 
30.19555025532606

>  <Genealogy>  (6) 
O=C([N-]CC[NH2+]c1cc(=O)[n-]c(=O)[n-]1)c1cccc(F)c1 (protonated)
O=C([N-]CC[NH2+]c1cc(=O)[n-]c(=O)[n-]1)c1cccc(F)c1 (3D coordinates assigned)
O=C([N-]CC[NH2+]c1cc(=O)[n-]c(=O)[n-]1)c1cccc(F)c1 (optimized conformer: 30.19555025532606 kcal/mol)

>  <smiles>  (6) 
O=C(NCCNc1cc(=O)[nH]c(=O)[nH]1)c1cccc(F)c1

>  <score_type>  (6) 
oracle

>  <origin>  (6) 
adg

>  <m_score__min__energy>  (6) 
-11.49

>  <m_primary>  (6) 
energy

$$$$
6:0
     RDKit          3D

 41 44  0  0  0  0  0  0  0  0999 V2000
   59.3840   30.0610   51.3510 H   0  0  0  0  0  0  0  0  0  0  0  0
   59.4310   29.4450   50.5480 O   0  0  0  0  0  0  0  0  0  0  0  0
   59.0920   29.8860   49.2690 C   0  0  0  0  0  0  0  0  0  0  0  0
   58.8630   28.9600   48.2400 C   0  0  0  0  0  0  0  0  0  0  0  0
   58.9563   27.8825   48.4407 H   0  0  0  0  0  0  0  0  0  0  0  0
   58.5170   29.4030   46.9620 C   0  0  0  0  0  0  0  0  0  0  0  0
   58.3466   28.6748   46.1553 H   0  0  0  0  0  0  0  0  0  0  0  0
   58.3870   30.7700   46.7070 C   0  0  0  0  0  0  0  0  0  0  0  0
   58.1062   31.1167   45.7015 H   0  0  0  0  0  0  0  0  0  0  0  0
   58.6130   31.6980   47.7270 C   0  0  0  0  0  0  0  0  0  0  0  0
   58.4996   32.7731   47.5237 H   0  0  0  0  0  0  0  0  0  0  0  0
   58.9850   31.2640   49.0130 C   0  0  0  0  0  0  0  0  0  0  0  0
   59.2000   32.1880   50.0920 N   0  0  0  0  0  0  0  0  0  0  0  0
   58.4550   32.2580   51.3120 C   0  0  0  0  0  0  0  0  0  0  0  0
   57.8360   33.3100   51.6260 O   0  0  0  0  0  0  0  0  0  0  0  0
   58.5090   31.1510   52.2190 N   0  0  0  0  0  0  0  0  0  0  0  0
   57.4100   30.3160   52.6110 C   0  0  0  0  0  0  0  0  0  0  0  0
   57.6910   29.0340   53.1350 C   0  0  0  0  0  0  0  0  0  0  0  0
   58.7360   28.7074   53.2410 H   0  0  0  0  0  0  0  0  0  0  0  0
   56.6520   28.1720   53.5220 C   0  0  0  0  0  0  0  0  0  0  0  0
   56.8676   27.1783   53.9416 H   0  0  0  0  0  0  0  0  0  0  0  0
   55.3410   28.6120   53.3590 C   0  0  0  0  0  0  0  0  0  0  0  0
   55.0490   29.8400   52.8230 C   0  0  0  0  0  0  0  0  0  0  0  0
   56.0660   30.7220   52.4370 C   0  0  0  0  0  0  0  0  0  0  0  0
   55.8257   31.7064   52.0090 H   0  0  0  0  0  0  0  0  0  0  0  0
   53.6640   29.9640   52.8000 C   0  0  0  0  0  0  0  0  0  0  0  0
   52.9970   31.0590   52.3840 C   0  0  0  0  0  0  0  0  0  0  0  0
   52.9918   31.9313   53.0541 H   0  0  0  0  0  0  0  0  0  0  0  0
   52.2760   31.1840   51.1090 C   0  0  0  0  0  0  0  0  0  0  0  0
   52.2510   30.0270   49.8780 S   0  0  0  0  0  0  0  0  0  0  0  0
   51.0700   30.8530   49.0140 C   0  0  0  0  0  0  0  0  0  0  0  0
   50.6050   30.4730   47.9080 O   0  0  0  0  0  0  0  0  0  0  0  0
   50.6540   31.9730   49.6410 N   0  0  0  0  0  0  0  0  0  0  0  0
   51.3140   32.1450   50.8160 C   0  0  0  0  0  0  0  0  0  0  0  0
   51.0320   33.2120   51.6610 O   0  0  0  0  0  0  0  0  0  0  0  0
   53.1860   28.7310   53.2980 C   0  0  0  0  0  0  0  0  0  0  0  0
   51.9260   28.2850   53.3120 C   0  0  0  0  0  0  0  0  0  0  0  0
   51.1033   28.9516   53.0142 H   0  0  0  0  0  0  0  0  0  0  0  0
   51.7118   27.2513   53.6213 H   0  0  0  0  0  0  0  0  0  0  0  0
   54.2210   27.9350   53.6590 N   0  0  0  0  0  0  0  0  0  0  0  0
   54.1690   26.9630   54.0390 H   0  0  0  0  0  0  0  0  0  0  0  0
  1  2  1  0
  2  3  1  0
  3  4  2  0
  4  5  1  0
  4  6  1  0
  6  7  1  0
  6  8  2  0
  8  9  1  0
  8 10  1  0
 10 11  1  0
 10 12  2  0
 12 13  1  0
 13 14  1  0
 14 15  2  0
 14 16  1  0
 16 17  1  0
 17 18  2  0
 18 19  1  0
 18 20  1  0
 20 21  1  0
 20 22  2  0
 22 23  1  0
 23 24  2  0
 24 25  1  0
 23 26  1  0
 26 27  2  0
 27 28  1  0
 27 29  1  0
 29 30  1  0
 30 31  1  0
 31 32  2  0
 31 33  1  0
 33 34  1  0
 34 35  1  0
 26 36  1  0
 36 37  2  0
 37 38  1  0
 37 39  1  0
 36 40  1  0
 40 41  1  0
 12  3  1  0
 24 17  1  0
 34 29  2  0
 40 22  1  0
M  CHG  4  13  -1  16  -1  33  -1  35  -1
M  END
>  <UniqueID>  (7) 
7

>  <SMILES>  (7) 
C=c1[nH]c2ccc([N-]C(=O)[N-]c3ccccc3O)cc2/c1=C/c1sc(=O)[n-]c1[O-]

>  <Energy>  (7) 
130.15221459680757

>  <Genealogy>  (7) 
C=c1[nH]c2ccc([N-]C(=O)[N-]c3ccccc3O)cc2c1=Cc1sc(=O)[n-]c1[O-] (protonated)
C=c1[nH]c2ccc([N-]C(=O)[N-]c3ccccc3O)cc2/c1=C/c1sc(=O)[n-]c1[O-] (cis-trans isomerization)
C=c1[nH]c2ccc([N-]C(=O)[N-]c3ccccc3O)cc2/c1=C/c1sc(=O)[n-]c1[O-] (3D coordinates assigned)
C=c1[nH]c2ccc([N-]C(=O)[N-]c3ccccc3O)cc2/c1=C/c1sc(=O)[n-]c1[O-] (optimized conformer: 130.15221459680757 kcal/mol)

>  <smiles>  (7) 
C=c1[nH]c2ccc(NC(=O)Nc3ccccc3O)cc2c1=Cc1sc(=O)[nH]c1O

>  <score_type>  (7) 
oracle

>  <origin>  (7) 
adg

>  <m_score__min__energy>  (7) 
-16.960000000000001

>  <m_primary>  (7) 
energy

$$$$
7:0
     RDKit          3D

 27 28  0  0  0  0  0  0  0  0999 V2000
   57.4920   27.1380   46.6000 C   0  0  0  0  0  0  0  0  0  0  0  0
   56.9910   27.6540   45.2570 C   0  0  0  0  0  0  0  0  0  0  0  0
   57.4640   29.0190   45.0300 N   0  0  0  0  0  0  0  0  0  0  0  0
   56.6760   30.0780   45.0320 N   0  0  0  0  0  0  0  0  0  0  0  0
   57.4920   31.1380   44.8590 C   0  0  0  0  0  0  0  0  0  0  0  0
   57.0150   32.5540   44.8650 C   0  0  0  0  0  0  0  0  0  0  0  0
   57.9660   33.4120   45.6520 C   0  0  0  0  0  0  0  0  0  0  0  0
   58.7230   34.4060   45.0080 C   0  0  0  0  0  0  0  0  0  0  0  0
   59.6340   35.1780   45.7360 C   0  0  0  0  0  0  0  0  0  0  0  0
   59.8040   34.9570   47.1050 C   0  0  0  0  0  0  0  0  0  0  0  0
   59.0660   33.9610   47.7490 C   0  0  0  0  0  0  0  0  0  0  0  0
   58.1530   33.1860   47.0260 C   0  0  0  0  0  0  0  0  0  0  0  0
   58.7970   30.7910   44.7780 N   0  0  0  0  0  0  0  0  0  0  0  0
   58.7320   29.4510   44.8870 C   0  0  0  0  0  0  0  0  0  0  0  0
   60.0570   28.4870   44.8800 S   0  0  0  0  0  0  0  0  0  0  0  0
   56.9757   27.6697   47.4128 H   0  0  0  0  0  0  0  0  0  0  0  0
   57.2866   26.0602   46.6784 H   0  0  0  0  0  0  0  0  0  0  0  0
   58.5754   27.3115   46.6784 H   0  0  0  0  0  0  0  0  0  0  0  0
   57.3662   27.0017   44.4547 H   0  0  0  0  0  0  0  0  0  0  0  0
   55.8910   27.6521   45.2604 H   0  0  0  0  0  0  0  0  0  0  0  0
   56.9602   32.9246   43.8308 H   0  0  0  0  0  0  0  0  0  0  0  0
   56.0189   32.5982   45.3296 H   0  0  0  0  0  0  0  0  0  0  0  0
   58.5985   34.5771   43.9285 H   0  0  0  0  0  0  0  0  0  0  0  0
   60.2179   35.9608   45.2297 H   0  0  0  0  0  0  0  0  0  0  0  0
   60.5192   35.5674   47.6759 H   0  0  0  0  0  0  0  0  0  0  0  0
   59.2030   33.7858   48.8263 H   0  0  0  0  0  0  0  0  0  0  0  0
   57.5797   32.3971   47.5349 H   0  0  0  0  0  0  0  0  0  0  0  0
  1  2  1  0
  2  3  1  0
  3  4  1  0
  4  5  2  0
  5  6  1  0
  6  7  1  0
  7  8  2  0
  8  9  1  0
  9 10  2  0
 10 11  1  0
 11 12  2  0
  5 13  1  0
 13 14  1  0
 14 15  2  0
 14  3  1  0
 12  7  1  0
  1 16  1  0
  1 17  1  0
  1 18  1  0
  2 19  1  0
  2 20  1  0
  6 21  1  0
  6 22  1  0
  8 23  1  0
  9 24  1  0
 10 25  1  0
 11 26  1  0
 12 27  1  0
M  CHG  1  13  -1
M  END
>  <UniqueID>  (8) 
8

>  <SMILES>  (8) 
CCn1nc(Cc2ccccc2)[n-]c1=S

>  <Energy>  (8) 
55.54022210661956

>  <Genealogy>  (8) 
CCn1nc(Cc2ccccc2)[n-]c1=S (protonated)
CCn1nc(Cc2ccccc2)[n-]c1=S (3D coordinates assigned)
CCn1nc(Cc2ccccc2)[n-]c1=S (optimized conformer: 55.54022210661956 kcal/mol)

>  <smiles>  (8) 
CCn1nc(Cc2ccccc2)[nH]c1=S

>  <score_type>  (8) 
oracle

>  <origin>  (8) 
adg

>  <m_score__min__energy>  (8) 
-7.2000000000000002

>  <m_primary>  (8) 
energy

$$$$
8:0
     RDKit          3D

 43 44  0  0  0  0  0  0  0  0999 V2000
   59.6170   28.9210   47.9460 C   0  0  0  0  0  0  0  0  0  0  0  0
   60.2120   28.3220   46.6740 C   0  0  0  0  0  0  0  0  0  0  0  0
   60.2480   29.3540   45.5420 C   0  0  0  0  0  0  0  0  0  0  0  0
   58.8820   29.9320   45.3120 C   0  0  0  0  0  0  0  0  0  0  0  0
   57.7700   29.0980   45.1430 C   0  0  0  0  0  0  0  0  0  0  0  0
   56.5280   29.6880   44.9000 C   0  0  0  0  0  0  0  0  0  0  0  0
   55.5050   28.9700   44.7510 O   0  0  0  0  0  0  0  0  0  0  0  0
   56.4220   31.0400   44.8220 N   0  0  0  0  0  0  0  0  0  0  0  0
   57.5140   31.8340   44.9790 C   0  0  0  0  0  0  0  0  0  0  0  0
   57.3490   33.6120   44.8630 S   0  0  0  0  0  0  0  0  0  0  0  0
   59.1020   33.9140   45.2530 C   0  0  0  0  0  0  0  0  0  0  0  0
   59.2650   34.0500   46.7320 C   0  0  0  0  0  0  0  0  0  0  0  0
   59.7120   35.1270   47.2130 O   0  0  0  0  0  0  0  0  0  0  0  0
   58.8830   32.9710   47.5970 N   0  0  0  0  0  0  0  0  0  0  0  0
   59.0600   33.0250   49.0480 C   0  0  0  0  0  0  0  0  0  0  0  0
   60.1960   32.1000   49.5010 C   0  0  0  0  0  0  0  0  0  0  0  0
   61.4610   32.3560   48.7200 C   0  0  0  0  0  0  0  0  0  0  0  0
   61.9810   31.3520   47.8850 C   0  0  0  0  0  0  0  0  0  0  0  0
   63.1360   31.5870   47.1320 C   0  0  0  0  0  0  0  0  0  0  0  0
   63.7750   32.8260   47.2000 C   0  0  0  0  0  0  0  0  0  0  0  0
   63.2600   33.8350   48.0180 C   0  0  0  0  0  0  0  0  0  0  0  0
   62.1060   33.6070   48.7770 C   0  0  0  0  0  0  0  0  0  0  0  0
   61.6200   34.6050   49.5560 F   0  0  0  0  0  0  0  0  0  0  0  0
   58.7310   31.2810   45.2160 N   0  0  0  0  0  0  0  0  0  0  0  0
   60.0830   28.4518   48.8250 H   0  0  0  0  0  0  0  0  0  0  0  0
   59.8068   30.0043   47.9647 H   0  0  0  0  0  0  0  0  0  0  0  0
   58.5324   28.7384   47.9647 H   0  0  0  0  0  0  0  0  0  0  0  0
   61.2371   27.9819   46.8826 H   0  0  0  0  0  0  0  0  0  0  0  0
   59.5813   27.4783   46.3573 H   0  0  0  0  0  0  0  0  0  0  0  0
   60.9424   30.1632   45.8122 H   0  0  0  0  0  0  0  0  0  0  0  0
   60.5835   28.8577   44.6195 H   0  0  0  0  0  0  0  0  0  0  0  0
   57.8724   28.0043   45.2003 H   0  0  0  0  0  0  0  0  0  0  0  0
   59.7088   33.0701   44.8930 H   0  0  0  0  0  0  0  0  0  0  0  0
   59.4339   34.8397   44.7601 H   0  0  0  0  0  0  0  0  0  0  0  0
   58.4230   32.1300   47.1840 H   0  0  0  0  0  0  0  0  0  0  0  0
   59.2986   34.0576   49.3425 H   0  0  0  0  0  0  0  0  0  0  0  0
   58.1270   32.6920   49.5261 H   0  0  0  0  0  0  0  0  0  0  0  0
   60.3939   32.2733   50.5691 H   0  0  0  0  0  0  0  0  0  0  0  0
   59.8856   31.0596   49.3245 H   0  0  0  0  0  0  0  0  0  0  0  0
   61.4769   30.3763   47.8234 H   0  0  0  0  0  0  0  0  0  0  0  0
   63.5412   30.7946   46.4856 H   0  0  0  0  0  0  0  0  0  0  0  0
   64.6848   33.0083   46.6092 H   0  0  0  0  0  0  0  0  0  0  0  0
   63.7632   34.8120   48.0657 H   0  0  0  0  0  0  0  0  0  0  0  0
  1  2  1  0
  2  3  1  0
  3  4  1  0
  4  5  2  0
  5  6  1  0
  6  7  2  0
  6  8  1  0
  8  9  1  0
  9 10  1  0
 10 11  1  0
 11 12  1  0
 12 13  2  0
 12 14  1  0
 14 15  1  0
 15 16  1  0
 16 17  1  0
 17 18  2  0
 18 19  1  0
 19 20  2  0
 20 21  1  0
 21 22  2  0
 22 23  1  0
  9 24  2  0
 24  4  1  0
 22 17  1  0
  1 25  1  0
  1 26  1  0
  1 27  1  0
  2 28  1  0
  2 29  1  0
  3 30  1  0
  3 31  1  0
  5 32  1  0
 11 33  1  0
 11 34  1  0
 14 35  1  0
 15 36  1  0
 15 37  1  0
 16 38  1  0
 16 39  1  0
 18 40  1  0
 19 41  1  0
 20 42  1  0
 21 43  1  0
M  CHG  1   8  -1
M  END
>  <UniqueID>  (9) 
9

>  <SMILES>  (9) 
CCCc1cc(=O)[n-]c(SCC(=O)NCCc2ccccc2F)n1

>  <Energy>  (9) 
27.885035768456362

>  <Genealogy>  (9) 
CCCc1cc(=O)[n-]c(SCC(=O)NCCc2ccccc2F)n1 (protonated)
CCCc1cc(=O)[n-]c(SCC(=O)NCCc2ccccc2F)n1 (3D coordinates assigned)
CCCc1cc(=O)[n-]c(SCC(=O)NCCc2ccccc2F)n1 (optimized conformer: 27.885035768456362 kcal/mol)

>  <smiles>  (9) 
CCCc1cc(=O)[nH]c(SCC(=O)NCCc2ccccc2F)n1

>  <score_type>  (9) 
oracle

>  <origin>  (9) 
adg

>  <m_score__min__energy>  (9) 
-9.1199999999999992

>  <m_primary>  (9) 
energy

$$$$
9:0
     RDKit          3D

 43 45  0  0  0  0  0  0  0  0999 V2000
   58.6060   34.8960   47.2540 O   0  0  0  0  0  0  0  0  0  0  0  0
   59.2810   34.0930   46.5560 C   0  0  0  0  0  0  0  0  0  0  0  0
   60.6780   34.3650   46.3550 N   0  0  0  0  0  0  0  0  0  0  0  0
   61.6650   33.8640   47.0420 C   0  0  0  0  0  0  0  0  0  0  0  0
   62.7330   33.2860   46.4210 N   0  0  0  0  0  0  0  0  0  0  0  0
   63.7690   32.7470   47.1160 C   0  0  0  0  0  0  0  0  0  0  0  0
   63.7580   32.7660   48.5110 C   0  0  0  0  0  0  0  0  0  0  0  0
   62.6730   33.3370   49.1760 C   0  0  0  0  0  0  0  0  0  0  0  0
   61.6140   33.8890   48.4450 C   0  0  0  0  0  0  0  0  0  0  0  0
   60.5230   34.4580   49.1000 O   0  0  0  0  0  0  0  0  0  0  0  0
   58.6020   32.9360   45.9250 C   0  0  0  0  0  0  0  0  0  0  0  0
   57.7940   33.1240   44.7910 C   0  0  0  0  0  0  0  0  0  0  0  0
   57.1390   32.0390   44.2010 C   0  0  0  0  0  0  0  0  0  0  0  0
   57.2950   30.7500   44.7270 C   0  0  0  0  0  0  0  0  0  0  0  0
   56.4210   29.4030   44.0060 S   0  0  0  0  0  0  0  0  0  0  0  0
   55.2130   29.9310   43.2840 O   0  0  0  0  0  0  0  0  0  0  0  0
   57.2940   28.6820   43.0160 O   0  0  0  0  0  0  0  0  0  0  0  0
   55.9090   28.2980   45.2480 N   0  0  0  0  0  0  0  0  0  0  0  0
   57.0110   27.4310   45.6760 C   0  0  0  0  0  0  0  0  0  0  0  0
   56.4550   26.1840   46.3780 C   0  0  2  0  0  0  0  0  0  0  0  0
   57.2280   24.9300   45.9870 C   0  0  0  0  0  0  0  0  0  0  0  0
   56.3760   24.3250   44.9180 C   0  0  0  0  0  0  0  0  0  0  0  0
   54.9910   24.8340   45.2590 C   0  0  0  0  0  0  0  0  0  0  0  0
   55.0980   26.0100   46.0290 O   0  0  0  0  0  0  0  0  0  0  0  0
   58.1190   30.5540   45.8430 C   0  0  0  0  0  0  0  0  0  0  0  0
   58.7740   31.6380   46.4330 C   0  0  0  0  0  0  0  0  0  0  0  0
   64.6162   32.2958   46.5787 H   0  0  0  0  0  0  0  0  0  0  0  0
   64.5954   32.3356   49.0799 H   0  0  0  0  0  0  0  0  0  0  0  0
   62.6493   33.3537   50.2756 H   0  0  0  0  0  0  0  0  0  0  0  0
   59.8120   34.9760   48.5940 H   0  0  0  0  0  0  0  0  0  0  0  0
   57.6761   34.1312   44.3648 H   0  0  0  0  0  0  0  0  0  0  0  0
   56.4989   32.1980   43.3207 H   0  0  0  0  0  0  0  0  0  0  0  0
   57.5956   27.1237   44.7964 H   0  0  0  0  0  0  0  0  0  0  0  0
   57.6542   27.9835   46.3767 H   0  0  0  0  0  0  0  0  0  0  0  0
   56.5586   26.3350   47.4627 H   0  0  0  0  0  0  0  0  0  0  0  0
   58.2252   25.1858   45.5995 H   0  0  0  0  0  0  0  0  0  0  0  0
   57.4061   24.2507   46.8337 H   0  0  0  0  0  0  0  0  0  0  0  0
   56.6892   24.6683   43.9210 H   0  0  0  0  0  0  0  0  0  0  0  0
   56.4384   23.2273   44.8827 H   0  0  0  0  0  0  0  0  0  0  0  0
   54.4420   25.0522   44.3311 H   0  0  0  0  0  0  0  0  0  0  0  0
   54.4504   24.0677   45.8339 H   0  0  0  0  0  0  0  0  0  0  0  0
   58.2508   29.5431   46.2562 H   0  0  0  0  0  0  0  0  0  0  0  0
   59.4289   31.4737   47.3014 H   0  0  0  0  0  0  0  0  0  0  0  0
  1  2  2  0
  2  3  1  0
  3  4  2  3
  4  5  1  0
  5  6  1  0
  6  7  2  0
  7  8  1  0
  8  9  2  0
  9 10  1  0
  2 11  1  0
 11 12  2  0
 12 13  1  0
 13 14  2  0
 14 15  1  0
 15 16  2  0
 15 17  2  0
 15 18  1  0
 18 19  1  0
 19 20  1  0
 20 21  1  0
 21 22  1  0
 22 23  1  0
 23 24  1  0
 14 25  1  0
 25 26  2  0
  9  4  1  0
 26 11  1  0
 24 20  1  0
  6 27  1  0
  7 28  1  0
  8 29  1  0
 10 30  1  0
 12 31  1  0
 13 32  1  0
 19 33  1  0
 19 34  1  0
 20 35  1  1
 21 36  1  0
 21 37  1  0
 22 38  1  0
 22 39  1  0
 23 40  1  0
 23 41  1  0
 25 42  1  0
 26 43  1  0
M  CHG  2   5  -1  18  -1
M  END
>  <UniqueID>  (10) 
10

>  <SMILES>  (10) 
O=C(N=c1[n-]cccc1O)c1ccc(S(=O)(=O)[N-]C[C@@H]2CCCO2)cc1

>  <Energy>  (10) 
51.06670880148199

>  <Genealogy>  (10) 
O=C(N=c1[n-]cccc1O)c1ccc(S(=O)(=O)[N-]CC2CCCO2)cc1 (protonated)
O=C(N=c1[n-]cccc1O)c1ccc(S(=O)(=O)[N-]C[C@@H]2CCCO2)cc1 (chirality)
O=C(N=c1[n-]cccc1O)c1ccc(S(=O)(=O)[N-]C[C@@H]2CCCO2)cc1 (3D coordinates assigned)
O=C(N=c1[n-]cccc1O)c1ccc(S(=O)(=O)[N-]C[C@@H]2CCCO2)cc1 (nonaromatic ring conformer: 51.06670880148199 kcal/mol)

>  <smiles>  (10) 
O=C(N=c1[nH]cccc1O)c1ccc(S(=O)(=O)NCC2CCCO2)cc1

>  <score_type>  (10) 
oracle

>  <origin>  (10) 
adg

>  <m_score__min__energy>  (10) 
-11.449999999999999

>  <m_primary>  (10) 
energy

$$$$
10:0
     RDKit          3D

 30 31  0  0  0  0  0  0  0  0999 V2000
   55.1340   26.6380   46.1080 N   0  0  0  0  0  0  0  0  0  0  0  0
   56.8510   26.5960   45.9190 S   0  0  0  0  0  0  0  0  0  0  0  0
   57.2090   25.7200   44.7520 O   0  0  0  0  0  0  0  0  0  0  0  0
   57.4650   26.0220   47.1660 O   0  0  0  0  0  0  0  0  0  0  0  0
   57.4520   28.2300   45.6310 C   0  0  0  0  0  0  0  0  0  0  0  0
   58.7920   28.5490   45.9000 C   0  0  0  0  0  0  0  0  0  0  0  0
   59.2770   29.8440   45.6800 C   0  0  0  0  0  0  0  0  0  0  0  0
   60.6520   30.1200   45.9780 N   0  0  0  0  0  0  0  0  0  0  0  0
   61.2130   31.1260   47.2740 S   0  0  0  0  0  0  0  0  0  0  0  0
   60.8660   30.4780   48.5840 O   0  0  0  0  0  0  0  0  0  0  0  0
   62.7060   31.2660   47.1760 O   0  0  0  0  0  0  0  0  0  0  0  0
   60.4340   32.7040   47.1960 C   0  0  0  0  0  0  0  0  0  0  0  0
   59.9490   33.3130   48.3630 C   0  0  0  0  0  0  0  0  0  0  0  0
   59.3390   34.5700   48.2970 C   0  0  0  0  0  0  0  0  0  0  0  0
   59.2090   35.2210   47.0660 C   0  0  0  0  0  0  0  0  0  0  0  0
   59.6870   34.6150   45.9010 C   0  0  0  0  0  0  0  0  0  0  0  0
   60.2970   33.3580   45.9640 C   0  0  0  0  0  0  0  0  0  0  0  0
   58.4070   30.8290   45.1810 C   0  0  0  0  0  0  0  0  0  0  0  0
   57.0730   30.5170   44.9130 C   0  0  0  0  0  0  0  0  0  0  0  0
   56.5920   29.2240   45.1360 C   0  0  0  0  0  0  0  0  0  0  0  0
   55.2590   28.9350   44.8640 O   0  0  0  0  0  0  0  0  0  0  0  0
   54.7240   26.7230   45.1510 H   0  0  0  0  0  0  0  0  0  0  0  0
   59.4686   27.7733   46.2879 H   0  0  0  0  0  0  0  0  0  0  0  0
   60.0486   32.8012   49.3316 H   0  0  0  0  0  0  0  0  0  0  0  0
   58.9614   35.0467   49.2136 H   0  0  0  0  0  0  0  0  0  0  0  0
   58.7305   36.2101   47.0148 H   0  0  0  0  0  0  0  0  0  0  0  0
   59.5833   35.1273   44.9331 H   0  0  0  0  0  0  0  0  0  0  0  0
   60.6698   32.8819   45.0451 H   0  0  0  0  0  0  0  0  0  0  0  0
   58.7785   31.8486   45.0012 H   0  0  0  0  0  0  0  0  0  0  0  0
   56.3970   31.2929   44.5243 H   0  0  0  0  0  0  0  0  0  0  0  0
  1  2  1  0
  2  3  2  0
  2  4  2  0
  2  5  1  0
  5  6  2  0
  6  7  1  0
  7  8  1  0
  8  9  1  0
  9 10  2  0
  9 11  2  0
  9 12  1  0
 12 13  2  0
 13 14  1  0
 14 15  2  0
 15 16  1  0
 16 17  2  0
  7 18  2  0
 18 19  1  0
 19 20  2  0
 20 21  1  0
 20  5  1  0
 17 12  1  0
  1 22  1  0
  6 23  1  0
 13 24  1  0
 14 25  1  0
 15 26  1  0
 16 27  1  0
 17 28  1  0
 18 29  1  0
 19 30  1  0
M  CHG  3   1  -1   8  -1  21  -1
M  END
>  <UniqueID>  (11) 
11

>  <SMILES>  (11) 
[NH-]S(=O)(=O)c1cc([N-]S(=O)(=O)c2ccccc2)ccc1[O-]

>  <Energy>  (11) 
34.33257339043245

>  <Genealogy>  (11) 
[NH-]S(=O)(=O)c1cc([N-]S(=O)(=O)c2ccccc2)ccc1[O-] (protonated)
[NH-]S(=O)(=O)c1cc([N-]S(=O)(=O)c2ccccc2)ccc1[O-] (3D coordinates assigned)
[NH-]S(=O)(=O)c1cc([N-]S(=O)(=O)c2ccccc2)ccc1[O-] (optimized conformer: 34.33257339043245 kcal/mol)

>  <smiles>  (11) 
NS(=O)(=O)c1cc(NS(=O)(=O)c2ccccc2)ccc1O

>  <score_type>  (11) 
oracle

>  <origin>  (11) 
adg

>  <m_score__min__energy>  (11) 
-14.300000000000001

>  <m_primary>  (11) 
energy

$$$$
11:0
     RDKit          3D

 45 47  0  0  0  0  0  0  0  0999 V2000
   59.2710   34.6960   45.7960 C   0  0  0  0  0  0  0  0  0  0  0  0
   57.8480   34.2160   46.0650 C   0  0  0  0  0  0  0  0  0  0  0  0
   57.8470   32.8610   46.5130 O   0  0  0  0  0  0  0  0  0  0  0  0
   57.8350   31.7250   45.6870 C   0  0  0  0  0  0  0  0  0  0  0  0
   57.8290   31.8060   44.2820 C   0  0  0  0  0  0  0  0  0  0  0  0
   57.8140   30.6430   43.5090 C   0  0  0  0  0  0  0  0  0  0  0  0
   57.8030   29.3800   44.1220 C   0  0  0  0  0  0  0  0  0  0  0  0
   57.7860   28.2500   43.3620 N   0  0  0  0  0  0  0  0  0  0  0  0
   57.7760   27.0010   43.9150 C   0  0  0  0  0  0  0  0  0  0  0  0
   57.7430   25.8050   42.9980 C   0  0  0  0  0  0  0  0  0  0  0  0
   57.7760   26.8530   45.3260 C   0  0  0  0  0  0  0  0  0  0  0  0
   57.7310   25.4790   45.9790 C   0  0  0  0  0  0  0  0  0  0  0  0
   56.4150   24.7780   45.7180 C   0  0  0  0  0  0  0  0  0  0  0  0
   56.4060   23.4070   45.4160 C   0  0  0  0  0  0  0  0  0  0  0  0
   55.2040   22.7420   45.1600 C   0  0  0  0  0  0  0  0  0  0  0  0
   53.9850   23.4430   45.1900 C   0  0  0  0  0  0  0  0  0  0  0  0
   52.7530   22.8210   44.9420 O   0  0  0  0  0  0  0  0  0  0  0  0
   51.5070   23.5050   44.8630 C   0  0  0  0  0  0  0  0  0  0  0  0
   53.9940   24.8120   45.4730 C   0  0  0  0  0  0  0  0  0  0  0  0
   55.1940   25.4830   45.7290 C   0  0  0  0  0  0  0  0  0  0  0  0
   55.1590   26.8480   45.9940 O   0  0  0  0  0  0  0  0  0  0  0  0
   57.7880   28.0150   46.1270 C   0  0  0  0  0  0  0  0  0  0  0  0
   57.7830   27.9150   47.3860 O   0  0  0  0  0  0  0  0  0  0  0  0
   57.8040   29.2870   45.5280 C   0  0  0  0  0  0  0  0  0  0  0  0
   57.8190   30.4660   46.2990 C   0  0  0  0  0  0  0  0  0  0  0  0
   59.7862   34.8698   46.7522 H   0  0  0  0  0  0  0  0  0  0  0  0
   59.8134   33.9311   45.2209 H   0  0  0  0  0  0  0  0  0  0  0  0
   59.2393   35.6332   45.2209 H   0  0  0  0  0  0  0  0  0  0  0  0
   57.3929   34.8520   46.8385 H   0  0  0  0  0  0  0  0  0  0  0  0
   57.2717   34.2790   45.1301 H   0  0  0  0  0  0  0  0  0  0  0  0
   57.8362   32.7900   43.7904 H   0  0  0  0  0  0  0  0  0  0  0  0
   57.8108   30.7171   42.4115 H   0  0  0  0  0  0  0  0  0  0  0  0
   57.7800   28.3440   42.3200 H   0  0  0  0  0  0  0  0  0  0  0  0
   57.7176   24.8835   43.5981 H   0  0  0  0  0  0  0  0  0  0  0  0
   56.8459   25.8542   42.3634 H   0  0  0  0  0  0  0  0  0  0  0  0
   58.6415   25.8046   42.3634 H   0  0  0  0  0  0  0  0  0  0  0  0
   58.5486   24.8648   45.5738 H   0  0  0  0  0  0  0  0  0  0  0  0
   57.8391   25.6120   47.0656 H   0  0  0  0  0  0  0  0  0  0  0  0
   57.3544   22.8509   45.3806 H   0  0  0  0  0  0  0  0  0  0  0  0
   55.2112   21.6655   44.9340 H   0  0  0  0  0  0  0  0  0  0  0  0
   51.1356   23.7089   45.8781 H   0  0  0  0  0  0  0  0  0  0  0  0
   51.6435   24.4546   44.3249 H   0  0  0  0  0  0  0  0  0  0  0  0
   50.7791   22.8800   44.3249 H   0  0  0  0  0  0  0  0  0  0  0  0
   53.0453   25.3684   45.4946 H   0  0  0  0  0  0  0  0  0  0  0  0
   57.8181   30.3964   47.3968 H   0  0  0  0  0  0  0  0  0  0  0  0
  1  2  1  0
  2  3  1  0
  3  4  1  0
  4  5  2  0
  5  6  1  0
  6  7  2  0
  7  8  1  0
  8  9  1  0
  9 10  1  0
  9 11  2  0
 11 12  1  0
 12 13  1  0
 13 14  2  0
 14 15  1  0
 15 16  2  0
 16 17  1  0
 17 18  1  0
 16 19  1  0
 19 20  2  0
 20 21  1  0
 11 22  1  0
 22 23  2  0
 22 24  1  0
 24 25  2  0
 25  4  1  0
 24  7  1  0
 20 13  1  0
  1 26  1  0
  1 27  1  0
  1 28  1  0
  2 29  1  0
  2 30  1  0
  5 31  1  0
  6 32  1  0
  8 33  1  0
 10 34  1  0
 10 35  1  0
 10 36  1  0
 12 37  1  0
 12 38  1  0
 14 39  1  0
 15 40  1  0
 18 41  1  0
 18 42  1  0
 18 43  1  0
 19 44  1  0
 25 45  1  0
M  CHG  1  21  -1
M  END
>  <UniqueID>  (12) 
12

>  <SMILES>  (12) 
CCOc1ccc2[nH]c(C)c(Cc3ccc(OC)cc3[O-])c(=O)c2c1

>  <Energy>  (12) 
52.10799009853659

>  <Genealogy>  (12) 
CCOc1ccc2[nH]c(C)c(Cc3ccc(OC)cc3[O-])c(=O)c2c1 (protonated)
CCOc1ccc2[nH]c(C)c(Cc3ccc(OC)cc3[O-])c(=O)c2c1 (3D coordinates assigned)
CCOc1ccc2[nH]c(C)c(Cc3ccc(OC)cc3[O-])c(=O)c2c1 (optimized conformer: 52.10799009853659 kcal/mol)

>  <smiles>  (12) 
CCOc1ccc2[nH]c(C)c(Cc3ccc(OC)cc3O)c(=O)c2c1

>  <score_type>  (12) 
oracle

>  <origin>  (12) 
adg

>  <m_score__min__energy>  (12) 
-11.130000000000001

>  <m_primary>  (12) 
energy

$$$$
12:0
     RDKit          3D

 38 40  0  0  0  0  0  0  0  0999 V2000
   60.0421   26.8453   45.9403 H   0  0  0  0  0  0  0  0  0  0  0  0
   58.9430   26.8290   45.9830 C   0  0  0  0  0  0  0  0  0  0  0  0
   58.2280   27.8490   45.4420 N   0  0  0  0  0  0  0  0  0  0  0  0
   56.8680   27.8880   45.4660 C   0  0  0  0  0  0  0  0  0  0  0  0
   56.2830   28.9220   44.9250 N   0  0  0  0  0  0  0  0  0  0  0  0
   56.8150   29.8830   44.0000 C   0  0  0  0  0  0  0  0  0  0  0  0
   56.6290   29.7300   42.7620 O   0  0  0  0  0  0  0  0  0  0  0  0
   57.4780   31.1100   44.5020 C   0  0  0  0  0  0  0  0  0  0  0  0
   57.3940   32.3140   43.7790 C   0  0  0  0  0  0  0  0  0  0  0  0
   56.8275   32.3460   42.8366 H   0  0  0  0  0  0  0  0  0  0  0  0
   58.0240   33.4690   44.2480 C   0  0  0  0  0  0  0  0  0  0  0  0
   57.9422   34.4062   43.6780 H   0  0  0  0  0  0  0  0  0  0  0  0
   58.7600   33.4410   45.4410 C   0  0  0  0  0  0  0  0  0  0  0  0
   59.4360   34.6850   45.9560 C   0  0  0  0  0  0  0  0  0  0  0  0
   60.3405   34.8765   45.3601 H   0  0  0  0  0  0  0  0  0  0  0  0
   58.7343   35.5278   45.8703 H   0  0  0  0  0  0  0  0  0  0  0  0
   59.8030   34.5340   47.3280 O   0  0  0  0  0  0  0  0  0  0  0  0
   61.0790   34.1700   47.7910 C   0  0  0  0  0  0  0  0  0  0  0  0
   61.4220   34.1690   49.1570 C   0  0  0  0  0  0  0  0  0  0  0  0
   60.6739   34.4570   49.9103 H   0  0  0  0  0  0  0  0  0  0  0  0
   62.7110   33.8030   49.5590 C   0  0  0  0  0  0  0  0  0  0  0  0
   62.9754   33.8086   50.6267 H   0  0  0  0  0  0  0  0  0  0  0  0
   63.6640   33.4300   48.6060 C   0  0  0  0  0  0  0  0  0  0  0  0
   64.9430   33.0660   49.0080 O   0  0  0  0  0  0  0  0  0  0  0  0
   63.3270   33.4240   47.2490 C   0  0  0  0  0  0  0  0  0  0  0  0
   64.0755   33.1301   46.4984 H   0  0  0  0  0  0  0  0  0  0  0  0
   62.0400   33.7910   46.8450 C   0  0  0  0  0  0  0  0  0  0  0  0
   61.7800   33.7821   45.7762 H   0  0  0  0  0  0  0  0  0  0  0  0
   58.8370   32.2450   46.1720 C   0  0  0  0  0  0  0  0  0  0  0  0
   59.3965   32.2178   47.1187 H   0  0  0  0  0  0  0  0  0  0  0  0
   58.2070   31.0890   45.7040 C   0  0  0  0  0  0  0  0  0  0  0  0
   58.2820   30.1552   46.2805 H   0  0  0  0  0  0  0  0  0  0  0  0
   56.1670   26.7930   46.0380 C   0  0  0  0  0  0  0  0  0  0  0  0
   54.7810   26.6910   46.0020 O   0  0  0  0  0  0  0  0  0  0  0  0
   56.8930   25.7460   46.6140 C   0  0  0  0  0  0  0  0  0  0  0  0
   56.3622   24.9063   47.0864 H   0  0  0  0  0  0  0  0  0  0  0  0
   58.2860   25.7620   46.5920 C   0  0  0  0  0  0  0  0  0  0  0  0
   58.8597   24.9426   47.0496 H   0  0  0  0  0  0  0  0  0  0  0  0
  1  2  1  0
  2  3  1  0
  3  4  1  0
  4  5  2  0
  5  6  1  0
  6  7  2  0
  6  8  1  0
  8  9  2  0
  9 10  1  0
  9 11  1  0
 11 12  1  0
 11 13  2  0
 13 14  1  0
 14 15  1  0
 14 16  1  0
 14 17  1  0
 17 18  1  0
 18 19  2  0
 19 20  1  0
 19 21  1  0
 21 22  1  0
 21 23  2  0
 23 24  1  0
 23 25  1  0
 25 26  1  0
 25 27  2  0
 27 28  1  0
 13 29  1  0
 29 30  1  0
 29 31  2  0
 31 32  1  0
  4 33  1  0
 33 34  1  0
 33 35  2  0
 35 36  1  0
 35 37  1  0
 37 38  1  0
 37  2  2  0
 31  8  1  0
 27 18  1  0
M  CHG  3   3  -1  24  -1  34  -1
M  END
>  <UniqueID>  (13) 
13

>  <SMILES>  (13) 
O=C(/N=c1/[n-]cccc1[O-])c1ccc(COc2ccc([O-])cc2)cc1

>  <Energy>  (13) 
54.430988402523774

>  <Genealogy>  (13) 
O=C(N=c1[n-]cccc1[O-])c1ccc(COc2ccc([O-])cc2)cc1 (protonated)
O=C(/N=c1/[n-]cccc1[O-])c1ccc(COc2ccc([O-])cc2)cc1 (cis-trans isomerization)
O=C(/N=c1/[n-]cccc1[O-])c1ccc(COc2ccc([O-])cc2)cc1 (3D coordinates assigned)
O=C(/N=c1/[n-]cccc1[O-])c1ccc(COc2ccc([O-])cc2)cc1 (optimized conformer: 54.430988402523774 kcal/mol)

>  <smiles>  (13) 
O=C(N=c1[nH]cccc1O)c1ccc(COc2ccc(O)cc2)cc1

>  <score_type>  (13) 
oracle

>  <origin>  (13) 
adg

>  <m_score__min__energy>  (13) 
-14.140000000000001

>  <m_primary>  (13) 
energy

$$$$
13:0
     RDKit          3D

 42 45  0  0  0  0  0  0  0  0999 V2000
   60.6255   30.2375   49.5191 H   0  0  0  0  0  0  0  0  0  0  0  0
   60.3730   29.8350   48.5270 C   0  0  0  0  0  0  0  0  0  0  0  0
   59.5380   28.7180   48.4170 C   0  0  0  0  0  0  0  0  0  0  0  0
   59.1294   28.2466   49.3230 H   0  0  0  0  0  0  0  0  0  0  0  0
   59.2220   28.2000   47.1580 C   0  0  0  0  0  0  0  0  0  0  0  0
   58.5563   27.3282   47.0758 H   0  0  0  0  0  0  0  0  0  0  0  0
   59.7510   28.7880   45.9970 C   0  0  0  0  0  0  0  0  0  0  0  0
   59.4160   28.2350   44.6350 C   0  0  0  0  0  0  0  0  0  0  0  0
   59.5151   27.1398   44.6615 H   0  0  0  0  0  0  0  0  0  0  0  0
   60.1109   28.6782   43.9065 H   0  0  0  0  0  0  0  0  0  0  0  0
   58.0530   28.5770   44.2280 N   0  0  0  0  0  0  0  0  0  0  0  0
   57.0000   29.0370   45.0860 C   0  0  0  0  0  0  0  0  0  0  0  0
   55.9840   28.3140   45.2480 O   0  0  0  0  0  0  0  0  0  0  0  0
   57.0200   30.3470   45.6630 N   0  0  0  0  0  0  0  0  0  0  0  0
   57.5300   31.4620   45.2080 C   0  0  0  0  0  0  0  0  0  0  0  0
   57.3980   31.7040   43.8350 C   0  0  0  0  0  0  0  0  0  0  0  0
   58.0850   32.7130   43.2250 C   0  0  0  0  0  0  0  0  0  0  0  0
   58.8910   33.5490   43.9230 N   0  0  0  0  0  0  0  0  0  0  0  0
   59.4190   34.2910   43.4080 H   0  0  0  0  0  0  0  0  0  0  0  0
   58.9860   33.4420   45.2810 C   0  0  0  0  0  0  0  0  0  0  0  0
   59.7720   34.3620   45.9920 C   0  0  0  0  0  0  0  0  0  0  0  0
   60.3546   35.1193   45.4470 H   0  0  0  0  0  0  0  0  0  0  0  0
   59.8190   34.3220   47.3840 C   0  0  0  0  0  0  0  0  0  0  0  0
   60.4548   35.0322   47.9329 H   0  0  0  0  0  0  0  0  0  0  0  0
   59.0620   33.3840   48.0810 C   0  0  0  0  0  0  0  0  0  0  0  0
   59.0801   33.3762   49.1808 H   0  0  0  0  0  0  0  0  0  0  0  0
   58.2800   32.4530   47.3940 C   0  0  0  0  0  0  0  0  0  0  0  0
   57.6629   31.7391   47.9593 H   0  0  0  0  0  0  0  0  0  0  0  0
   58.2720   32.4170   45.9790 C   0  0  0  0  0  0  0  0  0  0  0  0
   57.9210   32.7140   41.7540 C   0  0  0  0  0  0  0  0  0  0  0  0
   57.4492   33.6475   41.4134 H   0  0  0  0  0  0  0  0  0  0  0  0
   58.8804   32.6470   41.2202 H   0  0  0  0  0  0  0  0  0  0  0  0
   57.0060   31.5080   41.4830 C   0  0  0  0  0  0  0  0  0  0  0  0
   56.0812   31.8416   40.9896 H   0  0  0  0  0  0  0  0  0  0  0  0
   57.5051   30.7835   40.8227 H   0  0  0  0  0  0  0  0  0  0  0  0
   56.6740   30.8640   42.8430 C   0  0  0  0  0  0  0  0  0  0  0  0
   55.5903   30.8866   43.0305 H   0  0  0  0  0  0  0  0  0  0  0  0
   56.9725   29.8064   42.8909 H   0  0  0  0  0  0  0  0  0  0  0  0
   60.5710   29.9250   46.1160 C   0  0  0  0  0  0  0  0  0  0  0  0
   60.9662   30.4118   45.2122 H   0  0  0  0  0  0  0  0  0  0  0  0
   60.8860   30.4390   47.3770 C   0  0  0  0  0  0  0  0  0  0  0  0
   61.5387   31.3202   47.4637 H   0  0  0  0  0  0  0  0  0  0  0  0
  1  2  1  0
  2  3  2  0
  3  4  1  0
  3  5  1  0
  5  6  1  0
  5  7  2  0
  7  8  1  0
  8  9  1  0
  8 10  1  0
  8 11  1  0
 11 12  1  0
 12 13  2  0
 12 14  1  0
 14 15  2  0
 15 16  1  0
 16 17  2  0
 17 18  1  0
 18 19  1  0
 18 20  1  0
 20 21  2  0
 21 22  1  0
 21 23  1  0
 23 24  1  0
 23 25  2  0
 25 26  1  0
 25 27  1  0
 27 28  1  0
 27 29  2  0
 17 30  1  0
 30 31  1  0
 30 32  1  0
 30 33  1  0
 33 34  1  0
 33 35  1  0
 33 36  1  0
 36 37  1  0
 36 38  1  0
  7 39  1  0
 39 40  1  0
 39 41  2  0
 41 42  1  0
 41  2  1  0
 29 15  1  0
 36 16  1  0
 29 20  1  0
M  CHG  1  11  -1
M  END
>  <UniqueID>  (14) 
14

>  <SMILES>  (14) 
O=C(/N=c1/c2c([nH]c3ccccc13)CCC2)[N-]Cc1ccccc1

>  <Energy>  (14) 
71.41945586787645

>  <Genealogy>  (14) 
O=C(N=c1c2c([nH]c3ccccc13)CCC2)[N-]Cc1ccccc1 (protonated)
O=C(/N=c1/c2c([nH]c3ccccc13)CCC2)[N-]Cc1ccccc1 (cis-trans isomerization)
O=C(/N=c1/c2c([nH]c3ccccc13)CCC2)[N-]Cc1ccccc1 (3D coordinates assigned)
O=C(/N=c1/c2c([nH]c3ccccc13)CCC2)[N-]Cc1ccccc1 (nonaromatic ring conformer: 71.41945586787645 kcal/mol)

>  <smiles>  (14) 
O=C(N=c1c2c([nH]c3ccccc13)CCC2)NCc1ccccc1

>  <score_type>  (14) 
oracle

>  <origin>  (14) 
adg

>  <m_score__min__energy>  (14) 
-9.8100000000000005

>  <m_primary>  (14) 
energy

$$$$
14:0
     RDKit          3D

 36 38  0  0  0  0  0  0  0  0999 V2000
   55.1570   28.6300   45.6390 H   0  0  0  0  0  0  0  0  0  0  0  0
   55.1400   29.3330   44.8660 N   0  0  0  0  0  0  0  0  0  0  0  0
   56.3160   29.6200   44.1100 C   0  0  0  0  0  0  0  0  0  0  0  0
   56.1880   30.0930   42.9490 O   0  0  0  0  0  0  0  0  0  0  0  0
   57.6640   29.3520   44.6860 C   0  0  0  0  0  0  0  0  0  0  0  0
   58.3140   28.1390   44.3810 C   0  0  0  0  0  0  0  0  0  0  0  0
   57.8183   27.4074   43.7260 H   0  0  0  0  0  0  0  0  0  0  0  0
   59.5780   27.8540   44.8990 C   0  0  0  0  0  0  0  0  0  0  0  0
   60.0760   26.9075   44.6419 H   0  0  0  0  0  0  0  0  0  0  0  0
   60.2110   28.7670   45.7420 C   0  0  0  0  0  0  0  0  0  0  0  0
   61.2043   28.5373   46.1550 H   0  0  0  0  0  0  0  0  0  0  0  0
   59.5850   29.9700   46.0610 C   0  0  0  0  0  0  0  0  0  0  0  0
   60.0747   30.6731   46.7509 H   0  0  0  0  0  0  0  0  0  0  0  0
   58.3350   30.2930   45.5100 C   0  0  0  0  0  0  0  0  0  0  0  0
   57.6880   31.4980   45.9340 N   0  0  0  0  0  0  0  0  0  0  0  0
   58.0990   32.7300   45.8180 C   0  0  0  0  0  0  0  0  0  0  0  0
   57.8690   33.4270   44.6820 N   0  0  0  0  0  0  0  0  0  0  0  0
   58.4340   34.6290   44.8960 C   0  0  0  0  0  0  0  0  0  0  0  0
   58.4397   35.4698   44.1867 H   0  0  0  0  0  0  0  0  0  0  0  0
   59.0010   34.6330   46.1430 C   0  0  0  0  0  0  0  0  0  0  0  0
   59.7030   35.6960   46.7000 O   0  0  0  0  0  0  0  0  0  0  0  0
   58.8020   33.4450   46.7470 N   0  0  0  0  0  0  0  0  0  0  0  0
   59.3770   33.0640   48.0450 C   0  0  0  0  0  0  0  0  0  0  0  0
   58.9321   33.6958   48.8279 H   0  0  0  0  0  0  0  0  0  0  0  0
   59.1542   31.9998   48.2118 H   0  0  0  0  0  0  0  0  0  0  0  0
   60.8760   33.2320   48.0800 C   0  0  0  0  0  0  0  0  0  0  0  0
   61.5020   34.0170   49.0660 C   0  0  0  0  0  0  0  0  0  0  0  0
   60.8930   34.5392   49.8186 H   0  0  0  0  0  0  0  0  0  0  0  0
   62.8950   34.1360   49.0930 C   0  0  0  0  0  0  0  0  0  0  0  0
   63.3770   34.7661   49.8550 H   0  0  0  0  0  0  0  0  0  0  0  0
   63.6760   33.4570   48.1550 C   0  0  0  0  0  0  0  0  0  0  0  0
   64.7710   33.5606   48.1720 H   0  0  0  0  0  0  0  0  0  0  0  0
   63.0650   32.6460   47.1950 C   0  0  0  0  0  0  0  0  0  0  0  0
   63.6806   32.1034   46.4624 H   0  0  0  0  0  0  0  0  0  0  0  0
   61.6730   32.5230   47.1640 C   0  0  0  0  0  0  0  0  0  0  0  0
   61.1984   31.8678   46.4187 H   0  0  0  0  0  0  0  0  0  0  0  0
  1  2  1  0
  2  3  1  0
  3  4  2  0
  3  5  1  0
  5  6  2  0
  6  7  1  0
  6  8  1  0
  8  9  1  0
  8 10  2  0
 10 11  1  0
 10 12  1  0
 12 13  1  0
 12 14  2  0
 14 15  1  0
 15 16  2  0
 16 17  1  0
 17 18  1  0
 18 19  1  0
 18 20  2  0
 20 21  1  0
 20 22  1  0
 22 23  1  0
 23 24  1  0
 23 25  1  0
 23 26  1  0
 26 27  2  0
 27 28  1  0
 27 29  1  0
 29 30  1  0
 29 31  2  0
 31 32  1  0
 31 33  1  0
 33 34  1  0
 33 35  2  0
 35 36  1  0
 14  5  1  0
 22 16  1  0
 35 26  1  0
M  CHG  3   2  -1  17  -1  21  -1
M  END
>  <UniqueID>  (15) 
15

>  <SMILES>  (15) 
[NH-]C(=O)c1ccccc1/N=c1/[n-]cc([O-])n1Cc1ccccc1

>  <Energy>  (15) 
82.93478387077681

>  <Genealogy>  (15) 
[NH-]C(=O)c1ccccc1N=c1[n-]cc([O-])n1Cc1ccccc1 (protonated)
[NH-]C(=O)c1ccccc1/N=c1/[n-]cc([O-])n1Cc1ccccc1 (cis-trans isomerization)
[NH-]C(=O)c1ccccc1/N=c1/[n-]cc([O-])n1Cc1ccccc1 (3D coordinates assigned)
[NH-]C(=O)c1ccccc1/N=c1/[n-]cc([O-])n1Cc1ccccc1 (optimized conformer: 82.93478387077681 kcal/mol)

>  <smiles>  (15) 
NC(=O)c1ccccc1N=c1[nH]cc(O)n1Cc1ccccc1

>  <score_type>  (15) 
oracle

>  <origin>  (15) 
adg

>  <m_score__min__energy>  (15) 
-13.44

>  <m_primary>  (15) 
energy

$$$$
15:0
     RDKit          3D

 55 57  0  0  0  0  0  0  0  0999 V2000
   56.5890   27.0760   45.6660 C   0  0  0  0  0  0  0  0  0  0  0  0
   55.9310   28.2630   45.2370 O   0  0  0  0  0  0  0  0  0  0  0  0
   56.5660   29.3400   44.5990 C   0  0  0  0  0  0  0  0  0  0  0  0
   56.2320   29.7320   43.2870 C   0  0  0  0  0  0  0  0  0  0  0  0
   56.8750   30.8190   42.6920 C   0  0  0  0  0  0  0  0  0  0  0  0
   57.8480   31.5280   43.3960 C   0  0  0  0  0  0  0  0  0  0  0  0
   58.1890   31.1480   44.6950 C   0  0  0  0  0  0  0  0  0  0  0  0
   57.5630   30.0410   45.3000 C   0  0  0  0  0  0  0  0  0  0  0  0
   57.8580   29.6510   46.6500 N   0  0  0  0  0  0  0  0  0  0  0  0
   59.1380   29.2860   47.1800 C   0  0  0  0  0  0  0  0  0  0  0  0
   59.2430   28.3530   48.0200 O   0  0  0  0  0  0  0  0  0  0  0  0
   60.3330   30.0330   46.7480 C   0  0  0  0  0  0  0  0  0  0  0  0
   60.8340   29.7690   45.6200 O   0  0  0  0  0  0  0  0  0  0  0  0
   60.9640   31.0020   47.6280 N   0  0  1  0  0  0  0  0  0  0  0  0
   61.0190   30.5180   49.0330 C   0  0  0  0  0  0  0  0  0  0  0  0
   61.0370   31.6240   50.1220 C   0  0  0  0  0  0  0  0  0  0  0  0
   62.3950   32.2670   50.2930 C   0  0  0  0  0  0  0  0  0  0  0  0
   63.5700   31.5140   50.1130 C   0  0  0  0  0  0  0  0  0  0  0  0
   64.8230   32.1060   50.2920 C   0  0  0  0  0  0  0  0  0  0  0  0
   64.9170   33.4580   50.6310 C   0  0  0  0  0  0  0  0  0  0  0  0
   63.7580   34.2220   50.7800 C   0  0  0  0  0  0  0  0  0  0  0  0
   62.5020   33.6330   50.6090 C   0  0  0  0  0  0  0  0  0  0  0  0
   62.2950   31.4480   47.1420 C   0  0  0  0  0  0  0  0  0  0  0  0
   62.3690   32.9460   47.0510 C   0  0  0  0  0  0  0  0  0  0  0  0
   63.4230   33.4930   46.6230 O   0  0  0  0  0  0  0  0  0  0  0  0
   61.2660   33.7360   47.5160 N   0  0  0  0  0  0  0  0  0  0  0  0
   60.0730   33.8320   46.9990 C   0  0  0  0  0  0  0  0  0  0  0  0
   59.8130   34.5210   45.7950 C   0  0  0  0  0  0  0  0  0  0  0  0
   58.5100   34.5630   45.2950 C   0  0  0  0  0  0  0  0  0  0  0  0
   57.4790   33.9210   45.9790 C   0  0  0  0  0  0  0  0  0  0  0  0
   57.7700   33.2330   47.1570 C   0  0  0  0  0  0  0  0  0  0  0  0
   59.0440   33.2010   47.6310 N   0  0  0  0  0  0  0  0  0  0  0  0
   56.6070   27.0436   46.7654 H   0  0  0  0  0  0  0  0  0  0  0  0
   56.0488   26.1981   45.2821 H   0  0  0  0  0  0  0  0  0  0  0  0
   57.6198   27.0690   45.2821 H   0  0  0  0  0  0  0  0  0  0  0  0
   55.4615   29.1792   42.7296 H   0  0  0  0  0  0  0  0  0  0  0  0
   56.6137   31.1169   41.6659 H   0  0  0  0  0  0  0  0  0  0  0  0
   58.3476   32.3883   42.9266 H   0  0  0  0  0  0  0  0  0  0  0  0
   58.9507   31.7161   45.2491 H   0  0  0  0  0  0  0  0  0  0  0  0
   60.3520   31.8530   47.6420 H   0  0  0  0  0  0  0  0  0  0  0  0
   60.1366   29.8849   49.2079 H   0  0  0  0  0  0  0  0  0  0  0  0
   61.9755   29.9835   49.1304 H   0  0  0  0  0  0  0  0  0  0  0  0
   60.3136   32.4036   49.8411 H   0  0  0  0  0  0  0  0  0  0  0  0
   60.7778   31.1464   51.0784 H   0  0  0  0  0  0  0  0  0  0  0  0
   63.5018   30.4533   49.8298 H   0  0  0  0  0  0  0  0  0  0  0  0
   65.7367   31.5066   50.1658 H   0  0  0  0  0  0  0  0  0  0  0  0
   65.9038   33.9204   50.7805 H   0  0  0  0  0  0  0  0  0  0  0  0
   63.8335   35.2900   51.0325 H   0  0  0  0  0  0  0  0  0  0  0  0
   61.5925   34.2412   50.7222 H   0  0  0  0  0  0  0  0  0  0  0  0
   63.0684   31.0927   47.8388 H   0  0  0  0  0  0  0  0  0  0  0  0
   62.4554   31.0307   46.1369 H   0  0  0  0  0  0  0  0  0  0  0  0
   60.6304   35.0210   45.2548 H   0  0  0  0  0  0  0  0  0  0  0  0
   58.2969   35.1031   44.3607 H   0  0  0  0  0  0  0  0  0  0  0  0
   56.4489   33.9565   45.5947 H   0  0  0  0  0  0  0  0  0  0  0  0
   56.9676   32.7156   47.7033 H   0  0  0  0  0  0  0  0  0  0  0  0
  1  2  1  0
  2  3  1  0
  3  4  2  0
  4  5  1  0
  5  6  2  0
  6  7  1  0
  7  8  2  0
  8  9  1  0
  9 10  1  0
 10 11  2  0
 10 12  1  0
 12 13  2  0
 12 14  1  0
 14 15  1  0
 15 16  1  0
 16 17  1  0
 17 18  2  0
 18 19  1  0
 19 20  2  0
 20 21  1  0
 21 22  2  0
 14 23  1  0
 23 24  1  0
 24 25  2  0
 24 26  1  0
 26 27  2  3
 27 28  1  0
 28 29  2  0
 29 30  1  0
 30 31  2  0
 31 32  1  0
  8  3  1  0
 22 17  1  0
 32 27  1  0
  1 33  1  0
  1 34  1  0
  1 35  1  0
  4 36  1  0
  5 37  1  0
  6 38  1  0
  7 39  1  0
 14 40  1  1
 15 41  1  0
 15 42  1  0
 16 43  1  0
 16 44  1  0
 18 45  1  0
 19 46  1  0
 20 47  1  0
 21 48  1  0
 22 49  1  0
 23 50  1  0
 23 51  1  0
 28 52  1  0
 29 53  1  0
 30 54  1  0
 31 55  1  0
M  CHG  3   9  -1  14   1  32  -1
M  END
>  <UniqueID>  (16) 
16

>  <SMILES>  (16) 
COc1ccccc1[N-]C(=O)C(=O)[N@@H+](CCc1ccccc1)CC(=O)N=c1cccc[n-]1

>  <Energy>  (16) 
70.97023918884396

>  <Genealogy>  (16) 
COc1ccccc1[N-]C(=O)C(=O)[NH+](CCc1ccccc1)CC(=O)N=c1cccc[n-]1 (protonated)
COc1ccccc1[N-]C(=O)C(=O)[N@@H+](CCc1ccccc1)CC(=O)N=c1cccc[n-]1 (chirality)
COc1ccccc1[N-]C(=O)C(=O)[N@@H+](CCc1ccccc1)CC(=O)N=c1cccc[n-]1 (3D coordinates assigned)
COc1ccccc1[N-]C(=O)C(=O)[N@@H+](CCc1ccccc1)CC(=O)N=c1cccc[n-]1 (optimized conformer: 70.97023918884396 kcal/mol)

>  <smiles>  (16) 
COc1ccccc1NC(=O)C(=O)N(CCc1ccccc1)CC(=O)N=c1cccc[nH]1

>  <score_type>  (16) 
oracle

>  <origin>  (16) 
adg

>  <m_score__min__energy>  (16) 
-10.26

>  <m_primary>  (16) 
energy

$$$$
16:0
     RDKit          3D

 42 44  0  0  0  0  0  0  0  0999 V2000
   55.8640   30.0330   44.4980 O   0  0  0  0  0  0  0  0  0  0  0  0
   56.8070   30.8680   44.4940 C   0  0  0  0  0  0  0  0  0  0  0  0
   58.0770   30.5560   43.7470 C   0  0  0  0  0  0  0  0  0  0  0  0
   58.8200   29.5270   44.4030 O   0  0  0  0  0  0  0  0  0  0  0  0
   59.1860   29.5150   45.7610 C   0  0  0  0  0  0  0  0  0  0  0  0
   60.1450   30.3990   46.2960 C   0  0  0  0  0  0  0  0  0  0  0  0
   60.4740   30.3490   47.6530 C   0  0  0  0  0  0  0  0  0  0  0  0
   59.8500   29.4210   48.4930 C   0  0  0  0  0  0  0  0  0  0  0  0
   60.3030   29.3560   50.3470 Br  0  0  0  0  0  0  0  0  0  0  0  0
   58.8980   28.5410   47.9720 C   0  0  0  0  0  0  0  0  0  0  0  0
   58.5650   28.5870   46.6140 C   0  0  0  0  0  0  0  0  0  0  0  0
   57.3650   27.4660   45.9890 Cl  0  0  0  0  0  0  0  0  0  0  0  0
   56.6510   32.0820   45.2410 N   0  0  0  0  0  0  0  0  0  0  0  0
   57.6700   33.0540   45.5140 C   0  0  0  0  0  0  0  0  0  0  0  0
   58.0780   33.9850   44.5450 C   0  0  0  0  0  0  0  0  0  0  0  0
   59.0600   34.9310   44.8490 C   0  0  0  0  0  0  0  0  0  0  0  0
   59.6270   34.9700   46.1250 C   0  0  0  0  0  0  0  0  0  0  0  0
   59.1980   34.0720   47.1150 C   0  0  0  0  0  0  0  0  0  0  0  0
   59.8270   34.0930   48.4820 C   0  0  0  0  0  0  0  0  0  0  0  0
   61.2780   33.7050   48.3920 C   0  0  0  0  0  0  0  0  0  0  0  0
   61.8170   33.2570   47.1740 C   0  0  0  0  0  0  0  0  0  0  0  0
   63.1750   32.9320   47.0830 C   0  0  0  0  0  0  0  0  0  0  0  0
   64.0020   33.0580   48.2020 C   0  0  0  0  0  0  0  0  0  0  0  0
   63.4750   33.5120   49.4140 C   0  0  0  0  0  0  0  0  0  0  0  0
   62.1180   33.8400   49.5100 C   0  0  0  0  0  0  0  0  0  0  0  0
   58.2180   33.1160   46.8020 C   0  0  0  0  0  0  0  0  0  0  0  0
   57.8230   30.2230   42.7299 H   0  0  0  0  0  0  0  0  0  0  0  0
   58.6948   31.4655   43.7130 H   0  0  0  0  0  0  0  0  0  0  0  0
   60.6374   31.1328   45.6410 H   0  0  0  0  0  0  0  0  0  0  0  0
   61.2253   31.0409   48.0615 H   0  0  0  0  0  0  0  0  0  0  0  0
   58.4086   27.8095   48.6319 H   0  0  0  0  0  0  0  0  0  0  0  0
   57.6230   33.9693   43.5436 H   0  0  0  0  0  0  0  0  0  0  0  0
   59.3877   35.6473   44.0812 H   0  0  0  0  0  0  0  0  0  0  0  0
   60.4115   35.7061   46.3546 H   0  0  0  0  0  0  0  0  0  0  0  0
   59.7472   35.1060   48.9033 H   0  0  0  0  0  0  0  0  0  0  0  0
   59.3028   33.3748   49.1295 H   0  0  0  0  0  0  0  0  0  0  0  0
   61.1697   33.1615   46.2898 H   0  0  0  0  0  0  0  0  0  0  0  0
   63.5920   32.5768   46.1291 H   0  0  0  0  0  0  0  0  0  0  0  0
   65.0687   32.7996   48.1289 H   0  0  0  0  0  0  0  0  0  0  0  0
   64.1277   33.6117   50.2938 H   0  0  0  0  0  0  0  0  0  0  0  0
   61.7079   34.2045   50.4634 H   0  0  0  0  0  0  0  0  0  0  0  0
   57.8779   32.4103   47.5742 H   0  0  0  0  0  0  0  0  0  0  0  0
  1  2  2  0
  2  3  1  0
  3  4  1  0
  4  5  1  0
  5  6  2  0
  6  7  1  0
  7  8  2  0
  8  9  1  0
  8 10  1  0
 10 11  2  0
 11 12  1  0
  2 13  1  0
 13 14  1  0
 14 15  2  0
 15 16  1  0
 16 17  2  0
 17 18  1  0
 18 19  1  0
 19 20  1  0
 20 21  2  0
 21 22  1  0
 22 23  2  0
 23 24  1  0
 24 25  2  0
 18 26  2  0
 11  5  1  0
 26 14  1  0
 25 20  1  0
  3 27  1  0
  3 28  1  0
  6 29  1  0
  7 30  1  0
 10 31  1  0
 15 32  1  0
 16 33  1  0
 17 34  1  0
 19 35  1  0
 19 36  1  0
 21 37  1  0
 22 38  1  0
 23 39  1  0
 24 40  1  0
 25 41  1  0
 26 42  1  0
M  CHG  1  13  -1
M  END
>  <UniqueID>  (17) 
17

>  <SMILES>  (17) 
O=C(COc1ccc(Br)cc1Cl)[N-]c1cccc(Cc2ccccc2)c1

>  <Energy>  (17) 
48.83087812077191

>  <Genealogy>  (17) 
O=C(COc1ccc(Br)cc1Cl)[N-]c1cccc(Cc2ccccc2)c1 (protonated)
O=C(COc1ccc(Br)cc1Cl)[N-]c1cccc(Cc2ccccc2)c1 (3D coordinates assigned)
O=C(COc1ccc(Br)cc1Cl)[N-]c1cccc(Cc2ccccc2)c1 (optimized conformer: 48.83087812077191 kcal/mol)

>  <smiles>  (17) 
O=C(COc1ccc(Br)cc1Cl)Nc1cccc(Cc2ccccc2)c1

>  <score_type>  (17) 
oracle

>  <origin>  (17) 
adg

>  <m_score__min__energy>  (17) 
-10.99

>  <m_primary>  (17) 
energy

$$$$
17:0
     RDKit          3D

 47 48  0  0  0  0  0  0  0  0999 V2000
   62.4910   32.6270   47.2750 C   0  0  0  0  0  0  0  0  0  0  0  0
   61.7030   31.4460   47.3930 O   0  0  0  0  0  0  0  0  0  0  0  0
   60.4550   31.2630   46.7760 C   0  0  0  0  0  0  0  0  0  0  0  0
   60.1110   30.0710   46.1180 C   0  0  0  0  0  0  0  0  0  0  0  0
   58.8640   29.9470   45.4970 C   0  0  0  0  0  0  0  0  0  0  0  0
   57.9510   31.0120   45.5110 C   0  0  0  0  0  0  0  0  0  0  0  0
   56.6600   30.9050   44.8870 N   0  0  0  0  0  0  0  0  0  0  0  0
   56.0570   29.7110   44.3730 C   0  0  0  0  0  0  0  0  0  0  0  0
   55.8870   29.6010   43.1300 O   0  0  0  0  0  0  0  0  0  0  0  0
   55.7080   28.6270   45.2450 N   0  0  0  0  0  0  0  0  0  0  0  0
   56.6330   27.5680   45.6300 C   0  0  0  0  0  0  0  0  0  0  0  0
   55.8930   26.4050   46.2300 C   0  0  0  0  0  0  0  0  0  0  0  0
   54.6630   26.2750   45.9930 O   0  0  0  0  0  0  0  0  0  0  0  0
   56.5300   25.4540   47.0930 N   0  0  0  0  0  0  0  0  0  0  0  0
   57.7190   24.6690   46.7750 C   0  0  0  0  0  0  0  0  0  0  0  0
   57.4160   23.6050   45.7430 C   0  0  0  0  0  0  0  0  0  0  0  0
   57.2510   23.9830   44.3980 C   0  0  0  0  0  0  0  0  0  0  0  0
   56.9410   23.0280   43.4290 C   0  0  0  0  0  0  0  0  0  0  0  0
   56.7760   21.6890   43.7900 C   0  0  0  0  0  0  0  0  0  0  0  0
   56.9210   21.2980   45.1230 C   0  0  0  0  0  0  0  0  0  0  0  0
   57.2390   22.2480   46.1150 C   0  0  0  0  0  0  0  0  0  0  0  0
   57.3870   21.8820   47.4650 O   0  0  0  0  0  0  0  0  0  0  0  0
   56.3760   22.0180   48.4590 C   0  0  0  0  0  0  0  0  0  0  0  0
   58.2710   32.1900   46.2050 C   0  0  0  0  0  0  0  0  0  0  0  0
   57.3120   33.2170   46.2570 O   0  0  0  0  0  0  0  0  0  0  0  0
   57.0930   34.1800   45.2290 C   0  0  0  0  0  0  0  0  0  0  0  0
   59.5300   32.3110   46.8250 C   0  0  0  0  0  0  0  0  0  0  0  0
   62.7415   33.0024   48.2782 H   0  0  0  0  0  0  0  0  0  0  0  0
   63.4171   32.3967   46.7279 H   0  0  0  0  0  0  0  0  0  0  0  0
   61.9229   33.3937   46.7279 H   0  0  0  0  0  0  0  0  0  0  0  0
   60.8235   29.2334   46.0910 H   0  0  0  0  0  0  0  0  0  0  0  0
   58.5968   29.0063   44.9933 H   0  0  0  0  0  0  0  0  0  0  0  0
   57.1808   27.2262   44.7394 H   0  0  0  0  0  0  0  0  0  0  0  0
   57.3322   27.9660   46.3802 H   0  0  0  0  0  0  0  0  0  0  0  0
   58.4962   25.3399   46.3803 H   0  0  0  0  0  0  0  0  0  0  0  0
   58.0632   24.1727   47.6943 H   0  0  0  0  0  0  0  0  0  0  0  0
   57.3671   25.0378   44.1084 H   0  0  0  0  0  0  0  0  0  0  0  0
   56.8262   23.3307   42.3777 H   0  0  0  0  0  0  0  0  0  0  0  0
   56.5311   20.9402   43.0223 H   0  0  0  0  0  0  0  0  0  0  0  0
   56.7862   20.2422   45.4006 H   0  0  0  0  0  0  0  0  0  0  0  0
   56.8330   21.9565   49.4577 H   0  0  0  0  0  0  0  0  0  0  0  0
   55.8768   22.9914   48.3435 H   0  0  0  0  0  0  0  0  0  0  0  0
   55.6373   21.2111   48.3435 H   0  0  0  0  0  0  0  0  0  0  0  0
   56.8708   35.1570   45.6831 H   0  0  0  0  0  0  0  0  0  0  0  0
   57.9954   34.2622   44.6053 H   0  0  0  0  0  0  0  0  0  0  0  0
   56.2438   33.8639   44.6053 H   0  0  0  0  0  0  0  0  0  0  0  0
   59.7887   33.2403   47.3537 H   0  0  0  0  0  0  0  0  0  0  0  0
  1  2  1  0
  2  3  1  0
  3  4  2  0
  4  5  1  0
  5  6  2  0
  6  7  1  0
  7  8  1  0
  8  9  2  0
  8 10  1  0
 10 11  1  0
 11 12  1  0
 12 13  2  0
 12 14  1  0
 14 15  1  0
 15 16  1  0
 16 17  2  0
 17 18  1  0
 18 19  2  0
 19 20  1  0
 20 21  2  0
 21 22  1  0
 22 23  1  0
  6 24  1  0
 24 25  1  0
 25 26  1  0
 24 27  2  0
 27  3  1  0
 21 16  1  0
  1 28  1  0
  1 29  1  0
  1 30  1  0
  4 31  1  0
  5 32  1  0
 11 33  1  0
 11 34  1  0
 15 35  1  0
 15 36  1  0
 17 37  1  0
 18 38  1  0
 19 39  1  0
 20 40  1  0
 23 41  1  0
 23 42  1  0
 23 43  1  0
 26 44  1  0
 26 45  1  0
 26 46  1  0
 27 47  1  0
M  CHG  3   7  -1  10  -1  14  -1
M  END
>  <UniqueID>  (18) 
18

>  <SMILES>  (18) 
COc1ccc([N-]C(=O)[N-]CC(=O)[N-]Cc2ccccc2OC)c(OC)c1

>  <Energy>  (18) 
43.87907874542423

>  <Genealogy>  (18) 
COc1ccc([N-]C(=O)[N-]CC(=O)[N-]Cc2ccccc2OC)c(OC)c1 (protonated)
COc1ccc([N-]C(=O)[N-]CC(=O)[N-]Cc2ccccc2OC)c(OC)c1 (3D coordinates assigned)
COc1ccc([N-]C(=O)[N-]CC(=O)[N-]Cc2ccccc2OC)c(OC)c1 (optimized conformer: 43.87907874542423 kcal/mol)

>  <smiles>  (18) 
COc1ccc(NC(=O)NCC(=O)NCc2ccccc2OC)c(OC)c1

>  <score_type>  (18) 
oracle

>  <origin>  (18) 
adg

>  <m_score__min__energy>  (18) 
-12.710000000000001

>  <m_primary>  (18) 
energy

$$$$
18:0
     RDKit          3D

 48 51  0  0  0  0  0  0  0  0999 V2000
   55.4690   26.3530   46.3470 O   0  0  0  0  0  0  0  0  0  0  0  0
   56.6040   25.8560   46.1150 C   0  0  0  0  0  0  0  0  0  0  0  0
   56.7890   24.4350   46.1160 N   0  0  0  0  0  0  0  0  0  0  0  0
   56.7770   23.5700   44.9710 C   0  0  0  0  0  0  0  0  0  0  0  0
   57.6400   22.4650   44.9550 C   0  0  0  0  0  0  0  0  0  0  0  0
   57.6450   21.5860   43.8680 C   0  0  0  0  0  0  0  0  0  0  0  0
   56.7750   21.7950   42.7950 C   0  0  0  0  0  0  0  0  0  0  0  0
   55.8930   22.8790   42.8120 C   0  0  0  0  0  0  0  0  0  0  0  0
   55.8850   23.7600   43.8980 C   0  0  0  0  0  0  0  0  0  0  0  0
   57.7260   26.7040   45.8360 N   0  0  0  0  0  0  0  0  0  0  0  0
   57.6350   28.1250   45.6350 C   0  0  0  0  0  0  0  0  0  0  0  0
   58.5440   29.0120   46.2370 C   0  0  0  0  0  0  0  0  0  0  0  0
   58.4250   30.3910   46.0350 C   0  0  0  0  0  0  0  0  0  0  0  0
   57.4040   30.9050   45.2290 C   0  0  0  0  0  0  0  0  0  0  0  0
   57.3230   32.3290   45.0390 N   0  0  0  0  0  0  0  0  0  0  0  0
   58.1560   33.2160   45.5000 C   0  0  0  0  0  0  0  0  0  0  0  0
   58.7200   33.0770   46.7290 N   0  0  0  0  0  0  0  0  0  0  0  0
   59.5570   34.0130   47.2450 C   0  0  0  0  0  0  0  0  0  0  0  0
   60.1680   33.8160   48.5320 N   0  0  0  0  0  0  0  0  0  0  0  0
   61.5750   33.5830   48.7160 C   0  0  0  0  0  0  0  0  0  0  0  0
   62.1970   33.7960   49.9620 C   0  0  0  0  0  0  0  0  0  0  0  0
   63.5640   33.5490   50.1180 C   0  0  0  0  0  0  0  0  0  0  0  0
   64.3270   33.1110   49.0330 C   0  0  0  0  0  0  0  0  0  0  0  0
   63.7230   32.9290   47.7850 C   0  0  0  0  0  0  0  0  0  0  0  0
   62.3550   33.1690   47.6260 C   0  0  0  0  0  0  0  0  0  0  0  0
   59.8550   35.1510   46.4880 C   0  0  0  0  0  0  0  0  0  0  0  0
   59.2670   35.2880   45.2290 C   0  0  0  0  0  0  0  0  0  0  0  0
   59.5080   36.3020   44.5230 O   0  0  0  0  0  0  0  0  0  0  0  0
   58.4290   34.3240   44.7620 N   0  0  0  0  0  0  0  0  0  0  0  0
   56.4560   30.0230   44.6770 C   0  0  0  0  0  0  0  0  0  0  0  0
   56.5770   28.6440   44.8760 C   0  0  0  0  0  0  0  0  0  0  0  0
   58.3176   22.2886   45.8034 H   0  0  0  0  0  0  0  0  0  0  0  0
   58.3345   20.7290   43.8575 H   0  0  0  0  0  0  0  0  0  0  0  0
   56.7842   21.1066   41.9371 H   0  0  0  0  0  0  0  0  0  0  0  0
   55.2039   23.0395   41.9697 H   0  0  0  0  0  0  0  0  0  0  0  0
   55.1798   24.6040   43.9141 H   0  0  0  0  0  0  0  0  0  0  0  0
   58.6780   26.2730   45.8840 H   0  0  0  0  0  0  0  0  0  0  0  0
   59.3533   28.6197   46.8704 H   0  0  0  0  0  0  0  0  0  0  0  0
   59.1399   31.0764   46.5137 H   0  0  0  0  0  0  0  0  0  0  0  0
   59.5860   33.9940   49.3830 H   0  0  0  0  0  0  0  0  0  0  0  0
   61.6047   34.1580   50.8153 H   0  0  0  0  0  0  0  0  0  0  0  0
   64.0402   33.7000   51.0980 H   0  0  0  0  0  0  0  0  0  0  0  0
   65.4009   32.9096   49.1601 H   0  0  0  0  0  0  0  0  0  0  0  0
   64.3254   32.5964   46.9268 H   0  0  0  0  0  0  0  0  0  0  0  0
   61.8872   33.0323   46.6399 H   0  0  0  0  0  0  0  0  0  0  0  0
   60.5377   35.9212   46.8762 H   0  0  0  0  0  0  0  0  0  0  0  0
   55.6168   30.4199   44.0869 H   0  0  0  0  0  0  0  0  0  0  0  0
   55.8364   27.9615   44.4336 H   0  0  0  0  0  0  0  0  0  0  0  0
  1  2  2  0
  2  3  1  0
  3  4  1  0
  4  5  2  0
  5  6  1  0
  6  7  2  0
  7  8  1  0
  8  9  2  0
  2 10  1  0
 10 11  1  0
 11 12  2  0
 12 13  1  0
 13 14  2  0
 14 15  1  0
 15 16  2  3
 16 17  1  0
 17 18  1  0
 18 19  1  0
 19 20  1  0
 20 21  2  0
 21 22  1  0
 22 23  2  0
 23 24  1  0
 24 25  2  0
 18 26  2  0
 26 27  1  0
 27 28  2  0
 27 29  1  0
 14 30  1  0
 30 31  2  0
  9  4  1  0
 31 11  1  0
 29 16  1  0
 25 20  1  0
  5 32  1  0
  6 33  1  0
  7 34  1  0
  8 35  1  0
  9 36  1  0
 10 37  1  0
 12 38  1  0
 13 39  1  0
 19 40  1  0
 21 41  1  0
 22 42  1  0
 23 43  1  0
 24 44  1  0
 25 45  1  0
 26 46  1  0
 30 47  1  0
 31 48  1  0
M  CHG  3   3  -1  17  -1  29  -1
M  END
>  <UniqueID>  (19) 
19

>  <SMILES>  (19) 
O=C([N-]c1ccccc1)Nc1ccc(N=c2[n-]c(Nc3ccccc3)cc(=O)[n-]2)cc1

>  <Energy>  (19) 
69.05322309603959

>  <Genealogy>  (19) 
O=C([N-]c1ccccc1)Nc1ccc(N=c2[n-]c(Nc3ccccc3)cc(=O)[n-]2)cc1 (protonated)
O=C([N-]c1ccccc1)Nc1ccc(N=c2[n-]c(Nc3ccccc3)cc(=O)[n-]2)cc1 (3D coordinates assigned)
O=C([N-]c1ccccc1)Nc1ccc(N=c2[n-]c(Nc3ccccc3)cc(=O)[n-]2)cc1 (optimized conformer: 69.05322309603959 kcal/mol)

>  <smiles>  (19) 
O=C(Nc1ccccc1)Nc1ccc(N=c2[nH]c(Nc3ccccc3)cc(=O)[nH]2)cc1

>  <score_type>  (19) 
oracle

>  <origin>  (19) 
adg

>  <m_score__min__energy>  (19) 
-12.6

>  <m_primary>  (19) 
energy

$$$$
19:0
     RDKit          3D

 45 47  0  0  0  0  0  0  0  0999 V2000
   55.7980   29.7210   45.9950 H   0  0  0  0  0  0  0  0  0  0  0  0
   55.3420   29.5090   45.1390 O   0  0  0  0  0  0  0  0  0  0  0  0
   55.8860   30.3640   44.1700 C   0  0  0  0  0  0  0  0  0  0  0  0
   55.5982   31.4004   44.4005 H   0  0  0  0  0  0  0  0  0  0  0  0
   55.4993   30.0708   43.1828 H   0  0  0  0  0  0  0  0  0  0  0  0
   57.4140   30.2590   44.1510 C   0  0  0  0  0  0  0  0  0  0  0  0
   57.8126   30.9575   43.4005 H   0  0  0  0  0  0  0  0  0  0  0  0
   57.6896   29.2238   43.9012 H   0  0  0  0  0  0  0  0  0  0  0  0
   57.9870   30.5910   45.4710 N   0  0  0  0  0  0  0  0  0  0  0  0
   58.0160   29.6590   46.4710 C   0  0  0  0  0  0  0  0  0  0  0  0
   57.5710   28.4940   46.2850 O   0  0  0  0  0  0  0  0  0  0  0  0
   58.5270   29.9760   47.6790 N   0  0  0  0  0  0  0  0  0  0  0  0
   59.0030   31.2190   47.9400 C   0  0  0  0  0  0  0  0  0  0  0  0
   59.5220   31.4920   49.1050 N   0  0  0  0  0  0  0  0  0  0  0  0
   58.8180   31.8200   50.3150 C   0  0  0  0  0  0  0  0  0  0  0  0
   59.1020   33.0370   50.9440 C   0  0  0  0  0  0  0  0  0  0  0  0
   59.8748   33.7003   50.5284 H   0  0  0  0  0  0  0  0  0  0  0  0
   58.4100   33.4140   52.0960 C   0  0  0  0  0  0  0  0  0  0  0  0
   58.6461   34.3682   52.5896 H   0  0  0  0  0  0  0  0  0  0  0  0
   57.4190   32.5840   52.6240 C   0  0  0  0  0  0  0  0  0  0  0  0
   56.8747   32.8900   53.5296 H   0  0  0  0  0  0  0  0  0  0  0  0
   57.1130   31.3600   52.0050 C   0  0  0  0  0  0  0  0  0  0  0  0
   55.9920   30.4970   52.5290 C   0  0  0  0  0  0  0  0  0  0  0  0
   56.3330   29.1580   52.4510 F   0  0  0  0  0  0  0  0  0  0  0  0
   55.7200   30.7970   53.8520 F   0  0  0  0  0  0  0  0  0  0  0  0
   54.8570   30.7170   51.7730 F   0  0  0  0  0  0  0  0  0  0  0  0
   57.7960   31.0000   50.8290 C   0  0  0  0  0  0  0  0  0  0  0  0
   57.5290   30.0695   50.3066 H   0  0  0  0  0  0  0  0  0  0  0  0
   58.9780   32.1740   46.9550 N   0  0  0  0  0  0  0  0  0  0  0  0
   59.5310   33.5230   47.2110 C   0  0  0  0  0  0  0  0  0  0  0  0
   59.5594   34.0874   46.2673 H   0  0  0  0  0  0  0  0  0  0  0  0
   58.8895   34.0371   47.9418 H   0  0  0  0  0  0  0  0  0  0  0  0
   60.9260   33.4250   47.7720 C   0  0  0  0  0  0  0  0  0  0  0  0
   61.8610   32.5530   47.1900 C   0  0  0  0  0  0  0  0  0  0  0  0
   61.5799   31.9573   46.3090 H   0  0  0  0  0  0  0  0  0  0  0  0
   63.1480   32.4390   47.7260 C   0  0  0  0  0  0  0  0  0  0  0  0
   63.8769   31.7573   47.2633 H   0  0  0  0  0  0  0  0  0  0  0  0
   63.5100   33.1900   48.8490 C   0  0  0  0  0  0  0  0  0  0  0  0
   65.1220   33.0430   49.5220 Cl  0  0  0  0  0  0  0  0  0  0  0  0
   62.5830   34.0590   49.4340 C   0  0  0  0  0  0  0  0  0  0  0  0
   62.8670   34.6510   50.3166 H   0  0  0  0  0  0  0  0  0  0  0  0
   61.2970   34.1770   48.9000 C   0  0  0  0  0  0  0  0  0  0  0  0
   60.5719   34.8614   49.3645 H   0  0  0  0  0  0  0  0  0  0  0  0
   58.4650   31.8520   45.7220 C   0  0  0  0  0  0  0  0  0  0  0  0
   58.4330   32.7240   44.8070 O   0  0  0  0  0  0  0  0  0  0  0  0
  1  2  1  0
  2  3  1  0
  3  4  1  0
  3  5  1  0
  3  6  1  0
  6  7  1  0
  6  8  1  0
  6  9  1  0
  9 10  1  0
 10 11  2  0
 10 12  1  0
 12 13  1  0
 13 14  2  0
 14 15  1  0
 15 16  2  0
 16 17  1  0
 16 18  1  0
 18 19  1  0
 18 20  2  0
 20 21  1  0
 20 22  1  0
 22 23  1  0
 23 24  1  0
 23 25  1  0
 23 26  1  0
 22 27  2  0
 27 28  1  0
 13 29  1  0
 29 30  1  0
 30 31  1  0
 30 32  1  0
 30 33  1  0
 33 34  2  0
 34 35  1  0
 34 36  1  0
 36 37  1  0
 36 38  2  0
 38 39  1  0
 38 40  1  0
 40 41  1  0
 40 42  2  0
 42 43  1  0
 29 44  1  0
 44 45  2  0
 44  9  1  0
 27 15  1  0
 42 33  1  0
M  CHG  1  12  -1
M  END
>  <UniqueID>  (20) 
20

>  <SMILES>  (20) 
O=c1[n-]/c(=N\c2cccc(C(F)(F)F)c2)n(Cc2ccc(Cl)cc2)c(=O)n1CCO

>  <Energy>  (20) 
58.37570470764645

>  <Genealogy>  (20) 
O=c1[n-]c(=Nc2cccc(C(F)(F)F)c2)n(Cc2ccc(Cl)cc2)c(=O)n1CCO (protonated)
O=c1[n-]/c(=N\c2cccc(C(F)(F)F)c2)n(Cc2ccc(Cl)cc2)c(=O)n1CCO (cis-trans isomerization)
O=c1[n-]/c(=N\c2cccc(C(F)(F)F)c2)n(Cc2ccc(Cl)cc2)c(=O)n1CCO (3D coordinates assigned)
O=c1[n-]/c(=N\c2cccc(C(F)(F)F)c2)n(Cc2ccc(Cl)cc2)c(=O)n1CCO (optimized conformer: 58.37570470764645 kcal/mol)

>  <smiles>  (20) 
O=c1[nH]c(=Nc2cccc(C(F)(F)F)c2)n(Cc2ccc(Cl)cc2)c(=O)n1CCO

>  <score_type>  (20) 
oracle

>  <origin>  (20) 
adg

>  <m_score__min__energy>  (20) 
-9.25

>  <m_primary>  (20) 
energy

$$$$
20:0
     RDKit          3D

 38 41  0  0  0  0  0  0  0  0999 V2000
   65.4420   33.4510   50.6100 C   0  0  0  0  0  0  0  0  0  0  0  0
   65.3230   33.0800   49.2400 O   0  0  0  0  0  0  0  0  0  0  0  0
   64.1090   32.7810   48.6020 C   0  0  0  0  0  0  0  0  0  0  0  0
   63.6540   33.4980   47.4800 C   0  0  0  0  0  0  0  0  0  0  0  0
   62.4390   33.1680   46.8760 C   0  0  0  0  0  0  0  0  0  0  0  0
   61.6470   32.1240   47.3800 C   0  0  0  0  0  0  0  0  0  0  0  0
   60.3620   31.7850   46.7170 C   0  0  0  0  0  0  0  0  0  0  0  0
   59.6270   32.7390   45.9940 C   0  0  0  0  0  0  0  0  0  0  0  0
   58.4250   32.3750   45.3810 C   0  0  0  0  0  0  0  0  0  0  0  0
   57.7760   33.2420   44.7360 O   0  0  0  0  0  0  0  0  0  0  0  0
   57.9580   31.0510   45.4870 C   0  0  0  0  0  0  0  0  0  0  0  0
   56.7540   30.6470   44.8860 C   0  0  0  0  0  0  0  0  0  0  0  0
   56.3100   29.3280   44.9980 C   0  0  0  0  0  0  0  0  0  0  0  0
   55.1120   28.9680   44.3890 O   0  0  0  0  0  0  0  0  0  0  0  0
   57.0670   28.3830   45.7150 C   0  0  0  0  0  0  0  0  0  0  0  0
   56.6300   27.0500   45.8330 C   0  0  0  0  0  0  0  0  0  0  0  0
   57.3860   26.1190   46.5450 C   0  0  0  0  0  0  0  0  0  0  0  0
   58.5830   26.5010   47.1480 C   0  0  0  0  0  0  0  0  0  0  0  0
   59.0350   27.8180   47.0430 C   0  0  0  0  0  0  0  0  0  0  0  0
   58.2860   28.7750   46.3280 C   0  0  0  0  0  0  0  0  0  0  0  0
   58.7270   30.1120   46.2120 C   0  0  0  0  0  0  0  0  0  0  0  0
   59.8910   30.5090   46.7940 N   0  0  0  0  0  0  0  0  0  0  0  0
   62.1110   31.3990   48.4960 C   0  0  0  0  0  0  0  0  0  0  0  0
   63.3310   31.7280   49.1030 C   0  0  0  0  0  0  0  0  0  0  0  0
   63.7820   31.0070   50.2070 O   0  0  0  0  0  0  0  0  0  0  0  0
   65.1680   32.5966   51.2464 H   0  0  0  0  0  0  0  0  0  0  0  0
   66.4802   33.7471   50.8208 H   0  0  0  0  0  0  0  0  0  0  0  0
   64.7698   34.2958   50.8208 H   0  0  0  0  0  0  0  0  0  0  0  0
   64.2589   34.3233   47.0763 H   0  0  0  0  0  0  0  0  0  0  0  0
   62.0985   33.7324   45.9953 H   0  0  0  0  0  0  0  0  0  0  0  0
   59.9971   33.7715   45.9104 H   0  0  0  0  0  0  0  0  0  0  0  0
   56.1553   31.3771   44.3217 H   0  0  0  0  0  0  0  0  0  0  0  0
   55.6860   26.7406   45.3605 H   0  0  0  0  0  0  0  0  0  0  0  0
   57.0363   25.0796   46.6309 H   0  0  0  0  0  0  0  0  0  0  0  0
   59.1741   25.7621   47.7089 H   0  0  0  0  0  0  0  0  0  0  0  0
   59.9814   28.1107   47.5211 H   0  0  0  0  0  0  0  0  0  0  0  0
   61.5106   30.5678   48.8942 H   0  0  0  0  0  0  0  0  0  0  0  0
   64.6970   31.1710   50.6110 H   0  0  0  0  0  0  0  0  0  0  0  0
  1  2  1  0
  2  3  1  0
  3  4  2  0
  4  5  1  0
  5  6  2  0
  6  7  1  0
  7  8  2  0
  8  9  1  0
  9 10  2  0
  9 11  1  0
 11 12  2  0
 12 13  1  0
 13 14  1  0
 13 15  2  0
 15 16  1  0
 16 17  2  0
 17 18  1  0
 18 19  2  0
 19 20  1  0
 20 21  2  0
 21 22  1  0
  6 23  1  0
 23 24  2  0
 24 25  1  0
 24  3  1  0
 22  7  1  0
 21 11  1  0
 20 15  1  0
  1 26  1  0
  1 27  1  0
  1 28  1  0
  4 29  1  0
  5 30  1  0
  8 31  1  0
 12 32  1  0
 16 33  1  0
 17 34  1  0
 18 35  1  0
 19 36  1  0
 23 37  1  0
 25 38  1  0
M  CHG  2  14  -1  22  -1
M  END
>  <UniqueID>  (21) 
21

>  <SMILES>  (21) 
COc1ccc(-c2cc(=O)c3cc([O-])c4ccccc4c3[n-]2)cc1O

>  <Energy>  (21) 
56.01767619757864

>  <Genealogy>  (21) 
COc1ccc(-c2cc(=O)c3cc([O-])c4ccccc4c3[n-]2)cc1O (protonated)
COc1ccc(-c2cc(=O)c3cc([O-])c4ccccc4c3[n-]2)cc1O (3D coordinates assigned)
COc1ccc(-c2cc(=O)c3cc([O-])c4ccccc4c3[n-]2)cc1O (optimized conformer: 56.01767619757864 kcal/mol)

>  <smiles>  (21) 
COc1ccc(-c2cc(=O)c3cc(O)c4ccccc4c3[nH]2)cc1O

>  <score_type>  (21) 
oracle

>  <origin>  (21) 
adg

>  <m_score__min__energy>  (21) 
-10.42

>  <m_primary>  (21) 
energy

$$$$
21:0
     RDKit          3D

 38 39  0  0  0  0  0  0  0  0999 V2000
   62.9170   33.7740   48.7230 C   0  0  0  0  0  0  0  0  0  0  0  0
   62.0230   33.2970   47.2580 S   0  0  0  0  0  0  0  0  0  0  0  0
   62.0180   31.7990   47.1360 O   0  0  0  0  0  0  0  0  0  0  0  0
   62.7130   33.8830   46.0580 O   0  0  0  0  0  0  0  0  0  0  0  0
   60.3930   33.8960   47.3140 N   0  0  0  0  0  0  0  0  0  0  0  0
   59.8590   34.0260   45.9600 C   0  0  0  0  0  0  0  0  0  0  0  0
   58.9830   32.8440   45.6620 C   0  0  0  0  0  0  0  0  0  0  0  0
   58.9020   31.7760   46.5690 C   0  0  0  0  0  0  0  0  0  0  0  0
   58.1180   30.6580   46.2730 C   0  0  0  0  0  0  0  0  0  0  0  0
   57.4200   30.5780   45.0560 C   0  0  0  0  0  0  0  0  0  0  0  0
   56.5860   29.3970   44.7370 C   0  0  0  0  0  0  0  0  0  0  0  0
   55.9160   29.3840   43.6700 O   0  0  0  0  0  0  0  0  0  0  0  0
   56.4720   28.2820   45.6300 N   0  0  0  0  0  0  0  0  0  0  0  0
   57.4780   27.2830   45.8590 C   0  0  0  0  0  0  0  0  0  0  0  0
   58.8110   27.5870   46.1230 C   0  0  0  0  0  0  0  0  0  0  0  0
   59.6390   26.1460   46.3300 S   0  0  0  0  0  0  0  0  0  0  0  0
   58.3340   25.1140   46.0750 C   0  0  0  0  0  0  0  0  0  0  0  0
   58.4640   23.6450   46.0370 C   0  0  0  0  0  0  0  0  0  0  0  0
   57.5640   22.8350   46.7910 N   0  0  0  0  0  0  0  0  0  0  0  0
   59.3850   23.0940   45.3770 O   0  0  0  0  0  0  0  0  0  0  0  0
   57.1970   25.9000   45.8210 C   0  0  0  0  0  0  0  0  0  0  0  0
   55.8320   25.3700   45.6140 C   0  0  0  0  0  0  0  0  0  0  0  0
   54.6960   26.1480   45.9820 N   0  0  0  0  0  0  0  0  0  0  0  0
   55.6620   24.2160   45.1400 O   0  0  0  0  0  0  0  0  0  0  0  0
   57.5020   31.6490   44.1510 C   0  0  0  0  0  0  0  0  0  0  0  0
   58.2870   32.7680   44.4460 C   0  0  0  0  0  0  0  0  0  0  0  0
   62.3485   33.4707   49.6145 H   0  0  0  0  0  0  0  0  0  0  0  0
   63.9001   33.2805   48.7296 H   0  0  0  0  0  0  0  0  0  0  0  0
   63.0545   34.8654   48.7296 H   0  0  0  0  0  0  0  0  0  0  0  0
   59.2682   34.9508   45.8842 H   0  0  0  0  0  0  0  0  0  0  0  0
   60.6872   34.0651   45.2371 H   0  0  0  0  0  0  0  0  0  0  0  0
   59.4582   31.8193   47.5170 H   0  0  0  0  0  0  0  0  0  0  0  0
   58.0466   29.8340   46.9982 H   0  0  0  0  0  0  0  0  0  0  0  0
   59.2441   28.5963   46.1847 H   0  0  0  0  0  0  0  0  0  0  0  0
   56.5360   22.8710   46.6160 H   0  0  0  0  0  0  0  0  0  0  0  0
   54.8090   27.0960   46.4060 H   0  0  0  0  0  0  0  0  0  0  0  0
   56.9448   31.6072   43.2035 H   0  0  0  0  0  0  0  0  0  0  0  0
   58.3592   33.5925   43.7214 H   0  0  0  0  0  0  0  0  0  0  0  0
  1  2  1  0
  2  3  2  0
  2  4  2  0
  2  5  1  0
  5  6  1  0
  6  7  1  0
  7  8  2  0
  8  9  1  0
  9 10  2  0
 10 11  1  0
 11 12  2  0
 11 13  1  0
 13 14  1  0
 14 15  2  0
 15 16  1  0
 16 17  1  0
 17 18  1  0
 18 19  1  0
 18 20  2  0
 17 21  2  0
 21 22  1  0
 22 23  1  0
 22 24  2  0
 10 25  1  0
 25 26  2  0
 26  7  1  0
 21 14  1  0
  1 27  1  0
  1 28  1  0
  1 29  1  0
  6 30  1  0
  6 31  1  0
  8 32  1  0
  9 33  1  0
 15 34  1  0
 19 35  1  0
 23 36  1  0
 25 37  1  0
 26 38  1  0
M  CHG  4   5  -1  13  -1  19  -1  23  -1
M  END
>  <UniqueID>  (22) 
22

>  <SMILES>  (22) 
CS(=O)(=O)[N-]Cc1ccc(C(=O)[N-]c2csc(C([NH-])=O)c2C([NH-])=O)cc1

>  <Energy>  (22) 
67.89730389693077

>  <Genealogy>  (22) 
CS(=O)(=O)[N-]Cc1ccc(C(=O)[N-]c2csc(C([NH-])=O)c2C([NH-])=O)cc1 (protonated)
CS(=O)(=O)[N-]Cc1ccc(C(=O)[N-]c2csc(C([NH-])=O)c2C([NH-])=O)cc1 (3D coordinates assigned)
CS(=O)(=O)[N-]Cc1ccc(C(=O)[N-]c2csc(C([NH-])=O)c2C([NH-])=O)cc1 (optimized conformer: 67.89730389693077 kcal/mol)

>  <smiles>  (22) 
CS(=O)(=O)NCc1ccc(C(=O)Nc2csc(C(N)=O)c2C(N)=O)cc1

>  <score_type>  (22) 
oracle

>  <origin>  (22) 
adg

>  <m_score__min__energy>  (22) 
-15.41

>  <m_primary>  (22) 
energy

$$$$
22:0
     RDKit          3D

 40 42  0  0  0  0  0  0  0  0999 V2000
   61.8510   33.9260   48.6030 C   0  0  0  0  0  0  0  0  0  0  0  0
   60.4640   34.5610   48.5630 C   0  0  0  0  0  0  0  0  0  0  0  0
   59.6850   34.0750   47.3690 C   0  0  0  0  0  0  0  0  0  0  0  0
   59.3330   34.9630   46.3300 C   0  0  0  0  0  0  0  0  0  0  0  0
   58.6090   34.5090   45.2090 C   0  0  0  0  0  0  0  0  0  0  0  0
   58.2080   33.1670   45.1140 C   0  0  0  0  0  0  0  0  0  0  0  0
   58.5240   32.3120   46.1710 C   0  0  0  0  0  0  0  0  0  0  0  0
   58.2920   30.9580   46.3570 C   0  0  0  0  0  0  0  0  0  0  0  0
   57.5870   30.0140   45.4700 C   0  0  0  0  0  0  0  0  0  0  0  0
   56.5320   30.3940   44.8950 O   0  0  0  0  0  0  0  0  0  0  0  0
   58.1070   28.6600   45.2050 C   0  0  0  0  0  0  0  0  0  0  0  0
   59.3480   28.4440   45.2610 O   0  0  0  0  0  0  0  0  0  0  0  0
   57.2080   27.5950   44.8530 N   0  0  0  0  0  0  0  0  0  0  0  0
   57.6790   26.2620   44.4860 C   0  0  0  0  0  0  0  0  0  0  0  0
   56.9920   25.2160   45.3280 C   0  0  0  0  0  0  0  0  0  0  0  0
   57.5870   23.9560   45.4860 C   0  0  0  0  0  0  0  0  0  0  0  0
   56.9710   22.9850   46.2770 C   0  0  0  0  0  0  0  0  0  0  0  0
   55.7630   23.2800   46.9070 C   0  0  0  0  0  0  0  0  0  0  0  0
   55.1950   24.5040   46.7500 N   0  0  0  0  0  0  0  0  0  0  0  0
   55.7740   25.4710   45.9860 C   0  0  0  0  0  0  0  0  0  0  0  0
   55.1420   26.7050   45.8670 O   0  0  0  0  0  0  0  0  0  0  0  0
   58.9140   30.6330   47.5560 C   0  0  0  0  0  0  0  0  0  0  0  0
   59.4860   31.7270   48.1060 N   0  0  0  0  0  0  0  0  0  0  0  0
   59.2490   32.7440   47.2560 C   0  0  0  0  0  0  0  0  0  0  0  0
   62.1596   33.7847   49.6493 H   0  0  0  0  0  0  0  0  0  0  0  0
   61.8228   32.9511   48.0942 H   0  0  0  0  0  0  0  0  0  0  0  0
   62.5705   34.5844   48.0942 H   0  0  0  0  0  0  0  0  0  0  0  0
   59.9194   34.2950   49.4810 H   0  0  0  0  0  0  0  0  0  0  0  0
   60.5790   35.6524   48.4873 H   0  0  0  0  0  0  0  0  0  0  0  0
   59.6269   36.0210   46.3957 H   0  0  0  0  0  0  0  0  0  0  0  0
   58.3561   35.2122   44.4018 H   0  0  0  0  0  0  0  0  0  0  0  0
   57.6611   32.8003   44.2329 H   0  0  0  0  0  0  0  0  0  0  0  0
   56.1750   27.7660   44.8700 H   0  0  0  0  0  0  0  0  0  0  0  0
   57.4565   26.0776   43.4246 H   0  0  0  0  0  0  0  0  0  0  0  0
   58.7640   26.2050   44.6580 H   0  0  0  0  0  0  0  0  0  0  0  0
   58.5408   23.7326   44.9857 H   0  0  0  0  0  0  0  0  0  0  0  0
   57.4348   21.9954   46.4022 H   0  0  0  0  0  0  0  0  0  0  0  0
   55.2693   22.5211   47.5318 H   0  0  0  0  0  0  0  0  0  0  0  0
   58.9376   29.6253   47.9965 H   0  0  0  0  0  0  0  0  0  0  0  0
   60.0120   31.7570   49.0070 H   0  0  0  0  0  0  0  0  0  0  0  0
  1  2  1  0
  2  3  1  0
  3  4  2  0
  4  5  1  0
  5  6  2  0
  6  7  1  0
  7  8  1  0
  8  9  1  0
  9 10  2  0
  9 11  1  0
 11 12  2  0
 11 13  1  0
 13 14  1  0
 14 15  1  0
 15 16  2  0
 16 17  1  0
 17 18  2  0
 18 19  1  0
 19 20  2  0
 20 21  1  0
  8 22  2  0
 22 23  1  0
 23 24  1  0
 24  3  1  0
 24  7  2  0
 20 15  1  0
  1 25  1  0
  1 26  1  0
  1 27  1  0
  2 28  1  0
  2 29  1  0
  4 30  1  0
  5 31  1  0
  6 32  1  0
 13 33  1  0
 14 34  1  0
 14 35  1  0
 16 36  1  0
 17 37  1  0
 18 38  1  0
 22 39  1  0
 23 40  1  0
M  CHG  1  21  -1
M  END
>  <UniqueID>  (23) 
23

>  <SMILES>  (23) 
CCc1cccc2c(C(=O)C(=O)NCc3cccnc3[O-])c[nH]c12

>  <Energy>  (23) 
75.16796642909242

>  <Genealogy>  (23) 
CCc1cccc2c(C(=O)C(=O)NCc3cccnc3[O-])c[nH]c12 (protonated)
CCc1cccc2c(C(=O)C(=O)NCc3cccnc3[O-])c[nH]c12 (3D coordinates assigned)
CCc1cccc2c(C(=O)C(=O)NCc3cccnc3[O-])c[nH]c12 (optimized conformer: 75.16796642909242 kcal/mol)

>  <smiles>  (23) 
CCc1cccc2c(C(=O)C(=O)NCc3cccnc3O)c[nH]c12

>  <score_type>  (23) 
oracle

>  <origin>  (23) 
adg

>  <m_score__min__energy>  (23) 
-11.98

>  <m_primary>  (23) 
energy

$$$$
23:0
     RDKit          3D

 45 47  0  0  0  0  0  0  0  0999 V2000
   55.2310   26.6690   46.0140 O   0  0  0  0  0  0  0  0  0  0  0  0
   56.2750   26.2780   46.6040 C   0  0  0  0  0  0  0  0  0  0  0  0
   57.5900   26.9160   46.2980 C   0  0  0  0  0  0  0  0  0  0  0  0
   57.3870   27.9650   45.2500 C   0  0  0  0  0  0  0  0  0  0  0  0
   57.4340   27.6980   43.8830 C   0  0  0  0  0  0  0  0  0  0  0  0
   57.0200   29.1080   43.0620 S   0  0  0  0  0  0  0  0  0  0  0  0
   56.7860   29.9810   44.4760 C   0  0  0  0  0  0  0  0  0  0  0  0
   56.4470   31.2360   44.4980 N   0  0  0  0  0  0  0  0  0  0  0  0
   57.0490   32.2540   45.3100 C   0  0  0  0  0  0  0  0  0  0  0  0
   56.8490   33.4630   45.0160 O   0  0  0  0  0  0  0  0  0  0  0  0
   57.8080   31.9210   46.4850 N   0  0  0  0  0  0  0  0  0  0  0  0
   58.8370   32.7750   47.0240 C   0  0  0  0  0  0  0  0  0  0  0  0
   58.6230   34.1650   47.0910 C   0  0  0  0  0  0  0  0  0  0  0  0
   59.6200   35.0170   47.5640 C   0  0  0  0  0  0  0  0  0  0  0  0
   60.8490   34.5000   47.9630 C   0  0  0  0  0  0  0  0  0  0  0  0
   61.0870   33.1260   47.8940 C   0  0  0  0  0  0  0  0  0  0  0  0
   60.0870   32.2430   47.4380 C   0  0  0  0  0  0  0  0  0  0  0  0
   60.3670   30.7570   47.3780 C   0  0  0  0  0  0  0  0  0  0  0  0
   61.6090   30.4880   47.9250 F   0  0  0  0  0  0  0  0  0  0  0  0
   59.3930   30.0780   48.0880 F   0  0  0  0  0  0  0  0  0  0  0  0
   60.3670   30.2870   46.0760 F   0  0  0  0  0  0  0  0  0  0  0  0
   57.0230   29.2350   45.5770 N   0  0  0  0  0  0  0  0  0  0  0  0
   56.2280   25.1570   47.4920 N   0  0  0  0  0  0  0  0  0  0  0  0
   55.6630   23.8670   47.1180 C   0  0  0  0  0  0  0  0  0  0  0  0
   55.9320   23.5960   45.6580 C   0  0  0  0  0  0  0  0  0  0  0  0
   57.2270   23.2370   45.2450 C   0  0  0  0  0  0  0  0  0  0  0  0
   57.4860   22.9390   43.9050 C   0  0  0  0  0  0  0  0  0  0  0  0
   56.4550   22.9840   42.9650 C   0  0  0  0  0  0  0  0  0  0  0  0
   55.1630   23.3350   43.3610 C   0  0  0  0  0  0  0  0  0  0  0  0
   54.8930   23.6440   44.7010 C   0  0  0  0  0  0  0  0  0  0  0  0
   53.2480   24.0880   45.1430 Cl  0  0  0  0  0  0  0  0  0  0  0  0
   57.9972   27.3783   47.2093 H   0  0  0  0  0  0  0  0  0  0  0  0
   58.2972   26.1564   45.9333 H   0  0  0  0  0  0  0  0  0  0  0  0
   57.6958   26.7345   43.4213 H   0  0  0  0  0  0  0  0  0  0  0  0
   57.5630   31.0380   46.9850 H   0  0  0  0  0  0  0  0  0  0  0  0
   57.6587   34.5833   46.7666 H   0  0  0  0  0  0  0  0  0  0  0  0
   59.4349   36.0998   47.6219 H   0  0  0  0  0  0  0  0  0  0  0  0
   61.6344   35.1752   48.3334 H   0  0  0  0  0  0  0  0  0  0  0  0
   62.0660   32.7278   48.1989 H   0  0  0  0  0  0  0  0  0  0  0  0
   56.1240   23.0757   47.7274 H   0  0  0  0  0  0  0  0  0  0  0  0
   54.5768   23.8820   47.2909 H   0  0  0  0  0  0  0  0  0  0  0  0
   58.0421   23.1904   45.9822 H   0  0  0  0  0  0  0  0  0  0  0  0
   58.5046   22.6683   43.5899 H   0  0  0  0  0  0  0  0  0  0  0  0
   56.6606   22.7428   41.9117 H   0  0  0  0  0  0  0  0  0  0  0  0
   54.3530   23.3692   42.6175 H   0  0  0  0  0  0  0  0  0  0  0  0
  1  2  2  0
  2  3  1  0
  3  4  1  0
  4  5  2  0
  5  6  1  0
  6  7  1  0
  7  8  2  3
  8  9  1  0
  9 10  2  0
  9 11  1  0
 11 12  1  0
 12 13  2  0
 13 14  1  0
 14 15  2  0
 15 16  1  0
 16 17  2  0
 17 18  1  0
 18 19  1  0
 18 20  1  0
 18 21  1  0
  7 22  1  0
  2 23  1  0
 23 24  1  0
 24 25  1  0
 25 26  2  0
 26 27  1  0
 27 28  2  0
 28 29  1  0
 29 30  2  0
 30 31  1  0
 22  4  1  0
 30 25  1  0
 17 12  1  0
  3 32  1  0
  3 33  1  0
  5 34  1  0
 11 35  1  0
 13 36  1  0
 14 37  1  0
 15 38  1  0
 16 39  1  0
 24 40  1  0
 24 41  1  0
 26 42  1  0
 27 43  1  0
 28 44  1  0
 29 45  1  0
M  CHG  2  22  -1  23  -1
M  END
>  <UniqueID>  (24) 
24

>  <SMILES>  (24) 
O=C(Cc1csc(=NC(=O)Nc2ccccc2C(F)(F)F)[n-]1)[N-]Cc1ccccc1Cl

>  <Energy>  (24) 
79.18211579545415

>  <Genealogy>  (24) 
O=C(Cc1csc(=NC(=O)Nc2ccccc2C(F)(F)F)[n-]1)[N-]Cc1ccccc1Cl (protonated)
O=C(Cc1csc(=NC(=O)Nc2ccccc2C(F)(F)F)[n-]1)[N-]Cc1ccccc1Cl (3D coordinates assigned)
O=C(Cc1csc(=NC(=O)Nc2ccccc2C(F)(F)F)[n-]1)[N-]Cc1ccccc1Cl (optimized conformer: 79.18211579545415 kcal/mol)

>  <smiles>  (24) 
O=C(Cc1csc(=NC(=O)Nc2ccccc2C(F)(F)F)[nH]1)NCc1ccccc1Cl

>  <score_type>  (24) 
oracle

>  <origin>  (24) 
adg

>  <m_score__min__energy>  (24) 
-11.34

>  <m_primary>  (24) 
energy

$$$$
24:0
     RDKit          3D

 69 74  0  0  0  0  0  0  0  0999 V2000
   56.2920   29.3590   42.2540 C   0  0  0  0  0  0  0  0  0  0  0  0
   57.1980   29.6250   43.3620 N   0  0  0  0  0  0  0  0  0  0  0  0
   56.7100   29.9360   44.6800 C   0  0  0  0  0  0  0  0  0  0  0  0
   55.4740   30.1140   44.8540 O   0  0  0  0  0  0  0  0  0  0  0  0
   57.6510   30.0140   45.8270 C   0  0  0  0  0  0  0  0  0  0  0  0
   58.0090   31.2490   46.2790 N   0  0  0  0  0  0  0  0  0  0  0  0
   58.9110   31.4530   47.2780 C   0  0  0  0  0  0  0  0  0  0  0  0
   59.2390   32.8050   47.6770 N   0  0  0  0  0  0  0  0  0  0  0  0
   59.5030   33.8600   46.6930 C   0  0  0  0  0  0  0  0  0  0  0  0
   61.0080   33.9250   46.4190 C   0  0  0  0  0  0  0  0  0  0  0  0
   61.8490   33.7600   47.6710 C   0  0  0  0  0  0  0  0  0  0  0  0
   63.2310   33.9810   47.5670 C   0  0  0  0  0  0  0  0  0  0  0  0
   64.0710   33.7380   48.6490 C   0  0  0  0  0  0  0  0  0  0  0  0
   63.5450   33.2750   49.8540 C   0  0  0  0  0  0  0  0  0  0  0  0
   62.1640   33.0660   50.0010 C   0  0  0  0  0  0  0  0  0  0  0  0
   61.6690   32.5980   51.3150 C   0  0  0  0  0  0  0  0  0  0  0  0
   61.8950   33.3030   52.3320 O   0  0  0  0  0  0  0  0  0  0  0  0
   60.9660   31.3550   51.4830 N   0  0  0  0  0  0  0  0  0  0  0  0
   59.6940   31.1990   51.7110 C   0  0  0  0  0  0  0  0  0  0  0  0
   59.1790   29.9980   52.0730 N   0  0  0  0  0  0  0  0  0  0  0  0
   57.8440   30.0920   52.3000 C   0  0  0  0  0  0  0  0  0  0  0  0
   57.0390   29.0260   52.7110 C   0  0  0  0  0  0  0  0  0  0  0  0
   55.6730   29.2630   52.9390 C   0  0  0  0  0  0  0  0  0  0  0  0
   55.1310   30.5530   52.7540 C   0  0  0  0  0  0  0  0  0  0  0  0
   55.9490   31.6170   52.3450 C   0  0  0  0  0  0  0  0  0  0  0  0
   57.3000   31.3550   52.1250 C   0  0  0  0  0  0  0  0  0  0  0  0
   58.5130   32.4210   51.6730 S   0  0  0  0  0  0  0  0  0  0  0  0
   61.3040   33.2830   48.8940 C   0  0  0  0  0  0  0  0  0  0  0  0
   59.8070   33.0610   49.0040 C   0  0  0  0  0  0  0  0  0  0  0  0
   59.5310   30.3380   47.8650 C   0  0  0  0  0  0  0  0  0  0  0  0
   59.1730   29.0550   47.4520 C   0  0  0  0  0  0  0  0  0  0  0  0
   58.2280   28.8750   46.4370 C   0  0  0  0  0  0  0  0  0  0  0  0
   57.8900   27.5410   46.0330 N   0  0  0  0  0  0  0  0  0  0  0  0
   58.8800   26.4720   46.2040 C   0  0  0  0  0  0  0  0  0  0  0  0
   58.3950   25.1670   45.5580 C   0  0  0  0  0  0  0  0  0  0  0  0
   56.9990   24.7540   46.0630 C   0  0  0  0  0  0  0  0  0  0  0  0
   56.0440   25.9500   46.3300 C   0  0  2  0  0  0  0  0  0  0  0  0
   54.6810   25.6150   45.9130 N   0  0  0  0  0  0  0  0  0  0  0  0
   56.5160   27.2280   45.6190 C   0  0  0  0  0  0  0  0  0  0  0  0
   55.3064   29.0696   42.6476 H   0  0  0  0  0  0  0  0  0  0  0  0
   56.1895   30.2650   41.6386 H   0  0  0  0  0  0  0  0  0  0  0  0
   56.6955   28.5414   41.6386 H   0  0  0  0  0  0  0  0  0  0  0  0
   58.2240   29.5670   43.1760 H   0  0  0  0  0  0  0  0  0  0  0  0
   58.9680   33.6344   45.7587 H   0  0  0  0  0  0  0  0  0  0  0  0
   59.1558   34.8274   47.0850 H   0  0  0  0  0  0  0  0  0  0  0  0
   61.2702   33.1232   45.7131 H   0  0  0  0  0  0  0  0  0  0  0  0
   61.2237   34.9224   46.0083 H   0  0  0  0  0  0  0  0  0  0  0  0
   63.6540   34.3499   46.6210 H   0  0  0  0  0  0  0  0  0  0  0  0
   65.1530   33.9117   48.5534 H   0  0  0  0  0  0  0  0  0  0  0  0
   64.2190   33.0711   50.6991 H   0  0  0  0  0  0  0  0  0  0  0  0
   57.4660   28.0223   52.8530 H   0  0  0  0  0  0  0  0  0  0  0  0
   55.0219   28.4380   53.2637 H   0  0  0  0  0  0  0  0  0  0  0  0
   54.0593   30.7255   52.9318 H   0  0  0  0  0  0  0  0  0  0  0  0
   55.5367   32.6268   52.2024 H   0  0  0  0  0  0  0  0  0  0  0  0
   59.6140   32.1962   49.6558 H   0  0  0  0  0  0  0  0  0  0  0  0
   59.3389   33.9609   49.4295 H   0  0  0  0  0  0  0  0  0  0  0  0
   60.2939   30.4757   48.6454 H   0  0  0  0  0  0  0  0  0  0  0  0
   59.6371   28.1786   47.9279 H   0  0  0  0  0  0  0  0  0  0  0  0
   59.8253   26.7778   45.7318 H   0  0  0  0  0  0  0  0  0  0  0  0
   59.0264   26.2978   47.2802 H   0  0  0  0  0  0  0  0  0  0  0  0
   58.3510   25.3060   44.4677 H   0  0  0  0  0  0  0  0  0  0  0  0
   59.1031   24.3706   45.8306 H   0  0  0  0  0  0  0  0  0  0  0  0
   56.5358   24.1038   45.3062 H   0  0  0  0  0  0  0  0  0  0  0  0
   57.1472   24.2440   47.0263 H   0  0  0  0  0  0  0  0  0  0  0  0
   56.0546   26.1466   47.4122 H   0  0  0  0  0  0  0  0  0  0  0  0
   54.5960   25.7880   44.8830 H   0  0  0  0  0  0  0  0  0  0  0  0
   54.0260   26.2900   46.3730 H   0  0  0  0  0  0  0  0  0  0  0  0
   56.4875   27.0735   44.5303 H   0  0  0  0  0  0  0  0  0  0  0  0
   55.8530   28.0633   45.8888 H   0  0  0  0  0  0  0  0  0  0  0  0
  1  2  1  0
  2  3  1  0
  3  4  2  0
  3  5  1  0
  5  6  2  0
  6  7  1  0
  7  8  1  0
  8  9  1  0
  9 10  1  0
 10 11  1  0
 11 12  2  0
 12 13  1  0
 13 14  2  0
 14 15  1  0
 15 16  1  0
 16 17  2  0
 16 18  1  0
 18 19  2  3
 19 20  1  0
 20 21  1  0
 21 22  2  0
 22 23  1  0
 23 24  2  0
 24 25  1  0
 25 26  2  0
 26 27  1  0
 15 28  2  0
 28 29  1  0
  7 30  2  0
 30 31  1  0
 31 32  2  0
 32 33  1  0
 33 34  1  0
 34 35  1  0
 35 36  1  0
 36 37  1  0
 37 38  1  0
 37 39  1  0
 32  5  1  0
 39 33  1  0
 29  8  1  0
 28 11  1  0
 27 19  1  0
 26 21  1  0
  1 40  1  0
  1 41  1  0
  1 42  1  0
  2 43  1  0
  9 44  1  0
  9 45  1  0
 10 46  1  0
 10 47  1  0
 12 48  1  0
 13 49  1  0
 14 50  1  0
 22 51  1  0
 23 52  1  0
 24 53  1  0
 25 54  1  0
 29 55  1  0
 29 56  1  0
 30 57  1  0
 31 58  1  0
 34 59  1  0
 34 60  1  0
 35 61  1  0
 35 62  1  0
 36 63  1  0
 36 64  1  0
 37 65  1  1
 38 66  1  0
 38 67  1  0
 39 68  1  0
 39 69  1  0
M  CHG  1  20  -1
M  END
>  <UniqueID>  (25) 
25

>  <SMILES>  (25) 
CNC(=O)c1nc(N2CCc3cccc(C(=O)N=c4[n-]c5ccccc5s4)c3C2)ccc1N1CCC[C@H](N)C1

>  <Energy>  (25) 
134.06330530123654

>  <Genealogy>  (25) 
CNC(=O)c1nc(N2CCc3cccc(C(=O)N=c4[n-]c5ccccc5s4)c3C2)ccc1N1CCCC(N)C1 (protonated)
CNC(=O)c1nc(N2CCc3cccc(C(=O)N=c4[n-]c5ccccc5s4)c3C2)ccc1N1CCC[C@H](N)C1 (chirality)
CNC(=O)c1nc(N2CCc3cccc(C(=O)N=c4[n-]c5ccccc5s4)c3C2)ccc1N1CCC[C@H](N)C1 (3D coordinates assigned)
CNC(=O)c1nc(N2CCc3cccc(C(=O)N=c4[n-]c5ccccc5s4)c3C2)ccc1N1CCC[C@H](N)C1 (nonaromatic ring conformer: 134.06330530123654 kcal/mol)

>  <smiles>  (25) 
CNC(=O)c1nc(N2CCc3cccc(C(=O)N=c4[nH]c5ccccc5s4)c3C2)ccc1N1CCCC(N)C1

>  <score_type>  (25) 
oracle

>  <origin>  (25) 
adg

>  <m_score__min__energy>  (25) 
-12.300000000000001

>  <m_primary>  (25) 
energy

$$$$
25:0
     RDKit          3D

 44 46  0  0  0  0  0  0  0  0999 V2000
   61.3360   30.4810   46.7510 O   0  0  0  0  0  0  0  0  0  0  0  0
   60.2840   29.7860   46.7090 C   0  0  0  0  0  0  0  0  0  0  0  0
   60.3030   28.4560   46.0160 C   0  0  0  0  0  0  0  0  0  0  0  0
   58.9610   27.8520   46.0420 N   0  0  0  0  0  0  0  0  0  0  0  0
   58.8110   26.5870   46.5400 C   0  0  0  0  0  0  0  0  0  0  0  0
   57.5660   25.9600   46.5380 C   0  0  0  0  0  0  0  0  0  0  0  0
   56.4550   26.6260   46.0070 C   0  0  0  0  0  0  0  0  0  0  0  0
   55.1540   26.0190   45.9920 N   0  0  0  0  0  0  0  0  0  0  0  0
   54.8860   24.6200   45.8330 C   0  0  0  0  0  0  0  0  0  0  0  0
   53.8600   24.1350   46.3780 O   0  0  0  0  0  0  0  0  0  0  0  0
   55.7490   23.7400   45.0160 C   0  0  0  0  0  0  0  0  0  0  0  0
   56.8820   23.1130   45.5620 C   0  0  0  0  0  0  0  0  0  0  0  0
   57.6750   22.3030   44.7490 C   0  0  0  0  0  0  0  0  0  0  0  0
   57.3440   22.1270   43.4050 C   0  0  0  0  0  0  0  0  0  0  0  0
   56.2220   22.7780   42.8900 C   0  0  0  0  0  0  0  0  0  0  0  0
   55.4610   23.5650   43.6960 N   0  0  0  0  0  0  0  0  0  0  0  0
   56.6120   27.9260   45.5180 C   0  0  0  0  0  0  0  0  0  0  0  0
   55.5170   28.6170   45.0080 O   0  0  0  0  0  0  0  0  0  0  0  0
   57.8790   28.5260   45.5320 C   0  0  0  0  0  0  0  0  0  0  0  0
   58.0120   29.6910   45.0640 O   0  0  0  0  0  0  0  0  0  0  0  0
   59.0840   30.2500   47.3390 N   0  0  0  0  0  0  0  0  0  0  0  0
   59.0460   31.5080   48.0850 C   0  0  0  0  0  0  0  0  0  0  0  0
   59.0320   32.6790   47.1390 C   0  0  0  0  0  0  0  0  0  0  0  0
   58.2220   32.6460   45.9900 C   0  0  0  0  0  0  0  0  0  0  0  0
   58.1700   33.7490   45.1320 C   0  0  0  0  0  0  0  0  0  0  0  0
   58.9150   34.8960   45.4200 C   0  0  0  0  0  0  0  0  0  0  0  0
   59.7110   34.9430   46.5680 C   0  0  0  0  0  0  0  0  0  0  0  0
   59.7660   33.8440   47.4310 C   0  0  0  0  0  0  0  0  0  0  0  0
   60.5310   33.9150   48.5490 F   0  0  0  0  0  0  0  0  0  0  0  0
   60.6193   28.5946   44.9716 H   0  0  0  0  0  0  0  0  0  0  0  0
   61.0074   27.7898   46.5355 H   0  0  0  0  0  0  0  0  0  0  0  0
   59.6846   26.0572   46.9476 H   0  0  0  0  0  0  0  0  0  0  0  0
   57.4570   24.9466   46.9517 H   0  0  0  0  0  0  0  0  0  0  0  0
   57.1412   23.2596   46.6209 H   0  0  0  0  0  0  0  0  0  0  0  0
   58.5611   21.8031   45.1674 H   0  0  0  0  0  0  0  0  0  0  0  0
   57.9596   21.4833   42.7595 H   0  0  0  0  0  0  0  0  0  0  0  0
   55.9531   22.6541   41.8306 H   0  0  0  0  0  0  0  0  0  0  0  0
   58.2190   29.6670   47.2610 H   0  0  0  0  0  0  0  0  0  0  0  0
   58.1389   31.5334   48.7067 H   0  0  0  0  0  0  0  0  0  0  0  0
   59.9416   31.5733   48.7203 H   0  0  0  0  0  0  0  0  0  0  0  0
   57.6267   31.7487   45.7652 H   0  0  0  0  0  0  0  0  0  0  0  0
   57.5421   33.7139   44.2295 H   0  0  0  0  0  0  0  0  0  0  0  0
   58.8749   35.7620   44.7430 H   0  0  0  0  0  0  0  0  0  0  0  0
   60.2958   35.8470   46.7933 H   0  0  0  0  0  0  0  0  0  0  0  0
  1  2  2  0
  2  3  1  0
  3  4  1  0
  4  5  1  0
  5  6  2  0
  6  7  1  0
  7  8  1  0
  8  9  1  0
  9 10  2  0
  9 11  1  0
 11 12  2  0
 12 13  1  0
 13 14  2  0
 14 15  1  0
 15 16  2  0
  7 17  2  0
 17 18  1  0
 17 19  1  0
 19 20  2  0
  2 21  1  0
 21 22  1  0
 22 23  1  0
 23 24  2  0
 24 25  1  0
 25 26  2  0
 26 27  1  0
 27 28  2  0
 28 29  1  0
 19  4  1  0
 28 23  1  0
 16 11  1  0
  3 30  1  0
  3 31  1  0
  5 32  1  0
  6 33  1  0
 12 34  1  0
 13 35  1  0
 14 36  1  0
 15 37  1  0
 21 38  1  0
 22 39  1  0
 22 40  1  0
 24 41  1  0
 25 42  1  0
 26 43  1  0
 27 44  1  0
M  CHG  2   8  -1  18  -1
M  END
>  <UniqueID>  (26) 
26

>  <SMILES>  (26) 
O=C(Cn1ccc([N-]C(=O)c2ccccn2)c([O-])c1=O)NCc1ccccc1F

>  <Energy>  (26) 
51.56419176859831

>  <Genealogy>  (26) 
O=C(Cn1ccc([N-]C(=O)c2ccccn2)c([O-])c1=O)NCc1ccccc1F (protonated)
O=C(Cn1ccc([N-]C(=O)c2ccccn2)c([O-])c1=O)NCc1ccccc1F (3D coordinates assigned)
O=C(Cn1ccc([N-]C(=O)c2ccccn2)c([O-])c1=O)NCc1ccccc1F (optimized conformer: 51.56419176859831 kcal/mol)

>  <smiles>  (26) 
O=C(Cn1ccc(NC(=O)c2ccccn2)c(O)c1=O)NCc1ccccc1F

>  <score_type>  (26) 
oracle

>  <origin>  (26) 
adg

>  <m_score__min__energy>  (26) 
-13.81

>  <m_primary>  (26) 
energy

$$$$
26:0
     RDKit          3D

 43 44  0  0  0  0  0  0  0  0999 V2000
   57.8190   26.3700   42.6020 C   0  0  0  0  0  0  0  0  0  0  0  0
   58.2880   27.2350   43.7820 C   0  0  0  0  0  0  0  0  0  0  0  0
   58.0140   26.6630   45.1280 N   0  0  0  0  0  0  0  0  0  0  0  0
   57.2040   25.4240   45.1080 C   0  0  0  0  0  0  0  0  0  0  0  0
   55.9680   25.5290   46.0020 C   0  0  0  0  0  0  0  0  0  0  0  0
   57.4470   27.6500   46.0730 C   0  0  0  0  0  0  0  0  0  0  0  0
   57.4960   29.0450   45.4960 C   0  0  0  0  0  0  0  0  0  0  0  0
   58.7090   29.7500   45.5080 C   0  0  0  0  0  0  0  0  0  0  0  0
   58.7870   31.0350   44.9670 C   0  0  0  0  0  0  0  0  0  0  0  0
   57.6580   31.6410   44.4060 C   0  0  0  0  0  0  0  0  0  0  0  0
   57.7920   32.9370   43.8830 O   0  0  0  0  0  0  0  0  0  0  0  0
   57.8050   34.1410   44.6510 C   0  0  0  0  0  0  0  0  0  0  0  0
   58.5120   33.9320   45.9640 C   0  0  0  0  0  0  0  0  0  0  0  0
   59.8340   34.3780   46.1300 C   0  0  0  0  0  0  0  0  0  0  0  0
   60.4920   34.1960   47.3500 C   0  0  0  0  0  0  0  0  0  0  0  0
   59.8310   33.5770   48.4150 C   0  0  0  0  0  0  0  0  0  0  0  0
   58.5120   33.1420   48.2620 C   0  0  0  0  0  0  0  0  0  0  0  0
   57.8510   33.3230   47.0430 C   0  0  0  0  0  0  0  0  0  0  0  0
   56.4410   30.9340   44.3840 C   0  0  0  0  0  0  0  0  0  0  0  0
   56.3580   29.6460   44.9230 C   0  0  0  0  0  0  0  0  0  0  0  0
   55.1430   28.9710   44.8800 O   0  0  0  0  0  0  0  0  0  0  0  0
   57.3274   25.4634   42.9846 H   0  0  0  0  0  0  0  0  0  0  0  0
   57.1073   26.9418   41.9883 H   0  0  0  0  0  0  0  0  0  0  0  0
   58.6865   26.0856   41.9883 H   0  0  0  0  0  0  0  0  0  0  0  0
   59.3742   27.3810   43.6878 H   0  0  0  0  0  0  0  0  0  0  0  0
   57.7151   28.1722   43.7234 H   0  0  0  0  0  0  0  0  0  0  0  0
   56.8790   25.2296   44.0752 H   0  0  0  0  0  0  0  0  0  0  0  0
   57.8299   24.6045   45.4910 H   0  0  0  0  0  0  0  0  0  0  0  0
   56.2758   25.5029   47.0577 H   0  0  0  0  0  0  0  0  0  0  0  0
   55.4455   26.4748   45.7957 H   0  0  0  0  0  0  0  0  0  0  0  0
   55.2935   24.6849   45.7957 H   0  0  0  0  0  0  0  0  0  0  0  0
   56.4005   27.3851   46.2843 H   0  0  0  0  0  0  0  0  0  0  0  0
   58.0441   27.6326   46.9967 H   0  0  0  0  0  0  0  0  0  0  0  0
   59.6052   29.2871   45.9468 H   0  0  0  0  0  0  0  0  0  0  0  0
   59.7449   31.5755   44.9821 H   0  0  0  0  0  0  0  0  0  0  0  0
   58.3256   34.9256   44.0823 H   0  0  0  0  0  0  0  0  0  0  0  0
   56.7661   34.4399   44.8544 H   0  0  0  0  0  0  0  0  0  0  0  0
   60.3537   34.8727   45.2962 H   0  0  0  0  0  0  0  0  0  0  0  0
   61.5297   34.5398   47.4719 H   0  0  0  0  0  0  0  0  0  0  0  0
   60.3497   33.4323   49.3742 H   0  0  0  0  0  0  0  0  0  0  0  0
   57.9929   32.6565   49.1015 H   0  0  0  0  0  0  0  0  0  0  0  0
   56.8097   32.9872   46.9290 H   0  0  0  0  0  0  0  0  0  0  0  0
   55.5483   31.3981   43.9394 H   0  0  0  0  0  0  0  0  0  0  0  0
  1  2  1  0
  2  3  1  0
  3  4  1  0
  4  5  1  0
  3  6  1  0
  6  7  1  0
  7  8  2  0
  8  9  1  0
  9 10  2  0
 10 11  1  0
 11 12  1  0
 12 13  1  0
 13 14  2  0
 14 15  1  0
 15 16  2  0
 16 17  1  0
 17 18  2  0
 10 19  1  0
 19 20  2  0
 20 21  1  0
 20  7  1  0
 18 13  1  0
  1 22  1  0
  1 23  1  0
  1 24  1  0
  2 25  1  0
  2 26  1  0
  4 27  1  0
  4 28  1  0
  5 29  1  0
  5 30  1  0
  5 31  1  0
  6 32  1  0
  6 33  1  0
  8 34  1  0
  9 35  1  0
 12 36  1  0
 12 37  1  0
 14 38  1  0
 15 39  1  0
 16 40  1  0
 17 41  1  0
 18 42  1  0
 19 43  1  0
M  CHG  1  21  -1
M  END
>  <UniqueID>  (27) 
27

>  <SMILES>  (27) 
CCN(CC)Cc1ccc(OCc2ccccc2)cc1[O-]

>  <Energy>  (27) 
45.48171557725454

>  <Genealogy>  (27) 
CCN(CC)Cc1ccc(OCc2ccccc2)cc1[O-] (protonated)
CCN(CC)Cc1ccc(OCc2ccccc2)cc1[O-] (3D coordinates assigned)
CCN(CC)Cc1ccc(OCc2ccccc2)cc1[O-] (optimized conformer: 45.48171557725454 kcal/mol)

>  <smiles>  (27) 
CCN(CC)Cc1ccc(OCc2ccccc2)cc1O

>  <score_type>  (27) 
oracle

>  <origin>  (27) 
adg

>  <m_score__min__energy>  (27) 
-10.199999999999999

>  <m_primary>  (27) 
energy

$$$$
27:0
     RDKit          3D

 27 28  0  0  0  0  0  0  0  0999 V2000
   59.9900   27.0800   48.5340 O   0  0  0  0  0  0  0  0  0  0  0  0
   59.8980   27.0500   47.2780 C   0  0  0  0  0  0  0  0  0  0  0  0
   59.9410   28.3420   46.5050 C   0  0  0  0  0  0  0  0  0  0  0  0
   59.7520   28.0670   44.7060 S   0  0  0  0  0  0  0  0  0  0  0  0
   58.4270   29.2530   44.5130 C   0  0  0  0  0  0  0  0  0  0  0  0
   58.7100   30.5380   44.1690 N   0  0  0  0  0  0  0  0  0  0  0  0
   57.7170   31.4500   44.0070 C   0  0  0  0  0  0  0  0  0  0  0  0
   57.9990   32.6340   43.6840 O   0  0  0  0  0  0  0  0  0  0  0  0
   56.3870   31.0720   44.1950 C   0  0  0  0  0  0  0  0  0  0  0  0
   56.1170   29.7510   44.5530 C   0  0  0  0  0  0  0  0  0  0  0  0
   54.8070   29.3340   44.7510 O   0  0  0  0  0  0  0  0  0  0  0  0
   57.1380   28.8680   44.7060 N   0  0  0  0  0  0  0  0  0  0  0  0
   59.5680   25.8060   46.6450 N   0  0  0  0  0  0  0  0  0  0  0  0
   58.2610   25.3770   46.2440 C   0  0  0  0  0  0  0  0  0  0  0  0
   58.1170   24.1460   45.5900 C   0  0  0  0  0  0  0  0  0  0  0  0
   56.8580   23.7210   45.1570 C   0  0  0  0  0  0  0  0  0  0  0  0
   55.7380   24.5340   45.3540 C   0  0  0  0  0  0  0  0  0  0  0  0
   55.8780   25.7790   45.9760 C   0  0  0  0  0  0  0  0  0  0  0  0
   54.7690   26.5970   46.1550 O   0  0  0  0  0  0  0  0  0  0  0  0
   57.1380   26.2040   46.4120 C   0  0  0  0  0  0  0  0  0  0  0  0
   59.1248   28.9921   46.8531 H   0  0  0  0  0  0  0  0  0  0  0  0
   60.9215   28.8100   46.6773 H   0  0  0  0  0  0  0  0  0  0  0  0
   55.5711   31.7981   44.0641 H   0  0  0  0  0  0  0  0  0  0  0  0
   58.9987   23.5115   45.4167 H   0  0  0  0  0  0  0  0  0  0  0  0
   56.7482   22.7455   44.6606 H   0  0  0  0  0  0  0  0  0  0  0  0
   54.7465   24.1946   45.0198 H   0  0  0  0  0  0  0  0  0  0  0  0
   57.2495   27.1894   46.8881 H   0  0  0  0  0  0  0  0  0  0  0  0
  1  2  2  0
  2  3  1  0
  3  4  1  0
  4  5  1  0
  5  6  2  0
  6  7  1  0
  7  8  2  0
  7  9  1  0
  9 10  2  0
 10 11  1  0
 10 12  1  0
  2 13  1  0
 13 14  1  0
 14 15  2  0
 15 16  1  0
 16 17  2  0
 17 18  1  0
 18 19  1  0
 18 20  2  0
 12  5  1  0
 20 14  1  0
  3 21  1  0
  3 22  1  0
  9 23  1  0
 15 24  1  0
 16 25  1  0
 17 26  1  0
 20 27  1  0
M  CHG  4  11  -1  12  -1  13  -1  19  -1
M  END
>  <UniqueID>  (28) 
28

>  <SMILES>  (28) 
O=C(CSc1nc(=O)cc([O-])[n-]1)[N-]c1cccc([O-])c1

>  <Energy>  (28) 
29.54781529985989

>  <Genealogy>  (28) 
O=C(CSc1nc(=O)cc([O-])[n-]1)[N-]c1cccc([O-])c1 (protonated)
O=C(CSc1nc(=O)cc([O-])[n-]1)[N-]c1cccc([O-])c1 (3D coordinates assigned)
O=C(CSc1nc(=O)cc([O-])[n-]1)[N-]c1cccc([O-])c1 (optimized conformer: 29.54781529985989 kcal/mol)

>  <smiles>  (28) 
O=C(CSc1nc(=O)cc(O)[nH]1)Nc1cccc(O)c1

>  <score_type>  (28) 
oracle

>  <origin>  (28) 
adg

>  <m_score__min__energy>  (28) 
-16.219999999999999

>  <m_primary>  (28) 
energy

$$$$
28:0
     RDKit          3D

 51 53  0  0  0  0  0  0  0  0999 V2000
   58.8680   30.7340   48.3780 C   0  0  0  0  0  0  0  0  0  0  0  0
   59.5300   30.9900   49.6120 O   0  0  0  0  0  0  0  0  0  0  0  0
   59.0470   31.8520   50.6100 C   0  0  0  0  0  0  0  0  0  0  0  0
   57.8100   31.6240   51.2450 C   0  0  0  0  0  0  0  0  0  0  0  0
   57.3410   32.5060   52.2210 C   0  0  0  0  0  0  0  0  0  0  0  0
   58.0950   33.6250   52.5730 C   0  0  0  0  0  0  0  0  0  0  0  0
   59.3240   33.8640   51.9550 C   0  0  0  0  0  0  0  0  0  0  0  0
   59.8180   32.9770   50.9840 C   0  0  0  0  0  0  0  0  0  0  0  0
   61.1420   33.2740   50.3170 C   0  0  0  0  0  0  0  0  0  0  0  0
   60.9510   34.0470   49.0080 C   0  0  0  0  0  0  0  0  0  0  0  0
   59.6240   33.8030   48.4480 N   0  0  0  0  0  0  0  0  0  0  0  0
   59.1890   34.4070   47.2190 C   0  0  0  0  0  0  0  0  0  0  0  0
   59.8980   35.2850   46.6600 O   0  0  0  0  0  0  0  0  0  0  0  0
   57.9920   33.9690   46.5670 N   0  0  0  0  0  0  0  0  0  0  0  0
   57.9400   33.1710   45.3790 C   0  0  0  0  0  0  0  0  0  0  0  0
   58.4650   33.6370   44.1620 C   0  0  0  0  0  0  0  0  0  0  0  0
   58.4130   32.8300   43.0220 C   0  0  0  0  0  0  0  0  0  0  0  0
   57.8390   31.5580   43.0880 C   0  0  0  0  0  0  0  0  0  0  0  0
   57.3230   31.0820   44.3020 C   0  0  0  0  0  0  0  0  0  0  0  0
   56.5510   29.5040   44.3970 S   0  0  0  0  0  0  0  0  0  0  0  0
   56.9980   28.6720   43.2270 O   0  0  0  0  0  0  0  0  0  0  0  0
   55.0540   29.6310   44.3560 O   0  0  0  0  0  0  0  0  0  0  0  0
   57.0180   28.7140   45.8680 N   0  0  0  0  0  0  0  0  0  0  0  0
   57.4110   27.3380   45.9840 C   0  0  0  0  0  0  0  0  0  0  0  0
   58.7640   26.9510   46.0430 C   0  0  0  0  0  0  0  0  0  0  0  0
   59.1050   25.6010   46.1650 C   0  0  0  0  0  0  0  0  0  0  0  0
   58.1050   24.6290   46.2380 C   0  0  0  0  0  0  0  0  0  0  0  0
   56.7620   25.0040   46.1750 C   0  0  0  0  0  0  0  0  0  0  0  0
   56.4130   26.3530   46.0440 C   0  0  0  0  0  0  0  0  0  0  0  0
   55.0720   26.7090   45.9750 O   0  0  0  0  0  0  0  0  0  0  0  0
   57.3960   31.8840   45.4490 C   0  0  0  0  0  0  0  0  0  0  0  0
   57.8590   30.3438   48.5772 H   0  0  0  0  0  0  0  0  0  0  0  0
   58.7928   31.6679   47.8016 H   0  0  0  0  0  0  0  0  0  0  0  0
   59.4407   29.9925   47.8016 H   0  0  0  0  0  0  0  0  0  0  0  0
   57.2091   30.7446   50.9699 H   0  0  0  0  0  0  0  0  0  0  0  0
   56.3753   32.3177   52.7129 H   0  0  0  0  0  0  0  0  0  0  0  0
   57.7209   34.3205   53.3387 H   0  0  0  0  0  0  0  0  0  0  0  0
   59.9098   34.7534   52.2304 H   0  0  0  0  0  0  0  0  0  0  0  0
   61.7594   33.8755   51.0004 H   0  0  0  0  0  0  0  0  0  0  0  0
   61.6331   32.3176   50.0843 H   0  0  0  0  0  0  0  0  0  0  0  0
   61.0666   35.1230   49.2049 H   0  0  0  0  0  0  0  0  0  0  0  0
   61.7062   33.7057   48.2846 H   0  0  0  0  0  0  0  0  0  0  0  0
   59.0690   33.0190   48.8590 H   0  0  0  0  0  0  0  0  0  0  0  0
   58.9175   34.6381   44.1063 H   0  0  0  0  0  0  0  0  0  0  0  0
   58.8250   33.1973   42.0705 H   0  0  0  0  0  0  0  0  0  0  0  0
   57.7918   30.9291   42.1867 H   0  0  0  0  0  0  0  0  0  0  0  0
   59.5550   27.7138   45.9929 H   0  0  0  0  0  0  0  0  0  0  0  0
   60.1633   25.3036   46.2036 H   0  0  0  0  0  0  0  0  0  0  0  0
   58.3756   23.5682   46.3451 H   0  0  0  0  0  0  0  0  0  0  0  0
   55.9755   24.2369   46.2285 H   0  0  0  0  0  0  0  0  0  0  0  0
   57.0234   31.4993   46.4098 H   0  0  0  0  0  0  0  0  0  0  0  0
  1  2  1  0
  2  3  1  0
  3  4  2  0
  4  5  1  0
  5  6  2  0
  6  7  1  0
  7  8  2  0
  8  9  1  0
  9 10  1  0
 10 11  1  0
 11 12  1  0
 12 13  2  0
 12 14  1  0
 14 15  1  0
 15 16  2  0
 16 17  1  0
 17 18  2  0
 18 19  1  0
 19 20  1  0
 20 21  2  0
 20 22  2  0
 20 23  1  0
 23 24  1  0
 24 25  2  0
 25 26  1  0
 26 27  2  0
 27 28  1  0
 28 29  2  0
 29 30  1  0
 19 31  2  0
  8  3  1  0
 31 15  1  0
 29 24  1  0
  1 32  1  0
  1 33  1  0
  1 34  1  0
  4 35  1  0
  5 36  1  0
  6 37  1  0
  7 38  1  0
  9 39  1  0
  9 40  1  0
 10 41  1  0
 10 42  1  0
 11 43  1  0
 16 44  1  0
 17 45  1  0
 18 46  1  0
 25 47  1  0
 26 48  1  0
 27 49  1  0
 28 50  1  0
 31 51  1  0
M  CHG  3  14  -1  23  -1  30  -1
M  END
>  <UniqueID>  (29) 
29

>  <SMILES>  (29) 
COc1ccccc1CCNC(=O)[N-]c1cccc(S(=O)(=O)[N-]c2ccccc2[O-])c1

>  <Energy>  (29) 
51.261663133153284

>  <Genealogy>  (29) 
COc1ccccc1CCNC(=O)[N-]c1cccc(S(=O)(=O)[N-]c2ccccc2[O-])c1 (protonated)
COc1ccccc1CCNC(=O)[N-]c1cccc(S(=O)(=O)[N-]c2ccccc2[O-])c1 (3D coordinates assigned)
COc1ccccc1CCNC(=O)[N-]c1cccc(S(=O)(=O)[N-]c2ccccc2[O-])c1 (optimized conformer: 51.261663133153284 kcal/mol)

>  <smiles>  (29) 
COc1ccccc1CCNC(=O)Nc1cccc(S(=O)(=O)Nc2ccccc2O)c1

>  <score_type>  (29) 
oracle

>  <origin>  (29) 
adg

>  <m_score__min__energy>  (29) 
-15.33

>  <m_primary>  (29) 
energy

$$$$
29:0
     RDKit          3D

 59 62  0  0  0  0  0  0  0  0999 V2000
   55.2460   31.0310   52.1150 C   0  0  0  0  0  0  0  0  0  0  0  0
   56.7750   31.0350   52.2060 C   0  0  0  0  0  0  0  0  0  0  0  0
   57.3520   32.4440   52.0550 C   0  0  0  0  0  0  0  0  0  0  0  0
   57.3700   30.0880   51.2570 N   0  0  0  0  0  0  0  0  0  0  0  0
   58.7530   29.7370   51.0960 C   0  0  0  0  0  0  0  0  0  0  0  0
   59.2570   28.8950   51.8830 O   0  0  0  0  0  0  0  0  0  0  0  0
   59.6050   30.3160   50.0460 C   0  0  0  0  0  0  0  0  0  0  0  0
   59.9170   31.6390   50.1110 N   0  0  0  0  0  0  0  0  0  0  0  0
   60.7020   32.2280   49.1720 C   0  0  0  0  0  0  0  0  0  0  0  0
   61.0170   33.5890   49.2580 C   0  0  0  0  0  0  0  0  0  0  0  0
   61.8380   34.1750   48.2880 C   0  0  0  0  0  0  0  0  0  0  0  0
   62.3440   33.4030   47.2340 C   0  0  0  0  0  0  0  0  0  0  0  0
   62.0280   32.0430   47.1430 C   0  0  0  0  0  0  0  0  0  0  0  0
   61.2060   31.4530   48.1100 C   0  0  0  0  0  0  0  0  0  0  0  0
   60.8710   30.1390   48.0260 N   0  0  0  0  0  0  0  0  0  0  0  0
   60.0610   29.5550   48.9480 C   0  0  0  0  0  0  0  0  0  0  0  0
   59.7050   28.2100   48.7840 O   0  0  0  0  0  0  0  0  0  0  0  0
   59.1310   27.6920   47.6140 C   0  0  0  0  0  0  0  0  0  0  0  0
   59.1710   26.3120   47.3900 C   0  0  0  0  0  0  0  0  0  0  0  0
   58.6150   25.7690   46.2280 C   0  0  0  0  0  0  0  0  0  0  0  0
   58.0130   26.6040   45.2810 C   0  0  0  0  0  0  0  0  0  0  0  0
   57.9570   27.9860   45.4920 C   0  0  0  0  0  0  0  0  0  0  0  0
   57.3520   28.8000   44.5210 O   0  0  0  0  0  0  0  0  0  0  0  0
   56.3390   29.7250   44.7940 C   0  0  0  0  0  0  0  0  0  0  0  0
   55.1440   29.3450   44.8790 O   0  0  0  0  0  0  0  0  0  0  0  0
   56.6790   31.1070   44.9300 N   0  0  0  0  0  0  0  0  0  0  0  0
   58.0030   31.7130   45.1200 C   0  0  0  0  0  0  0  0  0  0  0  0
   58.3590   31.9030   46.6130 C   0  0  0  0  0  0  0  0  0  0  0  0
   57.9650   33.2700   47.1850 C   0  0  0  0  0  0  0  0  0  0  0  0
   58.4930   34.4050   46.3080 C   0  0  0  0  0  0  0  0  0  0  0  0
   57.9280   34.3100   44.8900 C   0  0  0  0  0  0  0  0  0  0  0  0
   58.2450   32.9580   44.2300 C   0  0  0  0  0  0  0  0  0  0  0  0
   58.5400   28.5300   46.6510 C   0  0  0  0  0  0  0  0  0  0  0  0
   54.8184   31.0299   53.1285 H   0  0  0  0  0  0  0  0  0  0  0  0
   54.9084   31.9283   51.5756 H   0  0  0  0  0  0  0  0  0  0  0  0
   54.9131   30.1320   51.5756 H   0  0  0  0  0  0  0  0  0  0  0  0
   57.0453   30.6930   53.2159 H   0  0  0  0  0  0  0  0  0  0  0  0
   57.5291   32.8764   53.0508 H   0  0  0  0  0  0  0  0  0  0  0  0
   58.3020   32.3939   51.5028 H   0  0  0  0  0  0  0  0  0  0  0  0
   56.6397   33.0747   51.5028 H   0  0  0  0  0  0  0  0  0  0  0  0
   60.6205   34.1960   50.0853 H   0  0  0  0  0  0  0  0  0  0  0  0
   62.0867   35.2445   48.3532 H   0  0  0  0  0  0  0  0  0  0  0  0
   62.9916   33.8674   46.4758 H   0  0  0  0  0  0  0  0  0  0  0  0
   62.4246   31.4391   46.3136 H   0  0  0  0  0  0  0  0  0  0  0  0
   59.6423   25.6506   48.1319 H   0  0  0  0  0  0  0  0  0  0  0  0
   58.6510   24.6828   46.0581 H   0  0  0  0  0  0  0  0  0  0  0  0
   57.5815   26.1721   44.3660 H   0  0  0  0  0  0  0  0  0  0  0  0
   58.7361   30.9822   44.7479 H   0  0  0  0  0  0  0  0  0  0  0  0
   57.8414   31.1245   47.1927 H   0  0  0  0  0  0  0  0  0  0  0  0
   59.4542   31.8333   46.6877 H   0  0  0  0  0  0  0  0  0  0  0  0
   56.8682   33.3357   47.2362 H   0  0  0  0  0  0  0  0  0  0  0  0
   58.4049   33.3694   48.1883 H   0  0  0  0  0  0  0  0  0  0  0  0
   58.1971   35.3681   46.7494 H   0  0  0  0  0  0  0  0  0  0  0  0
   59.5889   34.3260   46.2547 H   0  0  0  0  0  0  0  0  0  0  0  0
   56.8361   34.4357   44.9342 H   0  0  0  0  0  0  0  0  0  0  0  0
   58.3968   35.1002   44.2851 H   0  0  0  0  0  0  0  0  0  0  0  0
   57.6155   32.8619   43.3331 H   0  0  0  0  0  0  0  0  0  0  0  0
   59.3233   32.9713   44.0128 H   0  0  0  0  0  0  0  0  0  0  0  0
   58.5337   29.6191   46.8054 H   0  0  0  0  0  0  0  0  0  0  0  0
  1  2  1  0
  2  3  1  0
  2  4  1  0
  4  5  1  0
  5  6  2  0
  5  7  1  0
  7  8  2  0
  8  9  1  0
  9 10  2  0
 10 11  1  0
 11 12  2  0
 12 13  1  0
 13 14  2  0
 14 15  1  0
 15 16  2  0
 16 17  1  0
 17 18  1  0
 18 19  2  0
 19 20  1  0
 20 21  2  0
 21 22  1  0
 22 23  1  0
 23 24  1  0
 24 25  2  0
 24 26  1  0
 26 27  1  0
 27 28  1  0
 28 29  1  0
 29 30  1  0
 30 31  1  0
 31 32  1  0
 22 33  2  0
 16  7  1  0
 33 18  1  0
 14  9  1  0
 32 27  1  0
  1 34  1  0
  1 35  1  0
  1 36  1  0
  2 37  1  0
  3 38  1  0
  3 39  1  0
  3 40  1  0
 10 41  1  0
 11 42  1  0
 12 43  1  0
 13 44  1  0
 19 45  1  0
 20 46  1  0
 21 47  1  0
 27 48  1  0
 28 49  1  0
 28 50  1  0
 29 51  1  0
 29 52  1  0
 30 53  1  0
 30 54  1  0
 31 55  1  0
 31 56  1  0
 32 57  1  0
 32 58  1  0
 33 59  1  0
M  CHG  2   4  -1  26  -1
M  END
>  <UniqueID>  (30) 
30

>  <SMILES>  (30) 
CC(C)[N-]C(=O)c1nc2ccccc2nc1Oc1cccc(OC(=O)[N-]C2CCCCC2)c1

>  <Energy>  (30) 
81.35364580016477

>  <Genealogy>  (30) 
CC(C)[N-]C(=O)c1nc2ccccc2nc1Oc1cccc(OC(=O)[N-]C2CCCCC2)c1 (protonated)
CC(C)[N-]C(=O)c1nc2ccccc2nc1Oc1cccc(OC(=O)[N-]C2CCCCC2)c1 (3D coordinates assigned)
CC(C)[N-]C(=O)c1nc2ccccc2nc1Oc1cccc(OC(=O)[N-]C2CCCCC2)c1 (nonaromatic ring conformer: 81.35364580016477 kcal/mol)

>  <smiles>  (30) 
CC(C)NC(=O)c1nc2ccccc2nc1Oc1cccc(OC(=O)NC2CCCCC2)c1

>  <score_type>  (30) 
oracle

>  <origin>  (30) 
adg

>  <m_score__min__energy>  (30) 
-11.66

>  <m_primary>  (30) 
energy

$$$$
30:0
     RDKit          3D

 44 47  0  0  0  0  0  0  0  0999 V2000
   64.8383   33.2983   48.5603 H   0  0  0  0  0  0  0  0  0  0  0  0
   63.7790   33.4650   48.3150 C   0  0  0  0  0  0  0  0  0  0  0  0
   62.8860   33.8710   49.3110 C   0  0  0  0  0  0  0  0  0  0  0  0
   63.2449   34.0310   50.3384 H   0  0  0  0  0  0  0  0  0  0  0  0
   61.5370   34.0740   49.0030 C   0  0  0  0  0  0  0  0  0  0  0  0
   60.8406   34.4119   49.7846 H   0  0  0  0  0  0  0  0  0  0  0  0
   61.0680   33.8470   47.6950 C   0  0  0  0  0  0  0  0  0  0  0  0
   59.6990   34.0860   47.3340 N   0  0  0  0  0  0  0  0  0  0  0  0
   59.0720   33.5870   46.3080 C   0  0  0  0  0  0  0  0  0  0  0  0
   58.0560   32.2350   46.3160 S   0  0  0  0  0  0  0  0  0  0  0  0
   57.7940   32.3170   44.6560 C   0  0  0  0  0  0  0  0  0  0  0  0
   56.7470   31.2070   43.7250 S   0  0  0  0  0  0  0  0  0  0  0  0
   57.4900   29.7530   44.4620 C   0  0  0  0  0  0  0  0  0  0  0  0
   58.8750   29.6940   44.6490 C   0  0  0  0  0  0  0  0  0  0  0  0
   59.5085   30.5371   44.3363 H   0  0  0  0  0  0  0  0  0  0  0  0
   59.4530   28.5660   45.2320 C   0  0  0  0  0  0  0  0  0  0  0  0
   60.5421   28.5222   45.3798 H   0  0  0  0  0  0  0  0  0  0  0  0
   58.6520   27.4910   45.6290 C   0  0  0  0  0  0  0  0  0  0  0  0
   59.1148   26.6051   46.0882 H   0  0  0  0  0  0  0  0  0  0  0  0
   57.2580   27.5350   45.4450 C   0  0  0  0  0  0  0  0  0  0  0  0
   56.4050   26.3980   45.8660 C   0  0  0  0  0  0  0  0  0  0  0  0
   55.1660   26.5690   46.0310 O   0  0  0  0  0  0  0  0  0  0  0  0
   56.9950   25.1180   46.1350 N   0  0  0  0  0  0  0  0  0  0  0  0
   57.1390   24.0290   45.2130 C   0  0  0  0  0  0  0  0  0  0  0  0
   58.1110   23.0240   45.3870 C   0  0  0  0  0  0  0  0  0  0  0  0
   58.8010   23.0707   46.2424 H   0  0  0  0  0  0  0  0  0  0  0  0
   58.2010   21.9680   44.4760 C   0  0  0  0  0  0  0  0  0  0  0  0
   58.9695   21.1924   44.6093 H   0  0  0  0  0  0  0  0  0  0  0  0
   57.3170   21.8950   43.3960 C   0  0  0  0  0  0  0  0  0  0  0  0
   57.3939   21.0664   42.6766 H   0  0  0  0  0  0  0  0  0  0  0  0
   56.3350   22.8760   43.2310 C   0  0  0  0  0  0  0  0  0  0  0  0
   55.6348   22.8158   42.3848 H   0  0  0  0  0  0  0  0  0  0  0  0
   56.2420   23.9340   44.1410 C   0  0  0  0  0  0  0  0  0  0  0  0
   55.4594   24.6966   44.0142 H   0  0  0  0  0  0  0  0  0  0  0  0
   56.6840   28.6770   44.8540 C   0  0  0  0  0  0  0  0  0  0  0  0
   55.5960   28.7242   44.6993 H   0  0  0  0  0  0  0  0  0  0  0  0
   58.5110   33.3860   44.1350 C   0  0  0  0  0  0  0  0  0  0  0  0
   58.5031   33.6467   43.0664 H   0  0  0  0  0  0  0  0  0  0  0  0
   59.2230   34.0820   45.0590 N   0  0  0  0  0  0  0  0  0  0  0  0
   59.8190   34.9070   44.8250 H   0  0  0  0  0  0  0  0  0  0  0  0
   61.9760   33.4720   46.6970 C   0  0  0  0  0  0  0  0  0  0  0  0
   61.6262   33.3347   45.6632 H   0  0  0  0  0  0  0  0  0  0  0  0
   63.3250   33.2710   47.0070 C   0  0  0  0  0  0  0  0  0  0  0  0
   64.0292   32.9601   46.2212 H   0  0  0  0  0  0  0  0  0  0  0  0
  1  2  1  0
  2  3  2  0
  3  4  1  0
  3  5  1  0
  5  6  1  0
  5  7  2  0
  7  8  1  0
  8  9  2  0
  9 10  1  0
 10 11  1  0
 11 12  1  0
 12 13  1  0
 13 14  2  0
 14 15  1  0
 14 16  1  0
 16 17  1  0
 16 18  2  0
 18 19  1  0
 18 20  1  0
 20 21  1  0
 21 22  2  0
 21 23  1  0
 23 24  1  0
 24 25  2  0
 25 26  1  0
 25 27  1  0
 27 28  1  0
 27 29  2  0
 29 30  1  0
 29 31  1  0
 31 32  1  0
 31 33  2  0
 33 34  1  0
 20 35  2  0
 35 36  1  0
 11 37  2  0
 37 38  1  0
 37 39  1  0
 39 40  1  0
  7 41  1  0
 41 42  1  0
 41 43  2  0
 43 44  1  0
 43  2  1  0
 39  9  1  0
 35 13  1  0
 33 24  1  0
M  CHG  1  23  -1
M  END
>  <UniqueID>  (31) 
31

>  <SMILES>  (31) 
O=C([N-]c1ccccc1)c1cccc(Sc2c[nH]/c(=N/c3ccccc3)s2)c1

>  <Energy>  (31) 
86.23818034974654

>  <Genealogy>  (31) 
O=C([N-]c1ccccc1)c1cccc(Sc2c[nH]c(=Nc3ccccc3)s2)c1 (protonated)
O=C([N-]c1ccccc1)c1cccc(Sc2c[nH]/c(=N/c3ccccc3)s2)c1 (cis-trans isomerization)
O=C([N-]c1ccccc1)c1cccc(Sc2c[nH]/c(=N/c3ccccc3)s2)c1 (3D coordinates assigned)
O=C([N-]c1ccccc1)c1cccc(Sc2c[nH]/c(=N/c3ccccc3)s2)c1 (optimized conformer: 86.23818034974654 kcal/mol)

>  <smiles>  (31) 
O=C(Nc1ccccc1)c1cccc(Sc2c[nH]c(=Nc3ccccc3)s2)c1

>  <score_type>  (31) 
oracle

>  <origin>  (31) 
adg

>  <m_score__min__energy>  (31) 
-11.119999999999999

>  <m_primary>  (31) 
energy

$$$$
31:0
     RDKit          3D

 43 46  0  0  0  0  0  0  0  0999 V2000
   56.0227   22.7948   42.2718 H   0  0  0  0  0  0  0  0  0  0  0  0
   56.2150   22.7310   43.3530 C   0  0  0  0  0  0  0  0  0  0  0  0
   56.7180   21.5510   43.9040 C   0  0  0  0  0  0  0  0  0  0  0  0
   56.9076   20.6809   43.2583 H   0  0  0  0  0  0  0  0  0  0  0  0
   56.9810   21.4730   45.2740 C   0  0  0  0  0  0  0  0  0  0  0  0
   57.3830   20.5427   45.7017 H   0  0  0  0  0  0  0  0  0  0  0  0
   56.7340   22.5800   46.1110 C   0  0  0  0  0  0  0  0  0  0  0  0
   57.0460   22.5530   47.4800 O   0  0  0  0  0  0  0  0  0  0  0  0
   56.0870   22.6010   48.5300 C   0  0  0  0  0  0  0  0  0  0  0  0
   56.6042   22.5751   49.5005 H   0  0  0  0  0  0  0  0  0  0  0  0
   55.5026   23.5295   48.4506 H   0  0  0  0  0  0  0  0  0  0  0  0
   55.4128   21.7355   48.4506 H   0  0  0  0  0  0  0  0  0  0  0  0
   56.1810   23.7560   45.5540 C   0  0  0  0  0  0  0  0  0  0  0  0
   55.9000   24.9150   46.3560 N   0  0  0  0  0  0  0  0  0  0  0  0
   56.4580   26.0820   46.2240 C   0  0  0  0  0  0  0  0  0  0  0  0
   55.7660   27.0930   45.6230 N   0  0  0  0  0  0  0  0  0  0  0  0
   56.2890   28.3420   45.4610 C   0  0  0  0  0  0  0  0  0  0  0  0
   55.5500   29.2430   44.8770 N   0  0  0  0  0  0  0  0  0  0  0  0
   55.6600   29.7680   43.5220 C   0  0  0  0  0  0  0  0  0  0  0  0
   54.5872   29.7942   43.2803 H   0  0  0  0  0  0  0  0  0  0  0  0
   56.8160   30.7310   43.3180 C   0  0  0  0  0  0  0  0  0  0  0  0
   56.7267   31.5511   42.5904 H   0  0  0  0  0  0  0  0  0  0  0  0
   57.4131   31.3796   43.9759 H   0  0  0  0  0  0  0  0  0  0  0  0
   56.9300   29.2950   42.8340 C   0  0  0  0  0  0  0  0  0  0  0  0
   56.9228   29.0755   41.7561 H   0  0  0  0  0  0  0  0  0  0  0  0
   57.6432   28.4734   42.9963 H   0  0  0  0  0  0  0  0  0  0  0  0
   57.5990   28.5520   45.9480 C   0  0  0  0  0  0  0  0  0  0  0  0
   58.2330   27.5340   46.5490 N   0  0  0  0  0  0  0  0  0  0  0  0
   57.7120   26.3220   46.7000 N   0  0  0  0  0  0  0  0  0  0  0  0
   59.4570   27.9610   46.8920 C   0  0  0  0  0  0  0  0  0  0  0  0
   60.5420   27.1020   47.4600 C   0  0  0  0  0  0  0  0  0  0  0  0
   60.4992   27.1359   48.5586 H   0  0  0  0  0  0  0  0  0  0  0  0
   60.4048   26.0651   47.1195 H   0  0  0  0  0  0  0  0  0  0  0  0
   61.5198   27.4734   47.1195 H   0  0  0  0  0  0  0  0  0  0  0  0
   59.5560   29.2760   46.4600 C   0  0  0  0  0  0  0  0  0  0  0  0
   60.7720   30.1440   46.5380 C   0  0  0  0  0  0  0  0  0  0  0  0
   61.0260   30.3253   47.5928 H   0  0  0  0  0  0  0  0  0  0  0  0
   61.6138   29.6414   46.0393 H   0  0  0  0  0  0  0  0  0  0  0  0
   60.5702   31.1035   46.0393 H   0  0  0  0  0  0  0  0  0  0  0  0
   58.3920   29.6480   45.8730 N   0  0  0  0  0  0  0  0  0  0  0  0
   58.2150   30.5750   45.4360 H   0  0  0  0  0  0  0  0  0  0  0  0
   55.9560   23.8300   44.1740 C   0  0  0  0  0  0  0  0  0  0  0  0
   55.5720   24.7618   43.7331 H   0  0  0  0  0  0  0  0  0  0  0  0
  1  2  1  0
  2  3  2  0
  3  4  1  0
  3  5  1  0
  5  6  1  0
  5  7  2  0
  7  8  1  0
  8  9  1  0
  9 10  1  0
  9 11  1  0
  9 12  1  0
  7 13  1  0
 13 14  1  0
 14 15  2  0
 15 16  1  0
 16 17  1  0
 17 18  2  0
 18 19  1  0
 19 20  1  0
 19 21  1  0
 21 22  1  0
 21 23  1  0
 21 24  1  0
 24 25  1  0
 24 26  1  0
 17 27  1  0
 27 28  1  0
 28 29  1  0
 28 30  1  0
 30 31  1  0
 31 32  1  0
 31 33  1  0
 31 34  1  0
 30 35  2  0
 35 36  1  0
 36 37  1  0
 36 38  1  0
 36 39  1  0
 35 40  1  0
 40 41  1  0
 13 42  2  0
 42 43  1  0
 42  2  1  0
 29 15  1  0
 24 19  1  0
 40 27  2  0
M  CHG  3  16  -1  29  -1  40   1
M  END
>  <UniqueID>  (32) 
32

>  <SMILES>  (32) 
COc1ccccc1/N=c1/[n-]/c(=N/C2CC2)c2[nH+]c(C)c(C)n2[n-]1

>  <Energy>  (32) 
359.6757647748771

>  <Genealogy>  (32) 
COc1ccccc1N=c1[n-]c(=NC2CC2)c2[nH+]c(C)c(C)n2[n-]1 (protonated)
COc1ccccc1/N=c1/[n-]/c(=N/C2CC2)c2[nH+]c(C)c(C)n2[n-]1 (cis-trans isomerization)
COc1ccccc1/N=c1/[n-]/c(=N/C2CC2)c2[nH+]c(C)c(C)n2[n-]1 (3D coordinates assigned)
COc1ccccc1/N=c1/[n-]/c(=N/C2CC2)c2[nH+]c(C)c(C)n2[n-]1 (nonaromatic ring conformer: 359.6757647748771 kcal/mol)

>  <smiles>  (32) 
COc1ccccc1N=c1[nH]c(=NC2CC2)c2nc(C)c(C)n2[nH]1

>  <score_type>  (32) 
oracle

>  <origin>  (32) 
adg

>  <m_score__min__energy>  (32) 
-9.1799999999999997

>  <m_primary>  (32) 
energy

$$$$
32:0
     RDKit          3D

 40 42  0  0  0  0  0  0  0  0999 V2000
   55.8700   34.8190   45.7260 H   0  0  0  0  0  0  0  0  0  0  0  0
   56.7200   34.5890   45.2270 O   0  0  0  0  0  0  0  0  0  0  0  0
   57.7940   33.9720   45.8650 C   0  0  0  0  0  0  0  0  0  0  0  0
   58.5820   34.6810   46.7800 C   0  0  0  0  0  0  0  0  0  0  0  0
   58.3467   35.7308   47.0093 H   0  0  0  0  0  0  0  0  0  0  0  0
   59.6660   34.0580   47.4020 C   0  0  0  0  0  0  0  0  0  0  0  0
   60.4500   34.7670   48.3030 O   0  0  0  0  0  0  0  0  0  0  0  0
   59.9620   32.7210   47.1190 C   0  0  0  0  0  0  0  0  0  0  0  0
   60.8223   32.2384   47.6058 H   0  0  0  0  0  0  0  0  0  0  0  0
   59.1700   31.9880   46.2180 C   0  0  0  0  0  0  0  0  0  0  0  0
   59.5310   30.5750   45.9440 C   0  0  0  0  0  0  0  0  0  0  0  0
   60.4300   30.1655   46.4278 H   0  0  0  0  0  0  0  0  0  0  0  0
   58.8210   29.7680   45.1380 C   0  0  0  0  0  0  0  0  0  0  0  0
   58.6383   30.0963   44.1042 H   0  0  0  0  0  0  0  0  0  0  0  0
   58.2700   28.4590   45.5650 C   0  0  0  0  0  0  0  0  0  0  0  0
   59.1640   27.4380   45.9180 C   0  0  0  0  0  0  0  0  0  0  0  0
   60.2469   27.6275   45.8798 H   0  0  0  0  0  0  0  0  0  0  0  0
   58.6970   26.1820   46.3180 C   0  0  0  0  0  0  0  0  0  0  0  0
   59.6200   25.2020   46.6710 O   0  0  0  0  0  0  0  0  0  0  0  0
   57.3150   25.9190   46.3650 C   0  0  0  0  0  0  0  0  0  0  0  0
   56.8060   24.5500   46.7590 C   0  0  0  0  0  0  0  0  0  0  0  0
   57.3053   24.2323   47.6862 H   0  0  0  0  0  0  0  0  0  0  0  0
   55.7182   24.6077   46.9116 H   0  0  0  0  0  0  0  0  0  0  0  0
   57.0900   23.5440   45.6750 C   0  0  0  0  0  0  0  0  0  0  0  0
   58.2940   22.8200   45.6740 C   0  0  0  0  0  0  0  0  0  0  0  0
   59.0239   22.9707   46.4830 H   0  0  0  0  0  0  0  0  0  0  0  0
   58.5690   21.9090   44.6500 C   0  0  0  0  0  0  0  0  0  0  0  0
   59.5122   21.3430   44.6574 H   0  0  0  0  0  0  0  0  0  0  0  0
   57.6480   21.7160   43.6170 C   0  0  0  0  0  0  0  0  0  0  0  0
   57.8666   20.9991   42.8119 H   0  0  0  0  0  0  0  0  0  0  0  0
   56.4490   22.4340   43.6070 C   0  0  0  0  0  0  0  0  0  0  0  0
   55.5330   22.2410   42.5800 O   0  0  0  0  0  0  0  0  0  0  0  0
   56.1700   23.3460   44.6310 C   0  0  0  0  0  0  0  0  0  0  0  0
   55.2261   23.9107   44.6188 H   0  0  0  0  0  0  0  0  0  0  0  0
   56.4140   26.9360   45.9910 C   0  0  0  0  0  0  0  0  0  0  0  0
   55.0410   26.7110   46.0080 O   0  0  0  0  0  0  0  0  0  0  0  0
   56.8880   28.1900   45.5930 C   0  0  0  0  0  0  0  0  0  0  0  0
   56.1744   28.9738   45.2990 H   0  0  0  0  0  0  0  0  0  0  0  0
   58.0880   32.6330   45.5830 C   0  0  0  0  0  0  0  0  0  0  0  0
   57.4705   32.0792   44.8605 H   0  0  0  0  0  0  0  0  0  0  0  0
  1  2  1  0
  2  3  1  0
  3  4  2  0
  4  5  1  0
  4  6  1  0
  6  7  1  0
  6  8  2  0
  8  9  1  0
  8 10  1  0
 10 11  1  0
 11 12  1  0
 11 13  2  0
 13 14  1  0
 13 15  1  0
 15 16  2  0
 16 17  1  0
 16 18  1  0
 18 19  1  0
 18 20  2  0
 20 21  1  0
 21 22  1  0
 21 23  1  0
 21 24  1  0
 24 25  2  0
 25 26  1  0
 25 27  1  0
 27 28  1  0
 27 29  2  0
 29 30  1  0
 29 31  1  0
 31 32  1  0
 31 33  2  0
 33 34  1  0
 20 35  1  0
 35 36  1  0
 35 37  2  0
 37 38  1  0
 10 39  2  0
 39 40  1  0
 39  3  1  0
 37 15  1  0
 33 24  1  0
M  CHG  4   7  -1  19  -1  32  -1  36  -1
M  END
>  <UniqueID>  (33) 
33

>  <SMILES>  (33) 
[O-]c1cc(O)cc(/C=C/c2cc([O-])c(Cc3cccc([O-])c3)c([O-])c2)c1

>  <Energy>  (33) 
48.48548758606053

>  <Genealogy>  (33) 
[O-]c1cc(O)cc(C=Cc2cc([O-])c(Cc3cccc([O-])c3)c([O-])c2)c1 (protonated)
[O-]c1cc(O)cc(/C=C/c2cc([O-])c(Cc3cccc([O-])c3)c([O-])c2)c1 (cis-trans isomerization)
[O-]c1cc(O)cc(/C=C/c2cc([O-])c(Cc3cccc([O-])c3)c([O-])c2)c1 (3D coordinates assigned)
[O-]c1cc(O)cc(/C=C/c2cc([O-])c(Cc3cccc([O-])c3)c([O-])c2)c1 (optimized conformer: 48.48548758606053 kcal/mol)

>  <smiles>  (33) 
Oc1cc(O)cc(C=Cc2cc(O)c(Cc3cccc(O)c3)c(O)c2)c1

>  <score_type>  (33) 
oracle

>  <origin>  (33) 
adg

>  <m_score__min__energy>  (33) 
-14.99

>  <m_primary>  (33) 
energy

$$$$
33:0
     RDKit          3D

 49 52  0  0  0  0  0  0  0  0999 V2000
   57.5407   30.0372   43.8697 H   0  0  0  0  0  0  0  0  0  0  0  0
   58.0460   29.5270   44.7030 C   0  0  0  0  0  0  0  0  0  0  0  0
   59.1880   30.0440   45.1750 C   0  0  0  0  0  0  0  0  0  0  0  0
   59.9842   30.3024   44.4614 H   0  0  0  0  0  0  0  0  0  0  0  0
   59.4230   30.2820   46.6160 C   0  0  0  0  0  0  0  0  0  0  0  0
   60.2780   29.5510   47.4330 C   0  0  0  0  0  0  0  0  0  0  0  0
   60.9289   28.7186   47.1274 H   0  0  0  0  0  0  0  0  0  0  0  0
   60.1490   30.0760   48.7040 C   0  0  0  0  0  0  0  0  0  0  0  0
   60.8000   29.5560   49.9480 C   0  0  0  0  0  0  0  0  0  0  0  0
   60.1413   29.7433   50.8088 H   0  0  0  0  0  0  0  0  0  0  0  0
   60.9745   28.4755   49.8382 H   0  0  0  0  0  0  0  0  0  0  0  0
   62.1170   30.2470   50.1700 C   0  0  0  0  0  0  0  0  0  0  0  0
   62.5100   31.3110   49.3400 C   0  0  0  0  0  0  0  0  0  0  0  0
   61.8657   31.6206   48.5039 H   0  0  0  0  0  0  0  0  0  0  0  0
   63.7160   31.9770   49.5730 C   0  0  0  0  0  0  0  0  0  0  0  0
   64.0219   32.8043   48.9158 H   0  0  0  0  0  0  0  0  0  0  0  0
   64.5350   31.5940   50.6400 C   0  0  0  0  0  0  0  0  0  0  0  0
   65.4859   32.1170   50.8195 H   0  0  0  0  0  0  0  0  0  0  0  0
   64.1440   30.5460   51.4780 C   0  0  0  0  0  0  0  0  0  0  0  0
   64.7859   30.2476   52.3200 H   0  0  0  0  0  0  0  0  0  0  0  0
   62.9380   29.8760   51.2480 C   0  0  0  0  0  0  0  0  0  0  0  0
   62.6312   29.0557   51.9135 H   0  0  0  0  0  0  0  0  0  0  0  0
   59.2130   31.0830   48.6180 C   0  0  0  0  0  0  0  0  0  0  0  0
   58.7620   31.8480   49.6880 O   0  0  0  0  0  0  0  0  0  0  0  0
   58.7790   31.2240   47.3490 N   0  0  0  0  0  0  0  0  0  0  0  0
   57.7930   32.2050   46.8790 C   0  0  0  0  0  0  0  0  0  0  0  0
   57.1283   32.4744   47.7130 H   0  0  0  0  0  0  0  0  0  0  0  0
   57.2175   31.7559   46.0561 H   0  0  0  0  0  0  0  0  0  0  0  0
   58.4680   33.4470   46.3680 C   0  0  0  0  0  0  0  0  0  0  0  0
   59.2090   34.5970   47.3480 S   0  0  0  0  0  0  0  0  0  0  0  0
   59.7020   35.6190   46.1090 C   0  0  0  0  0  0  0  0  0  0  0  0
   60.2518   36.5637   46.2328 H   0  0  0  0  0  0  0  0  0  0  0  0
   59.2960   35.0660   44.9020 C   0  0  0  0  0  0  0  0  0  0  0  0
   59.4876   35.5415   43.9288 H   0  0  0  0  0  0  0  0  0  0  0  0
   58.6190   33.8450   45.0380 C   0  0  0  0  0  0  0  0  0  0  0  0
   58.0780   33.0850   43.8650 C   0  0  0  0  0  0  0  0  0  0  0  0
   57.4749   32.2378   44.2236 H   0  0  0  0  0  0  0  0  0  0  0  0
   57.4493   33.7505   43.2553 H   0  0  0  0  0  0  0  0  0  0  0  0
   58.9127   32.7088   43.2553 H   0  0  0  0  0  0  0  0  0  0  0  0
   57.4360   28.2970   45.2570 C   0  0  0  0  0  0  0  0  0  0  0  0
   56.0400   28.0880   45.3120 C   0  0  0  0  0  0  0  0  0  0  0  0
   55.1490   29.0590   44.8740 O   0  0  0  0  0  0  0  0  0  0  0  0
   55.5470   26.9310   45.8320 N   0  0  0  0  0  0  0  0  0  0  0  0
   56.3580   25.9590   46.3250 C   0  0  0  0  0  0  0  0  0  0  0  0
   55.8570   24.9030   46.7920 O   0  0  0  0  0  0  0  0  0  0  0  0
   57.7420   26.1360   46.3200 C   0  0  0  0  0  0  0  0  0  0  0  0
   58.4033   25.3573   46.7277 H   0  0  0  0  0  0  0  0  0  0  0  0
   58.2790   27.3120   45.7920 C   0  0  0  0  0  0  0  0  0  0  0  0
   59.3681   27.4665   45.7957 H   0  0  0  0  0  0  0  0  0  0  0  0
  1  2  1  0
  2  3  2  0
  3  4  1  0
  3  5  1  0
  5  6  2  0
  6  7  1  0
  6  8  1  0
  8  9  1  0
  9 10  1  0
  9 11  1  0
  9 12  1  0
 12 13  2  0
 13 14  1  0
 13 15  1  0
 15 16  1  0
 15 17  2  0
 17 18  1  0
 17 19  1  0
 19 20  1  0
 19 21  2  0
 21 22  1  0
  8 23  2  0
 23 24  1  0
 23 25  1  0
 25 26  1  0
 26 27  1  0
 26 28  1  0
 26 29  1  0
 29 30  1  0
 30 31  1  0
 31 32  1  0
 31 33  2  0
 33 34  1  0
 33 35  1  0
 35 36  1  0
 36 37  1  0
 36 38  1  0
 36 39  1  0
  2 40  1  0
 40 41  2  0
 41 42  1  0
 41 43  1  0
 43 44  1  0
 44 45  2  0
 44 46  1  0
 46 47  1  0
 46 48  2  0
 48 49  1  0
 25  5  1  0
 35 29  2  0
 48 40  1  0
 21 12  1  0
M  CHG  3  24  -1  42  -1  43  -1
M  END
>  <UniqueID>  (34) 
34

>  <SMILES>  (34) 
Cc1ccsc1Cn1c(/C=C/c2ccc(=O)[n-]c2[O-])cc(Cc2ccccc2)c1[O-]

>  <Energy>  (34) 
107.33607198643101

>  <Genealogy>  (34) 
Cc1ccsc1Cn1c(C=Cc2ccc(=O)[n-]c2[O-])cc(Cc2ccccc2)c1[O-] (protonated)
Cc1ccsc1Cn1c(/C=C/c2ccc(=O)[n-]c2[O-])cc(Cc2ccccc2)c1[O-] (cis-trans isomerization)
Cc1ccsc1Cn1c(/C=C/c2ccc(=O)[n-]c2[O-])cc(Cc2ccccc2)c1[O-] (3D coordinates assigned)
Cc1ccsc1Cn1c(/C=C/c2ccc(=O)[n-]c2[O-])cc(Cc2ccccc2)c1[O-] (optimized conformer: 107.33607198643101 kcal/mol)

>  <smiles>  (34) 
Cc1ccsc1Cn1c(C=Cc2ccc(=O)[nH]c2O)cc(Cc2ccccc2)c1O

>  <score_type>  (34) 
oracle

>  <origin>  (34) 
adg

>  <m_score__min__energy>  (34) 
-15.01

>  <m_primary>  (34) 
energy

$$$$
34:0
     RDKit          3D

 38 41  0  0  0  0  0  0  0  0999 V2000
   57.9726   26.7294   43.8989 H   0  0  0  0  0  0  0  0  0  0  0  0
   57.5670   27.6940   44.2380 C   0  0  0  0  0  0  0  0  0  0  0  0
   57.3850   29.0760   43.2990 S   0  0  0  0  0  0  0  0  0  0  0  0
   56.7420   29.9850   44.5670 C   0  0  0  0  0  0  0  0  0  0  0  0
   56.3150   31.2130   44.5080 N   0  0  0  0  0  0  0  0  0  0  0  0
   57.0930   32.4220   44.4920 C   0  0  0  0  0  0  0  0  0  0  0  0
   57.7220   32.7140   43.4400 O   0  0  0  0  0  0  0  0  0  0  0  0
   57.1410   33.3640   45.6660 C   0  0  0  0  0  0  0  0  0  0  0  0
   56.7145   34.3329   45.3671 H   0  0  0  0  0  0  0  0  0  0  0  0
   56.5608   32.9248   46.4909 H   0  0  0  0  0  0  0  0  0  0  0  0
   58.5160   33.5670   46.1210 N   0  0  0  0  0  0  0  0  0  0  0  0
   59.4190   32.5650   46.5550 C   0  0  0  0  0  0  0  0  0  0  0  0
   59.1780   31.1900   46.6520 C   0  0  0  0  0  0  0  0  0  0  0  0
   58.1996   30.7679   46.3790 H   0  0  0  0  0  0  0  0  0  0  0  0
   60.2180   30.3630   47.1070 C   0  0  0  0  0  0  0  0  0  0  0  0
   60.0569   29.2784   47.1944 H   0  0  0  0  0  0  0  0  0  0  0  0
   61.4670   30.9170   47.4520 C   0  0  0  0  0  0  0  0  0  0  0  0
   62.2775   30.2635   47.8069 H   0  0  0  0  0  0  0  0  0  0  0  0
   61.6800   32.3010   47.3440 C   0  0  0  0  0  0  0  0  0  0  0  0
   62.6509   32.7433   47.6117 H   0  0  0  0  0  0  0  0  0  0  0  0
   60.6310   33.1030   46.8890 C   0  0  0  0  0  0  0  0  0  0  0  0
   60.6230   34.5790   46.6910 C   0  0  0  0  0  0  0  0  0  0  0  0
   61.3766   34.8807   45.9486 H   0  0  0  0  0  0  0  0  0  0  0  0
   60.8680   35.1366   47.6070 H   0  0  0  0  0  0  0  0  0  0  0  0
   59.1900   34.8640   46.1740 C   0  0  0  0  0  0  0  0  0  0  0  0
   59.2279   35.3164   45.1721 H   0  0  0  0  0  0  0  0  0  0  0  0
   58.6575   35.5687   46.8297 H   0  0  0  0  0  0  0  0  0  0  0  0
   56.6420   29.2530   45.6960 N   0  0  0  0  0  0  0  0  0  0  0  0
   57.1130   27.9870   45.5220 C   0  0  0  0  0  0  0  0  0  0  0  0
   57.0670   26.9740   46.6210 C   0  0  0  0  0  0  0  0  0  0  0  0
   58.0271   26.4388   46.6637 H   0  0  0  0  0  0  0  0  0  0  0  0
   56.8828   27.4861   47.5770 H   0  0  0  0  0  0  0  0  0  0  0  0
   55.9660   25.9960   46.3680 C   0  0  0  0  0  0  0  0  0  0  0  0
   56.0530   24.6830   46.6610 N   0  0  0  0  0  0  0  0  0  0  0  0
   54.9270   24.1280   46.2490 N   0  0  0  0  0  0  0  0  0  0  0  0
   54.1990   25.1200   45.7110 C   0  0  0  0  0  0  0  0  0  0  0  0
   53.0570   24.9440   45.2130 O   0  0  0  0  0  0  0  0  0  0  0  0
   54.8090   26.3170   45.7530 N   0  0  0  0  0  0  0  0  0  0  0  0
  1  2  1  0
  2  3  1  0
  3  4  1  0
  4  5  2  0
  5  6  1  0
  6  7  2  0
  6  8  1  0
  8  9  1  0
  8 10  1  0
  8 11  1  0
 11 12  1  0
 12 13  2  0
 13 14  1  0
 13 15  1  0
 15 16  1  0
 15 17  2  0
 17 18  1  0
 17 19  1  0
 19 20  1  0
 19 21  2  0
 21 22  1  0
 22 23  1  0
 22 24  1  0
 22 25  1  0
 25 26  1  0
 25 27  1  0
  4 28  1  0
 28 29  1  0
 29 30  1  0
 30 31  1  0
 30 32  1  0
 30 33  1  0
 33 34  2  0
 34 35  1  0
 35 36  1  0
 36 37  2  0
 36 38  1  0
 29  2  2  0
 38 33  1  0
 25 11  1  0
 21 12  1  0
M  CHG  3  28  -1  35  -1  38  -1
M  END
>  <UniqueID>  (35) 
35

>  <SMILES>  (35) 
O=C(CN1CCc2ccccc21)/N=c1/[n-]c(Cc2n[n-]c(=O)[n-]2)cs1

>  <Energy>  (35) 
120.73916554713429

>  <Genealogy>  (35) 
O=C(CN1CCc2ccccc21)N=c1[n-]c(Cc2n[n-]c(=O)[n-]2)cs1 (protonated)
O=C(CN1CCc2ccccc21)/N=c1/[n-]c(Cc2n[n-]c(=O)[n-]2)cs1 (cis-trans isomerization)
O=C(CN1CCc2ccccc21)/N=c1/[n-]c(Cc2n[n-]c(=O)[n-]2)cs1 (3D coordinates assigned)
O=C(CN1CCc2ccccc21)/N=c1/[n-]c(Cc2n[n-]c(=O)[n-]2)cs1 (nonaromatic ring conformer: 120.73916554713429 kcal/mol)

>  <smiles>  (35) 
O=C(CN1CCc2ccccc21)N=c1[nH]c(Cc2n[nH]c(=O)[nH]2)cs1

>  <score_type>  (35) 
oracle

>  <origin>  (35) 
adg

>  <m_score__min__energy>  (35) 
-14.32

>  <m_primary>  (35) 
energy

$$$$
35:0
     RDKit          3D

 50 53  0  0  0  0  0  0  0  0999 V2000
   53.3720   24.2890   45.1440 O   0  0  0  0  0  0  0  0  0  0  0  0
   54.6230   24.4060   45.2480 C   0  0  0  0  0  0  0  0  0  0  0  0
   55.1470   25.4910   46.0270 N   0  0  0  0  0  0  0  0  0  0  0  0
   56.3760   25.6070   46.4370 C   0  0  0  0  0  0  0  0  0  0  0  0
   56.8570   24.8880   47.4730 N   0  0  0  0  0  0  0  0  0  0  0  0
   58.1070   25.2130   47.8000 N   0  0  0  0  0  0  0  0  0  0  0  0
   58.6270   26.1850   47.0190 C   0  0  0  0  0  0  0  0  0  0  0  0
   60.2200   26.9460   47.3220 S   0  0  0  0  0  0  0  0  0  0  0  0
   59.6790   28.4670   46.5480 C   0  0  0  0  0  0  0  0  0  0  0  0
   59.8990   28.6610   45.1800 C   0  0  0  0  0  0  0  0  0  0  0  0
   59.2990   29.7370   44.5210 C   0  0  0  0  0  0  0  0  0  0  0  0
   58.4660   30.6170   45.2240 C   0  0  0  0  0  0  0  0  0  0  0  0
   57.5050   31.8100   44.3510 S   0  0  0  0  0  0  0  0  0  0  0  0
   57.8530   31.7560   42.8890 O   0  0  0  0  0  0  0  0  0  0  0  0
   56.0470   31.4740   44.4970 O   0  0  0  0  0  0  0  0  0  0  0  0
   57.7960   33.4250   44.9680 N   0  0  0  0  0  0  0  0  0  0  0  0
   59.2100   33.8130   44.7340 C   0  0  0  0  0  0  0  0  0  0  0  0
   59.6350   34.9740   45.6410 C   0  0  0  0  0  0  0  0  0  0  0  0
   59.5530   34.5770   47.1260 C   0  0  0  0  0  0  0  0  0  0  0  0
   58.5170   33.4700   47.3880 C   0  0  0  0  0  0  0  0  0  0  0  0
   57.3530   33.5520   46.3850 C   0  0  0  0  0  0  0  0  0  0  0  0
   58.3140   30.4660   46.6110 C   0  0  0  0  0  0  0  0  0  0  0  0
   58.9220   29.3950   47.2710 C   0  0  0  0  0  0  0  0  0  0  0  0
   57.5190   26.7160   45.8670 S   0  0  0  0  0  0  0  0  0  0  0  0
   55.5020   23.3950   44.6150 C   0  0  0  0  0  0  0  0  0  0  0  0
   55.6710   23.3620   43.2190 C   0  0  0  0  0  0  0  0  0  0  0  0
   56.5070   22.4080   42.6310 C   0  0  0  0  0  0  0  0  0  0  0  0
   57.1890   21.4860   43.4300 C   0  0  0  0  0  0  0  0  0  0  0  0
   57.0390   21.5190   44.8190 C   0  0  0  0  0  0  0  0  0  0  0  0
   57.7030   20.6260   45.5940 F   0  0  0  0  0  0  0  0  0  0  0  0
   56.2040   22.4720   45.4120 C   0  0  0  0  0  0  0  0  0  0  0  0
   60.5446   27.9661   44.6230 H   0  0  0  0  0  0  0  0  0  0  0  0
   59.4811   29.8935   43.4475 H   0  0  0  0  0  0  0  0  0  0  0  0
   57.1960   34.0640   44.3940 H   0  0  0  0  0  0  0  0  0  0  0  0
   59.8562   32.9463   44.9373 H   0  0  0  0  0  0  0  0  0  0  0  0
   59.3082   34.1400   43.6883 H   0  0  0  0  0  0  0  0  0  0  0  0
   60.6708   35.2562   45.4014 H   0  0  0  0  0  0  0  0  0  0  0  0
   58.9534   35.8198   45.4677 H   0  0  0  0  0  0  0  0  0  0  0  0
   60.5412   34.2180   47.4494 H   0  0  0  0  0  0  0  0  0  0  0  0
   59.2387   35.4669   47.6911 H   0  0  0  0  0  0  0  0  0  0  0  0
   59.0064   32.4897   47.2910 H   0  0  0  0  0  0  0  0  0  0  0  0
   58.1137   33.6021   48.4028 H   0  0  0  0  0  0  0  0  0  0  0  0
   56.6432   32.7408   46.6045 H   0  0  0  0  0  0  0  0  0  0  0  0
   56.8905   34.5437   46.4977 H   0  0  0  0  0  0  0  0  0  0  0  0
   57.7149   31.1924   47.1797 H   0  0  0  0  0  0  0  0  0  0  0  0
   58.8054   29.2816   48.3589 H   0  0  0  0  0  0  0  0  0  0  0  0
   55.1426   24.0906   42.5866 H   0  0  0  0  0  0  0  0  0  0  0  0
   56.6282   22.3830   41.5380 H   0  0  0  0  0  0  0  0  0  0  0  0
   57.8440   20.7342   42.9654 H   0  0  0  0  0  0  0  0  0  0  0  0
   56.0957   22.4999   46.5063 H   0  0  0  0  0  0  0  0  0  0  0  0
  1  2  2  0
  2  3  1  0
  3  4  2  3
  4  5  1  0
  5  6  1  0
  6  7  2  0
  7  8  1  0
  8  9  1  0
  9 10  2  0
 10 11  1  0
 11 12  2  0
 12 13  1  0
 13 14  2  0
 13 15  2  0
 13 16  1  0
 16 17  1  0
 17 18  1  0
 18 19  1  0
 19 20  1  0
 20 21  1  0
 12 22  1  0
 22 23  2  0
  7 24  1  0
  2 25  1  0
 25 26  2  0
 26 27  1  0
 27 28  2  0
 28 29  1  0
 29 30  1  0
 29 31  2  0
 24  4  1  0
 31 25  1  0
 23  9  1  0
 21 16  1  0
 10 32  1  0
 11 33  1  0
 16 34  1  0
 17 35  1  0
 17 36  1  0
 18 37  1  0
 18 38  1  0
 19 39  1  0
 19 40  1  0
 20 41  1  0
 20 42  1  0
 21 43  1  0
 21 44  1  0
 22 45  1  0
 23 46  1  0
 26 47  1  0
 27 48  1  0
 28 49  1  0
 31 50  1  0
M  CHG  2   5  -1  16   1
M  END
>  <UniqueID>  (36) 
36

>  <SMILES>  (36) 
O=C(N=c1[n-]nc(Sc2ccc(S(=O)(=O)[NH+]3CCCCC3)cc2)s1)c1cccc(F)c1

>  <Energy>  (36) 
95.58709726031948

>  <Genealogy>  (36) 
O=C(N=c1[n-]nc(Sc2ccc(S(=O)(=O)[NH+]3CCCCC3)cc2)s1)c1cccc(F)c1 (protonated)
O=C(N=c1[n-]nc(Sc2ccc(S(=O)(=O)[NH+]3CCCCC3)cc2)s1)c1cccc(F)c1 (3D coordinates assigned)
O=C(N=c1[n-]nc(Sc2ccc(S(=O)(=O)[NH+]3CCCCC3)cc2)s1)c1cccc(F)c1 (nonaromatic ring conformer: 95.58709726031948 kcal/mol)

>  <smiles>  (36) 
O=C(N=c1[nH]nc(Sc2ccc(S(=O)(=O)N3CCCCC3)cc2)s1)c1cccc(F)c1

>  <score_type>  (36) 
oracle

>  <origin>  (36) 
adg

>  <m_score__min__energy>  (36) 
-10.800000000000001

>  <m_primary>  (36) 
energy

$$$$
36:0
     RDKit          3D

 36 37  0  0  0  0  0  0  0  0999 V2000
   54.8310   22.5970   48.5850 C   0  0  0  0  0  0  0  0  0  0  0  0
   56.0020   22.6590   47.6630 C   0  0  0  0  0  0  0  0  0  0  0  0
   57.1180   22.2080   48.0380 O   0  0  0  0  0  0  0  0  0  0  0  0
   55.8360   23.1860   46.3420 N   0  0  0  0  0  0  0  0  0  0  0  0
   55.1790   24.4570   46.0570 C   0  0  0  0  0  0  0  0  0  0  0  0
   56.1670   25.5770   46.1410 C   0  0  0  0  0  0  0  0  0  0  0  0
   55.8540   26.8000   45.6410 N   0  0  0  0  0  0  0  0  0  0  0  0
   56.7100   27.8530   45.7320 C   0  0  0  0  0  0  0  0  0  0  0  0
   56.2860   29.1530   45.1690 C   0  0  0  0  0  0  0  0  0  0  0  0
   55.1400   29.2960   44.6640 O   0  0  0  0  0  0  0  0  0  0  0  0
   57.1960   30.2580   45.1970 N   0  0  0  0  0  0  0  0  0  0  0  0
   56.9790   31.5040   44.4700 C   0  0  0  0  0  0  0  0  0  0  0  0
   57.7530   32.6230   45.1110 C   0  0  0  0  0  0  0  0  0  0  0  0
   57.7880   32.7600   46.5090 C   0  0  0  0  0  0  0  0  0  0  0  0
   58.4910   33.8170   47.0950 C   0  0  0  0  0  0  0  0  0  0  0  0
   59.1600   34.7460   46.2910 C   0  0  0  0  0  0  0  0  0  0  0  0
   59.8400   35.7710   46.8610 F   0  0  0  0  0  0  0  0  0  0  0  0
   59.1240   34.6180   44.8990 C   0  0  0  0  0  0  0  0  0  0  0  0
   58.4220   33.5630   44.3100 C   0  0  0  0  0  0  0  0  0  0  0  0
   57.9540   27.6710   46.3690 C   0  0  0  0  0  0  0  0  0  0  0  0
   58.8630   28.7240   46.4830 O   0  0  0  0  0  0  0  0  0  0  0  0
   58.2540   26.4020   46.8870 C   0  0  0  0  0  0  0  0  0  0  0  0
   59.3510   26.1890   47.4690 O   0  0  0  0  0  0  0  0  0  0  0  0
   57.3580   25.3890   46.7670 N   0  0  0  0  0  0  0  0  0  0  0  0
   55.1833   22.6157   49.6269 H   0  0  0  0  0  0  0  0  0  0  0  0
   54.1756   23.4617   48.4040 H   0  0  0  0  0  0  0  0  0  0  0  0
   54.2706   21.6679   48.4040 H   0  0  0  0  0  0  0  0  0  0  0  0
   54.7498   24.4257   45.0447 H   0  0  0  0  0  0  0  0  0  0  0  0
   54.3820   24.6239   46.7966 H   0  0  0  0  0  0  0  0  0  0  0  0
   57.3140   31.3803   43.4296 H   0  0  0  0  0  0  0  0  0  0  0  0
   55.9072   31.7504   44.4936 H   0  0  0  0  0  0  0  0  0  0  0  0
   57.2606   32.0333   47.1444 H   0  0  0  0  0  0  0  0  0  0  0  0
   58.5181   33.9183   48.1900 H   0  0  0  0  0  0  0  0  0  0  0  0
   59.6491   35.3490   44.2666 H   0  0  0  0  0  0  0  0  0  0  0  0
   58.3932   33.4683   43.2145 H   0  0  0  0  0  0  0  0  0  0  0  0
   58.6970   29.6290   46.0580 H   0  0  0  0  0  0  0  0  0  0  0  0
  1  2  1  0
  2  3  2  0
  2  4  1  0
  4  5  1  0
  5  6  1  0
  6  7  2  0
  7  8  1  0
  8  9  1  0
  9 10  2  0
  9 11  1  0
 11 12  1  0
 12 13  1  0
 13 14  2  0
 14 15  1  0
 15 16  2  0
 16 17  1  0
 16 18  1  0
 18 19  2  0
  8 20  2  0
 20 21  1  0
 20 22  1  0
 22 23  2  0
 22 24  1  0
 24  6  1  0
 19 13  1  0
  1 25  1  0
  1 26  1  0
  1 27  1  0
  5 28  1  0
  5 29  1  0
 12 30  1  0
 12 31  1  0
 14 32  1  0
 15 33  1  0
 18 34  1  0
 19 35  1  0
 21 36  1  0
M  CHG  3   4  -1  11  -1  24  -1
M  END
>  <UniqueID>  (37) 
37

>  <SMILES>  (37) 
CC(=O)[N-]Cc1nc(C(=O)[N-]Cc2ccc(F)cc2)c(O)c(=O)[n-]1

>  <Energy>  (37) 
31.530527295047545

>  <Genealogy>  (37) 
CC(=O)[N-]Cc1nc(C(=O)[N-]Cc2ccc(F)cc2)c(O)c(=O)[n-]1 (protonated)
CC(=O)[N-]Cc1nc(C(=O)[N-]Cc2ccc(F)cc2)c(O)c(=O)[n-]1 (3D coordinates assigned)
CC(=O)[N-]Cc1nc(C(=O)[N-]Cc2ccc(F)cc2)c(O)c(=O)[n-]1 (optimized conformer: 31.530527295047545 kcal/mol)

>  <smiles>  (37) 
CC(=O)NCc1nc(C(=O)NCc2ccc(F)cc2)c(O)c(=O)[nH]1

>  <score_type>  (37) 
oracle

>  <origin>  (37) 
adg

>  <m_score__min__energy>  (37) 
-11.74

>  <m_primary>  (37) 
energy

$$$$
37:0
     RDKit          3D

 53 56  0  0  0  0  0  0  0  0999 V2000
   56.7270   30.4250   43.5520 C   0  0  0  0  0  0  0  0  0  0  0  0
   56.6390   31.0980   44.8040 O   0  0  0  0  0  0  0  0  0  0  0  0
   57.4790   32.1500   45.2000 C   0  0  0  0  0  0  0  0  0  0  0  0
   57.3980   33.3620   44.5030 C   0  0  0  0  0  0  0  0  0  0  0  0
   58.2020   34.4450   44.8660 C   0  0  0  0  0  0  0  0  0  0  0  0
   59.1090   34.3210   45.9210 C   0  0  0  0  0  0  0  0  0  0  0  0
   59.2270   33.1040   46.6160 C   0  0  0  0  0  0  0  0  0  0  0  0
   60.1450   32.9600   47.7140 N   0  0  0  0  0  0  0  0  0  0  0  0
   61.5550   33.2110   47.6090 C   0  0  0  0  0  0  0  0  0  0  0  0
   62.1030   33.3120   46.4750 O   0  0  0  0  0  0  0  0  0  0  0  0
   62.4000   33.3270   48.8520 C   0  0  2  0  0  0  0  0  0  0  0  0
   63.8560   33.6520   48.5050 C   0  0  0  0  0  0  0  0  0  0  0  0
   64.7060   32.7580   49.4040 C   0  0  0  0  0  0  0  0  0  0  0  0
   63.8020   31.6010   49.8090 C   0  0  0  0  0  0  0  0  0  0  0  0
   62.4430   32.0600   49.5700 N   0  0  0  0  0  0  0  0  0  0  0  0
   61.2670   31.4120   50.0990 C   0  0  0  0  0  0  0  0  0  0  0  0
   60.3640   32.1050   50.6470 O   0  0  0  0  0  0  0  0  0  0  0  0
   61.0500   29.9300   49.9600 C   0  0  0  0  0  0  0  0  0  0  0  0
   59.7600   29.6540   49.1840 C   0  0  0  0  0  0  0  0  0  0  0  0
   60.0600   29.4540   47.7660 N   0  0  0  0  0  0  0  0  0  0  0  0
   61.0550   30.0420   47.0520 C   0  0  0  0  0  0  0  0  0  0  0  0
   61.0330   29.7150   45.7340 N   0  0  0  0  0  0  0  0  0  0  0  0
   59.9680   28.8940   45.6420 C   0  0  0  0  0  0  0  0  0  0  0  0
   59.4710   28.2710   44.4990 C   0  0  0  0  0  0  0  0  0  0  0  0
   58.3230   27.4620   44.6380 C   0  0  0  0  0  0  0  0  0  0  0  0
   57.7010   27.3080   45.8990 C   0  0  0  0  0  0  0  0  0  0  0  0
   56.2660   26.3110   46.0510 Cl  0  0  0  0  0  0  0  0  0  0  0  0
   58.2260   27.9590   47.0340 C   0  0  0  0  0  0  0  0  0  0  0  0
   59.3720   28.7400   46.8610 C   0  0  0  0  0  0  0  0  0  0  0  0
   58.3940   32.0290   46.2650 C   0  0  0  0  0  0  0  0  0  0  0  0
   56.8679   29.3477   43.7239 H   0  0  0  0  0  0  0  0  0  0  0  0
   55.8000   30.5873   42.9825 H   0  0  0  0  0  0  0  0  0  0  0  0
   57.5811   30.8202   42.9825 H   0  0  0  0  0  0  0  0  0  0  0  0
   56.6953   33.4619   43.6626 H   0  0  0  0  0  0  0  0  0  0  0  0
   58.1208   35.3967   44.3204 H   0  0  0  0  0  0  0  0  0  0  0  0
   59.7338   35.1791   46.2096 H   0  0  0  0  0  0  0  0  0  0  0  0
   59.7770   32.5860   48.6190 H   0  0  0  0  0  0  0  0  0  0  0  0
   61.9446   34.1241   49.4580 H   0  0  0  0  0  0  0  0  0  0  0  0
   64.0560   33.4316   47.4460 H   0  0  0  0  0  0  0  0  0  0  0  0
   64.0821   34.7170   48.6620 H   0  0  0  0  0  0  0  0  0  0  0  0
   65.5832   32.3852   48.8549 H   0  0  0  0  0  0  0  0  0  0  0  0
   65.0824   33.3050   50.2810 H   0  0  0  0  0  0  0  0  0  0  0  0
   64.0196   30.7125   49.1981 H   0  0  0  0  0  0  0  0  0  0  0  0
   63.9548   31.3157   50.8603 H   0  0  0  0  0  0  0  0  0  0  0  0
   61.9002   29.4876   49.4202 H   0  0  0  0  0  0  0  0  0  0  0  0
   60.9677   29.4842   50.9623 H   0  0  0  0  0  0  0  0  0  0  0  0
   59.2802   28.7493   49.5856 H   0  0  0  0  0  0  0  0  0  0  0  0
   59.0838   30.5149   49.2913 H   0  0  0  0  0  0  0  0  0  0  0  0
   61.8030   30.7150   47.4965 H   0  0  0  0  0  0  0  0  0  0  0  0
   59.9570   28.4052   43.5214 H   0  0  0  0  0  0  0  0  0  0  0  0
   57.9086   26.9471   43.7587 H   0  0  0  0  0  0  0  0  0  0  0  0
   57.7506   27.8559   48.0206 H   0  0  0  0  0  0  0  0  0  0  0  0
   58.4563   31.0849   46.8260 H   0  0  0  0  0  0  0  0  0  0  0  0
  1  2  1  0
  2  3  1  0
  3  4  2  0
  4  5  1  0
  5  6  2  0
  6  7  1  0
  7  8  1  0
  8  9  1  0
  9 10  2  0
  9 11  1  0
 11 12  1  0
 12 13  1  0
 13 14  1  0
 14 15  1  0
 15 16  1  0
 16 17  2  0
 16 18  1  0
 18 19  1  0
 19 20  1  0
 20 21  1  0
 21 22  2  0
 22 23  1  0
 23 24  2  0
 24 25  1  0
 25 26  2  0
 26 27  1  0
 26 28  1  0
 28 29  2  0
  7 30  2  0
 30  3  1  0
 15 11  1  0
 29 20  1  0
 29 23  1  0
  1 31  1  0
  1 32  1  0
  1 33  1  0
  4 34  1  0
  5 35  1  0
  6 36  1  0
  8 37  1  0
 11 38  1  1
 12 39  1  0
 12 40  1  0
 13 41  1  0
 13 42  1  0
 14 43  1  0
 14 44  1  0
 18 45  1  0
 18 46  1  0
 19 47  1  0
 19 48  1  0
 21 49  1  0
 24 50  1  0
 25 51  1  0
 28 52  1  0
 30 53  1  0
M  END
>  <UniqueID>  (38) 
38

>  <SMILES>  (38) 
COc1cccc(NC(=O)[C@@H]2CCCN2C(=O)CCn2cnc3ccc(Cl)cc32)c1

>  <Energy>  (38) 
92.45639680736213

>  <Genealogy>  (38) 
COc1cccc(NC(=O)[C@@H]2CCCN2C(=O)CCn2cnc3ccc(Cl)cc32)c1 (chirality)
COc1cccc(NC(=O)[C@@H]2CCCN2C(=O)CCn2cnc3ccc(Cl)cc32)c1 (3D coordinates assigned)
COc1cccc(NC(=O)[C@@H]2CCCN2C(=O)CCn2cnc3ccc(Cl)cc32)c1 (nonaromatic ring conformer: 92.45639680736213 kcal/mol)

>  <smiles>  (38) 
COc1cccc(NC(=O)C2CCCN2C(=O)CCn2cnc3ccc(Cl)cc32)c1

>  <score_type>  (38) 
oracle

>  <origin>  (38) 
adg

>  <m_score__min__energy>  (38) 
-9.3300000000000001

>  <m_primary>  (38) 
energy

$$$$
38:0
     RDKit          3D

 49 51  0  0  0  0  0  0  0  0999 V2000
   61.2450   28.1100   50.2940 N   0  0  0  0  0  0  0  0  0  0  0  0
   60.7190   27.8980   49.2850 C   0  0  0  0  0  0  0  0  0  0  0  0
   60.0590   27.6520   48.0330 C   0  0  0  0  0  0  0  0  0  0  0  0
   59.9730   26.3600   47.6090 N   0  0  0  0  0  0  0  0  0  0  0  0
   59.3480   25.9880   46.4520 C   0  0  0  0  0  0  0  0  0  0  0  0
   59.3160   24.5570   46.0700 C   0  0  0  0  0  0  0  0  0  0  0  0
   60.3650   24.0160   45.6280 O   0  0  0  0  0  0  0  0  0  0  0  0
   58.1350   23.7510   46.1880 N   0  0  0  0  0  0  0  0  0  0  0  0
   57.2470   23.3250   45.1070 C   0  0  0  0  0  0  0  0  0  0  0  0
   56.3700   24.4750   44.5990 C   0  0  0  0  0  0  0  0  0  0  0  0
   55.1020   24.9290   45.7770 S   0  0  0  0  0  0  0  0  0  0  0  0
   55.1630   26.6360   46.0440 N   0  0  0  0  0  0  0  0  0  0  0  0
   55.3350   24.2180   47.0800 O   0  0  0  0  0  0  0  0  0  0  0  0
   53.7490   24.5620   45.2410 O   0  0  0  0  0  0  0  0  0  0  0  0
   58.7650   26.9740   45.6310 C   0  0  0  0  0  0  0  0  0  0  0  0
   58.1040   26.6290   44.4580 O   0  0  0  0  0  0  0  0  0  0  0  0
   58.8570   28.3070   46.0470 C   0  0  0  0  0  0  0  0  0  0  0  0
   58.3850   29.4730   45.4610 C   0  0  0  0  0  0  0  0  0  0  0  0
   57.5860   29.6220   44.1960 C   0  0  0  0  0  0  0  0  0  0  0  0
   56.2400   30.1950   44.5010 C   0  0  0  0  0  0  0  0  0  0  0  0
   55.1450   29.3300   44.7880 N   0  0  0  0  0  0  0  0  0  0  0  0
   56.0610   31.4420   44.4720 O   0  0  0  0  0  0  0  0  0  0  0  0
   58.7390   30.4890   46.3410 C   0  0  0  0  0  0  0  0  0  0  0  0
   58.4470   31.8430   46.1750 O   0  0  0  0  0  0  0  0  0  0  0  0
   59.4130   30.0050   47.4120 N   0  0  0  0  0  0  0  0  0  0  0  0
   59.9810   30.8580   48.4630 C   0  0  0  0  0  0  0  0  0  0  0  0
   61.0650   31.7360   47.8930 C   0  0  0  0  0  0  0  0  0  0  0  0
   62.3990   31.2890   47.8680 C   0  0  0  0  0  0  0  0  0  0  0  0
   63.4090   32.1170   47.3670 C   0  0  0  0  0  0  0  0  0  0  0  0
   63.0990   33.3950   46.8950 C   0  0  0  0  0  0  0  0  0  0  0  0
   61.7790   33.8490   46.9250 C   0  0  0  0  0  0  0  0  0  0  0  0
   60.7650   33.0250   47.4230 C   0  0  0  0  0  0  0  0  0  0  0  0
   59.4850   28.6590   47.2260 C   0  0  0  0  0  0  0  0  0  0  0  0
   57.8576   22.9486   44.2730 H   0  0  0  0  0  0  0  0  0  0  0  0
   56.5845   22.5399   45.5003 H   0  0  0  0  0  0  0  0  0  0  0  0
   57.0083   25.3508   44.4105 H   0  0  0  0  0  0  0  0  0  0  0  0
   55.8708   24.1380   43.6785 H   0  0  0  0  0  0  0  0  0  0  0  0
   55.1580   27.0910   45.1040 H   0  0  0  0  0  0  0  0  0  0  0  0
   58.1190   30.2931   43.5064 H   0  0  0  0  0  0  0  0  0  0  0  0
   57.4586   28.6324   43.7330 H   0  0  0  0  0  0  0  0  0  0  0  0
   55.1490   28.7240   45.6370 H   0  0  0  0  0  0  0  0  0  0  0  0
   57.6590   32.1590   45.6250 H   0  0  0  0  0  0  0  0  0  0  0  0
   59.1866   31.4903   48.8863 H   0  0  0  0  0  0  0  0  0  0  0  0
   60.4125   30.2199   49.2483 H   0  0  0  0  0  0  0  0  0  0  0  0
   62.6483   30.2856   48.2435 H   0  0  0  0  0  0  0  0  0  0  0  0
   64.4496   31.7612   47.3446 H   0  0  0  0  0  0  0  0  0  0  0  0
   63.8948   34.0434   46.4998 H   0  0  0  0  0  0  0  0  0  0  0  0
   61.5363   34.8565   46.5563 H   0  0  0  0  0  0  0  0  0  0  0  0
   59.7270   33.3882   47.4468 H   0  0  0  0  0  0  0  0  0  0  0  0
  1  2  3  0
  2  3  1  0
  3  4  2  0
  4  5  1  0
  5  6  1  0
  6  7  2  0
  6  8  1  0
  8  9  1  0
  9 10  1  0
 10 11  1  0
 11 12  1  0
 11 13  2  0
 11 14  2  0
  5 15  2  0
 15 16  1  0
 15 17  1  0
 17 18  1  0
 18 19  1  0
 19 20  1  0
 20 21  1  0
 20 22  2  0
 18 23  2  0
 23 24  1  0
 23 25  1  0
 25 26  1  0
 26 27  1  0
 27 28  2  0
 28 29  1  0
 29 30  2  0
 30 31  1  0
 31 32  2  0
 25 33  1  0
 33  3  1  0
 33 17  2  0
 32 27  1  0
  9 34  1  0
  9 35  1  0
 10 36  1  0
 10 37  1  0
 12 38  1  0
 19 39  1  0
 19 40  1  0
 21 41  1  0
 24 42  1  0
 26 43  1  0
 26 44  1  0
 28 45  1  0
 29 46  1  0
 30 47  1  0
 31 48  1  0
 32 49  1  0
M  CHG  4   8  -1  12  -1  16  -1  21  -1
M  END
>  <UniqueID>  (39) 
39

>  <SMILES>  (39) 
N#Cc1nc(C(=O)[N-]CCS([NH-])(=O)=O)c([O-])c2c(CC([NH-])=O)c(O)n(Cc3ccccc3)c12

>  <Energy>  (39) 
83.4910102519958

>  <Genealogy>  (39) 
N#Cc1nc(C(=O)[N-]CCS([NH-])(=O)=O)c([O-])c2c(CC([NH-])=O)c(O)n(Cc3ccccc3)c12 (protonated)
N#Cc1nc(C(=O)[N-]CCS([NH-])(=O)=O)c([O-])c2c(CC([NH-])=O)c(O)n(Cc3ccccc3)c12 (3D coordinates assigned)
N#Cc1nc(C(=O)[N-]CCS([NH-])(=O)=O)c([O-])c2c(CC([NH-])=O)c(O)n(Cc3ccccc3)c12 (optimized conformer: 83.4910102519958 kcal/mol)

>  <smiles>  (39) 
N#Cc1nc(C(=O)NCCS(N)(=O)=O)c(O)c2c(CC(N)=O)c(O)n(Cc3ccccc3)c12

>  <score_type>  (39) 
oracle

>  <origin>  (39) 
adg

>  <m_score__min__energy>  (39) 
-16.600000000000001

>  <m_primary>  (39) 
energy

$$$$
39:0
     RDKit          3D

 40 43  0  0  0  0  0  0  0  0999 V2000
   56.8630   28.9810   43.4200 O   0  0  0  0  0  0  0  0  0  0  0  0
   56.2360   29.7850   44.1590 C   0  0  0  0  0  0  0  0  0  0  0  0
   55.1390   29.3370   44.8860 O   0  0  0  0  0  0  0  0  0  0  0  0
   56.6670   31.2150   44.2520 C   0  0  0  0  0  0  0  0  0  0  0  0
   57.6330   31.4080   45.3930 C   0  0  0  0  0  0  0  0  0  0  0  0
   57.7770   30.3850   46.2760 N   0  0  0  0  0  0  0  0  0  0  0  0
   58.6140   30.4310   47.3140 N   0  0  0  0  0  0  0  0  0  0  0  0
   58.6510   29.2780   48.2190 C   0  0  0  0  0  0  0  0  0  0  0  0
   58.5510   28.0040   47.4340 C   0  0  0  0  0  0  0  0  0  0  0  0
   59.7080   27.3070   47.0580 C   0  0  0  0  0  0  0  0  0  0  0  0
   59.5930   26.1440   46.2930 C   0  0  0  0  0  0  0  0  0  0  0  0
   58.3280   25.6890   45.9010 C   0  0  0  0  0  0  0  0  0  0  0  0
   58.1800   24.5270   45.1300 C   0  0  0  0  0  0  0  0  0  0  0  0
   56.9040   24.1000   44.7500 C   0  0  0  0  0  0  0  0  0  0  0  0
   55.7730   24.8290   45.1340 C   0  0  0  0  0  0  0  0  0  0  0  0
   55.9110   25.9900   45.9010 C   0  0  0  0  0  0  0  0  0  0  0  0
   54.7790   26.7070   46.2760 O   0  0  0  0  0  0  0  0  0  0  0  0
   57.1860   26.4250   46.2890 C   0  0  0  0  0  0  0  0  0  0  0  0
   57.3300   27.5540   47.0360 N   0  0  0  0  0  0  0  0  0  0  0  0
   59.3760   31.5430   47.5470 C   0  0  0  0  0  0  0  0  0  0  0  0
   60.1500   31.5850   48.5450 O   0  0  0  0  0  0  0  0  0  0  0  0
   59.2920   32.6400   46.6710 C   0  0  0  0  0  0  0  0  0  0  0  0
   60.0720   33.7960   46.8730 C   0  0  0  0  0  0  0  0  0  0  0  0
   59.9810   34.8730   45.9900 C   0  0  0  0  0  0  0  0  0  0  0  0
   59.1170   34.8100   44.8980 C   0  0  0  0  0  0  0  0  0  0  0  0
   58.3350   33.6740   44.6840 C   0  0  0  0  0  0  0  0  0  0  0  0
   58.4100   32.5750   45.5660 C   0  0  0  0  0  0  0  0  0  0  0  0
   57.1569   31.5063   43.3111 H   0  0  0  0  0  0  0  0  0  0  0  0
   55.7799   31.8405   44.4304 H   0  0  0  0  0  0  0  0  0  0  0  0
   59.5969   29.2862   48.7804 H   0  0  0  0  0  0  0  0  0  0  0  0
   57.8020   29.3395   48.9157 H   0  0  0  0  0  0  0  0  0  0  0  0
   60.6992   27.6734   47.3633 H   0  0  0  0  0  0  0  0  0  0  0  0
   60.4945   25.5865   45.9990 H   0  0  0  0  0  0  0  0  0  0  0  0
   59.0667   23.9522   44.8246 H   0  0  0  0  0  0  0  0  0  0  0  0
   56.7888   23.1874   44.1468 H   0  0  0  0  0  0  0  0  0  0  0  0
   54.7720   24.4876   44.8315 H   0  0  0  0  0  0  0  0  0  0  0  0
   60.7569   33.8499   47.7320 H   0  0  0  0  0  0  0  0  0  0  0  0
   60.5918   35.7726   46.1560 H   0  0  0  0  0  0  0  0  0  0  0  0
   59.0512   35.6592   44.2020 H   0  0  0  0  0  0  0  0  0  0  0  0
   57.6545   33.6350   43.8206 H   0  0  0  0  0  0  0  0  0  0  0  0
  1  2  2  0
  2  3  1  0
  2  4  1  0
  4  5  1  0
  5  6  2  0
  6  7  1  0
  7  8  1  0
  8  9  1  0
  9 10  2  0
 10 11  1  0
 11 12  2  0
 12 13  1  0
 13 14  2  0
 14 15  1  0
 15 16  2  0
 16 17  1  0
 16 18  1  0
 18 19  2  0
  7 20  1  0
 20 21  2  0
 20 22  1  0
 22 23  2  0
 23 24  1  0
 24 25  2  0
 25 26  1  0
 26 27  2  0
 27  5  1  0
 19  9  1  0
 27 22  1  0
 18 12  1  0
  4 28  1  0
  4 29  1  0
  8 30  1  0
  8 31  1  0
 10 32  1  0
 11 33  1  0
 13 34  1  0
 14 35  1  0
 15 36  1  0
 23 37  1  0
 24 38  1  0
 25 39  1  0
 26 40  1  0
M  CHG  2   3  -1  17  -1
M  END
>  <UniqueID>  (40) 
40

>  <SMILES>  (40) 
O=C([O-])Cc1nn(Cc2ccc3cccc([O-])c3n2)c(=O)c2ccccc12

>  <Energy>  (40) 
53.52473973335126

>  <Genealogy>  (40) 
O=C([O-])Cc1nn(Cc2ccc3cccc([O-])c3n2)c(=O)c2ccccc12 (protonated)
O=C([O-])Cc1nn(Cc2ccc3cccc([O-])c3n2)c(=O)c2ccccc12 (3D coordinates assigned)
O=C([O-])Cc1nn(Cc2ccc3cccc([O-])c3n2)c(=O)c2ccccc12 (optimized conformer: 53.52473973335126 kcal/mol)

>  <smiles>  (40) 
O=C(O)Cc1nn(Cc2ccc3cccc(O)c3n2)c(=O)c2ccccc12

>  <score_type>  (40) 
oracle

>  <origin>  (40) 
adg

>  <m_score__min__energy>  (40) 
-15.279999999999999

>  <m_primary>  (40) 
energy

$$$$
40:0
     RDKit          3D

 45 49  0  0  0  0  0  0  0  0999 V2000
   54.9947   28.8568   44.8977 H   0  0  0  0  0  0  0  0  0  0  0  0
   55.9710   29.3630   44.8750 C   0  0  0  0  0  0  0  0  0  0  0  0
   56.1540   30.6310   44.6790 N   0  0  0  0  0  0  0  0  0  0  0  0
   58.2280   29.7720   44.9970 N   0  0  0  0  0  0  0  0  0  0  0  0
   59.2540   30.1830   45.7980 C   0  0  0  0  0  0  0  0  0  0  0  0
   60.1310   29.4360   46.4090 N   0  0  0  0  0  0  0  0  0  0  0  0
   58.1160   34.3790   45.8660 C   0  0  0  0  0  0  0  0  0  0  0  0
   57.2410   34.9489   45.5203 H   0  0  0  0  0  0  0  0  0  0  0  0
   58.9060   34.3010   47.1630 C   0  0  0  0  0  0  0  0  0  0  0  0
   58.7931   35.0867   47.9246 H   0  0  0  0  0  0  0  0  0  0  0  0
   59.0276   33.5498   47.9573 H   0  0  0  0  0  0  0  0  0  0  0  0
   59.6180   34.6090   45.8450 C   0  0  0  0  0  0  0  0  0  0  0  0
   60.0181   35.6164   45.6578 H   0  0  0  0  0  0  0  0  0  0  0  0
   60.4653   34.1714   45.2968 H   0  0  0  0  0  0  0  0  0  0  0  0
   59.2510   31.5270   45.9710 N   0  0  0  0  0  0  0  0  0  0  0  0
   58.1380   31.9050   45.3080 C   0  0  0  0  0  0  0  0  0  0  0  0
   57.6230   33.1030   45.3120 N   0  0  0  0  0  0  0  0  0  0  0  0
   60.2750   29.0940   47.8200 C   0  0  0  0  0  0  0  0  0  0  0  0
   59.6051   28.2516   48.0469 H   0  0  0  0  0  0  0  0  0  0  0  0
   61.3306   28.8357   47.9905 H   0  0  0  0  0  0  0  0  0  0  0  0
   59.9350   30.2420   48.7420 C   0  0  0  0  0  0  0  0  0  0  0  0
   60.7280   31.4050   48.8020 C   0  0  0  0  0  0  0  0  0  0  0  0
   61.5990   31.5092   48.1382 H   0  0  0  0  0  0  0  0  0  0  0  0
   60.4120   32.4270   49.7020 C   0  0  0  0  0  0  0  0  0  0  0  0
   61.0261   33.3390   49.7339 H   0  0  0  0  0  0  0  0  0  0  0  0
   59.3170   32.2930   50.5620 C   0  0  0  0  0  0  0  0  0  0  0  0
   58.9120   33.5850   51.6770 Cl  0  0  0  0  0  0  0  0  0  0  0  0
   58.5460   31.1290   50.5320 C   0  0  0  0  0  0  0  0  0  0  0  0
   57.6895   31.0199   51.2136 H   0  0  0  0  0  0  0  0  0  0  0  0
   58.8610   30.1020   49.6370 C   0  0  0  0  0  0  0  0  0  0  0  0
   58.2639   29.1782   49.6336 H   0  0  0  0  0  0  0  0  0  0  0  0
   57.5330   30.8550   44.7380 N   0  0  0  0  0  0  0  0  0  0  0  0
   57.2790   28.7050   45.0630 C   0  0  0  0  0  0  0  0  0  0  0  0
   57.5240   27.4340   44.7230 C   0  0  0  0  0  0  0  0  0  0  0  0
   57.8493   27.2265   43.6929 H   0  0  0  0  0  0  0  0  0  0  0  0
   57.3820   26.2880   45.6560 C   0  0  0  0  0  0  0  0  0  0  0  0
   56.1510   25.9650   46.2620 C   0  0  0  0  0  0  0  0  0  0  0  0
   55.0070   26.7090   45.9920 O   0  0  0  0  0  0  0  0  0  0  0  0
   56.0770   24.9310   47.1420 N   0  0  0  0  0  0  0  0  0  0  0  0
   55.1570   24.6980   47.5810 H   0  0  0  0  0  0  0  0  0  0  0  0
   57.1810   24.2100   47.4690 C   0  0  0  0  0  0  0  0  0  0  0  0
   57.0960   23.2570   48.2860 O   0  0  0  0  0  0  0  0  0  0  0  0
   58.3820   24.5190   46.9180 N   0  0  0  0  0  0  0  0  0  0  0  0
   58.5090   25.5390   46.0320 C   0  0  0  0  0  0  0  0  0  0  0  0
   59.6440   25.7970   45.5470 O   0  0  0  0  0  0  0  0  0  0  0  0
  1  2  1  0
  2  3  2  0
  3  4  1  0
  4  5  1  0
  5  6  2  0
  6  7  1  0
  7  8  1  0
  7  9  1  0
  9 10  1  0
  9 11  1  0
  9 12  1  0
 12 13  1  0
 12 14  1  0
  5 15  1  0
 15 16  1  0
 16 17  2  0
 17 18  1  0
 18 19  1  0
 18 20  1  0
 18 21  1  0
 21 22  2  0
 22 23  1  0
 22 24  1  0
 24 25  1  0
 24 26  2  0
 26 27  1  0
 26 28  1  0
 28 29  1  0
 28 30  2  0
 30 31  1  0
 16 32  1  0
 32 33  1  0
 33 34  2  3
 34 35  1  0
 34 36  1  0
 36 37  2  0
 37 38  1  0
 37 39  1  0
 39 40  1  0
 39 41  1  0
 41 42  2  0
 41 43  1  0
 43 44  1  0
 44 45  2  0
 33  2  1  0
 44 36  1  0
 32  4  1  0
 12  7  1  0
 30 21  1  0
M  CHG  3  15  -1  38  -1  43  -1
M  END
>  <UniqueID>  (41) 
41

>  <SMILES>  (41) 
O=c1[n-]c(=O)c(C=C2C=Nn3/c(=N/C4CC4)[n-]/c(=N/Cc4ccc(Cl)cc4)n32)c([O-])[nH]1

>  <Energy>  (41) 
434.65055729246455

>  <Genealogy>  (41) 
O=c1[n-]c(=O)c(C=C2C=Nn3c(=NC4CC4)[n-]c(=NCc4ccc(Cl)cc4)n32)c([O-])[nH]1 (protonated)
O=c1[n-]c(=O)c(C=C2C=Nn3/c(=N/C4CC4)[n-]/c(=N/Cc4ccc(Cl)cc4)n32)c([O-])[nH]1 (cis-trans isomerization)
O=c1[n-]c(=O)c(C=C2C=Nn3/c(=N/C4CC4)[n-]/c(=N/Cc4ccc(Cl)cc4)n32)c([O-])[nH]1 (3D coordinates assigned)
O=c1[n-]c(=O)c(C=C2C=Nn3/c(=N/C4CC4)[n-]/c(=N/Cc4ccc(Cl)cc4)n32)c([O-])[nH]1 (nonaromatic ring conformer: 434.65055729246455 kcal/mol)

>  <smiles>  (41) 
O=c1[nH]c(O)c(C=C2C=Nn3c(=NC4CC4)[nH]c(=NCc4ccc(Cl)cc4)n32)c(=O)[nH]1

>  <score_type>  (41) 
oracle

>  <origin>  (41) 
adg

>  <m_score__min__energy>  (41) 
-15.6

>  <m_primary>  (41) 
energy

$$$$
41:0
     RDKit          3D

 29 30  0  0  0  0  0  0  0  0999 V2000
   57.3460   34.3210   44.8890 C   0  0  0  0  0  0  0  0  0  0  0  0
   57.8870   33.2520   45.7920 C   0  0  0  0  0  0  0  0  0  0  0  0
   57.9840   33.4770   47.1700 C   0  0  0  0  0  0  0  0  0  0  0  0
   58.5160   32.4940   48.0070 C   0  0  0  0  0  0  0  0  0  0  0  0
   58.9730   31.2760   47.4830 C   0  0  0  0  0  0  0  0  0  0  0  0
   59.5060   30.2970   48.3850 N   0  0  0  0  0  0  0  0  0  0  0  0
   58.9020   31.0480   46.0850 C   0  0  0  0  0  0  0  0  0  0  0  0
   59.3640   29.7520   45.4530 C   0  0  0  0  0  0  0  0  0  0  0  0
   58.3760   28.6300   45.6920 C   0  0  0  0  0  0  0  0  0  0  0  0
   58.7910   27.4450   46.3160 C   0  0  0  0  0  0  0  0  0  0  0  0
   57.9010   26.4480   46.5530 N   0  0  0  0  0  0  0  0  0  0  0  0
   56.5950   26.5780   46.2080 C   0  0  0  0  0  0  0  0  0  0  0  0
   55.7920   25.6360   46.4370 O   0  0  0  0  0  0  0  0  0  0  0  0
   56.1570   27.7250   45.6230 N   0  0  0  0  0  0  0  0  0  0  0  0
   57.0110   28.7530   45.3670 C   0  0  0  0  0  0  0  0  0  0  0  0
   56.5680   29.8100   44.8440 O   0  0  0  0  0  0  0  0  0  0  0  0
   58.3590   32.0470   45.2550 C   0  0  0  0  0  0  0  0  0  0  0  0
   56.9319   35.1392   45.4965 H   0  0  0  0  0  0  0  0  0  0  0  0
   58.1561   34.7093   44.2542 H   0  0  0  0  0  0  0  0  0  0  0  0
   56.5533   33.8982   44.2542 H   0  0  0  0  0  0  0  0  0  0  0  0
   57.6400   34.4314   47.5951 H   0  0  0  0  0  0  0  0  0  0  0  0
   58.5774   32.6771   49.0899 H   0  0  0  0  0  0  0  0  0  0  0  0
   59.0050   29.3940   48.5410 H   0  0  0  0  0  0  0  0  0  0  0  0
   60.3920   30.4430   48.9100 H   0  0  0  0  0  0  0  0  0  0  0  0
   59.4760   29.9038   44.3693 H   0  0  0  0  0  0  0  0  0  0  0  0
   60.3226   29.4688   45.9121 H   0  0  0  0  0  0  0  0  0  0  0  0
   59.8426   27.3228   46.6148 H   0  0  0  0  0  0  0  0  0  0  0  0
   55.1460   27.8190   45.3700 H   0  0  0  0  0  0  0  0  0  0  0  0
   58.3045   31.8792   44.1692 H   0  0  0  0  0  0  0  0  0  0  0  0
  1  2  1  0
  2  3  2  0
  3  4  1  0
  4  5  2  0
  5  6  1  0
  5  7  1  0
  7  8  1  0
  8  9  1  0
  9 10  2  0
 10 11  1  0
 11 12  1  0
 12 13  2  0
 12 14  1  0
 14 15  1  0
 15 16  2  0
  7 17  2  0
 17  2  1  0
 15  9  1  0
  1 18  1  0
  1 19  1  0
  1 20  1  0
  3 21  1  0
  4 22  1  0
  6 23  1  0
  6 24  1  0
  8 25  1  0
  8 26  1  0
 10 27  1  0
 14 28  1  0
 17 29  1  0
M  CHG  1  11  -1
M  END
>  <UniqueID>  (42) 
42

>  <SMILES>  (42) 
Cc1ccc(N)c(Cc2c[n-]c(=O)[nH]c2=O)c1

>  <Energy>  (42) 
31.750763995004807

>  <Genealogy>  (42) 
Cc1ccc(N)c(Cc2c[n-]c(=O)[nH]c2=O)c1 (protonated)
Cc1ccc(N)c(Cc2c[n-]c(=O)[nH]c2=O)c1 (3D coordinates assigned)
Cc1ccc(N)c(Cc2c[n-]c(=O)[nH]c2=O)c1 (optimized conformer: 31.750763995004807 kcal/mol)

>  <smiles>  (42) 
Cc1ccc(N)c(Cc2c[nH]c(=O)[nH]c2=O)c1

>  <score_type>  (42) 
oracle

>  <origin>  (42) 
adg

>  <m_score__min__energy>  (42) 
-8.2300000000000004

>  <m_primary>  (42) 
energy

$$$$
42:0
     RDKit          3D

 50 53  0  0  0  0  0  0  0  0999 V2000
   57.6580   28.3930   43.8150 C   0  0  0  0  0  0  0  0  0  0  0  0
   58.3320   29.3120   44.7920 C   0  0  0  0  0  0  0  0  0  0  0  0
   59.3100   28.9670   45.7140 C   0  0  0  0  0  0  0  0  0  0  0  0
   59.8780   27.6790   45.9640 N   0  0  0  0  0  0  0  0  0  0  0  0
   59.1220   26.4950   46.2400 C   0  0  0  0  0  0  0  0  0  0  0  0
   59.5050   25.4040   45.7400 O   0  0  0  0  0  0  0  0  0  0  0  0
   57.9760   26.5110   47.2200 C   0  0  0  0  0  0  0  0  0  0  0  0
   56.8930   25.6300   46.7800 N   0  0  0  0  0  0  0  0  0  0  0  0
   55.7890   25.9880   46.0860 C   0  0  0  0  0  0  0  0  0  0  0  0
   55.5250   27.2810   45.6480 O   0  0  0  0  0  0  0  0  0  0  0  0
   54.9680   24.8950   45.8930 C   0  0  0  0  0  0  0  0  0  0  0  0
   55.5700   23.8360   46.5350 C   0  0  0  0  0  0  0  0  0  0  0  0
   56.7560   24.3150   47.0540 C   0  0  0  0  0  0  0  0  0  0  0  0
   57.6840   23.5610   47.7630 O   0  0  0  0  0  0  0  0  0  0  0  0
   55.0290   22.4390   46.5350 C   0  0  0  0  0  0  0  0  0  0  0  0
   53.5280   22.4460   46.1810 C   0  0  0  0  0  0  0  0  0  0  0  0
   53.2270   23.3620   44.9740 C   0  0  0  0  0  0  0  0  0  0  0  0
   53.6120   24.8290   45.2580 C   0  0  0  0  0  0  0  0  0  0  0  0
   59.7260   30.1580   46.2600 C   0  0  0  0  0  0  0  0  0  0  0  0
   60.6210   30.2950   47.1360 O   0  0  0  0  0  0  0  0  0  0  0  0
   59.0090   31.1700   45.7290 N   0  0  0  0  0  0  0  0  0  0  0  0
   59.1280   32.5600   46.0810 C   0  0  0  0  0  0  0  0  0  0  0  0
   59.1800   33.5430   45.0800 C   0  0  0  0  0  0  0  0  0  0  0  0
   59.2860   34.8950   45.4250 C   0  0  0  0  0  0  0  0  0  0  0  0
   59.3320   35.2730   46.7700 C   0  0  0  0  0  0  0  0  0  0  0  0
   59.2720   34.3000   47.7720 C   0  0  0  0  0  0  0  0  0  0  0  0
   59.1660   32.9480   47.4300 C   0  0  0  0  0  0  0  0  0  0  0  0
   58.1740   30.6600   44.8240 N   0  0  0  0  0  0  0  0  0  0  0  0
   57.2450   31.4370   43.9980 C   0  0  0  0  0  0  0  0  0  0  0  0
   57.0942   27.6242   44.3637 H   0  0  0  0  0  0  0  0  0  0  0  0
   56.9687   28.9718   43.1827 H   0  0  0  0  0  0  0  0  0  0  0  0
   58.4172   27.9095   43.1827 H   0  0  0  0  0  0  0  0  0  0  0  0
   58.3383   26.1720   48.2018 H   0  0  0  0  0  0  0  0  0  0  0  0
   57.5863   27.5376   47.2846 H   0  0  0  0  0  0  0  0  0  0  0  0
   55.5743   21.8388   45.7918 H   0  0  0  0  0  0  0  0  0  0  0  0
   55.1580   22.0055   47.5377 H   0  0  0  0  0  0  0  0  0  0  0  0
   53.2152   21.4202   45.9361 H   0  0  0  0  0  0  0  0  0  0  0  0
   52.9739   22.8319   47.0494 H   0  0  0  0  0  0  0  0  0  0  0  0
   53.7994   23.0055   44.1050 H   0  0  0  0  0  0  0  0  0  0  0  0
   52.1454   23.3242   44.7774 H   0  0  0  0  0  0  0  0  0  0  0  0
   53.6260   25.3905   44.3122 H   0  0  0  0  0  0  0  0  0  0  0  0
   52.8727   25.2675   45.9444 H   0  0  0  0  0  0  0  0  0  0  0  0
   59.1373   33.2494   44.0208 H   0  0  0  0  0  0  0  0  0  0  0  0
   59.3332   35.6611   44.6370 H   0  0  0  0  0  0  0  0  0  0  0  0
   59.4154   36.3361   47.0400 H   0  0  0  0  0  0  0  0  0  0  0  0
   59.3082   34.5980   48.8303 H   0  0  0  0  0  0  0  0  0  0  0  0
   59.1122   32.1855   48.2210 H   0  0  0  0  0  0  0  0  0  0  0  0
   56.5644   32.0062   44.6482 H   0  0  0  0  0  0  0  0  0  0  0  0
   57.8130   32.1328   43.3630 H   0  0  0  0  0  0  0  0  0  0  0  0
   56.6605   30.7550   43.3630 H   0  0  0  0  0  0  0  0  0  0  0  0
  1  2  1  0
  2  3  2  0
  3  4  1  0
  4  5  1  0
  5  6  2  0
  5  7  1  0
  7  8  1  0
  8  9  1  0
  9 10  1  0
  9 11  2  0
 11 12  1  0
 12 13  2  0
 13 14  1  0
 12 15  1  0
 15 16  1  0
 16 17  1  0
 17 18  1  0
  3 19  1  0
 19 20  2  0
 19 21  1  0
 21 22  1  0
 22 23  2  0
 23 24  1  0
 24 25  2  0
 25 26  1  0
 26 27  2  0
 21 28  1  0
 28 29  1  0
 28  2  1  0
 13  8  1  0
 27 22  1  0
 18 11  1  0
  1 30  1  0
  1 31  1  0
  1 32  1  0
  7 33  1  0
  7 34  1  0
 15 35  1  0
 15 36  1  0
 16 37  1  0
 16 38  1  0
 17 39  1  0
 17 40  1  0
 18 41  1  0
 18 42  1  0
 23 43  1  0
 24 44  1  0
 25 45  1  0
 26 46  1  0
 27 47  1  0
 29 48  1  0
 29 49  1  0
 29 50  1  0
M  CHG  3   4  -1  10  -1  14  -1
M  END
>  <UniqueID>  (43) 
43

>  <SMILES>  (43) 
Cc1c([N-]C(=O)Cn2c([O-])c3c(c2[O-])CCCC3)c(=O)n(-c2ccccc2)n1C

>  <Energy>  (43) 
128.46177579164234

>  <Genealogy>  (43) 
Cc1c([N-]C(=O)Cn2c([O-])c3c(c2[O-])CCCC3)c(=O)n(-c2ccccc2)n1C (protonated)
Cc1c([N-]C(=O)Cn2c([O-])c3c(c2[O-])CCCC3)c(=O)n(-c2ccccc2)n1C (3D coordinates assigned)
Cc1c([N-]C(=O)Cn2c([O-])c3c(c2[O-])CCCC3)c(=O)n(-c2ccccc2)n1C (nonaromatic ring conformer: 128.46177579164234 kcal/mol)

>  <smiles>  (43) 
Cc1c(NC(=O)Cn2c(O)c3c(c2O)CCCC3)c(=O)n(-c2ccccc2)n1C

>  <score_type>  (43) 
oracle

>  <origin>  (43) 
adg

>  <m_score__min__energy>  (43) 
-14.93

>  <m_primary>  (43) 
energy

$$$$
43:0
     RDKit          3D

 31 32  0  0  0  0  0  0  0  0999 V2000
   52.7220   30.2960   48.9600 H   0  0  0  0  0  0  0  0  0  0  0  0
   51.8000   30.4170   49.3600 O   0  0  0  0  0  0  0  0  0  0  0  0
   51.6050   31.1070   50.5530 C   0  0  0  0  0  0  0  0  0  0  0  0
   51.0280   32.3200   50.6160 N   0  0  0  0  0  0  0  0  0  0  0  0
   51.0520   32.5940   51.9370 C   0  0  0  0  0  0  0  0  0  0  0  0
   50.5950   33.6650   52.4150 O   0  0  0  0  0  0  0  0  0  0  0  0
   51.6090   31.6350   52.7040 N   0  0  0  0  0  0  0  0  0  0  0  0
   51.9490   30.6800   51.8190 C   0  0  0  0  0  0  0  0  0  0  0  0
   52.6680   29.4330   52.1550 C   0  0  0  0  0  0  0  0  0  0  0  0
   52.3868   28.5210   51.6080 H   0  0  0  0  0  0  0  0  0  0  0  0
   53.6380   29.3290   53.0770 C   0  0  0  0  0  0  0  0  0  0  0  0
   53.4755   28.6231   53.9049 H   0  0  0  0  0  0  0  0  0  0  0  0
   54.9070   30.0870   53.0690 C   0  0  0  0  0  0  0  0  0  0  0  0
   55.2840   30.8640   51.9630 C   0  0  0  0  0  0  0  0  0  0  0  0
   54.6433   30.8898   51.0692 H   0  0  0  0  0  0  0  0  0  0  0  0
   56.4680   31.6050   51.9900 C   0  0  0  0  0  0  0  0  0  0  0  0
   56.7591   32.1959   51.1090 H   0  0  0  0  0  0  0  0  0  0  0  0
   57.2950   31.6050   53.1330 C   0  0  0  0  0  0  0  0  0  0  0  0
   58.5270   32.3720   53.1610 N   0  0  0  0  0  0  0  0  0  0  0  0
   58.5720   33.7360   52.6210 C   0  0  0  0  0  0  0  0  0  0  0  0
   58.5958   34.4581   53.4504 H   0  0  0  0  0  0  0  0  0  0  0  0
   59.4746   33.8565   52.0039 H   0  0  0  0  0  0  0  0  0  0  0  0
   57.6793   33.9157   52.0039 H   0  0  0  0  0  0  0  0  0  0  0  0
   59.7510   31.7970   53.7360 C   0  0  0  0  0  0  0  0  0  0  0  0
   59.6891   31.8261   54.8339 H   0  0  0  0  0  0  0  0  0  0  0  0
   59.8582   30.7543   53.4023 H   0  0  0  0  0  0  0  0  0  0  0  0
   60.6219   32.3802   53.4023 H   0  0  0  0  0  0  0  0  0  0  0  0
   56.8870   30.8470   54.2510 C   0  0  0  0  0  0  0  0  0  0  0  0
   57.5093   30.8385   55.1580 H   0  0  0  0  0  0  0  0  0  0  0  0
   55.7020   30.1070   54.2200 C   0  0  0  0  0  0  0  0  0  0  0  0
   55.3919   29.5358   55.1075 H   0  0  0  0  0  0  0  0  0  0  0  0
  1  2  1  0
  2  3  1  0
  3  4  1  0
  4  5  1  0
  5  6  2  0
  5  7  1  0
  7  8  1  0
  8  9  1  0
  9 10  1  0
  9 11  2  0
 11 12  1  0
 11 13  1  0
 13 14  2  0
 14 15  1  0
 14 16  1  0
 16 17  1  0
 16 18  2  0
 18 19  1  0
 19 20  1  0
 20 21  1  0
 20 22  1  0
 20 23  1  0
 19 24  1  0
 24 25  1  0
 24 26  1  0
 24 27  1  0
 18 28  1  0
 28 29  1  0
 28 30  2  0
 30 31  1  0
  8  3  2  0
 30 13  1  0
M  CHG  2   4  -1   7  -1
M  END
>  <UniqueID>  (44) 
44

>  <SMILES>  (44) 
CN(C)c1ccc(/C=C\c2[n-]c(=O)[n-]c2O)cc1

>  <Energy>  (44) 
68.93678894572002

>  <Genealogy>  (44) 
CN(C)c1ccc(C=Cc2[n-]c(=O)[n-]c2O)cc1 (protonated)
CN(C)c1ccc(/C=C\c2[n-]c(=O)[n-]c2O)cc1 (cis-trans isomerization)
CN(C)c1ccc(/C=C\c2[n-]c(=O)[n-]c2O)cc1 (3D coordinates assigned)
CN(C)c1ccc(/C=C\c2[n-]c(=O)[n-]c2O)cc1 (optimized conformer: 68.93678894572002 kcal/mol)

>  <smiles>  (44) 
CN(C)c1ccc(C=Cc2[nH]c(=O)[nH]c2O)cc1

>  <score_type>  (44) 
oracle

>  <origin>  (44) 
adg

>  <m_score__min__energy>  (44) 
-10.960000000000001

>  <m_primary>  (44) 
energy

$$$$
44:0
     RDKit          3D

 41 44  0  0  0  0  0  0  0  0999 V2000
   54.2160   24.2240   44.5800 H   0  0  0  0  0  0  0  0  0  0  0  0
   55.1950   23.9720   44.6550 O   0  0  0  0  0  0  0  0  0  0  0  0
   56.1260   24.7970   45.2850 C   0  0  0  0  0  0  0  0  0  0  0  0
   55.7260   25.9680   45.9500 C   0  0  0  0  0  0  0  0  0  0  0  0
   54.3850   26.3320   45.9870 O   0  0  0  0  0  0  0  0  0  0  0  0
   56.6760   26.7790   46.5790 C   0  0  0  0  0  0  0  0  0  0  0  0
   56.3572   27.6995   47.0898 H   0  0  0  0  0  0  0  0  0  0  0  0
   58.0370   26.4240   46.5620 C   0  0  0  0  0  0  0  0  0  0  0  0
   59.0290   27.2070   47.1940 C   0  0  0  0  0  0  0  0  0  0  0  0
   58.7120   28.3580   47.9290 O   0  0  0  0  0  0  0  0  0  0  0  0
   59.4990   29.5200   47.9590 C   0  0  0  0  0  0  0  0  0  0  0  0
   59.8160   30.1430   46.7490 C   0  0  0  0  0  0  0  0  0  0  0  0
   59.4536   29.7141   45.8031 H   0  0  0  0  0  0  0  0  0  0  0  0
   60.5900   31.3070   46.7310 C   0  0  0  0  0  0  0  0  0  0  0  0
   60.8221   31.7949   45.7728 H   0  0  0  0  0  0  0  0  0  0  0  0
   61.0730   31.8570   47.9300 C   0  0  0  0  0  0  0  0  0  0  0  0
   61.8650   33.1350   47.9060 C   0  0  0  0  0  0  0  0  0  0  0  0
   62.2523   33.3043   46.8905 H   0  0  0  0  0  0  0  0  0  0  0  0
   62.7013   33.0546   48.6160 H   0  0  0  0  0  0  0  0  0  0  0  0
   60.9940   34.2850   48.3020 C   0  0  0  0  0  0  0  0  0  0  0  0
   60.8940   34.5990   49.5200 O   0  0  0  0  0  0  0  0  0  0  0  0
   60.2480   34.9810   47.2910 N   0  0  0  0  0  0  0  0  0  0  0  0
   59.2560   34.4990   46.6030 C   0  0  0  0  0  0  0  0  0  0  0  0
   58.2090   33.8320   47.1370 N   0  0  0  0  0  0  0  0  0  0  0  0
   57.3270   33.4430   46.1780 C   0  0  0  0  0  0  0  0  0  0  0  0
   56.4074   32.8869   46.4125 H   0  0  0  0  0  0  0  0  0  0  0  0
   57.6730   33.8000   44.8780 C   0  0  0  0  0  0  0  0  0  0  0  0
   57.0922   33.5767   43.9709 H   0  0  0  0  0  0  0  0  0  0  0  0
   59.1350   34.6330   44.9350 S   0  0  0  0  0  0  0  0  0  0  0  0
   60.7560   31.2320   49.1490 C   0  0  0  0  0  0  0  0  0  0  0  0
   61.1920   31.7510   50.3250 F   0  0  0  0  0  0  0  0  0  0  0  0
   59.9830   30.0670   49.1630 C   0  0  0  0  0  0  0  0  0  0  0  0
   59.7517   29.5752   50.1194 H   0  0  0  0  0  0  0  0  0  0  0  0
   60.3720   26.8390   47.0770 C   0  0  0  0  0  0  0  0  0  0  0  0
   61.1559   27.4610   47.5339 H   0  0  0  0  0  0  0  0  0  0  0  0
   60.7160   25.6820   46.3800 C   0  0  0  0  0  0  0  0  0  0  0  0
   61.7720   25.3851   46.2979 H   0  0  0  0  0  0  0  0  0  0  0  0
   59.7520   24.9200   45.8020 N   0  0  0  0  0  0  0  0  0  0  0  0
   58.4360   25.2560   45.8700 C   0  0  0  0  0  0  0  0  0  0  0  0
   57.4800   24.4480   45.2450 C   0  0  0  0  0  0  0  0  0  0  0  0
   57.7945   23.5341   44.7198 H   0  0  0  0  0  0  0  0  0  0  0  0
  1  2  1  0
  2  3  1  0
  3  4  2  0
  4  5  1  0
  4  6  1  0
  6  7  1  0
  6  8  2  0
  8  9  1  0
  9 10  1  0
 10 11  1  0
 11 12  2  0
 12 13  1  0
 12 14  1  0
 14 15  1  0
 14 16  2  0
 16 17  1  0
 17 18  1  0
 17 19  1  0
 17 20  1  0
 20 21  2  0
 20 22  1  0
 22 23  2  0
 23 24  1  0
 24 25  1  0
 25 26  1  0
 25 27  2  0
 27 28  1  0
 27 29  1  0
 16 30  1  0
 30 31  1  0
 30 32  2  0
 32 33  1  0
  9 34  2  0
 34 35  1  0
 34 36  1  0
 36 37  1  0
 36 38  2  0
 38 39  1  0
 39 40  2  0
 40 41  1  0
 40  3  1  0
 39  8  1  0
 32 11  1  0
 29 23  1  0
M  CHG  2   5  -1  24  -1
M  END
>  <UniqueID>  (45) 
45

>  <SMILES>  (45) 
O=C(Cc1ccc(Oc2ccnc3cc(O)c([O-])cc23)cc1F)/N=c1\[n-]ccs1

>  <Energy>  (45) 
88.61696886273695

>  <Genealogy>  (45) 
O=C(Cc1ccc(Oc2ccnc3cc(O)c([O-])cc23)cc1F)N=c1[n-]ccs1 (protonated)
O=C(Cc1ccc(Oc2ccnc3cc(O)c([O-])cc23)cc1F)/N=c1\[n-]ccs1 (cis-trans isomerization)
O=C(Cc1ccc(Oc2ccnc3cc(O)c([O-])cc23)cc1F)/N=c1\[n-]ccs1 (3D coordinates assigned)
O=C(Cc1ccc(Oc2ccnc3cc(O)c([O-])cc23)cc1F)/N=c1\[n-]ccs1 (optimized conformer: 88.61696886273695 kcal/mol)

>  <smiles>  (45) 
O=C(Cc1ccc(Oc2ccnc3cc(O)c(O)cc23)cc1F)N=c1[nH]ccs1

>  <score_type>  (45) 
oracle

>  <origin>  (45) 
adg

>  <m_score__min__energy>  (45) 
-13.359999999999999

>  <m_primary>  (45) 
energy

$$$$
45:0
     RDKit          3D

 42 44  0  0  0  0  0  0  0  0999 V2000
   55.2090   30.1190   43.9470 O   0  0  0  0  0  0  0  0  0  0  0  0
   56.1910   29.6420   44.5790 C   0  0  0  0  0  0  0  0  0  0  0  0
   56.0400   28.4600   45.2260 N   0  0  0  0  0  0  0  0  0  0  0  0
   57.0490   27.8930   45.9270 C   0  0  0  0  0  0  0  0  0  0  0  0
   56.7960   26.7020   46.6110 O   0  0  0  0  0  0  0  0  0  0  0  0
   58.3040   28.5270   45.9680 C   0  0  0  0  0  0  0  0  0  0  0  0
   59.4600   27.9420   46.6860 C   0  0  0  0  0  0  0  0  0  0  0  0
   60.3310   28.6500   47.4200 C   0  0  0  0  0  0  0  0  0  0  0  0
   59.9500   29.6410   48.4540 C   0  0  0  0  0  0  0  0  0  0  0  0
   58.8800   29.3830   49.3310 C   0  0  0  0  0  0  0  0  0  0  0  0
   58.5320   30.3100   50.3160 C   0  0  0  0  0  0  0  0  0  0  0  0
   59.2580   31.4960   50.4510 C   0  0  0  0  0  0  0  0  0  0  0  0
   58.8200   32.6580   51.6900 Cl  0  0  0  0  0  0  0  0  0  0  0  0
   60.3400   31.7520   49.6030 C   0  0  0  0  0  0  0  0  0  0  0  0
   60.6950   30.8280   48.6120 C   0  0  0  0  0  0  0  0  0  0  0  0
   62.0540   31.2100   47.5590 Cl  0  0  0  0  0  0  0  0  0  0  0  0
   58.4420   29.7650   45.3180 C   0  0  0  0  0  0  0  0  0  0  0  0
   59.5510   30.3680   45.3700 O   0  0  0  0  0  0  0  0  0  0  0  0
   57.3880   30.3100   44.6250 N   0  0  0  0  0  0  0  0  0  0  0  0
   57.5210   31.6280   43.9670 C   0  0  0  0  0  0  0  0  0  0  0  0
   56.9750   32.7520   44.8580 C   0  0  0  0  0  0  0  0  0  0  0  0
   58.0530   33.3490   45.7260 C   0  0  0  0  0  0  0  0  0  0  0  0
   57.9540   33.2790   47.1250 C   0  0  0  0  0  0  0  0  0  0  0  0
   58.9280   33.8790   47.9300 C   0  0  0  0  0  0  0  0  0  0  0  0
   60.0000   34.5570   47.3440 C   0  0  0  0  0  0  0  0  0  0  0  0
   60.1010   34.6370   45.9530 C   0  0  0  0  0  0  0  0  0  0  0  0
   59.1320   34.0370   45.1440 C   0  0  0  0  0  0  0  0  0  0  0  0
   57.3650   25.8730   46.5000 H   0  0  0  0  0  0  0  0  0  0  0  0
   59.6142   26.8554   46.6123 H   0  0  0  0  0  0  0  0  0  0  0  0
   61.4037   28.4834   47.2420 H   0  0  0  0  0  0  0  0  0  0  0  0
   58.3136   28.4444   49.2400 H   0  0  0  0  0  0  0  0  0  0  0  0
   57.6845   30.1059   50.9869 H   0  0  0  0  0  0  0  0  0  0  0  0
   60.9149   32.6831   49.7147 H   0  0  0  0  0  0  0  0  0  0  0  0
   58.5841   31.8195   43.7593 H   0  0  0  0  0  0  0  0  0  0  0  0
   56.9397   31.6109   43.0333 H   0  0  0  0  0  0  0  0  0  0  0  0
   56.5545   33.5417   44.2181 H   0  0  0  0  0  0  0  0  0  0  0  0
   56.2034   32.3244   45.5151 H   0  0  0  0  0  0  0  0  0  0  0  0
   57.1081   32.7508   47.5892 H   0  0  0  0  0  0  0  0  0  0  0  0
   58.8499   33.8170   49.0255 H   0  0  0  0  0  0  0  0  0  0  0  0
   60.7651   35.0282   47.9785 H   0  0  0  0  0  0  0  0  0  0  0  0
   60.9446   35.1731   45.4936 H   0  0  0  0  0  0  0  0  0  0  0  0
   59.2139   34.1033   44.0491 H   0  0  0  0  0  0  0  0  0  0  0  0
  1  2  2  0
  2  3  1  0
  3  4  1  0
  4  5  1  0
  4  6  2  0
  6  7  1  0
  7  8  2  3
  8  9  1  0
  9 10  2  0
 10 11  1  0
 11 12  2  0
 12 13  1  0
 12 14  1  0
 14 15  2  0
 15 16  1  0
  6 17  1  0
 17 18  2  0
 17 19  1  0
 19 20  1  0
 20 21  1  0
 21 22  1  0
 22 23  2  0
 23 24  1  0
 24 25  2  0
 25 26  1  0
 26 27  2  0
 19  2  1  0
 27 22  1  0
 15  9  1  0
  5 28  1  0
  7 29  1  0
  8 30  1  0
 10 31  1  0
 11 32  1  0
 14 33  1  0
 20 34  1  0
 20 35  1  0
 21 36  1  0
 21 37  1  0
 23 38  1  0
 24 39  1  0
 25 40  1  0
 26 41  1  0
 27 42  1  0
M  CHG  1   3  -1
M  END
>  <UniqueID>  (46) 
46

>  <SMILES>  (46) 
O=c1[n-]c(O)c(C=Cc2ccc(Cl)cc2Cl)c(=O)n1CCc1ccccc1

>  <Energy>  (46) 
58.67289154926116

>  <Genealogy>  (46) 
O=c1[n-]c(O)c(C=Cc2ccc(Cl)cc2Cl)c(=O)n1CCc1ccccc1 (protonated)
O=c1[n-]c(O)c(C=Cc2ccc(Cl)cc2Cl)c(=O)n1CCc1ccccc1 (3D coordinates assigned)
O=c1[n-]c(O)c(C=Cc2ccc(Cl)cc2Cl)c(=O)n1CCc1ccccc1 (optimized conformer: 58.67289154926116 kcal/mol)

>  <smiles>  (46) 
O=c1[nH]c(O)c(C=Cc2ccc(Cl)cc2Cl)c(=O)n1CCc1ccccc1

>  <score_type>  (46) 
oracle

>  <origin>  (46) 
adg

>  <m_score__min__energy>  (46) 
-10.57

>  <m_primary>  (46) 
energy

$$$$
46:0
     RDKit          3D

 46 49  0  0  0  0  0  0  0  0999 V2000
   57.6440   31.4440   51.7530 C   0  0  0  0  0  0  0  0  0  0  0  0
   58.3540   31.8300   50.5400 N   0  0  0  0  0  0  0  0  0  0  0  0
   59.6880   31.8370   50.3750 C   0  0  0  0  0  0  0  0  0  0  0  0
   59.9680   32.3530   49.1230 C   0  0  0  0  0  0  0  0  0  0  0  0
   61.3110   32.4950   48.5340 C   0  0  0  0  0  0  0  0  0  0  0  0
   62.0890   33.6130   48.8730 C   0  0  0  0  0  0  0  0  0  0  0  0
   63.3610   33.7790   48.3250 C   0  0  0  0  0  0  0  0  0  0  0  0
   63.8720   32.8250   47.4450 C   0  0  0  0  0  0  0  0  0  0  0  0
   63.1170   31.6960   47.1190 C   0  0  0  0  0  0  0  0  0  0  0  0
   61.8310   31.5120   47.6650 C   0  0  0  0  0  0  0  0  0  0  0  0
   61.0590   30.3670   47.3970 O   0  0  0  0  0  0  0  0  0  0  0  0
   60.9130   29.7410   46.1210 C   0  0  0  0  0  0  0  0  0  0  0  0
   59.4610   29.5300   45.7920 C   0  0  0  0  0  0  0  0  0  0  0  0
   58.7740   30.4840   45.0260 C   0  0  0  0  0  0  0  0  0  0  0  0
   57.4230   30.3010   44.7160 C   0  0  0  0  0  0  0  0  0  0  0  0
   56.7470   29.1660   45.1720 C   0  0  0  0  0  0  0  0  0  0  0  0
   55.4370   28.9890   44.8680 F   0  0  0  0  0  0  0  0  0  0  0  0
   57.4200   28.2190   45.9490 C   0  0  0  0  0  0  0  0  0  0  0  0
   58.7700   28.4010   46.2650 C   0  0  0  0  0  0  0  0  0  0  0  0
   58.7270   32.6770   48.5730 C   0  0  0  0  0  0  0  0  0  0  0  0
   58.4440   33.3700   47.2910 C   0  0  0  0  0  0  0  0  0  0  0  0
   59.4040   34.2290   46.7310 C   0  0  0  0  0  0  0  0  0  0  0  0
   59.1540   34.8390   45.4990 C   0  0  0  0  0  0  0  0  0  0  0  0
   57.9870   34.6030   44.8460 N   0  0  0  0  0  0  0  0  0  0  0  0
   57.0380   33.7760   45.3590 C   0  0  0  0  0  0  0  0  0  0  0  0
   57.2510   33.1400   46.5840 C   0  0  0  0  0  0  0  0  0  0  0  0
   57.7730   32.3430   49.4670 N   0  0  0  0  0  0  0  0  0  0  0  0
   58.2237   31.7591   52.6332 H   0  0  0  0  0  0  0  0  0  0  0  0
   56.6573   31.9298   51.7706 H   0  0  0  0  0  0  0  0  0  0  0  0
   57.5152   30.3517   51.7706 H   0  0  0  0  0  0  0  0  0  0  0  0
   60.4299   31.4914   51.1100 H   0  0  0  0  0  0  0  0  0  0  0  0
   61.6935   34.3623   49.5746 H   0  0  0  0  0  0  0  0  0  0  0  0
   63.9614   34.6627   48.5870 H   0  0  0  0  0  0  0  0  0  0  0  0
   64.8716   32.9621   47.0069 H   0  0  0  0  0  0  0  0  0  0  0  0
   63.5297   30.9442   46.4302 H   0  0  0  0  0  0  0  0  0  0  0  0
   61.3677   30.3816   45.3510 H   0  0  0  0  0  0  0  0  0  0  0  0
   61.4136   28.7619   46.1496 H   0  0  0  0  0  0  0  0  0  0  0  0
   59.3011   31.3805   44.6675 H   0  0  0  0  0  0  0  0  0  0  0  0
   56.8914   31.0514   44.1124 H   0  0  0  0  0  0  0  0  0  0  0  0
   56.8865   27.3285   46.3128 H   0  0  0  0  0  0  0  0  0  0  0  0
   59.2928   27.6584   46.8856 H   0  0  0  0  0  0  0  0  0  0  0  0
   60.3490   34.4207   47.2603 H   0  0  0  0  0  0  0  0  0  0  0  0
   59.9039   35.5117   45.0573 H   0  0  0  0  0  0  0  0  0  0  0  0
   56.1008   33.6074   44.8084 H   0  0  0  0  0  0  0  0  0  0  0  0
   56.4882   32.4617   46.9940 H   0  0  0  0  0  0  0  0  0  0  0  0
   56.7450   32.5060   49.3730 H   0  0  0  0  0  0  0  0  0  0  0  0
  1  2  1  0
  2  3  1  0
  3  4  2  0
  4  5  1  0
  5  6  2  0
  6  7  1  0
  7  8  2  0
  8  9  1  0
  9 10  2  0
 10 11  1  0
 11 12  1  0
 12 13  1  0
 13 14  2  0
 14 15  1  0
 15 16  2  0
 16 17  1  0
 16 18  1  0
 18 19  2  0
  4 20  1  0
 20 21  1  0
 21 22  2  0
 22 23  1  0
 23 24  2  0
 24 25  1  0
 25 26  2  0
 20 27  2  0
 27  2  1  0
 10  5  1  0
 19 13  1  0
 26 21  1  0
  1 28  1  0
  1 29  1  0
  1 30  1  0
  3 31  1  0
  6 32  1  0
  7 33  1  0
  8 34  1  0
  9 35  1  0
 12 36  1  0
 12 37  1  0
 14 38  1  0
 15 39  1  0
 18 40  1  0
 19 41  1  0
 22 42  1  0
 23 43  1  0
 25 44  1  0
 26 45  1  0
 27 46  1  0
M  CHG  1  27   1
M  END
>  <UniqueID>  (47) 
47

>  <SMILES>  (47) 
Cn1cc(-c2ccccc2OCc2ccc(F)cc2)c(-c2ccncc2)[nH+]1

>  <Energy>  (47) 
87.84148321023955

>  <Genealogy>  (47) 
Cn1cc(-c2ccccc2OCc2ccc(F)cc2)c(-c2ccncc2)[nH+]1 (protonated)
Cn1cc(-c2ccccc2OCc2ccc(F)cc2)c(-c2ccncc2)[nH+]1 (3D coordinates assigned)
Cn1cc(-c2ccccc2OCc2ccc(F)cc2)c(-c2ccncc2)[nH+]1 (optimized conformer: 87.84148321023955 kcal/mol)

>  <smiles>  (47) 
Cn1cc(-c2ccccc2OCc2ccc(F)cc2)c(-c2ccncc2)n1

>  <score_type>  (47) 
oracle

>  <origin>  (47) 
adg

>  <m_score__min__energy>  (47) 
-6.79

>  <m_primary>  (47) 
energy

$$$$
47:0
     RDKit          3D

 53 56  0  0  0  0  0  0  0  0999 V2000
   57.3750   31.6110   42.2680 C   0  0  0  0  0  0  0  0  0  0  0  0
   57.0170   31.6100   43.7220 C   0  0  0  0  0  0  0  0  0  0  0  0
   56.1570   30.8200   44.1910 O   0  0  0  0  0  0  0  0  0  0  0  0
   57.6830   32.5490   44.6190 C   0  0  0  0  0  0  0  0  0  0  0  0
   58.7470   33.2900   44.1100 C   0  0  0  0  0  0  0  0  0  0  0  0
   59.4170   34.2030   44.9320 C   0  0  0  0  0  0  0  0  0  0  0  0
   58.9990   34.3450   46.2380 C   0  0  0  0  0  0  0  0  0  0  0  0
   59.6300   35.2830   47.2010 C   0  0  0  0  0  0  0  0  0  0  0  0
   60.4260   34.5930   48.1580 N   0  0  0  0  0  0  0  0  0  0  0  0
   61.5290   33.8430   47.6570 C   0  0  0  0  0  0  0  0  0  0  0  0
   61.0870   32.4500   47.2600 C   0  0  0  0  0  0  0  0  0  0  0  0
   60.7190   31.8130   48.6060 C   0  0  0  0  0  0  0  0  0  0  0  0
   60.5910   30.3630   48.5490 C   0  0  0  0  0  0  0  0  0  0  0  0
   59.9110   29.6060   47.6320 C   0  0  0  0  0  0  0  0  0  0  0  0
   60.0600   28.2650   47.9690 C   0  0  0  0  0  0  0  0  0  0  0  0
   59.5020   27.1380   47.2600 C   0  0  0  0  0  0  0  0  0  0  0  0
   60.3110   26.1380   46.7620 C   0  0  0  0  0  0  0  0  0  0  0  0
   59.7940   25.0440   46.0750 C   0  0  0  0  0  0  0  0  0  0  0  0
   58.4170   24.9660   45.8920 C   0  0  0  0  0  0  0  0  0  0  0  0
   57.6060   25.9670   46.3910 C   0  0  0  0  0  0  0  0  0  0  0  0
   56.1920   25.8220   46.1640 C   0  0  0  0  0  0  0  0  0  0  0  0
   55.0420   25.7080   45.9880 N   0  0  0  0  0  0  0  0  0  0  0  0
   58.1330   27.0610   47.0780 C   0  0  0  0  0  0  0  0  0  0  0  0
   60.8320   28.2530   49.0900 N   0  0  0  0  0  0  0  0  0  0  0  0
   61.1340   29.4750   49.4180 N   0  0  0  0  0  0  0  0  0  0  0  0
   59.4780   32.5080   49.0700 C   0  0  0  0  0  0  0  0  0  0  0  0
   59.7000   33.9860   49.2230 C   0  0  0  0  0  0  0  0  0  0  0  0
   57.9310   33.5910   46.7240 C   0  0  0  0  0  0  0  0  0  0  0  0
   57.2630   32.6880   45.9250 C   0  0  0  0  0  0  0  0  0  0  0  0
   58.4697   31.6141   42.1599 H   0  0  0  0  0  0  0  0  0  0  0  0
   56.9617   30.7117   41.7880 H   0  0  0  0  0  0  0  0  0  0  0  0
   56.9566   32.5080   41.7880 H   0  0  0  0  0  0  0  0  0  0  0  0
   59.0600   33.1577   43.0638 H   0  0  0  0  0  0  0  0  0  0  0  0
   60.2593   34.7948   44.5443 H   0  0  0  0  0  0  0  0  0  0  0  0
   60.2679   35.9877   46.6474 H   0  0  0  0  0  0  0  0  0  0  0  0
   58.8307   35.8154   47.7374 H   0  0  0  0  0  0  0  0  0  0  0  0
   61.9451   34.3552   46.7770 H   0  0  0  0  0  0  0  0  0  0  0  0
   62.2920   33.7629   48.4453 H   0  0  0  0  0  0  0  0  0  0  0  0
   60.2168   32.4870   46.5882 H   0  0  0  0  0  0  0  0  0  0  0  0
   61.8568   31.8896   46.7092 H   0  0  0  0  0  0  0  0  0  0  0  0
   61.5320   31.9517   49.3339 H   0  0  0  0  0  0  0  0  0  0  0  0
   59.3427   29.9935   46.7736 H   0  0  0  0  0  0  0  0  0  0  0  0
   61.3984   26.2075   46.9126 H   0  0  0  0  0  0  0  0  0  0  0  0
   60.4587   24.2588   45.6855 H   0  0  0  0  0  0  0  0  0  0  0  0
   57.9772   24.1134   45.3538 H   0  0  0  0  0  0  0  0  0  0  0  0
   57.4714   27.8485   47.4681 H   0  0  0  0  0  0  0  0  0  0  0  0
   61.1000   27.3580   49.5610 H   0  0  0  0  0  0  0  0  0  0  0  0
   58.6780   32.3409   48.3337 H   0  0  0  0  0  0  0  0  0  0  0  0
   59.1984   32.0973   50.0514 H   0  0  0  0  0  0  0  0  0  0  0  0
   58.7169   34.4749   49.2897 H   0  0  0  0  0  0  0  0  0  0  0  0
   60.3107   34.1160   50.1286 H   0  0  0  0  0  0  0  0  0  0  0  0
   57.6143   33.7200   47.7695 H   0  0  0  0  0  0  0  0  0  0  0  0
   56.4218   32.0972   46.3167 H   0  0  0  0  0  0  0  0  0  0  0  0
  1  2  1  0
  2  3  2  0
  2  4  1  0
  4  5  2  0
  5  6  1  0
  6  7  2  0
  7  8  1  0
  8  9  1  0
  9 10  1  0
 10 11  1  0
 11 12  1  0
 12 13  1  0
 13 14  1  0
 14 15  2  0
 15 16  1  0
 16 17  2  0
 17 18  1  0
 18 19  2  0
 19 20  1  0
 20 21  1  0
 21 22  3  0
 20 23  2  0
 15 24  1  0
 24 25  1  0
 12 26  1  0
 26 27  1  0
  7 28  1  0
 28 29  2  0
 29  4  1  0
 27  9  1  0
 25 13  2  0
 23 16  1  0
  1 30  1  0
  1 31  1  0
  1 32  1  0
  5 33  1  0
  6 34  1  0
  8 35  1  0
  8 36  1  0
 10 37  1  0
 10 38  1  0
 11 39  1  0
 11 40  1  0
 12 41  1  0
 14 42  1  0
 17 43  1  0
 18 44  1  0
 19 45  1  0
 23 46  1  0
 24 47  1  0
 26 48  1  0
 26 49  1  0
 27 50  1  0
 27 51  1  0
 28 52  1  0
 29 53  1  0
M  END
>  <smiles>  (48) 
CC(=O)c1ccc(CN2CCC(c3cc(-c4cccc(C#N)c4)[nH]n3)CC2)cc1

>  <score_type>  (48) 
oracle

>  <origin>  (48) 
adg

>  <m_score__min__energy>  (48) 
-9.9499999999999993

>  <m_primary>  (48) 
energy

$$$$
48:0
     RDKit          3D

 45 47  0  0  0  0  0  0  0  0999 V2000
   58.4923   28.5225   44.4844 H   0  0  0  0  0  0  0  0  0  0  0  0
   57.5020   28.9730   44.6470 C   0  0  0  0  0  0  0  0  0  0  0  0
   57.2700   30.3560   44.1990 C   0  0  0  0  0  0  0  0  0  0  0  0
   57.3830   30.6220   42.9740 O   0  0  0  0  0  0  0  0  0  0  0  0
   56.9810   31.3910   45.1540 N   0  0  0  0  0  0  0  0  0  0  0  0
   57.7710   32.5520   45.4610 C   0  0  0  0  0  0  0  0  0  0  0  0
   57.8890   33.6380   44.5750 C   0  0  0  0  0  0  0  0  0  0  0  0
   57.3439   33.6268   43.6196 H   0  0  0  0  0  0  0  0  0  0  0  0
   58.6960   34.7320   44.9030 C   0  0  0  0  0  0  0  0  0  0  0  0
   58.8003   35.5690   44.1969 H   0  0  0  0  0  0  0  0  0  0  0  0
   59.3680   34.7630   46.1230 C   0  0  0  0  0  0  0  0  0  0  0  0
   60.0053   35.6239   46.3735 H   0  0  0  0  0  0  0  0  0  0  0  0
   59.2380   33.7050   47.0340 C   0  0  0  0  0  0  0  0  0  0  0  0
   60.0770   33.7970   48.5910 S   0  0  0  0  0  0  0  0  0  0  0  0
   59.5900   34.9870   49.3640 O   0  0  0  0  0  0  0  0  0  0  0  0
   59.7330   32.5660   49.3850 O   0  0  0  0  0  0  0  0  0  0  0  0
   61.8130   33.9200   48.4040 N   0  0  0  0  0  0  0  0  0  0  0  0
   62.4950   33.3580   49.5810 C   0  0  0  0  0  0  0  0  0  0  0  0
   62.2153   33.9335   50.4757 H   0  0  0  0  0  0  0  0  0  0  0  0
   62.1950   32.3076   49.7103 H   0  0  0  0  0  0  0  0  0  0  0  0
   64.0130   33.4330   49.3800 C   0  0  0  0  0  0  0  0  0  0  0  0
   64.3123   34.4870   49.2824 H   0  0  0  0  0  0  0  0  0  0  0  0
   64.5069   32.9738   50.2490 H   0  0  0  0  0  0  0  0  0  0  0  0
   64.4010   32.7300   48.2130 O   0  0  0  0  0  0  0  0  0  0  0  0
   63.7920   33.3200   47.0790 C   0  0  0  0  0  0  0  0  0  0  0  0
   64.0915   34.3766   47.0161 H   0  0  0  0  0  0  0  0  0  0  0  0
   64.1180   32.7787   46.1786 H   0  0  0  0  0  0  0  0  0  0  0  0
   62.2640   33.2340   47.1830 C   0  0  0  0  0  0  0  0  0  0  0  0
   61.8096   33.7146   46.3040 H   0  0  0  0  0  0  0  0  0  0  0  0
   61.9595   32.1778   47.2238 H   0  0  0  0  0  0  0  0  0  0  0  0
   58.4250   32.6060   46.7050 C   0  0  0  0  0  0  0  0  0  0  0  0
   58.2600   31.5620   47.6050 O   0  0  0  0  0  0  0  0  0  0  0  0
   56.5490   28.2410   45.2470 C   0  0  0  0  0  0  0  0  0  0  0  0
   55.5319   28.6553   45.3090 H   0  0  0  0  0  0  0  0  0  0  0  0
   56.8020   26.9010   45.8300 C   0  0  0  0  0  0  0  0  0  0  0  0
   58.1310   26.5410   46.1060 C   0  0  0  0  0  0  0  0  0  0  0  0
   58.9424   27.2545   45.8996 H   0  0  0  0  0  0  0  0  0  0  0  0
   58.4330   25.2860   46.6400 C   0  0  0  0  0  0  0  0  0  0  0  0
   59.4793   25.0094   46.8369 H   0  0  0  0  0  0  0  0  0  0  0  0
   57.4060   24.3820   46.9240 C   0  0  0  0  0  0  0  0  0  0  0  0
   57.7130   23.1310   47.4480 O   0  0  0  0  0  0  0  0  0  0  0  0
   56.0750   24.7360   46.6850 C   0  0  0  0  0  0  0  0  0  0  0  0
   55.0550   23.8390   46.9860 O   0  0  0  0  0  0  0  0  0  0  0  0
   55.7650   25.9930   46.1470 C   0  0  0  0  0  0  0  0  0  0  0  0
   54.4320   26.3330   45.9570 O   0  0  0  0  0  0  0  0  0  0  0  0
  1  2  1  0
  2  3  1  0
  3  4  2  0
  3  5  1  0
  5  6  1  0
  6  7  2  0
  7  8  1  0
  7  9  1  0
  9 10  1  0
  9 11  2  0
 11 12  1  0
 11 13  1  0
 13 14  1  0
 14 15  2  0
 14 16  2  0
 14 17  1  0
 17 18  1  0
 18 19  1  0
 18 20  1  0
 18 21  1  0
 21 22  1  0
 21 23  1  0
 21 24  1  0
 24 25  1  0
 25 26  1  0
 25 27  1  0
 25 28  1  0
 28 29  1  0
 28 30  1  0
 13 31  2  0
 31 32  1  0
  2 33  2  0
 33 34  1  0
 33 35  1  0
 35 36  2  0
 36 37  1  0
 36 38  1  0
 38 39  1  0
 38 40  2  0
 40 41  1  0
 40 42  1  0
 42 43  1  0
 42 44  2  0
 44 45  1  0
 31  6  1  0
 44 35  1  0
 28 17  1  0
M  CHG  5   5  -1  32  -1  41  -1  43  -1  45  -1
M  END
>  <UniqueID>  (49) 
48

>  <SMILES>  (49) 
O=C(/C=C/c1ccc([O-])c([O-])c1[O-])[N-]c1cccc(S(=O)(=O)N2CCOCC2)c1[O-]

>  <Energy>  (49) 
58.09335169672026

>  <Genealogy>  (49) 
O=C(C=Cc1ccc([O-])c([O-])c1[O-])[N-]c1cccc(S(=O)(=O)N2CCOCC2)c1[O-] (protonated)
O=C(/C=C/c1ccc([O-])c([O-])c1[O-])[N-]c1cccc(S(=O)(=O)N2CCOCC2)c1[O-] (cis-trans isomerization)
O=C(/C=C/c1ccc([O-])c([O-])c1[O-])[N-]c1cccc(S(=O)(=O)N2CCOCC2)c1[O-] (3D coordinates assigned)
O=C(/C=C/c1ccc([O-])c([O-])c1[O-])[N-]c1cccc(S(=O)(=O)N2CCOCC2)c1[O-] (nonaromatic ring conformer: 58.09335169672026 kcal/mol)

>  <smiles>  (49) 
O=C(C=Cc1ccc(O)c(O)c1O)Nc1cccc(S(=O)(=O)N2CCOCC2)c1O

>  <score_type>  (49) 
oracle

>  <origin>  (49) 
adg

>  <m_score__min__energy>  (49) 
-20.699999999999999

>  <m_primary>  (49) 
energy

$$$$
49:0
     RDKit          3D

 48 50  0  0  0  0  0  0  0  0999 V2000
   61.3830   30.8700   46.7390 C   0  0  0  0  0  0  0  0  0  0  0  0
   60.6900   32.1780   47.0070 C   0  0  0  0  0  0  0  0  0  0  0  0
   59.6530   32.6020   46.1580 C   0  0  0  0  0  0  0  0  0  0  0  0
   59.0010   33.8150   46.3920 C   0  0  0  0  0  0  0  0  0  0  0  0
   59.3760   34.6170   47.4710 C   0  0  0  0  0  0  0  0  0  0  0  0
   60.4170   34.2170   48.3090 C   0  0  0  0  0  0  0  0  0  0  0  0
   61.0920   33.0080   48.0770 C   0  0  0  0  0  0  0  0  0  0  0  0
   62.1830   32.6320   48.9400 N   0  0  0  0  0  0  0  0  0  0  0  0
   63.4770   32.6660   48.4780 C   0  0  0  0  0  0  0  0  0  0  0  0
   63.7860   33.1080   47.1460 N   0  0  0  0  0  0  0  0  0  0  0  0
   64.5250   32.2730   49.3170 C   0  0  0  0  0  0  0  0  0  0  0  0
   64.2320   31.8610   50.6130 C   0  0  0  0  0  0  0  0  0  0  0  0
   65.1560   31.5060   51.3910 O   0  0  0  0  0  0  0  0  0  0  0  0
   62.9460   31.8410   51.0370 N   0  0  0  0  0  0  0  0  0  0  0  0
   61.9260   32.2140   50.2230 C   0  0  0  0  0  0  0  0  0  0  0  0
   60.2500   32.1490   50.8800 S   0  0  0  0  0  0  0  0  0  0  0  0
   60.2540   30.3390   51.0900 C   0  0  0  0  0  0  0  0  0  0  0  0
   60.2690   29.6900   49.7440 C   0  0  0  0  0  0  0  0  0  0  0  0
   61.3580   29.2650   49.2720 O   0  0  0  0  0  0  0  0  0  0  0  0
   59.0340   29.4800   49.0420 N   0  0  0  0  0  0  0  0  0  0  0  0
   58.9380   29.0440   47.6760 C   0  0  0  0  0  0  0  0  0  0  0  0
   59.8020   28.0660   47.1540 C   0  0  0  0  0  0  0  0  0  0  0  0
   59.6960   27.6750   45.8160 C   0  0  0  0  0  0  0  0  0  0  0  0
   58.7430   28.2660   44.9840 C   0  0  0  0  0  0  0  0  0  0  0  0
   57.8940   29.2630   45.4850 C   0  0  0  0  0  0  0  0  0  0  0  0
   56.6900   30.0070   44.4400 S   0  0  0  0  0  0  0  0  0  0  0  0
   55.1340   29.3440   44.7880 N   0  0  0  0  0  0  0  0  0  0  0  0
   56.6650   31.4930   44.6660 O   0  0  0  0  0  0  0  0  0  0  0  0
   57.0330   29.7460   43.0000 O   0  0  0  0  0  0  0  0  0  0  0  0
   57.9970   29.6490   46.8280 C   0  0  0  0  0  0  0  0  0  0  0  0
   61.6384   30.3879   47.6942 H   0  0  0  0  0  0  0  0  0  0  0  0
   60.7150   30.2123   46.1634 H   0  0  0  0  0  0  0  0  0  0  0  0
   62.3023   31.0533   46.1634 H   0  0  0  0  0  0  0  0  0  0  0  0
   59.3534   31.9754   45.3050 H   0  0  0  0  0  0  0  0  0  0  0  0
   58.1895   34.1391   45.7238 H   0  0  0  0  0  0  0  0  0  0  0  0
   58.8506   35.5646   47.6606 H   0  0  0  0  0  0  0  0  0  0  0  0
   60.7109   34.8529   49.1571 H   0  0  0  0  0  0  0  0  0  0  0  0
   64.5780   32.7090   46.5970 H   0  0  0  0  0  0  0  0  0  0  0  0
   63.2070   33.8450   46.6850 H   0  0  0  0  0  0  0  0  0  0  0  0
   65.5645   32.2895   48.9576 H   0  0  0  0  0  0  0  0  0  0  0  0
   61.1478   30.0358   51.6550 H   0  0  0  0  0  0  0  0  0  0  0  0
   59.3541   30.0281   51.6410 H   0  0  0  0  0  0  0  0  0  0  0  0
   58.1480   29.5580   49.5940 H   0  0  0  0  0  0  0  0  0  0  0  0
   60.5642   27.6066   47.8005 H   0  0  0  0  0  0  0  0  0  0  0  0
   60.3658   26.8989   45.4172 H   0  0  0  0  0  0  0  0  0  0  0  0
   58.6582   27.9490   43.9341 H   0  0  0  0  0  0  0  0  0  0  0  0
   55.2430   28.7410   45.6330 H   0  0  0  0  0  0  0  0  0  0  0  0
   57.3341   30.4336   47.2216 H   0  0  0  0  0  0  0  0  0  0  0  0
  1  2  1  0
  2  3  2  0
  3  4  1  0
  4  5  2  0
  5  6  1  0
  6  7  2  0
  7  8  1  0
  8  9  1  0
  9 10  1  0
  9 11  2  0
 11 12  1  0
 12 13  2  0
 12 14  1  0
 14 15  2  0
 15 16  1  0
 16 17  1  0
 17 18  1  0
 18 19  2  0
 18 20  1  0
 20 21  1  0
 21 22  2  0
 22 23  1  0
 23 24  2  0
 24 25  1  0
 25 26  1  0
 26 27  1  0
 26 28  2  0
 26 29  2  0
 25 30  2  0
  7  2  1  0
 15  8  1  0
 30 21  1  0
  1 31  1  0
  1 32  1  0
  1 33  1  0
  3 34  1  0
  4 35  1  0
  5 36  1  0
  6 37  1  0
 10 38  1  0
 10 39  1  0
 11 40  1  0
 17 41  1  0
 17 42  1  0
 20 43  1  0
 22 44  1  0
 23 45  1  0
 24 46  1  0
 27 47  1  0
 30 48  1  0
M  CHG  1  27  -1
M  END
>  <UniqueID>  (50) 
49

>  <SMILES>  (50) 
Cc1ccccc1-n1c(N)cc(=O)nc1SCC(=O)Nc1cccc(S([NH-])(=O)=O)c1

>  <Energy>  (50) 
56.14192348918114

>  <Genealogy>  (50) 
Cc1ccccc1-n1c(N)cc(=O)nc1SCC(=O)Nc1cccc(S([NH-])(=O)=O)c1 (protonated)
Cc1ccccc1-n1c(N)cc(=O)nc1SCC(=O)Nc1cccc(S([NH-])(=O)=O)c1 (3D coordinates assigned)
Cc1ccccc1-n1c(N)cc(=O)nc1SCC(=O)Nc1cccc(S([NH-])(=O)=O)c1 (optimized conformer: 56.14192348918114 kcal/mol)

>  <smiles>  (50) 
Cc1ccccc1-n1c(N)cc(=O)nc1SCC(=O)Nc1cccc(S(N)(=O)=O)c1

>  <score_type>  (50) 
oracle

>  <origin>  (50) 
adg

>  <m_score__min__energy>  (50) 
-11.619999999999999

>  <m_primary>  (50) 
energy

$$$$
50:0
     RDKit          3D

 41 43  0  0  0  0  0  0  0  0999 V2000
   60.3150   21.7360   45.5940 N   0  0  0  0  0  0  0  0  0  0  0  0
   58.9030   22.7310   45.5220 S   0  0  0  0  0  0  0  0  0  0  0  0
   57.8440   22.1770   46.4360 O   0  0  0  0  0  0  0  0  0  0  0  0
   58.3800   22.7490   44.1140 O   0  0  0  0  0  0  0  0  0  0  0  0
   59.2980   24.3290   45.9930 O   0  0  0  0  0  0  0  0  0  0  0  0
   58.4540   25.4360   45.8300 C   0  0  0  0  0  0  0  0  0  0  0  0
   57.1550   25.3610   46.3470 C   0  0  0  0  0  0  0  0  0  0  0  0
   56.2570   26.4180   46.1710 C   0  0  0  0  0  0  0  0  0  0  0  0
   56.6450   27.5640   45.4710 C   0  0  0  0  0  0  0  0  0  0  0  0
   55.6800   28.6030   45.2420 N   0  0  0  0  0  0  0  0  0  0  0  0
   55.8240   29.6980   44.3250 C   0  0  0  0  0  0  0  0  0  0  0  0
   54.7890   30.2410   43.8600 O   0  0  0  0  0  0  0  0  0  0  0  0
   57.1090   30.1920   43.9210 N   0  0  0  0  0  0  0  0  0  0  0  0
   57.8740   31.1900   44.6110 C   0  0  0  0  0  0  0  0  0  0  0  0
   57.7600   32.5270   44.2190 C   0  0  0  0  0  0  0  0  0  0  0  0
   58.4380   33.5280   44.9210 C   0  0  0  0  0  0  0  0  0  0  0  0
   59.2550   33.1980   46.0080 C   0  0  0  0  0  0  0  0  0  0  0  0
   60.0970   34.4620   46.8980 S   0  0  0  0  0  0  0  0  0  0  0  0
   59.7100   34.4040   48.3500 O   0  0  0  0  0  0  0  0  0  0  0  0
   59.7090   35.8150   46.3650 O   0  0  0  0  0  0  0  0  0  0  0  0
   61.8120   34.2320   46.7630 N   0  0  0  0  0  0  0  0  0  0  0  0
   62.5370   33.6860   47.6880 C   0  0  0  0  0  0  0  0  0  0  0  0
   62.7250   34.2180   48.9140 N   0  0  0  0  0  0  0  0  0  0  0  0
   63.5230   33.4290   49.6790 C   0  0  0  0  0  0  0  0  0  0  0  0
   63.9710   32.2680   49.0610 C   0  0  0  0  0  0  0  0  0  0  0  0
   63.3440   32.2280   47.5000 S   0  0  0  0  0  0  0  0  0  0  0  0
   59.4130   31.8530   46.3700 C   0  0  0  0  0  0  0  0  0  0  0  0
   58.7300   30.8540   45.6740 C   0  0  0  0  0  0  0  0  0  0  0  0
   57.9670   27.6730   45.0090 C   0  0  0  0  0  0  0  0  0  0  0  0
   58.8620   26.6120   45.1720 C   0  0  0  0  0  0  0  0  0  0  0  0
   61.1380   22.3810   45.6600 H   0  0  0  0  0  0  0  0  0  0  0  0
   56.8381   24.4624   46.8966 H   0  0  0  0  0  0  0  0  0  0  0  0
   55.2404   26.3475   46.5853 H   0  0  0  0  0  0  0  0  0  0  0  0
   57.1340   32.7926   43.3544 H   0  0  0  0  0  0  0  0  0  0  0  0
   58.3287   34.5796   44.6175 H   0  0  0  0  0  0  0  0  0  0  0  0
   63.7948   33.6901   50.7124 H   0  0  0  0  0  0  0  0  0  0  0  0
   64.6229   31.5065   49.5139 H   0  0  0  0  0  0  0  0  0  0  0  0
   60.0770   31.5840   47.2047 H   0  0  0  0  0  0  0  0  0  0  0  0
   58.8623   29.7997   45.9586 H   0  0  0  0  0  0  0  0  0  0  0  0
   58.2997   28.5985   44.5162 H   0  0  0  0  0  0  0  0  0  0  0  0
   59.8883   26.6959   44.7851 H   0  0  0  0  0  0  0  0  0  0  0  0
  1  2  1  0
  2  3  2  0
  2  4  2  0
  2  5  1  0
  5  6  1  0
  6  7  2  0
  7  8  1  0
  8  9  2  0
  9 10  1  0
 10 11  1  0
 11 12  2  0
 11 13  1  0
 13 14  1  0
 14 15  2  0
 15 16  1  0
 16 17  2  0
 17 18  1  0
 18 19  2  0
 18 20  2  0
 18 21  1  0
 21 22  2  3
 22 23  1  0
 23 24  1  0
 24 25  2  0
 25 26  1  0
 17 27  1  0
 27 28  2  0
  9 29  1  0
 29 30  2  0
 30  6  1  0
 28 14  1  0
 26 22  1  0
  1 31  1  0
  7 32  1  0
  8 33  1  0
 15 34  1  0
 16 35  1  0
 24 36  1  0
 25 37  1  0
 27 38  1  0
 28 39  1  0
 29 40  1  0
 30 41  1  0
M  CHG  4   1  -1  10  -1  13  -1  23  -1
M  END
>  <UniqueID>  (51) 
50

>  <SMILES>  (51) 
[NH-]S(=O)(=O)Oc1ccc([N-]C(=O)[N-]c2ccc(S(=O)(=O)N=c3[n-]ccs3)cc2)cc1

>  <Energy>  (51) 
81.32076189560235

>  <Genealogy>  (51) 
[NH-]S(=O)(=O)Oc1ccc([N-]C(=O)[N-]c2ccc(S(=O)(=O)N=c3[n-]ccs3)cc2)cc1 (protonated)
[NH-]S(=O)(=O)Oc1ccc([N-]C(=O)[N-]c2ccc(S(=O)(=O)N=c3[n-]ccs3)cc2)cc1 (3D coordinates assigned)
[NH-]S(=O)(=O)Oc1ccc([N-]C(=O)[N-]c2ccc(S(=O)(=O)N=c3[n-]ccs3)cc2)cc1 (optimized conformer: 81.32076189560235 kcal/mol)

>  <smiles>  (51) 
NS(=O)(=O)Oc1ccc(NC(=O)Nc2ccc(S(=O)(=O)N=c3[nH]ccs3)cc2)cc1

>  <score_type>  (51) 
oracle

>  <origin>  (51) 
adg

>  <m_score__min__energy>  (51) 
-13.83

>  <m_primary>  (51) 
energy

$$$$
51:0
     RDKit          3D

 35 37  0  0  0  0  0  0  0  0999 V2000
   55.7490   29.1830   44.8750 O   0  0  0  0  0  0  0  0  0  0  0  0
   56.6400   29.3430   44.0560 C   0  0  0  0  0  0  0  0  0  0  0  0
   57.7320   28.3100   43.9360 C   0  0  0  0  0  0  0  0  0  0  0  0
   58.3050   27.9230   45.3040 C   0  0  0  0  0  0  0  0  0  0  0  0
   58.7770   29.1260   46.0600 C   0  0  0  0  0  0  0  0  0  0  0  0
   60.0040   29.6660   45.9270 N   0  0  0  0  0  0  0  0  0  0  0  0
   59.9230   30.7200   46.7650 C   0  0  0  0  0  0  0  0  0  0  0  0
   61.0270   31.6770   46.9920 C   0  0  0  0  0  0  0  0  0  0  0  0
   62.2660   31.2320   47.4890 C   0  0  0  0  0  0  0  0  0  0  0  0
   63.3120   32.1350   47.6940 C   0  0  0  0  0  0  0  0  0  0  0  0
   63.1330   33.4910   47.4080 C   0  0  0  0  0  0  0  0  0  0  0  0
   61.9070   33.9450   46.9170 C   0  0  0  0  0  0  0  0  0  0  0  0
   60.8570   33.0440   46.7090 C   0  0  0  0  0  0  0  0  0  0  0  0
   58.7180   30.8080   47.3650 N   0  0  0  0  0  0  0  0  0  0  0  0
   58.0380   29.8040   46.9020 O   0  0  0  0  0  0  0  0  0  0  0  0
   56.6550   30.5890   43.2130 C   0  0  0  0  0  0  0  0  0  0  0  0
   57.1860   31.7110   43.9820 N   0  0  0  0  0  0  0  0  0  0  0  0
   58.1240   32.5830   43.5670 C   0  0  0  0  0  0  0  0  0  0  0  0
   58.3150   33.5170   44.5620 C   0  0  0  0  0  0  0  0  0  0  0  0
   57.4420   33.1450   45.5660 C   0  0  0  0  0  0  0  0  0  0  0  0
   56.7600   32.0460   45.1890 N   0  0  0  0  0  0  0  0  0  0  0  0
   57.3195   27.4104   43.4558 H   0  0  0  0  0  0  0  0  0  0  0  0
   58.5458   28.7422   43.3352 H   0  0  0  0  0  0  0  0  0  0  0  0
   57.5230   27.4170   45.8892 H   0  0  0  0  0  0  0  0  0  0  0  0
   59.1652   27.2567   45.1425 H   0  0  0  0  0  0  0  0  0  0  0  0
   62.4119   30.1660   47.7176 H   0  0  0  0  0  0  0  0  0  0  0  0
   64.2778   31.7781   48.0811 H   0  0  0  0  0  0  0  0  0  0  0  0
   63.9577   34.2008   47.5696 H   0  0  0  0  0  0  0  0  0  0  0  0
   61.7666   35.0128   46.6934 H   0  0  0  0  0  0  0  0  0  0  0  0
   59.8934   33.4068   46.3220 H   0  0  0  0  0  0  0  0  0  0  0  0
   57.2881   30.4222   42.3291 H   0  0  0  0  0  0  0  0  0  0  0  0
   55.6269   30.8230   42.8995 H   0  0  0  0  0  0  0  0  0  0  0  0
   58.6478   32.5548   42.6001 H   0  0  0  0  0  0  0  0  0  0  0  0
   59.0092   34.3703   44.5578 H   0  0  0  0  0  0  0  0  0  0  0  0
   57.3220   33.6667   46.5270 H   0  0  0  0  0  0  0  0  0  0  0  0
  1  2  2  0
  2  3  1  0
  3  4  1  0
  4  5  1  0
  5  6  2  0
  6  7  1  0
  7  8  1  0
  8  9  2  0
  9 10  1  0
 10 11  2  0
 11 12  1  0
 12 13  2  0
  7 14  2  0
 14 15  1  0
  2 16  1  0
 16 17  1  0
 17 18  1  0
 18 19  2  0
 19 20  1  0
 20 21  2  0
 15  5  1  0
 21 17  1  0
 13  8  1  0
  3 22  1  0
  3 23  1  0
  4 24  1  0
  4 25  1  0
  9 26  1  0
 10 27  1  0
 11 28  1  0
 12 29  1  0
 13 30  1  0
 16 31  1  0
 16 32  1  0
 18 33  1  0
 19 34  1  0
 20 35  1  0
M  END
>  <UniqueID>  (52) 
51

>  <SMILES>  (52) 
O=C(CCc1nc(-c2ccccc2)no1)Cn1cccn1

>  <Energy>  (52) 
91.17484143770629

>  <Genealogy>  (52) 
O=C(CCc1nc(-c2ccccc2)no1)Cn1cccn1 (3D coordinates assigned)
O=C(CCc1nc(-c2ccccc2)no1)Cn1cccn1 (optimized conformer: 91.17484143770629 kcal/mol)

>  <smiles>  (52) 
O=C(CCc1nc(-c2ccccc2)no1)Cn1cccn1

>  <score_type>  (52) 
oracle

>  <origin>  (52) 
adg

>  <m_score__min__energy>  (52) 
-8.3200000000000003

>  <m_primary>  (52) 
energy

$$$$
52:0
     RDKit          3D

 41 44  0  0  0  0  0  0  0  0999 V2000
   57.5484   25.9479   46.6744 H   0  0  0  0  0  0  0  0  0  0  0  0
   57.7790   26.7510   45.9590 C   0  0  0  0  0  0  0  0  0  0  0  0
   56.8020   27.6970   45.6330 C   0  0  0  0  0  0  0  0  0  0  0  0
   55.8069   27.6377   46.0981 H   0  0  0  0  0  0  0  0  0  0  0  0
   57.0840   28.7240   44.7140 C   0  0  0  0  0  0  0  0  0  0  0  0
   56.0480   29.7300   44.3790 C   0  0  0  0  0  0  0  0  0  0  0  0
   54.9150   29.3450   43.9840 O   0  0  0  0  0  0  0  0  0  0  0  0
   56.2710   31.1370   44.5560 N   0  0  0  0  0  0  0  0  0  0  0  0
   57.2770   31.6720   45.1830 C   0  0  0  0  0  0  0  0  0  0  0  0
   57.7730   32.8830   44.8360 N   0  0  0  0  0  0  0  0  0  0  0  0
   58.8370   33.2100   45.6130 C   0  0  0  0  0  0  0  0  0  0  0  0
   59.5540   34.4000   45.5040 C   0  0  0  0  0  0  0  0  0  0  0  0
   59.2772   35.1536   44.7520 H   0  0  0  0  0  0  0  0  0  0  0  0
   60.6370   34.6200   46.3720 C   0  0  0  0  0  0  0  0  0  0  0  0
   61.2071   35.5582   46.3020 H   0  0  0  0  0  0  0  0  0  0  0  0
   61.0040   33.6490   47.3360 C   0  0  0  0  0  0  0  0  0  0  0  0
   62.1070   33.8920   48.2310 N   0  0  0  0  0  0  0  0  0  0  0  0
   63.4960   33.8100   47.7610 C   0  0  0  0  0  0  0  0  0  0  0  0
   63.5090   33.4010   46.7400 H   0  0  0  0  0  0  0  0  0  0  0  0
   63.9349   34.8186   47.7715 H   0  0  0  0  0  0  0  0  0  0  0  0
   64.3260   32.8960   48.6840 C   0  0  0  0  0  0  0  0  0  0  0  0
   64.3146   31.8789   48.2653 H   0  0  0  0  0  0  0  0  0  0  0  0
   65.3387   33.3230   48.7291 H   0  0  0  0  0  0  0  0  0  0  0  0
   63.8250   32.8330   50.0730 N   0  0  0  0  0  0  0  0  0  0  0  0
   63.1580   32.0300   50.1560 H   0  0  0  0  0  0  0  0  0  0  0  0
   63.1250   34.0610   50.4760 C   0  0  0  0  0  0  0  0  0  0  0  0
   62.8445   33.9868   51.5370 H   0  0  0  0  0  0  0  0  0  0  0  0
   63.7940   34.9204   50.3212 H   0  0  0  0  0  0  0  0  0  0  0  0
   61.8580   34.2570   49.6300 C   0  0  0  0  0  0  0  0  0  0  0  0
   61.0542   33.6223   50.0312 H   0  0  0  0  0  0  0  0  0  0  0  0
   61.5649   35.3164   49.6723 H   0  0  0  0  0  0  0  0  0  0  0  0
   60.2600   32.4540   47.4320 C   0  0  0  0  0  0  0  0  0  0  0  0
   60.5191   31.6888   48.1786 H   0  0  0  0  0  0  0  0  0  0  0  0
   59.1910   32.2650   46.5610 C   0  0  0  0  0  0  0  0  0  0  0  0
   58.1520   30.9520   46.4530 S   0  0  0  0  0  0  0  0  0  0  0  0
   58.3700   28.7960   44.1470 C   0  0  0  0  0  0  0  0  0  0  0  0
   58.6110   29.6045   43.4412 H   0  0  0  0  0  0  0  0  0  0  0  0
   59.3430   27.8480   44.4740 C   0  0  0  0  0  0  0  0  0  0  0  0
   60.3429   27.9077   44.0195 H   0  0  0  0  0  0  0  0  0  0  0  0
   59.0470   26.8240   45.3780 C   0  0  0  0  0  0  0  0  0  0  0  0
   59.9930   25.9050   45.6960 F   0  0  0  0  0  0  0  0  0  0  0  0
  1  2  1  0
  2  3  2  0
  3  4  1  0
  3  5  1  0
  5  6  1  0
  6  7  2  0
  6  8  1  0
  8  9  2  0
  9 10  1  0
 10 11  1  0
 11 12  2  0
 12 13  1  0
 12 14  1  0
 14 15  1  0
 14 16  2  0
 16 17  1  0
 17 18  1  0
 18 19  1  0
 18 20  1  0
 18 21  1  0
 21 22  1  0
 21 23  1  0
 21 24  1  0
 24 25  1  0
 24 26  1  0
 26 27  1  0
 26 28  1  0
 26 29  1  0
 29 30  1  0
 29 31  1  0
 16 32  1  0
 32 33  1  0
 32 34  2  0
 34 35  1  0
  5 36  2  0
 36 37  1  0
 36 38  1  0
 38 39  1  0
 38 40  2  0
 40 41  1  0
 40  2  1  0
 35  9  1  0
 34 11  1  0
 29 17  1  0
M  CHG  1  10  -1
M  END
>  <UniqueID>  (53) 
52

>  <SMILES>  (53) 
O=C(/N=c1/[n-]c2ccc(N3CCNCC3)cc2s1)c1ccc(F)cc1

>  <Energy>  (53) 
96.24486192019708

>  <Genealogy>  (53) 
O=C(N=c1[n-]c2ccc(N3CCNCC3)cc2s1)c1ccc(F)cc1 (protonated)
O=C(/N=c1/[n-]c2ccc(N3CCNCC3)cc2s1)c1ccc(F)cc1 (cis-trans isomerization)
O=C(/N=c1/[n-]c2ccc(N3CCNCC3)cc2s1)c1ccc(F)cc1 (3D coordinates assigned)
O=C(/N=c1/[n-]c2ccc(N3CCNCC3)cc2s1)c1ccc(F)cc1 (nonaromatic ring conformer: 96.24486192019708 kcal/mol)

>  <smiles>  (53) 
O=C(N=c1[nH]c2ccc(N3CCNCC3)cc2s1)c1ccc(F)cc1

>  <score_type>  (53) 
oracle

>  <origin>  (53) 
adg

>  <m_score__min__energy>  (53) 
-9.75

>  <m_primary>  (53) 
energy

$$$$
53:0
     RDKit          3D

 46 48  0  0  0  0  0  0  0  0999 V2000
   57.3680   23.1550   44.9620 H   0  0  0  0  0  0  0  0  0  0  0  0
   57.3770   24.0450   45.5050 N   0  0  0  0  0  0  0  0  0  0  0  0
   56.3460   24.8210   45.6260 C   0  0  0  0  0  0  0  0  0  0  0  0
   55.0340   24.5720   45.2570 C   0  0  0  0  0  0  0  0  0  0  0  0
   54.4410   23.3790   44.6280 C   0  0  0  0  0  0  0  0  0  0  0  0
   55.1580   22.5700   43.9800 O   0  0  0  0  0  0  0  0  0  0  0  0
   53.0260   23.1780   44.7200 N   0  0  0  0  0  0  0  0  0  0  0  0
   52.2860   22.8500   45.9050 C   0  0  0  0  0  0  0  0  0  0  0  0
   50.8930   22.9820   45.8820 C   0  0  0  0  0  0  0  0  0  0  0  0
   50.3909   23.3207   44.9637 H   0  0  0  0  0  0  0  0  0  0  0  0
   50.1360   22.6860   47.0190 C   0  0  0  0  0  0  0  0  0  0  0  0
   49.0403   22.7776   46.9879 H   0  0  0  0  0  0  0  0  0  0  0  0
   50.7680   22.2740   48.1950 C   0  0  0  0  0  0  0  0  0  0  0  0
   50.1677   22.0259   49.0828 H   0  0  0  0  0  0  0  0  0  0  0  0
   52.1680   22.1760   48.2460 C   0  0  0  0  0  0  0  0  0  0  0  0
   52.8410   21.7180   49.5060 C   0  0  0  0  0  0  0  0  0  0  0  0
   52.2853   22.0961   50.3768 H   0  0  0  0  0  0  0  0  0  0  0  0
   52.8603   20.6185   49.5326 H   0  0  0  0  0  0  0  0  0  0  0  0
   53.8709   22.1035   49.5326 H   0  0  0  0  0  0  0  0  0  0  0  0
   52.9220   22.4560   47.0970 C   0  0  0  0  0  0  0  0  0  0  0  0
   54.0180   22.3670   47.1277 H   0  0  0  0  0  0  0  0  0  0  0  0
   54.3150   25.6610   45.6060 N   0  0  0  0  0  0  0  0  0  0  0  0
   55.1510   26.5310   46.1610 N   0  0  0  0  0  0  0  0  0  0  0  0
   56.3830   26.0460   46.1750 N   0  0  0  0  0  0  0  0  0  0  0  0
   57.5300   26.7240   46.7760 C   0  0  0  0  0  0  0  0  0  0  0  0
   57.2818   27.0143   47.8076 H   0  0  0  0  0  0  0  0  0  0  0  0
   58.3924   26.0412   46.7771 H   0  0  0  0  0  0  0  0  0  0  0  0
   57.8750   27.9500   45.9850 C   0  0  0  0  0  0  0  0  0  0  0  0
   59.0130   28.4700   46.1190 O   0  0  0  0  0  0  0  0  0  0  0  0
   56.9320   28.4850   45.0440 N   0  0  0  0  0  0  0  0  0  0  0  0
   56.1310   27.8740   44.7570 H   0  0  0  0  0  0  0  0  0  0  0  0
   57.0740   29.7590   44.3930 C   0  0  0  0  0  0  0  0  0  0  0  0
   56.8880   29.8980   43.0050 C   0  0  0  0  0  0  0  0  0  0  0  0
   56.6209   29.0205   42.3978 H   0  0  0  0  0  0  0  0  0  0  0  0
   57.0410   31.1450   42.3950 C   0  0  0  0  0  0  0  0  0  0  0  0
   56.8808   31.2490   41.3117 H   0  0  0  0  0  0  0  0  0  0  0  0
   57.3970   32.2610   43.1570 C   0  0  0  0  0  0  0  0  0  0  0  0
   57.5032   33.2439   42.6747 H   0  0  0  0  0  0  0  0  0  0  0  0
   57.6190   32.1300   44.5350 C   0  0  0  0  0  0  0  0  0  0  0  0
   58.0680   33.5270   45.5080 S   0  0  0  0  0  0  0  0  0  0  0  0
   59.5640   33.6110   45.6100 O   0  0  0  0  0  0  0  0  0  0  0  0
   57.5560   34.7870   44.8710 O   0  0  0  0  0  0  0  0  0  0  0  0
   57.3860   33.3720   47.0890 N   0  0  0  0  0  0  0  0  0  0  0  0
   56.4740   33.8780   47.0790 H   0  0  0  0  0  0  0  0  0  0  0  0
   57.4600   30.8790   45.1460 C   0  0  0  0  0  0  0  0  0  0  0  0
   57.6394   30.7736   46.2261 H   0  0  0  0  0  0  0  0  0  0  0  0
  1  2  1  0
  2  3  2  0
  3  4  1  0
  4  5  1  0
  5  6  2  0
  5  7  1  0
  7  8  1  0
  8  9  2  0
  9 10  1  0
  9 11  1  0
 11 12  1  0
 11 13  2  0
 13 14  1  0
 13 15  1  0
 15 16  1  0
 16 17  1  0
 16 18  1  0
 16 19  1  0
 15 20  2  0
 20 21  1  0
  4 22  2  0
 22 23  1  0
 23 24  1  0
 24 25  1  0
 25 26  1  0
 25 27  1  0
 25 28  1  0
 28 29  2  0
 28 30  1  0
 30 31  1  0
 30 32  1  0
 32 33  2  0
 33 34  1  0
 33 35  1  0
 35 36  1  0
 35 37  2  0
 37 38  1  0
 37 39  1  0
 39 40  1  0
 40 41  2  0
 40 42  2  0
 40 43  1  0
 43 44  1  0
 39 45  2  0
 45 46  1  0
 24  3  1  0
 45 32  1  0
 20  8  1  0
M  CHG  3   7  -1  23  -1  43  -1
M  END
>  <UniqueID>  (54) 
53

>  <SMILES>  (54) 
[H]/N=c1\c(C(=O)[N-]c2cccc(C)c2)n[n-]n1CC(=O)Nc1cccc(S([NH-])(=O)=O)c1

>  <Energy>  (54) 
90.94679902616801

>  <Genealogy>  (54) 
Cc1cccc([N-]C(=O)c2n[n-]n(CC(=O)Nc3cccc(S([NH-])(=O)=O)c3)c2=N)c1 (protonated)
[H]/N=c1\c(C(=O)[N-]c2cccc(C)c2)n[n-]n1CC(=O)Nc1cccc(S([NH-])(=O)=O)c1 (cis-trans isomerization)
[H]/N=c1\c(C(=O)[N-]c2cccc(C)c2)n[n-]n1CC(=O)Nc1cccc(S([NH-])(=O)=O)c1 (3D coordinates assigned)
[H]/N=c1\c(C(=O)[N-]c2cccc(C)c2)n[n-]n1CC(=O)Nc1cccc(S([NH-])(=O)=O)c1 (optimized conformer: 90.94679902616801 kcal/mol)

>  <smiles>  (54) 
Cc1cccc(NC(=O)c2n[nH]n(CC(=O)Nc3cccc(S(N)(=O)=O)c3)c2=N)c1

>  <score_type>  (54) 
oracle

>  <origin>  (54) 
adg

>  <m_score__min__energy>  (54) 
-12.75

>  <m_primary>  (54) 
energy

$$$$
54:0
     RDKit          3D

 34 35  0  0  0  0  0  0  0  0999 V2000
   59.8518   26.2422   45.9330 H   0  0  0  0  0  0  0  0  0  0  0  0
   58.7960   26.5350   45.8350 C   0  0  0  0  0  0  0  0  0  0  0  0
   57.8220   25.7250   46.3170 N   0  0  0  0  0  0  0  0  0  0  0  0
   56.5080   26.0580   46.2140 C   0  0  0  0  0  0  0  0  0  0  0  0
   55.5700   25.2810   46.6800 N   0  0  0  0  0  0  0  0  0  0  0  0
   54.6220   24.4680   45.9630 C   0  0  0  0  0  0  0  0  0  0  0  0
   53.5350   24.9930   45.6070 O   0  0  0  0  0  0  0  0  0  0  0  0
   54.8660   23.0280   45.6200 C   0  0  0  0  0  0  0  0  0  0  0  0
   54.9652   22.4423   46.5458 H   0  0  0  0  0  0  0  0  0  0  0  0
   54.0203   22.6429   45.0314 H   0  0  0  0  0  0  0  0  0  0  0  0
   55.7914   22.9430   45.0314 H   0  0  0  0  0  0  0  0  0  0  0  0
   56.1600   27.2310   45.6130 N   0  0  0  0  0  0  0  0  0  0  0  0
   55.1470   27.4820   45.5410 H   0  0  0  0  0  0  0  0  0  0  0  0
   57.1030   28.0780   45.1090 C   0  0  0  0  0  0  0  0  0  0  0  0
   56.6000   29.5940   44.3510 S   0  0  0  0  0  0  0  0  0  0  0  0
   55.1340   29.8360   44.5790 O   0  0  0  0  0  0  0  0  0  0  0  0
   56.8450   29.5010   42.8710 O   0  0  0  0  0  0  0  0  0  0  0  0
   57.5080   30.9320   45.0490 C   0  0  0  0  0  0  0  0  0  0  0  0
   57.6860   32.1250   44.3360 C   0  0  0  0  0  0  0  0  0  0  0  0
   57.2506   32.2330   43.3316 H   0  0  0  0  0  0  0  0  0  0  0  0
   58.4150   33.1790   44.8960 C   0  0  0  0  0  0  0  0  0  0  0  0
   58.5528   34.1119   44.3297 H   0  0  0  0  0  0  0  0  0  0  0  0
   58.9730   33.0500   46.1820 C   0  0  0  0  0  0  0  0  0  0  0  0
   59.7120   34.0770   46.7880 O   0  0  0  0  0  0  0  0  0  0  0  0
   59.6670   35.4430   46.3890 C   0  0  0  0  0  0  0  0  0  0  0  0
   59.6458   36.0853   47.2818 H   0  0  0  0  0  0  0  0  0  0  0  0
   60.5579   35.6791   45.7885 H   0  0  0  0  0  0  0  0  0  0  0  0
   58.7625   35.6200   45.7885 H   0  0  0  0  0  0  0  0  0  0  0  0
   58.7870   31.8580   46.8910 C   0  0  0  0  0  0  0  0  0  0  0  0
   59.2173   31.7494   47.8975 H   0  0  0  0  0  0  0  0  0  0  0  0
   58.0590   30.8040   46.3310 C   0  0  0  0  0  0  0  0  0  0  0  0
   57.9184   29.8720   46.8981 H   0  0  0  0  0  0  0  0  0  0  0  0
   58.4630   27.7370   45.2160 C   0  0  0  0  0  0  0  0  0  0  0  0
   59.7520   28.7700   44.6090 Cl  0  0  0  0  0  0  0  0  0  0  0  0
  1  2  1  0
  2  3  2  0
  3  4  1  0
  4  5  2  0
  5  6  1  0
  6  7  2  0
  6  8  1  0
  8  9  1  0
  8 10  1  0
  8 11  1  0
  4 12  1  0
 12 13  1  0
 12 14  1  0
 14 15  1  0
 15 16  2  0
 15 17  2  0
 15 18  1  0
 18 19  2  0
 19 20  1  0
 19 21  1  0
 21 22  1  0
 21 23  2  0
 23 24  1  0
 24 25  1  0
 25 26  1  0
 25 27  1  0
 25 28  1  0
 23 29  1  0
 29 30  1  0
 29 31  2  0
 31 32  1  0
 14 33  2  0
 33 34  1  0
 33  2  1  0
 31 18  1  0
M  END
>  <UniqueID>  (55) 
54

>  <SMILES>  (55) 
COc1ccc(S(=O)(=O)c2[nH]/c(=N/C(C)=O)ncc2Cl)cc1

>  <Energy>  (55) 
40.50024661205243

>  <Genealogy>  (55) 
COc1ccc(S(=O)(=O)c2[nH]/c(=N/C(C)=O)ncc2Cl)cc1 (cis-trans isomerization)
COc1ccc(S(=O)(=O)c2[nH]/c(=N/C(C)=O)ncc2Cl)cc1 (3D coordinates assigned)
COc1ccc(S(=O)(=O)c2[nH]/c(=N/C(C)=O)ncc2Cl)cc1 (optimized conformer: 40.50024661205243 kcal/mol)

>  <smiles>  (55) 
COc1ccc(S(=O)(=O)c2[nH]c(=NC(C)=O)ncc2Cl)cc1

>  <score_type>  (55) 
oracle

>  <origin>  (55) 
adg

>  <m_score__min__energy>  (55) 
-7.9199999999999999

>  <m_primary>  (55) 
energy

$$$$
55:0
     RDKit          3D

 43 46  0  0  0  0  0  0  0  0999 V2000
   63.8974   33.7258   51.0487 H   0  0  0  0  0  0  0  0  0  0  0  0
   63.5080   33.6240   50.0250 C   0  0  0  0  0  0  0  0  0  0  0  0
   62.2540   34.1490   49.6990 C   0  0  0  0  0  0  0  0  0  0  0  0
   61.6544   34.6507   50.4728 H   0  0  0  0  0  0  0  0  0  0  0  0
   61.7550   34.0410   48.3940 C   0  0  0  0  0  0  0  0  0  0  0  0
   60.4480   34.5690   48.1110 N   0  0  0  0  0  0  0  0  0  0  0  0
   59.8460   34.5690   46.9580 C   0  0  0  0  0  0  0  0  0  0  0  0
   59.9300   35.5520   46.0280 N   0  0  0  0  0  0  0  0  0  0  0  0
   59.1440   35.2110   45.0120 N   0  0  0  0  0  0  0  0  0  0  0  0
   59.0120   35.7810   44.1470 H   0  0  0  0  0  0  0  0  0  0  0  0
   58.5580   34.0340   45.2980 C   0  0  0  0  0  0  0  0  0  0  0  0
   57.6610   33.3020   44.5280 C   0  0  0  0  0  0  0  0  0  0  0  0
   57.3376   33.6520   43.5366 H   0  0  0  0  0  0  0  0  0  0  0  0
   57.1800   32.0830   45.0760 C   0  0  0  0  0  0  0  0  0  0  0  0
   56.3460   31.3110   44.4390 N   0  0  0  0  0  0  0  0  0  0  0  0
   56.2770   29.8780   44.4800 C   0  0  0  0  0  0  0  0  0  0  0  0
   55.2170   29.3320   44.8870 O   0  0  0  0  0  0  0  0  0  0  0  0
   57.3470   29.0360   43.8300 C   0  0  0  0  0  0  0  0  0  0  0  0
   56.9051   28.4874   42.9852 H   0  0  0  0  0  0  0  0  0  0  0  0
   58.1500   29.7053   43.4877 H   0  0  0  0  0  0  0  0  0  0  0  0
   57.9310   28.0620   44.7830 N   0  0  0  0  0  0  0  0  0  0  0  0
   58.1380   28.6540   46.1120 C   0  0  0  0  0  0  0  0  0  0  0  0
   57.3841   29.4338   46.2953 H   0  0  0  0  0  0  0  0  0  0  0  0
   58.0409   27.8856   46.8931 H   0  0  0  0  0  0  0  0  0  0  0  0
   59.5310   29.2650   46.1400 C   0  0  0  0  0  0  0  0  0  0  0  0
   59.4782   30.3523   45.9817 H   0  0  0  0  0  0  0  0  0  0  0  0
   60.0284   29.1085   47.1086 H   0  0  0  0  0  0  0  0  0  0  0  0
   60.2830   28.5980   45.0030 C   0  0  0  0  0  0  0  0  0  0  0  0
   60.6340   29.3496   44.2806 H   0  0  0  0  0  0  0  0  0  0  0  0
   61.1727   28.0595   45.3614 H   0  0  0  0  0  0  0  0  0  0  0  0
   59.2780   27.6590   44.3490 C   0  0  0  0  0  0  0  0  0  0  0  0
   59.3553   27.7331   43.2542 H   0  0  0  0  0  0  0  0  0  0  0  0
   59.4792   26.6184   44.6433 H   0  0  0  0  0  0  0  0  0  0  0  0
   57.6340   31.6720   46.3060 N   0  0  0  0  0  0  0  0  0  0  0  0
   58.5190   32.4020   47.0490 C   0  0  0  0  0  0  0  0  0  0  0  0
   58.8596   32.0508   48.0342 H   0  0  0  0  0  0  0  0  0  0  0  0
   58.9730   33.6000   46.5190 C   0  0  0  0  0  0  0  0  0  0  0  0
   62.5130   33.3550   47.4250 C   0  0  0  0  0  0  0  0  0  0  0  0
   62.1174   33.2317   46.4060 H   0  0  0  0  0  0  0  0  0  0  0  0
   63.7670   32.8300   47.7540 C   0  0  0  0  0  0  0  0  0  0  0  0
   64.3605   32.3060   46.9903 H   0  0  0  0  0  0  0  0  0  0  0  0
   64.2670   32.9700   49.0510 C   0  0  0  0  0  0  0  0  0  0  0  0
   65.4820   32.4600   49.3680 F   0  0  0  0  0  0  0  0  0  0  0  0
  1  2  1  0
  2  3  2  0
  3  4  1  0
  3  5  1  0
  5  6  1  0
  6  7  2  0
  7  8  1  0
  8  9  1  0
  9 10  1  0
  9 11  1  0
 11 12  2  0
 12 13  1  0
 12 14  1  0
 14 15  2  3
 15 16  1  0
 16 17  2  0
 16 18  1  0
 18 19  1  0
 18 20  1  0
 18 21  1  0
 21 22  1  0
 22 23  1  0
 22 24  1  0
 22 25  1  0
 25 26  1  0
 25 27  1  0
 25 28  1  0
 28 29  1  0
 28 30  1  0
 28 31  1  0
 31 32  1  0
 31 33  1  0
 14 34  1  0
 34 35  1  0
 35 36  1  0
 35 37  2  0
  5 38  2  0
 38 39  1  0
 38 40  1  0
 40 41  1  0
 40 42  2  0
 42 43  1  0
 42  2  1  0
 37  7  1  0
 37 11  1  0
 31 21  1  0
M  CHG  2   8  -1  34  -1
M  END
>  <UniqueID>  (56) 
55

>  <SMILES>  (56) 
O=C(CN1CCCC1)N=c1cc2[nH][n-]/c(=N\c3ccc(F)cc3)c2c[n-]1

>  <Energy>  (56) 
106.19661337722293

>  <Genealogy>  (56) 
O=C(CN1CCCC1)N=c1cc2[nH][n-]c(=Nc3ccc(F)cc3)c2c[n-]1 (protonated)
O=C(CN1CCCC1)N=c1cc2[nH][n-]/c(=N\c3ccc(F)cc3)c2c[n-]1 (cis-trans isomerization)
O=C(CN1CCCC1)N=c1cc2[nH][n-]/c(=N\c3ccc(F)cc3)c2c[n-]1 (3D coordinates assigned)
O=C(CN1CCCC1)N=c1cc2[nH][n-]/c(=N\c3ccc(F)cc3)c2c[n-]1 (nonaromatic ring conformer: 106.19661337722293 kcal/mol)

>  <smiles>  (56) 
O=C(CN1CCCC1)N=c1cc2[nH][nH]c(=Nc3ccc(F)cc3)c2c[nH]1

>  <score_type>  (56) 
oracle

>  <origin>  (56) 
adg

>  <m_score__min__energy>  (56) 
-11.41

>  <m_primary>  (56) 
energy

$$$$
56:0
     RDKit          3D

 29 31  0  0  0  0  0  0  0  0999 V2000
   55.1440   28.9970   44.8660 O   0  0  0  0  0  0  0  0  0  0  0  0
   56.3500   29.2260   45.1510 C   0  0  0  0  0  0  0  0  0  0  0  0
   56.8910   30.4670   44.8360 O   0  0  0  0  0  0  0  0  0  0  0  0
   57.1730   28.1870   45.8110 C   0  0  0  0  0  0  0  0  0  0  0  0
   58.4850   28.4720   46.2630 C   0  0  0  0  0  0  0  0  0  0  0  0
   59.2640   27.4750   46.8910 C   0  0  0  0  0  0  0  0  0  0  0  0
   58.7510   26.1810   47.0780 C   0  0  0  0  0  0  0  0  0  0  0  0
   57.4600   25.9260   46.6260 C   0  0  0  0  0  0  0  0  0  0  0  0
   56.7850   24.7700   46.7030 N   0  0  0  0  0  0  0  0  0  0  0  0
   55.5980   25.0830   46.1180 C   0  0  0  0  0  0  0  0  0  0  0  0
   54.5260   24.1310   45.9690 N   0  0  0  0  0  0  0  0  0  0  0  0
   53.5450   24.3060   44.8910 C   0  0  0  0  0  0  0  0  0  0  0  0
   52.2400   23.5830   45.2370 C   0  0  0  0  0  0  0  0  0  0  0  0
   52.4920   22.2430   45.6150 O   0  0  0  0  0  0  0  0  0  0  0  0
   53.2240   22.2240   46.8240 C   0  0  0  0  0  0  0  0  0  0  0  0
   54.6210   22.8210   46.6240 C   0  0  0  0  0  0  0  0  0  0  0  0
   55.5070   26.3680   45.6840 N   0  0  0  0  0  0  0  0  0  0  0  0
   56.7020   26.8820   46.0180 C   0  0  0  0  0  0  0  0  0  0  0  0
   58.9015   29.4805   46.1234 H   0  0  0  0  0  0  0  0  0  0  0  0
   60.2807   27.7140   47.2364 H   0  0  0  0  0  0  0  0  0  0  0  0
   59.3490   25.3965   47.5648 H   0  0  0  0  0  0  0  0  0  0  0  0
   53.3410   25.3785   44.7567 H   0  0  0  0  0  0  0  0  0  0  0  0
   53.9541   23.8809   43.9626 H   0  0  0  0  0  0  0  0  0  0  0  0
   51.7481   24.1062   46.0702 H   0  0  0  0  0  0  0  0  0  0  0  0
   51.5915   23.5823   44.3485 H   0  0  0  0  0  0  0  0  0  0  0  0
   52.6852   22.8128   47.5810 H   0  0  0  0  0  0  0  0  0  0  0  0
   53.3307   21.1804   47.1551 H   0  0  0  0  0  0  0  0  0  0  0  0
   55.1087   22.9392   47.6029 H   0  0  0  0  0  0  0  0  0  0  0  0
   55.2114   22.1449   45.9881 H   0  0  0  0  0  0  0  0  0  0  0  0
  1  2  2  0
  2  3  1  0
  2  4  1  0
  4  5  2  0
  5  6  1  0
  6  7  2  0
  7  8  1  0
  8  9  1  0
  9 10  1  0
 10 11  1  0
 11 12  1  0
 12 13  1  0
 13 14  1  0
 14 15  1  0
 15 16  1  0
 10 17  2  0
 17 18  1  0
 18  4  1  0
 18  8  2  0
 16 11  1  0
  5 19  1  0
  6 20  1  0
  7 21  1  0
 12 22  1  0
 12 23  1  0
 13 24  1  0
 13 25  1  0
 15 26  1  0
 15 27  1  0
 16 28  1  0
 16 29  1  0
M  CHG  2   3  -1   9  -1
M  END
>  <UniqueID>  (57) 
56

>  <SMILES>  (57) 
O=C([O-])c1cccc2[n-]c(N3CCOCC3)nc12

>  <Energy>  (57) 
67.1756896028932

>  <Genealogy>  (57) 
O=C([O-])c1cccc2[n-]c(N3CCOCC3)nc12 (protonated)
O=C([O-])c1cccc2[n-]c(N3CCOCC3)nc12 (3D coordinates assigned)
O=C([O-])c1cccc2[n-]c(N3CCOCC3)nc12 (nonaromatic ring conformer: 67.1756896028932 kcal/mol)

>  <smiles>  (57) 
O=C(O)c1cccc2[nH]c(N3CCOCC3)nc12

>  <score_type>  (57) 
oracle

>  <origin>  (57) 
adg

>  <m_score__min__energy>  (57) 
-10.58

>  <m_primary>  (57) 
energy

$$$$
57:0
     RDKit          3D

 56 57  0  0  0  0  0  0  0  0999 V2000
   60.3880   28.2620   47.8060 C   0  0  0  0  0  0  0  0  0  0  0  0
   60.6510   29.4670   46.9070 C   0  0  0  0  0  0  0  0  0  0  0  0
   60.5170   30.7790   47.6880 C   0  0  0  0  0  0  0  0  0  0  0  0
   59.1650   30.8580   48.4060 C   0  0  0  0  0  0  0  0  0  0  0  0
   58.6250   32.1830   48.3520 O   0  0  0  0  0  0  0  0  0  0  0  0
   58.7760   33.0740   47.2770 C   0  0  0  0  0  0  0  0  0  0  0  0
   59.0900   34.4060   47.5780 C   0  0  0  0  0  0  0  0  0  0  0  0
   59.3170   35.3300   46.5570 C   0  0  0  0  0  0  0  0  0  0  0  0
   59.2150   34.9370   45.2220 C   0  0  0  0  0  0  0  0  0  0  0  0
   58.8710   33.6220   44.9070 C   0  0  0  0  0  0  0  0  0  0  0  0
   58.6380   32.6810   45.9240 C   0  0  0  0  0  0  0  0  0  0  0  0
   58.1510   31.3770   45.5810 N   0  0  0  0  0  0  0  0  0  0  0  0
   57.8360   30.9930   44.2340 C   0  0  0  0  0  0  0  0  0  0  0  0
   58.2200   31.7070   43.2690 O   0  0  0  0  0  0  0  0  0  0  0  0
   57.1640   29.7590   43.9590 N   0  0  0  0  0  0  0  0  0  0  0  0
   57.4160   28.5030   44.6030 C   0  0  0  0  0  0  0  0  0  0  0  0
   57.3650   28.4370   45.9990 C   0  0  0  0  0  0  0  0  0  0  0  0
   57.6310   27.2360   46.6620 C   0  0  0  0  0  0  0  0  0  0  0  0
   57.9620   26.0810   45.9330 C   0  0  0  0  0  0  0  0  0  0  0  0
   58.2740   24.7920   46.6480 C   0  0  0  0  0  0  0  0  0  0  0  0
   58.7640   23.7420   45.6820 C   0  0  0  0  0  0  0  0  0  0  0  0
   59.9980   23.5000   45.6150 O   0  0  0  0  0  0  0  0  0  0  0  0
   57.8890   23.0660   44.7680 N   0  0  0  0  0  0  0  0  0  0  0  0
   56.4580   22.8370   44.9480 C   0  0  0  0  0  0  0  0  0  0  0  0
   55.6610   24.0580   44.4870 C   0  0  0  0  0  0  0  0  0  0  0  0
   54.5630   24.6250   45.7750 S   0  0  0  0  0  0  0  0  0  0  0  0
   54.7580   26.3290   45.9820 N   0  0  0  0  0  0  0  0  0  0  0  0
   53.1390   24.3300   45.3970 O   0  0  0  0  0  0  0  0  0  0  0  0
   54.8910   23.9290   47.0660 O   0  0  0  0  0  0  0  0  0  0  0  0
   58.0510   26.1580   44.5340 C   0  0  0  0  0  0  0  0  0  0  0  0
   57.7860   27.3610   43.8730 C   0  0  0  0  0  0  0  0  0  0  0  0
   60.4551   28.5693   48.8601 H   0  0  0  0  0  0  0  0  0  0  0  0
   59.3822   27.8656   47.6029 H   0  0  0  0  0  0  0  0  0  0  0  0
   61.1372   27.4826   47.6029 H   0  0  0  0  0  0  0  0  0  0  0  0
   61.6698   29.3947   46.4985 H   0  0  0  0  0  0  0  0  0  0  0  0
   59.9078   29.4662   46.0960 H   0  0  0  0  0  0  0  0  0  0  0  0
   61.3237   30.8373   48.4335 H   0  0  0  0  0  0  0  0  0  0  0  0
   60.5852   31.6167   46.9783 H   0  0  0  0  0  0  0  0  0  0  0  0
   58.4614   30.1641   47.9228 H   0  0  0  0  0  0  0  0  0  0  0  0
   59.3155   30.5867   49.4613 H   0  0  0  0  0  0  0  0  0  0  0  0
   59.1582   34.7262   48.6282 H   0  0  0  0  0  0  0  0  0  0  0  0
   59.5767   36.3697   46.8051 H   0  0  0  0  0  0  0  0  0  0  0  0
   59.4057   35.6635   44.4184 H   0  0  0  0  0  0  0  0  0  0  0  0
   58.7814   33.3194   43.8533 H   0  0  0  0  0  0  0  0  0  0  0  0
   58.0710   30.6650   46.3420 H   0  0  0  0  0  0  0  0  0  0  0  0
   57.1137   29.3370   46.5794 H   0  0  0  0  0  0  0  0  0  0  0  0
   57.5811   27.1944   47.7601 H   0  0  0  0  0  0  0  0  0  0  0  0
   59.0529   24.9785   47.4020 H   0  0  0  0  0  0  0  0  0  0  0  0
   57.3538   24.4254   47.1265 H   0  0  0  0  0  0  0  0  0  0  0  0
   56.1538   21.9610   44.3563 H   0  0  0  0  0  0  0  0  0  0  0  0
   56.2561   22.6609   46.0149 H   0  0  0  0  0  0  0  0  0  0  0  0
   56.3596   24.8670   44.2272 H   0  0  0  0  0  0  0  0  0  0  0  0
   55.0588   23.7745   43.6112 H   0  0  0  0  0  0  0  0  0  0  0  0
   53.8690   26.6880   46.4000 H   0  0  0  0  0  0  0  0  0  0  0  0
   58.3310   25.2661   43.9543 H   0  0  0  0  0  0  0  0  0  0  0  0
   57.8675   27.4137   42.7773 H   0  0  0  0  0  0  0  0  0  0  0  0
  1  2  1  0
  2  3  1  0
  3  4  1  0
  4  5  1  0
  5  6  1  0
  6  7  2  0
  7  8  1  0
  8  9  2  0
  9 10  1  0
 10 11  2  0
 11 12  1  0
 12 13  1  0
 13 14  2  0
 13 15  1  0
 15 16  1  0
 16 17  2  0
 17 18  1  0
 18 19  2  0
 19 20  1  0
 20 21  1  0
 21 22  2  0
 21 23  1  0
 23 24  1  0
 24 25  1  0
 25 26  1  0
 26 27  1  0
 26 28  2  0
 26 29  2  0
 19 30  1  0
 30 31  2  0
 11  6  1  0
 31 16  1  0
  1 32  1  0
  1 33  1  0
  1 34  1  0
  2 35  1  0
  2 36  1  0
  3 37  1  0
  3 38  1  0
  4 39  1  0
  4 40  1  0
  7 41  1  0
  8 42  1  0
  9 43  1  0
 10 44  1  0
 12 45  1  0
 17 46  1  0
 18 47  1  0
 20 48  1  0
 20 49  1  0
 24 50  1  0
 24 51  1  0
 25 52  1  0
 25 53  1  0
 27 54  1  0
 30 55  1  0
 31 56  1  0
M  CHG  3  15  -1  23  -1  27  -1
M  END
>  <UniqueID>  (58) 
57

>  <SMILES>  (58) 
CCCCOc1ccccc1NC(=O)[N-]c1ccc(CC(=O)[N-]CCS([NH-])(=O)=O)cc1

>  <Energy>  (58) 
52.66958161376058

>  <Genealogy>  (58) 
CCCCOc1ccccc1NC(=O)[N-]c1ccc(CC(=O)[N-]CCS([NH-])(=O)=O)cc1 (protonated)
CCCCOc1ccccc1NC(=O)[N-]c1ccc(CC(=O)[N-]CCS([NH-])(=O)=O)cc1 (3D coordinates assigned)
CCCCOc1ccccc1NC(=O)[N-]c1ccc(CC(=O)[N-]CCS([NH-])(=O)=O)cc1 (optimized conformer: 52.66958161376058 kcal/mol)

>  <smiles>  (58) 
CCCCOc1ccccc1NC(=O)Nc1ccc(CC(=O)NCCS(N)(=O)=O)cc1

>  <score_type>  (58) 
oracle

>  <origin>  (58) 
adg

>  <m_score__min__energy>  (58) 
-14.039999999999999

>  <m_primary>  (58) 
energy

$$$$
58:0
     RDKit          3D

 52 53  0  0  0  0  0  0  0  0999 V2000
   57.0320   34.1850   45.2130 C   0  0  0  0  0  0  0  0  0  0  0  0
   57.5470   32.9730   45.8760 N   0  0  0  0  0  0  0  0  0  0  0  0
   58.2740   32.0930   44.9310 C   0  0  0  0  0  0  0  0  0  0  0  0
   57.7560   32.2790   43.5030 C   0  0  0  0  0  0  0  0  0  0  0  0
   57.0030   31.1370   43.1010 O   0  0  0  0  0  0  0  0  0  0  0  0
   56.2660   30.3580   43.9990 C   0  0  0  0  0  0  0  0  0  0  0  0
   55.1790   30.7890   44.4810 O   0  0  0  0  0  0  0  0  0  0  0  0
   56.7740   29.0380   44.3960 C   0  0  0  0  0  0  0  0  0  0  0  0
   56.1260   28.3620   45.2400 O   0  0  0  0  0  0  0  0  0  0  0  0
   57.9950   28.5260   43.8330 N   0  0  0  0  0  0  0  0  0  0  0  0
   58.4580   27.1550   44.0540 C   0  0  0  0  0  0  0  0  0  0  0  0
   58.7470   26.9210   45.5410 C   0  0  0  0  0  0  0  0  0  0  0  0
   59.2180   28.1800   46.2270 C   0  0  0  0  0  0  0  0  0  0  0  0
   60.3280   28.8810   45.7290 C   0  0  0  0  0  0  0  0  0  0  0  0
   60.7740   30.0400   46.3700 C   0  0  0  0  0  0  0  0  0  0  0  0
   60.1060   30.5210   47.5010 C   0  0  0  0  0  0  0  0  0  0  0  0
   58.9880   29.8450   47.9910 C   0  0  0  0  0  0  0  0  0  0  0  0
   58.5480   28.6750   47.3610 C   0  0  0  0  0  0  0  0  0  0  0  0
   58.2980   33.2810   47.1170 C   0  0  0  0  0  0  0  0  0  0  0  0
   59.2440   34.5050   47.0080 C   0  0  0  0  0  0  0  0  0  0  0  0
   60.6550   34.1540   47.4060 C   0  0  0  0  0  0  0  0  0  0  0  0
   61.6080   33.8020   46.4330 C   0  0  0  0  0  0  0  0  0  0  0  0
   62.9100   33.4590   46.8150 C   0  0  0  0  0  0  0  0  0  0  0  0
   63.2670   33.4590   48.1680 C   0  0  0  0  0  0  0  0  0  0  0  0
   62.3250   33.8060   49.1420 C   0  0  0  0  0  0  0  0  0  0  0  0
   61.0210   34.1470   48.7650 C   0  0  0  0  0  0  0  0  0  0  0  0
   56.7215   34.9156   45.9744 H   0  0  0  0  0  0  0  0  0  0  0  0
   57.8217   34.6231   44.5850 H   0  0  0  0  0  0  0  0  0  0  0  0
   56.1685   33.9206   44.5850 H   0  0  0  0  0  0  0  0  0  0  0  0
   59.3455   32.3401   44.9605 H   0  0  0  0  0  0  0  0  0  0  0  0
   58.1126   31.0468   45.2299 H   0  0  0  0  0  0  0  0  0  0  0  0
   57.1134   33.1709   43.4626 H   0  0  0  0  0  0  0  0  0  0  0  0
   58.6120   32.4026   42.8233 H   0  0  0  0  0  0  0  0  0  0  0  0
   58.5430   29.1220   43.1710 H   0  0  0  0  0  0  0  0  0  0  0  0
   57.6804   26.4519   43.7210 H   0  0  0  0  0  0  0  0  0  0  0  0
   59.3834   26.9946   43.4814 H   0  0  0  0  0  0  0  0  0  0  0  0
   57.8266   26.5716   46.0316 H   0  0  0  0  0  0  0  0  0  0  0  0
   59.5471   26.1702   45.6190 H   0  0  0  0  0  0  0  0  0  0  0  0
   60.8484   28.5166   44.8310 H   0  0  0  0  0  0  0  0  0  0  0  0
   61.6535   30.5760   45.9838 H   0  0  0  0  0  0  0  0  0  0  0  0
   60.4620   31.4321   48.0041 H   0  0  0  0  0  0  0  0  0  0  0  0
   58.4531   30.2310   48.8713 H   0  0  0  0  0  0  0  0  0  0  0  0
   57.6722   28.1387   47.7552 H   0  0  0  0  0  0  0  0  0  0  0  0
   57.5711   33.4787   47.9186 H   0  0  0  0  0  0  0  0  0  0  0  0
   58.9364   32.4089   47.3214 H   0  0  0  0  0  0  0  0  0  0  0  0
   59.2453   34.8635   45.9681 H   0  0  0  0  0  0  0  0  0  0  0  0
   58.8777   35.2845   47.6922 H   0  0  0  0  0  0  0  0  0  0  0  0
   61.3291   33.7963   45.3690 H   0  0  0  0  0  0  0  0  0  0  0  0
   63.6536   33.1891   46.0507 H   0  0  0  0  0  0  0  0  0  0  0  0
   64.2900   33.1857   48.4661 H   0  0  0  0  0  0  0  0  0  0  0  0
   62.6092   33.8109   50.2046 H   0  0  0  0  0  0  0  0  0  0  0  0
   60.2795   34.4105   49.5336 H   0  0  0  0  0  0  0  0  0  0  0  0
  1  2  1  0
  2  3  1  0
  3  4  1  0
  4  5  1  0
  5  6  1  0
  6  7  2  0
  6  8  1  0
  8  9  2  0
  8 10  1  0
 10 11  1  0
 11 12  1  0
 12 13  1  0
 13 14  2  0
 14 15  1  0
 15 16  2  0
 16 17  1  0
 17 18  2  0
  2 19  1  0
 19 20  1  0
 20 21  1  0
 21 22  2  0
 22 23  1  0
 23 24  2  0
 24 25  1  0
 25 26  2  0
 18 13  1  0
 26 21  1  0
  1 27  1  0
  1 28  1  0
  1 29  1  0
  3 30  1  0
  3 31  1  0
  4 32  1  0
  4 33  1  0
 10 34  1  0
 11 35  1  0
 11 36  1  0
 12 37  1  0
 12 38  1  0
 14 39  1  0
 15 40  1  0
 16 41  1  0
 17 42  1  0
 18 43  1  0
 19 44  1  0
 19 45  1  0
 20 46  1  0
 20 47  1  0
 22 48  1  0
 23 49  1  0
 24 50  1  0
 25 51  1  0
 26 52  1  0
M  END
>  <UniqueID>  (59) 
58

>  <SMILES>  (59) 
CN(CCOC(=O)C(=O)NCCc1ccccc1)CCc1ccccc1

>  <Energy>  (59) 
45.49817059803658

>  <Genealogy>  (59) 
CN(CCOC(=O)C(=O)NCCc1ccccc1)CCc1ccccc1 (3D coordinates assigned)
CN(CCOC(=O)C(=O)NCCc1ccccc1)CCc1ccccc1 (optimized conformer: 45.49817059803658 kcal/mol)

>  <smiles>  (59) 
CN(CCOC(=O)C(=O)NCCc1ccccc1)CCc1ccccc1

>  <score_type>  (59) 
oracle

>  <origin>  (59) 
adg

>  <m_score__min__energy>  (59) 
-7.8899999999999997

>  <m_primary>  (59) 
energy

$$$$
59:0
     RDKit          3D

 58 61  0  0  0  0  0  0  0  0999 V2000
   57.9220   33.0860   43.5570 C   0  0  0  0  0  0  0  0  0  0  0  0
   58.6450   33.1940   44.8670 C   0  0  0  0  0  0  0  0  0  0  0  0
   58.8390   32.2270   45.7780 C   0  0  0  0  0  0  0  0  0  0  0  0
   58.3160   30.8340   45.6510 C   0  0  0  0  0  0  0  0  0  0  0  0
   57.0710   30.6410   45.5950 O   0  0  0  0  0  0  0  0  0  0  0  0
   59.1970   29.6990   45.5960 N   0  0  0  0  0  0  0  0  0  0  0  0
   58.7170   28.3810   45.2930 C   0  0  0  0  0  0  0  0  0  0  0  0
   58.5230   28.0370   43.9500 C   0  0  0  0  0  0  0  0  0  0  0  0
   58.0900   26.7600   43.6020 C   0  0  0  0  0  0  0  0  0  0  0  0
   57.8500   25.8080   44.5920 C   0  0  0  0  0  0  0  0  0  0  0  0
   58.0230   26.1290   45.9490 C   0  0  0  0  0  0  0  0  0  0  0  0
   57.7390   25.0720   46.9850 C   0  0  0  0  0  0  0  0  0  0  0  0
   58.4160   27.4430   46.3140 C   0  0  0  0  0  0  0  0  0  0  0  0
   58.5260   27.8350   47.7700 C   0  0  0  0  0  0  0  0  0  0  0  0
   59.6340   32.7880   46.9640 C   0  0  0  0  0  0  0  0  0  0  0  0
   61.0320   32.1260   47.1040 C   0  0  0  0  0  0  0  0  0  0  0  0
   61.3940   31.8210   48.5700 C   0  0  0  0  0  0  0  0  0  0  0  0
   61.0550   32.9400   49.4730 N   0  0  0  0  0  0  0  0  0  0  0  0
   61.9570   34.0980   49.2880 C   0  0  0  0  0  0  0  0  0  0  0  0
   63.3030   33.8100   49.9000 C   0  0  0  0  0  0  0  0  0  0  0  0
   63.6100   34.2500   51.1990 C   0  0  0  0  0  0  0  0  0  0  0  0
   64.8580   33.9660   51.7610 C   0  0  0  0  0  0  0  0  0  0  0  0
   65.8070   33.2420   51.0330 C   0  0  0  0  0  0  0  0  0  0  0  0
   65.5080   32.8010   49.7410 C   0  0  0  0  0  0  0  0  0  0  0  0
   64.2600   33.0820   49.1760 C   0  0  0  0  0  0  0  0  0  0  0  0
   59.6140   33.3180   49.4500 C   0  0  0  0  0  0  0  0  0  0  0  0
   58.8190   32.7270   48.2690 C   0  0  0  0  0  0  0  0  0  0  0  0
   59.8120   34.1610   46.6110 O   0  0  0  0  0  0  0  0  0  0  0  0
   59.2410   34.4010   45.3830 C   0  0  0  0  0  0  0  0  0  0  0  0
   59.2470   35.5230   44.8130 O   0  0  0  0  0  0  0  0  0  0  0  0
   56.8496   32.9258   43.7422 H   0  0  0  0  0  0  0  0  0  0  0  0
   58.0604   34.0148   42.9841 H   0  0  0  0  0  0  0  0  0  0  0  0
   58.3258   32.2382   42.9841 H   0  0  0  0  0  0  0  0  0  0  0  0
   60.1760   29.7760   45.9400 H   0  0  0  0  0  0  0  0  0  0  0  0
   58.7141   28.7815   43.1631 H   0  0  0  0  0  0  0  0  0  0  0  0
   57.9370   26.5018   42.5437 H   0  0  0  0  0  0  0  0  0  0  0  0
   57.5224   24.7970   44.3083 H   0  0  0  0  0  0  0  0  0  0  0  0
   57.8549   25.5033   47.9902 H   0  0  0  0  0  0  0  0  0  0  0  0
   56.7100   24.7036   46.8605 H   0  0  0  0  0  0  0  0  0  0  0  0
   58.4448   24.2375   46.8605 H   0  0  0  0  0  0  0  0  0  0  0  0
   58.2828   26.9684   48.4024 H   0  0  0  0  0  0  0  0  0  0  0  0
   59.5523   28.1682   47.9835 H   0  0  0  0  0  0  0  0  0  0  0  0
   57.8229   28.6535   47.9835 H   0  0  0  0  0  0  0  0  0  0  0  0
   61.0351   31.1839   46.5362 H   0  0  0  0  0  0  0  0  0  0  0  0
   61.7785   32.8340   46.7149 H   0  0  0  0  0  0  0  0  0  0  0  0
   60.8418   30.9259   48.8924 H   0  0  0  0  0  0  0  0  0  0  0  0
   62.4811   31.6616   48.6232 H   0  0  0  0  0  0  0  0  0  0  0  0
   62.0809   34.2943   48.2128 H   0  0  0  0  0  0  0  0  0  0  0  0
   61.5184   34.9778   49.7815 H   0  0  0  0  0  0  0  0  0  0  0  0
   62.8660   34.8196   51.7752 H   0  0  0  0  0  0  0  0  0  0  0  0
   65.0939   34.3128   52.7779 H   0  0  0  0  0  0  0  0  0  0  0  0
   66.7885   33.0196   51.4770 H   0  0  0  0  0  0  0  0  0  0  0  0
   66.2551   32.2323   49.1679 H   0  0  0  0  0  0  0  0  0  0  0  0
   64.0274   32.7310   48.1598 H   0  0  0  0  0  0  0  0  0  0  0  0
   59.1518   32.9685   50.3850 H   0  0  0  0  0  0  0  0  0  0  0  0
   59.5783   34.4115   49.3363 H   0  0  0  0  0  0  0  0  0  0  0  0
   58.5740   31.6777   48.4905 H   0  0  0  0  0  0  0  0  0  0  0  0
   57.9017   33.3191   48.1351 H   0  0  0  0  0  0  0  0  0  0  0  0
  1  2  1  0
  2  3  2  0
  3  4  1  0
  4  5  2  0
  4  6  1  0
  6  7  1  0
  7  8  2  0
  8  9  1  0
  9 10  2  0
 10 11  1  0
 11 12  1  0
 11 13  2  0
 13 14  1  0
  3 15  1  0
 15 16  1  0
 16 17  1  0
 17 18  1  0
 18 19  1  0
 19 20  1  0
 20 21  2  0
 21 22  1  0
 22 23  2  0
 23 24  1  0
 24 25  2  0
 18 26  1  0
 26 27  1  0
 15 28  1  0
 28 29  1  0
 29 30  2  0
 29  2  1  0
 13  7  1  0
 27 15  1  0
 25 20  1  0
  1 31  1  0
  1 32  1  0
  1 33  1  0
  6 34  1  0
  8 35  1  0
  9 36  1  0
 10 37  1  0
 12 38  1  0
 12 39  1  0
 12 40  1  0
 14 41  1  0
 14 42  1  0
 14 43  1  0
 16 44  1  0
 16 45  1  0
 17 46  1  0
 17 47  1  0
 19 48  1  0
 19 49  1  0
 21 50  1  0
 22 51  1  0
 23 52  1  0
 24 53  1  0
 25 54  1  0
 26 55  1  0
 26 56  1  0
 27 57  1  0
 27 58  1  0
M  END
>  <UniqueID>  (60) 
59

>  <SMILES>  (60) 
CC1=C(C(=O)Nc2cccc(C)c2C)C2(CCN(Cc3ccccc3)CC2)OC1=O

>  <Energy>  (60) 
98.42153396721726

>  <Genealogy>  (60) 
CC1=C(C(=O)Nc2cccc(C)c2C)C2(CCN(Cc3ccccc3)CC2)OC1=O (3D coordinates assigned)
CC1=C(C(=O)Nc2cccc(C)c2C)C2(CCN(Cc3ccccc3)CC2)OC1=O (nonaromatic ring conformer: 98.42153396721726 kcal/mol)

>  <smiles>  (60) 
CC1=C(C(=O)Nc2cccc(C)c2C)C2(CCN(Cc3ccccc3)CC2)OC1=O

>  <score_type>  (60) 
oracle

>  <origin>  (60) 
adg

>  <m_score__min__energy>  (60) 
-8.9499999999999993

>  <m_primary>  (60) 
energy

$$$$
60:0
     RDKit          3D

 50 53  0  0  0  0  0  0  0  0999 V2000
   55.5689   28.6224   44.5665 H   0  0  0  0  0  0  0  0  0  0  0  0
   56.5450   28.9750   44.9310 C   0  0  0  0  0  0  0  0  0  0  0  0
   56.8070   30.3070   44.9820 N   0  0  0  0  0  0  0  0  0  0  0  0
   57.9970   30.8010   45.4230 C   0  0  0  0  0  0  0  0  0  0  0  0
   58.1850   32.2710   45.4520 C   0  0  0  0  0  0  0  0  0  0  0  0
   59.2290   32.7790   46.1630 N   0  0  0  0  0  0  0  0  0  0  0  0
   59.4540   34.1180   46.2530 C   0  0  0  0  0  0  0  0  0  0  0  0
   60.4720   34.5890   46.9140 N   0  0  0  0  0  0  0  0  0  0  0  0
   61.5570   33.8320   47.4790 C   0  0  0  0  0  0  0  0  0  0  0  0
   62.7430   33.5950   46.7560 C   0  0  0  0  0  0  0  0  0  0  0  0
   62.8610   34.0138   45.7457 H   0  0  0  0  0  0  0  0  0  0  0  0
   63.7680   32.8320   47.3150 C   0  0  0  0  0  0  0  0  0  0  0  0
   64.6976   32.6645   46.7512 H   0  0  0  0  0  0  0  0  0  0  0  0
   63.6170   32.2810   48.5870 C   0  0  0  0  0  0  0  0  0  0  0  0
   64.4312   31.6880   49.0290 H   0  0  0  0  0  0  0  0  0  0  0  0
   62.4340   32.4810   49.3000 C   0  0  0  0  0  0  0  0  0  0  0  0
   62.3169   32.0374   50.2998 H   0  0  0  0  0  0  0  0  0  0  0  0
   61.3880   33.2480   48.7470 C   0  0  0  0  0  0  0  0  0  0  0  0
   60.1760   33.4700   49.4250 O   0  0  0  0  0  0  0  0  0  0  0  0
   58.9750   32.7150   49.2580 C   0  0  0  0  0  0  0  0  0  0  0  0
   59.1651   31.8838   48.5631 H   0  0  0  0  0  0  0  0  0  0  0  0
   58.1943   33.3781   48.8569 H   0  0  0  0  0  0  0  0  0  0  0  0
   58.5000   32.1520   50.5930 C   0  0  0  0  0  0  0  0  0  0  0  0
   58.9713   32.7106   51.4151 H   0  0  0  0  0  0  0  0  0  0  0  0
   57.4065   32.2488   50.6635 H   0  0  0  0  0  0  0  0  0  0  0  0
   58.7795   31.0904   50.6635 H   0  0  0  0  0  0  0  0  0  0  0  0
   58.6290   34.9800   45.6050 N   0  0  0  0  0  0  0  0  0  0  0  0
   57.5670   34.5290   44.8890 C   0  0  0  0  0  0  0  0  0  0  0  0
   56.9048   35.2439   44.3787 H   0  0  0  0  0  0  0  0  0  0  0  0
   57.3150   33.1600   44.8000 C   0  0  0  0  0  0  0  0  0  0  0  0
   56.4521   32.7842   44.2306 H   0  0  0  0  0  0  0  0  0  0  0  0
   58.9870   29.9050   45.8640 C   0  0  0  0  0  0  0  0  0  0  0  0
   59.9477   30.2851   46.2417 H   0  0  0  0  0  0  0  0  0  0  0  0
   58.7440   28.5260   45.8200 C   0  0  0  0  0  0  0  0  0  0  0  0
   59.7500   27.6200   46.3170 C   0  0  0  0  0  0  0  0  0  0  0  0
   60.5570   26.8920   46.7150 N   0  0  0  0  0  0  0  0  0  0  0  0
   57.5110   28.0500   45.3400 C   0  0  0  0  0  0  0  0  0  0  0  0
   57.2300   26.6450   45.2730 N   0  0  0  0  0  0  0  0  0  0  0  0
   57.7110   25.7900   44.2030 C   0  0  0  0  0  0  0  0  0  0  0  0
   57.1530   25.9844   43.2751 H   0  0  0  0  0  0  0  0  0  0  0  0
   58.7732   25.9711   43.9817 H   0  0  0  0  0  0  0  0  0  0  0  0
   57.4680   24.3640   44.6820 C   0  0  0  0  0  0  0  0  0  0  0  0
   57.0209   23.7618   43.8774 H   0  0  0  0  0  0  0  0  0  0  0  0
   58.4075   23.8724   44.9747 H   0  0  0  0  0  0  0  0  0  0  0  0
   56.5030   24.4730   45.8620 C   0  0  0  0  0  0  0  0  0  0  0  0
   55.4748   24.2564   45.5365 H   0  0  0  0  0  0  0  0  0  0  0  0
   56.7519   23.7523   46.6549 H   0  0  0  0  0  0  0  0  0  0  0  0
   56.6100   25.9080   46.3580 C   0  0  0  0  0  0  0  0  0  0  0  0
   55.6119   26.3145   46.5785 H   0  0  0  0  0  0  0  0  0  0  0  0
   57.1953   25.9774   47.2868 H   0  0  0  0  0  0  0  0  0  0  0  0
  1  2  1  0
  2  3  2  0
  3  4  1  0
  4  5  1  0
  5  6  2  0
  6  7  1  0
  7  8  2  0
  8  9  1  0
  9 10  2  0
 10 11  1  0
 10 12  1  0
 12 13  1  0
 12 14  2  0
 14 15  1  0
 14 16  1  0
 16 17  1  0
 16 18  2  0
 18 19  1  0
 19 20  1  0
 20 21  1  0
 20 22  1  0
 20 23  1  0
 23 24  1  0
 23 25  1  0
 23 26  1  0
  7 27  1  0
 27 28  1  0
 28 29  1  0
 28 30  2  0
 30 31  1  0
  4 32  2  0
 32 33  1  0
 32 34  1  0
 34 35  1  0
 35 36  3  0
 34 37  2  0
 37 38  1  0
 38 39  1  0
 39 40  1  0
 39 41  1  0
 39 42  1  0
 42 43  1  0
 42 44  1  0
 42 45  1  0
 45 46  1  0
 45 47  1  0
 45 48  1  0
 48 49  1  0
 48 50  1  0
 37  2  1  0
 48 38  1  0
 30  5  1  0
 18  9  1  0
M  CHG  1  27  -1
M  END
>  <UniqueID>  (61) 
60

>  <SMILES>  (61) 
CCOc1ccccc1/N=c1\nc(-c2cc(C#N)c(N3CCCC3)cn2)cc[n-]1

>  <Energy>  (61) 
67.35601936513132

>  <Genealogy>  (61) 
CCOc1ccccc1N=c1nc(-c2cc(C#N)c(N3CCCC3)cn2)cc[n-]1 (protonated)
CCOc1ccccc1/N=c1\nc(-c2cc(C#N)c(N3CCCC3)cn2)cc[n-]1 (cis-trans isomerization)
CCOc1ccccc1/N=c1\nc(-c2cc(C#N)c(N3CCCC3)cn2)cc[n-]1 (3D coordinates assigned)
CCOc1ccccc1/N=c1\nc(-c2cc(C#N)c(N3CCCC3)cn2)cc[n-]1 (nonaromatic ring conformer: 67.35601936513132 kcal/mol)

>  <smiles>  (61) 
CCOc1ccccc1N=c1nc(-c2cc(C#N)c(N3CCCC3)cn2)cc[nH]1

>  <score_type>  (61) 
oracle

>  <origin>  (61) 
adg

>  <m_score__min__energy>  (61) 
-9.5099999999999998

>  <m_primary>  (61) 
energy

$$$$
61:0
     RDKit          3D

 39 41  0  0  0  0  0  0  0  0999 V2000
   60.0650   32.9300   51.1580 N   0  0  0  0  0  0  0  0  0  0  0  0
   59.9950   32.0340   50.4280 C   0  0  0  0  0  0  0  0  0  0  0  0
   59.9090   30.9140   49.5160 C   0  0  0  0  0  0  0  0  0  0  0  0
   60.8150   30.7550   48.4430 C   0  0  0  0  0  0  0  0  0  0  0  0
   61.9550   31.6740   48.2150 C   0  0  0  0  0  0  0  0  0  0  0  0
   63.0230   31.6980   49.1260 C   0  0  0  0  0  0  0  0  0  0  0  0
   64.0930   32.5790   48.9360 C   0  0  0  0  0  0  0  0  0  0  0  0
   64.0980   33.4520   47.8460 C   0  0  0  0  0  0  0  0  0  0  0  0
   63.0290   33.4510   46.9460 C   0  0  0  0  0  0  0  0  0  0  0  0
   61.9570   32.5720   47.1310 C   0  0  0  0  0  0  0  0  0  0  0  0
   60.6330   29.7280   47.5710 N   0  0  0  0  0  0  0  0  0  0  0  0
   59.6180   28.8400   47.7190 C   0  0  0  0  0  0  0  0  0  0  0  0
   59.4320   27.4890   46.5600 S   0  0  0  0  0  0  0  0  0  0  0  0
   57.6680   27.8240   46.2190 C   0  0  0  0  0  0  0  0  0  0  0  0
   57.4800   29.2070   45.6740 C   0  0  0  0  0  0  0  0  0  0  0  0
   56.3470   29.5500   45.2420 O   0  0  0  0  0  0  0  0  0  0  0  0
   58.5920   30.1110   45.6090 N   0  0  0  0  0  0  0  0  0  0  0  0
   58.4680   31.5300   45.4090 C   0  0  0  0  0  0  0  0  0  0  0  0
   57.8770   32.0600   44.2460 C   0  0  0  0  0  0  0  0  0  0  0  0
   57.7430   33.4430   44.0910 C   0  0  0  0  0  0  0  0  0  0  0  0
   58.1840   34.3080   45.0960 C   0  0  0  0  0  0  0  0  0  0  0  0
   58.7540   33.7900   46.2630 C   0  0  0  0  0  0  0  0  0  0  0  0
   59.2950   34.8760   47.5300 Cl  0  0  0  0  0  0  0  0  0  0  0  0
   58.8870   32.4070   46.4220 C   0  0  0  0  0  0  0  0  0  0  0  0
   58.7460   28.9720   48.7500 N   0  0  0  0  0  0  0  0  0  0  0  0
   58.8660   29.9830   49.6460 C   0  0  0  0  0  0  0  0  0  0  0  0
   58.0320   30.0770   50.5860 O   0  0  0  0  0  0  0  0  0  0  0  0
   63.0184   31.0211   49.9930 H   0  0  0  0  0  0  0  0  0  0  0  0
   64.9324   32.5841   49.6469 H   0  0  0  0  0  0  0  0  0  0  0  0
   64.9430   34.1401   47.6960 H   0  0  0  0  0  0  0  0  0  0  0  0
   63.0307   34.1427   46.0907 H   0  0  0  0  0  0  0  0  0  0  0  0
   61.1121   32.5824   46.4267 H   0  0  0  0  0  0  0  0  0  0  0  0
   57.2988   27.0942   45.4834 H   0  0  0  0  0  0  0  0  0  0  0  0
   57.1065   27.7391   47.1611 H   0  0  0  0  0  0  0  0  0  0  0  0
   59.5530   29.7040   45.6640 H   0  0  0  0  0  0  0  0  0  0  0  0
   57.5193   31.3831   43.4562 H   0  0  0  0  0  0  0  0  0  0  0  0
   57.2894   33.8512   43.1758 H   0  0  0  0  0  0  0  0  0  0  0  0
   58.0828   35.3960   44.9691 H   0  0  0  0  0  0  0  0  0  0  0  0
   59.3232   32.0033   47.3477 H   0  0  0  0  0  0  0  0  0  0  0  0
  1  2  3  0
  2  3  1  0
  3  4  2  0
  4  5  1  0
  5  6  2  0
  6  7  1  0
  7  8  2  0
  8  9  1  0
  9 10  2  0
  4 11  1  0
 11 12  2  0
 12 13  1  0
 13 14  1  0
 14 15  1  0
 15 16  2  0
 15 17  1  0
 17 18  1  0
 18 19  2  0
 19 20  1  0
 20 21  2  0
 21 22  1  0
 22 23  1  0
 22 24  2  0
 12 25  1  0
 25 26  1  0
 26 27  2  0
 26  3  1  0
 10  5  1  0
 24 18  1  0
  6 28  1  0
  7 29  1  0
  8 30  1  0
  9 31  1  0
 10 32  1  0
 14 33  1  0
 14 34  1  0
 17 35  1  0
 19 36  1  0
 20 37  1  0
 21 38  1  0
 24 39  1  0
M  CHG  1  25  -1
M  END
>  <UniqueID>  (62) 
61

>  <SMILES>  (62) 
N#Cc1c(-c2ccccc2)nc(SCC(=O)Nc2cccc(Cl)c2)[n-]c1=O

>  <Energy>  (62) 
47.39879816870724

>  <Genealogy>  (62) 
N#Cc1c(-c2ccccc2)nc(SCC(=O)Nc2cccc(Cl)c2)[n-]c1=O (protonated)
N#Cc1c(-c2ccccc2)nc(SCC(=O)Nc2cccc(Cl)c2)[n-]c1=O (3D coordinates assigned)
N#Cc1c(-c2ccccc2)nc(SCC(=O)Nc2cccc(Cl)c2)[n-]c1=O (optimized conformer: 47.39879816870724 kcal/mol)

>  <smiles>  (62) 
N#Cc1c(-c2ccccc2)nc(SCC(=O)Nc2cccc(Cl)c2)[nH]c1=O

>  <score_type>  (62) 
oracle

>  <origin>  (62) 
adg

>  <m_score__min__energy>  (62) 
-9.4700000000000006

>  <m_primary>  (62) 
energy

$$$$
62:0
     RDKit          3D

 34 35  0  0  0  0  0  0  0  0999 V2000
   64.0120   32.6100   46.8480 N   0  0  0  0  0  0  0  0  0  0  0  0
   63.7740   33.5200   47.9650 C   0  0  0  0  0  0  0  0  0  0  0  0
   62.3070   33.5580   48.2900 C   0  0  0  0  0  0  0  0  0  0  0  0
   61.8800   33.8720   49.5890 C   0  0  0  0  0  0  0  0  0  0  0  0
   60.5200   33.8570   49.9060 C   0  0  0  0  0  0  0  0  0  0  0  0
   59.5760   33.5280   48.9300 C   0  0  0  0  0  0  0  0  0  0  0  0
   59.9820   33.2190   47.6240 C   0  0  0  0  0  0  0  0  0  0  0  0
   58.9930   32.8550   46.6460 N   0  0  0  0  0  0  0  0  0  0  0  0
   58.6190   33.6830   45.5330 C   0  0  0  0  0  0  0  0  0  0  0  0
   59.0120   34.8780   45.4610 O   0  0  0  0  0  0  0  0  0  0  0  0
   57.6960   33.1540   44.4770 C   0  0  0  0  0  0  0  0  0  0  0  0
   57.0210   31.9520   44.9510 N   0  0  0  0  0  0  0  0  0  0  0  0
   56.8080   30.7890   44.1420 C   0  0  0  0  0  0  0  0  0  0  0  0
   56.6610   30.8980   42.8950 O   0  0  0  0  0  0  0  0  0  0  0  0
   56.7560   29.4610   44.7670 C   0  0  0  0  0  0  0  0  0  0  0  0
   57.8530   28.6930   45.1130 C   0  0  0  0  0  0  0  0  0  0  0  0
   57.3540   27.5340   45.6630 C   0  0  0  0  0  0  0  0  0  0  0  0
   55.9850   27.6630   45.6200 C   0  0  0  0  0  0  0  0  0  0  0  0
   55.0870   26.7070   46.0790 O   0  0  0  0  0  0  0  0  0  0  0  0
   55.6020   28.8330   45.0760 N   0  0  0  0  0  0  0  0  0  0  0  0
   61.3560   33.2120   47.3160 C   0  0  0  0  0  0  0  0  0  0  0  0
   64.8980   32.9020   46.3740 H   0  0  0  0  0  0  0  0  0  0  0  0
   64.1880   31.6590   47.2460 H   0  0  0  0  0  0  0  0  0  0  0  0
   64.3337   33.1711   48.8453 H   0  0  0  0  0  0  0  0  0  0  0  0
   64.1098   34.5300   47.6873 H   0  0  0  0  0  0  0  0  0  0  0  0
   62.6195   34.1311   50.3610 H   0  0  0  0  0  0  0  0  0  0  0  0
   60.1914   34.1047   50.9261 H   0  0  0  0  0  0  0  0  0  0  0  0
   58.5068   33.5113   49.1879 H   0  0  0  0  0  0  0  0  0  0  0  0
   58.4490   31.9770   46.8060 H   0  0  0  0  0  0  0  0  0  0  0  0
   56.9449   33.9202   44.2345 H   0  0  0  0  0  0  0  0  0  0  0  0
   58.2831   32.9049   43.5807 H   0  0  0  0  0  0  0  0  0  0  0  0
   58.9123   28.9558   44.9761 H   0  0  0  0  0  0  0  0  0  0  0  0
   57.9296   26.6825   46.0550 H   0  0  0  0  0  0  0  0  0  0  0  0
   61.6871   32.9334   46.3047 H   0  0  0  0  0  0  0  0  0  0  0  0
  1  2  1  0
  2  3  1  0
  3  4  2  0
  4  5  1  0
  5  6  2  0
  6  7  1  0
  7  8  1  0
  8  9  1  0
  9 10  2  0
  9 11  1  0
 11 12  1  0
 12 13  1  0
 13 14  2  0
 13 15  1  0
 15 16  2  0
 16 17  1  0
 17 18  2  0
 18 19  1  0
 18 20  1  0
  7 21  2  0
 21  3  1  0
 20 15  1  0
  1 22  1  0
  1 23  1  0
  2 24  1  0
  2 25  1  0
  4 26  1  0
  5 27  1  0
  6 28  1  0
  8 29  1  0
 11 30  1  0
 11 31  1  0
 16 32  1  0
 17 33  1  0
 21 34  1  0
M  CHG  3  12  -1  19  -1  20  -1
M  END
>  <UniqueID>  (63) 
62

>  <SMILES>  (63) 
NCc1cccc(NC(=O)C[N-]C(=O)c2ccc([O-])[n-]2)c1

>  <Energy>  (63) 
56.56939521300243

>  <Genealogy>  (63) 
NCc1cccc(NC(=O)C[N-]C(=O)c2ccc([O-])[n-]2)c1 (protonated)
NCc1cccc(NC(=O)C[N-]C(=O)c2ccc([O-])[n-]2)c1 (3D coordinates assigned)
NCc1cccc(NC(=O)C[N-]C(=O)c2ccc([O-])[n-]2)c1 (optimized conformer: 56.56939521300243 kcal/mol)

>  <smiles>  (63) 
NCc1cccc(NC(=O)CNC(=O)c2ccc(O)[nH]2)c1

>  <score_type>  (63) 
oracle

>  <origin>  (63) 
adg

>  <m_score__min__energy>  (63) 
-14.23

>  <m_primary>  (63) 
energy

$$$$
63:0
     RDKit          3D

 36 38  0  0  0  0  0  0  0  0999 V2000
   55.1430   27.4570   45.5710 H   0  0  0  0  0  0  0  0  0  0  0  0
   55.0370   26.5490   46.0050 O   0  0  0  0  0  0  0  0  0  0  0  0
   55.7540   25.4220   45.5950 C   0  0  0  0  0  0  0  0  0  0  0  0
   55.1030   24.1920   45.3660 C   0  0  0  0  0  0  0  0  0  0  0  0
   53.3800   23.9940   45.6490 Cl  0  0  0  0  0  0  0  0  0  0  0  0
   55.8320   23.0930   44.9000 C   0  0  0  0  0  0  0  0  0  0  0  0
   55.3246   22.1321   44.7290 H   0  0  0  0  0  0  0  0  0  0  0  0
   57.2000   23.2100   44.6510 C   0  0  0  0  0  0  0  0  0  0  0  0
   57.7638   22.3470   44.2670 H   0  0  0  0  0  0  0  0  0  0  0  0
   57.8540   24.4190   44.8880 C   0  0  0  0  0  0  0  0  0  0  0  0
   58.9302   24.5084   44.6785 H   0  0  0  0  0  0  0  0  0  0  0  0
   57.1480   25.5220   45.3920 C   0  0  0  0  0  0  0  0  0  0  0  0
   57.8950   26.7680   45.6740 C   0  0  0  0  0  0  0  0  0  0  0  0
   58.8963   26.8740   45.2312 H   0  0  0  0  0  0  0  0  0  0  0  0
   57.4390   27.7780   46.4310 C   0  0  0  0  0  0  0  0  0  0  0  0
   57.0601   27.5331   47.4343 H   0  0  0  0  0  0  0  0  0  0  0  0
   57.4090   29.2020   46.0120 C   0  0  0  0  0  0  0  0  0  0  0  0
   56.3810   29.6570   45.1810 C   0  0  0  0  0  0  0  0  0  0  0  0
   55.3970   28.7860   44.7260 O   0  0  0  0  0  0  0  0  0  0  0  0
   56.3260   30.9640   44.8280 N   0  0  0  0  0  0  0  0  0  0  0  0
   57.2520   31.8560   45.2590 C   0  0  0  0  0  0  0  0  0  0  0  0
   57.1340   33.0670   44.9280 O   0  0  0  0  0  0  0  0  0  0  0  0
   58.2930   31.4430   46.0500 N   0  0  0  0  0  0  0  0  0  0  0  0
   59.2640   32.3970   46.5270 C   0  0  0  0  0  0  0  0  0  0  0  0
   58.8420   33.6160   47.0830 C   0  0  0  0  0  0  0  0  0  0  0  0
   57.7680   33.8436   47.1515 H   0  0  0  0  0  0  0  0  0  0  0  0
   59.7810   34.5420   47.5500 C   0  0  0  0  0  0  0  0  0  0  0  0
   59.4448   35.4956   47.9832 H   0  0  0  0  0  0  0  0  0  0  0  0
   61.1470   34.2550   47.4660 C   0  0  0  0  0  0  0  0  0  0  0  0
   61.8849   34.9827   47.8346 H   0  0  0  0  0  0  0  0  0  0  0  0
   61.5760   33.0440   46.9140 C   0  0  0  0  0  0  0  0  0  0  0  0
   62.6510   32.8203   46.8478 H   0  0  0  0  0  0  0  0  0  0  0  0
   60.6390   32.1170   46.4460 C   0  0  0  0  0  0  0  0  0  0  0  0
   60.9796   31.1650   46.0128 H   0  0  0  0  0  0  0  0  0  0  0  0
   58.4010   30.1230   46.4020 C   0  0  0  0  0  0  0  0  0  0  0  0
   59.4060   29.7230   47.0540 O   0  0  0  0  0  0  0  0  0  0  0  0
  1  2  1  0
  2  3  1  0
  3  4  2  0
  4  5  1  0
  4  6  1  0
  6  7  1  0
  6  8  2  0
  8  9  1  0
  8 10  1  0
 10 11  1  0
 10 12  2  0
 12 13  1  0
 13 14  1  0
 13 15  2  0
 15 16  1  0
 15 17  1  0
 17 18  2  0
 18 19  1  0
 18 20  1  0
 20 21  1  0
 21 22  2  0
 21 23  1  0
 23 24  1  0
 24 25  2  0
 25 26  1  0
 25 27  1  0
 27 28  1  0
 27 29  2  0
 29 30  1  0
 29 31  1  0
 31 32  1  0
 31 33  2  0
 33 34  1  0
 23 35  1  0
 35 36  2  0
 12  3  1  0
 35 17  1  0
 33 24  1  0
M  CHG  2  19  -1  20  -1
M  END
>  <UniqueID>  (64) 
63

>  <SMILES>  (64) 
O=c1[n-]c([O-])c(/C=C\c2cccc(Cl)c2O)c(=O)n1-c1ccccc1

>  <Energy>  (64) 
62.71874309556562

>  <Genealogy>  (64) 
O=c1[n-]c([O-])c(C=Cc2cccc(Cl)c2O)c(=O)n1-c1ccccc1 (protonated)
O=c1[n-]c([O-])c(/C=C\c2cccc(Cl)c2O)c(=O)n1-c1ccccc1 (cis-trans isomerization)
O=c1[n-]c([O-])c(/C=C\c2cccc(Cl)c2O)c(=O)n1-c1ccccc1 (3D coordinates assigned)
O=c1[n-]c([O-])c(/C=C\c2cccc(Cl)c2O)c(=O)n1-c1ccccc1 (optimized conformer: 62.71874309556562 kcal/mol)

>  <smiles>  (64) 
O=c1[nH]c(O)c(C=Cc2cccc(Cl)c2O)c(=O)n1-c1ccccc1

>  <score_type>  (64) 
oracle

>  <origin>  (64) 
adg

>  <m_score__min__energy>  (64) 
-13.220000000000001

>  <m_primary>  (64) 
energy

$$$$
64:0
     RDKit          3D

 26 27  0  0  0  0  0  0  0  0999 V2000
   57.0850   24.2280   48.2410 O   0  0  0  0  0  0  0  0  0  0  0  0
   57.4010   24.7060   47.1190 C   0  0  0  0  0  0  0  0  0  0  0  0
   58.1960   25.8980   47.0830 N   0  0  0  0  0  0  0  0  0  0  0  0
   57.9930   27.0280   46.2230 C   0  0  0  0  0  0  0  0  0  0  0  0
   59.0670   27.6800   45.5890 C   0  0  0  0  0  0  0  0  0  0  0  0
   58.8310   28.7680   44.7440 C   0  0  0  0  0  0  0  0  0  0  0  0
   57.5230   29.2030   44.5120 C   0  0  0  0  0  0  0  0  0  0  0  0
   56.4490   28.5450   45.1170 C   0  0  0  0  0  0  0  0  0  0  0  0
   55.1490   28.9710   44.8780 O   0  0  0  0  0  0  0  0  0  0  0  0
   56.6840   27.4560   45.9640 C   0  0  0  0  0  0  0  0  0  0  0  0
   57.0040   23.9900   45.8820 C   0  0  0  0  0  0  0  0  0  0  0  0
   57.9190   23.1390   45.2380 C   0  0  0  0  0  0  0  0  0  0  0  0
   57.5560   22.4540   44.0760 C   0  0  0  0  0  0  0  0  0  0  0  0
   56.2690   22.6030   43.5450 C   0  0  0  0  0  0  0  0  0  0  0  0
   55.8960   21.9240   42.3870 O   0  0  0  0  0  0  0  0  0  0  0  0
   55.3480   23.4370   44.1830 C   0  0  0  0  0  0  0  0  0  0  0  0
   55.7070   24.1300   45.3460 C   0  0  0  0  0  0  0  0  0  0  0  0
   54.7720   24.9660   45.9480 O   0  0  0  0  0  0  0  0  0  0  0  0
   60.0965   27.3319   45.7592 H   0  0  0  0  0  0  0  0  0  0  0  0
   59.6751   29.2823   44.2612 H   0  0  0  0  0  0  0  0  0  0  0  0
   57.3390   30.0640   43.8526 H   0  0  0  0  0  0  0  0  0  0  0  0
   55.8358   26.9327   46.4294 H   0  0  0  0  0  0  0  0  0  0  0  0
   58.9298   23.0114   45.6528 H   0  0  0  0  0  0  0  0  0  0  0  0
   58.2828   21.7961   43.5770 H   0  0  0  0  0  0  0  0  0  0  0  0
   56.2800   22.1690   41.4820 H   0  0  0  0  0  0  0  0  0  0  0  0
   54.3349   23.5502   43.7697 H   0  0  0  0  0  0  0  0  0  0  0  0
  1  2  2  0
  2  3  1  0
  3  4  1  0
  4  5  2  0
  5  6  1  0
  6  7  2  0
  7  8  1  0
  8  9  1  0
  8 10  2  0
  2 11  1  0
 11 12  2  0
 12 13  1  0
 13 14  2  0
 14 15  1  0
 14 16  1  0
 16 17  2  0
 17 18  1  0
 10  4  1  0
 17 11  1  0
  5 19  1  0
  6 20  1  0
  7 21  1  0
 10 22  1  0
 12 23  1  0
 13 24  1  0
 15 25  1  0
 16 26  1  0
M  CHG  3   3  -1   9  -1  18  -1
M  END
>  <UniqueID>  (65) 
64

>  <SMILES>  (65) 
O=C([N-]c1cccc([O-])c1)c1ccc(O)cc1[O-]

>  <Energy>  (65) 
34.74841938087606

>  <Genealogy>  (65) 
O=C([N-]c1cccc([O-])c1)c1ccc(O)cc1[O-] (protonated)
O=C([N-]c1cccc([O-])c1)c1ccc(O)cc1[O-] (3D coordinates assigned)
O=C([N-]c1cccc([O-])c1)c1ccc(O)cc1[O-] (optimized conformer: 34.74841938087606 kcal/mol)

>  <smiles>  (65) 
O=C(Nc1cccc(O)c1)c1ccc(O)cc1O

>  <score_type>  (65) 
oracle

>  <origin>  (65) 
adg

>  <m_score__min__energy>  (65) 
-13.380000000000001

>  <m_primary>  (65) 
energy

$$$$
65:0
     RDKit          3D

 51 53  0  0  0  0  0  0  0  0999 V2000
   61.0150   27.6430   50.5220 C   0  0  0  0  0  0  0  0  0  0  0  0
   60.7530   26.7400   49.3220 C   0  0  0  0  0  0  0  0  0  0  0  0
   59.5730   27.1510   48.6360 O   0  0  0  0  0  0  0  0  0  0  0  0
   59.4180   27.0540   47.2480 C   0  0  0  0  0  0  0  0  0  0  0  0
   60.0910   26.2180   46.5850 O   0  0  0  0  0  0  0  0  0  0  0  0
   58.4950   27.9740   46.5460 C   0  0  0  0  0  0  0  0  0  0  0  0
   57.3820   27.4460   45.8530 C   0  0  0  0  0  0  0  0  0  0  0  0
   57.1340   25.9890   45.7510 C   0  0  0  0  0  0  0  0  0  0  0  0
   56.7270   25.2840   46.8970 C   0  0  0  0  0  0  0  0  0  0  0  0
   56.5200   23.9040   46.8440 C   0  0  0  0  0  0  0  0  0  0  0  0
   56.7290   23.2120   45.6510 C   0  0  0  0  0  0  0  0  0  0  0  0
   57.1380   23.8990   44.5040 C   0  0  0  0  0  0  0  0  0  0  0  0
   57.3320   25.2900   44.5340 C   0  0  0  0  0  0  0  0  0  0  0  0
   57.7730   26.0000   43.2810 C   0  0  0  0  0  0  0  0  0  0  0  0
   56.5300   28.2820   45.2110 N   0  0  0  0  0  0  0  0  0  0  0  0
   56.6880   29.6270   45.1910 C   0  0  0  0  0  0  0  0  0  0  0  0
   55.8480   30.3180   44.5560 O   0  0  0  0  0  0  0  0  0  0  0  0
   57.7790   30.2240   45.8630 C   0  0  0  0  0  0  0  0  0  0  0  0
   57.9730   31.6290   45.8820 C   0  0  0  0  0  0  0  0  0  0  0  0
   57.0300   32.4770   45.2960 O   0  0  0  0  0  0  0  0  0  0  0  0
   56.9540   33.8520   45.6580 C   0  0  0  0  0  0  0  0  0  0  0  0
   59.1010   32.1810   46.5270 C   0  0  0  0  0  0  0  0  0  0  0  0
   59.3990   33.5540   46.4860 O   0  0  0  0  0  0  0  0  0  0  0  0
   60.6510   34.0980   46.0690 C   0  0  0  0  0  0  0  0  0  0  0  0
   59.9680   31.3550   47.2470 C   0  0  0  0  0  0  0  0  0  0  0  0
   61.0450   31.9550   47.9210 O   0  0  0  0  0  0  0  0  0  0  0  0
   62.4100   31.5750   47.7720 C   0  0  0  0  0  0  0  0  0  0  0  0
   59.7550   29.9690   47.2680 C   0  0  0  0  0  0  0  0  0  0  0  0
   58.6910   29.3820   46.5540 C   0  0  0  0  0  0  0  0  0  0  0  0
   60.8505   27.0762   51.4503 H   0  0  0  0  0  0  0  0  0  0  0  0
   62.0543   28.0019   50.4908 H   0  0  0  0  0  0  0  0  0  0  0  0
   60.3292   28.5025   50.4908 H   0  0  0  0  0  0  0  0  0  0  0  0
   61.6094   26.7949   48.6339 H   0  0  0  0  0  0  0  0  0  0  0  0
   60.6170   25.7077   49.6766 H   0  0  0  0  0  0  0  0  0  0  0  0
   56.5704   25.8235   47.8427 H   0  0  0  0  0  0  0  0  0  0  0  0
   56.1920   23.3624   47.7435 H   0  0  0  0  0  0  0  0  0  0  0  0
   56.5718   22.1240   45.6126 H   0  0  0  0  0  0  0  0  0  0  0  0
   57.3095   23.3450   43.5693 H   0  0  0  0  0  0  0  0  0  0  0  0
   58.3356   26.9057   43.5515 H   0  0  0  0  0  0  0  0  0  0  0  0
   58.4157   25.3325   42.6882 H   0  0  0  0  0  0  0  0  0  0  0  0
   56.8898   26.2803   42.6882 H   0  0  0  0  0  0  0  0  0  0  0  0
   56.9490   33.9428   46.7542 H   0  0  0  0  0  0  0  0  0  0  0  0
   57.8239   34.3873   45.2497 H   0  0  0  0  0  0  0  0  0  0  0  0
   56.0304   34.2881   45.2497 H   0  0  0  0  0  0  0  0  0  0  0  0
   61.2505   34.3585   46.9537 H   0  0  0  0  0  0  0  0  0  0  0  0
   61.1916   33.3536   45.4660 H   0  0  0  0  0  0  0  0  0  0  0  0
   60.4758   35.0011   45.4660 H   0  0  0  0  0  0  0  0  0  0  0  0
   62.8658   31.4481   48.7651 H   0  0  0  0  0  0  0  0  0  0  0  0
   62.4682   30.6265   47.2179 H   0  0  0  0  0  0  0  0  0  0  0  0
   62.9499   32.3570   47.2179 H   0  0  0  0  0  0  0  0  0  0  0  0
   60.4311   29.3279   47.8527 H   0  0  0  0  0  0  0  0  0  0  0  0
  1  2  1  0
  2  3  1  0
  3  4  1  0
  4  5  2  0
  4  6  1  0
  6  7  2  0
  7  8  1  0
  8  9  2  0
  9 10  1  0
 10 11  2  0
 11 12  1  0
 12 13  2  0
 13 14  1  0
  7 15  1  0
 15 16  1  0
 16 17  2  0
 16 18  1  0
 18 19  2  0
 19 20  1  0
 20 21  1  0
 19 22  1  0
 22 23  1  0
 23 24  1  0
 22 25  2  0
 25 26  1  0
 26 27  1  0
 25 28  1  0
 28 29  2  0
 29  6  1  0
 13  8  1  0
 29 18  1  0
  1 30  1  0
  1 31  1  0
  1 32  1  0
  2 33  1  0
  2 34  1  0
  9 35  1  0
 10 36  1  0
 11 37  1  0
 12 38  1  0
 14 39  1  0
 14 40  1  0
 14 41  1  0
 21 42  1  0
 21 43  1  0
 21 44  1  0
 24 45  1  0
 24 46  1  0
 24 47  1  0
 27 48  1  0
 27 49  1  0
 27 50  1  0
 28 51  1  0
M  CHG  1  15  -1
M  END
>  <UniqueID>  (66) 
65

>  <SMILES>  (66) 
CCOC(=O)c1c(-c2ccccc2C)[n-]c(=O)c2c(OC)c(OC)c(OC)cc12

>  <Energy>  (66) 
80.62119988643914

>  <Genealogy>  (66) 
CCOC(=O)c1c(-c2ccccc2C)[n-]c(=O)c2c(OC)c(OC)c(OC)cc12 (protonated)
CCOC(=O)c1c(-c2ccccc2C)[n-]c(=O)c2c(OC)c(OC)c(OC)cc12 (3D coordinates assigned)
CCOC(=O)c1c(-c2ccccc2C)[n-]c(=O)c2c(OC)c(OC)c(OC)cc12 (optimized conformer: 80.62119988643914 kcal/mol)

>  <smiles>  (66) 
CCOC(=O)c1c(-c2ccccc2C)[nH]c(=O)c2c(OC)c(OC)c(OC)cc12

>  <score_type>  (66) 
oracle

>  <origin>  (66) 
adg

>  <m_score__min__energy>  (66) 
-8.8499999999999996

>  <m_primary>  (66) 
energy

$$$$
66:0
     RDKit          3D

 29 30  0  0  0  0  0  0  0  0999 V2000
   60.0310   29.9240   45.9970 C   0  0  0  0  0  0  0  0  0  0  0  0
   59.3850   29.4150   44.7260 C   0  0  0  0  0  0  0  0  0  0  0  0
   57.9420   29.3390   44.8240 N   0  0  0  0  0  0  0  0  0  0  0  0
   57.0750   30.2790   44.4090 C   0  0  0  0  0  0  0  0  0  0  0  0
   57.3090   31.5890   43.7750 C   0  0  0  0  0  0  0  0  0  0  0  0
   57.8550   32.6200   44.6650 C   0  0  0  0  0  0  0  0  0  0  0  0
   57.5750   32.7280   46.0100 C   0  0  0  0  0  0  0  0  0  0  0  0
   58.0970   33.6980   46.8270 C   0  0  0  0  0  0  0  0  0  0  0  0
   58.9600   34.6350   46.2930 C   0  0  0  0  0  0  0  0  0  0  0  0
   59.4910   35.6120   47.1010 O   0  0  0  0  0  0  0  0  0  0  0  0
   59.2580   34.5500   44.9490 C   0  0  0  0  0  0  0  0  0  0  0  0
   58.7200   33.5610   44.1350 C   0  0  0  0  0  0  0  0  0  0  0  0
   55.8170   29.8250   44.6800 N   0  0  0  0  0  0  0  0  0  0  0  0
   55.9680   28.6370   45.2420 N   0  0  0  0  0  0  0  0  0  0  0  0
   57.2680   28.3110   45.3430 C   0  0  0  0  0  0  0  0  0  0  0  0
   57.9240   26.9380   45.9750 S   0  0  0  0  0  0  0  0  0  0  0  0
   59.5035   29.5084   46.8682 H   0  0  0  0  0  0  0  0  0  0  0  0
   61.0853   29.6112   46.0231 H   0  0  0  0  0  0  0  0  0  0  0  0
   59.9736   31.0222   46.0231 H   0  0  0  0  0  0  0  0  0  0  0  0
   59.6464   30.0949   43.9017 H   0  0  0  0  0  0  0  0  0  0  0  0
   59.7600   28.3964   44.5477 H   0  0  0  0  0  0  0  0  0  0  0  0
   58.0166   31.4450   42.9452 H   0  0  0  0  0  0  0  0  0  0  0  0
   56.3234   31.9538   43.4502 H   0  0  0  0  0  0  0  0  0  0  0  0
   56.8908   31.9909   46.4557 H   0  0  0  0  0  0  0  0  0  0  0  0
   57.8318   33.7294   47.8941 H   0  0  0  0  0  0  0  0  0  0  0  0
   58.8900   36.3240   47.5210 H   0  0  0  0  0  0  0  0  0  0  0  0
   59.9433   35.2886   44.5077 H   0  0  0  0  0  0  0  0  0  0  0  0
   58.9822   33.5260   43.0673 H   0  0  0  0  0  0  0  0  0  0  0  0
   55.1480   28.0420   45.5610 H   0  0  0  0  0  0  0  0  0  0  0  0
  1  2  1  0
  2  3  1  0
  3  4  1  0
  4  5  1  0
  5  6  1  0
  6  7  2  0
  7  8  1  0
  8  9  2  0
  9 10  1  0
  9 11  1  0
 11 12  2  0
  4 13  2  0
 13 14  1  0
 14 15  1  0
 15 16  2  0
 15  3  1  0
 12  6  1  0
  1 17  1  0
  1 18  1  0
  1 19  1  0
  2 20  1  0
  2 21  1  0
  5 22  1  0
  5 23  1  0
  7 24  1  0
  8 25  1  0
 10 26  1  0
 11 27  1  0
 12 28  1  0
 14 29  1  0
M  END
>  <smiles>  (67) 
CCn1c(Cc2ccc(O)cc2)n[nH]c1=S

>  <score_type>  (67) 
oracle

>  <origin>  (67) 
adg

>  <m_score__min__energy>  (67) 
-6.7800000000000002

>  <m_primary>  (67) 
energy

$$$$
67:0
     RDKit          3D

 67 71  0  0  1  0  0  0  0  0999 V2000
   63.5210   30.6100   53.1380 C   0  0  0  0  0  0  0  0  0  0  0  0
   62.7040   29.7910   52.1810 C   0  0  0  0  0  0  0  0  0  0  0  0
   62.6270   28.4220   52.3150 C   0  0  0  0  0  0  0  0  0  0  0  0
   61.8570   27.7350   51.4010 C   0  0  0  0  0  0  0  0  0  0  0  0
   61.1700   28.3440   50.3730 C   0  0  0  0  0  0  0  0  0  0  0  0
   60.3550   27.6180   49.4080 C   0  0  0  0  0  0  0  0  0  0  0  0
   60.3920   26.3460   49.3180 O   0  0  0  0  0  0  0  0  0  0  0  0
   59.4720   28.2720   48.5100 N   0  0  0  0  0  0  0  0  0  0  0  0
   58.6710   27.5610   47.5640 C   0  0  0  0  0  0  0  0  0  0  0  0
   58.7050   26.1850   47.4490 C   0  0  0  0  0  0  0  0  0  0  0  0
   57.8960   25.5900   46.5030 C   0  0  0  0  0  0  0  0  0  0  0  0
   57.0710   26.3500   45.6890 C   0  0  0  0  0  0  0  0  0  0  0  0
   57.0230   27.7200   45.7880 C   0  0  0  0  0  0  0  0  0  0  0  0
   56.1670   28.4740   44.9390 N   0  0  0  0  0  0  0  0  0  0  0  0
   56.7360   29.8310   44.0540 S   0  0  0  0  0  0  0  0  0  0  0  0
   56.2410   29.7780   42.3520 C   0  0  0  0  0  0  0  0  0  0  0  0
   58.2510   29.8330   44.1330 O   0  0  0  0  0  0  0  0  0  0  0  0
   56.2830   31.1270   44.6640 O   0  0  0  0  0  0  0  0  0  0  0  0
   57.8410   28.3080   46.7430 C   0  0  0  0  0  0  0  0  0  0  0  0
   57.8050   29.6900   46.8560 O   0  0  0  0  0  0  0  0  0  0  0  0
   61.2490   29.7260   50.2370 C   0  0  0  0  0  0  0  0  0  0  0  0
   62.0230   30.4480   51.1530 C   0  0  0  0  0  0  0  0  0  0  0  0
   62.0840   31.8560   50.9830 N   0  0  0  0  0  0  0  0  0  0  0  0
   62.7290   32.3210   49.9730 C   0  0  0  0  0  0  0  0  0  0  0  0
   64.0690   32.2310   50.0120 N   0  0  0  0  0  0  0  0  0  0  0  0
   64.8620   32.6840   49.0070 C   0  0  0  0  0  0  0  0  0  0  0  0
   64.2980   33.2470   47.9230 N   0  0  0  0  0  0  0  0  0  0  0  0
   62.9690   33.3450   47.8680 C   0  0  0  0  0  0  0  0  0  0  0  0
   62.4130   33.9240   46.7530 C   0  0  0  0  0  0  0  0  0  0  0  0
   61.0710   34.0180   46.7070 N   0  0  0  0  0  0  0  0  0  0  0  0
   60.2650   33.5670   47.7110 C   0  0  0  0  0  0  0  0  0  0  0  0
   58.8110   33.7470   47.5050 C   0  0  1  0  0  0  0  0  0  0  0  0
   58.5530   34.8420   46.4930 C   0  0  0  0  0  0  0  0  0  0  0  0
   58.9910   34.4750   45.1140 C   0  0  0  0  0  0  0  0  0  0  0  0
   58.6090   33.0830   44.6860 C   0  0  0  0  0  0  0  0  0  0  0  0
   58.8180   32.0940   45.7220 N   0  0  0  0  0  0  0  0  0  0  0  0
   58.1570   32.4910   46.9690 C   0  0  0  0  0  0  0  0  0  0  0  0
   60.7930   32.9930   48.8160 N   0  0  0  0  0  0  0  0  0  0  0  0
   62.1340   32.8950   48.8710 C   0  0  0  0  0  0  0  0  0  0  0  0
   63.2537   30.3420   54.1708 H   0  0  0  0  0  0  0  0  0  0  0  0
   64.5898   30.4097   52.9722 H   0  0  0  0  0  0  0  0  0  0  0  0
   63.3181   31.6783   52.9722 H   0  0  0  0  0  0  0  0  0  0  0  0
   63.1600   27.8968   53.1212 H   0  0  0  0  0  0  0  0  0  0  0  0
   61.7871   26.6415   51.4973 H   0  0  0  0  0  0  0  0  0  0  0  0
   59.3730   29.3080   48.5090 H   0  0  0  0  0  0  0  0  0  0  0  0
   59.3592   25.5801   48.0940 H   0  0  0  0  0  0  0  0  0  0  0  0
   57.9059   24.4955   46.3931 H   0  0  0  0  0  0  0  0  0  0  0  0
   56.4386   25.8439   44.9448 H   0  0  0  0  0  0  0  0  0  0  0  0
   55.1600   28.1500   44.8840 H   0  0  0  0  0  0  0  0  0  0  0  0
   55.1489   29.6611   42.2912 H   0  0  0  0  0  0  0  0  0  0  0  0
   56.5379   30.7131   41.8545 H   0  0  0  0  0  0  0  0  0  0  0  0
   56.7291   28.9270   41.8545 H   0  0  0  0  0  0  0  0  0  0  0  0
   57.7030   30.2470   46.0400 H   0  0  0  0  0  0  0  0  0  0  0  0
   60.7139   30.2413   49.4258 H   0  0  0  0  0  0  0  0  0  0  0  0
   64.5600   31.8070   50.8180 H   0  0  0  0  0  0  0  0  0  0  0  0
   65.9558   32.5915   49.0786 H   0  0  0  0  0  0  0  0  0  0  0  0
   63.0403   34.2964   45.9297 H   0  0  0  0  0  0  0  0  0  0  0  0
   58.3878   34.0002   48.4882 H   0  0  0  0  0  0  0  0  0  0  0  0
   57.4739   35.0544   46.4734 H   0  0  0  0  0  0  0  0  0  0  0  0
   59.1382   35.7207   46.8018 H   0  0  0  0  0  0  0  0  0  0  0  0
   58.5380   35.1875   44.4089 H   0  0  0  0  0  0  0  0  0  0  0  0
   60.0904   34.5105   45.1157 H   0  0  0  0  0  0  0  0  0  0  0  0
   57.5442   33.0813   44.4098 H   0  0  0  0  0  0  0  0  0  0  0  0
   59.2545   32.8115   43.8377 H   0  0  0  0  0  0  0  0  0  0  0  0
   58.3460   31.2160   45.4050 H   0  0  0  0  0  0  0  0  0  0  0  0
   57.0920   32.6858   46.7743 H   0  0  0  0  0  0  0  0  0  0  0  0
   58.2508   31.6825   47.7090 H   0  0  0  0  0  0  0  0  0  0  0  0
  1  2  1  0
  2  3  2  0
  3  4  1  0
  4  5  2  0
  5  6  1  0
  6  7  2  0
  6  8  1  0
  8  9  1  0
  9 10  2  0
 10 11  1  0
 11 12  2  0
 12 13  1  0
 13 14  1  0
 14 15  1  0
 15 16  1  0
 15 17  2  0
 15 18  2  0
 13 19  2  0
 19 20  1  0
  5 21  1  0
 21 22  2  0
 22 23  1  0
 23 24  2  0
 24 25  1  0
 25 26  1  0
 26 27  2  0
 27 28  1  0
 28 29  2  0
 29 30  1  0
 30 31  2  0
 31 32  1  0
 32 33  1  0
 33 34  1  0
 34 35  1  0
 35 36  1  0
 36 37  1  0
 31 38  1  0
 38 39  2  0
 22  2  1  0
 39 24  1  0
 19  9  1  0
 39 28  1  0
 37 32  1  0
  1 40  1  0
  1 41  1  0
  1 42  1  0
  3 43  1  0
  4 44  1  0
  8 45  1  0
 10 46  1  0
 11 47  1  0
 12 48  1  0
 14 49  1  0
 16 50  1  0
 16 51  1  0
 16 52  1  0
 20 53  1  0
 21 54  1  0
 25 55  1  0
 26 56  1  0
 29 57  1  0
 32 58  1  1
 33 59  1  0
 33 60  1  0
 34 61  1  0
 34 62  1  0
 35 63  1  0
 35 64  1  0
 36 65  1  0
 37 66  1  0
 37 67  1  0
M  END
>  <smiles>  (68) 
Cc1ccc(C(=O)Nc2cccc(NS(C)(=O)=O)c2O)cc1N=c1[nH]cnc2cnc(C3CCCNC3)nc12

>  <score_type>  (68) 
oracle

>  <origin>  (68) 
adg

>  <m_score__min__energy>  (68) 
-10.539999999999999

>  <m_primary>  (68) 
energy

$$$$
68:0
     RDKit          3D

 60 63  0  0  0  0  0  0  0  0999 V2000
   62.1090   29.6630   50.9330 O   0  0  0  0  0  0  0  0  0  0  0  0
   62.2050   30.9160   51.0170 C   0  0  0  0  0  0  0  0  0  0  0  0
   62.2200   31.5280   52.3140 N   0  0  0  0  0  0  0  0  0  0  0  0
   61.1520   32.3560   52.8740 C   0  0  0  0  0  0  0  0  0  0  0  0
   59.7900   31.8200   52.4970 C   0  0  0  0  0  0  0  0  0  0  0  0
   59.2940   30.6660   53.1360 C   0  0  0  0  0  0  0  0  0  0  0  0
   58.0480   30.1410   52.7870 C   0  0  0  0  0  0  0  0  0  0  0  0
   57.2940   30.7440   51.7780 C   0  0  0  0  0  0  0  0  0  0  0  0
   57.7630   31.8980   51.1470 C   0  0  0  0  0  0  0  0  0  0  0  0
   59.0050   32.4420   51.4990 C   0  0  0  0  0  0  0  0  0  0  0  0
   59.5530   33.8870   50.6570 Cl  0  0  0  0  0  0  0  0  0  0  0  0
   62.2600   31.7180   49.7810 C   0  0  0  0  0  0  0  0  0  0  0  0
   62.7100   33.0450   49.8390 C   0  0  0  0  0  0  0  0  0  0  0  0
   62.7060   33.8410   48.6920 C   0  0  0  0  0  0  0  0  0  0  0  0
   62.2530   33.3210   47.4780 C   0  0  0  0  0  0  0  0  0  0  0  0
   62.2410   34.1310   46.3470 O   0  0  0  0  0  0  0  0  0  0  0  0
   61.8220   31.9900   47.4070 C   0  0  0  0  0  0  0  0  0  0  0  0
   61.8410   31.1700   48.5520 C   0  0  0  0  0  0  0  0  0  0  0  0
   61.4250   29.7950   48.5040 N   0  0  0  0  0  0  0  0  0  0  0  0
   59.7920   29.2130   48.5740 S   0  0  0  0  0  0  0  0  0  0  0  0
   58.9050   30.3070   49.0930 O   0  0  0  0  0  0  0  0  0  0  0  0
   59.7010   28.0520   49.5230 O   0  0  0  0  0  0  0  0  0  0  0  0
   59.2550   28.7530   46.9620 C   0  0  0  0  0  0  0  0  0  0  0  0
   59.8810   27.6870   46.2990 C   0  0  0  0  0  0  0  0  0  0  0  0
   59.4550   27.3070   45.0230 C   0  0  0  0  0  0  0  0  0  0  0  0
   58.3880   27.9720   44.4140 C   0  0  0  0  0  0  0  0  0  0  0  0
   57.7540   29.0370   45.0700 C   0  0  0  0  0  0  0  0  0  0  0  0
   56.3810   29.8400   44.3160 S   0  0  0  0  0  0  0  0  0  0  0  0
   56.3400   29.4920   42.8540 O   0  0  0  0  0  0  0  0  0  0  0  0
   55.1200   29.3690   44.9860 O   0  0  0  0  0  0  0  0  0  0  0  0
   56.5510   31.5650   44.4870 N   0  0  0  0  0  0  0  0  0  0  0  0
   57.9360   31.9810   44.2610 C   0  0  0  0  0  0  0  0  0  0  0  0
   58.3740   32.9750   45.3030 C   0  0  0  0  0  0  0  0  0  0  0  0
   58.9510   34.1970   44.9150 C   0  0  0  0  0  0  0  0  0  0  0  0
   59.3450   35.1280   45.8810 C   0  0  0  0  0  0  0  0  0  0  0  0
   59.1690   34.8480   47.2390 C   0  0  0  0  0  0  0  0  0  0  0  0
   58.5910   33.6380   47.6320 C   0  0  0  0  0  0  0  0  0  0  0  0
   58.1920   32.7050   46.6710 C   0  0  0  0  0  0  0  0  0  0  0  0
   58.1930   29.4290   46.3430 C   0  0  0  0  0  0  0  0  0  0  0  0
   61.2429   32.3657   53.9702 H   0  0  0  0  0  0  0  0  0  0  0  0
   61.2506   33.3734   52.4675 H   0  0  0  0  0  0  0  0  0  0  0  0
   59.8935   30.1746   53.9164 H   0  0  0  0  0  0  0  0  0  0  0  0
   57.6604   29.2525   53.3069 H   0  0  0  0  0  0  0  0  0  0  0  0
   56.3287   30.3090   51.4797 H   0  0  0  0  0  0  0  0  0  0  0  0
   57.1540   32.3824   50.3695 H   0  0  0  0  0  0  0  0  0  0  0  0
   63.0678   33.4606   50.7926 H   0  0  0  0  0  0  0  0  0  0  0  0
   63.0608   34.8809   48.7449 H   0  0  0  0  0  0  0  0  0  0  0  0
   61.6990   33.8830   45.5280 H   0  0  0  0  0  0  0  0  0  0  0  0
   61.4659   31.5821   46.4495 H   0  0  0  0  0  0  0  0  0  0  0  0
   60.7088   27.1490   46.7842 H   0  0  0  0  0  0  0  0  0  0  0  0
   59.9606   26.4833   44.4978 H   0  0  0  0  0  0  0  0  0  0  0  0
   58.0442   27.6593   43.4170 H   0  0  0  0  0  0  0  0  0  0  0  0
   58.5898   31.0977   44.3083 H   0  0  0  0  0  0  0  0  0  0  0  0
   58.0037   32.4560   43.2711 H   0  0  0  0  0  0  0  0  0  0  0  0
   59.0930   34.4215   43.8476 H   0  0  0  0  0  0  0  0  0  0  0  0
   59.7945   36.0830   45.5714 H   0  0  0  0  0  0  0  0  0  0  0  0
   59.4851   35.5793   47.9975 H   0  0  0  0  0  0  0  0  0  0  0  0
   58.4497   33.4192   48.7007 H   0  0  0  0  0  0  0  0  0  0  0  0
   57.7338   31.7558   46.9859 H   0  0  0  0  0  0  0  0  0  0  0  0
   57.7032   30.2689   46.8575 H   0  0  0  0  0  0  0  0  0  0  0  0
  1  2  2  0
  2  3  1  0
  3  4  1  0
  4  5  1  0
  5  6  2  0
  6  7  1  0
  7  8  2  0
  8  9  1  0
  9 10  2  0
 10 11  1  0
  2 12  1  0
 12 13  2  0
 13 14  1  0
 14 15  2  0
 15 16  1  0
 15 17  1  0
 17 18  2  0
 18 19  1  0
 19 20  1  0
 20 21  2  0
 20 22  2  0
 20 23  1  0
 23 24  2  0
 24 25  1  0
 25 26  2  0
 26 27  1  0
 27 28  1  0
 28 29  2  0
 28 30  2  0
 28 31  1  0
 31 32  1  0
 32 33  1  0
 33 34  2  0
 34 35  1  0
 35 36  2  0
 36 37  1  0
 37 38  2  0
 27 39  2  0
 10  5  1  0
 18 12  1  0
 39 23  1  0
 38 33  1  0
  4 40  1  0
  4 41  1  0
  6 42  1  0
  7 43  1  0
  8 44  1  0
  9 45  1  0
 13 46  1  0
 14 47  1  0
 16 48  1  0
 17 49  1  0
 24 50  1  0
 25 51  1  0
 26 52  1  0
 32 53  1  0
 32 54  1  0
 34 55  1  0
 35 56  1  0
 36 57  1  0
 37 58  1  0
 38 59  1  0
 39 60  1  0
M  CHG  3   3  -1  19  -1  31  -1
M  END
>  <UniqueID>  (69) 
66

>  <SMILES>  (69) 
O=C([N-]Cc1ccccc1Cl)c1ccc(O)cc1[N-]S(=O)(=O)c1cccc(S(=O)(=O)[N-]Cc2ccccc2)c1

>  <Energy>  (69) 
66.68416404378902

>  <Genealogy>  (69) 
O=C([N-]Cc1ccccc1Cl)c1ccc(O)cc1[N-]S(=O)(=O)c1cccc(S(=O)(=O)[N-]Cc2ccccc2)c1 (protonated)
O=C([N-]Cc1ccccc1Cl)c1ccc(O)cc1[N-]S(=O)(=O)c1cccc(S(=O)(=O)[N-]Cc2ccccc2)c1 (3D coordinates assigned)
O=C([N-]Cc1ccccc1Cl)c1ccc(O)cc1[N-]S(=O)(=O)c1cccc(S(=O)(=O)[N-]Cc2ccccc2)c1 (optimized conformer: 66.68416404378902 kcal/mol)

>  <smiles>  (69) 
O=C(NCc1ccccc1Cl)c1ccc(O)cc1NS(=O)(=O)c1cccc(S(=O)(=O)NCc2ccccc2)c1

>  <score_type>  (69) 
oracle

>  <origin>  (69) 
adg

>  <m_score__min__energy>  (69) 
-14.390000000000001

>  <m_primary>  (69) 
energy

$$$$
69:0
     RDKit          3D

 40 42  0  0  0  0  0  0  0  0999 V2000
   59.6119   26.1942   46.5374 H   0  0  0  0  0  0  0  0  0  0  0  0
   58.5210   26.2170   46.3980 C   0  0  0  0  0  0  0  0  0  0  0  0
   57.9220   27.3350   45.9110 N   0  0  0  0  0  0  0  0  0  0  0  0
   56.5770   27.4220   45.7160 C   0  0  0  0  0  0  0  0  0  0  0  0
   56.1050   28.5380   45.2330 N   0  0  0  0  0  0  0  0  0  0  0  0
   56.8040   29.5390   44.4790 C   0  0  0  0  0  0  0  0  0  0  0  0
   56.5710   29.6390   43.2450 O   0  0  0  0  0  0  0  0  0  0  0  0
   57.7250   30.5000   45.1380 C   0  0  0  0  0  0  0  0  0  0  0  0
   57.3770   31.8550   45.2760 C   0  0  0  0  0  0  0  0  0  0  0  0
   56.4141   32.2136   44.8832 H   0  0  0  0  0  0  0  0  0  0  0  0
   58.2440   32.7500   45.9080 C   0  0  0  0  0  0  0  0  0  0  0  0
   57.9578   33.8067   46.0146 H   0  0  0  0  0  0  0  0  0  0  0  0
   59.4750   32.3080   46.4060 C   0  0  0  0  0  0  0  0  0  0  0  0
   60.5450   33.4460   47.2230 S   0  0  0  0  0  0  0  0  0  0  0  0
   60.1960   33.4610   48.6850 O   0  0  0  0  0  0  0  0  0  0  0  0
   60.3460   34.8290   46.6670 O   0  0  0  0  0  0  0  0  0  0  0  0
   62.2090   32.9460   47.0160 N   0  0  0  0  0  0  0  0  0  0  0  0
   62.3910   32.8170   45.9920 H   0  0  0  0  0  0  0  0  0  0  0  0
   63.1360   33.9370   47.5740 C   0  0  0  0  0  0  0  0  0  0  0  0
   64.0606   33.9622   46.9787 H   0  0  0  0  0  0  0  0  0  0  0  0
   62.6855   34.9403   47.5546 H   0  0  0  0  0  0  0  0  0  0  0  0
   63.4510   33.5210   49.0040 C   0  0  0  0  0  0  0  0  0  0  0  0
   64.5277   33.6226   49.2048 H   0  0  0  0  0  0  0  0  0  0  0  0
   62.9256   34.1522   49.7358 H   0  0  0  0  0  0  0  0  0  0  0  0
   63.0270   32.0660   49.1110 C   0  0  0  0  0  0  0  0  0  0  0  0
   63.8901   31.4321   49.3623 H   0  0  0  0  0  0  0  0  0  0  0  0
   62.2776   31.9177   49.9024 H   0  0  0  0  0  0  0  0  0  0  0  0
   62.4780   31.6970   47.7390 C   0  0  0  0  0  0  0  0  0  0  0  0
   63.2175   31.0971   47.1884 H   0  0  0  0  0  0  0  0  0  0  0  0
   61.5573   31.1034   47.8390 H   0  0  0  0  0  0  0  0  0  0  0  0
   59.8320   30.9600   46.2680 C   0  0  0  0  0  0  0  0  0  0  0  0
   60.7977   30.6063   46.6584 H   0  0  0  0  0  0  0  0  0  0  0  0
   58.9670   30.0640   45.6370 C   0  0  0  0  0  0  0  0  0  0  0  0
   59.2583   29.0088   45.5289 H   0  0  0  0  0  0  0  0  0  0  0  0
   55.7650   26.3110   46.0660 C   0  0  0  0  0  0  0  0  0  0  0  0
   54.3780   26.3420   45.9700 O   0  0  0  0  0  0  0  0  0  0  0  0
   56.3720   25.1520   46.5550 C   0  0  0  0  0  0  0  0  0  0  0  0
   55.7559   24.2772   46.8102 H   0  0  0  0  0  0  0  0  0  0  0  0
   57.7540   25.0990   46.7210 C   0  0  0  0  0  0  0  0  0  0  0  0
   58.2342   24.1858   47.1024 H   0  0  0  0  0  0  0  0  0  0  0  0
  1  2  1  0
  2  3  1  0
  3  4  1  0
  4  5  2  0
  5  6  1  0
  6  7  2  0
  6  8  1  0
  8  9  2  0
  9 10  1  0
  9 11  1  0
 11 12  1  0
 11 13  2  0
 13 14  1  0
 14 15  2  0
 14 16  2  0
 14 17  1  0
 17 18  1  0
 17 19  1  0
 19 20  1  0
 19 21  1  0
 19 22  1  0
 22 23  1  0
 22 24  1  0
 22 25  1  0
 25 26  1  0
 25 27  1  0
 25 28  1  0
 28 29  1  0
 28 30  1  0
 13 31  1  0
 31 32  1  0
 31 33  2  0
 33 34  1  0
  4 35  1  0
 35 36  1  0
 35 37  2  0
 37 38  1  0
 37 39  1  0
 39 40  1  0
 39  2  2  0
 33  8  1  0
 28 17  1  0
M  CHG  3   3  -1  17   1  36  -1
M  END
>  <UniqueID>  (70) 
67

>  <SMILES>  (70) 
O=C(/N=c1/[n-]cccc1[O-])c1ccc(S(=O)(=O)[NH+]2CCCC2)cc1

>  <Energy>  (70) 
57.28002859500277

>  <Genealogy>  (70) 
O=C(N=c1[n-]cccc1[O-])c1ccc(S(=O)(=O)[NH+]2CCCC2)cc1 (protonated)
O=C(/N=c1/[n-]cccc1[O-])c1ccc(S(=O)(=O)[NH+]2CCCC2)cc1 (cis-trans isomerization)
O=C(/N=c1/[n-]cccc1[O-])c1ccc(S(=O)(=O)[NH+]2CCCC2)cc1 (3D coordinates assigned)
O=C(/N=c1/[n-]cccc1[O-])c1ccc(S(=O)(=O)[NH+]2CCCC2)cc1 (nonaromatic ring conformer: 57.28002859500277 kcal/mol)

>  <smiles>  (70) 
O=C(N=c1[nH]cccc1O)c1ccc(S(=O)(=O)N2CCCC2)cc1

>  <score_type>  (70) 
oracle

>  <origin>  (70) 
adg

>  <m_score__min__energy>  (70) 
-12.460000000000001

>  <m_primary>  (70) 
energy

$$$$
70:0
     RDKit          3D

 61 64  0  0  0  0  0  0  0  0999 V2000
   54.1908   20.0716   46.0363 H   0  0  0  0  0  0  0  0  0  0  0  0
   54.3050   21.1650   45.9990 C   0  0  0  0  0  0  0  0  0  0  0  0
   53.2460   21.9920   46.3880 C   0  0  0  0  0  0  0  0  0  0  0  0
   52.2939   21.5493   46.7158 H   0  0  0  0  0  0  0  0  0  0  0  0
   53.3980   23.3800   46.3600 C   0  0  0  0  0  0  0  0  0  0  0  0
   52.5587   24.0281   46.6525 H   0  0  0  0  0  0  0  0  0  0  0  0
   54.6210   23.9550   45.9590 C   0  0  0  0  0  0  0  0  0  0  0  0
   54.8170   25.3810   45.9010 N   0  0  0  0  0  0  0  0  0  0  0  0
   55.9290   26.0270   46.0870 C   0  0  0  0  0  0  0  0  0  0  0  0
   56.9200   25.4430   46.8080 N   0  0  0  0  0  0  0  0  0  0  0  0
   58.0840   26.0930   47.0580 C   0  0  0  0  0  0  0  0  0  0  0  0
   58.8743   25.6005   47.6436 H   0  0  0  0  0  0  0  0  0  0  0  0
   58.2800   27.3950   46.5690 C   0  0  0  0  0  0  0  0  0  0  0  0
   59.4640   28.1120   46.7770 C   0  0  0  0  0  0  0  0  0  0  0  0
   60.3990   27.5900   47.4460 O   0  0  0  0  0  0  0  0  0  0  0  0
   59.6090   29.3670   46.2490 N   0  0  0  0  0  0  0  0  0  0  0  0
   60.8960   30.0790   46.4030 C   0  0  0  0  0  0  0  0  0  0  0  0
   61.5782   29.4636   47.0078 H   0  0  0  0  0  0  0  0  0  0  0  0
   61.3224   30.2557   45.4045 H   0  0  0  0  0  0  0  0  0  0  0  0
   60.6920   31.4300   47.0950 C   0  0  0  0  0  0  0  0  0  0  0  0
   61.5882   32.0518   46.9533 H   0  0  0  0  0  0  0  0  0  0  0  0
   59.8179   31.9340   46.6569 H   0  0  0  0  0  0  0  0  0  0  0  0
   60.4610   31.2220   48.5470 N   0  0  0  0  0  0  0  0  0  0  0  0
   61.1610   30.0110   49.0250 C   0  0  0  0  0  0  0  0  0  0  0  0
   61.1668   30.0010   50.1249 H   0  0  0  0  0  0  0  0  0  0  0  0
   60.6410   29.1160   48.6529 H   0  0  0  0  0  0  0  0  0  0  0  0
   62.1961   30.0149   48.6529 H   0  0  0  0  0  0  0  0  0  0  0  0
   59.0190   31.1710   48.8760 C   0  0  0  0  0  0  0  0  0  0  0  0
   58.4438   31.0102   47.9523 H   0  0  0  0  0  0  0  0  0  0  0  0
   58.8474   30.3454   49.5824 H   0  0  0  0  0  0  0  0  0  0  0  0
   58.5610   32.4880   49.5340 C   0  0  0  0  0  0  0  0  0  0  0  0
   57.5120   32.6757   49.2613 H   0  0  0  0  0  0  0  0  0  0  0  0
   58.6751   32.3825   50.6230 H   0  0  0  0  0  0  0  0  0  0  0  0
   59.5780   33.9130   48.9920 S   0  0  0  0  0  0  0  0  0  0  0  0
   58.8690   33.9750   47.3410 C   0  0  0  0  0  0  0  0  0  0  0  0
   57.6030   33.4210   47.0930 C   0  0  0  0  0  0  0  0  0  0  0  0
   57.0490   32.9322   47.9079 H   0  0  0  0  0  0  0  0  0  0  0  0
   57.0440   33.4890   45.8120 C   0  0  0  0  0  0  0  0  0  0  0  0
   56.0488   33.0610   45.6215 H   0  0  0  0  0  0  0  0  0  0  0  0
   57.7530   34.1020   44.7750 C   0  0  0  0  0  0  0  0  0  0  0  0
   57.3218   34.1421   43.7638 H   0  0  0  0  0  0  0  0  0  0  0  0
   59.0110   34.6650   45.0210 C   0  0  0  0  0  0  0  0  0  0  0  0
   59.5597   35.1602   44.2063 H   0  0  0  0  0  0  0  0  0  0  0  0
   59.5710   34.5990   46.3000 C   0  0  0  0  0  0  0  0  0  0  0  0
   60.5622   35.0365   46.4898 H   0  0  0  0  0  0  0  0  0  0  0  0
   58.5890   29.9300   45.5200 C   0  0  0  0  0  0  0  0  0  0  0  0
   58.7490   31.0680   44.9980 O   0  0  0  0  0  0  0  0  0  0  0  0
   57.4020   29.2620   45.3350 N   0  0  0  0  0  0  0  0  0  0  0  0
   56.3270   29.8780   44.5310 C   0  0  0  0  0  0  0  0  0  0  0  0
   56.2535   30.9463   44.7825 H   0  0  0  0  0  0  0  0  0  0  0  0
   55.3778   29.3698   44.7563 H   0  0  0  0  0  0  0  0  0  0  0  0
   56.6240   29.7320   43.0440 C   0  0  0  0  0  0  0  0  0  0  0  0
   57.6040   29.2503   42.9114 H   0  0  0  0  0  0  0  0  0  0  0  0
   55.8450   29.1141   42.5734 H   0  0  0  0  0  0  0  0  0  0  0  0
   56.6375   30.7262   42.5734 H   0  0  0  0  0  0  0  0  0  0  0  0
   57.2480   27.9940   45.8340 C   0  0  0  0  0  0  0  0  0  0  0  0
   56.0980   27.2960   45.6210 N   0  0  0  0  0  0  0  0  0  0  0  0
   55.6530   23.1180   45.5210 C   0  0  0  0  0  0  0  0  0  0  0  0
   56.5867   23.5574   45.1402 H   0  0  0  0  0  0  0  0  0  0  0  0
   55.5080   21.7270   45.5630 C   0  0  0  0  0  0  0  0  0  0  0  0
   56.3395   21.0768   45.2534 H   0  0  0  0  0  0  0  0  0  0  0  0
  1  2  1  0
  2  3  2  0
  3  4  1  0
  3  5  1  0
  5  6  1  0
  5  7  2  0
  7  8  1  0
  8  9  2  0
  9 10  1  0
 10 11  2  0
 11 12  1  0
 11 13  1  0
 13 14  1  0
 14 15  2  0
 14 16  1  0
 16 17  1  0
 17 18  1  0
 17 19  1  0
 17 20  1  0
 20 21  1  0
 20 22  1  0
 20 23  1  0
 23 24  1  0
 24 25  1  0
 24 26  1  0
 24 27  1  0
 23 28  1  0
 28 29  1  0
 28 30  1  0
 28 31  1  0
 31 32  1  0
 31 33  1  0
 31 34  1  0
 34 35  1  0
 35 36  2  0
 36 37  1  0
 36 38  1  0
 38 39  1  0
 38 40  2  0
 40 41  1  0
 40 42  1  0
 42 43  1  0
 42 44  2  0
 44 45  1  0
 16 46  1  0
 46 47  2  0
 46 48  1  0
 48 49  1  0
 49 50  1  0
 49 51  1  0
 49 52  1  0
 52 53  1  0
 52 54  1  0
 52 55  1  0
 48 56  1  0
 56 57  1  0
  7 58  1  0
 58 59  1  0
 58 60  2  0
 60 61  1  0
 60  2  1  0
 57  9  1  0
 56 13  2  0
 44 35  1  0
M  CHG  1  57  -1
M  END
>  <UniqueID>  (71) 
68

>  <SMILES>  (71) 
CCn1c(=O)n(CCN(C)CCSc2ccccc2)c(=O)c2cn/c(=N/c3ccccc3)[n-]c21

>  <Energy>  (71) 
75.95216881086887

>  <Genealogy>  (71) 
CCn1c(=O)n(CCN(C)CCSc2ccccc2)c(=O)c2cnc(=Nc3ccccc3)[n-]c21 (protonated)
CCn1c(=O)n(CCN(C)CCSc2ccccc2)c(=O)c2cn/c(=N/c3ccccc3)[n-]c21 (cis-trans isomerization)
CCn1c(=O)n(CCN(C)CCSc2ccccc2)c(=O)c2cn/c(=N/c3ccccc3)[n-]c21 (3D coordinates assigned)
CCn1c(=O)n(CCN(C)CCSc2ccccc2)c(=O)c2cn/c(=N/c3ccccc3)[n-]c21 (optimized conformer: 75.95216881086887 kcal/mol)

>  <smiles>  (71) 
CCn1c(=O)n(CCN(C)CCSc2ccccc2)c(=O)c2cnc(=Nc3ccccc3)[nH]c21

>  <score_type>  (71) 
oracle

>  <origin>  (71) 
adg

>  <m_score__min__energy>  (71) 
-10.15

>  <m_primary>  (71) 
energy

$$$$
71:0
     RDKit          3D

 51 52  0  0  0  0  0  0  0  0999 V2000
   59.0370   33.5250   52.5920 C   0  0  0  0  0  0  0  0  0  0  0  0
   58.6170   33.3710   51.2400 O   0  0  0  0  0  0  0  0  0  0  0  0
   59.0860   32.3740   50.3720 C   0  0  0  0  0  0  0  0  0  0  0  0
   60.1550   32.6820   49.5210 C   0  0  0  0  0  0  0  0  0  0  0  0
   60.6610   31.7210   48.6410 C   0  0  0  0  0  0  0  0  0  0  0  0
   60.1070   30.4330   48.6040 C   0  0  0  0  0  0  0  0  0  0  0  0
   60.6270   29.4110   47.6310 C   0  0  0  0  0  0  0  0  0  0  0  0
   59.7820   28.1760   47.6890 C   0  0  0  0  0  0  0  0  0  0  0  0
   60.1030   27.2390   48.4690 O   0  0  0  0  0  0  0  0  0  0  0  0
   58.5930   28.0810   46.8910 N   0  0  0  0  0  0  0  0  0  0  0  0
   57.6390   26.9840   47.0460 C   0  0  0  0  0  0  0  0  0  0  0  0
   56.5510   27.0760   46.0080 C   0  0  0  0  0  0  0  0  0  0  0  0
   55.5060   26.3850   46.1450 O   0  0  0  0  0  0  0  0  0  0  0  0
   56.6300   27.9870   44.9040 N   0  0  0  0  0  0  0  0  0  0  0  0
   56.0470   29.3250   44.8570 C   0  0  0  0  0  0  0  0  0  0  0  0
   57.1120   30.3870   44.9360 C   0  0  0  0  0  0  0  0  0  0  0  0
   58.3160   30.0610   44.7580 O   0  0  0  0  0  0  0  0  0  0  0  0
   56.8030   31.7590   45.2140 N   0  0  0  0  0  0  0  0  0  0  0  0
   57.7720   32.8130   45.2950 C   0  0  0  0  0  0  0  0  0  0  0  0
   58.0620   33.4450   46.5290 C   0  0  0  0  0  0  0  0  0  0  0  0
   57.3400   33.0980   47.8030 C   0  0  0  0  0  0  0  0  0  0  0  0
   59.0420   34.4490   46.5730 C   0  0  0  0  0  0  0  0  0  0  0  0
   59.6980   34.8520   45.4110 C   0  0  0  0  0  0  0  0  0  0  0  0
   59.3750   34.2690   44.1860 C   0  0  0  0  0  0  0  0  0  0  0  0
   58.4050   33.2580   44.1140 C   0  0  0  0  0  0  0  0  0  0  0  0
   58.0460   32.6600   42.7820 C   0  0  0  0  0  0  0  0  0  0  0  0
   59.0270   30.1250   49.4440 C   0  0  0  0  0  0  0  0  0  0  0  0
   58.5230   31.0850   50.3270 C   0  0  0  0  0  0  0  0  0  0  0  0
   58.2207   33.2257   53.2659 H   0  0  0  0  0  0  0  0  0  0  0  0
   59.9165   32.8909   52.7772 H   0  0  0  0  0  0  0  0  0  0  0  0
   59.2981   34.5774   52.7772 H   0  0  0  0  0  0  0  0  0  0  0  0
   60.5997   33.6878   49.5454 H   0  0  0  0  0  0  0  0  0  0  0  0
   61.4978   31.9762   47.9742 H   0  0  0  0  0  0  0  0  0  0  0  0
   60.5954   29.8271   46.6132 H   0  0  0  0  0  0  0  0  0  0  0  0
   61.6633   29.1536   47.8954 H   0  0  0  0  0  0  0  0  0  0  0  0
   58.3850   28.8290   46.1930 H   0  0  0  0  0  0  0  0  0  0  0  0
   58.1678   26.0263   46.9314 H   0  0  0  0  0  0  0  0  0  0  0  0
   57.1825   27.0498   48.0446 H   0  0  0  0  0  0  0  0  0  0  0  0
   55.4931   29.4420   43.9139 H   0  0  0  0  0  0  0  0  0  0  0  0
   55.3742   29.4420   45.7194 H   0  0  0  0  0  0  0  0  0  0  0  0
   57.9554   33.3938   48.6654 H   0  0  0  0  0  0  0  0  0  0  0  0
   56.3794   33.6328   47.8374 H   0  0  0  0  0  0  0  0  0  0  0  0
   57.1575   32.0138   47.8374 H   0  0  0  0  0  0  0  0  0  0  0  0
   59.2946   34.9221   47.5334 H   0  0  0  0  0  0  0  0  0  0  0  0
   60.4723   35.6317   45.4604 H   0  0  0  0  0  0  0  0  0  0  0  0
   59.8841   34.6040   43.2703 H   0  0  0  0  0  0  0  0  0  0  0  0
   57.4856   31.7265   42.9383 H   0  0  0  0  0  0  0  0  0  0  0  0
   57.4249   33.3703   42.2166 H   0  0  0  0  0  0  0  0  0  0  0  0
   58.9649   32.4457   42.2166 H   0  0  0  0  0  0  0  0  0  0  0  0
   58.5741   29.1232   49.4080 H   0  0  0  0  0  0  0  0  0  0  0  0
   57.6824   30.8314   50.9896 H   0  0  0  0  0  0  0  0  0  0  0  0
  1  2  1  0
  2  3  1  0
  3  4  2  0
  4  5  1  0
  5  6  2  0
  6  7  1  0
  7  8  1  0
  8  9  2  0
  8 10  1  0
 10 11  1  0
 11 12  1  0
 12 13  2  0
 12 14  1  0
 14 15  1  0
 15 16  1  0
 16 17  2  0
 16 18  1  0
 18 19  1  0
 19 20  2  0
 20 21  1  0
 20 22  1  0
 22 23  2  0
 23 24  1  0
 24 25  2  0
 25 26  1  0
  6 27  1  0
 27 28  2  0
 28  3  1  0
 25 19  1  0
  1 29  1  0
  1 30  1  0
  1 31  1  0
  4 32  1  0
  5 33  1  0
  7 34  1  0
  7 35  1  0
 10 36  1  0
 11 37  1  0
 11 38  1  0
 15 39  1  0
 15 40  1  0
 21 41  1  0
 21 42  1  0
 21 43  1  0
 22 44  1  0
 23 45  1  0
 24 46  1  0
 26 47  1  0
 26 48  1  0
 26 49  1  0
 27 50  1  0
 28 51  1  0
M  CHG  2  14  -1  18  -1
M  END
>  <UniqueID>  (72) 
69

>  <SMILES>  (72) 
COc1ccc(CC(=O)NCC(=O)[N-]CC(=O)[N-]c2c(C)cccc2C)cc1

>  <Energy>  (72) 
49.70224153794148

>  <Genealogy>  (72) 
COc1ccc(CC(=O)NCC(=O)[N-]CC(=O)[N-]c2c(C)cccc2C)cc1 (protonated)
COc1ccc(CC(=O)NCC(=O)[N-]CC(=O)[N-]c2c(C)cccc2C)cc1 (3D coordinates assigned)
COc1ccc(CC(=O)NCC(=O)[N-]CC(=O)[N-]c2c(C)cccc2C)cc1 (optimized conformer: 49.70224153794148 kcal/mol)

>  <smiles>  (72) 
COc1ccc(CC(=O)NCC(=O)NCC(=O)Nc2c(C)cccc2C)cc1

>  <score_type>  (72) 
oracle

>  <origin>  (72) 
adg

>  <m_score__min__energy>  (72) 
-11.82

>  <m_primary>  (72) 
energy

$$$$
72:0
     RDKit          3D

 54 57  0  0  0  0  0  0  0  0999 V2000
   50.0430   32.3030   49.7550 H   0  0  0  0  0  0  0  0  0  0  0  0
   51.0270   32.3200   50.1020 N   0  0  0  0  0  0  0  0  0  0  0  0
   51.3150   32.2900   51.4980 C   0  0  0  0  0  0  0  0  0  0  0  0
   50.7770   33.1460   52.2520 O   0  0  0  0  0  0  0  0  0  0  0  0
   52.2330   31.2690   52.0580 C   0  0  0  0  0  0  0  0  0  0  0  0
   51.7440   30.2560   52.9010 C   0  0  0  0  0  0  0  0  0  0  0  0
   50.6712   30.2149   53.1406 H   0  0  0  0  0  0  0  0  0  0  0  0
   52.6110   29.3020   53.4360 C   0  0  0  0  0  0  0  0  0  0  0  0
   52.2197   28.5160   54.0986 H   0  0  0  0  0  0  0  0  0  0  0  0
   53.9730   29.3420   53.1330 C   0  0  0  0  0  0  0  0  0  0  0  0
   54.6501   28.5885   53.5617 H   0  0  0  0  0  0  0  0  0  0  0  0
   54.4850   30.3370   52.2850 C   0  0  0  0  0  0  0  0  0  0  0  0
   55.9340   30.3750   51.9730 C   0  0  0  0  0  0  0  0  0  0  0  0
   56.6820   29.4390   52.3720 O   0  0  0  0  0  0  0  0  0  0  0  0
   56.4950   31.4480   51.2000 N   0  0  0  0  0  0  0  0  0  0  0  0
   55.8800   31.9400   50.5140 H   0  0  0  0  0  0  0  0  0  0  0  0
   57.9100   31.6620   51.1030 C   0  0  0  0  0  0  0  0  0  0  0  0
   58.6630   30.8260   50.2690 C   0  0  0  0  0  0  0  0  0  0  0  0
   58.1569   30.0369   49.6935 H   0  0  0  0  0  0  0  0  0  0  0  0
   60.0570   30.9800   50.1560 C   0  0  0  0  0  0  0  0  0  0  0  0
   60.8370   30.1330   49.3510 O   0  0  0  0  0  0  0  0  0  0  0  0
   60.5730   29.8030   47.9860 C   0  0  1  0  0  0  0  0  0  0  0  0
   61.5460   29.5055   47.5680 H   0  0  0  0  0  0  0  0  0  0  0  0
   59.5030   28.7330   47.8980 C   0  0  0  0  0  0  0  0  0  0  0  0
   58.8554   28.7856   48.7856 H   0  0  0  0  0  0  0  0  0  0  0  0
   59.9742   27.7401   47.8523 H   0  0  0  0  0  0  0  0  0  0  0  0
   58.7330   28.9470   46.7390 O   0  0  0  0  0  0  0  0  0  0  0  0
   58.9940   30.2570   46.2870 C   0  0  0  0  0  0  0  0  0  0  0  0
   58.0510   30.8211   46.2366 H   0  0  0  0  0  0  0  0  0  0  0  0
   59.4520   30.2132   45.2878 H   0  0  0  0  0  0  0  0  0  0  0  0
   59.9440   30.9480   47.2450 C   0  0  0  0  0  0  0  0  0  0  0  0
   59.3985   31.6112   47.9324 H   0  0  0  0  0  0  0  0  0  0  0  0
   60.6787   31.5903   46.7374 H   0  0  0  0  0  0  0  0  0  0  0  0
   60.6930   32.0110   50.8690 C   0  0  0  0  0  0  0  0  0  0  0  0
   62.4430   32.2360   50.7530 S   0  0  0  0  0  0  0  0  0  0  0  0
   63.1280   30.9180   50.5230 O   0  0  0  0  0  0  0  0  0  0  0  0
   62.9430   32.8340   52.0370 O   0  0  0  0  0  0  0  0  0  0  0  0
   62.8380   33.3040   49.4440 N   0  0  0  0  0  0  0  0  0  0  0  0
   61.9840   33.6580   48.5360 C   0  0  0  0  0  0  0  0  0  0  0  0
   60.7770   34.2020   48.8070 N   0  0  0  0  0  0  0  0  0  0  0  0
   60.0950   34.4870   47.6650 C   0  0  0  0  0  0  0  0  0  0  0  0
   59.0898   34.9338   47.6737 H   0  0  0  0  0  0  0  0  0  0  0  0
   60.7620   34.1720   46.4850 C   0  0  0  0  0  0  0  0  0  0  0  0
   60.3787   34.3277   45.4658 H   0  0  0  0  0  0  0  0  0  0  0  0
   62.2580   33.5110   46.8880 S   0  0  0  0  0  0  0  0  0  0  0  0
   59.9410   32.8570   51.6950 C   0  0  0  0  0  0  0  0  0  0  0  0
   60.4486   33.6442   52.2717 H   0  0  0  0  0  0  0  0  0  0  0  0
   58.5490   32.7130   51.7960 C   0  0  0  0  0  0  0  0  0  0  0  0
   57.7770   33.6830   52.6530 C   0  0  0  0  0  0  0  0  0  0  0  0
   57.9564   33.4576   53.7146 H   0  0  0  0  0  0  0  0  0  0  0  0
   58.1083   34.7090   52.4350 H   0  0  0  0  0  0  0  0  0  0  0  0
   56.7028   33.5904   52.4350 H   0  0  0  0  0  0  0  0  0  0  0  0
   53.6080   31.3030   51.7570 C   0  0  0  0  0  0  0  0  0  0  0  0
   54.0015   32.0938   51.1015 H   0  0  0  0  0  0  0  0  0  0  0  0
  1  2  1  0
  2  3  1  0
  3  4  2  0
  3  5  1  0
  5  6  2  0
  6  7  1  0
  6  8  1  0
  8  9  1  0
  8 10  2  0
 10 11  1  0
 10 12  1  0
 12 13  1  0
 13 14  2  0
 13 15  1  0
 15 16  1  0
 15 17  1  0
 17 18  2  0
 18 19  1  0
 18 20  1  0
 20 21  1  0
 21 22  1  0
 22 23  1  6
 22 24  1  0
 24 25  1  0
 24 26  1  0
 24 27  1  0
 27 28  1  0
 28 29  1  0
 28 30  1  0
 28 31  1  0
 31 32  1  0
 31 33  1  0
 20 34  2  0
 34 35  1  0
 35 36  2  0
 35 37  2  0
 35 38  1  0
 38 39  2  0
 39 40  1  0
 40 41  1  0
 41 42  1  0
 41 43  2  0
 43 44  1  0
 43 45  1  0
 34 46  1  0
 46 47  1  0
 46 48  2  0
 48 49  1  0
 49 50  1  0
 49 51  1  0
 49 52  1  0
 12 53  2  0
 53 54  1  0
 53  5  1  0
 48 17  1  0
 31 22  1  0
 45 39  1  0
M  CHG  2   2  -1  40  -1
M  END
>  <UniqueID>  (73) 
70

>  <SMILES>  (73) 
Cc1cc(S(=O)(=O)/N=c2\[n-]ccs2)c(O[C@@H]2CCOC2)cc1NC(=O)c1cccc(C([NH-])=O)c1

>  <Energy>  (73) 
98.64959493540483

>  <Genealogy>  (73) 
Cc1cc(S(=O)(=O)N=c2[n-]ccs2)c(OC2CCOC2)cc1NC(=O)c1cccc(C([NH-])=O)c1 (protonated)
Cc1cc(S(=O)(=O)N=c2[n-]ccs2)c(O[C@@H]2CCOC2)cc1NC(=O)c1cccc(C([NH-])=O)c1 (chirality)
Cc1cc(S(=O)(=O)/N=c2\[n-]ccs2)c(O[C@@H]2CCOC2)cc1NC(=O)c1cccc(C([NH-])=O)c1 (cis-trans isomerization)
Cc1cc(S(=O)(=O)/N=c2\[n-]ccs2)c(O[C@@H]2CCOC2)cc1NC(=O)c1cccc(C([NH-])=O)c1 (3D coordinates assigned)
Cc1cc(S(=O)(=O)/N=c2\[n-]ccs2)c(O[C@@H]2CCOC2)cc1NC(=O)c1cccc(C([NH-])=O)c1 (nonaromatic ring conformer: 98.64959493540483 kcal/mol)

>  <smiles>  (73) 
Cc1cc(S(=O)(=O)N=c2[nH]ccs2)c(OC2CCOC2)cc1NC(=O)c1cccc(C(N)=O)c1

>  <score_type>  (73) 
oracle

>  <origin>  (73) 
adg

>  <m_score__min__energy>  (73) 
-13.57

>  <m_primary>  (73) 
energy

$$$$
73:0
     RDKit          3D

 30 32  0  0  0  0  0  0  0  0999 V2000
   53.5060   22.0120   45.6220 O   0  0  0  0  0  0  0  0  0  0  0  0
   54.1400   23.0930   45.7430 C   0  0  0  0  0  0  0  0  0  0  0  0
   55.4490   23.0720   46.1100 N   0  0  0  0  0  0  0  0  0  0  0  0
   56.1600   24.2210   46.2490 C   0  0  0  0  0  0  0  0  0  0  0  0
   57.5060   24.1880   46.6250 C   0  0  0  0  0  0  0  0  0  0  0  0
   58.2210   25.3810   46.7640 C   0  0  0  0  0  0  0  0  0  0  0  0
   57.5950   26.6150   46.5300 C   0  0  0  0  0  0  0  0  0  0  0  0
   58.5040   28.1100   46.7220 S   0  0  0  0  0  0  0  0  0  0  0  0
   59.7060   28.1220   45.8170 O   0  0  0  0  0  0  0  0  0  0  0  0
   58.9650   28.2200   48.1470 O   0  0  0  0  0  0  0  0  0  0  0  0
   57.4980   29.4710   46.3440 N   0  0  0  0  0  0  0  0  0  0  0  0
   57.3320   30.0400   45.0380 C   0  0  0  0  0  0  0  0  0  0  0  0
   58.3160   30.8580   44.4490 C   0  0  0  0  0  0  0  0  0  0  0  0
   58.1200   31.3880   43.1710 C   0  0  0  0  0  0  0  0  0  0  0  0
   56.9430   31.1120   42.4710 C   0  0  0  0  0  0  0  0  0  0  0  0
   55.9600   30.3050   43.0470 C   0  0  0  0  0  0  0  0  0  0  0  0
   56.1510   29.7700   44.3270 C   0  0  0  0  0  0  0  0  0  0  0  0
   55.1650   28.9670   44.8880 O   0  0  0  0  0  0  0  0  0  0  0  0
   56.2460   26.6500   46.1460 C   0  0  0  0  0  0  0  0  0  0  0  0
   55.5280   25.4580   46.0060 C   0  0  0  0  0  0  0  0  0  0  0  0
   54.2190   25.4760   45.6400 N   0  0  0  0  0  0  0  0  0  0  0  0
   53.5110   24.3240   45.5020 C   0  0  0  0  0  0  0  0  0  0  0  0
   52.2990   24.3710   45.1610 O   0  0  0  0  0  0  0  0  0  0  0  0
   58.0020   23.2240   46.8113 H   0  0  0  0  0  0  0  0  0  0  0  0
   59.2805   25.3524   47.0585 H   0  0  0  0  0  0  0  0  0  0  0  0
   59.2430   31.0806   44.9977 H   0  0  0  0  0  0  0  0  0  0  0  0
   58.8937   32.0235   42.7155 H   0  0  0  0  0  0  0  0  0  0  0  0
   56.7906   31.5308   41.4653 H   0  0  0  0  0  0  0  0  0  0  0  0
   55.0338   30.0890   42.4943 H   0  0  0  0  0  0  0  0  0  0  0  0
   55.7532   27.6147   45.9551 H   0  0  0  0  0  0  0  0  0  0  0  0
  1  2  2  0
  2  3  1  0
  3  4  1  0
  4  5  2  0
  5  6  1  0
  6  7  2  0
  7  8  1  0
  8  9  2  0
  8 10  2  0
  8 11  1  0
 11 12  1  0
 12 13  2  0
 13 14  1  0
 14 15  2  0
 15 16  1  0
 16 17  2  0
 17 18  1  0
  7 19  1  0
 19 20  2  0
 20 21  1  0
 21 22  1  0
 22 23  2  0
 22  2  1  0
 20  4  1  0
 17 12  1  0
  5 24  1  0
  6 25  1  0
 13 26  1  0
 14 27  1  0
 15 28  1  0
 16 29  1  0
 19 30  1  0
M  CHG  4   3  -1  11  -1  18  -1  21  -1
M  END
>  <UniqueID>  (74) 
71

>  <SMILES>  (74) 
O=c1[n-]c2ccc(S(=O)(=O)[N-]c3ccccc3[O-])cc2[n-]c1=O

>  <Energy>  (74) 
41.090416808798516

>  <Genealogy>  (74) 
O=c1[n-]c2ccc(S(=O)(=O)[N-]c3ccccc3[O-])cc2[n-]c1=O (protonated)
O=c1[n-]c2ccc(S(=O)(=O)[N-]c3ccccc3[O-])cc2[n-]c1=O (3D coordinates assigned)
O=c1[n-]c2ccc(S(=O)(=O)[N-]c3ccccc3[O-])cc2[n-]c1=O (optimized conformer: 41.090416808798516 kcal/mol)

>  <smiles>  (74) 
O=c1[nH]c2ccc(S(=O)(=O)Nc3ccccc3O)cc2[nH]c1=O

>  <score_type>  (74) 
oracle

>  <origin>  (74) 
adg

>  <m_score__min__energy>  (74) 
-15.56

>  <m_primary>  (74) 
energy

$$$$
74:0
     RDKit          3D

 51 53  0  0  0  0  0  0  0  0999 V2000
   54.7700   29.3270   44.2360 N   0  0  0  0  0  0  0  0  0  0  0  0
   56.3180   30.0780   44.0750 S   0  0  0  0  0  0  0  0  0  0  0  0
   56.6850   30.1630   42.6200 O   0  0  0  0  0  0  0  0  0  0  0  0
   56.2590   31.4700   44.6410 O   0  0  0  0  0  0  0  0  0  0  0  0
   57.5240   29.1260   44.9340 C   0  0  0  0  0  0  0  0  0  0  0  0
   58.8120   29.6400   45.1250 C   0  0  0  0  0  0  0  0  0  0  0  0
   59.7780   28.8850   45.7940 C   0  0  0  0  0  0  0  0  0  0  0  0
   59.4720   27.6000   46.2710 C   0  0  0  0  0  0  0  0  0  0  0  0
   60.5150   26.7880   46.9960 C   0  0  0  0  0  0  0  0  0  0  0  0
   60.3110   26.8690   48.4380 N   0  0  0  0  0  0  0  0  0  0  0  0
   60.1300   28.1050   49.1380 C   0  0  0  0  0  0  0  0  0  0  0  0
   61.0470   28.5610   49.8740 O   0  0  0  0  0  0  0  0  0  0  0  0
   58.8490   28.8630   48.9810 C   0  0  0  0  0  0  0  0  0  0  0  0
   59.0060   30.2310   49.5120 N   0  0  0  0  0  0  0  0  0  0  0  0
   58.3150   30.5930   50.6370 C   0  0  0  0  0  0  0  0  0  0  0  0
   57.4220   29.7110   51.2410 O   0  0  0  0  0  0  0  0  0  0  0  0
   58.5080   31.8430   51.2060 C   0  0  0  0  0  0  0  0  0  0  0  0
   59.4120   32.7210   50.6210 C   0  0  0  0  0  0  0  0  0  0  0  0
   59.5900   33.8510   51.1520 O   0  0  0  0  0  0  0  0  0  0  0  0
   60.0970   32.3560   49.4910 N   0  0  0  0  0  0  0  0  0  0  0  0
   61.0690   33.2840   48.8730 C   0  0  0  0  0  0  0  0  0  0  0  0
   60.3970   34.5890   48.4200 C   0  0  0  0  0  0  0  0  0  0  0  0
   59.4570   34.3670   47.2630 C   0  0  0  0  0  0  0  0  0  0  0  0
   59.8000   34.8180   45.9770 C   0  0  0  0  0  0  0  0  0  0  0  0
   58.9410   34.5860   44.8980 C   0  0  0  0  0  0  0  0  0  0  0  0
   57.7380   33.9050   45.0950 C   0  0  0  0  0  0  0  0  0  0  0  0
   57.3910   33.4520   46.3710 C   0  0  0  0  0  0  0  0  0  0  0  0
   58.2480   33.6780   47.4520 C   0  0  0  0  0  0  0  0  0  0  0  0
   59.9000   31.1090   48.9460 C   0  0  0  0  0  0  0  0  0  0  0  0
   60.5520   30.7640   47.9200 O   0  0  0  0  0  0  0  0  0  0  0  0
   58.1780   27.0880   46.0790 C   0  0  0  0  0  0  0  0  0  0  0  0
   57.2130   27.8450   45.4100 C   0  0  0  0  0  0  0  0  0  0  0  0
   54.5140   29.3690   45.2480 H   0  0  0  0  0  0  0  0  0  0  0  0
   59.0641   30.6418   44.7470 H   0  0  0  0  0  0  0  0  0  0  0  0
   60.7851   29.2996   45.9483 H   0  0  0  0  0  0  0  0  0  0  0  0
   60.4419   25.7375   46.6781 H   0  0  0  0  0  0  0  0  0  0  0  0
   61.5106   27.1880   46.7535 H   0  0  0  0  0  0  0  0  0  0  0  0
   58.5838   28.9140   47.9147 H   0  0  0  0  0  0  0  0  0  0  0  0
   58.0528   28.3476   49.5382 H   0  0  0  0  0  0  0  0  0  0  0  0
   57.9523   32.1356   52.1091 H   0  0  0  0  0  0  0  0  0  0  0  0
   61.8518   33.5223   49.6081 H   0  0  0  0  0  0  0  0  0  0  0  0
   61.4977   32.7927   47.9871 H   0  0  0  0  0  0  0  0  0  0  0  0
   59.8291   35.0077   49.2639 H   0  0  0  0  0  0  0  0  0  0  0  0
   61.1858   35.2808   48.0895 H   0  0  0  0  0  0  0  0  0  0  0  0
   60.7468   35.3550   45.8186 H   0  0  0  0  0  0  0  0  0  0  0  0
   59.2134   34.9404   43.8929 H   0  0  0  0  0  0  0  0  0  0  0  0
   57.0629   33.7249   44.2454 H   0  0  0  0  0  0  0  0  0  0  0  0
   56.4423   32.9169   46.5247 H   0  0  0  0  0  0  0  0  0  0  0  0
   57.9745   33.3150   48.4537 H   0  0  0  0  0  0  0  0  0  0  0  0
   57.9235   26.0868   46.4570 H   0  0  0  0  0  0  0  0  0  0  0  0
   56.2044   27.4337   45.2561 H   0  0  0  0  0  0  0  0  0  0  0  0
  1  2  1  0
  2  3  2  0
  2  4  2  0
  2  5  1  0
  5  6  2  0
  6  7  1  0
  7  8  2  0
  8  9  1  0
  9 10  1  0
 10 11  1  0
 11 12  2  0
 11 13  1  0
 13 14  1  0
 14 15  1  0
 15 16  1  0
 15 17  2  0
 17 18  1  0
 18 19  2  0
 18 20  1  0
 20 21  1  0
 21 22  1  0
 22 23  1  0
 23 24  2  0
 24 25  1  0
 25 26  2  0
 26 27  1  0
 27 28  2  0
 20 29  1  0
 29 30  2  0
  8 31  1  0
 31 32  2  0
 32  5  1  0
 29 14  1  0
 28 23  1  0
  1 33  1  0
  6 34  1  0
  7 35  1  0
  9 36  1  0
  9 37  1  0
 13 38  1  0
 13 39  1  0
 17 40  1  0
 21 41  1  0
 21 42  1  0
 22 43  1  0
 22 44  1  0
 24 45  1  0
 25 46  1  0
 26 47  1  0
 27 48  1  0
 28 49  1  0
 31 50  1  0
 32 51  1  0
M  CHG  3   1  -1  10  -1  16  -1
M  END
>  <UniqueID>  (75) 
72

>  <SMILES>  (75) 
[NH-]S(=O)(=O)c1ccc(C[N-]C(=O)Cn2c([O-])cc(=O)n(CCc3ccccc3)c2=O)cc1

>  <Energy>  (75) 
50.45427877751491

>  <Genealogy>  (75) 
[NH-]S(=O)(=O)c1ccc(C[N-]C(=O)Cn2c([O-])cc(=O)n(CCc3ccccc3)c2=O)cc1 (protonated)
[NH-]S(=O)(=O)c1ccc(C[N-]C(=O)Cn2c([O-])cc(=O)n(CCc3ccccc3)c2=O)cc1 (3D coordinates assigned)
[NH-]S(=O)(=O)c1ccc(C[N-]C(=O)Cn2c([O-])cc(=O)n(CCc3ccccc3)c2=O)cc1 (optimized conformer: 50.45427877751491 kcal/mol)

>  <smiles>  (75) 
NS(=O)(=O)c1ccc(CNC(=O)Cn2c(O)cc(=O)n(CCc3ccccc3)c2=O)cc1

>  <score_type>  (75) 
oracle

>  <origin>  (75) 
adg

>  <m_score__min__energy>  (75) 
-13.82

>  <m_primary>  (75) 
energy

$$$$
75:0
     RDKit          3D

 35 37  0  0  0  0  0  0  0  0999 V2000
   60.6310   29.3140   45.6930 O   0  0  0  0  0  0  0  0  0  0  0  0
   60.3370   30.3470   46.3520 C   0  0  0  0  0  0  0  0  0  0  0  0
   59.1880   31.1270   45.9790 N   0  0  0  0  0  0  0  0  0  0  0  0
   58.2500   30.6990   44.9810 C   0  0  0  0  0  0  0  0  0  0  0  0
   57.8810   31.6010   43.9720 C   0  0  0  0  0  0  0  0  0  0  0  0
   57.0190   31.2060   42.9490 C   0  0  0  0  0  0  0  0  0  0  0  0
   56.5110   29.9050   42.9240 C   0  0  0  0  0  0  0  0  0  0  0  0
   56.8470   29.0050   43.9380 C   0  0  0  0  0  0  0  0  0  0  0  0
   57.6880   29.3970   44.9890 C   0  0  0  0  0  0  0  0  0  0  0  0
   57.9550   28.4610   46.0470 N   0  0  0  0  0  0  0  0  0  0  0  0
   57.2230   27.2380   46.2210 C   0  0  0  0  0  0  0  0  0  0  0  0
   57.8450   26.1220   46.7890 C   0  0  0  0  0  0  0  0  0  0  0  0
   57.1020   24.9530   46.9560 C   0  0  0  0  0  0  0  0  0  0  0  0
   57.6300   23.9350   47.4750 O   0  0  0  0  0  0  0  0  0  0  0  0
   55.8040   24.9130   46.5560 N   0  0  0  0  0  0  0  0  0  0  0  0
   55.2160   25.9980   45.9930 C   0  0  0  0  0  0  0  0  0  0  0  0
   54.0130   25.9420   45.6250 O   0  0  0  0  0  0  0  0  0  0  0  0
   55.9230   27.1460   45.8250 N   0  0  0  0  0  0  0  0  0  0  0  0
   61.1910   30.7560   47.4930 C   0  0  0  0  0  0  0  0  0  0  0  0
   62.2210   31.6920   47.2970 C   0  0  0  0  0  0  0  0  0  0  0  0
   63.0320   32.0830   48.3620 C   0  0  0  0  0  0  0  0  0  0  0  0
   62.8150   31.5330   49.6230 C   0  0  0  0  0  0  0  0  0  0  0  0
   61.8210   30.6270   49.8070 N   0  0  0  0  0  0  0  0  0  0  0  0
   61.0130   30.2220   48.7910 C   0  0  0  0  0  0  0  0  0  0  0  0
   59.7400   29.0680   49.1670 Cl  0  0  0  0  0  0  0  0  0  0  0  0
   59.0550   32.0780   46.3860 H   0  0  0  0  0  0  0  0  0  0  0  0
   58.2746   32.6281   43.9877 H   0  0  0  0  0  0  0  0  0  0  0  0
   56.7388   31.9201   42.1607 H   0  0  0  0  0  0  0  0  0  0  0  0
   55.8466   29.5894   42.1061 H   0  0  0  0  0  0  0  0  0  0  0  0
   56.4484   27.9801   43.9117 H   0  0  0  0  0  0  0  0  0  0  0  0
   58.8160   28.6090   46.6230 H   0  0  0  0  0  0  0  0  0  0  0  0
   58.8998   26.1649   47.0982 H   0  0  0  0  0  0  0  0  0  0  0  0
   62.3885   32.1189   46.2971 H   0  0  0  0  0  0  0  0  0  0  0  0
   63.8352   32.8186   48.2076 H   0  0  0  0  0  0  0  0  0  0  0  0
   63.4493   31.8329   50.4702 H   0  0  0  0  0  0  0  0  0  0  0  0
  1  2  2  0
  2  3  1  0
  3  4  1  0
  4  5  2  0
  5  6  1  0
  6  7  2  0
  7  8  1  0
  8  9  2  0
  9 10  1  0
 10 11  1  0
 11 12  2  0
 12 13  1  0
 13 14  2  0
 13 15  1  0
 15 16  1  0
 16 17  2  0
 16 18  1  0
  2 19  1  0
 19 20  2  0
 20 21  1  0
 21 22  2  0
 22 23  1  0
 23 24  2  0
 24 25  1  0
  9  4  1  0
 18 11  1  0
 24 19  1  0
  3 26  1  0
  5 27  1  0
  6 28  1  0
  7 29  1  0
  8 30  1  0
 10 31  1  0
 12 32  1  0
 20 33  1  0
 21 34  1  0
 22 35  1  0
M  CHG  2  15  -1  18  -1
M  END
>  <UniqueID>  (76) 
73

>  <SMILES>  (76) 
O=C(Nc1ccccc1Nc1cc(=O)[n-]c(=O)[n-]1)c1cccnc1Cl

>  <Energy>  (76) 
53.45458420904914

>  <Genealogy>  (76) 
O=C(Nc1ccccc1Nc1cc(=O)[n-]c(=O)[n-]1)c1cccnc1Cl (protonated)
O=C(Nc1ccccc1Nc1cc(=O)[n-]c(=O)[n-]1)c1cccnc1Cl (3D coordinates assigned)
O=C(Nc1ccccc1Nc1cc(=O)[n-]c(=O)[n-]1)c1cccnc1Cl (optimized conformer: 53.45458420904914 kcal/mol)

>  <smiles>  (76) 
O=C(Nc1ccccc1Nc1cc(=O)[nH]c(=O)[nH]1)c1cccnc1Cl

>  <score_type>  (76) 
oracle

>  <origin>  (76) 
adg

>  <m_score__min__energy>  (76) 
-12.369999999999999

>  <m_primary>  (76) 
energy

$$$$
77:0
     RDKit          3D

 50 52  0  0  0  0  0  0  0  0999 V2000
   54.6420   27.0750   46.7190 H   0  0  0  0  0  0  0  0  0  0  0  0
   54.8920   26.3410   46.0180 N   0  0  0  0  0  0  0  0  0  0  0  0
   56.6170   26.2800   45.9460 S   0  0  0  0  0  0  0  0  0  0  0  0
   57.1430   25.5710   47.1620 O   0  0  0  0  0  0  0  0  0  0  0  0
   57.0420   25.5160   44.7220 O   0  0  0  0  0  0  0  0  0  0  0  0
   57.2610   27.9170   45.8820 C   0  0  0  0  0  0  0  0  0  0  0  0
   58.3700   28.2700   46.6630 C   0  0  0  0  0  0  0  0  0  0  0  0
   58.8473   27.5186   47.3092 H   0  0  0  0  0  0  0  0  0  0  0  0
   58.8710   29.5740   46.6230 C   0  0  0  0  0  0  0  0  0  0  0  0
   59.7559   29.8407   47.2195 H   0  0  0  0  0  0  0  0  0  0  0  0
   58.2470   30.5440   45.8230 C   0  0  0  0  0  0  0  0  0  0  0  0
   58.7910   31.8650   45.7300 N   0  0  0  0  0  0  0  0  0  0  0  0
   58.9900   32.7420   46.6790 C   0  0  0  0  0  0  0  0  0  0  0  0
   59.0380   32.2550   47.9930 C   0  0  0  0  0  0  0  0  0  0  0  0
   58.9400   31.1752   48.1788 H   0  0  0  0  0  0  0  0  0  0  0  0
   59.2090   33.1290   49.0660 C   0  0  0  0  0  0  0  0  0  0  0  0
   59.2370   32.6200   50.3700 O   0  0  0  0  0  0  0  0  0  0  0  0
   60.2020   33.0130   51.3450 C   0  0  0  0  0  0  0  0  0  0  0  0
   59.7763   33.8052   51.9785 H   0  0  0  0  0  0  0  0  0  0  0  0
   61.1004   33.3848   50.8306 H   0  0  0  0  0  0  0  0  0  0  0  0
   60.5870   31.8190   52.2200 C   0  0  0  0  0  0  0  0  0  0  0  0
   60.0416   31.8821   53.1732 H   0  0  0  0  0  0  0  0  0  0  0  0
   61.6731   31.8489   52.3918 H   0  0  0  0  0  0  0  0  0  0  0  0
   60.2560   30.5520   51.5630 N   0  0  0  0  0  0  0  0  0  0  0  0
   61.6000   29.9110   50.6610 S   0  0  0  0  0  0  0  0  0  0  0  0
   61.1620   28.6540   49.9650 O   0  0  0  0  0  0  0  0  0  0  0  0
   62.7190   29.5630   51.6020 O   0  0  0  0  0  0  0  0  0  0  0  0
   62.1640   31.0560   49.4420 C   0  0  0  0  0  0  0  0  0  0  0  0
   61.8170   30.8640   48.0990 C   0  0  0  0  0  0  0  0  0  0  0  0
   61.2181   29.9886   47.8076 H   0  0  0  0  0  0  0  0  0  0  0  0
   62.2290   31.7810   47.1270 C   0  0  0  0  0  0  0  0  0  0  0  0
   61.9448   31.6294   46.0752 H   0  0  0  0  0  0  0  0  0  0  0  0
   63.0030   32.8930   47.4880 C   0  0  0  0  0  0  0  0  0  0  0  0
   63.4060   33.9020   46.4540 C   0  0  0  0  0  0  0  0  0  0  0  0
   63.7697   34.8126   46.9525 H   0  0  0  0  0  0  0  0  0  0  0  0
   64.2060   33.4836   45.8256 H   0  0  0  0  0  0  0  0  0  0  0  0
   62.5378   34.1498   45.8256 H   0  0  0  0  0  0  0  0  0  0  0  0
   63.3370   33.0920   48.8370 C   0  0  0  0  0  0  0  0  0  0  0  0
   63.9277   33.9722   49.1308 H   0  0  0  0  0  0  0  0  0  0  0  0
   62.9220   32.1760   49.8090 C   0  0  0  0  0  0  0  0  0  0  0  0
   63.1911   32.3351   50.8636 H   0  0  0  0  0  0  0  0  0  0  0  0
   59.3440   34.4620   48.8340 N   0  0  0  0  0  0  0  0  0  0  0  0
   59.3330   34.9740   47.5780 C   0  0  0  0  0  0  0  0  0  0  0  0
   59.4503   36.0578   47.4311 H   0  0  0  0  0  0  0  0  0  0  0  0
   59.1740   34.1380   46.4670 C   0  0  0  0  0  0  0  0  0  0  0  0
   59.3640   34.9040   44.8900 Cl  0  0  0  0  0  0  0  0  0  0  0  0
   57.1580   30.1850   45.0210 C   0  0  0  0  0  0  0  0  0  0  0  0
   56.6956   30.9307   44.3576 H   0  0  0  0  0  0  0  0  0  0  0  0
   56.6560   28.8800   45.0610 C   0  0  0  0  0  0  0  0  0  0  0  0
   55.7846   28.6083   44.4471 H   0  0  0  0  0  0  0  0  0  0  0  0
  1  2  1  0
  2  3  1  0
  3  4  2  0
  3  5  2  0
  3  6  1  0
  6  7  2  0
  7  8  1  0
  7  9  1  0
  9 10  1  0
  9 11  2  0
 11 12  1  0
 12 13  2  0
 13 14  1  0
 14 15  1  0
 14 16  2  0
 16 17  1  0
 17 18  1  0
 18 19  1  0
 18 20  1  0
 18 21  1  0
 21 22  1  0
 21 23  1  0
 21 24  1  0
 24 25  1  0
 25 26  2  0
 25 27  2  0
 25 28  1  0
 28 29  2  0
 29 30  1  0
 29 31  1  0
 31 32  1  0
 31 33  2  0
 33 34  1  0
 34 35  1  0
 34 36  1  0
 34 37  1  0
 33 38  1  0
 38 39  1  0
 38 40  2  0
 40 41  1  0
 16 42  1  0
 42 43  1  0
 43 44  1  0
 43 45  2  0
 45 46  1  0
 11 47  1  0
 47 48  1  0
 47 49  2  0
 49 50  1  0
 49  6  1  0
 45 13  1  0
 40 28  1  0
M  CHG  3   2  -1  24  -1  42  -1
M  END
>  <UniqueID>  (77) 
74

>  <SMILES>  (77) 
Cc1ccc(S(=O)(=O)[N-]CCOc2c/c(=N/c3ccc(S([NH-])(=O)=O)cc3)c(Cl)c[n-]2)cc1

>  <Energy>  (77) 
63.718632296904914

>  <Genealogy>  (77) 
Cc1ccc(S(=O)(=O)[N-]CCOc2cc(=Nc3ccc(S([NH-])(=O)=O)cc3)c(Cl)c[n-]2)cc1 (protonated)
Cc1ccc(S(=O)(=O)[N-]CCOc2c/c(=N/c3ccc(S([NH-])(=O)=O)cc3)c(Cl)c[n-]2)cc1 (cis-trans isomerization)
Cc1ccc(S(=O)(=O)[N-]CCOc2c/c(=N/c3ccc(S([NH-])(=O)=O)cc3)c(Cl)c[n-]2)cc1 (3D coordinates assigned)
Cc1ccc(S(=O)(=O)[N-]CCOc2c/c(=N/c3ccc(S([NH-])(=O)=O)cc3)c(Cl)c[n-]2)cc1 (optimized conformer: 63.718632296904914 kcal/mol)

>  <smiles>  (77) 
Cc1ccc(S(=O)(=O)NCCOc2cc(=Nc3ccc(S(N)(=O)=O)cc3)c(Cl)c[nH]2)cc1

>  <score_type>  (77) 
oracle

>  <origin>  (77) 
adg

>  <m_score__min__energy>  (77) 
-13.27

>  <m_primary>  (77) 
energy

$$$$
78:0
     RDKit          3D

 57 60  0  0  0  0  0  0  0  0999 V2000
   57.9810   26.8950   47.0530 O   0  0  0  0  0  0  0  0  0  0  0  0
   57.7290   27.7770   46.1880 C   0  0  0  0  0  0  0  0  0  0  0  0
   56.4480   27.9410   45.7760 N   0  0  0  0  0  0  0  0  0  0  0  0
   56.1070   28.8860   44.8690 C   0  0  0  0  0  0  0  0  0  0  0  0
   54.7750   29.0190   44.4920 O   0  0  0  0  0  0  0  0  0  0  0  0
   57.0890   29.7270   44.3350 C   0  0  0  0  0  0  0  0  0  0  0  0
   56.7010   30.7840   43.3710 C   0  0  0  0  0  0  0  0  0  0  0  0
   57.3960   31.9250   43.2450 C   0  0  0  0  0  0  0  0  0  0  0  0
   57.9020   32.7260   44.3860 C   0  0  0  0  0  0  0  0  0  0  0  0
   58.8970   33.7150   44.2450 C   0  0  0  0  0  0  0  0  0  0  0  0
   59.3290   34.4480   45.3540 C   0  0  0  0  0  0  0  0  0  0  0  0
   58.7620   34.2270   46.6200 C   0  0  0  0  0  0  0  0  0  0  0  0
   59.2110   34.9500   47.7780 N   0  0  0  0  0  0  0  0  0  0  0  0
   60.0920   34.4120   48.7800 C   0  0  0  0  0  0  0  0  0  0  0  0
   61.4330   34.1590   48.4560 C   0  0  0  0  0  0  0  0  0  0  0  0
   62.3000   33.6120   49.4070 C   0  0  0  0  0  0  0  0  0  0  0  0
   61.8300   33.2970   50.6840 C   0  0  0  0  0  0  0  0  0  0  0  0
   60.4890   33.5220   51.0110 C   0  0  0  0  0  0  0  0  0  0  0  0
   59.8940   33.1070   52.6080 Cl  0  0  0  0  0  0  0  0  0  0  0  0
   59.6200   34.0700   50.0620 C   0  0  0  0  0  0  0  0  0  0  0  0
   57.7810   33.2380   46.7630 C   0  0  0  0  0  0  0  0  0  0  0  0
   57.3460   32.5050   45.6560 C   0  0  0  0  0  0  0  0  0  0  0  0
   58.4260   29.5150   44.7290 C   0  0  0  0  0  0  0  0  0  0  0  0
   59.3450   30.2010   44.2020 O   0  0  0  0  0  0  0  0  0  0  0  0
   58.7300   28.5580   45.6670 N   0  0  0  0  0  0  0  0  0  0  0  0
   60.1150   28.4070   46.1620 C   0  0  0  0  0  0  0  0  0  0  0  0
   60.6950   29.7620   46.5920 C   0  0  0  0  0  0  0  0  0  0  0  0
   60.4420   30.0420   48.0560 C   0  0  0  0  0  0  0  0  0  0  0  0
   61.0220   29.2910   49.0080 C   0  0  0  0  0  0  0  0  0  0  0  0
   60.7420   29.5890   50.4560 C   0  0  0  0  0  0  0  0  0  0  0  0
   59.2350   29.8100   50.6820 C   0  0  0  0  0  0  0  0  0  0  0  0
   58.5490   30.6590   49.5760 C   0  0  0  0  0  0  0  0  0  0  0  0
   59.5150   31.1550   48.4850 C   0  0  0  0  0  0  0  0  0  0  0  0
   55.8147   30.6281   42.7384 H   0  0  0  0  0  0  0  0  0  0  0  0
   57.6041   32.2902   42.2285 H   0  0  0  0  0  0  0  0  0  0  0  0
   59.3362   33.9110   43.2557 H   0  0  0  0  0  0  0  0  0  0  0  0
   60.1192   35.2038   45.2344 H   0  0  0  0  0  0  0  0  0  0  0  0
   58.8750   35.9320   47.9010 H   0  0  0  0  0  0  0  0  0  0  0  0
   61.8050   34.3924   47.4475 H   0  0  0  0  0  0  0  0  0  0  0  0
   63.3536   33.4295   49.1490 H   0  0  0  0  0  0  0  0  0  0  0  0
   62.5147   32.8719   51.4326 H   0  0  0  0  0  0  0  0  0  0  0  0
   58.5630   34.2346   50.3181 H   0  0  0  0  0  0  0  0  0  0  0  0
   57.3495   33.0367   47.7546 H   0  0  0  0  0  0  0  0  0  0  0  0
   56.5593   31.7464   45.7809 H   0  0  0  0  0  0  0  0  0  0  0  0
   60.1165   27.7247   47.0248 H   0  0  0  0  0  0  0  0  0  0  0  0
   60.7358   28.0013   45.3496 H   0  0  0  0  0  0  0  0  0  0  0  0
   61.7803   29.7578   46.4127 H   0  0  0  0  0  0  0  0  0  0  0  0
   60.2000   30.5482   46.0030 H   0  0  0  0  0  0  0  0  0  0  0  0
   61.6951   28.4662   48.7311 H   0  0  0  0  0  0  0  0  0  0  0  0
   61.0795   28.7419   51.0713 H   0  0  0  0  0  0  0  0  0  0  0  0
   61.2814   30.5045   50.7405 H   0  0  0  0  0  0  0  0  0  0  0  0
   58.7428   28.8270   50.7190 H   0  0  0  0  0  0  0  0  0  0  0  0
   59.1326   30.3700   51.6232 H   0  0  0  0  0  0  0  0  0  0  0  0
   57.7724   30.0437   49.0981 H   0  0  0  0  0  0  0  0  0  0  0  0
   58.1353   31.5518   50.0677 H   0  0  0  0  0  0  0  0  0  0  0  0
   58.9346   31.4984   47.6160 H   0  0  0  0  0  0  0  0  0  0  0  0
   60.1154   31.9830   48.8899 H   0  0  0  0  0  0  0  0  0  0  0  0
  1  2  2  0
  2  3  1  0
  3  4  1  0
  4  5  1  0
  4  6  2  0
  6  7  1  0
  7  8  2  3
  8  9  1  0
  9 10  2  0
 10 11  1  0
 11 12  2  0
 12 13  1  0
 13 14  1  0
 14 15  2  0
 15 16  1  0
 16 17  2  0
 17 18  1  0
 18 19  1  0
 18 20  2  0
 12 21  1  0
 21 22  2  0
  6 23  1  0
 23 24  2  0
 23 25  1  0
 25 26  1  0
 26 27  1  0
 27 28  1  0
 28 29  2  0
 29 30  1  0
 30 31  1  0
 31 32  1  0
 32 33  1  0
 25  2  1  0
 33 28  1  0
 22  9  1  0
 20 14  1  0
  7 34  1  0
  8 35  1  0
 10 36  1  0
 11 37  1  0
 13 38  1  0
 15 39  1  0
 16 40  1  0
 17 41  1  0
 20 42  1  0
 21 43  1  0
 22 44  1  0
 26 45  1  0
 26 46  1  0
 27 47  1  0
 27 48  1  0
 29 49  1  0
 30 50  1  0
 30 51  1  0
 31 52  1  0
 31 53  1  0
 32 54  1  0
 32 55  1  0
 33 56  1  0
 33 57  1  0
M  CHG  2   3  -1   5  -1
M  END
>  <UniqueID>  (78) 
75

>  <SMILES>  (78) 
O=c1[n-]c([O-])c(C=Cc2ccc(Nc3cccc(Cl)c3)cc2)c(=O)n1CCC1=CCCCC1

>  <Energy>  (78) 
74.00321687726256

>  <Genealogy>  (78) 
O=c1[n-]c([O-])c(C=Cc2ccc(Nc3cccc(Cl)c3)cc2)c(=O)n1CCC1=CCCCC1 (protonated)
O=c1[n-]c([O-])c(C=Cc2ccc(Nc3cccc(Cl)c3)cc2)c(=O)n1CCC1=CCCCC1 (3D coordinates assigned)
O=c1[n-]c([O-])c(C=Cc2ccc(Nc3cccc(Cl)c3)cc2)c(=O)n1CCC1=CCCCC1 (nonaromatic ring conformer: 74.00321687726256 kcal/mol)

>  <smiles>  (78) 
O=c1[nH]c(O)c(C=Cc2ccc(Nc3cccc(Cl)c3)cc2)c(=O)n1CCC1=CCCCC1

>  <score_type>  (78) 
oracle

>  <origin>  (78) 
adg

>  <m_score__min__energy>  (78) 
-14.93

>  <m_primary>  (78) 
energy

$$$$
79:0
     RDKit          3D

 31 32  0  0  0  0  0  0  0  0999 V2000
   59.9120   28.5150   44.7450 O   0  0  0  0  0  0  0  0  0  0  0  0
   59.4260   28.4260   45.9050 C   0  0  0  0  0  0  0  0  0  0  0  0
   59.8120   29.3760   46.9150 N   0  0  0  0  0  0  0  0  0  0  0  0
   60.7060   30.5010   46.6350 C   0  0  0  0  0  0  0  0  0  0  0  0
   60.2570   31.7530   47.3970 C   0  0  0  0  0  0  0  0  0  0  0  0
   59.3670   32.6280   46.5530 C   0  0  0  0  0  0  0  0  0  0  0  0
   58.1440   32.1360   46.0660 C   0  0  0  0  0  0  0  0  0  0  0  0
   57.3460   32.9280   45.2360 C   0  0  0  0  0  0  0  0  0  0  0  0
   57.7630   34.2160   44.8850 C   0  0  0  0  0  0  0  0  0  0  0  0
   58.9800   34.7110   45.3620 C   0  0  0  0  0  0  0  0  0  0  0  0
   59.7820   33.9190   46.1910 C   0  0  0  0  0  0  0  0  0  0  0  0
   58.4380   27.3610   46.1950 C   0  0  0  0  0  0  0  0  0  0  0  0
   58.8590   26.1350   46.7340 C   0  0  0  0  0  0  0  0  0  0  0  0
   57.9560   25.1540   47.0000 N   0  0  0  0  0  0  0  0  0  0  0  0
   56.6270   25.3190   46.7650 C   0  0  0  0  0  0  0  0  0  0  0  0
   55.8270   24.3830   47.0260 O   0  0  0  0  0  0  0  0  0  0  0  0
   56.1580   26.5260   46.2380 C   0  0  0  0  0  0  0  0  0  0  0  0
   54.8000   26.7140   46.0010 O   0  0  0  0  0  0  0  0  0  0  0  0
   57.0660   27.5480   45.9550 C   0  0  0  0  0  0  0  0  0  0  0  0
   59.3030   29.3920   47.8260 H   0  0  0  0  0  0  0  0  0  0  0  0
   61.7275   30.2363   46.9455 H   0  0  0  0  0  0  0  0  0  0  0  0
   60.6781   30.7147   45.5563 H   0  0  0  0  0  0  0  0  0  0  0  0
   59.7043   31.4441   48.2965 H   0  0  0  0  0  0  0  0  0  0  0  0
   61.1532   32.3317   47.6653 H   0  0  0  0  0  0  0  0  0  0  0  0
   57.8134   31.1231   46.3393 H   0  0  0  0  0  0  0  0  0  0  0  0
   56.3892   32.5381   44.8585 H   0  0  0  0  0  0  0  0  0  0  0  0
   57.1331   34.8395   44.2335 H   0  0  0  0  0  0  0  0  0  0  0  0
   59.3075   35.7240   45.0854 H   0  0  0  0  0  0  0  0  0  0  0  0
   60.7416   34.3097   46.5605 H   0  0  0  0  0  0  0  0  0  0  0  0
   59.9259   25.9670   46.9424 H   0  0  0  0  0  0  0  0  0  0  0  0
   56.7065   28.5024   45.5430 H   0  0  0  0  0  0  0  0  0  0  0  0
  1  2  2  0
  2  3  1  0
  3  4  1  0
  4  5  1  0
  5  6  1  0
  6  7  2  0
  7  8  1  0
  8  9  2  0
  9 10  1  0
 10 11  2  0
  2 12  1  0
 12 13  2  0
 13 14  1  0
 14 15  1  0
 15 16  2  0
 15 17  1  0
 17 18  1  0
 17 19  2  0
 11  6  1  0
 19 12  1  0
  3 20  1  0
  4 21  1  0
  4 22  1  0
  5 23  1  0
  5 24  1  0
  7 25  1  0
  8 26  1  0
  9 27  1  0
 10 28  1  0
 11 29  1  0
 13 30  1  0
 19 31  1  0
M  CHG  2  14  -1  18  -1
M  END
>  <UniqueID>  (79) 
76

>  <SMILES>  (79) 
O=C(NCCc1ccccc1)c1c[n-]c(=O)c([O-])c1

>  <Energy>  (79) 
30.34126920075891

>  <Genealogy>  (79) 
O=C(NCCc1ccccc1)c1c[n-]c(=O)c([O-])c1 (protonated)
O=C(NCCc1ccccc1)c1c[n-]c(=O)c([O-])c1 (3D coordinates assigned)
O=C(NCCc1ccccc1)c1c[n-]c(=O)c([O-])c1 (optimized conformer: 30.34126920075891 kcal/mol)

>  <smiles>  (79) 
O=C(NCCc1ccccc1)c1c[nH]c(=O)c(O)c1

>  <score_type>  (79) 
oracle

>  <origin>  (79) 
adg

>  <m_score__min__energy>  (79) 
-12.18

>  <m_primary>  (79) 
energy

$$$$
80:0
     RDKit          3D

 25 26  0  0  0  0  0  0  0  0999 V2000
   60.0850   30.5950   45.8470 O   0  0  0  0  0  0  0  0  0  0  0  0
   59.5360   29.5060   45.9380 C   0  0  0  0  0  0  0  0  0  0  0  0
   60.1760   28.3000   45.3190 C   0  0  0  0  0  0  0  0  0  0  0  0
   60.1100   27.0910   46.2590 C   0  0  0  0  0  0  0  0  0  0  0  0
   58.7850   26.3420   46.2300 C   0  0  0  0  0  0  0  0  0  0  0  0
   58.8540   24.9470   46.4190 C   0  0  0  0  0  0  0  0  0  0  0  0
   57.7030   24.1610   46.4520 C   0  0  0  0  0  0  0  0  0  0  0  0
   57.7870   22.7820   46.6320 O   0  0  0  0  0  0  0  0  0  0  0  0
   56.4560   24.7580   46.3020 C   0  0  0  0  0  0  0  0  0  0  0  0
   56.3480   26.1360   46.1320 C   0  0  0  0  0  0  0  0  0  0  0  0
   55.0770   26.6790   45.9600 O   0  0  0  0  0  0  0  0  0  0  0  0
   57.4980   26.9640   46.1270 C   0  0  0  0  0  0  0  0  0  0  0  0
   57.2780   28.4540   45.8840 C   0  0  0  0  0  0  0  0  0  0  0  0
   58.2160   29.3950   46.6430 C   0  0  0  0  0  0  0  0  0  0  0  0
   59.6510   28.0559   44.3837 H   0  0  0  0  0  0  0  0  0  0  0  0
   61.2336   28.5301   45.1226 H   0  0  0  0  0  0  0  0  0  0  0  0
   60.9078   26.3896   45.9735 H   0  0  0  0  0  0  0  0  0  0  0  0
   60.2269   27.4816   47.2806 H   0  0  0  0  0  0  0  0  0  0  0  0
   59.8366   24.4684   46.5431 H   0  0  0  0  0  0  0  0  0  0  0  0
   57.8090   22.3680   47.5560 H   0  0  0  0  0  0  0  0  0  0  0  0
   55.5481   24.1371   46.3177 H   0  0  0  0  0  0  0  0  0  0  0  0
   57.4067   28.6437   44.8082 H   0  0  0  0  0  0  0  0  0  0  0  0
   56.2667   28.6729   46.2573 H   0  0  0  0  0  0  0  0  0  0  0  0
   57.7549   30.3917   46.7062 H   0  0  0  0  0  0  0  0  0  0  0  0
   58.3854   28.9897   47.6515 H   0  0  0  0  0  0  0  0  0  0  0  0
  1  2  2  0
  2  3  1  0
  3  4  1  0
  4  5  1  0
  5  6  2  0
  6  7  1  0
  7  8  1  0
  7  9  2  0
  9 10  1  0
 10 11  1  0
 10 12  2  0
 12 13  1  0
 13 14  1  0
 14  2  1  0
 12  5  1  0
  3 15  1  0
  3 16  1  0
  4 17  1  0
  4 18  1  0
  6 19  1  0
  8 20  1  0
  9 21  1  0
 13 22  1  0
 13 23  1  0
 14 24  1  0
 14 25  1  0
M  CHG  1  11  -1
M  END
>  <UniqueID>  (80) 
77

>  <SMILES>  (80) 
O=C1CCc2cc(O)cc([O-])c2CC1

>  <Energy>  (80) 
33.19149029297724

>  <Genealogy>  (80) 
O=C1CCc2cc(O)cc([O-])c2CC1 (protonated)
O=C1CCc2cc(O)cc([O-])c2CC1 (3D coordinates assigned)
O=C1CCc2cc(O)cc([O-])c2CC1 (nonaromatic ring conformer: 33.19149029297724 kcal/mol)

>  <smiles>  (80) 
O=C1CCc2cc(O)cc(O)c2CC1

>  <score_type>  (80) 
oracle

>  <origin>  (80) 
adg

>  <m_score__min__energy>  (80) 
-6.9500000000000002

>  <m_primary>  (80) 
energy

$$$$
81:0
     RDKit          3D

 39 41  0  0  0  0  0  0  0  0999 V2000
   59.7197   35.5457   45.7855 H   0  0  0  0  0  0  0  0  0  0  0  0
   59.2630   34.5450   45.7880 C   0  0  0  0  0  0  0  0  0  0  0  0
   57.8090   34.1200   45.0520 S   0  0  0  0  0  0  0  0  0  0  0  0
   57.9080   32.5240   45.5560 C   0  0  0  0  0  0  0  0  0  0  0  0
   57.0230   31.6190   45.2620 N   0  0  0  0  0  0  0  0  0  0  0  0
   57.2650   30.4520   44.4620 C   0  0  0  0  0  0  0  0  0  0  0  0
   57.6810   30.6030   43.2830 O   0  0  0  0  0  0  0  0  0  0  0  0
   56.9860   29.0880   44.9510 C   0  0  0  0  0  0  0  0  0  0  0  0
   55.7360   28.6210   45.1490 N   0  0  0  0  0  0  0  0  0  0  0  0
   55.9050   27.3750   45.6290 C   0  0  0  0  0  0  0  0  0  0  0  0
   54.8480   26.5380   45.9610 O   0  0  0  0  0  0  0  0  0  0  0  0
   57.2340   27.0410   45.7500 C   0  0  0  0  0  0  0  0  0  0  0  0
   57.6500   26.0893   46.1122 H   0  0  0  0  0  0  0  0  0  0  0  0
   57.9350   28.1470   45.3230 C   0  0  0  0  0  0  0  0  0  0  0  0
   59.0284   28.2613   45.2846 H   0  0  0  0  0  0  0  0  0  0  0  0
   59.0340   32.2830   46.2640 N   0  0  0  0  0  0  0  0  0  0  0  0
   59.7880   33.4060   46.4020 C   0  0  0  0  0  0  0  0  0  0  0  0
   61.0830   33.3900   47.1740 C   0  0  0  0  0  0  0  0  0  0  0  0
   61.0015   34.1347   47.9795 H   0  0  0  0  0  0  0  0  0  0  0  0
   62.2600   33.8000   46.2790 C   0  0  0  0  0  0  0  0  0  0  0  0
   62.0657   34.7979   45.8590 H   0  0  0  0  0  0  0  0  0  0  0  0
   62.3662   33.0634   45.4689 H   0  0  0  0  0  0  0  0  0  0  0  0
   63.5650   33.8380   47.0940 C   0  0  0  0  0  0  0  0  0  0  0  0
   63.5638   34.7525   47.7053 H   0  0  0  0  0  0  0  0  0  0  0  0
   64.3920   33.8120   46.3692 H   0  0  0  0  0  0  0  0  0  0  0  0
   63.7510   32.6740   47.9970 N   0  0  0  0  0  0  0  0  0  0  0  0
   63.8210   33.1490   49.6810 S   0  0  0  0  0  0  0  0  0  0  0  0
   63.0190   34.4010   49.9020 O   0  0  0  0  0  0  0  0  0  0  0  0
   65.2420   33.3940   50.1040 O   0  0  0  0  0  0  0  0  0  0  0  0
   63.1270   31.8570   50.6900 C   0  0  0  0  0  0  0  0  0  0  0  0
   63.2622   32.1087   51.7522 H   0  0  0  0  0  0  0  0  0  0  0  0
   62.0537   31.7570   50.4706 H   0  0  0  0  0  0  0  0  0  0  0  0
   63.6362   30.9070   50.4706 H   0  0  0  0  0  0  0  0  0  0  0  0
   62.7980   31.5680   47.7770 C   0  0  0  0  0  0  0  0  0  0  0  0
   62.9692   30.7989   48.5446 H   0  0  0  0  0  0  0  0  0  0  0  0
   62.9714   31.1789   46.7628 H   0  0  0  0  0  0  0  0  0  0  0  0
   61.3280   32.0210   47.8540 C   0  0  0  0  0  0  0  0  0  0  0  0
   61.0396   32.0984   48.9127 H   0  0  0  0  0  0  0  0  0  0  0  0
   60.7239   31.2737   47.3186 H   0  0  0  0  0  0  0  0  0  0  0  0
  1  2  1  0
  2  3  1  0
  3  4  1  0
  4  5  2  0
  5  6  1  0
  6  7  2  0
  6  8  1  0
  8  9  1  0
  9 10  1  0
 10 11  1  0
 10 12  2  0
 12 13  1  0
 12 14  1  0
 14 15  1  0
  4 16  1  0
 16 17  1  0
 17 18  1  0
 18 19  1  0
 18 20  1  0
 20 21  1  0
 20 22  1  0
 20 23  1  0
 23 24  1  0
 23 25  1  0
 23 26  1  0
 26 27  1  0
 27 28  2  0
 27 29  2  0
 27 30  1  0
 30 31  1  0
 30 32  1  0
 30 33  1  0
 26 34  1  0
 34 35  1  0
 34 36  1  0
 34 37  1  0
 37 38  1  0
 37 39  1  0
 17  2  2  0
 37 18  1  0
 14  8  2  0
M  CHG  3   9  -1  11  -1  16  -1
M  END
>  <UniqueID>  (81) 
78

>  <SMILES>  (81) 
CS(=O)(=O)N1CCC(c2cs/c(=N/C(=O)c3ccc([O-])[n-]3)[n-]2)CC1

>  <Energy>  (81) 
103.76860049866536

>  <Genealogy>  (81) 
CS(=O)(=O)N1CCC(c2csc(=NC(=O)c3ccc([O-])[n-]3)[n-]2)CC1 (protonated)
CS(=O)(=O)N1CCC(c2cs/c(=N/C(=O)c3ccc([O-])[n-]3)[n-]2)CC1 (cis-trans isomerization)
CS(=O)(=O)N1CCC(c2cs/c(=N/C(=O)c3ccc([O-])[n-]3)[n-]2)CC1 (3D coordinates assigned)
CS(=O)(=O)N1CCC(c2cs/c(=N/C(=O)c3ccc([O-])[n-]3)[n-]2)CC1 (nonaromatic ring conformer: 103.76860049866536 kcal/mol)

>  <smiles>  (81) 
CS(=O)(=O)N1CCC(c2csc(=NC(=O)c3ccc(O)[nH]3)[nH]2)CC1

>  <score_type>  (81) 
oracle

>  <origin>  (81) 
adg

>  <m_score__min__energy>  (81) 
-15.460000000000001

>  <m_primary>  (81) 
energy

$$$$
82:0
     RDKit          3D

 48 50  0  0  0  0  0  0  0  0999 V2000
   61.2680   26.0460   46.3360 O   0  0  0  0  0  0  0  0  0  0  0  0
   60.5090   26.9930   46.6720 C   0  0  0  0  0  0  0  0  0  0  0  0
   59.0500   26.9070   46.4810 C   0  0  0  0  0  0  0  0  0  0  0  0
   58.3130   25.8310   47.0000 C   0  0  0  0  0  0  0  0  0  0  0  0
   56.9290   25.7760   46.8250 C   0  0  0  0  0  0  0  0  0  0  0  0
   56.2640   26.7870   46.1270 C   0  0  0  0  0  0  0  0  0  0  0  0
   54.8820   26.7130   45.9880 O   0  0  0  0  0  0  0  0  0  0  0  0
   56.9870   27.8720   45.5910 C   0  0  0  0  0  0  0  0  0  0  0  0
   56.2950   28.9530   44.8420 C   0  0  0  0  0  0  0  0  0  0  0  0
   55.1630   29.3440   45.2330 O   0  0  0  0  0  0  0  0  0  0  0  0
   56.8420   29.5500   43.6030 C   0  0  0  0  0  0  0  0  0  0  0  0
   57.1140   30.8520   43.4160 C   0  0  0  0  0  0  0  0  0  0  0  0
   57.8190   31.7240   44.3800 C   0  0  0  0  0  0  0  0  0  0  0  0
   57.7960   33.1220   44.2560 C   0  0  0  0  0  0  0  0  0  0  0  0
   58.4630   33.9230   45.1850 C   0  0  0  0  0  0  0  0  0  0  0  0
   59.1880   33.3390   46.2370 C   0  0  0  0  0  0  0  0  0  0  0  0
   59.8980   34.2140   47.2410 C   0  0  0  0  0  0  0  0  0  0  0  0
   61.1990   33.6260   47.6150 N   0  0  0  0  0  0  0  0  0  0  0  0
   62.1780   33.8090   46.5210 C   0  0  0  0  0  0  0  0  0  0  0  0
   63.6210   33.5090   46.9810 C   0  0  0  0  0  0  0  0  0  0  0  0
   63.6380   32.7280   48.2230 N   0  0  0  0  0  0  0  0  0  0  0  0
   62.9820   33.4580   49.3210 C   0  0  0  0  0  0  0  0  0  0  0  0
   61.7180   34.2140   48.8640 C   0  0  0  0  0  0  0  0  0  0  0  0
   59.2450   31.9370   46.3420 C   0  0  0  0  0  0  0  0  0  0  0  0
   59.9710   31.3420   47.3730 O   0  0  0  0  0  0  0  0  0  0  0  0
   58.5690   31.1380   45.4100 C   0  0  0  0  0  0  0  0  0  0  0  0
   58.3840   27.9150   45.7680 C   0  0  0  0  0  0  0  0  0  0  0  0
   60.9428   27.9010   47.1162 H   0  0  0  0  0  0  0  0  0  0  0  0
   58.8282   25.0276   47.5470 H   0  0  0  0  0  0  0  0  0  0  0  0
   56.3587   24.9315   47.2392 H   0  0  0  0  0  0  0  0  0  0  0  0
   57.0431   28.8688   42.7630 H   0  0  0  0  0  0  0  0  0  0  0  0
   56.7859   31.3062   42.4694 H   0  0  0  0  0  0  0  0  0  0  0  0
   57.2499   33.5887   43.4230 H   0  0  0  0  0  0  0  0  0  0  0  0
   58.4205   35.0183   45.0925 H   0  0  0  0  0  0  0  0  0  0  0  0
   60.0640   35.2082   46.8005 H   0  0  0  0  0  0  0  0  0  0  0  0
   59.2740   34.2966   48.1431 H   0  0  0  0  0  0  0  0  0  0  0  0
   61.9197   33.1293   45.6957 H   0  0  0  0  0  0  0  0  0  0  0  0
   62.1353   34.8598   46.1987 H   0  0  0  0  0  0  0  0  0  0  0  0
   64.1361   32.9394   46.1935 H   0  0  0  0  0  0  0  0  0  0  0  0
   64.1296   34.4662   47.1682 H   0  0  0  0  0  0  0  0  0  0  0  0
   63.1240   31.8290   48.0590 H   0  0  0  0  0  0  0  0  0  0  0  0
   62.6975   32.7372   50.1018 H   0  0  0  0  0  0  0  0  0  0  0  0
   63.6972   34.2047   49.6964 H   0  0  0  0  0  0  0  0  0  0  0  0
   60.9485   34.1426   49.6468 H   0  0  0  0  0  0  0  0  0  0  0  0
   61.9743   35.2688   48.6858 H   0  0  0  0  0  0  0  0  0  0  0  0
   60.8170   31.7620   47.7400 H   0  0  0  0  0  0  0  0  0  0  0  0
   58.6271   30.0422   45.4870 H   0  0  0  0  0  0  0  0  0  0  0  0
   58.9599   28.7496   45.3417 H   0  0  0  0  0  0  0  0  0  0  0  0
  1  2  2  0
  2  3  1  0
  3  4  2  0
  4  5  1  0
  5  6  2  0
  6  7  1  0
  6  8  1  0
  8  9  1  0
  9 10  2  0
  9 11  1  0
 11 12  2  3
 12 13  1  0
 13 14  2  0
 14 15  1  0
 15 16  2  0
 16 17  1  0
 17 18  1  0
 18 19  1  0
 19 20  1  0
 20 21  1  0
 21 22  1  0
 22 23  1  0
 16 24  1  0
 24 25  1  0
 24 26  2  0
  8 27  2  0
 27  3  1  0
 26 13  1  0
 23 18  1  0
  2 28  1  0
  4 29  1  0
  5 30  1  0
 11 31  1  0
 12 32  1  0
 14 33  1  0
 15 34  1  0
 17 35  1  0
 17 36  1  0
 19 37  1  0
 19 38  1  0
 20 39  1  0
 20 40  1  0
 21 41  1  0
 22 42  1  0
 22 43  1  0
 23 44  1  0
 23 45  1  0
 25 46  1  0
 26 47  1  0
 27 48  1  0
M  CHG  1   7  -1
M  END
>  <UniqueID>  (82) 
79

>  <SMILES>  (82) 
O=Cc1ccc([O-])c(C(=O)C=Cc2ccc(CN3CCNCC3)c(O)c2)c1

>  <Energy>  (82) 
64.54919644035056

>  <Genealogy>  (82) 
O=Cc1ccc([O-])c(C(=O)C=Cc2ccc(CN3CCNCC3)c(O)c2)c1 (protonated)
O=Cc1ccc([O-])c(C(=O)C=Cc2ccc(CN3CCNCC3)c(O)c2)c1 (3D coordinates assigned)
O=Cc1ccc([O-])c(C(=O)C=Cc2ccc(CN3CCNCC3)c(O)c2)c1 (nonaromatic ring conformer: 64.54919644035056 kcal/mol)

>  <smiles>  (82) 
O=Cc1ccc(O)c(C(=O)C=Cc2ccc(CN3CCNCC3)c(O)c2)c1

>  <score_type>  (82) 
oracle

>  <origin>  (82) 
adg

>  <m_score__min__energy>  (82) 
-12.99

>  <m_primary>  (82) 
energy

$$$$
83:0
     RDKit          3D

 55 57  0  0  0  0  0  0  0  0999 V2000
   64.4683   32.4734   46.1857 H   0  0  0  0  0  0  0  0  0  0  0  0
   63.7210   32.6470   46.9740 C   0  0  0  0  0  0  0  0  0  0  0  0
   62.9720   31.5780   47.4740 C   0  0  0  0  0  0  0  0  0  0  0  0
   63.1299   30.5634   47.0794 H   0  0  0  0  0  0  0  0  0  0  0  0
   62.0210   31.7990   48.4770 C   0  0  0  0  0  0  0  0  0  0  0  0
   61.4372   30.9549   48.8728 H   0  0  0  0  0  0  0  0  0  0  0  0
   61.8080   33.0930   48.9810 C   0  0  0  0  0  0  0  0  0  0  0  0
   60.8130   33.3150   50.0590 C   0  0  0  0  0  0  0  0  0  0  0  0
   59.5510   33.4660   49.7640 N   0  0  0  0  0  0  0  0  0  0  0  0
   58.9590   32.6320   48.8420 O   0  0  0  0  0  0  0  0  0  0  0  0
   58.9180   32.9300   47.4760 C   0  0  0  0  0  0  0  0  0  0  0  0
   58.6360   34.2560   47.1100 C   0  0  0  0  0  0  0  0  0  0  0  0
   58.5138   35.0212   47.8907 H   0  0  0  0  0  0  0  0  0  0  0  0
   58.5090   34.6140   45.7680 C   0  0  0  0  0  0  0  0  0  0  0  0
   58.3128   35.6611   45.4940 H   0  0  0  0  0  0  0  0  0  0  0  0
   58.6310   33.6430   44.7730 C   0  0  0  0  0  0  0  0  0  0  0  0
   58.5092   33.9208   43.7156 H   0  0  0  0  0  0  0  0  0  0  0  0
   58.9080   32.3170   45.1200 C   0  0  0  0  0  0  0  0  0  0  0  0
   58.9918   31.5544   44.3316 H   0  0  0  0  0  0  0  0  0  0  0  0
   59.0810   31.9470   46.4690 C   0  0  0  0  0  0  0  0  0  0  0  0
   59.4050   30.5030   46.7970 C   0  0  0  0  0  0  0  0  0  0  0  0
   58.6610   30.1294   47.5159 H   0  0  0  0  0  0  0  0  0  0  0  0
   60.4220   30.4762   47.2153 H   0  0  0  0  0  0  0  0  0  0  0  0
   59.3880   29.5970   45.5550 C   0  0  0  0  0  0  0  0  0  0  0  0
   60.3060   28.9911   45.5408 H   0  0  0  0  0  0  0  0  0  0  0  0
   59.3290   30.2347   44.6606 H   0  0  0  0  0  0  0  0  0  0  0  0
   58.2150   28.6950   45.5640 N   0  0  0  0  0  0  0  0  0  0  0  0
   56.9850   29.1680   45.1870 C   0  0  0  0  0  0  0  0  0  0  0  0
   56.8430   30.3540   44.7810 O   0  0  0  0  0  0  0  0  0  0  0  0
   55.8940   28.3650   45.2480 N   0  0  0  0  0  0  0  0  0  0  0  0
   55.9680   27.0920   45.7050 C   0  0  0  0  0  0  0  0  0  0  0  0
   54.7980   26.3430   45.7810 O   0  0  0  0  0  0  0  0  0  0  0  0
   57.2040   26.5570   46.1040 C   0  0  0  0  0  0  0  0  0  0  0  0
   57.2970   25.1490   46.6070 C   0  0  0  0  0  0  0  0  0  0  0  0
   57.5630   24.9490   47.8250 O   0  0  0  0  0  0  0  0  0  0  0  0
   57.0270   23.9590   45.7070 C   0  0  0  0  0  0  0  0  0  0  0  0
   55.9510   23.7342   45.7474 H   0  0  0  0  0  0  0  0  0  0  0  0
   57.6516   23.1344   46.0810 H   0  0  0  0  0  0  0  0  0  0  0  0
   57.4190   24.1740   44.2340 C   0  0  0  0  0  0  0  0  0  0  0  0
   58.4774   23.9020   44.1079 H   0  0  0  0  0  0  0  0  0  0  0  0
   57.2402   25.2323   43.9931 H   0  0  0  0  0  0  0  0  0  0  0  0
   56.5790   23.3320   43.2720 C   0  0  0  0  0  0  0  0  0  0  0  0
   55.9170   22.6685   43.8478 H   0  0  0  0  0  0  0  0  0  0  0  0
   55.9721   23.9954   42.6382 H   0  0  0  0  0  0  0  0  0  0  0  0
   57.2438   22.7267   42.6382 H   0  0  0  0  0  0  0  0  0  0  0  0
   58.3400   27.3940   45.9870 C   0  0  0  0  0  0  0  0  0  0  0  0
   59.4840   26.9330   46.2480 O   0  0  0  0  0  0  0  0  0  0  0  0
   61.2680   33.4280   51.4920 C   0  0  0  0  0  0  0  0  0  0  0  0
   60.4220   33.2179   52.1630 H   0  0  0  0  0  0  0  0  0  0  0  0
   62.0734   32.7026   51.6793 H   0  0  0  0  0  0  0  0  0  0  0  0
   61.6405   34.4459   51.6793 H   0  0  0  0  0  0  0  0  0  0  0  0
   62.5720   34.1620   48.4780 C   0  0  0  0  0  0  0  0  0  0  0  0
   62.4230   35.1774   48.8740 H   0  0  0  0  0  0  0  0  0  0  0  0
   63.5210   33.9360   47.4750 C   0  0  0  0  0  0  0  0  0  0  0  0
   64.1115   34.7757   47.0796 H   0  0  0  0  0  0  0  0  0  0  0  0
  1  2  1  0
  2  3  2  0
  3  4  1  0
  3  5  1  0
  5  6  1  0
  5  7  2  0
  7  8  1  0
  8  9  2  0
  9 10  1  0
 10 11  1  0
 11 12  2  0
 12 13  1  0
 12 14  1  0
 14 15  1  0
 14 16  2  0
 16 17  1  0
 16 18  1  0
 18 19  1  0
 18 20  2  0
 20 21  1  0
 21 22  1  0
 21 23  1  0
 21 24  1  0
 24 25  1  0
 24 26  1  0
 24 27  1  0
 27 28  1  0
 28 29  2  0
 28 30  1  0
 30 31  1  0
 31 32  1  0
 31 33  2  0
 33 34  1  0
 34 35  2  0
 34 36  1  0
 36 37  1  0
 36 38  1  0
 36 39  1  0
 39 40  1  0
 39 41  1  0
 39 42  1  0
 42 43  1  0
 42 44  1  0
 42 45  1  0
 33 46  1  0
 46 47  2  0
  8 48  1  0
 48 49  1  0
 48 50  1  0
 48 51  1  0
  7 52  1  0
 52 53  1  0
 52 54  2  0
 54 55  1  0
 54  2  1  0
 20 11  1  0
 46 27  1  0
M  CHG  2  30  -1  32  -1
M  END
>  <UniqueID>  (83) 
80

>  <SMILES>  (83) 
CCCC(=O)c1c([O-])[n-]c(=O)n(CCc2ccccc2O/N=C(\C)c2ccccc2)c1=O

>  <Energy>  (83) 
71.87642495492295

>  <Genealogy>  (83) 
CCCC(=O)c1c([O-])[n-]c(=O)n(CCc2ccccc2ON=C(C)c2ccccc2)c1=O (protonated)
CCCC(=O)c1c([O-])[n-]c(=O)n(CCc2ccccc2O/N=C(\C)c2ccccc2)c1=O (cis-trans isomerization)
CCCC(=O)c1c([O-])[n-]c(=O)n(CCc2ccccc2O/N=C(\C)c2ccccc2)c1=O (3D coordinates assigned)
CCCC(=O)c1c([O-])[n-]c(=O)n(CCc2ccccc2O/N=C(\C)c2ccccc2)c1=O (optimized conformer: 71.87642495492295 kcal/mol)

>  <smiles>  (83) 
CCCC(=O)c1c(O)[nH]c(=O)n(CCc2ccccc2ON=C(C)c2ccccc2)c1=O

>  <score_type>  (83) 
oracle

>  <origin>  (83) 
adg

>  <m_score__min__energy>  (83) 
-14.52

>  <m_primary>  (83) 
energy

$$$$
84:0
     RDKit          3D

 50 52  0  0  0  0  0  0  0  0999 V2000
   65.9910   30.8170   51.2060 C   0  0  0  0  0  0  0  0  0  0  0  0
   66.4980   32.2550   51.2960 C   0  0  0  0  0  0  0  0  0  0  0  0
   66.0960   33.0990   50.0790 C   0  0  0  0  0  0  0  0  0  0  0  0
   64.6490   33.3080   50.0270 N   0  0  0  0  0  0  0  0  0  0  0  0
   63.8990   34.2260   50.8770 C   0  0  0  0  0  0  0  0  0  0  0  0
   62.4390   34.1810   50.3530 C   0  0  0  0  0  0  0  0  0  0  0  0
   62.4560   33.3010   49.1840 N   0  0  0  0  0  0  0  0  0  0  0  0
   61.3720   33.1600   48.2460 C   0  0  0  0  0  0  0  0  0  0  0  0
   61.3600   32.1130   47.3070 C   0  0  0  0  0  0  0  0  0  0  0  0
   60.3210   32.0040   46.3800 C   0  0  0  0  0  0  0  0  0  0  0  0
   59.2790   32.9400   46.3760 C   0  0  0  0  0  0  0  0  0  0  0  0
   57.9810   32.8180   45.1910 S   0  0  0  0  0  0  0  0  0  0  0  0
   57.0820   34.0200   45.2670 O   0  0  0  0  0  0  0  0  0  0  0  0
   58.5850   32.7420   43.8180 O   0  0  0  0  0  0  0  0  0  0  0  0
   57.0430   31.3880   45.4790 N   0  0  0  0  0  0  0  0  0  0  0  0
   57.5680   30.0540   45.5650 C   0  0  0  0  0  0  0  0  0  0  0  0
   58.2990   29.6260   46.6890 C   0  0  0  0  0  0  0  0  0  0  0  0
   58.8090   28.3260   46.7500 C   0  0  0  0  0  0  0  0  0  0  0  0
   58.5890   27.4380   45.6960 C   0  0  0  0  0  0  0  0  0  0  0  0
   57.8600   27.8490   44.5770 C   0  0  0  0  0  0  0  0  0  0  0  0
   57.3500   29.1540   44.4990 C   0  0  0  0  0  0  0  0  0  0  0  0
   56.4320   29.6420   43.0660 S   0  0  0  0  0  0  0  0  0  0  0  0
   56.9610   31.2030   42.5460 N   0  0  0  0  0  0  0  0  0  0  0  0
   56.6390   28.6440   41.9610 O   0  0  0  0  0  0  0  0  0  0  0  0
   54.9660   29.6990   43.3890 O   0  0  0  0  0  0  0  0  0  0  0  0
   59.2830   33.9830   47.3100 C   0  0  0  0  0  0  0  0  0  0  0  0
   60.3270   34.0980   48.2330 C   0  0  0  0  0  0  0  0  0  0  0  0
   63.7700   32.7940   49.0470 C   0  0  0  0  0  0  0  0  0  0  0  0
   64.1090   31.9400   48.1830 O   0  0  0  0  0  0  0  0  0  0  0  0
   65.8490   30.4142   52.2197 H   0  0  0  0  0  0  0  0  0  0  0  0
   65.0324   30.7993   50.6668 H   0  0  0  0  0  0  0  0  0  0  0  0
   66.7265   30.2020   50.6668 H   0  0  0  0  0  0  0  0  0  0  0  0
   66.0800   32.7201   52.2010 H   0  0  0  0  0  0  0  0  0  0  0  0
   67.5969   32.2197   51.3290 H   0  0  0  0  0  0  0  0  0  0  0  0
   66.5965   34.0766   50.1407 H   0  0  0  0  0  0  0  0  0  0  0  0
   66.4003   32.5605   49.1693 H   0  0  0  0  0  0  0  0  0  0  0  0
   63.9407   33.8986   51.9263 H   0  0  0  0  0  0  0  0  0  0  0  0
   64.3132   35.2444   50.8413 H   0  0  0  0  0  0  0  0  0  0  0  0
   61.7681   33.7771   51.1255 H   0  0  0  0  0  0  0  0  0  0  0  0
   62.0727   35.1857   50.0952 H   0  0  0  0  0  0  0  0  0  0  0  0
   62.1751   31.3744   47.3026 H   0  0  0  0  0  0  0  0  0  0  0  0
   60.3210   31.1805   45.6508 H   0  0  0  0  0  0  0  0  0  0  0  0
   58.4702   30.3195   47.5255 H   0  0  0  0  0  0  0  0  0  0  0  0
   59.3845   28.0024   47.6298 H   0  0  0  0  0  0  0  0  0  0  0  0
   58.9894   26.4147   45.7462 H   0  0  0  0  0  0  0  0  0  0  0  0
   57.6845   27.1442   43.7509 H   0  0  0  0  0  0  0  0  0  0  0  0
   56.7780   31.8640   43.3370 H   0  0  0  0  0  0  0  0  0  0  0  0
   57.9990   31.1520   42.4280 H   0  0  0  0  0  0  0  0  0  0  0  0
   58.4617   34.7147   47.3177 H   0  0  0  0  0  0  0  0  0  0  0  0
   60.3298   34.9289   48.9539 H   0  0  0  0  0  0  0  0  0  0  0  0
  1  2  1  0
  2  3  1  0
  3  4  1  0
  4  5  1  0
  5  6  1  0
  6  7  1  0
  7  8  1  0
  8  9  2  0
  9 10  1  0
 10 11  2  0
 11 12  1  0
 12 13  2  0
 12 14  2  0
 12 15  1  0
 15 16  1  0
 16 17  2  0
 17 18  1  0
 18 19  2  0
 19 20  1  0
 20 21  2  0
 21 22  1  0
 22 23  1  0
 22 24  2  0
 22 25  2  0
 11 26  1  0
 26 27  2  0
  7 28  1  0
 28 29  2  0
 28  4  1  0
 27  8  1  0
 21 16  1  0
  1 30  1  0
  1 31  1  0
  1 32  1  0
  2 33  1  0
  2 34  1  0
  3 35  1  0
  3 36  1  0
  5 37  1  0
  5 38  1  0
  6 39  1  0
  6 40  1  0
  9 41  1  0
 10 42  1  0
 17 43  1  0
 18 44  1  0
 19 45  1  0
 20 46  1  0
 23 47  1  0
 23 48  1  0
 26 49  1  0
 27 50  1  0
M  CHG  1  15  -1
M  END
>  <UniqueID>  (84) 
81

>  <SMILES>  (84) 
CCCN1CCN(c2ccc(S(=O)(=O)[N-]c3ccccc3S(N)(=O)=O)cc2)C1=O

>  <Energy>  (84) 
65.1269683969831

>  <Genealogy>  (84) 
CCCN1CCN(c2ccc(S(=O)(=O)[N-]c3ccccc3S(N)(=O)=O)cc2)C1=O (protonated)
CCCN1CCN(c2ccc(S(=O)(=O)[N-]c3ccccc3S(N)(=O)=O)cc2)C1=O (3D coordinates assigned)
CCCN1CCN(c2ccc(S(=O)(=O)[N-]c3ccccc3S(N)(=O)=O)cc2)C1=O (nonaromatic ring conformer: 65.1269683969831 kcal/mol)

>  <smiles>  (84) 
CCCN1CCN(c2ccc(S(=O)(=O)Nc3ccccc3S(N)(=O)=O)cc2)C1=O

>  <score_type>  (84) 
oracle

>  <origin>  (84) 
adg

>  <m_score__min__energy>  (84) 
-9.0600000000000005

>  <m_primary>  (84) 
energy

$$$$
85:0
     RDKit          3D

 47 50  0  0  1  0  0  0  0  0999 V2000
   54.5370   23.1230   44.9890 C   0  0  0  0  0  0  0  0  0  0  0  0
   55.0310   24.4630   45.3850 C   0  0  0  0  0  0  0  0  0  0  0  0
   54.3190   25.5740   45.7220 N   0  0  0  0  0  0  0  0  0  0  0  0
   55.1800   26.5060   45.9970 O   0  0  0  0  0  0  0  0  0  0  0  0
   56.4170   26.0860   45.8640 C   0  0  0  0  0  0  0  0  0  0  0  0
   57.6800   26.8810   46.0970 C   0  0  1  0  0  0  0  0  0  0  0  0
   58.5540   26.6690   44.8800 C   0  0  0  0  0  0  0  0  0  0  0  0
   57.3490   28.3590   46.1800 C   0  0  0  0  0  0  0  0  0  0  0  0
   56.3660   28.7600   45.2780 O   0  0  0  0  0  0  0  0  0  0  0  0
   56.5880   29.6060   44.2320 C   0  0  0  0  0  0  0  0  0  0  0  0
   56.3620   29.5300   42.8830 C   0  0  0  0  0  0  0  0  0  0  0  0
   56.7690   30.6670   42.2630 N   0  0  0  0  0  0  0  0  0  0  0  0
   57.2580   31.4840   43.2100 N   0  0  0  0  0  0  0  0  0  0  0  0
   57.7740   32.7140   43.0440 C   0  0  0  0  0  0  0  0  0  0  0  0
   58.2300   33.3840   44.1580 C   0  0  0  0  0  0  0  0  0  0  0  0
   58.1200   32.7380   45.3700 C   0  0  0  0  0  0  0  0  0  0  0  0
   58.5460   33.3570   46.4060 N   0  0  0  0  0  0  0  0  0  0  0  0
   59.5560   34.3460   46.4210 C   0  0  0  0  0  0  0  0  0  0  0  0
   59.4910   35.4530   45.8400 O   0  0  0  0  0  0  0  0  0  0  0  0
   60.7720   34.0110   47.1970 C   0  0  0  0  0  0  0  0  0  0  0  0
   61.9120   33.7980   46.4310 C   0  0  0  0  0  0  0  0  0  0  0  0
   63.1090   33.4840   47.0510 C   0  0  0  0  0  0  0  0  0  0  0  0
   63.1050   33.3970   48.4390 C   0  0  0  0  0  0  0  0  0  0  0  0
   64.3560   33.0730   49.0580 C   0  0  0  0  0  0  0  0  0  0  0  0
   65.3710   32.7920   49.5510 N   0  0  0  0  0  0  0  0  0  0  0  0
   61.9640   33.6110   49.1840 C   0  0  0  0  0  0  0  0  0  0  0  0
   60.7600   33.9260   48.5700 C   0  0  0  0  0  0  0  0  0  0  0  0
   57.6050   31.5120   45.5320 N   0  0  0  0  0  0  0  0  0  0  0  0
   57.1650   30.8770   44.4130 C   0  0  0  0  0  0  0  0  0  0  0  0
   56.3210   24.8070   45.4810 N   0  0  0  0  0  0  0  0  0  0  0  0
   54.3189   22.5315   45.8904 H   0  0  0  0  0  0  0  0  0  0  0  0
   53.6200   23.2321   44.3913 H   0  0  0  0  0  0  0  0  0  0  0  0
   55.3054   22.6108   44.3913 H   0  0  0  0  0  0  0  0  0  0  0  0
   58.1715   26.5636   47.0285 H   0  0  0  0  0  0  0  0  0  0  0  0
   59.5763   26.4210   45.2015 H   0  0  0  0  0  0  0  0  0  0  0  0
   58.1488   25.8431   44.2769 H   0  0  0  0  0  0  0  0  0  0  0  0
   58.5722   27.5888   44.2769 H   0  0  0  0  0  0  0  0  0  0  0  0
   56.9980   28.5805   47.1987 H   0  0  0  0  0  0  0  0  0  0  0  0
   58.2660   28.9106   45.9255 H   0  0  0  0  0  0  0  0  0  0  0  0
   55.9123   28.6659   42.3721 H   0  0  0  0  0  0  0  0  0  0  0  0
   56.7130   30.8660   41.2460 H   0  0  0  0  0  0  0  0  0  0  0  0
   57.8306   33.1730   42.0460 H   0  0  0  0  0  0  0  0  0  0  0  0
   58.6636   34.3921   44.0831 H   0  0  0  0  0  0  0  0  0  0  0  0
   61.8631   33.8787   45.3351 H   0  0  0  0  0  0  0  0  0  0  0  0
   64.0264   33.3103   46.4694 H   0  0  0  0  0  0  0  0  0  0  0  0
   62.0091   33.5308   50.2801 H   0  0  0  0  0  0  0  0  0  0  0  0
   59.8425   34.0989   49.1517 H   0  0  0  0  0  0  0  0  0  0  0  0
  1  2  1  0
  2  3  2  0
  3  4  1  0
  4  5  1  0
  5  6  1  0
  6  7  1  0
  6  8  1  0
  8  9  1  0
  9 10  1  0
 10 11  2  0
 11 12  1  0
 12 13  1  0
 13 14  1  0
 14 15  2  0
 15 16  1  0
 16 17  2  0
 17 18  1  0
 18 19  2  0
 18 20  1  0
 20 21  2  0
 21 22  1  0
 22 23  2  0
 23 24  1  0
 24 25  3  0
 23 26  1  0
 26 27  2  0
 16 28  1  0
 28 29  2  0
  5 30  2  0
 30  2  1  0
 29 10  1  0
 29 13  1  0
 27 20  1  0
  1 31  1  0
  1 32  1  0
  1 33  1  0
  6 34  1  1
  7 35  1  0
  7 36  1  0
  7 37  1  0
  8 38  1  0
  8 39  1  0
 11 40  1  0
 12 41  1  0
 14 42  1  0
 15 43  1  0
 21 44  1  0
 22 45  1  0
 26 46  1  0
 27 47  1  0
M  END
>  <smiles>  (85) 
Cc1noc(C(C)COc2c[nH]n3ccc(=NC(=O)c4ccc(C#N)cc4)nc23)n1

>  <score_type>  (85) 
oracle

>  <origin>  (85) 
adg

>  <m_score__min__energy>  (85) 
-10.140000000000001

>  <m_primary>  (85) 
energy

$$$$
86:0
     RDKit          3D

 46 49  0  0  0  0  0  0  0  0999 V2000
   57.6740   31.3790   43.1720 O   0  0  0  0  0  0  0  0  0  0  0  0
   57.5280   31.4770   44.4190 C   0  0  0  0  0  0  0  0  0  0  0  0
   56.6670   30.5480   45.0910 N   0  0  0  0  0  0  0  0  0  0  0  0
   57.0390   29.3760   45.5100 C   0  0  0  0  0  0  0  0  0  0  0  0
   56.3900   28.2270   45.2170 N   0  0  0  0  0  0  0  0  0  0  0  0
   56.9600   27.1520   45.8270 C   0  0  0  0  0  0  0  0  0  0  0  0
   56.4240   25.7910   45.6040 C   0  0  0  0  0  0  0  0  0  0  0  0
   57.1500   24.7990   44.9200 C   0  0  0  0  0  0  0  0  0  0  0  0
   56.5670   23.5470   44.7060 C   0  0  0  0  0  0  0  0  0  0  0  0
   55.2770   23.2900   45.1690 C   0  0  0  0  0  0  0  0  0  0  0  0
   54.5830   24.2950   45.8430 C   0  0  0  0  0  0  0  0  0  0  0  0
   55.1640   25.5070   46.0420 N   0  0  0  0  0  0  0  0  0  0  0  0
   58.0700   27.4580   46.6220 C   0  0  0  0  0  0  0  0  0  0  0  0
   58.3300   29.1210   46.5460 S   0  0  0  0  0  0  0  0  0  0  0  0
   58.2120   32.5670   45.1450 C   0  0  0  0  0  0  0  0  0  0  0  0
   58.4090   33.8100   44.5240 C   0  0  0  0  0  0  0  0  0  0  0  0
   59.0300   34.8520   45.2160 C   0  0  0  0  0  0  0  0  0  0  0  0
   59.4270   34.6730   46.5430 C   0  0  0  0  0  0  0  0  0  0  0  0
   59.2180   33.4430   47.1840 C   0  0  0  0  0  0  0  0  0  0  0  0
   59.6180   33.2590   48.8950 S   0  0  0  0  0  0  0  0  0  0  0  0
   58.5260   32.4700   49.5630 O   0  0  0  0  0  0  0  0  0  0  0  0
   59.6530   34.6190   49.5370 O   0  0  0  0  0  0  0  0  0  0  0  0
   61.1560   32.4680   49.1650 N   0  0  0  0  0  0  0  0  0  0  0  0
   61.3780   31.3170   48.2640 C   0  0  0  0  0  0  0  0  0  0  0  0
   62.3570   31.6340   47.1260 C   0  0  0  0  0  0  0  0  0  0  0  0
   62.2510   32.9910   46.7650 O   0  0  0  0  0  0  0  0  0  0  0  0
   62.7940   33.8000   47.7890 C   0  0  0  0  0  0  0  0  0  0  0  0
   62.2800   33.4230   49.1990 C   0  0  0  0  0  0  0  0  0  0  0  0
   58.6270   32.3860   46.4750 C   0  0  0  0  0  0  0  0  0  0  0  0
   58.1673   25.0069   44.5569 H   0  0  0  0  0  0  0  0  0  0  0  0
   57.1258   22.7642   44.1722 H   0  0  0  0  0  0  0  0  0  0  0  0
   54.8123   22.3066   45.0047 H   0  0  0  0  0  0  0  0  0  0  0  0
   53.5647   24.1061   46.2136 H   0  0  0  0  0  0  0  0  0  0  0  0
   58.6695   26.7372   47.1974 H   0  0  0  0  0  0  0  0  0  0  0  0
   58.0729   33.9642   43.4880 H   0  0  0  0  0  0  0  0  0  0  0  0
   59.2067   35.8153   44.7151 H   0  0  0  0  0  0  0  0  0  0  0  0
   59.9056   35.5001   47.0878 H   0  0  0  0  0  0  0  0  0  0  0  0
   61.7832   30.4817   48.8540 H   0  0  0  0  0  0  0  0  0  0  0  0
   60.4103   31.0619   47.8074 H   0  0  0  0  0  0  0  0  0  0  0  0
   63.3840   31.4248   47.4598 H   0  0  0  0  0  0  0  0  0  0  0  0
   62.1137   31.0080   46.2548 H   0  0  0  0  0  0  0  0  0  0  0  0
   63.8887   33.6934   47.7756 H   0  0  0  0  0  0  0  0  0  0  0  0
   62.4779   34.8348   47.5911 H   0  0  0  0  0  0  0  0  0  0  0  0
   63.1078   32.9705   49.7648 H   0  0  0  0  0  0  0  0  0  0  0  0
   61.9147   34.3453   49.6742 H   0  0  0  0  0  0  0  0  0  0  0  0
   58.4879   31.4102   46.9633 H   0  0  0  0  0  0  0  0  0  0  0  0
  1  2  2  0
  2  3  1  0
  3  4  2  3
  4  5  1  0
  5  6  1  0
  6  7  1  0
  7  8  2  0
  8  9  1  0
  9 10  2  0
 10 11  1  0
 11 12  2  0
  6 13  2  0
 13 14  1  0
  2 15  1  0
 15 16  2  0
 16 17  1  0
 17 18  2  0
 18 19  1  0
 19 20  1  0
 20 21  2  0
 20 22  2  0
 20 23  1  0
 23 24  1  0
 24 25  1  0
 25 26  1  0
 26 27  1  0
 27 28  1  0
 19 29  2  0
 14  4  1  0
 29 15  1  0
 12  7  1  0
 28 23  1  0
  8 30  1  0
  9 31  1  0
 10 32  1  0
 11 33  1  0
 13 34  1  0
 16 35  1  0
 17 36  1  0
 18 37  1  0
 24 38  1  0
 24 39  1  0
 25 40  1  0
 25 41  1  0
 27 42  1  0
 27 43  1  0
 28 44  1  0
 28 45  1  0
 29 46  1  0
M  CHG  1   5  -1
M  END
>  <UniqueID>  (86) 
82

>  <SMILES>  (86) 
O=C(N=c1[n-]c(-c2ccccn2)cs1)c1cccc(S(=O)(=O)N2CCOCC2)c1

>  <Energy>  (86) 
96.25010611756443

>  <Genealogy>  (86) 
O=C(N=c1[n-]c(-c2ccccn2)cs1)c1cccc(S(=O)(=O)N2CCOCC2)c1 (protonated)
O=C(N=c1[n-]c(-c2ccccn2)cs1)c1cccc(S(=O)(=O)N2CCOCC2)c1 (3D coordinates assigned)
O=C(N=c1[n-]c(-c2ccccn2)cs1)c1cccc(S(=O)(=O)N2CCOCC2)c1 (nonaromatic ring conformer: 96.25010611756443 kcal/mol)

>  <smiles>  (86) 
O=C(N=c1[nH]c(-c2ccccn2)cs1)c1cccc(S(=O)(=O)N2CCOCC2)c1

>  <score_type>  (86) 
oracle

>  <origin>  (86) 
adg

>  <m_score__min__energy>  (86) 
-11.24

>  <m_primary>  (86) 
energy

$$$$
87:0
     RDKit          3D

 42 44  0  0  0  0  0  0  0  0999 V2000
   53.1189   24.8204   44.2863 H   0  0  0  0  0  0  0  0  0  0  0  0
   53.3400   24.0970   45.0850 C   0  0  0  0  0  0  0  0  0  0  0  0
   52.7590   22.9800   45.0750 O   0  0  0  0  0  0  0  0  0  0  0  0
   54.2820   24.4550   46.1070 N   0  0  0  0  0  0  0  0  0  0  0  0
   55.4220   25.0640   45.9550 C   0  0  0  0  0  0  0  0  0  0  0  0
   55.5200   26.4090   45.9860 N   0  0  0  0  0  0  0  0  0  0  0  0
   56.8030   26.8280   45.8060 C   0  0  0  0  0  0  0  0  0  0  0  0
   57.1590   28.2880   45.7670 C   0  0  0  0  0  0  0  0  0  0  0  0
   56.2611   28.8777   46.0036 H   0  0  0  0  0  0  0  0  0  0  0  0
   57.9575   28.4599   46.5037 H   0  0  0  0  0  0  0  0  0  0  0  0
   57.6700   28.7080   44.4350 N   0  0  0  0  0  0  0  0  0  0  0  0
   58.0060   27.8420   43.9490 H   0  0  0  0  0  0  0  0  0  0  0  0
   58.8430   29.6150   44.5610 C   0  0  0  0  0  0  0  0  0  0  0  0
   59.3609   29.3857   45.5040 H   0  0  0  0  0  0  0  0  0  0  0  0
   59.4815   29.4425   43.6820 H   0  0  0  0  0  0  0  0  0  0  0  0
   58.4660   31.1120   44.5620 C   0  0  0  0  0  0  0  0  0  0  0  0
   59.1586   31.6596   45.2180 H   0  0  0  0  0  0  0  0  0  0  0  0
   58.5340   31.4974   43.5340 H   0  0  0  0  0  0  0  0  0  0  0  0
   57.0890   31.2950   45.0500 N   0  0  0  0  0  0  0  0  0  0  0  0
   56.7890   32.7250   45.2540 C   0  0  0  0  0  0  0  0  0  0  0  0
   56.6845   33.2159   44.2752 H   0  0  0  0  0  0  0  0  0  0  0  0
   55.8531   32.8137   45.8252 H   0  0  0  0  0  0  0  0  0  0  0  0
   57.8970   33.3930   46.0280 C   0  0  0  0  0  0  0  0  0  0  0  0
   58.1910   32.9950   47.3420 C   0  0  0  0  0  0  0  0  0  0  0  0
   57.5929   32.2074   47.8237 H   0  0  0  0  0  0  0  0  0  0  0  0
   59.2430   33.5980   48.0400 C   0  0  0  0  0  0  0  0  0  0  0  0
   59.4676   33.2867   49.0709 H   0  0  0  0  0  0  0  0  0  0  0  0
   60.0090   34.5950   47.4300 C   0  0  0  0  0  0  0  0  0  0  0  0
   60.8345   35.0690   47.9812 H   0  0  0  0  0  0  0  0  0  0  0  0
   59.7260   34.9900   46.1190 C   0  0  0  0  0  0  0  0  0  0  0  0
   60.3305   35.7734   45.6385 H   0  0  0  0  0  0  0  0  0  0  0  0
   58.6750   34.3900   45.4180 C   0  0  0  0  0  0  0  0  0  0  0  0
   58.4572   34.7002   44.3854 H   0  0  0  0  0  0  0  0  0  0  0  0
   56.1200   30.6660   44.1240 C   0  0  0  0  0  0  0  0  0  0  0  0
   55.1755   30.4965   44.6617 H   0  0  0  0  0  0  0  0  0  0  0  0
   55.9796   31.3457   43.2706 H   0  0  0  0  0  0  0  0  0  0  0  0
   56.6280   29.3150   43.5740 C   0  0  0  0  0  0  0  0  0  0  0  0
   55.7781   28.6200   43.5053 H   0  0  0  0  0  0  0  0  0  0  0  0
   57.0771   29.5031   42.5876 H   0  0  0  0  0  0  0  0  0  0  0  0
   57.7390   25.8110   45.6220 C   0  0  0  0  0  0  0  0  0  0  0  0
   58.8182   25.9462   45.4576 H   0  0  0  0  0  0  0  0  0  0  0  0
   56.9260   24.3420   45.6960 S   0  0  0  0  0  0  0  0  0  0  0  0
  1  2  1  0
  2  3  2  0
  2  4  1  0
  4  5  2  0
  5  6  1  0
  6  7  1  0
  7  8  1  0
  8  9  1  0
  8 10  1  0
  8 11  1  0
 11 12  1  0
 11 13  1  0
 13 14  1  0
 13 15  1  0
 13 16  1  0
 16 17  1  0
 16 18  1  0
 16 19  1  0
 19 20  1  0
 20 21  1  0
 20 22  1  0
 20 23  1  0
 23 24  2  0
 24 25  1  0
 24 26  1  0
 26 27  1  0
 26 28  2  0
 28 29  1  0
 28 30  1  0
 30 31  1  0
 30 32  2  0
 32 33  1  0
 19 34  1  0
 34 35  1  0
 34 36  1  0
 34 37  1  0
 37 38  1  0
 37 39  1  0
  7 40  2  0
 40 41  1  0
 40 42  1  0
 42  5  1  0
 37 11  1  0
 32 23  1  0
M  CHG  2   6  -1  11   1
M  END
>  <UniqueID>  (87) 
83

>  <SMILES>  (87) 
O=C/N=c1/[n-]c(C[NH+]2CCN(Cc3ccccc3)CC2)cs1

>  <Energy>  (87) 
87.37315874433733

>  <Genealogy>  (87) 
O=CN=c1[n-]c(C[NH+]2CCN(Cc3ccccc3)CC2)cs1 (protonated)
O=C/N=c1/[n-]c(C[NH+]2CCN(Cc3ccccc3)CC2)cs1 (cis-trans isomerization)
O=C/N=c1/[n-]c(C[NH+]2CCN(Cc3ccccc3)CC2)cs1 (3D coordinates assigned)
O=C/N=c1/[n-]c(C[NH+]2CCN(Cc3ccccc3)CC2)cs1 (nonaromatic ring conformer: 87.37315874433733 kcal/mol)

>  <smiles>  (87) 
O=CN=c1[nH]c(CN2CCN(Cc3ccccc3)CC2)cs1

>  <score_type>  (87) 
oracle

>  <origin>  (87) 
adg

>  <m_score__min__energy>  (87) 
-8.6099999999999994

>  <m_primary>  (87) 
energy

$$$$
88:0
     RDKit          3D

 36 38  0  0  0  0  0  0  0  0999 V2000
   54.4100   26.2370   45.9830 N   0  0  0  0  0  0  0  0  0  0  0  0
   55.0920   25.0280   45.6600 C   0  0  0  0  0  0  0  0  0  0  0  0
   54.4240   24.0210   45.3000 O   0  0  0  0  0  0  0  0  0  0  0  0
   56.5660   24.9460   45.7350 C   0  0  0  0  0  0  0  0  0  0  0  0
   57.2700   23.7390   45.5700 C   0  0  0  0  0  0  0  0  0  0  0  0
   58.6470   23.8660   45.6960 C   0  0  0  0  0  0  0  0  0  0  0  0
   59.0050   25.4760   46.0190 S   0  0  0  0  0  0  0  0  0  0  0  0
   57.4150   26.0290   45.9740 C   0  0  0  0  0  0  0  0  0  0  0  0
   56.9820   27.3620   46.2780 N   0  0  0  0  0  0  0  0  0  0  0  0
   56.7530   28.4260   45.3470 C   0  0  0  0  0  0  0  0  0  0  0  0
   55.5690   28.8090   45.1480 O   0  0  0  0  0  0  0  0  0  0  0  0
   57.8800   29.0860   44.5980 C   0  0  0  0  0  0  0  0  0  0  0  0
   58.2460   30.3560   45.2270 N   0  0  0  0  0  0  0  0  0  0  0  0
   57.5220   31.4970   45.2360 C   0  0  0  0  0  0  0  0  0  0  0  0
   56.2520   31.6220   44.6860 O   0  0  0  0  0  0  0  0  0  0  0  0
   58.2270   32.5080   45.8590 C   0  0  0  0  0  0  0  0  0  0  0  0
   59.4190   31.9570   46.2730 C   0  0  0  0  0  0  0  0  0  0  0  0
   59.4140   30.6450   45.8430 C   0  0  0  0  0  0  0  0  0  0  0  0
   60.4580   29.7420   46.0020 O   0  0  0  0  0  0  0  0  0  0  0  0
   60.5200   32.7360   46.9220 C   0  0  0  0  0  0  0  0  0  0  0  0
   59.9680   34.0510   47.5130 C   0  0  0  0  0  0  0  0  0  0  0  0
   59.0310   34.7750   46.5220 C   0  0  0  0  0  0  0  0  0  0  0  0
   57.8040   33.9140   46.1590 C   0  0  0  0  0  0  0  0  0  0  0  0
   54.9260   27.0580   46.3710 H   0  0  0  0  0  0  0  0  0  0  0  0
   56.7737   22.7801   45.3599 H   0  0  0  0  0  0  0  0  0  0  0  0
   59.3795   23.0509   45.6006 H   0  0  0  0  0  0  0  0  0  0  0  0
   58.7538   28.4179   44.5984 H   0  0  0  0  0  0  0  0  0  0  0  0
   57.5512   29.2839   43.5671 H   0  0  0  0  0  0  0  0  0  0  0  0
   60.9643   32.1339   47.7283 H   0  0  0  0  0  0  0  0  0  0  0  0
   61.2831   32.9752   46.1667 H   0  0  0  0  0  0  0  0  0  0  0  0
   59.4068   33.8212   48.4308 H   0  0  0  0  0  0  0  0  0  0  0  0
   60.8192   34.7144   47.7263 H   0  0  0  0  0  0  0  0  0  0  0  0
   58.6845   35.7130   46.9804 H   0  0  0  0  0  0  0  0  0  0  0  0
   59.5960   34.9707   45.5987 H   0  0  0  0  0  0  0  0  0  0  0  0
   57.1009   33.9090   47.0049 H   0  0  0  0  0  0  0  0  0  0  0  0
   57.3183   34.3398   45.2686 H   0  0  0  0  0  0  0  0  0  0  0  0
  1  2  1  0
  2  3  2  0
  2  4  1  0
  4  5  1  0
  5  6  2  0
  6  7  1  0
  7  8  1  0
  8  9  1  0
  9 10  1  0
 10 11  2  0
 10 12  1  0
 12 13  1  0
 13 14  1  0
 14 15  1  0
 14 16  2  0
 16 17  1  0
 17 18  2  0
 18 19  1  0
 17 20  1  0
 20 21  1  0
 21 22  1  0
 22 23  1  0
  8  4  2  0
 18 13  1  0
 23 16  1  0
  1 24  1  0
  5 25  1  0
  6 26  1  0
 12 27  1  0
 12 28  1  0
 20 29  1  0
 20 30  1  0
 21 31  1  0
 21 32  1  0
 22 33  1  0
 22 34  1  0
 23 35  1  0
 23 36  1  0
M  CHG  4   1  -1   9  -1  15  -1  19  -1
M  END
>  <UniqueID>  (88) 
84

>  <SMILES>  (88) 
[NH-]C(=O)c1ccsc1[N-]C(=O)Cn1c([O-])c2c(c1[O-])CCCC2

>  <Energy>  (88) 
94.95500903168617

>  <Genealogy>  (88) 
[NH-]C(=O)c1ccsc1[N-]C(=O)Cn1c([O-])c2c(c1[O-])CCCC2 (protonated)
[NH-]C(=O)c1ccsc1[N-]C(=O)Cn1c([O-])c2c(c1[O-])CCCC2 (3D coordinates assigned)
[NH-]C(=O)c1ccsc1[N-]C(=O)Cn1c([O-])c2c(c1[O-])CCCC2 (nonaromatic ring conformer: 94.95500903168617 kcal/mol)

>  <smiles>  (88) 
NC(=O)c1ccsc1NC(=O)Cn1c(O)c2c(c1O)CCCC2

>  <score_type>  (88) 
oracle

>  <origin>  (88) 
adg

>  <m_score__min__energy>  (88) 
-16.050000000000001

>  <m_primary>  (88) 
energy

$$$$
89:0
     RDKit          3D

 39 40  0  0  0  0  0  0  0  0999 V2000
   56.2650   29.9850   44.8690 O   0  0  0  0  0  0  0  0  0  0  0  0
   57.3740   30.5370   44.6310 C   0  0  0  0  0  0  0  0  0  0  0  0
   57.3790   31.9390   44.0780 C   0  0  0  0  0  0  0  0  0  0  0  0
   58.0140   32.9100   45.0380 C   0  0  0  0  0  0  0  0  0  0  0  0
   58.8420   33.9410   44.5560 C   0  0  0  0  0  0  0  0  0  0  0  0
   59.4560   34.8260   45.4470 C   0  0  0  0  0  0  0  0  0  0  0  0
   59.2440   34.6970   46.8230 C   0  0  0  0  0  0  0  0  0  0  0  0
   58.4160   33.6810   47.3110 C   0  0  0  0  0  0  0  0  0  0  0  0
   57.8100   32.7840   46.4250 C   0  0  0  0  0  0  0  0  0  0  0  0
   58.5760   29.7890   44.8730 N   0  0  0  0  0  0  0  0  0  0  0  0
   59.6870   30.1870   45.7370 C   0  0  0  0  0  0  0  0  0  0  0  0
   60.3010   28.9640   46.4190 C   0  0  0  0  0  0  0  0  0  0  0  0
   59.0680   27.9710   47.2520 S   0  0  0  0  0  0  0  0  0  0  0  0
   58.4720   28.7910   48.3620 O   0  0  0  0  0  0  0  0  0  0  0  0
   59.6720   26.7280   47.8410 O   0  0  0  0  0  0  0  0  0  0  0  0
   57.8070   27.5430   46.1370 N   0  0  0  0  0  0  0  0  0  0  0  0
   57.4690   26.1830   45.8140 C   0  0  0  0  0  0  0  0  0  0  0  0
   56.1150   25.8000   45.7720 C   0  0  0  0  0  0  0  0  0  0  0  0
   55.1360   26.7130   46.0000 F   0  0  0  0  0  0  0  0  0  0  0  0
   55.7640   24.4760   45.4880 C   0  0  0  0  0  0  0  0  0  0  0  0
   56.7540   23.5210   45.2540 C   0  0  0  0  0  0  0  0  0  0  0  0
   58.1010   23.8860   45.3050 C   0  0  0  0  0  0  0  0  0  0  0  0
   58.4630   25.2070   45.5830 C   0  0  0  0  0  0  0  0  0  0  0  0
   59.7790   25.5090   45.6710 F   0  0  0  0  0  0  0  0  0  0  0  0
   57.9439   31.9487   43.1342 H   0  0  0  0  0  0  0  0  0  0  0  0
   56.3362   32.2485   43.9142 H   0  0  0  0  0  0  0  0  0  0  0  0
   59.0066   34.0508   43.4739 H   0  0  0  0  0  0  0  0  0  0  0  0
   60.1074   35.6257   45.0647 H   0  0  0  0  0  0  0  0  0  0  0  0
   59.7285   35.3947   47.5218 H   0  0  0  0  0  0  0  0  0  0  0  0
   58.2411   33.5871   48.3929 H   0  0  0  0  0  0  0  0  0  0  0  0
   57.1715   31.9770   46.8137 H   0  0  0  0  0  0  0  0  0  0  0  0
   60.4562   30.6871   45.1301 H   0  0  0  0  0  0  0  0  0  0  0  0
   59.3084   30.8721   46.5098 H   0  0  0  0  0  0  0  0  0  0  0  0
   60.7996   28.3460   45.6578 H   0  0  0  0  0  0  0  0  0  0  0  0
   61.0171   29.3201   47.1742 H   0  0  0  0  0  0  0  0  0  0  0  0
   57.4550   28.3090   45.5180 H   0  0  0  0  0  0  0  0  0  0  0  0
   54.7035   24.1866   45.4490 H   0  0  0  0  0  0  0  0  0  0  0  0
   56.4737   22.4813   45.0295 H   0  0  0  0  0  0  0  0  0  0  0  0
   58.8803   23.1307   45.1256 H   0  0  0  0  0  0  0  0  0  0  0  0
  1  2  2  0
  2  3  1  0
  3  4  1  0
  4  5  2  0
  5  6  1  0
  6  7  2  0
  7  8  1  0
  8  9  2  0
  2 10  1  0
 10 11  1  0
 11 12  1  0
 12 13  1  0
 13 14  2  0
 13 15  2  0
 13 16  1  0
 16 17  1  0
 17 18  2  0
 18 19  1  0
 18 20  1  0
 20 21  2  0
 21 22  1  0
 22 23  2  0
 23 24  1  0
  9  4  1  0
 23 17  1  0
  3 25  1  0
  3 26  1  0
  5 27  1  0
  6 28  1  0
  7 29  1  0
  8 30  1  0
  9 31  1  0
 11 32  1  0
 11 33  1  0
 12 34  1  0
 12 35  1  0
 16 36  1  0
 20 37  1  0
 21 38  1  0
 22 39  1  0
M  CHG  1  10  -1
M  END
>  <UniqueID>  (89) 
85

>  <SMILES>  (89) 
O=C(Cc1ccccc1)[N-]CCS(=O)(=O)Nc1c(F)cccc1F

>  <Energy>  (89) 
34.98306510835374

>  <Genealogy>  (89) 
O=C(Cc1ccccc1)[N-]CCS(=O)(=O)Nc1c(F)cccc1F (protonated)
O=C(Cc1ccccc1)[N-]CCS(=O)(=O)Nc1c(F)cccc1F (3D coordinates assigned)
O=C(Cc1ccccc1)[N-]CCS(=O)(=O)Nc1c(F)cccc1F (optimized conformer: 34.98306510835374 kcal/mol)

>  <smiles>  (89) 
O=C(Cc1ccccc1)NCCS(=O)(=O)Nc1c(F)cccc1F

>  <score_type>  (89) 
oracle

>  <origin>  (89) 
adg

>  <m_score__min__energy>  (89) 
-10.35

>  <m_primary>  (89) 
energy

$$$$
90:0
     RDKit          3D

 42 43  0  0  0  0  0  0  0  0999 V2000
   55.1430   27.5080   45.3100 H   0  0  0  0  0  0  0  0  0  0  0  0
   55.6500   28.3840   45.2580 O   0  0  0  0  0  0  0  0  0  0  0  0
   57.0010   28.4870   45.5880 C   0  0  0  0  0  0  0  0  0  0  0  0
   57.6410   27.3820   46.1700 C   0  0  0  0  0  0  0  0  0  0  0  0
   56.8820   26.2260   46.4100 O   0  0  0  0  0  0  0  0  0  0  0  0
   56.4080   25.3390   45.3990 C   0  0  0  0  0  0  0  0  0  0  0  0
   56.9003   24.3612   45.5062 H   0  0  0  0  0  0  0  0  0  0  0  0
   56.6371   25.7521   44.4056 H   0  0  0  0  0  0  0  0  0  0  0  0
   54.9330   25.1750   45.5480 C   0  0  0  0  0  0  0  0  0  0  0  0
   54.2140   26.1470   45.9020 O   0  0  0  0  0  0  0  0  0  0  0  0
   54.3510   23.9340   45.3260 O   0  0  0  0  0  0  0  0  0  0  0  0
   59.0050   27.4640   46.4970 C   0  0  0  0  0  0  0  0  0  0  0  0
   59.5160   26.5973   46.9416 H   0  0  0  0  0  0  0  0  0  0  0  0
   59.7120   28.6420   46.2590 C   0  0  0  0  0  0  0  0  0  0  0  0
   60.7791   28.7020   46.5192 H   0  0  0  0  0  0  0  0  0  0  0  0
   59.0720   29.7460   45.6920 C   0  0  0  0  0  0  0  0  0  0  0  0
   59.6355   30.6739   45.5143 H   0  0  0  0  0  0  0  0  0  0  0  0
   57.7100   29.6770   45.3470 C   0  0  0  0  0  0  0  0  0  0  0  0
   57.0280   30.7620   44.7690 O   0  0  0  0  0  0  0  0  0  0  0  0
   57.5340   31.5930   43.7210 C   0  0  0  0  0  0  0  0  0  0  0  0
   58.5851   31.3324   43.5281 H   0  0  0  0  0  0  0  0  0  0  0  0
   56.9305   31.4307   42.8158 H   0  0  0  0  0  0  0  0  0  0  0  0
   57.4470   33.0450   44.1100 C   0  0  0  0  0  0  0  0  0  0  0  0
   56.5516   33.6139   43.8191 H   0  0  0  0  0  0  0  0  0  0  0  0
   58.4090   33.6740   44.7930 C   0  0  0  0  0  0  0  0  0  0  0  0
   59.0251   34.4201   44.2697 H   0  0  0  0  0  0  0  0  0  0  0  0
   58.6720   33.4160   46.1830 C   0  0  0  0  0  0  0  0  0  0  0  0
   58.8950   33.1950   47.3480 C   0  0  0  0  0  0  0  0  0  0  0  0
   59.1650   32.9250   48.7360 C   0  0  0  0  0  0  0  0  0  0  0  0
   59.6740   33.9410   49.5530 C   0  0  0  0  0  0  0  0  0  0  0  0
   59.8659   34.9421   49.1395 H   0  0  0  0  0  0  0  0  0  0  0  0
   59.9360   33.6720   50.8980 C   0  0  0  0  0  0  0  0  0  0  0  0
   60.3375   34.4635   51.5479 H   0  0  0  0  0  0  0  0  0  0  0  0
   59.6960   32.4340   51.4060 N   0  0  0  0  0  0  0  0  0  0  0  0
   59.2130   31.4210   50.6360 C   0  0  0  0  0  0  0  0  0  0  0  0
   58.9310   30.0880   51.2700 C   0  0  0  0  0  0  0  0  0  0  0  0
   59.5359   29.3144   50.7743 H   0  0  0  0  0  0  0  0  0  0  0  0
   59.1873   30.1368   52.3386 H   0  0  0  0  0  0  0  0  0  0  0  0
   57.5740   29.7690   51.1390 O   0  0  0  0  0  0  0  0  0  0  0  0
   57.3820   29.7530   50.1650 H   0  0  0  0  0  0  0  0  0  0  0  0
   58.9320   31.6500   49.2780 C   0  0  0  0  0  0  0  0  0  0  0  0
   58.4240   30.6280   48.4790 O   0  0  0  0  0  0  0  0  0  0  0  0
  1  2  1  0
  2  3  1  0
  3  4  2  0
  4  5  1  0
  5  6  1  0
  6  7  1  0
  6  8  1  0
  6  9  1  0
  9 10  2  0
  9 11  1  0
  4 12  1  0
 12 13  1  0
 12 14  2  0
 14 15  1  0
 14 16  1  0
 16 17  1  0
 16 18  2  0
 18 19  1  0
 19 20  1  0
 20 21  1  0
 20 22  1  0
 20 23  1  0
 23 24  1  0
 23 25  2  0
 25 26  1  0
 25 27  1  0
 27 28  3  0
 28 29  1  0
 29 30  2  0
 30 31  1  0
 30 32  1  0
 32 33  1  0
 32 34  2  0
 34 35  1  0
 35 36  1  0
 36 37  1  0
 36 38  1  0
 36 39  1  0
 39 40  1  0
 35 41  2  0
 41 42  1  0
 18  3  1  0
 41 29  1  0
M  CHG  2  11  -1  42  -1
M  END
>  <UniqueID>  (90) 
86

>  <SMILES>  (90) 
O=C([O-])COc1cccc(OC/C=C\C#Cc2ccnc(CO)c2[O-])c1O

>  <Energy>  (90) 
37.142967162498046

>  <Genealogy>  (90) 
O=C([O-])COc1cccc(OCC=CC#Cc2ccnc(CO)c2[O-])c1O (protonated)
O=C([O-])COc1cccc(OC/C=C\C#Cc2ccnc(CO)c2[O-])c1O (cis-trans isomerization)
O=C([O-])COc1cccc(OC/C=C\C#Cc2ccnc(CO)c2[O-])c1O (3D coordinates assigned)
O=C([O-])COc1cccc(OC/C=C\C#Cc2ccnc(CO)c2[O-])c1O (optimized conformer: 37.142967162498046 kcal/mol)

>  <smiles>  (90) 
O=C(O)COc1cccc(OCC=CC#Cc2ccnc(CO)c2O)c1O

>  <score_type>  (90) 
oracle

>  <origin>  (90) 
adg

>  <m_score__min__energy>  (90) 
-11.720000000000001

>  <m_primary>  (90) 
energy

$$$$
91:0
     RDKit          3D

 51 53  0  0  0  0  0  0  0  0999 V2000
   59.9440   29.9210   48.2070 C   0  0  0  0  0  0  0  0  0  0  0  0
   60.0480   31.2130   47.6180 O   0  0  0  0  0  0  0  0  0  0  0  0
   61.2360   31.9570   47.5230 C   0  0  0  0  0  0  0  0  0  0  0  0
   62.4090   31.5610   48.1960 C   0  0  0  0  0  0  0  0  0  0  0  0
   63.5640   32.3420   48.1270 C   0  0  0  0  0  0  0  0  0  0  0  0
   63.5650   33.5280   47.3930 C   0  0  0  0  0  0  0  0  0  0  0  0
   62.4120   33.9310   46.7150 C   0  0  0  0  0  0  0  0  0  0  0  0
   61.2470   33.1450   46.7570 C   0  0  0  0  0  0  0  0  0  0  0  0
   60.0460   33.5980   46.0200 C   0  0  0  0  0  0  0  0  0  0  0  0
   59.9490   34.8070   45.6770 O   0  0  0  0  0  0  0  0  0  0  0  0
   59.0090   32.6700   45.6660 N   0  0  0  0  0  0  0  0  0  0  0  0
   57.6740   33.1030   45.2560 C   0  0  0  0  0  0  0  0  0  0  0  0
   56.9130   31.9580   44.5890 C   0  0  0  0  0  0  0  0  0  0  0  0
   57.1970   30.7050   45.2810 N   0  0  0  0  0  0  0  0  0  0  0  0
   58.2150   29.7610   44.9240 C   0  0  0  0  0  0  0  0  0  0  0  0
   59.1220   30.1280   44.1300 O   0  0  0  0  0  0  0  0  0  0  0  0
   58.2140   28.3660   45.4100 C   0  0  0  0  0  0  0  0  0  0  0  0
   59.4350   27.7100   45.6340 C   0  0  0  0  0  0  0  0  0  0  0  0
   59.4550   26.4060   46.1360 C   0  0  0  0  0  0  0  0  0  0  0  0
   58.2580   25.7470   46.4220 C   0  0  0  0  0  0  0  0  0  0  0  0
   57.0330   26.3830   46.2020 C   0  0  0  0  0  0  0  0  0  0  0  0
   55.8210   25.6880   46.5280 N   0  0  0  0  0  0  0  0  0  0  0  0
   55.0690   24.8540   45.6350 C   0  0  0  0  0  0  0  0  0  0  0  0
   53.8240   25.0330   45.5500 O   0  0  0  0  0  0  0  0  0  0  0  0
   55.7020   23.7590   44.8610 C   0  0  0  0  0  0  0  0  0  0  0  0
   56.7860   23.0460   45.3960 C   0  0  0  0  0  0  0  0  0  0  0  0
   57.3990   22.0360   44.6510 C   0  0  0  0  0  0  0  0  0  0  0  0
   56.9230   21.7450   43.3740 C   0  0  0  0  0  0  0  0  0  0  0  0
   55.8820   22.4490   42.8580 N   0  0  0  0  0  0  0  0  0  0  0  0
   55.2710   23.4400   43.5610 C   0  0  0  0  0  0  0  0  0  0  0  0
   57.0140   27.7050   45.7220 C   0  0  0  0  0  0  0  0  0  0  0  0
   59.9516   30.0159   49.3029 H   0  0  0  0  0  0  0  0  0  0  0  0
   59.0048   29.4465   47.8866 H   0  0  0  0  0  0  0  0  0  0  0  0
   60.7953   29.3024   47.8866 H   0  0  0  0  0  0  0  0  0  0  0  0
   62.4146   30.6291   48.7804 H   0  0  0  0  0  0  0  0  0  0  0  0
   64.4755   32.0213   48.6527 H   0  0  0  0  0  0  0  0  0  0  0  0
   64.4738   34.1461   47.3480 H   0  0  0  0  0  0  0  0  0  0  0  0
   62.4156   34.8709   46.1436 H   0  0  0  0  0  0  0  0  0  0  0  0
   59.2180   31.6460   45.6680 H   0  0  0  0  0  0  0  0  0  0  0  0
   57.1158   33.4389   46.1423 H   0  0  0  0  0  0  0  0  0  0  0  0
   57.7768   33.9260   44.5335 H   0  0  0  0  0  0  0  0  0  0  0  0
   55.8331   32.1628   44.6333 H   0  0  0  0  0  0  0  0  0  0  0  0
   57.2319   31.8732   43.5397 H   0  0  0  0  0  0  0  0  0  0  0  0
   60.3813   28.2255   45.4131 H   0  0  0  0  0  0  0  0  0  0  0  0
   60.4157   25.8979   46.3061 H   0  0  0  0  0  0  0  0  0  0  0  0
   58.2790   24.7226   46.8223 H   0  0  0  0  0  0  0  0  0  0  0  0
   57.1540   23.2833   46.4051 H   0  0  0  0  0  0  0  0  0  0  0  0
   58.2489   21.4759   45.0681 H   0  0  0  0  0  0  0  0  0  0  0  0
   57.3909   20.9440   42.7829 H   0  0  0  0  0  0  0  0  0  0  0  0
   54.4351   23.9951   43.1102 H   0  0  0  0  0  0  0  0  0  0  0  0
   56.0535   28.2247   45.5900 H   0  0  0  0  0  0  0  0  0  0  0  0
  1  2  1  0
  2  3  1  0
  3  4  2  0
  4  5  1  0
  5  6  2  0
  6  7  1  0
  7  8  2  0
  8  9  1  0
  9 10  2  0
  9 11  1  0
 11 12  1  0
 12 13  1  0
 13 14  1  0
 14 15  1  0
 15 16  2  0
 15 17  1  0
 17 18  2  0
 18 19  1  0
 19 20  2  0
 20 21  1  0
 21 22  1  0
 22 23  1  0
 23 24  2  0
 23 25  1  0
 25 26  2  0
 26 27  1  0
 27 28  2  0
 28 29  1  0
 29 30  2  0
 21 31  2  0
  8  3  1  0
 31 17  1  0
 30 25  1  0
  1 32  1  0
  1 33  1  0
  1 34  1  0
  4 35  1  0
  5 36  1  0
  6 37  1  0
  7 38  1  0
 11 39  1  0
 12 40  1  0
 12 41  1  0
 13 42  1  0
 13 43  1  0
 18 44  1  0
 19 45  1  0
 20 46  1  0
 26 47  1  0
 27 48  1  0
 28 49  1  0
 30 50  1  0
 31 51  1  0
M  CHG  2  14  -1  22  -1
M  END
>  <UniqueID>  (91) 
87

>  <SMILES>  (91) 
COc1ccccc1C(=O)NCC[N-]C(=O)c1cccc([N-]C(=O)c2cccnc2)c1

>  <Energy>  (91) 
60.450459893989034

>  <Genealogy>  (91) 
COc1ccccc1C(=O)NCC[N-]C(=O)c1cccc([N-]C(=O)c2cccnc2)c1 (protonated)
COc1ccccc1C(=O)NCC[N-]C(=O)c1cccc([N-]C(=O)c2cccnc2)c1 (3D coordinates assigned)
COc1ccccc1C(=O)NCC[N-]C(=O)c1cccc([N-]C(=O)c2cccnc2)c1 (optimized conformer: 60.450459893989034 kcal/mol)

>  <smiles>  (91) 
COc1ccccc1C(=O)NCCNC(=O)c1cccc(NC(=O)c2cccnc2)c1

>  <score_type>  (91) 
oracle

>  <origin>  (91) 
adg

>  <m_score__min__energy>  (91) 
-11.81

>  <m_primary>  (91) 
energy

$$$$
92:0
     RDKit          3D

 43 45  0  0  0  0  0  0  0  0999 V2000
   57.3860   32.6330   47.4070 O   0  0  0  0  0  0  0  0  0  0  0  0
   58.3150   32.8470   46.5800 C   0  0  0  0  0  0  0  0  0  0  0  0
   58.0660   32.6040   45.1110 C   0  0  0  0  0  0  0  0  0  0  0  0
   56.9230   31.6090   44.8700 C   0  0  0  0  0  0  0  0  0  0  0  0
   57.4280   30.1910   44.9580 C   0  0  0  0  0  0  0  0  0  0  0  0
   58.8090   29.9380   44.9090 C   0  0  0  0  0  0  0  0  0  0  0  0
   59.2940   28.6320   45.0190 C   0  0  0  0  0  0  0  0  0  0  0  0
   58.4060   27.5680   45.1910 C   0  0  0  0  0  0  0  0  0  0  0  0
   57.0320   27.8090   45.2560 C   0  0  0  0  0  0  0  0  0  0  0  0
   56.5380   29.1140   45.1460 C   0  0  0  0  0  0  0  0  0  0  0  0
   55.1660   29.3320   45.2270 O   0  0  0  0  0  0  0  0  0  0  0  0
   59.6060   33.2740   47.0640 N   0  0  0  0  0  0  0  0  0  0  0  0
   60.8210   33.1110   46.2480 C   0  0  0  0  0  0  0  0  0  0  0  0
   62.0240   32.7340   47.1260 C   0  0  0  0  0  0  0  0  0  0  0  0
   62.0710   33.5210   48.3660 N   0  0  0  0  0  0  0  0  0  0  0  0
   63.1480   33.2970   49.2950 C   0  0  0  0  0  0  0  0  0  0  0  0
   62.9990   33.6660   50.5980 N   0  0  0  0  0  0  0  0  0  0  0  0
   63.9960   33.4820   51.5010 C   0  0  0  0  0  0  0  0  0  0  0  0
   65.2000   32.9110   51.0970 C   0  0  0  0  0  0  0  0  0  0  0  0
   65.3500   32.5530   49.7590 C   0  0  0  0  0  0  0  0  0  0  0  0
   64.3300   32.7540   48.8810 N   0  0  0  0  0  0  0  0  0  0  0  0
   61.0640   34.5610   48.6040 C   0  0  0  0  0  0  0  0  0  0  0  0
   59.6700   33.9870   48.3500 C   0  0  0  0  0  0  0  0  0  0  0  0
   57.8086   33.5607   44.6330 H   0  0  0  0  0  0  0  0  0  0  0  0
   58.9826   32.1735   44.6814 H   0  0  0  0  0  0  0  0  0  0  0  0
   56.1430   31.7630   45.6302 H   0  0  0  0  0  0  0  0  0  0  0  0
   56.5115   31.7777   43.8639 H   0  0  0  0  0  0  0  0  0  0  0  0
   59.5133   30.7735   44.7832 H   0  0  0  0  0  0  0  0  0  0  0  0
   60.3763   28.4419   44.9701 H   0  0  0  0  0  0  0  0  0  0  0  0
   58.7888   26.5402   45.2753 H   0  0  0  0  0  0  0  0  0  0  0  0
   56.3348   26.9695   45.3943 H   0  0  0  0  0  0  0  0  0  0  0  0
   60.6530   32.3160   45.5065 H   0  0  0  0  0  0  0  0  0  0  0  0
   61.0377   34.0652   45.7455 H   0  0  0  0  0  0  0  0  0  0  0  0
   61.9536   31.6673   47.3853 H   0  0  0  0  0  0  0  0  0  0  0  0
   62.9400   32.9461   46.5550 H   0  0  0  0  0  0  0  0  0  0  0  0
   63.8530   33.7833   52.5492 H   0  0  0  0  0  0  0  0  0  0  0  0
   66.0143   32.7463   51.8180 H   0  0  0  0  0  0  0  0  0  0  0  0
   66.2939   32.1074   49.4120 H   0  0  0  0  0  0  0  0  0  0  0  0
   64.4850   32.5160   47.8770 H   0  0  0  0  0  0  0  0  0  0  0  0
   61.1338   34.9076   49.6456 H   0  0  0  0  0  0  0  0  0  0  0  0
   61.2421   35.4069   47.9238 H   0  0  0  0  0  0  0  0  0  0  0  0
   59.4190   33.2863   49.1600 H   0  0  0  0  0  0  0  0  0  0  0  0
   58.9539   34.8214   48.3178 H   0  0  0  0  0  0  0  0  0  0  0  0
  1  2  2  0
  2  3  1  0
  3  4  1  0
  4  5  1  0
  5  6  2  0
  6  7  1  0
  7  8  2  0
  8  9  1  0
  9 10  2  0
 10 11  1  0
  2 12  1  0
 12 13  1  0
 13 14  1  0
 14 15  1  0
 15 16  1  0
 16 17  2  0
 17 18  1  0
 18 19  2  0
 19 20  1  0
 20 21  2  0
 15 22  1  0
 22 23  1  0
 10  5  1  0
 23 12  1  0
 21 16  1  0
  3 24  1  0
  3 25  1  0
  4 26  1  0
  4 27  1  0
  6 28  1  0
  7 29  1  0
  8 30  1  0
  9 31  1  0
 13 32  1  0
 13 33  1  0
 14 34  1  0
 14 35  1  0
 18 36  1  0
 19 37  1  0
 20 38  1  0
 21 39  1  0
 22 40  1  0
 22 41  1  0
 23 42  1  0
 23 43  1  0
M  CHG  2  11  -1  21   1
M  END
>  <UniqueID>  (92) 
88

>  <SMILES>  (92) 
O=C(CCc1ccccc1[O-])N1CCN(c2nccc[nH+]2)CC1

>  <Energy>  (92) 
47.39326660436405

>  <Genealogy>  (92) 
O=C(CCc1ccccc1[O-])N1CCN(c2nccc[nH+]2)CC1 (protonated)
O=C(CCc1ccccc1[O-])N1CCN(c2nccc[nH+]2)CC1 (3D coordinates assigned)
O=C(CCc1ccccc1[O-])N1CCN(c2nccc[nH+]2)CC1 (nonaromatic ring conformer: 47.39326660436405 kcal/mol)

>  <smiles>  (92) 
O=C(CCc1ccccc1O)N1CCN(c2ncccn2)CC1

>  <score_type>  (92) 
oracle

>  <origin>  (92) 
adg

>  <m_score__min__energy>  (92) 
-9.9199999999999999

>  <m_primary>  (92) 
energy

$$$$
93:0
     RDKit          3D

 54 56  0  0  0  0  0  0  0  0999 V2000
   56.1890   22.4360   48.3410 C   0  0  0  0  0  0  0  0  0  0  0  0
   57.3580   21.8070   47.8660 O   0  0  0  0  0  0  0  0  0  0  0  0
   57.0300   20.9720   46.7730 C   0  0  0  0  0  0  0  0  0  0  0  0
   57.8570   21.3780   45.5550 C   0  0  0  0  0  0  0  0  0  0  0  0
   57.3880   22.6560   45.0190 N   0  0  0  0  0  0  0  0  0  0  0  0
   57.3760   23.7740   45.7290 N   0  0  0  0  0  0  0  0  0  0  0  0
   56.8280   24.7380   44.9610 C   0  0  0  0  0  0  0  0  0  0  0  0
   56.6370   26.1300   45.3990 C   0  0  0  0  0  0  0  0  0  0  0  0
   55.5880   26.4420   46.0300 O   0  0  0  0  0  0  0  0  0  0  0  0
   57.6370   27.1240   45.1080 N   0  0  0  0  0  0  0  0  0  0  0  0
   57.5570   28.5040   45.5960 C   0  0  0  0  0  0  0  0  0  0  0  0
   56.4140   29.2540   44.8760 C   0  0  0  0  0  0  0  0  0  0  0  0
   56.9280   30.0080   43.6410 C   0  0  0  0  0  0  0  0  0  0  0  0
   57.9750   31.0140   43.9730 N   0  0  0  0  0  0  0  0  0  0  0  0
   57.4310   32.3870   44.0300 C   0  0  0  0  0  0  0  0  0  0  0  0
   58.0650   33.1630   45.1580 C   0  0  0  0  0  0  0  0  0  0  0  0
   57.5850   33.0240   46.4720 C   0  0  0  0  0  0  0  0  0  0  0  0
   58.1660   33.7530   47.5160 C   0  0  0  0  0  0  0  0  0  0  0  0
   59.2300   34.6180   47.2570 C   0  0  0  0  0  0  0  0  0  0  0  0
   59.7150   34.7610   45.9540 C   0  0  0  0  0  0  0  0  0  0  0  0
   59.1360   34.0410   44.9040 C   0  0  0  0  0  0  0  0  0  0  0  0
   59.6180   34.1940   43.6450 F   0  0  0  0  0  0  0  0  0  0  0  0
   58.7420   30.7080   45.2070 C   0  0  0  0  0  0  0  0  0  0  0  0
   58.9220   29.2000   45.4040 C   0  0  0  0  0  0  0  0  0  0  0  0
   56.4720   24.2160   43.7290 C   0  0  0  0  0  0  0  0  0  0  0  0
   56.8410   22.8880   43.8050 C   0  0  0  0  0  0  0  0  0  0  0  0
   56.6750   21.8740   42.7150 C   0  0  0  0  0  0  0  0  0  0  0  0
   56.1927   22.4340   49.4410 H   0  0  0  0  0  0  0  0  0  0  0  0
   56.1567   23.4733   47.9763 H   0  0  0  0  0  0  0  0  0  0  0  0
   55.3056   21.8914   47.9763 H   0  0  0  0  0  0  0  0  0  0  0  0
   57.2489   19.9257   47.0324 H   0  0  0  0  0  0  0  0  0  0  0  0
   55.9599   21.0763   46.5405 H   0  0  0  0  0  0  0  0  0  0  0  0
   58.9122   21.4748   45.8501 H   0  0  0  0  0  0  0  0  0  0  0  0
   57.7491   20.6060   44.7788 H   0  0  0  0  0  0  0  0  0  0  0  0
   58.5060   26.8330   44.6020 H   0  0  0  0  0  0  0  0  0  0  0  0
   57.3255   28.5101   46.6713 H   0  0  0  0  0  0  0  0  0  0  0  0
   55.6523   28.5262   44.5594 H   0  0  0  0  0  0  0  0  0  0  0  0
   55.9869   29.9873   45.5759 H   0  0  0  0  0  0  0  0  0  0  0  0
   57.3526   29.2786   42.9355 H   0  0  0  0  0  0  0  0  0  0  0  0
   56.0754   30.5491   43.2049 H   0  0  0  0  0  0  0  0  0  0  0  0
   57.6387   32.8979   43.0782 H   0  0  0  0  0  0  0  0  0  0  0  0
   56.3462   32.3317   44.2034 H   0  0  0  0  0  0  0  0  0  0  0  0
   56.7495   32.3396   46.6805 H   0  0  0  0  0  0  0  0  0  0  0  0
   57.7836   33.6440   48.5416 H   0  0  0  0  0  0  0  0  0  0  0  0
   59.6875   35.1879   48.0792 H   0  0  0  0  0  0  0  0  0  0  0  0
   60.5551   35.4423   45.7536 H   0  0  0  0  0  0  0  0  0  0  0  0
   59.7336   31.1789   45.1362 H   0  0  0  0  0  0  0  0  0  0  0  0
   58.1789   31.1008   46.0664 H   0  0  0  0  0  0  0  0  0  0  0  0
   59.4205   28.7779   44.5189 H   0  0  0  0  0  0  0  0  0  0  0  0
   59.5321   29.0329   46.3039 H   0  0  0  0  0  0  0  0  0  0  0  0
   56.0026   24.7397   42.8832 H   0  0  0  0  0  0  0  0  0  0  0  0
   56.5124   20.8811   43.1596 H   0  0  0  0  0  0  0  0  0  0  0  0
   55.8090   22.1433   42.0925 H   0  0  0  0  0  0  0  0  0  0  0  0
   57.5817   21.8531   42.0925 H   0  0  0  0  0  0  0  0  0  0  0  0
  1  2  1  0
  2  3  1  0
  3  4  1  0
  4  5  1  0
  5  6  1  0
  6  7  2  0
  7  8  1  0
  8  9  2  0
  8 10  1  0
 10 11  1  0
 11 12  1  0
 12 13  1  0
 13 14  1  0
 14 15  1  0
 15 16  1  0
 16 17  2  0
 17 18  1  0
 18 19  2  0
 19 20  1  0
 20 21  2  0
 21 22  1  0
 14 23  1  0
 23 24  1  0
  7 25  1  0
 25 26  2  0
 26 27  1  0
 26  5  1  0
 24 11  1  0
 21 16  1  0
  1 28  1  0
  1 29  1  0
  1 30  1  0
  3 31  1  0
  3 32  1  0
  4 33  1  0
  4 34  1  0
 10 35  1  0
 11 36  1  0
 12 37  1  0
 12 38  1  0
 13 39  1  0
 13 40  1  0
 15 41  1  0
 15 42  1  0
 17 43  1  0
 18 44  1  0
 19 45  1  0
 20 46  1  0
 23 47  1  0
 23 48  1  0
 24 49  1  0
 24 50  1  0
 25 51  1  0
 27 52  1  0
 27 53  1  0
 27 54  1  0
M  END
>  <UniqueID>  (93) 
89

>  <SMILES>  (93) 
COCCn1nc(C(=O)NC2CCN(Cc3ccccc3F)CC2)cc1C

>  <Energy>  (93) 
87.51541104314845

>  <Genealogy>  (93) 
COCCn1nc(C(=O)NC2CCN(Cc3ccccc3F)CC2)cc1C (3D coordinates assigned)
COCCn1nc(C(=O)NC2CCN(Cc3ccccc3F)CC2)cc1C (nonaromatic ring conformer: 87.51541104314845 kcal/mol)

>  <smiles>  (93) 
COCCn1nc(C(=O)NC2CCN(Cc3ccccc3F)CC2)cc1C

>  <score_type>  (93) 
oracle

>  <origin>  (93) 
adg

>  <m_score__min__energy>  (93) 
-8.0800000000000001

>  <m_primary>  (93) 
energy

$$$$
94:0
     RDKit          3D

 45 46  0  0  0  0  0  0  0  0999 V2000
   56.3380   30.2830   43.7960 C   0  0  0  0  0  0  0  0  0  0  0  0
   56.3800   31.2160   44.8700 O   0  0  0  0  0  0  0  0  0  0  0  0
   57.4980   31.9980   45.1960 C   0  0  0  0  0  0  0  0  0  0  0  0
   57.6010   33.2790   44.6410 C   0  0  0  0  0  0  0  0  0  0  0  0
   58.6910   34.0970   44.9450 C   0  0  0  0  0  0  0  0  0  0  0  0
   59.6880   33.6460   45.8130 C   0  0  0  0  0  0  0  0  0  0  0  0
   59.6020   32.3660   46.3830 C   0  0  0  0  0  0  0  0  0  0  0  0
   60.6690   31.8770   47.3440 C   0  0  0  0  0  0  0  0  0  0  0  0
   61.0970   32.8990   48.3320 N   0  0  1  0  0  0  0  0  0  0  0  0
   62.0760   33.8400   47.7500 C   0  0  0  0  0  0  0  0  0  0  0  0
   59.9580   33.5890   48.9220 C   0  0  0  0  0  0  0  0  0  0  0  0
   59.4780   34.6080   48.3470 O   0  0  0  0  0  0  0  0  0  0  0  0
   59.2710   33.0800   50.1470 C   0  0  0  0  0  0  0  0  0  0  0  0
   58.6420   31.8200   50.1860 C   0  0  0  0  0  0  0  0  0  0  0  0
   57.9810   31.3790   51.3370 C   0  0  0  0  0  0  0  0  0  0  0  0
   57.3750   30.1130   51.3070 O   0  0  0  0  0  0  0  0  0  0  0  0
   56.9920   29.3750   52.4640 C   0  0  0  0  0  0  0  0  0  0  0  0
   57.9410   32.2050   52.4720 C   0  0  0  0  0  0  0  0  0  0  0  0
   58.5620   33.4670   52.4560 C   0  0  0  0  0  0  0  0  0  0  0  0
   58.5440   34.3300   53.5610 O   0  0  0  0  0  0  0  0  0  0  0  0
   59.4850   34.2930   54.6290 C   0  0  0  0  0  0  0  0  0  0  0  0
   59.2230   33.8890   51.2980 C   0  0  0  0  0  0  0  0  0  0  0  0
   58.5100   31.5420   46.0610 C   0  0  0  0  0  0  0  0  0  0  0  0
   56.2920   29.2609   44.1999 H   0  0  0  0  0  0  0  0  0  0  0  0
   55.4475   30.4739   43.1790 H   0  0  0  0  0  0  0  0  0  0  0  0
   57.2420   30.3931   43.1790 H   0  0  0  0  0  0  0  0  0  0  0  0
   56.8176   33.6438   43.9605 H   0  0  0  0  0  0  0  0  0  0  0  0
   58.7648   35.1000   44.4994 H   0  0  0  0  0  0  0  0  0  0  0  0
   60.5432   34.2958   46.0507 H   0  0  0  0  0  0  0  0  0  0  0  0
   60.2718   31.0097   47.8917 H   0  0  0  0  0  0  0  0  0  0  0  0
   61.5531   31.6238   46.7404 H   0  0  0  0  0  0  0  0  0  0  0  0
   61.6150   32.4090   49.0940 H   0  0  0  0  0  0  0  0  0  0  0  0
   62.6135   34.3567   48.5588 H   0  0  0  0  0  0  0  0  0  0  0  0
   62.7941   33.2845   47.1289 H   0  0  0  0  0  0  0  0  0  0  0  0
   61.5493   34.5795   47.1289 H   0  0  0  0  0  0  0  0  0  0  0  0
   58.6712   31.1727   49.2971 H   0  0  0  0  0  0  0  0  0  0  0  0
   57.2814   29.9326   53.3670 H   0  0  0  0  0  0  0  0  0  0  0  0
   55.9023   29.2250   52.4591 H   0  0  0  0  0  0  0  0  0  0  0  0
   57.4967   28.3976   52.4591 H   0  0  0  0  0  0  0  0  0  0  0  0
   57.4209   31.8631   53.3790 H   0  0  0  0  0  0  0  0  0  0  0  0
   58.9500   34.3140   55.5899 H   0  0  0  0  0  0  0  0  0  0  0  0
   60.0807   33.3707   54.5611 H   0  0  0  0  0  0  0  0  0  0  0  0
   60.1512   35.1656   54.5611 H   0  0  0  0  0  0  0  0  0  0  0  0
   59.7152   34.8727   51.2864 H   0  0  0  0  0  0  0  0  0  0  0  0
   58.4457   30.5308   46.4893 H   0  0  0  0  0  0  0  0  0  0  0  0
  1  2  1  0
  2  3  1  0
  3  4  2  0
  4  5  1  0
  5  6  2  0
  6  7  1  0
  7  8  1  0
  8  9  1  0
  9 10  1  0
  9 11  1  0
 11 12  2  0
 11 13  1  0
 13 14  2  0
 14 15  1  0
 15 16  1  0
 16 17  1  0
 15 18  2  0
 18 19  1  0
 19 20  1  0
 20 21  1  0
 19 22  2  0
  7 23  2  0
 23  3  1  0
 22 13  1  0
  1 24  1  0
  1 25  1  0
  1 26  1  0
  4 27  1  0
  5 28  1  0
  6 29  1  0
  8 30  1  0
  8 31  1  0
  9 32  1  1
 10 33  1  0
 10 34  1  0
 10 35  1  0
 14 36  1  0
 17 37  1  0
 17 38  1  0
 17 39  1  0
 18 40  1  0
 21 41  1  0
 21 42  1  0
 21 43  1  0
 22 44  1  0
 23 45  1  0
M  CHG  1   9   1
M  END
>  <UniqueID>  (94) 
90

>  <SMILES>  (94) 
COc1cccc(C[N@@H+](C)C(=O)c2cc(OC)cc(OC)c2)c1

>  <Energy>  (94) 
49.408861192505

>  <Genealogy>  (94) 
COc1cccc(C[NH+](C)C(=O)c2cc(OC)cc(OC)c2)c1 (protonated)
COc1cccc(C[N@@H+](C)C(=O)c2cc(OC)cc(OC)c2)c1 (chirality)
COc1cccc(C[N@@H+](C)C(=O)c2cc(OC)cc(OC)c2)c1 (3D coordinates assigned)
COc1cccc(C[N@@H+](C)C(=O)c2cc(OC)cc(OC)c2)c1 (optimized conformer: 49.408861192505 kcal/mol)

>  <smiles>  (94) 
COc1cccc(CN(C)C(=O)c2cc(OC)cc(OC)c2)c1

>  <score_type>  (94) 
oracle

>  <origin>  (94) 
adg

>  <m_score__min__energy>  (94) 
-5.5099999999999998

>  <m_primary>  (94) 
energy

$$$$
95:0
     RDKit          3D

 35 38  0  0  0  0  0  0  0  0999 V2000
   60.4810   22.6587   46.2496 H   0  0  0  0  0  0  0  0  0  0  0  0
   59.6300   22.9490   45.6160 C   0  0  0  0  0  0  0  0  0  0  0  0
   59.0050   22.0070   44.8490 N   0  0  0  0  0  0  0  0  0  0  0  0
   57.9600   22.3790   44.0710 C   0  0  0  0  0  0  0  0  0  0  0  0
   57.5020   23.6680   44.0250 C   0  0  0  0  0  0  0  0  0  0  0  0
   56.4080   23.6690   43.1800 C   0  0  0  0  0  0  0  0  0  0  0  0
   55.7764   24.5276   42.9082 H   0  0  0  0  0  0  0  0  0  0  0  0
   56.2750   22.3530   42.7460 C   0  0  0  0  0  0  0  0  0  0  0  0
   55.4993   22.0007   42.0502 H   0  0  0  0  0  0  0  0  0  0  0  0
   57.2280   21.5660   43.2950 N   0  0  0  0  0  0  0  0  0  0  0  0
   57.3550   20.5390   43.1560 H   0  0  0  0  0  0  0  0  0  0  0  0
   58.1070   24.6770   44.7870 C   0  0  0  0  0  0  0  0  0  0  0  0
   57.6430   26.0840   44.7560 C   0  0  0  0  0  0  0  0  0  0  0  0
   56.6550   26.5290   45.6450 C   0  0  0  0  0  0  0  0  0  0  0  0
   56.2126   25.8276   46.3677 H   0  0  0  0  0  0  0  0  0  0  0  0
   56.2410   27.8240   45.6180 N   0  0  0  0  0  0  0  0  0  0  0  0
   56.7620   28.7380   44.7580 C   0  0  0  0  0  0  0  0  0  0  0  0
   56.2970   29.9570   44.7910 N   0  0  0  0  0  0  0  0  0  0  0  0
   57.0270   31.1660   44.5340 C   0  0  0  0  0  0  0  0  0  0  0  0
   57.4760   31.9350   45.6160 C   0  0  0  0  0  0  0  0  0  0  0  0
   57.2398   31.6240   46.6443 H   0  0  0  0  0  0  0  0  0  0  0  0
   58.2230   33.0960   45.3940 C   0  0  0  0  0  0  0  0  0  0  0  0
   58.5566   33.7060   46.2464 H   0  0  0  0  0  0  0  0  0  0  0  0
   58.5460   33.4820   44.0910 C   0  0  0  0  0  0  0  0  0  0  0  0
   59.1264   34.4002   43.9174 H   0  0  0  0  0  0  0  0  0  0  0  0
   58.1320   32.7020   43.0080 C   0  0  0  0  0  0  0  0  0  0  0  0
   58.3948   33.0023   41.9829 H   0  0  0  0  0  0  0  0  0  0  0  0
   57.3840   31.5400   43.2250 C   0  0  0  0  0  0  0  0  0  0  0  0
   57.0310   30.7680   42.1660 F   0  0  0  0  0  0  0  0  0  0  0  0
   57.7540   28.3290   43.8440 C   0  0  0  0  0  0  0  0  0  0  0  0
   58.1780   29.0481   43.1276 H   0  0  0  0  0  0  0  0  0  0  0  0
   58.1940   27.0050   43.8550 C   0  0  0  0  0  0  0  0  0  0  0  0
   58.9772   26.6826   43.1531 H   0  0  0  0  0  0  0  0  0  0  0  0
   59.1940   24.2910   45.6030 C   0  0  0  0  0  0  0  0  0  0  0  0
   59.7018   25.0387   46.2299 H   0  0  0  0  0  0  0  0  0  0  0  0
  1  2  1  0
  2  3  2  0
  3  4  1  0
  4  5  2  0
  5  6  1  0
  6  7  1  0
  6  8  2  0
  8  9  1  0
  8 10  1  0
 10 11  1  0
  5 12  1  0
 12 13  1  0
 13 14  2  0
 14 15  1  0
 14 16  1  0
 16 17  1  0
 17 18  2  0
 18 19  1  0
 19 20  2  0
 20 21  1  0
 20 22  1  0
 22 23  1  0
 22 24  2  0
 24 25  1  0
 24 26  1  0
 26 27  1  0
 26 28  2  0
 28 29  1  0
 17 30  1  0
 30 31  1  0
 30 32  2  0
 32 33  1  0
 12 34  2  0
 34 35  1  0
 34  2  1  0
 10  4  1  0
 32 13  1  0
 28 19  1  0
M  CHG  1  16  -1
M  END
>  <UniqueID>  (95) 
91

>  <SMILES>  (95) 
Fc1ccccc1/N=c1\ccc(-c2ccnc3[nH]ccc23)c[n-]1

>  <Energy>  (95) 
91.21176177439008

>  <Genealogy>  (95) 
Fc1ccccc1N=c1ccc(-c2ccnc3[nH]ccc23)c[n-]1 (protonated)
Fc1ccccc1/N=c1\ccc(-c2ccnc3[nH]ccc23)c[n-]1 (cis-trans isomerization)
Fc1ccccc1/N=c1\ccc(-c2ccnc3[nH]ccc23)c[n-]1 (3D coordinates assigned)
Fc1ccccc1/N=c1\ccc(-c2ccnc3[nH]ccc23)c[n-]1 (optimized conformer: 91.21176177439008 kcal/mol)

>  <smiles>  (95) 
Fc1ccccc1N=c1ccc(-c2ccnc3[nH]ccc23)c[nH]1

>  <score_type>  (95) 
oracle

>  <origin>  (95) 
adg

>  <m_score__min__energy>  (95) 
-9.0899999999999999

>  <m_primary>  (95) 
energy

$$$$
