0:0
     RDKit          3D

 40 42  0  0  0  0  0  0  0  0999 V2000
   58.1370   26.8070   42.6990 C   0  0  0  0  0  0  0  0  0  0  0  0
   57.9010   27.8840   43.7530 C   0  0  0  0  0  0  0  0  0  0  0  0
   58.8830   27.7390   44.9230 C   0  0  0  0  0  0  0  0  0  0  0  0
   58.3910   28.4500   46.1940 C   0  0  0  0  0  0  0  0  0  0  0  0
   58.7810   29.9150   46.2140 C   0  0  0  0  0  0  0  0  0  0  0  0
   57.9210   30.8770   45.6650 C   0  0  0  0  0  0  0  0  0  0  0  0
   56.7230   30.4810   45.0730 O   0  0  0  0  0  0  0  0  0  0  0  0
   58.2660   32.2340   45.7140 C   0  0  0  0  0  0  0  0  0  0  0  0
   57.4230   33.2180   45.1730 C   0  0  0  0  0  0  0  0  0  0  0  0
   57.7850   34.5600   45.2440 C   0  0  0  0  0  0  0  0  0  0  0  0
   58.9820   34.9150   45.8580 C   0  0  0  0  0  0  0  0  0  0  0  0
   59.7970   33.9610   46.3820 N   0  0  0  0  0  0  0  0  0  0  0  0
   59.4820   32.6250   46.3250 C   0  0  0  0  0  0  0  0  0  0  0  0
   60.3160   31.6680   46.8580 N   0  0  0  0  0  0  0  0  0  0  0  0
   61.5630   32.0430   47.4750 C   0  0  0  0  0  0  0  0  0  0  0  0
   62.5170   32.7740   46.7500 C   0  0  0  0  0  0  0  0  0  0  0  0
   63.7280   33.1330   47.3490 C   0  0  0  0  0  0  0  0  0  0  0  0
   63.9920   32.7610   48.6710 C   0  0  0  0  0  0  0  0  0  0  0  0
   63.0470   32.0290   49.3960 C   0  0  0  0  0  0  0  0  0  0  0  0
   61.8340   31.6680   48.7990 C   0  0  0  0  0  0  0  0  0  0  0  0
   59.9840   30.3370   46.8140 C   0  0  0  0  0  0  0  0  0  0  0  0
   60.7620   29.4770   47.3150 O   0  0  0  0  0  0  0  0  0  0  0  0
   58.3471   25.8481   43.1953 H   0  0  0  0  0  0  0  0  0  0  0  0
   57.2397   26.7059   42.0708 H   0  0  0  0  0  0  0  0  0  0  0  0
   58.9944   27.0904   42.0708 H   0  0  0  0  0  0  0  0  0  0  0  0
   58.0360   28.8734   43.2916 H   0  0  0  0  0  0  0  0  0  0  0  0
   56.8777   27.7737   44.1411 H   0  0  0  0  0  0  0  0  0  0  0  0
   59.0127   26.6694   45.1446 H   0  0  0  0  0  0  0  0  0  0  0  0
   59.8323   28.2072   44.6235 H   0  0  0  0  0  0  0  0  0  0  0  0
   57.2947   28.3739   46.2414 H   0  0  0  0  0  0  0  0  0  0  0  0
   58.8622   27.9617   47.0598 H   0  0  0  0  0  0  0  0  0  0  0  0
   56.4766   32.9282   44.6931 H   0  0  0  0  0  0  0  0  0  0  0  0
   57.1298   35.3341   44.8179 H   0  0  0  0  0  0  0  0  0  0  0  0
   59.2710   35.9746   45.9200 H   0  0  0  0  0  0  0  0  0  0  0  0
   60.6770   34.2920   46.8360 H   0  0  0  0  0  0  0  0  0  0  0  0
   62.3115   33.0647   45.7092 H   0  0  0  0  0  0  0  0  0  0  0  0
   64.4735   33.7082   46.7803 H   0  0  0  0  0  0  0  0  0  0  0  0
   64.9450   33.0449   49.1413 H   0  0  0  0  0  0  0  0  0  0  0  0
   63.2569   31.7369   50.4355 H   0  0  0  0  0  0  0  0  0  0  0  0
   61.0921   31.0894   49.3688 H   0  0  0  0  0  0  0  0  0  0  0  0
  1  2  1  0
  2  3  1  0
  3  4  1  0
  4  5  1  0
  5  6  2  0
  6  7  1  0
  6  8  1  0
  8  9  2  0
  9 10  1  0
 10 11  2  0
 11 12  1  0
 12 13  2  0
 13 14  1  0
 14 15  1  0
 15 16  2  0
 16 17  1  0
 17 18  2  0
 18 19  1  0
 19 20  2  0
 14 21  1  0
 21 22  2  0
 21  5  1  0
 13  8  1  0
 20 15  1  0
  1 23  1  0
  1 24  1  0
  1 25  1  0
  2 26  1  0
  2 27  1  0
  3 28  1  0
  3 29  1  0
  4 30  1  0
  4 31  1  0
  9 32  1  0
 10 33  1  0
 11 34  1  0
 12 35  1  0
 16 36  1  0
 17 37  1  0
 18 38  1  0
 19 39  1  0
 20 40  1  0
M  CHG  2   7  -1  12   1
M  END
>  <UniqueID>  (1) 
1

>  <SMILES>  (1) 
CCCCc1c([O-])c2ccc[nH+]c2n(-c2ccccc2)c1=O

>  <Energy>  (1) 
52.98302904454864

>  <Genealogy>  (1) 
CCCCc1c([O-])c2ccc[nH+]c2n(-c2ccccc2)c1=O (protonated)
CCCCc1c([O-])c2ccc[nH+]c2n(-c2ccccc2)c1=O (3D coordinates assigned)
CCCCc1c([O-])c2ccc[nH+]c2n(-c2ccccc2)c1=O (optimized conformer: 52.98302904454864 kcal/mol)

>  <smiles>  (1) 
CCCCc1c(O)c2cccnc2n(-c2ccccc2)c1=O

>  <score_type>  (1) 
oracle

>  <origin>  (1) 
adg

>  <m_score__min__energy>  (1) 
-7.6900000000000004

>  <m_primary>  (1) 
energy

$$$$
1:0
     RDKit          3D

 51 53  0  0  0  0  0  0  0  0999 V2000
   62.5730   32.2820   48.4260 C   0  0  0  0  0  0  0  0  0  0  0  0
   61.6680   32.8590   47.3860 C   0  0  0  0  0  0  0  0  0  0  0  0
   62.1700   33.4520   46.3930 O   0  0  0  0  0  0  0  0  0  0  0  0
   60.2460   32.8160   47.5730 N   0  0  0  0  0  0  0  0  0  0  0  0
   59.2870   33.1760   46.5630 C   0  0  0  0  0  0  0  0  0  0  0  0
   59.3840   34.3900   45.8610 C   0  0  0  0  0  0  0  0  0  0  0  0
   58.4530   34.7050   44.8680 C   0  0  0  0  0  0  0  0  0  0  0  0
   57.4280   33.8090   44.5570 C   0  0  0  0  0  0  0  0  0  0  0  0
   57.3280   32.5860   45.2300 C   0  0  0  0  0  0  0  0  0  0  0  0
   56.2650   31.6930   44.8720 N   0  0  0  0  0  0  0  0  0  0  0  0
   56.4740   30.1130   44.1850 S   0  0  0  0  0  0  0  0  0  0  0  0
   55.1490   29.4040   44.1740 O   0  0  0  0  0  0  0  0  0  0  0  0
   57.0060   30.2300   42.7850 O   0  0  0  0  0  0  0  0  0  0  0  0
   57.6230   29.2050   45.1610 C   0  0  0  0  0  0  0  0  0  0  0  0
   57.1910   28.1260   45.9410 C   0  0  0  0  0  0  0  0  0  0  0  0
   58.1070   27.3990   46.7070 C   0  0  0  0  0  0  0  0  0  0  0  0
   59.4730   27.7400   46.7000 C   0  0  0  0  0  0  0  0  0  0  0  0
   60.4430   26.9690   47.5140 C   0  0  0  0  0  0  0  0  0  0  0  0
   61.0350   25.9750   47.0120 O   0  0  0  0  0  0  0  0  0  0  0  0
   60.7480   27.3870   48.8520 N   0  0  0  0  0  0  0  0  0  0  0  0
   60.4820   28.6750   49.4280 C   0  0  0  0  0  0  0  0  0  0  0  0
   59.2140   29.2380   49.2540 C   0  0  0  0  0  0  0  0  0  0  0  0
   58.9030   30.4800   49.8140 C   0  0  0  0  0  0  0  0  0  0  0  0
   59.8580   31.1800   50.5780 C   0  0  0  0  0  0  0  0  0  0  0  0
   59.5460   32.5040   51.1820 C   0  0  0  0  0  0  0  0  0  0  0  0
   59.2270   32.6570   52.6380 C   0  0  0  0  0  0  0  0  0  0  0  0
   59.5470   33.5370   50.4570 O   0  0  0  0  0  0  0  0  0  0  0  0
   61.1240   30.5960   50.7730 C   0  0  0  0  0  0  0  0  0  0  0  0
   61.4310   29.3530   50.2110 C   0  0  0  0  0  0  0  0  0  0  0  0
   59.8990   28.8220   45.9090 C   0  0  0  0  0  0  0  0  0  0  0  0
   58.9800   29.5460   45.1440 C   0  0  0  0  0  0  0  0  0  0  0  0
   58.2670   32.2710   46.2300 C   0  0  0  0  0  0  0  0  0  0  0  0
   62.1865   32.5284   49.4259 H   0  0  0  0  0  0  0  0  0  0  0  0
   62.6165   31.1891   48.3088 H   0  0  0  0  0  0  0  0  0  0  0  0
   63.5821   32.7038   48.3088 H   0  0  0  0  0  0  0  0  0  0  0  0
   59.8900   32.5890   48.5300 H   0  0  0  0  0  0  0  0  0  0  0  0
   60.1959   35.0946   46.0943 H   0  0  0  0  0  0  0  0  0  0  0  0
   58.5276   35.6614   44.3297 H   0  0  0  0  0  0  0  0  0  0  0  0
   56.6948   34.0660   43.7783 H   0  0  0  0  0  0  0  0  0  0  0  0
   56.1265   27.8490   45.9513 H   0  0  0  0  0  0  0  0  0  0  0  0
   57.7581   26.5546   47.3195 H   0  0  0  0  0  0  0  0  0  0  0  0
   58.4538   28.6980   48.6706 H   0  0  0  0  0  0  0  0  0  0  0  0
   57.9048   30.9147   49.6572 H   0  0  0  0  0  0  0  0  0  0  0  0
   60.0576   32.2586   53.2392 H   0  0  0  0  0  0  0  0  0  0  0  0
   59.0830   33.7222   52.8719 H   0  0  0  0  0  0  0  0  0  0  0  0
   58.3062   32.1025   52.8719 H   0  0  0  0  0  0  0  0  0  0  0  0
   61.8797   31.1231   51.3739 H   0  0  0  0  0  0  0  0  0  0  0  0
   62.4203   28.9039   50.3828 H   0  0  0  0  0  0  0  0  0  0  0  0
   60.9630   29.1006   45.8922 H   0  0  0  0  0  0  0  0  0  0  0  0
   59.3252   30.3878   44.5257 H   0  0  0  0  0  0  0  0  0  0  0  0
   58.2009   31.3068   46.7554 H   0  0  0  0  0  0  0  0  0  0  0  0
  1  2  1  0
  2  3  2  0
  2  4  1  0
  4  5  1  0
  5  6  2  0
  6  7  1  0
  7  8  2  0
  8  9  1  0
  9 10  1  0
 10 11  1  0
 11 12  2  0
 11 13  2  0
 11 14  1  0
 14 15  2  0
 15 16  1  0
 16 17  2  0
 17 18  1  0
 18 19  2  0
 18 20  1  0
 20 21  1  0
 21 22  2  0
 22 23  1  0
 23 24  2  0
 24 25  1  0
 25 26  1  0
 25 27  2  0
 24 28  1  0
 28 29  2  0
 17 30  1  0
 30 31  2  0
  9 32  2  0
 32  5  1  0
 31 14  1  0
 29 21  1  0
  1 33  1  0
  1 34  1  0
  1 35  1  0
  4 36  1  0
  6 37  1  0
  7 38  1  0
  8 39  1  0
 15 40  1  0
 16 41  1  0
 22 42  1  0
 23 43  1  0
 26 44  1  0
 26 45  1  0
 26 46  1  0
 28 47  1  0
 29 48  1  0
 30 49  1  0
 31 50  1  0
 32 51  1  0
M  CHG  2  10  -1  20  -1
M  END
>  <UniqueID>  (2) 
2

>  <SMILES>  (2) 
CC(=O)Nc1cccc([N-]S(=O)(=O)c2ccc(C(=O)[N-]c3ccc(C(C)=O)cc3)cc2)c1

>  <Energy>  (2) 
63.887803737149355

>  <Genealogy>  (2) 
CC(=O)Nc1cccc([N-]S(=O)(=O)c2ccc(C(=O)[N-]c3ccc(C(C)=O)cc3)cc2)c1 (protonated)
CC(=O)Nc1cccc([N-]S(=O)(=O)c2ccc(C(=O)[N-]c3ccc(C(C)=O)cc3)cc2)c1 (3D coordinates assigned)
CC(=O)Nc1cccc([N-]S(=O)(=O)c2ccc(C(=O)[N-]c3ccc(C(C)=O)cc3)cc2)c1 (optimized conformer: 63.887803737149355 kcal/mol)

>  <smiles>  (2) 
CC(=O)Nc1cccc(NS(=O)(=O)c2ccc(C(=O)Nc3ccc(C(C)=O)cc3)cc2)c1

>  <score_type>  (2) 
oracle

>  <origin>  (2) 
adg

>  <m_score__min__energy>  (2) 
-12.109999999999999

>  <m_primary>  (2) 
energy

$$$$
2:0
     RDKit          3D

 40 42  0  0  0  0  0  0  0  0999 V2000
   59.0500   24.1020   45.6270 C   0  0  0  0  0  0  0  0  0  0  0  0
   58.5690   25.4740   45.8550 N   0  0  0  0  0  0  0  0  0  0  0  0
   59.7080   26.3390   46.2440 C   0  0  0  0  0  0  0  0  0  0  0  0
   59.3910   27.7970   46.0250 C   0  0  0  0  0  0  0  0  0  0  0  0
   59.9840   28.7830   46.8250 C   0  0  0  0  0  0  0  0  0  0  0  0
   59.6190   30.1250   46.6800 C   0  0  0  0  0  0  0  0  0  0  0  0
   58.6610   30.5080   45.7240 C   0  0  0  0  0  0  0  0  0  0  0  0
   58.2530   31.8870   45.6270 N   0  0  0  0  0  0  0  0  0  0  0  0
   59.0030   32.9840   45.8680 C   0  0  0  0  0  0  0  0  0  0  0  0
   58.2300   34.1020   45.6500 C   0  0  0  0  0  0  0  0  0  0  0  0
   56.9980   33.6110   45.2730 C   0  0  0  0  0  0  0  0  0  0  0  0
   57.0340   32.2660   45.2660 N   0  0  0  0  0  0  0  0  0  0  0  0
   58.0990   29.5160   44.8960 C   0  0  0  0  0  0  0  0  0  0  0  0
   58.4700   28.1770   45.0400 C   0  0  0  0  0  0  0  0  0  0  0  0
   57.4920   25.4680   46.8760 C   0  0  0  0  0  0  0  0  0  0  0  0
   56.3030   24.6740   46.3960 C   0  0  0  0  0  0  0  0  0  0  0  0
   56.3460   23.2680   46.3910 C   0  0  0  0  0  0  0  0  0  0  0  0
   55.2200   22.5250   46.0220 C   0  0  0  0  0  0  0  0  0  0  0  0
   55.2830   20.7710   46.0850 Cl  0  0  0  0  0  0  0  0  0  0  0  0
   54.0470   23.1810   45.6290 C   0  0  0  0  0  0  0  0  0  0  0  0
   52.9190   22.4520   45.2700 O   0  0  0  0  0  0  0  0  0  0  0  0
   54.0060   24.5780   45.5970 C   0  0  0  0  0  0  0  0  0  0  0  0
   55.1270   25.3250   45.9760 C   0  0  0  0  0  0  0  0  0  0  0  0
   55.0600   26.7150   45.9460 O   0  0  0  0  0  0  0  0  0  0  0  0
   59.2230   23.6085   46.5948 H   0  0  0  0  0  0  0  0  0  0  0  0
   58.2957   23.5388   45.0579 H   0  0  0  0  0  0  0  0  0  0  0  0
   59.9908   24.1331   45.0579 H   0  0  0  0  0  0  0  0  0  0  0  0
   59.9329   26.1775   47.3086 H   0  0  0  0  0  0  0  0  0  0  0  0
   60.5731   26.0748   45.6181 H   0  0  0  0  0  0  0  0  0  0  0  0
   60.7409   28.4996   47.5712 H   0  0  0  0  0  0  0  0  0  0  0  0
   60.0856   30.8886   47.3198 H   0  0  0  0  0  0  0  0  0  0  0  0
   60.0562   32.9841   46.1856 H   0  0  0  0  0  0  0  0  0  0  0  0
   58.5294   35.1554   45.7538 H   0  0  0  0  0  0  0  0  0  0  0  0
   56.1212   34.2241   45.0174 H   0  0  0  0  0  0  0  0  0  0  0  0
   57.3620   29.7984   44.1298 H   0  0  0  0  0  0  0  0  0  0  0  0
   58.0360   27.4155   44.3753 H   0  0  0  0  0  0  0  0  0  0  0  0
   57.8763   25.0171   47.8028 H   0  0  0  0  0  0  0  0  0  0  0  0
   57.1731   26.5049   47.0580 H   0  0  0  0  0  0  0  0  0  0  0  0
   57.2720   22.7491   46.6794 H   0  0  0  0  0  0  0  0  0  0  0  0
   53.0891   25.0920   45.2727 H   0  0  0  0  0  0  0  0  0  0  0  0
  1  2  1  0
  2  3  1  0
  3  4  1  0
  4  5  2  0
  5  6  1  0
  6  7  2  0
  7  8  1  0
  8  9  1  0
  9 10  2  0
 10 11  1  0
 11 12  2  0
  7 13  1  0
 13 14  2  0
  2 15  1  0
 15 16  1  0
 16 17  2  0
 17 18  1  0
 18 19  1  0
 18 20  2  0
 20 21  1  0
 20 22  1  0
 22 23  2  0
 23 24  1  0
 14  4  1  0
 23 16  1  0
 12  8  1  0
  1 25  1  0
  1 26  1  0
  1 27  1  0
  3 28  1  0
  3 29  1  0
  5 30  1  0
  6 31  1  0
  9 32  1  0
 10 33  1  0
 11 34  1  0
 13 35  1  0
 14 36  1  0
 15 37  1  0
 15 38  1  0
 17 39  1  0
 22 40  1  0
M  CHG  2  21  -1  24  -1
M  END
>  <UniqueID>  (3) 
3

>  <SMILES>  (3) 
CN(Cc1ccc(-n2cccn2)cc1)Cc1cc(Cl)c([O-])cc1[O-]

>  <Energy>  (3) 
72.84711951311016

>  <Genealogy>  (3) 
CN(Cc1ccc(-n2cccn2)cc1)Cc1cc(Cl)c([O-])cc1[O-] (protonated)
CN(Cc1ccc(-n2cccn2)cc1)Cc1cc(Cl)c([O-])cc1[O-] (3D coordinates assigned)
CN(Cc1ccc(-n2cccn2)cc1)Cc1cc(Cl)c([O-])cc1[O-] (optimized conformer: 72.84711951311016 kcal/mol)

>  <smiles>  (3) 
CN(Cc1ccc(-n2cccn2)cc1)Cc1cc(Cl)c(O)cc1O

>  <score_type>  (3) 
oracle

>  <origin>  (3) 
adg

>  <m_score__min__energy>  (3) 
-13.02

>  <m_primary>  (3) 
energy

$$$$
3:0
     RDKit          3D

 49 52  0  0  0  0  0  0  0  0999 V2000
   54.8230   29.4000   44.1820 O   0  0  0  0  0  0  0  0  0  0  0  0
   55.8540   29.8880   43.6480 C   0  0  0  0  0  0  0  0  0  0  0  0
   55.9030   30.0100   42.2640 O   0  0  0  0  0  0  0  0  0  0  0  0
   56.9980   30.3250   44.4810 C   0  0  0  0  0  0  0  0  0  0  0  0
   57.8840   29.3820   45.0300 C   0  0  0  0  0  0  0  0  0  0  0  0
   58.9590   29.7950   45.8340 C   0  0  0  0  0  0  0  0  0  0  0  0
   59.9400   28.7930   46.3900 C   0  0  2  0  0  0  0  0  0  0  0  0
   59.9880   27.4380   45.6850 C   0  0  0  0  0  0  0  0  0  0  0  0
   59.3730   27.5430   47.0730 C   0  0  2  0  0  0  0  0  0  0  0  0
   57.8470   27.3500   47.1250 C   0  0  0  0  0  0  0  0  0  0  0  0
   57.4730   26.1530   46.3700 N   0  0  0  0  0  0  0  0  0  0  0  0
   56.2430   25.8700   45.8940 C   0  0  0  0  0  0  0  0  0  0  0  0
   55.1510   26.7230   46.0040 O   0  0  0  0  0  0  0  0  0  0  0  0
   56.2140   24.6280   45.2950 C   0  0  0  0  0  0  0  0  0  0  0  0
   57.4910   24.1120   45.4200 C   0  0  0  0  0  0  0  0  0  0  0  0
   58.2310   25.0690   46.0870 C   0  0  0  0  0  0  0  0  0  0  0  0
   59.5760   24.9210   46.4190 O   0  0  0  0  0  0  0  0  0  0  0  0
   59.1840   31.1640   46.0310 C   0  0  0  0  0  0  0  0  0  0  0  0
   58.3130   32.1120   45.4840 C   0  0  0  0  0  0  0  0  0  0  0  0
   58.6170   33.8290   45.7370 S   0  0  0  0  0  0  0  0  0  0  0  0
   57.3380   34.5850   45.5160 O   0  0  0  0  0  0  0  0  0  0  0  0
   59.6580   34.3310   44.7760 O   0  0  0  0  0  0  0  0  0  0  0  0
   59.1660   34.1000   47.3590 N   0  0  0  0  0  0  0  0  0  0  0  0
   60.4630   33.7460   47.8600 C   0  0  0  0  0  0  0  0  0  0  0  0
   61.4880   33.2840   47.0200 C   0  0  0  0  0  0  0  0  0  0  0  0
   62.7320   32.9360   47.5510 C   0  0  0  0  0  0  0  0  0  0  0  0
   62.9820   33.0450   48.9320 C   0  0  0  0  0  0  0  0  0  0  0  0
   64.3150   32.6680   49.4690 C   0  0  0  0  0  0  0  0  0  0  0  0
   65.2880   33.4610   49.3690 O   0  0  0  0  0  0  0  0  0  0  0  0
   64.5160   31.4420   50.0910 O   0  0  0  0  0  0  0  0  0  0  0  0
   61.9490   33.5120   49.7720 C   0  0  0  0  0  0  0  0  0  0  0  0
   62.1350   33.6330   51.1450 O   0  0  0  0  0  0  0  0  0  0  0  0
   60.7050   33.8600   49.2330 C   0  0  0  0  0  0  0  0  0  0  0  0
   57.2160   31.6910   44.7210 C   0  0  0  0  0  0  0  0  0  0  0  0
   57.7341   28.3111   44.8282 H   0  0  0  0  0  0  0  0  0  0  0  0
   60.6729   29.5622   46.6749 H   0  0  0  0  0  0  0  0  0  0  0  0
   59.3451   27.2500   44.8124 H   0  0  0  0  0  0  0  0  0  0  0  0
   60.7828   26.8265   45.2329 H   0  0  0  0  0  0  0  0  0  0  0  0
   59.5349   27.0810   48.0580 H   0  0  0  0  0  0  0  0  0  0  0  0
   57.5287   27.2359   48.1717 H   0  0  0  0  0  0  0  0  0  0  0  0
   57.3544   28.2279   46.6816 H   0  0  0  0  0  0  0  0  0  0  0  0
   55.3499   24.1454   44.8149 H   0  0  0  0  0  0  0  0  0  0  0  0
   57.8463   23.1351   45.0603 H   0  0  0  0  0  0  0  0  0  0  0  0
   60.3090   24.9270   45.7220 H   0  0  0  0  0  0  0  0  0  0  0  0
   60.0518   31.4955   46.6200 H   0  0  0  0  0  0  0  0  0  0  0  0
   61.3107   33.1955   45.9380 H   0  0  0  0  0  0  0  0  0  0  0  0
   63.5259   32.5724   46.8821 H   0  0  0  0  0  0  0  0  0  0  0  0
   59.9085   34.2274   49.8968 H   0  0  0  0  0  0  0  0  0  0  0  0
   56.5206   32.4360   44.3070 H   0  0  0  0  0  0  0  0  0  0  0  0
  1  2  2  0
  2  3  1  0
  2  4  1  0
  4  5  2  0
  5  6  1  0
  6  7  1  0
  7  8  1  0
  8  9  1  0
  9 10  1  0
 10 11  1  0
 11 12  1  0
 12 13  1  0
 12 14  2  0
 14 15  1  0
 15 16  2  0
 16 17  1  0
  6 18  2  0
 18 19  1  0
 19 20  1  0
 20 21  2  0
 20 22  2  0
 20 23  1  0
 23 24  1  0
 24 25  2  0
 25 26  1  0
 26 27  2  0
 27 28  1  0
 28 29  2  0
 28 30  1  0
 27 31  1  0
 31 32  1  0
 31 33  2  0
 19 34  2  0
 34  4  1  0
  9  7  1  0
 16 11  1  0
 33 24  1  0
  5 35  1  0
  7 36  1  1
  8 37  1  0
  8 38  1  0
  9 39  1  1
 10 40  1  0
 10 41  1  0
 14 42  1  0
 15 43  1  0
 17 44  1  0
 18 45  1  0
 25 46  1  0
 26 47  1  0
 33 48  1  0
 34 49  1  0
M  CHG  5   3  -1  13  -1  23  -1  30  -1  32  -1
M  END
>  <UniqueID>  (4) 
4

>  <SMILES>  (4) 
O=C([O-])c1cc([C@@H]2C[C@@H]2Cn2c([O-])ccc2O)cc(S(=O)(=O)[N-]c2ccc(C(=O)[O-])c([O-])c2)c1

>  <Energy>  (4) 
352.0692501035245

>  <Genealogy>  (4) 
O=C([O-])c1cc(C2CC2Cn2c([O-])ccc2O)cc(S(=O)(=O)[N-]c2ccc(C(=O)[O-])c([O-])c2)c1 (protonated)
O=C([O-])c1cc([C@@H]2C[C@@H]2Cn2c([O-])ccc2O)cc(S(=O)(=O)[N-]c2ccc(C(=O)[O-])c([O-])c2)c1 (chirality)
O=C([O-])c1cc([C@@H]2C[C@@H]2Cn2c([O-])ccc2O)cc(S(=O)(=O)[N-]c2ccc(C(=O)[O-])c([O-])c2)c1 (3D coordinates assigned)
O=C([O-])c1cc([C@@H]2C[C@@H]2Cn2c([O-])ccc2O)cc(S(=O)(=O)[N-]c2ccc(C(=O)[O-])c([O-])c2)c1 (nonaromatic ring conformer: 352.0692501035245 kcal/mol)

>  <smiles>  (4) 
O=C(O)c1cc(C2CC2Cn2c(O)ccc2O)cc(S(=O)(=O)Nc2ccc(C(=O)O)c(O)c2)c1

>  <score_type>  (4) 
oracle

>  <origin>  (4) 
adg

>  <m_score__min__energy>  (4) 
-18.07

>  <m_primary>  (4) 
energy

$$$$
4:0
     RDKit          3D

 44 46  0  0  0  0  0  0  0  0999 V2000
   55.1650   26.1890   46.0560 N   0  0  0  0  0  0  0  0  0  0  0  0
   56.5240   25.8420   46.3090 C   0  0  0  0  0  0  0  0  0  0  0  0
   56.8980   24.6500   46.1470 O   0  0  0  0  0  0  0  0  0  0  0  0
   57.5080   26.8650   46.7100 C   0  0  0  0  0  0  0  0  0  0  0  0
   58.2650   26.7230   47.8320 N   0  0  0  0  0  0  0  0  0  0  0  0
   59.0700   27.8000   47.8010 C   0  0  0  0  0  0  0  0  0  0  0  0
   60.0400   28.1620   48.7330 C   0  0  0  0  0  0  0  0  0  0  0  0
   60.7500   29.3560   48.5090 C   0  0  0  0  0  0  0  0  0  0  0  0
   60.4700   30.1530   47.3760 C   0  0  0  0  0  0  0  0  0  0  0  0
   59.4810   29.7610   46.4550 C   0  0  0  0  0  0  0  0  0  0  0  0
   58.8070   28.5610   46.7000 C   0  0  0  0  0  0  0  0  0  0  0  0
   57.8160   27.9870   45.9980 N   0  0  0  0  0  0  0  0  0  0  0  0
   57.1710   28.5260   44.8360 C   0  0  0  0  0  0  0  0  0  0  0  0
   57.5700   28.1840   43.6890 O   0  0  0  0  0  0  0  0  0  0  0  0
   56.1200   29.4910   44.9780 N   0  0  0  0  0  0  0  0  0  0  0  0
   55.5820   30.2390   43.8430 C   0  0  0  0  0  0  0  0  0  0  0  0
   56.7120   30.8270   42.9870 C   0  0  0  0  0  0  0  0  0  0  0  0
   57.7010   31.6450   43.8340 C   0  0  0  0  0  0  0  0  0  0  0  0
   56.9870   32.5200   44.8740 C   0  0  0  0  0  0  0  0  0  0  0  0
   57.9680   33.2780   45.7340 C   0  0  0  0  0  0  0  0  0  0  0  0
   58.1510   32.9220   47.0800 C   0  0  0  0  0  0  0  0  0  0  0  0
   59.0750   33.6090   47.8720 C   0  0  0  0  0  0  0  0  0  0  0  0
   59.8290   34.6500   47.3250 C   0  0  0  0  0  0  0  0  0  0  0  0
   59.6620   35.0050   45.9830 C   0  0  0  0  0  0  0  0  0  0  0  0
   58.7350   34.3220   45.1880 C   0  0  0  0  0  0  0  0  0  0  0  0
   54.7680   27.0920   46.3970 H   0  0  0  0  0  0  0  0  0  0  0  0
   60.2440   27.5358   49.6140 H   0  0  0  0  0  0  0  0  0  0  0  0
   61.5278   29.6710   49.2202 H   0  0  0  0  0  0  0  0  0  0  0  0
   61.0291   31.0862   47.2130 H   0  0  0  0  0  0  0  0  0  0  0  0
   59.2467   30.3766   45.5740 H   0  0  0  0  0  0  0  0  0  0  0  0
   55.7660   29.7180   45.9350 H   0  0  0  0  0  0  0  0  0  0  0  0
   54.9746   29.5637   43.2224 H   0  0  0  0  0  0  0  0  0  0  0  0
   54.9670   31.0659   44.2278 H   0  0  0  0  0  0  0  0  0  0  0  0
   57.2556   30.0039   42.5002 H   0  0  0  0  0  0  0  0  0  0  0  0
   56.2626   31.4987   42.2408 H   0  0  0  0  0  0  0  0  0  0  0  0
   58.3766   30.9525   44.3573 H   0  0  0  0  0  0  0  0  0  0  0  0
   58.2565   32.3103   43.1566 H   0  0  0  0  0  0  0  0  0  0  0  0
   56.3410   33.2403   44.3507 H   0  0  0  0  0  0  0  0  0  0  0  0
   56.3954   31.8620   45.5275 H   0  0  0  0  0  0  0  0  0  0  0  0
   57.5643   32.0985   47.5130 H   0  0  0  0  0  0  0  0  0  0  0  0
   59.2087   33.3297   48.9275 H   0  0  0  0  0  0  0  0  0  0  0  0
   60.5545   35.1908   47.9504 H   0  0  0  0  0  0  0  0  0  0  0  0
   60.2597   35.8217   45.5519 H   0  0  0  0  0  0  0  0  0  0  0  0
   58.6060   34.6029   44.1323 H   0  0  0  0  0  0  0  0  0  0  0  0
  1  2  1  0
  2  3  2  0
  2  4  1  0
  4  5  2  0
  5  6  1  0
  6  7  2  0
  7  8  1  0
  8  9  2  0
  9 10  1  0
 10 11  2  0
 11 12  1  0
 12 13  1  0
 13 14  2  0
 13 15  1  0
 15 16  1  0
 16 17  1  0
 17 18  1  0
 18 19  1  0
 19 20  1  0
 20 21  2  0
 21 22  1  0
 22 23  2  0
 23 24  1  0
 24 25  2  0
 12  4  1  0
 25 20  1  0
 11  6  1  0
  1 26  1  0
  7 27  1  0
  8 28  1  0
  9 29  1  0
 10 30  1  0
 15 31  1  0
 16 32  1  0
 16 33  1  0
 17 34  1  0
 17 35  1  0
 18 36  1  0
 18 37  1  0
 19 38  1  0
 19 39  1  0
 21 40  1  0
 22 41  1  0
 23 42  1  0
 24 43  1  0
 25 44  1  0
M  CHG  1   1  -1
M  END
>  <UniqueID>  (5) 
5

>  <SMILES>  (5) 
[NH-]C(=O)c1nc2ccccc2n1C(=O)NCCCCc1ccccc1

>  <Energy>  (5) 
78.26428945297357

>  <Genealogy>  (5) 
[NH-]C(=O)c1nc2ccccc2n1C(=O)NCCCCc1ccccc1 (protonated)
[NH-]C(=O)c1nc2ccccc2n1C(=O)NCCCCc1ccccc1 (3D coordinates assigned)
[NH-]C(=O)c1nc2ccccc2n1C(=O)NCCCCc1ccccc1 (optimized conformer: 78.26428945297357 kcal/mol)

>  <smiles>  (5) 
NC(=O)c1nc2ccccc2n1C(=O)NCCCCc1ccccc1

>  <score_type>  (5) 
oracle

>  <origin>  (5) 
adg

>  <m_score__min__energy>  (5) 
-12.23

>  <m_primary>  (5) 
energy

$$$$
5:0
     RDKit          3D

 51 55  0  0  0  0  0  0  0  0999 V2000
   54.3850   24.6520   46.0560 N   0  0  0  0  0  0  0  0  0  0  0  0
   55.7600   24.7150   45.6240 C   0  0  0  0  0  0  0  0  0  0  0  0
   56.3350   26.0820   45.6770 C   0  0  0  0  0  0  0  0  0  0  0  0
   55.6840   27.0750   45.9920 O   0  0  0  0  0  0  0  0  0  0  0  0
   57.7690   26.2930   45.3360 C   0  0  0  0  0  0  0  0  0  0  0  0
   58.1230   27.6860   45.4550 N   0  0  0  0  0  0  0  0  0  0  0  0
   58.8820   28.2250   46.4410 C   0  0  0  0  0  0  0  0  0  0  0  0
   59.4910   27.6560   47.5310 C   0  0  0  0  0  0  0  0  0  0  0  0
   60.2260   28.4510   48.4040 C   0  0  0  0  0  0  0  0  0  0  0  0
   60.3420   29.8110   48.1750 C   0  0  0  0  0  0  0  0  0  0  0  0
   61.2630   30.8530   49.2560 S   0  0  0  0  0  0  0  0  0  0  0  0
   60.2630   31.5690   50.1510 O   0  0  0  0  0  0  0  0  0  0  0  0
   62.1250   29.9850   50.1080 O   0  0  0  0  0  0  0  0  0  0  0  0
   62.2300   31.9740   48.3810 C   0  0  0  0  0  0  0  0  0  0  0  0
   63.6260   31.9750   48.3980 C   0  0  0  0  0  0  0  0  0  0  0  0
   64.0550   32.9690   47.6230 N   0  0  0  0  0  0  0  0  0  0  0  0
   62.9990   33.5850   47.1240 N   0  0  0  0  0  0  0  0  0  0  0  0
   61.8470   33.0020   47.5660 C   0  0  0  0  0  0  0  0  0  0  0  0
   60.5460   33.5050   47.1910 C   0  0  0  0  0  0  0  0  0  0  0  0
   60.4980   34.2500   46.0010 C   0  0  0  0  0  0  0  0  0  0  0  0
   59.3170   34.7720   45.5240 C   0  0  0  0  0  0  0  0  0  0  0  0
   58.1430   34.5720   46.2120 C   0  0  0  0  0  0  0  0  0  0  0  0
   58.1640   33.8460   47.3800 C   0  0  0  0  0  0  0  0  0  0  0  0
   59.3760   33.3280   47.8420 C   0  0  0  0  0  0  0  0  0  0  0  0
   59.7320   30.3910   47.0810 C   0  0  0  0  0  0  0  0  0  0  0  0
   59.0060   29.5800   46.2250 C   0  0  0  0  0  0  0  0  0  0  0  0
   58.2990   29.8730   45.0690 C   0  0  0  0  0  0  0  0  0  0  0  0
   58.0900   31.0540   44.4000 C   0  0  0  0  0  0  0  0  0  0  0  0
   58.6280   32.1950   44.8730 F   0  0  0  0  0  0  0  0  0  0  0  0
   57.3150   31.0210   43.2400 C   0  0  0  0  0  0  0  0  0  0  0  0
   56.7980   29.8420   42.8110 N   0  0  0  0  0  0  0  0  0  0  0  0
   57.0180   28.6900   43.4870 C   0  0  0  0  0  0  0  0  0  0  0  0
   57.7690   28.6740   44.6240 C   0  0  0  0  0  0  0  0  0  0  0  0
   54.2360   23.9170   46.7760 H   0  0  0  0  0  0  0  0  0  0  0  0
   54.1090   25.6100   46.3690 H   0  0  0  0  0  0  0  0  0  0  0  0
   56.3593   24.0598   46.2732 H   0  0  0  0  0  0  0  0  0  0  0  0
   55.7837   24.3946   44.5720 H   0  0  0  0  0  0  0  0  0  0  0  0
   58.3937   25.7021   46.0219 H   0  0  0  0  0  0  0  0  0  0  0  0
   57.9354   25.9740   44.2965 H   0  0  0  0  0  0  0  0  0  0  0  0
   59.3983   26.5752   47.7137 H   0  0  0  0  0  0  0  0  0  0  0  0
   60.7162   27.9979   49.2783 H   0  0  0  0  0  0  0  0  0  0  0  0
   64.2632   31.2737   48.9567 H   0  0  0  0  0  0  0  0  0  0  0  0
   65.0550   33.1960   47.4580 H   0  0  0  0  0  0  0  0  0  0  0  0
   61.4267   34.4204   45.4367 H   0  0  0  0  0  0  0  0  0  0  0  0
   59.3122   35.3513   44.5889 H   0  0  0  0  0  0  0  0  0  0  0  0
   57.1980   34.9879   45.8325 H   0  0  0  0  0  0  0  0  0  0  0  0
   57.2356   33.6751   47.9446 H   0  0  0  0  0  0  0  0  0  0  0  0
   59.3777   32.7500   48.7779 H   0  0  0  0  0  0  0  0  0  0  0  0
   59.8205   31.4713   46.8937 H   0  0  0  0  0  0  0  0  0  0  0  0
   57.1241   31.9461   42.6762 H   0  0  0  0  0  0  0  0  0  0  0  0
   56.5835   27.7515   43.1124 H   0  0  0  0  0  0  0  0  0  0  0  0
  1  2  1  0
  2  3  1  0
  3  4  2  0
  3  5  1  0
  5  6  1  0
  6  7  1  0
  7  8  2  0
  8  9  1  0
  9 10  2  0
 10 11  1  0
 11 12  2  0
 11 13  2  0
 11 14  1  0
 14 15  2  0
 15 16  1  0
 16 17  1  0
 17 18  2  0
 18 19  1  0
 19 20  2  0
 20 21  1  0
 21 22  2  0
 22 23  1  0
 23 24  2  0
 10 25  1  0
 25 26  2  0
 26 27  1  0
 27 28  2  0
 28 29  1  0
 28 30  1  0
 30 31  2  0
 31 32  1  0
 32 33  2  0
 33  6  1  0
 26  7  1  0
 33 27  1  0
 18 14  1  0
 24 19  1  0
  1 34  1  0
  1 35  1  0
  2 36  1  0
  2 37  1  0
  5 38  1  0
  5 39  1  0
  8 40  1  0
  9 41  1  0
 15 42  1  0
 16 43  1  0
 20 44  1  0
 21 45  1  0
 22 46  1  0
 23 47  1  0
 24 48  1  0
 25 49  1  0
 30 50  1  0
 32 51  1  0
M  END
>  <smiles>  (6) 
NCC(=O)Cn1c2ccc(S(=O)(=O)c3c[nH]nc3-c3ccccc3)cc2c2c(F)cncc21

>  <score_type>  (6) 
oracle

>  <origin>  (6) 
adg

>  <m_score__min__energy>  (6) 
-9.8599999999999994

>  <m_primary>  (6) 
energy

$$$$
6:0
     RDKit          3D

 47 50  0  0  0  0  0  0  0  0999 V2000
   59.2600   30.4900   48.6610 O   0  0  0  0  0  0  0  0  0  0  0  0
   60.3590   30.3420   47.6460 S   0  0  0  0  0  0  0  0  0  0  0  0
   60.7740   28.8990   47.5870 O   0  0  0  0  0  0  0  0  0  0  0  0
   59.7790   30.8390   46.0880 N   0  0  0  0  0  0  0  0  0  0  0  0
   58.6140   30.2510   45.4830 C   0  0  0  0  0  0  0  0  0  0  0  0
   58.2170   28.9530   45.8520 C   0  0  0  0  0  0  0  0  0  0  0  0
   57.0410   28.3820   45.3430 C   0  0  0  0  0  0  0  0  0  0  0  0
   56.6180   27.0330   45.7640 C   0  0  0  0  0  0  0  0  0  0  0  0
   55.3380   26.6700   45.9930 N   0  0  0  0  0  0  0  0  0  0  0  0
   55.3680   25.3930   46.3470 N   0  0  0  0  0  0  0  0  0  0  0  0
   56.6620   25.0320   46.3190 C   0  0  0  0  0  0  0  0  0  0  0  0
   57.1990   23.5330   46.6830 S   0  0  0  0  0  0  0  0  0  0  0  0
   57.4380   26.0260   45.9640 O   0  0  0  0  0  0  0  0  0  0  0  0
   56.2690   29.1090   44.4290 C   0  0  0  0  0  0  0  0  0  0  0  0
   56.6640   30.3850   44.0300 C   0  0  0  0  0  0  0  0  0  0  0  0
   57.8310   30.9750   44.5500 C   0  0  0  0  0  0  0  0  0  0  0  0
   58.2050   32.3070   44.1470 N   0  0  0  0  0  0  0  0  0  0  0  0
   57.7000   33.5150   44.8000 C   0  0  0  0  0  0  0  0  0  0  0  0
   58.4950   33.8120   46.0430 C   0  0  0  0  0  0  0  0  0  0  0  0
   58.1740   33.1930   47.2620 C   0  0  0  0  0  0  0  0  0  0  0  0
   58.9270   33.4620   48.4090 C   0  0  0  0  0  0  0  0  0  0  0  0
   60.0040   34.3490   48.3450 C   0  0  0  0  0  0  0  0  0  0  0  0
   60.3400   34.9580   47.1330 C   0  0  0  0  0  0  0  0  0  0  0  0
   59.5930   34.6860   45.9820 C   0  0  0  0  0  0  0  0  0  0  0  0
   61.7580   31.3150   48.0940 C   0  0  0  0  0  0  0  0  0  0  0  0
   62.3950   32.1360   47.1500 C   0  0  0  0  0  0  0  0  0  0  0  0
   63.5350   32.8610   47.5060 C   0  0  0  0  0  0  0  0  0  0  0  0
   64.0440   32.7730   48.8060 C   0  0  0  0  0  0  0  0  0  0  0  0
   65.1540   33.4720   49.1480 F   0  0  0  0  0  0  0  0  0  0  0  0
   63.4130   31.9580   49.7490 C   0  0  0  0  0  0  0  0  0  0  0  0
   62.2730   31.2290   49.3950 C   0  0  0  0  0  0  0  0  0  0  0  0
   60.2440   31.6670   45.6590 H   0  0  0  0  0  0  0  0  0  0  0  0
   58.8393   28.3758   46.5517 H   0  0  0  0  0  0  0  0  0  0  0  0
   55.3452   28.6708   44.0233 H   0  0  0  0  0  0  0  0  0  0  0  0
   56.0555   30.9379   43.2992 H   0  0  0  0  0  0  0  0  0  0  0  0
   58.8930   32.4390   43.3740 H   0  0  0  0  0  0  0  0  0  0  0  0
   57.7830   34.3639   44.1054 H   0  0  0  0  0  0  0  0  0  0  0  0
   56.6480   33.3559   45.0793 H   0  0  0  0  0  0  0  0  0  0  0  0
   57.3266   32.4936   47.3147 H   0  0  0  0  0  0  0  0  0  0  0  0
   58.6712   32.9751   49.3616 H   0  0  0  0  0  0  0  0  0  0  0  0
   60.5888   34.5686   49.2504 H   0  0  0  0  0  0  0  0  0  0  0  0
   61.1923   35.6516   47.0840 H   0  0  0  0  0  0  0  0  0  0  0  0
   59.8661   35.1578   45.0266 H   0  0  0  0  0  0  0  0  0  0  0  0
   61.9956   32.2086   46.1276 H   0  0  0  0  0  0  0  0  0  0  0  0
   64.0328   33.5017   46.7632 H   0  0  0  0  0  0  0  0  0  0  0  0
   63.8132   31.8895   50.7713 H   0  0  0  0  0  0  0  0  0  0  0  0
   61.7794   30.5867   50.1392 H   0  0  0  0  0  0  0  0  0  0  0  0
  1  2  2  0
  2  3  2  0
  2  4  1  0
  4  5  1  0
  5  6  2  0
  6  7  1  0
  7  8  1  0
  8  9  2  0
  9 10  1  0
 10 11  1  0
 11 12  2  0
 11 13  1  0
  7 14  2  0
 14 15  1  0
 15 16  2  0
 16 17  1  0
 17 18  1  0
 18 19  1  0
 19 20  2  0
 20 21  1  0
 21 22  2  0
 22 23  1  0
 23 24  2  0
  2 25  1  0
 25 26  2  0
 26 27  1  0
 27 28  2  0
 28 29  1  0
 28 30  1  0
 30 31  2  0
 16  5  1  0
 24 19  1  0
 31 25  1  0
 13  8  1  0
  4 32  1  0
  6 33  1  0
 14 34  1  0
 15 35  1  0
 17 36  1  0
 18 37  1  0
 18 38  1  0
 20 39  1  0
 21 40  1  0
 22 41  1  0
 23 42  1  0
 24 43  1  0
 26 44  1  0
 27 45  1  0
 30 46  1  0
 31 47  1  0
M  CHG  1  10  -1
M  END
>  <UniqueID>  (7) 
6

>  <SMILES>  (7) 
O=S(=O)(Nc1cc(-c2n[n-]c(=S)o2)ccc1NCc1ccccc1)c1ccc(F)cc1

>  <Energy>  (7) 
89.51943982227851

>  <Genealogy>  (7) 
O=S(=O)(Nc1cc(-c2n[n-]c(=S)o2)ccc1NCc1ccccc1)c1ccc(F)cc1 (protonated)
O=S(=O)(Nc1cc(-c2n[n-]c(=S)o2)ccc1NCc1ccccc1)c1ccc(F)cc1 (3D coordinates assigned)
O=S(=O)(Nc1cc(-c2n[n-]c(=S)o2)ccc1NCc1ccccc1)c1ccc(F)cc1 (optimized conformer: 89.51943982227851 kcal/mol)

>  <smiles>  (7) 
O=S(=O)(Nc1cc(-c2n[nH]c(=S)o2)ccc1NCc1ccccc1)c1ccc(F)cc1

>  <score_type>  (7) 
oracle

>  <origin>  (7) 
adg

>  <m_score__min__energy>  (7) 
-12.800000000000001

>  <m_primary>  (7) 
energy

$$$$
7:0
     RDKit          3D

 45 48  0  0  1  0  0  0  0  0999 V2000
   54.9880   25.8670   45.9920 O   0  0  0  0  0  0  0  0  0  0  0  0
   55.3470   24.7510   45.6030 C   0  0  0  0  0  0  0  0  0  0  0  0
   56.7000   24.4080   45.3860 N   0  0  0  0  0  0  0  0  0  0  0  0
   57.8130   25.2380   45.5690 C   0  0  0  0  0  0  0  0  0  0  0  0
   58.8750   24.9970   46.4030 C   0  0  0  0  0  0  0  0  0  0  0  0
   59.9520   25.8710   46.5350 C   0  0  0  0  0  0  0  0  0  0  0  0
   59.9870   27.0440   45.8100 C   0  0  0  0  0  0  0  0  0  0  0  0
   58.9170   27.2840   44.9710 C   0  0  0  0  0  0  0  0  0  0  0  0
   58.9170   28.4820   44.2060 N   0  0  0  0  0  0  0  0  0  0  0  0
   57.9890   29.3730   44.2990 C   0  0  0  0  0  0  0  0  0  0  0  0
   58.3400   30.6730   44.5210 N   0  0  0  0  0  0  0  0  0  0  0  0
   57.4010   31.6400   44.6250 C   0  0  0  0  0  0  0  0  0  0  0  0
   57.7350   33.0040   44.8560 N   0  0  0  0  0  0  0  0  0  0  0  0
   57.1030   34.1780   45.4270 C   0  0  0  0  0  0  0  0  0  0  0  0
   58.5120   34.6000   45.8840 C   0  0  0  0  0  0  0  0  0  0  0  0
   58.9450   33.9790   47.0430 O   0  0  0  0  0  0  0  0  0  0  0  0
   60.1690   33.3710   47.1270 C   0  0  0  0  0  0  0  0  0  0  0  0
   61.3900   33.9770   47.0340 C   0  0  0  0  0  0  0  0  0  0  0  0
   62.5730   33.2770   47.1310 C   0  0  0  0  0  0  0  0  0  0  0  0
   62.5740   31.8940   47.3320 C   0  0  0  0  0  0  0  0  0  0  0  0
   63.7520   31.2360   47.4230 F   0  0  0  0  0  0  0  0  0  0  0  0
   61.3480   31.2750   47.4270 C   0  0  0  0  0  0  0  0  0  0  0  0
   60.1740   31.9880   47.3280 C   0  0  0  0  0  0  0  0  0  0  0  0
   58.9010   33.8320   44.6080 C   0  0  0  0  0  0  0  0  0  0  0  0
   56.1100   31.2810   44.5030 N   0  0  0  0  0  0  0  0  0  0  0  0
   55.7570   29.9840   44.2810 C   0  0  0  0  0  0  0  0  0  0  0  0
   56.7020   29.0100   44.1760 N   0  0  0  0  0  0  0  0  0  0  0  0
   57.8670   26.4260   44.8450 C   0  0  0  0  0  0  0  0  0  0  0  0
   54.5767   23.9882   45.4167 H   0  0  0  0  0  0  0  0  0  0  0  0
   56.8620   23.4120   45.0500 H   0  0  0  0  0  0  0  0  0  0  0  0
   58.8764   24.0702   46.9954 H   0  0  0  0  0  0  0  0  0  0  0  0
   60.7771   25.6248   47.2196 H   0  0  0  0  0  0  0  0  0  0  0  0
   60.8245   27.7520   45.8959 H   0  0  0  0  0  0  0  0  0  0  0  0
   56.6330   34.8519   44.6956 H   0  0  0  0  0  0  0  0  0  0  0  0
   56.2563   34.1072   46.1257 H   0  0  0  0  0  0  0  0  0  0  0  0
   58.8069   35.6314   46.1276 H   0  0  0  0  0  0  0  0  0  0  0  0
   61.4302   35.0648   46.8757 H   0  0  0  0  0  0  0  0  0  0  0  0
   63.5295   33.8141   47.0491 H   0  0  0  0  0  0  0  0  0  0  0  0
   61.3052   30.1873   47.5854 H   0  0  0  0  0  0  0  0  0  0  0  0
   59.2152   31.4551   47.4092 H   0  0  0  0  0  0  0  0  0  0  0  0
   58.8594   34.4235   43.6815 H   0  0  0  0  0  0  0  0  0  0  0  0
   59.9041   33.4044   44.4635 H   0  0  0  0  0  0  0  0  0  0  0  0
   54.6934   29.7202   44.1853 H   0  0  0  0  0  0  0  0  0  0  0  0
   56.4510   28.0170   44.0070 H   0  0  0  0  0  0  0  0  0  0  0  0
   57.0454   26.6765   44.1578 H   0  0  0  0  0  0  0  0  0  0  0  0
  1  2  2  0
  2  3  1  0
  3  4  1  0
  4  5  2  0
  5  6  1  0
  6  7  2  0
  7  8  1  0
  8  9  1  0
  9 10  2  0
 10 11  1  0
 11 12  2  0
 12 13  1  0
 13 14  1  0
 14 15  1  0
 15 16  1  0
 16 17  1  0
 17 18  2  0
 18 19  1  0
 19 20  2  0
 20 21  1  0
 20 22  1  0
 22 23  2  0
 15 24  1  0
 12 25  1  0
 25 26  2  0
 26 27  1  0
  8 28  2  0
 28  4  1  0
 27 10  1  0
 24 13  1  0
 23 17  1  0
  2 29  1  0
  3 30  1  0
  5 31  1  0
  6 32  1  0
  7 33  1  0
 14 34  1  0
 14 35  1  0
 15 36  1  0
 18 37  1  0
 19 38  1  0
 22 39  1  0
 23 40  1  0
 24 41  1  0
 24 42  1  0
 26 43  1  0
 27 44  1  0
 28 45  1  0
M  END
>  <smiles>  (8) 
O=CNc1cccc(N=c2nc(N3CC(Oc4ccc(F)cc4)C3)nc[nH]2)c1

>  <score_type>  (8) 
oracle

>  <origin>  (8) 
adg

>  <m_score__min__energy>  (8) 
-8.6799999999999997

>  <m_primary>  (8) 
energy

$$$$
8:0
     RDKit          3D

 43 45  0  0  0  0  0  0  0  0999 V2000
   63.9640   32.3380   49.7680 C   0  0  0  0  0  0  0  0  0  0  0  0
   63.2080   32.9660   48.6470 C   0  0  0  0  0  0  0  0  0  0  0  0
   61.8910   33.4060   48.7030 C   0  0  0  0  0  0  0  0  0  0  0  0
   61.4150   33.8790   47.4680 C   0  0  0  0  0  0  0  0  0  0  0  0
   60.0510   34.4030   47.2720 C   0  0  0  0  0  0  0  0  0  0  0  0
   59.4460   34.9470   48.2350 O   0  0  0  0  0  0  0  0  0  0  0  0
   59.4430   34.3380   45.9750 N   0  0  0  0  0  0  0  0  0  0  0  0
   58.7180   33.2280   45.4250 C   0  0  0  0  0  0  0  0  0  0  0  0
   58.1820   33.2570   44.1230 C   0  0  0  0  0  0  0  0  0  0  0  0
   57.4640   32.1620   43.6330 C   0  0  0  0  0  0  0  0  0  0  0  0
   57.2640   31.0320   44.4380 C   0  0  0  0  0  0  0  0  0  0  0  0
   56.3790   29.6390   43.8250 S   0  0  0  0  0  0  0  0  0  0  0  0
   55.9240   29.8750   42.4120 O   0  0  0  0  0  0  0  0  0  0  0  0
   55.1760   29.4120   44.6970 O   0  0  0  0  0  0  0  0  0  0  0  0
   57.3940   28.2320   43.8690 N   0  0  0  0  0  0  0  0  0  0  0  0
   58.4020   28.0280   44.8770 C   0  0  0  0  0  0  0  0  0  0  0  0
   59.6940   28.5630   44.7100 C   0  0  0  0  0  0  0  0  0  0  0  0
   60.6780   28.3620   45.6790 C   0  0  0  0  0  0  0  0  0  0  0  0
   60.3930   27.6220   46.8250 C   0  0  0  0  0  0  0  0  0  0  0  0
   59.1190   27.0790   47.0070 C   0  0  0  0  0  0  0  0  0  0  0  0
   58.1130   27.2790   46.0460 C   0  0  0  0  0  0  0  0  0  0  0  0
   56.7460   26.6970   46.2820 C   0  0  0  0  0  0  0  0  0  0  0  0
   57.7710   31.0150   45.7430 C   0  0  0  0  0  0  0  0  0  0  0  0
   58.4890   32.1090   46.2330 C   0  0  0  0  0  0  0  0  0  0  0  0
   62.3550   33.7910   46.4410 C   0  0  0  0  0  0  0  0  0  0  0  0
   63.7660   33.1270   47.0710 S   0  0  0  0  0  0  0  0  0  0  0  0
   63.5501   32.6818   50.7274 H   0  0  0  0  0  0  0  0  0  0  0  0
   63.8760   31.2435   49.7019 H   0  0  0  0  0  0  0  0  0  0  0  0
   65.0238   32.6253   49.7019 H   0  0  0  0  0  0  0  0  0  0  0  0
   61.2834   33.3861   49.6198 H   0  0  0  0  0  0  0  0  0  0  0  0
   58.3287   34.1442   43.4894 H   0  0  0  0  0  0  0  0  0  0  0  0
   57.0547   32.1873   42.6123 H   0  0  0  0  0  0  0  0  0  0  0  0
   57.1650   27.4710   43.1930 H   0  0  0  0  0  0  0  0  0  0  0  0
   59.9299   29.1450   43.8069 H   0  0  0  0  0  0  0  0  0  0  0  0
   61.6818   28.7891   45.5378 H   0  0  0  0  0  0  0  0  0  0  0  0
   61.1714   27.4655   47.5863 H   0  0  0  0  0  0  0  0  0  0  0  0
   58.9012   26.4899   47.9100 H   0  0  0  0  0  0  0  0  0  0  0  0
   56.5625   26.6189   47.3638 H   0  0  0  0  0  0  0  0  0  0  0  0
   55.9861   27.3496   45.8274 H   0  0  0  0  0  0  0  0  0  0  0  0
   56.6898   25.6969   45.8274 H   0  0  0  0  0  0  0  0  0  0  0  0
   57.6035   30.1374   46.3847 H   0  0  0  0  0  0  0  0  0  0  0  0
   58.8772   32.0903   47.2620 H   0  0  0  0  0  0  0  0  0  0  0  0
   62.1999   34.1026   45.3975 H   0  0  0  0  0  0  0  0  0  0  0  0
  1  2  1  0
  2  3  2  0
  3  4  1  0
  4  5  1  0
  5  6  2  0
  5  7  1  0
  7  8  1  0
  8  9  2  0
  9 10  1  0
 10 11  2  0
 11 12  1  0
 12 13  2  0
 12 14  2  0
 12 15  1  0
 15 16  1  0
 16 17  2  0
 17 18  1  0
 18 19  2  0
 19 20  1  0
 20 21  2  0
 21 22  1  0
 11 23  1  0
 23 24  2  0
  4 25  2  0
 25 26  1  0
 26  2  1  0
 24  8  1  0
 21 16  1  0
  1 27  1  0
  1 28  1  0
  1 29  1  0
  3 30  1  0
  9 31  1  0
 10 32  1  0
 15 33  1  0
 17 34  1  0
 18 35  1  0
 19 36  1  0
 20 37  1  0
 22 38  1  0
 22 39  1  0
 22 40  1  0
 23 41  1  0
 24 42  1  0
 25 43  1  0
M  CHG  1   7  -1
M  END
>  <UniqueID>  (9) 
7

>  <SMILES>  (9) 
Cc1cc(C(=O)[N-]c2ccc(S(=O)(=O)Nc3ccccc3C)cc2)cs1

>  <Energy>  (9) 
76.52104137786674

>  <Genealogy>  (9) 
Cc1cc(C(=O)[N-]c2ccc(S(=O)(=O)Nc3ccccc3C)cc2)cs1 (protonated)
Cc1cc(C(=O)[N-]c2ccc(S(=O)(=O)Nc3ccccc3C)cc2)cs1 (3D coordinates assigned)
Cc1cc(C(=O)[N-]c2ccc(S(=O)(=O)Nc3ccccc3C)cc2)cs1 (optimized conformer: 76.52104137786674 kcal/mol)

>  <smiles>  (9) 
Cc1cc(C(=O)Nc2ccc(S(=O)(=O)Nc3ccccc3C)cc2)cs1

>  <score_type>  (9) 
oracle

>  <origin>  (9) 
adg

>  <m_score__min__energy>  (9) 
-10.48

>  <m_primary>  (9) 
energy

$$$$
9:0
     RDKit          3D

 35 36  0  0  0  0  0  0  0  0999 V2000
   61.0550   31.5790   47.8740 C   0  0  0  0  0  0  0  0  0  0  0  0
   60.2350   32.3730   46.9110 C   0  0  0  0  0  0  0  0  0  0  0  0
   60.6900   33.4540   46.2420 N   0  0  0  0  0  0  0  0  0  0  0  0
   59.6920   33.8870   45.4780 N   0  0  0  0  0  0  0  0  0  0  0  0
   58.6450   33.0670   45.6950 C   0  0  0  0  0  0  0  0  0  0  0  0
   57.0580   33.2360   44.8740 S   0  0  0  0  0  0  0  0  0  0  0  0
   57.3680   31.9000   43.6690 C   0  0  0  0  0  0  0  0  0  0  0  0
   57.3380   30.5600   44.3400 C   0  0  0  0  0  0  0  0  0  0  0  0
   56.2670   30.1600   44.8690 O   0  0  0  0  0  0  0  0  0  0  0  0
   58.5030   29.7200   44.3150 N   0  0  0  0  0  0  0  0  0  0  0  0
   58.6100   28.4740   45.0220 C   0  0  0  0  0  0  0  0  0  0  0  0
   59.8420   28.1050   45.5810 C   0  0  0  0  0  0  0  0  0  0  0  0
   59.9670   26.9040   46.2850 C   0  0  0  0  0  0  0  0  0  0  0  0
   58.8600   26.0690   46.4500 C   0  0  0  0  0  0  0  0  0  0  0  0
   57.6160   26.4370   45.9210 C   0  0  0  0  0  0  0  0  0  0  0  0
   56.2050   25.4040   46.1380 S   0  0  0  0  0  0  0  0  0  0  0  0
   54.7690   26.3420   45.9310 N   0  0  0  0  0  0  0  0  0  0  0  0
   56.2280   24.8080   47.5170 O   0  0  0  0  0  0  0  0  0  0  0  0
   56.2140   24.2920   45.1270 O   0  0  0  0  0  0  0  0  0  0  0  0
   57.4930   27.6410   45.2130 C   0  0  0  0  0  0  0  0  0  0  0  0
   58.9580   32.1100   46.5830 N   0  0  0  0  0  0  0  0  0  0  0  0
   58.1420   31.0680   47.0520 N   0  0  0  0  0  0  0  0  0  0  0  0
   60.7759   31.8493   48.9031 H   0  0  0  0  0  0  0  0  0  0  0  0
   60.8718   30.5062   47.7141 H   0  0  0  0  0  0  0  0  0  0  0  0
   62.1213   31.7967   47.7141 H   0  0  0  0  0  0  0  0  0  0  0  0
   56.5924   31.9304   42.8895 H   0  0  0  0  0  0  0  0  0  0  0  0
   58.3633   32.0497   43.2251 H   0  0  0  0  0  0  0  0  0  0  0  0
   59.2760   29.9800   43.6590 H   0  0  0  0  0  0  0  0  0  0  0  0
   60.7148   28.7643   45.4648 H   0  0  0  0  0  0  0  0  0  0  0  0
   60.9398   26.6159   46.7101 H   0  0  0  0  0  0  0  0  0  0  0  0
   58.9649   25.1202   46.9965 H   0  0  0  0  0  0  0  0  0  0  0  0
   54.7620   27.0620   46.6860 H   0  0  0  0  0  0  0  0  0  0  0  0
   56.5155   27.9363   44.8039 H   0  0  0  0  0  0  0  0  0  0  0  0
   57.1780   30.9350   46.6750 H   0  0  0  0  0  0  0  0  0  0  0  0
   58.4860   30.4150   47.7910 H   0  0  0  0  0  0  0  0  0  0  0  0
  1  2  1  0
  2  3  2  0
  3  4  1  0
  4  5  2  0
  5  6  1  0
  6  7  1  0
  7  8  1  0
  8  9  2  0
  8 10  1  0
 10 11  1  0
 11 12  2  0
 12 13  1  0
 13 14  2  0
 14 15  1  0
 15 16  1  0
 16 17  1  0
 16 18  2  0
 16 19  2  0
 15 20  2  0
  5 21  1  0
 21 22  1  0
 21  2  1  0
 20 11  1  0
  1 23  1  0
  1 24  1  0
  1 25  1  0
  7 26  1  0
  7 27  1  0
 10 28  1  0
 12 29  1  0
 13 30  1  0
 14 31  1  0
 17 32  1  0
 20 33  1  0
 22 34  1  0
 22 35  1  0
M  CHG  1  17  -1
M  END
>  <UniqueID>  (10) 
8

>  <SMILES>  (10) 
Cc1nnc(SCC(=O)Nc2cccc(S([NH-])(=O)=O)c2)n1N

>  <Energy>  (10) 
67.69489611412392

>  <Genealogy>  (10) 
Cc1nnc(SCC(=O)Nc2cccc(S([NH-])(=O)=O)c2)n1N (protonated)
Cc1nnc(SCC(=O)Nc2cccc(S([NH-])(=O)=O)c2)n1N (3D coordinates assigned)
Cc1nnc(SCC(=O)Nc2cccc(S([NH-])(=O)=O)c2)n1N (optimized conformer: 67.69489611412392 kcal/mol)

>  <smiles>  (10) 
Cc1nnc(SCC(=O)Nc2cccc(S(N)(=O)=O)c2)n1N

>  <score_type>  (10) 
oracle

>  <origin>  (10) 
adg

>  <m_score__min__energy>  (10) 
-10.960000000000001

>  <m_primary>  (10) 
energy

$$$$
10:0
     RDKit          3D

 63 66  0  0  0  0  0  0  0  0999 V2000
   57.3810   31.9580   41.5230 C   0  0  0  0  0  0  0  0  0  0  0  0
   57.9730   32.5120   42.8140 C   0  0  0  0  0  0  0  0  0  0  0  0
   57.8270   31.5370   43.9060 N   0  0  0  0  0  0  0  0  0  0  0  0
   57.4210   30.1630   43.5670 C   0  0  0  0  0  0  0  0  0  0  0  0
   56.3370   29.6810   44.4870 C   0  0  0  0  0  0  0  0  0  0  0  0
   55.1420   30.0030   44.2550 O   0  0  0  0  0  0  0  0  0  0  0  0
   56.6760   28.8800   45.6260 N   0  0  0  0  0  0  0  0  0  0  0  0
   57.7920   27.9900   45.7920 C   0  0  0  0  0  0  0  0  0  0  0  0
   59.1150   28.4510   45.6540 C   0  0  0  0  0  0  0  0  0  0  0  0
   60.1930   27.5970   45.8930 C   0  0  0  0  0  0  0  0  0  0  0  0
   59.9680   26.2820   46.2940 C   0  0  0  0  0  0  0  0  0  0  0  0
   58.6650   25.8150   46.4560 C   0  0  0  0  0  0  0  0  0  0  0  0
   57.5620   26.6540   46.2100 C   0  0  0  0  0  0  0  0  0  0  0  0
   56.1900   26.1170   46.4000 C   0  0  0  0  0  0  0  0  0  0  0  0
   55.1940   26.7080   45.8960 O   0  0  0  0  0  0  0  0  0  0  0  0
   55.9890   24.9170   47.1570 N   0  0  0  0  0  0  0  0  0  0  0  0
   56.7010   23.6720   46.8970 C   0  0  0  0  0  0  0  0  0  0  0  0
   56.5360   23.2730   45.4570 C   0  0  0  0  0  0  0  0  0  0  0  0
   57.5090   22.4760   44.8330 C   0  0  0  0  0  0  0  0  0  0  0  0
   57.3790   22.1310   43.4840 C   0  0  0  0  0  0  0  0  0  0  0  0
   56.2750   22.5770   42.7510 C   0  0  0  0  0  0  0  0  0  0  0  0
   55.3050   23.3740   43.3640 C   0  0  0  0  0  0  0  0  0  0  0  0
   55.4340   23.7240   44.7110 C   0  0  0  0  0  0  0  0  0  0  0  0
   57.9740   31.9750   45.2780 C   0  0  0  0  0  0  0  0  0  0  0  0
   57.0400   32.6230   45.8290 O   0  0  0  0  0  0  0  0  0  0  0  0
   59.2330   31.7050   46.0640 C   0  0  0  0  0  0  0  0  0  0  0  0
   59.3630   32.6300   47.1960 N   0  0  0  0  0  0  0  0  0  0  0  0
   59.5240   33.9790   47.1640 C   0  0  0  0  0  0  0  0  0  0  0  0
   59.6920   34.7720   45.9070 C   0  0  0  0  0  0  0  0  0  0  0  0
   59.5450   34.5510   48.3970 N   0  0  0  0  0  0  0  0  0  0  0  0
   59.3660   33.5030   49.2190 C   0  0  0  0  0  0  0  0  0  0  0  0
   59.2880   33.5180   50.6100 C   0  0  0  0  0  0  0  0  0  0  0  0
   59.0850   32.2900   51.2670 C   0  0  0  0  0  0  0  0  0  0  0  0
   58.9670   31.0940   50.5250 C   0  0  0  0  0  0  0  0  0  0  0  0
   59.0510   31.1150   49.1210 C   0  0  0  0  0  0  0  0  0  0  0  0
   59.2520   32.3470   48.5040 C   0  0  0  0  0  0  0  0  0  0  0  0
   56.5974   31.2247   41.7641 H   0  0  0  0  0  0  0  0  0  0  0  0
   56.9456   32.7806   40.9367 H   0  0  0  0  0  0  0  0  0  0  0  0
   58.1729   31.4690   40.9367 H   0  0  0  0  0  0  0  0  0  0  0  0
   59.0409   32.7264   42.6601 H   0  0  0  0  0  0  0  0  0  0  0  0
   57.4372   33.4337   43.0851 H   0  0  0  0  0  0  0  0  0  0  0  0
   57.0499   30.1424   42.5317 H   0  0  0  0  0  0  0  0  0  0  0  0
   58.2936   29.5022   43.6763 H   0  0  0  0  0  0  0  0  0  0  0  0
   59.3009   29.4932   45.3552 H   0  0  0  0  0  0  0  0  0  0  0  0
   61.2223   27.9631   45.7644 H   0  0  0  0  0  0  0  0  0  0  0  0
   60.8195   25.6117   46.4829 H   0  0  0  0  0  0  0  0  0  0  0  0
   58.4964   24.7775   46.7803 H   0  0  0  0  0  0  0  0  0  0  0  0
   57.7700   23.8119   47.1155 H   0  0  0  0  0  0  0  0  0  0  0  0
   56.2879   22.8803   47.5393 H   0  0  0  0  0  0  0  0  0  0  0  0
   58.3773   22.1214   45.4077 H   0  0  0  0  0  0  0  0  0  0  0  0
   58.1456   21.5085   42.9994 H   0  0  0  0  0  0  0  0  0  0  0  0
   56.1702   22.3003   41.6915 H   0  0  0  0  0  0  0  0  0  0  0  0
   54.4383   23.7266   42.7856 H   0  0  0  0  0  0  0  0  0  0  0  0
   54.6700   24.3548   45.1888 H   0  0  0  0  0  0  0  0  0  0  0  0
   59.2032   30.6737   46.4455 H   0  0  0  0  0  0  0  0  0  0  0  0
   60.0962   31.8483   45.3974 H   0  0  0  0  0  0  0  0  0  0  0  0
   59.9138   35.8191   46.1609 H   0  0  0  0  0  0  0  0  0  0  0  0
   60.5215   34.3539   45.3178 H   0  0  0  0  0  0  0  0  0  0  0  0
   58.7642   34.7262   45.3178 H   0  0  0  0  0  0  0  0  0  0  0  0
   59.3818   34.4571   51.1751 H   0  0  0  0  0  0  0  0  0  0  0  0
   59.0179   32.2615   52.3646 H   0  0  0  0  0  0  0  0  0  0  0  0
   58.8083   30.1397   51.0486 H   0  0  0  0  0  0  0  0  0  0  0  0
   58.9611   30.1908   48.5313 H   0  0  0  0  0  0  0  0  0  0  0  0
  1  2  1  0
  2  3  1  0
  3  4  1  0
  4  5  1  0
  5  6  2  0
  5  7  1  0
  7  8  1  0
  8  9  2  0
  9 10  1  0
 10 11  2  0
 11 12  1  0
 12 13  2  0
 13 14  1  0
 14 15  2  0
 14 16  1  0
 16 17  1  0
 17 18  1  0
 18 19  2  0
 19 20  1  0
 20 21  2  0
 21 22  1  0
 22 23  2  0
  3 24  1  0
 24 25  2  0
 24 26  1  0
 26 27  1  0
 27 28  1  0
 28 29  1  0
 28 30  2  0
 30 31  1  0
 31 32  2  0
 32 33  1  0
 33 34  2  0
 34 35  1  0
 35 36  2  0
 13  8  1  0
 23 18  1  0
 36 27  1  0
 36 31  1  0
  1 37  1  0
  1 38  1  0
  1 39  1  0
  2 40  1  0
  2 41  1  0
  4 42  1  0
  4 43  1  0
  9 44  1  0
 10 45  1  0
 11 46  1  0
 12 47  1  0
 17 48  1  0
 17 49  1  0
 19 50  1  0
 20 51  1  0
 21 52  1  0
 22 53  1  0
 23 54  1  0
 26 55  1  0
 26 56  1  0
 29 57  1  0
 29 58  1  0
 29 59  1  0
 32 60  1  0
 33 61  1  0
 34 62  1  0
 35 63  1  0
M  CHG  2   7  -1  16  -1
M  END
>  <UniqueID>  (11) 
9

>  <SMILES>  (11) 
CCN(CC(=O)[N-]c1ccccc1C(=O)[N-]Cc1ccccc1)C(=O)Cn1c(C)nc2ccccc21

>  <Energy>  (11) 
98.39881532426924

>  <Genealogy>  (11) 
CCN(CC(=O)[N-]c1ccccc1C(=O)[N-]Cc1ccccc1)C(=O)Cn1c(C)nc2ccccc21 (protonated)
CCN(CC(=O)[N-]c1ccccc1C(=O)[N-]Cc1ccccc1)C(=O)Cn1c(C)nc2ccccc21 (3D coordinates assigned)
CCN(CC(=O)[N-]c1ccccc1C(=O)[N-]Cc1ccccc1)C(=O)Cn1c(C)nc2ccccc21 (optimized conformer: 98.39881532426924 kcal/mol)

>  <smiles>  (11) 
CCN(CC(=O)Nc1ccccc1C(=O)NCc1ccccc1)C(=O)Cn1c(C)nc2ccccc21

>  <score_type>  (11) 
oracle

>  <origin>  (11) 
adg

>  <m_score__min__energy>  (11) 
-14.779999999999999

>  <m_primary>  (11) 
energy

$$$$
11:0
     RDKit          3D

 35 36  0  0  0  0  0  0  0  0999 V2000
   58.5681   32.5073   47.6514 H   0  0  0  0  0  0  0  0  0  0  0  0
   58.4160   32.6220   46.5680 C   0  0  0  0  0  0  0  0  0  0  0  0
   57.7770   31.6080   45.8480 C   0  0  0  0  0  0  0  0  0  0  0  0
   57.4378   30.6985   46.3653 H   0  0  0  0  0  0  0  0  0  0  0  0
   57.5670   31.7470   44.4670 C   0  0  0  0  0  0  0  0  0  0  0  0
   56.9120   30.6430   43.6850 C   0  0  0  0  0  0  0  0  0  0  0  0
   56.0994   31.0630   43.0741 H   0  0  0  0  0  0  0  0  0  0  0  0
   57.6626   30.1684   43.0360 H   0  0  0  0  0  0  0  0  0  0  0  0
   56.3510   29.6160   44.6140 C   0  0  0  0  0  0  0  0  0  0  0  0
   55.1190   29.3510   44.5790 O   0  0  0  0  0  0  0  0  0  0  0  0
   57.2400   28.8160   45.4030 N   0  0  0  0  0  0  0  0  0  0  0  0
   57.1950   27.5430   45.7030 C   0  0  0  0  0  0  0  0  0  0  0  0
   58.3310   26.7600   46.0830 C   0  0  0  0  0  0  0  0  0  0  0  0
   59.7650   27.2220   45.9850 C   0  0  0  0  0  0  0  0  0  0  0  0
   60.1773   27.3548   46.9961 H   0  0  0  0  0  0  0  0  0  0  0  0
   60.3566   26.4690   45.4437 H   0  0  0  0  0  0  0  0  0  0  0  0
   59.8058   28.1788   45.4437 H   0  0  0  0  0  0  0  0  0  0  0  0
   58.1170   25.4320   46.4900 C   0  0  0  0  0  0  0  0  0  0  0  0
   58.9651   24.8283   46.8455 H   0  0  0  0  0  0  0  0  0  0  0  0
   56.8440   24.8730   46.4480 C   0  0  0  0  0  0  0  0  0  0  0  0
   56.6816   23.8357   46.7762 H   0  0  0  0  0  0  0  0  0  0  0  0
   55.7810   25.6370   45.9880 C   0  0  0  0  0  0  0  0  0  0  0  0
   54.7769   25.1932   45.9179 H   0  0  0  0  0  0  0  0  0  0  0  0
   55.9760   26.9310   45.6240 N   0  0  0  0  0  0  0  0  0  0  0  0
   55.1440   27.4790   45.3060 H   0  0  0  0  0  0  0  0  0  0  0  0
   58.0250   32.9020   43.8150 C   0  0  0  0  0  0  0  0  0  0  0  0
   57.8813   33.0110   42.7299 H   0  0  0  0  0  0  0  0  0  0  0  0
   58.6630   33.9150   44.5370 C   0  0  0  0  0  0  0  0  0  0  0  0
   59.0098   34.8212   44.0188 H   0  0  0  0  0  0  0  0  0  0  0  0
   58.8640   33.7810   45.9250 C   0  0  0  0  0  0  0  0  0  0  0  0
   59.4980   34.7670   46.6930 O   0  0  0  0  0  0  0  0  0  0  0  0
   60.0070   34.5600   48.0070 C   0  0  0  0  0  0  0  0  0  0  0  0
   59.2517   34.8672   48.7454 H   0  0  0  0  0  0  0  0  0  0  0  0
   60.2429   33.4945   48.1452 H   0  0  0  0  0  0  0  0  0  0  0  0
   60.9195   35.1585   48.1452 H   0  0  0  0  0  0  0  0  0  0  0  0
  1  2  1  0
  2  3  2  0
  3  4  1  0
  3  5  1  0
  5  6  1  0
  6  7  1  0
  6  8  1  0
  6  9  1  0
  9 10  2  0
  9 11  1  0
 11 12  2  0
 12 13  1  0
 13 14  1  0
 14 15  1  0
 14 16  1  0
 14 17  1  0
 13 18  2  0
 18 19  1  0
 18 20  1  0
 20 21  1  0
 20 22  2  0
 22 23  1  0
 22 24  1  0
 24 25  1  0
  5 26  2  0
 26 27  1  0
 26 28  1  0
 28 29  1  0
 28 30  2  0
 30 31  1  0
 31 32  1  0
 32 33  1  0
 32 34  1  0
 32 35  1  0
 30  2  1  0
 24 12  1  0
M  END
>  <UniqueID>  (12) 
10

>  <SMILES>  (12) 
COc1ccc(CC(=O)/N=c2/[nH]cccc2C)cc1

>  <Energy>  (12) 
49.4907613694351

>  <Genealogy>  (12) 
COc1ccc(CC(=O)/N=c2/[nH]cccc2C)cc1 (cis-trans isomerization)
COc1ccc(CC(=O)/N=c2/[nH]cccc2C)cc1 (3D coordinates assigned)
COc1ccc(CC(=O)/N=c2/[nH]cccc2C)cc1 (optimized conformer: 49.4907613694351 kcal/mol)

>  <smiles>  (12) 
COc1ccc(CC(=O)N=c2[nH]cccc2C)cc1

>  <score_type>  (12) 
oracle

>  <origin>  (12) 
adg

>  <m_score__min__energy>  (12) 
-7.1500000000000004

>  <m_primary>  (12) 
energy

$$$$
12:0
     RDKit          3D

 68 72  0  0  0  0  0  0  0  0999 V2000
   55.4180   24.7240   46.1250 H   0  0  0  0  0  0  0  0  0  0  0  0
   54.6110   25.1210   45.7080 O   0  0  0  0  0  0  0  0  0  0  0  0
   53.8580   24.0440   45.2230 C   0  0  0  0  0  0  0  0  0  0  0  0
   53.1949   24.4005   44.4210 H   0  0  0  0  0  0  0  0  0  0  0  0
   53.2683   23.6261   46.0522 H   0  0  0  0  0  0  0  0  0  0  0  0
   54.7800   22.9320   44.6620 C   0  0  2  0  0  0  0  0  0  0  0  0
   54.2403   21.9737   44.6815 H   0  0  0  0  0  0  0  0  0  0  0  0
   56.0110   22.7480   45.4880 N   0  0  0  0  0  0  0  0  0  0  0  0
   55.7900   22.4700   46.9350 C   0  0  0  0  0  0  0  0  0  0  0  0
   56.1304   21.4443   47.1403 H   0  0  0  0  0  0  0  0  0  0  0  0
   54.7151   22.6204   47.1140 H   0  0  0  0  0  0  0  0  0  0  0  0
   56.5100   23.4030   47.8890 C   0  0  0  0  0  0  0  0  0  0  0  0
   57.2370   22.9150   48.7930 O   0  0  0  0  0  0  0  0  0  0  0  0
   56.4060   24.8280   47.8000 N   0  0  0  0  0  0  0  0  0  0  0  0
   57.2010   25.6980   46.9830 C   0  0  0  0  0  0  0  0  0  0  0  0
   58.5610   25.4020   46.8240 C   0  0  0  0  0  0  0  0  0  0  0  0
   58.9844   24.5050   47.2996 H   0  0  0  0  0  0  0  0  0  0  0  0
   59.3820   26.2380   46.0660 C   0  0  0  0  0  0  0  0  0  0  0  0
   60.4418   25.9815   45.9209 H   0  0  0  0  0  0  0  0  0  0  0  0
   58.8620   27.3980   45.4920 C   0  0  0  0  0  0  0  0  0  0  0  0
   59.5083   28.0420   44.8775 H   0  0  0  0  0  0  0  0  0  0  0  0
   57.5110   27.7490   45.6960 C   0  0  0  0  0  0  0  0  0  0  0  0
   56.9370   28.9470   45.1410 N   0  0  0  0  0  0  0  0  0  0  0  0
   57.3710   30.1690   45.2740 C   0  0  0  0  0  0  0  0  0  0  0  0
   58.5040   30.4440   45.9690 N   0  0  0  0  0  0  0  0  0  0  0  0
   58.9590   31.7150   46.1330 C   0  0  0  0  0  0  0  0  0  0  0  0
   60.1420   31.9080   46.8540 O   0  0  0  0  0  0  0  0  0  0  0  0
   60.4650   31.2310   48.0390 C   0  0  0  0  0  0  0  0  0  0  0  0
   59.5940   30.3020   48.6500 C   0  0  0  0  0  0  0  0  0  0  0  0
   58.6125   30.0941   48.1989 H   0  0  0  0  0  0  0  0  0  0  0  0
   59.9750   29.6400   49.8340 C   0  0  0  0  0  0  0  0  0  0  0  0
   59.2861   28.9219   50.3027 H   0  0  0  0  0  0  0  0  0  0  0  0
   61.2280   29.8890   50.4220 C   0  0  0  0  0  0  0  0  0  0  0  0
   61.5238   29.3816   51.3521 H   0  0  0  0  0  0  0  0  0  0  0  0
   62.0870   30.7940   49.7990 C   0  0  0  0  0  0  0  0  0  0  0  0
   61.7080   31.4430   48.6420 C   0  0  0  0  0  0  0  0  0  0  0  0
   62.7940   32.3170   48.2730 C   0  0  0  0  0  0  0  0  0  0  0  0
   62.8100   33.0990   47.2860 O   0  0  0  0  0  0  0  0  0  0  0  0
   63.8610   32.1790   49.2070 N   0  0  0  0  0  0  0  0  0  0  0  0
   65.0050   33.0740   49.3070 C   0  0  0  0  0  0  0  0  0  0  0  0
   65.2370   33.2555   50.3668 H   0  0  0  0  0  0  0  0  0  0  0  0
   65.8746   32.6140   48.8149 H   0  0  0  0  0  0  0  0  0  0  0  0
   64.7677   34.0287   48.8149 H   0  0  0  0  0  0  0  0  0  0  0  0
   63.4560   31.2230   50.2430 C   0  0  0  0  0  0  0  0  0  0  0  0
   64.1450   30.3663   50.2800 H   0  0  0  0  0  0  0  0  0  0  0  0
   63.4655   31.6542   51.2549 H   0  0  0  0  0  0  0  0  0  0  0  0
   58.2620   32.7870   45.5200 C   0  0  0  0  0  0  0  0  0  0  0  0
   58.7480   34.2210   45.6010 C   0  0  0  0  0  0  0  0  0  0  0  0
   58.0700   35.0100   44.6910 F   0  0  0  0  0  0  0  0  0  0  0  0
   60.1040   34.2700   45.3290 F   0  0  0  0  0  0  0  0  0  0  0  0
   58.5390   34.7500   46.8640 F   0  0  0  0  0  0  0  0  0  0  0  0
   57.0730   32.4770   44.8410 C   0  0  0  0  0  0  0  0  0  0  0  0
   56.4715   33.2840   44.3972 H   0  0  0  0  0  0  0  0  0  0  0  0
   56.6600   31.1890   44.7280 N   0  0  0  0  0  0  0  0  0  0  0  0
   56.6800   26.8770   46.4210 C   0  0  0  0  0  0  0  0  0  0  0  0
   55.6146   27.1188   46.5495 H   0  0  0  0  0  0  0  0  0  0  0  0
   56.9510   21.7720   44.8910 C   0  0  0  0  0  0  0  0  0  0  0  0
   57.8296   21.6699   45.5449 H   0  0  0  0  0  0  0  0  0  0  0  0
   56.4387   20.8041   44.7877 H   0  0  0  0  0  0  0  0  0  0  0  0
   57.4050   22.2380   43.5100 C   0  0  0  0  0  0  0  0  0  0  0  0
   57.9087   23.2119   43.5983 H   0  0  0  0  0  0  0  0  0  0  0  0
   58.1039   21.5026   43.0849 H   0  0  0  0  0  0  0  0  0  0  0  0
   56.1890   22.3740   42.5970 C   0  0  0  0  0  0  0  0  0  0  0  0
   56.5101   22.7630   41.6195 H   0  0  0  0  0  0  0  0  0  0  0  0
   55.7210   21.3863   42.4723 H   0  0  0  0  0  0  0  0  0  0  0  0
   55.1710   23.3350   43.2140 C   0  0  0  0  0  0  0  0  0  0  0  0
   55.6054   24.3454   43.2334 H   0  0  0  0  0  0  0  0  0  0  0  0
   54.2602   23.3002   42.5982 H   0  0  0  0  0  0  0  0  0  0  0  0
  1  2  1  0
  2  3  1  0
  3  4  1  0
  3  5  1  0
  3  6  1  0
  6  7  1  6
  6  8  1  0
  8  9  1  0
  9 10  1  0
  9 11  1  0
  9 12  1  0
 12 13  2  0
 12 14  1  0
 14 15  1  0
 15 16  2  0
 16 17  1  0
 16 18  1  0
 18 19  1  0
 18 20  2  0
 20 21  1  0
 20 22  1  0
 22 23  1  0
 23 24  2  0
 24 25  1  0
 25 26  2  0
 26 27  1  0
 27 28  1  0
 28 29  2  0
 29 30  1  0
 29 31  1  0
 31 32  1  0
 31 33  2  0
 33 34  1  0
 33 35  1  0
 35 36  2  0
 36 37  1  0
 37 38  2  0
 37 39  1  0
 39 40  1  0
 40 41  1  0
 40 42  1  0
 40 43  1  0
 39 44  1  0
 44 45  1  0
 44 46  1  0
 26 47  1  0
 47 48  1  0
 48 49  1  0
 48 50  1  0
 48 51  1  0
 47 52  2  0
 52 53  1  0
 52 54  1  0
 22 55  2  0
 55 56  1  0
  8 57  1  0
 57 58  1  0
 57 59  1  0
 57 60  1  0
 60 61  1  0
 60 62  1  0
 60 63  1  0
 63 64  1  0
 63 65  1  0
 63 66  1  0
 66 67  1  0
 66 68  1  0
 66  6  1  0
 55 15  1  0
 54 24  1  0
 36 28  1  0
 44 35  1  0
M  CHG  2  14  -1  54  -1
M  END
>  <UniqueID>  (13) 
11

>  <SMILES>  (13) 
CN1Cc2cccc(Oc3n/c(=N\c4cccc([N-]C(=O)CN5CCCC[C@@H]5CO)c4)[n-]cc3C(F)(F)F)c2C1=O

>  <Energy>  (13) 
121.12955912339298

>  <Genealogy>  (13) 
CN1Cc2cccc(Oc3nc(=Nc4cccc([N-]C(=O)CN5CCCCC5CO)c4)[n-]cc3C(F)(F)F)c2C1=O (protonated)
CN1Cc2cccc(Oc3nc(=Nc4cccc([N-]C(=O)CN5CCCC[C@@H]5CO)c4)[n-]cc3C(F)(F)F)c2C1=O (chirality)
CN1Cc2cccc(Oc3n/c(=N\c4cccc([N-]C(=O)CN5CCCC[C@@H]5CO)c4)[n-]cc3C(F)(F)F)c2C1=O (cis-trans isomerization)
CN1Cc2cccc(Oc3n/c(=N\c4cccc([N-]C(=O)CN5CCCC[C@@H]5CO)c4)[n-]cc3C(F)(F)F)c2C1=O (3D coordinates assigned)
CN1Cc2cccc(Oc3n/c(=N\c4cccc([N-]C(=O)CN5CCCC[C@@H]5CO)c4)[n-]cc3C(F)(F)F)c2C1=O (nonaromatic ring conformer: 121.12955912339298 kcal/mol)

>  <smiles>  (13) 
CN1Cc2cccc(Oc3nc(=Nc4cccc(NC(=O)CN5CCCCC5CO)c4)[nH]cc3C(F)(F)F)c2C1=O

>  <score_type>  (13) 
oracle

>  <origin>  (13) 
adg

>  <m_score__min__energy>  (13) 
-12.9

>  <m_primary>  (13) 
energy

$$$$
13:0
     RDKit          3D

 63 66  0  0  0  0  0  0  0  0999 V2000
   57.3930   32.0990   44.0250 C   0  0  0  0  0  0  0  0  0  0  0  0
   56.6180   31.2610   44.8800 O   0  0  0  0  0  0  0  0  0  0  0  0
   57.0690   30.0470   45.4180 C   0  0  0  0  0  0  0  0  0  0  0  0
   58.2760   29.9550   46.1570 C   0  0  0  0  0  0  0  0  0  0  0  0
   58.6350   28.7100   46.6730 C   0  0  0  0  0  0  0  0  0  0  0  0
   59.7210   28.3180   47.4300 C   0  0  0  0  0  0  0  0  0  0  0  0
   60.8520   29.1740   47.9140 C   0  0  0  0  0  0  0  0  0  0  0  0
   60.7770   29.3840   49.4030 C   0  0  0  0  0  0  0  0  0  0  0  0
   61.8050   29.1910   50.1080 O   0  0  0  0  0  0  0  0  0  0  0  0
   59.5480   29.8760   50.0490 C   0  0  0  0  0  0  0  0  0  0  0  0
   58.4200   29.6460   49.5340 O   0  0  0  0  0  0  0  0  0  0  0  0
   59.6440   30.6310   51.2620 N   0  0  0  0  0  0  0  0  0  0  0  0
   58.6710   31.6470   51.6570 C   0  0  1  0  0  0  0  0  0  0  0  0
   57.3370   31.0120   51.9190 C   0  0  0  0  0  0  0  0  0  0  0  0
   57.2360   29.7580   51.9490 O   0  0  0  0  0  0  0  0  0  0  0  0
   56.2100   31.7910   52.1500 O   0  0  0  0  0  0  0  0  0  0  0  0
   59.1620   32.3610   52.8810 C   0  0  0  0  0  0  0  0  0  0  0  0
   58.6680   32.0840   54.0060 O   0  0  0  0  0  0  0  0  0  0  0  0
   60.1250   33.3640   52.7590 O   0  0  0  0  0  0  0  0  0  0  0  0
   61.4570   33.2160   53.2420 C   0  0  0  0  0  0  0  0  0  0  0  0
   62.4660   33.3670   52.0940 C   0  0  2  0  0  0  0  0  0  0  0  0
   61.8650   33.9810   50.9790 O   0  0  0  0  0  0  0  0  0  0  0  0
   62.6650   33.6350   49.8720 C   0  0  2  0  0  0  0  0  0  0  0  0
   61.8620   33.5960   48.6320 N   0  0  0  0  0  0  0  0  0  0  0  0
   60.5100   33.4080   48.7300 C   0  0  0  0  0  0  0  0  0  0  0  0
   59.7010   33.4010   47.5880 C   0  0  0  0  0  0  0  0  0  0  0  0
   58.2220   33.1590   47.6940 C   0  0  0  0  0  0  0  0  0  0  0  0
   60.3160   33.5870   46.3450 C   0  0  0  0  0  0  0  0  0  0  0  0
   59.6390   33.5710   45.2820 O   0  0  0  0  0  0  0  0  0  0  0  0
   61.6540   33.7900   46.2800 N   0  0  0  0  0  0  0  0  0  0  0  0
   62.4250   33.8030   47.3970 C   0  0  0  0  0  0  0  0  0  0  0  0
   63.6610   34.0150   47.2770 O   0  0  0  0  0  0  0  0  0  0  0  0
   63.3330   32.2850   50.1420 C   0  0  0  0  0  0  0  0  0  0  0  0
   63.1060   32.0540   51.6230 C   0  0  2  0  0  0  0  0  0  0  0  0
   62.2970   30.9240   51.8540 O   0  0  0  0  0  0  0  0  0  0  0  0
   59.5440   26.9590   47.6690 C   0  0  0  0  0  0  0  0  0  0  0  0
   58.4070   26.5210   47.0780 N   0  0  0  0  0  0  0  0  0  0  0  0
   57.8640   27.5950   46.4790 C   0  0  0  0  0  0  0  0  0  0  0  0
   56.6790   27.6450   45.7490 C   0  0  0  0  0  0  0  0  0  0  0  0
   56.2850   28.8850   45.2100 C   0  0  0  0  0  0  0  0  0  0  0  0
   55.1130   28.9640   44.4650 O   0  0  0  0  0  0  0  0  0  0  0  0
   58.0144   32.7709   44.6352 H   0  0  0  0  0  0  0  0  0  0  0  0
   58.0406   31.4764   43.3902 H   0  0  0  0  0  0  0  0  0  0  0  0
   56.7218   32.6960   43.3902 H   0  0  0  0  0  0  0  0  0  0  0  0
   58.9101   30.8392   46.3184 H   0  0  0  0  0  0  0  0  0  0  0  0
   61.8048   28.6822   47.6685 H   0  0  0  0  0  0  0  0  0  0  0  0
   60.7831   30.1544   47.4199 H   0  0  0  0  0  0  0  0  0  0  0  0
   58.5529   32.3749   50.8407 H   0  0  0  0  0  0  0  0  0  0  0  0
   61.6545   33.9872   54.0011 H   0  0  0  0  0  0  0  0  0  0  0  0
   61.5663   32.2137   53.6819 H   0  0  0  0  0  0  0  0  0  0  0  0
   63.2682   33.9896   52.5168 H   0  0  0  0  0  0  0  0  0  0  0  0
   63.4430   34.3996   49.7301 H   0  0  0  0  0  0  0  0  0  0  0  0
   60.0530   33.2604   49.7196 H   0  0  0  0  0  0  0  0  0  0  0  0
   57.9333   33.1118   48.7544 H   0  0  0  0  0  0  0  0  0  0  0  0
   57.6799   33.9804   47.2026 H   0  0  0  0  0  0  0  0  0  0  0  0
   57.9700   32.2077   47.2026 H   0  0  0  0  0  0  0  0  0  0  0  0
   62.8625   31.4895   49.5454 H   0  0  0  0  0  0  0  0  0  0  0  0
   64.3990   32.2780   49.8706 H   0  0  0  0  0  0  0  0  0  0  0  0
   64.0286   31.8284   52.1778 H   0  0  0  0  0  0  0  0  0  0  0  0
   61.4900   30.9960   51.2770 H   0  0  0  0  0  0  0  0  0  0  0  0
   60.2301   26.3296   48.2548 H   0  0  0  0  0  0  0  0  0  0  0  0
   58.0330   25.5490   47.0870 H   0  0  0  0  0  0  0  0  0  0  0  0
   56.0687   26.7424   45.5979 H   0  0  0  0  0  0  0  0  0  0  0  0
  1  2  1  0
  2  3  1  0
  3  4  2  0
  4  5  1  0
  5  6  1  0
  6  7  1  0
  7  8  1  0
  8  9  2  0
  8 10  1  0
 10 11  2  0
 10 12  1  0
 12 13  1  0
 13 14  1  0
 14 15  2  0
 14 16  1  0
 13 17  1  0
 17 18  2  0
 17 19  1  0
 19 20  1  0
 20 21  1  0
 21 22  1  0
 22 23  1  0
 23 24  1  0
 24 25  1  0
 25 26  2  0
 26 27  1  0
 26 28  1  0
 28 29  2  0
 28 30  1  0
 30 31  1  0
 31 32  2  0
 23 33  1  0
 33 34  1  0
 34 35  1  0
  6 36  2  0
 36 37  1  0
 37 38  1  0
 38 39  1  0
 39 40  2  0
 40 41  1  0
 40  3  1  0
 38  5  2  0
 34 21  1  0
 31 24  1  0
  1 42  1  0
  1 43  1  0
  1 44  1  0
  4 45  1  0
  7 46  1  0
  7 47  1  0
 13 48  1  6
 20 49  1  0
 20 50  1  0
 21 51  1  1
 23 52  1  6
 25 53  1  0
 27 54  1  0
 27 55  1  0
 27 56  1  0
 33 57  1  0
 33 58  1  0
 34 59  1  1
 35 60  1  0
 36 61  1  0
 37 62  1  0
 39 63  1  0
M  CHG  4  12  -1  16  -1  30  -1  41  -1
M  END
>  <UniqueID>  (14) 
12

>  <SMILES>  (14) 
COc1cc2c(CC(=O)C(=O)[N-][C@@H](C(=O)[O-])C(=O)OC[C@@H]3OC(n4cc(C)c(=O)[n-]c4=O)CC3O)c[nH]c2cc1[O-]

>  <Energy>  (14) 
97.9640443843705

>  <Genealogy>  (14) 
COc1cc2c(CC(=O)C(=O)[N-]C(C(=O)[O-])C(=O)OCC3OC(n4cc(C)c(=O)[n-]c4=O)CC3O)c[nH]c2cc1[O-] (protonated)
COc1cc2c(CC(=O)C(=O)[N-][C@@H](C(=O)[O-])C(=O)OC[C@@H]3OC(n4cc(C)c(=O)[n-]c4=O)CC3O)c[nH]c2cc1[O-] (chirality)
COc1cc2c(CC(=O)C(=O)[N-][C@@H](C(=O)[O-])C(=O)OC[C@@H]3OC(n4cc(C)c(=O)[n-]c4=O)CC3O)c[nH]c2cc1[O-] (3D coordinates assigned)
COc1cc2c(CC(=O)C(=O)[N-][C@@H](C(=O)[O-])C(=O)OC[C@@H]3OC(n4cc(C)c(=O)[n-]c4=O)CC3O)c[nH]c2cc1[O-] (nonaromatic ring conformer: 97.9640443843705 kcal/mol)

>  <smiles>  (14) 
COc1cc2c(CC(=O)C(=O)NC(C(=O)O)C(=O)OCC3OC(n4cc(C)c(=O)[nH]c4=O)CC3O)c[nH]c2cc1O

>  <score_type>  (14) 
oracle

>  <origin>  (14) 
adg

>  <m_score__min__energy>  (14) 
-14.949999999999999

>  <m_primary>  (14) 
energy

$$$$
14:0
     RDKit          3D

 60 62  0  0  0  0  0  0  0  0999 V2000
   62.4060   34.2380   49.6270 C   0  0  0  0  0  0  0  0  0  0  0  0
   63.4000   33.8460   48.5580 C   0  0  0  0  0  0  0  0  0  0  0  0
   62.8130   33.8710   47.1840 C   0  0  0  0  0  0  0  0  0  0  0  0
   61.6780   33.0200   46.9900 N   0  0  0  0  0  0  0  0  0  0  0  0
   61.7090   31.6800   47.1240 C   0  0  0  0  0  0  0  0  0  0  0  0
   62.7880   31.1170   47.4380 O   0  0  0  0  0  0  0  0  0  0  0  0
   60.5820   30.9080   46.9230 C   0  0  0  0  0  0  0  0  0  0  0  0
   60.3670   29.5990   46.9950 N   0  0  0  0  0  0  0  0  0  0  0  0
   59.0640   29.3340   46.7060 C   0  0  0  0  0  0  0  0  0  0  0  0
   58.4150   28.0250   46.6710 C   0  0  0  0  0  0  0  0  0  0  0  0
   57.2400   27.8060   45.9620 C   0  0  0  0  0  0  0  0  0  0  0  0
   56.6660   26.5360   45.9670 C   0  0  0  0  0  0  0  0  0  0  0  0
   57.2390   25.4890   46.6600 C   0  0  0  0  0  0  0  0  0  0  0  0
   56.4450   23.9420   46.5910 S   0  0  0  0  0  0  0  0  0  0  0  0
   57.3830   22.9170   47.2180 O   0  0  0  0  0  0  0  0  0  0  0  0
   55.2590   23.9960   47.5100 O   0  0  0  0  0  0  0  0  0  0  0  0
   56.0650   23.4050   45.0300 N   0  0  0  0  0  0  0  0  0  0  0  0
   57.1330   23.3620   44.0870 C   0  0  0  0  0  0  0  0  0  0  0  0
   56.6620   22.4090   42.9730 C   0  0  0  0  0  0  0  0  0  0  0  0
   57.3790   24.7040   43.4190 C   0  0  0  0  0  0  0  0  0  0  0  0
   58.4300   22.8230   44.5920 C   0  0  0  0  0  0  0  0  0  0  0  0
   58.3930   25.7400   47.3450 C   0  0  0  0  0  0  0  0  0  0  0  0
   58.9890   26.9880   47.3620 C   0  0  0  0  0  0  0  0  0  0  0  0
   58.4610   30.5290   46.4460 N   0  0  0  0  0  0  0  0  0  0  0  0
   59.3790   31.5100   46.5760 C   0  0  0  0  0  0  0  0  0  0  0  0
   59.3820   32.8520   46.4500 N   0  0  0  0  0  0  0  0  0  0  0  0
   58.1190   33.5100   46.0830 C   0  0  0  0  0  0  0  0  0  0  0  0
   58.1850   33.7070   44.5730 C   0  0  0  0  0  0  0  0  0  0  0  0
   57.7690   32.4610   43.8340 C   0  0  0  0  0  0  0  0  0  0  0  0
   60.5000   33.5930   46.6510 C   0  0  0  0  0  0  0  0  0  0  0  0
   60.3890   34.8450   46.5060 O   0  0  0  0  0  0  0  0  0  0  0  0
   62.8472   34.0640   50.6195 H   0  0  0  0  0  0  0  0  0  0  0  0
   62.1532   35.3032   49.5198 H   0  0  0  0  0  0  0  0  0  0  0  0
   61.4942   33.6321   49.5198 H   0  0  0  0  0  0  0  0  0  0  0  0
   64.2467   34.5474   48.5912 H   0  0  0  0  0  0  0  0  0  0  0  0
   63.7174   32.8131   48.7637 H   0  0  0  0  0  0  0  0  0  0  0  0
   62.5053   34.9040   46.9642 H   0  0  0  0  0  0  0  0  0  0  0  0
   63.5964   33.4930   46.5106 H   0  0  0  0  0  0  0  0  0  0  0  0
   61.0720   28.8680   47.2350 H   0  0  0  0  0  0  0  0  0  0  0  0
   56.7677   28.6268   45.4024 H   0  0  0  0  0  0  0  0  0  0  0  0
   55.7355   26.3643   45.4061 H   0  0  0  0  0  0  0  0  0  0  0  0
   55.3420   24.0490   44.6390 H   0  0  0  0  0  0  0  0  0  0  0  0
   56.2174   21.5094   43.4237 H   0  0  0  0  0  0  0  0  0  0  0  0
   55.9109   22.9163   42.3497 H   0  0  0  0  0  0  0  0  0  0  0  0
   57.5212   22.1204   42.3497 H   0  0  0  0  0  0  0  0  0  0  0  0
   57.5206   25.4765   44.1892 H   0  0  0  0  0  0  0  0  0  0  0  0
   58.2807   24.6417   42.7920 H   0  0  0  0  0  0  0  0  0  0  0  0
   56.5138   24.9656   42.7920 H   0  0  0  0  0  0  0  0  0  0  0  0
   58.4246   22.8252   45.6920 H   0  0  0  0  0  0  0  0  0  0  0  0
   58.5660   21.7939   44.2281 H   0  0  0  0  0  0  0  0  0  0  0  0
   59.2553   23.4526   44.2281 H   0  0  0  0  0  0  0  0  0  0  0  0
   58.8663   24.9194   47.9041 H   0  0  0  0  0  0  0  0  0  0  0  0
   59.9191   27.1484   47.9270 H   0  0  0  0  0  0  0  0  0  0  0  0
   57.2624   32.8738   46.3504 H   0  0  0  0  0  0  0  0  0  0  0  0
   57.9876   34.4647   46.6133 H   0  0  0  0  0  0  0  0  0  0  0  0
   57.5133   34.5310   44.2905 H   0  0  0  0  0  0  0  0  0  0  0  0
   59.2253   33.9384   44.3006 H   0  0  0  0  0  0  0  0  0  0  0  0
   57.5068   31.6756   44.5581 H   0  0  0  0  0  0  0  0  0  0  0  0
   56.8964   32.6835   43.2023 H   0  0  0  0  0  0  0  0  0  0  0  0
   58.6002   32.1146   43.2023 H   0  0  0  0  0  0  0  0  0  0  0  0
  1  2  1  0
  2  3  1  0
  3  4  1  0
  4  5  1  0
  5  6  2  0
  5  7  1  0
  7  8  1  0
  8  9  1  0
  9 10  1  0
 10 11  2  0
 11 12  1  0
 12 13  2  0
 13 14  1  0
 14 15  2  0
 14 16  2  0
 14 17  1  0
 17 18  1  0
 18 19  1  0
 18 20  1  0
 18 21  1  0
 13 22  1  0
 22 23  2  0
  9 24  2  0
 24 25  1  0
 25 26  1  0
 26 27  1  0
 27 28  1  0
 28 29  1  0
 26 30  1  0
 30 31  2  0
 30  4  1  0
 25  7  2  0
 23 10  1  0
  1 32  1  0
  1 33  1  0
  1 34  1  0
  2 35  1  0
  2 36  1  0
  3 37  1  0
  3 38  1  0
  8 39  1  0
 11 40  1  0
 12 41  1  0
 17 42  1  0
 19 43  1  0
 19 44  1  0
 19 45  1  0
 20 46  1  0
 20 47  1  0
 20 48  1  0
 21 49  1  0
 21 50  1  0
 21 51  1  0
 22 52  1  0
 23 53  1  0
 27 54  1  0
 27 55  1  0
 28 56  1  0
 28 57  1  0
 29 58  1  0
 29 59  1  0
 29 60  1  0
M  END
>  <smiles>  (15) 
CCCn1c(=O)c2[nH]c(-c3ccc(S(=O)(=O)NC(C)(C)C)cc3)nc2n(CCC)c1=O

>  <score_type>  (15) 
oracle

>  <origin>  (15) 
adg

>  <m_score__min__energy>  (15) 
-8.2599999999999998

>  <m_primary>  (15) 
energy

$$$$
15:0
     RDKit          3D

 33 35  0  0  0  0  0  0  0  0999 V2000
   55.5490   30.0970   44.4770 O   0  0  0  0  0  0  0  0  0  0  0  0
   56.8990   30.7570   44.4920 S   0  0  0  0  0  0  0  0  0  0  0  0
   57.2150   31.2560   43.1100 O   0  0  0  0  0  0  0  0  0  0  0  0
   56.8600   32.1020   45.5850 N   0  0  0  0  0  0  0  0  0  0  0  0
   57.9020   33.0800   45.7460 C   0  0  0  0  0  0  0  0  0  0  0  0
   58.2600   33.9420   44.6920 C   0  0  0  0  0  0  0  0  0  0  0  0
   59.2670   34.8920   44.8610 C   0  0  0  0  0  0  0  0  0  0  0  0
   59.9380   35.0000   46.0790 C   0  0  0  0  0  0  0  0  0  0  0  0
   59.6040   34.1520   47.1440 C   0  0  0  0  0  0  0  0  0  0  0  0
   60.2800   34.2600   48.3700 C   0  0  0  0  0  0  0  0  0  0  0  0
   59.9460   33.4170   49.4320 C   0  0  0  0  0  0  0  0  0  0  0  0
   58.9400   32.4630   49.2810 C   0  0  0  0  0  0  0  0  0  0  0  0
   58.2590   32.3420   48.0670 C   0  0  0  0  0  0  0  0  0  0  0  0
   58.5800   33.1830   46.9820 C   0  0  0  0  0  0  0  0  0  0  0  0
   58.1450   29.6140   44.9830 C   0  0  0  0  0  0  0  0  0  0  0  0
   59.2860   30.0680   45.6570 C   0  0  0  0  0  0  0  0  0  0  0  0
   60.2730   29.1620   46.0570 C   0  0  0  0  0  0  0  0  0  0  0  0
   60.1280   27.7960   45.7820 C   0  0  0  0  0  0  0  0  0  0  0  0
   61.1030   26.8840   46.1760 O   0  0  0  0  0  0  0  0  0  0  0  0
   58.9910   27.3420   45.1030 C   0  0  0  0  0  0  0  0  0  0  0  0
   58.0030   28.2480   44.7030 C   0  0  0  0  0  0  0  0  0  0  0  0
   57.7403   33.8655   43.7255 H   0  0  0  0  0  0  0  0  0  0  0  0
   59.5336   35.5601   44.0288 H   0  0  0  0  0  0  0  0  0  0  0  0
   60.7309   35.7521   46.2041 H   0  0  0  0  0  0  0  0  0  0  0  0
   61.0746   35.0105   48.4942 H   0  0  0  0  0  0  0  0  0  0  0  0
   60.4781   33.5057   50.3907 H   0  0  0  0  0  0  0  0  0  0  0  0
   58.6814   31.8026   50.1218 H   0  0  0  0  0  0  0  0  0  0  0  0
   57.4676   31.5860   47.9571 H   0  0  0  0  0  0  0  0  0  0  0  0
   59.4058   31.1401   45.8721 H   0  0  0  0  0  0  0  0  0  0  0  0
   61.1657   29.5227   46.5890 H   0  0  0  0  0  0  0  0  0  0  0  0
   61.9270   26.7120   45.6120 H   0  0  0  0  0  0  0  0  0  0  0  0
   58.8743   26.2705   44.8835 H   0  0  0  0  0  0  0  0  0  0  0  0
   57.1124   27.8874   44.1674 H   0  0  0  0  0  0  0  0  0  0  0  0
  1  2  2  0
  2  3  2  0
  2  4  1  0
  4  5  1  0
  5  6  2  0
  6  7  1  0
  7  8  2  0
  8  9  1  0
  9 10  2  0
 10 11  1  0
 11 12  2  0
 12 13  1  0
 13 14  2  0
  2 15  1  0
 15 16  2  0
 16 17  1  0
 17 18  2  0
 18 19  1  0
 18 20  1  0
 20 21  2  0
 14  5  1  0
 21 15  1  0
 14  9  1  0
  6 22  1  0
  7 23  1  0
  8 24  1  0
 10 25  1  0
 11 26  1  0
 12 27  1  0
 13 28  1  0
 16 29  1  0
 17 30  1  0
 19 31  1  0
 20 32  1  0
 21 33  1  0
M  CHG  1   4  -1
M  END
>  <UniqueID>  (16) 
13

>  <SMILES>  (16) 
O=S(=O)([N-]c1cccc2ccccc12)c1ccc(O)cc1

>  <Energy>  (16) 
42.8278199733008

>  <Genealogy>  (16) 
O=S(=O)([N-]c1cccc2ccccc12)c1ccc(O)cc1 (protonated)
O=S(=O)([N-]c1cccc2ccccc12)c1ccc(O)cc1 (3D coordinates assigned)
O=S(=O)([N-]c1cccc2ccccc12)c1ccc(O)cc1 (optimized conformer: 42.8278199733008 kcal/mol)

>  <smiles>  (16) 
O=S(=O)(Nc1cccc2ccccc12)c1ccc(O)cc1

>  <score_type>  (16) 
oracle

>  <origin>  (16) 
adg

>  <m_score__min__energy>  (16) 
-9.5899999999999999

>  <m_primary>  (16) 
energy

$$$$
16:0
     RDKit          3D

 31 32  0  0  0  0  0  0  0  0999 V2000
   59.2470   34.9340   45.2300 C   0  0  0  0  0  0  0  0  0  0  0  0
   58.0790   34.0530   45.6580 C   0  0  0  0  0  0  0  0  0  0  0  0
   58.5650   32.8810   46.4520 C   0  0  0  0  0  0  0  0  0  0  0  0
   59.1580   31.7360   45.9170 C   0  0  0  0  0  0  0  0  0  0  0  0
   59.4490   30.7840   46.9020 C   0  0  0  0  0  0  0  0  0  0  0  0
   60.0500   29.5330   46.7450 C   0  0  0  0  0  0  0  0  0  0  0  0
   60.5880   28.9330   45.1390 S   0  0  0  0  0  0  0  0  0  0  0  0
   59.4530   27.5020   45.1200 C   0  0  0  0  0  0  0  0  0  0  0  0
   58.0370   27.9530   44.9580 C   0  0  0  0  0  0  0  0  0  0  0  0
   57.0950   27.1750   45.2680 O   0  0  0  0  0  0  0  0  0  0  0  0
   57.7680   29.2690   44.4590 N   0  0  0  0  0  0  0  0  0  0  0  0
   56.5370   29.9830   44.6140 C   0  0  0  0  0  0  0  0  0  0  0  0
   55.3020   29.3020   44.8470 N   0  0  0  0  0  0  0  0  0  0  0  0
   56.5380   31.2360   44.4940 O   0  0  0  0  0  0  0  0  0  0  0  0
   60.2360   28.7560   47.8500 N   0  0  0  0  0  0  0  0  0  0  0  0
   59.8560   29.1770   49.0940 C   0  0  0  0  0  0  0  0  0  0  0  0
   59.2720   30.3970   49.2590 N   0  0  0  0  0  0  0  0  0  0  0  0
   59.0760   31.1800   48.1700 C   0  0  0  0  0  0  0  0  0  0  0  0
   58.3780   32.7050   48.1270 S   0  0  0  0  0  0  0  0  0  0  0  0
   59.7604   35.3213   46.1224 H   0  0  0  0  0  0  0  0  0  0  0  0
   59.9526   34.3412   44.6294 H   0  0  0  0  0  0  0  0  0  0  0  0
   58.8709   35.7753   44.6294 H   0  0  0  0  0  0  0  0  0  0  0  0
   57.3868   34.6451   46.2746 H   0  0  0  0  0  0  0  0  0  0  0  0
   57.5662   33.6829   44.7580 H   0  0  0  0  0  0  0  0  0  0  0  0
   59.3717   31.5977   44.8469 H   0  0  0  0  0  0  0  0  0  0  0  0
   59.7195   26.8408   44.2823 H   0  0  0  0  0  0  0  0  0  0  0  0
   59.5459   26.9642   46.0750 H   0  0  0  0  0  0  0  0  0  0  0  0
   54.4270   29.8490   45.0080 H   0  0  0  0  0  0  0  0  0  0  0  0
   55.2270   28.2650   44.7580 H   0  0  0  0  0  0  0  0  0  0  0  0
   60.0225   28.5276   49.9661 H   0  0  0  0  0  0  0  0  0  0  0  0
   58.9800   30.7210   50.2090 H   0  0  0  0  0  0  0  0  0  0  0  0
  1  2  1  0
  2  3  1  0
  3  4  2  0
  4  5  1  0
  5  6  2  0
  6  7  1  0
  7  8  1  0
  8  9  1  0
  9 10  2  0
  9 11  1  0
 11 12  1  0
 12 13  1  0
 12 14  2  0
  6 15  1  0
 15 16  2  0
 16 17  1  0
 17 18  2  0
 18 19  1  0
 19  3  1  0
 18  5  1  0
  1 20  1  0
  1 21  1  0
  1 22  1  0
  2 23  1  0
  2 24  1  0
  4 25  1  0
  8 26  1  0
  8 27  1  0
 13 28  1  0
 13 29  1  0
 16 30  1  0
 17 31  1  0
M  CHG  2  11  -1  17   1
M  END
>  <UniqueID>  (17) 
14

>  <SMILES>  (17) 
CCc1cc2c(SCC(=O)[N-]C(N)=O)nc[nH+]c2s1

>  <Energy>  (17) 
54.685948903642874

>  <Genealogy>  (17) 
CCc1cc2c(SCC(=O)[N-]C(N)=O)nc[nH+]c2s1 (protonated)
CCc1cc2c(SCC(=O)[N-]C(N)=O)nc[nH+]c2s1 (3D coordinates assigned)
CCc1cc2c(SCC(=O)[N-]C(N)=O)nc[nH+]c2s1 (optimized conformer: 54.685948903642874 kcal/mol)

>  <smiles>  (17) 
CCc1cc2c(SCC(=O)NC(N)=O)ncnc2s1

>  <score_type>  (17) 
oracle

>  <origin>  (17) 
adg

>  <m_score__min__energy>  (17) 
-7.6299999999999999

>  <m_primary>  (17) 
energy

$$$$
17:0
     RDKit          3D

 62 64  0  0  0  0  0  0  0  0999 V2000
   60.1910   26.3070   46.4250 C   0  0  0  0  0  0  0  0  0  0  0  0
   60.7360   26.8570   47.7390 C   0  0  0  0  0  0  0  0  0  0  0  0
   60.2090   28.2430   47.9960 C   0  0  0  0  0  0  0  0  0  0  0  0
   60.6740   28.9860   49.0930 C   0  0  0  0  0  0  0  0  0  0  0  0
   60.1660   30.2640   49.3460 C   0  0  0  0  0  0  0  0  0  0  0  0
   59.1770   30.8060   48.5160 C   0  0  0  0  0  0  0  0  0  0  0  0
   58.5720   32.4290   48.8270 S   0  0  0  0  0  0  0  0  0  0  0  0
   57.3810   32.7170   47.9570 O   0  0  0  0  0  0  0  0  0  0  0  0
   58.1450   32.5070   50.2670 O   0  0  0  0  0  0  0  0  0  0  0  0
   59.8270   33.5950   48.5150 N   0  0  0  0  0  0  0  0  0  0  0  0
   59.6400   34.6040   47.4640 C   0  0  0  0  0  0  0  0  0  0  0  0
   59.9070   34.0080   46.0820 C   0  0  0  0  0  0  0  0  0  0  0  0
   59.0310   32.8610   45.8450 N   0  0  0  0  0  0  0  0  0  0  0  0
   57.7680   32.9610   45.1780 C   0  0  0  0  0  0  0  0  0  0  0  0
   57.3570   34.0780   44.7610 O   0  0  0  0  0  0  0  0  0  0  0  0
   57.0110   31.7950   44.9880 O   0  0  0  0  0  0  0  0  0  0  0  0
   57.1270   30.8750   43.8930 C   0  0  0  0  0  0  0  0  0  0  0  0
   55.8560   30.0130   43.7690 C   0  0  0  0  0  0  0  0  0  0  0  0
   57.4020   31.6270   42.5770 C   0  0  0  0  0  0  0  0  0  0  0  0
   58.3210   29.9570   44.1970 C   0  0  0  0  0  0  0  0  0  0  0  0
   61.1090   33.4440   49.1420 C   0  0  0  0  0  0  0  0  0  0  0  0
   61.4230   33.8440   50.7540 S   0  0  0  0  0  0  0  0  0  0  0  0
   63.0540   33.4590   50.6800 C   0  0  0  0  0  0  0  0  0  0  0  0
   64.0010   33.5530   51.6980 C   0  0  0  0  0  0  0  0  0  0  0  0
   65.3240   33.1890   51.4120 C   0  0  0  0  0  0  0  0  0  0  0  0
   65.6750   32.7450   50.1230 C   0  0  0  0  0  0  0  0  0  0  0  0
   64.7050   32.6550   49.1110 C   0  0  0  0  0  0  0  0  0  0  0  0
   63.3810   33.0150   49.4030 C   0  0  0  0  0  0  0  0  0  0  0  0
   62.2810   32.9820   48.5240 C   0  0  0  0  0  0  0  0  0  0  0  0
   62.3580   32.5100   47.1010 C   0  0  0  0  0  0  0  0  0  0  0  0
   58.7040   30.0650   47.4250 C   0  0  0  0  0  0  0  0  0  0  0  0
   59.2120   28.7880   47.1700 C   0  0  0  0  0  0  0  0  0  0  0  0
   59.4311   25.5401   46.6356 H   0  0  0  0  0  0  0  0  0  0  0  0
   59.7365   27.1243   45.8458 H   0  0  0  0  0  0  0  0  0  0  0  0
   61.0124   25.8599   45.8458 H   0  0  0  0  0  0  0  0  0  0  0  0
   60.4285   26.1955   48.5623 H   0  0  0  0  0  0  0  0  0  0  0  0
   61.8332   26.9025   47.6749 H   0  0  0  0  0  0  0  0  0  0  0  0
   61.4415   28.5607   49.7564 H   0  0  0  0  0  0  0  0  0  0  0  0
   60.5445   30.8454   50.1997 H   0  0  0  0  0  0  0  0  0  0  0  0
   58.6056   34.9762   47.5020 H   0  0  0  0  0  0  0  0  0  0  0  0
   60.3506   35.4260   47.6355 H   0  0  0  0  0  0  0  0  0  0  0  0
   59.7185   34.7731   45.3145 H   0  0  0  0  0  0  0  0  0  0  0  0
   60.9540   33.6743   46.0329 H   0  0  0  0  0  0  0  0  0  0  0  0
   59.3050   31.9330   46.2400 H   0  0  0  0  0  0  0  0  0  0  0  0
   55.4844   29.7610   44.7732 H   0  0  0  0  0  0  0  0  0  0  0  0
   55.0839   30.5746   43.2226 H   0  0  0  0  0  0  0  0  0  0  0  0
   56.0922   29.0880   43.2226 H   0  0  0  0  0  0  0  0  0  0  0  0
   57.7717   32.6381   42.8028 H   0  0  0  0  0  0  0  0  0  0  0  0
   58.1588   31.0815   41.9942 H   0  0  0  0  0  0  0  0  0  0  0  0
   56.4718   31.6984   41.9942 H   0  0  0  0  0  0  0  0  0  0  0  0
   58.4433   29.8630   45.2861 H   0  0  0  0  0  0  0  0  0  0  0  0
   58.1398   28.9634   43.7613 H   0  0  0  0  0  0  0  0  0  0  0  0
   59.2347   30.3874   43.7613 H   0  0  0  0  0  0  0  0  0  0  0  0
   63.7173   33.9041   52.7011 H   0  0  0  0  0  0  0  0  0  0  0  0
   66.0911   33.2505   52.1979 H   0  0  0  0  0  0  0  0  0  0  0  0
   66.7169   32.4664   49.9066 H   0  0  0  0  0  0  0  0  0  0  0  0
   64.9796   32.3073   48.1042 H   0  0  0  0  0  0  0  0  0  0  0  0
   62.5351   31.4245   47.0838 H   0  0  0  0  0  0  0  0  0  0  0  0
   61.4112   32.7352   46.5882 H   0  0  0  0  0  0  0  0  0  0  0  0
   63.1841   33.0244   46.5882 H   0  0  0  0  0  0  0  0  0  0  0  0
   57.9309   30.4893   46.7675 H   0  0  0  0  0  0  0  0  0  0  0  0
   58.8291   28.2068   46.3181 H   0  0  0  0  0  0  0  0  0  0  0  0
  1  2  1  0
  2  3  1  0
  3  4  2  0
  4  5  1  0
  5  6  2  0
  6  7  1  0
  7  8  2  0
  7  9  2  0
  7 10  1  0
 10 11  1  0
 11 12  1  0
 12 13  1  0
 13 14  1  0
 14 15  2  0
 14 16  1  0
 16 17  1  0
 17 18  1  0
 17 19  1  0
 17 20  1  0
 10 21  1  0
 21 22  1  0
 22 23  1  0
 23 24  2  0
 24 25  1  0
 25 26  2  0
 26 27  1  0
 27 28  2  0
 28 29  1  0
 29 30  1  0
  6 31  1  0
 31 32  2  0
 32  3  1  0
 29 21  2  0
 28 23  1  0
  1 33  1  0
  1 34  1  0
  1 35  1  0
  2 36  1  0
  2 37  1  0
  4 38  1  0
  5 39  1  0
 11 40  1  0
 11 41  1  0
 12 42  1  0
 12 43  1  0
 13 44  1  0
 18 45  1  0
 18 46  1  0
 18 47  1  0
 19 48  1  0
 19 49  1  0
 19 50  1  0
 20 51  1  0
 20 52  1  0
 20 53  1  0
 24 54  1  0
 25 55  1  0
 26 56  1  0
 27 57  1  0
 30 58  1  0
 30 59  1  0
 30 60  1  0
 31 61  1  0
 32 62  1  0
M  END
>  <UniqueID>  (18) 
15

>  <SMILES>  (18) 
CCc1ccc(S(=O)(=O)N(CCNC(=O)OC(C)(C)C)c2sc3ccccc3c2C)cc1

>  <Energy>  (18) 
85.90169210706021

>  <Genealogy>  (18) 
CCc1ccc(S(=O)(=O)N(CCNC(=O)OC(C)(C)C)c2sc3ccccc3c2C)cc1 (3D coordinates assigned)
CCc1ccc(S(=O)(=O)N(CCNC(=O)OC(C)(C)C)c2sc3ccccc3c2C)cc1 (optimized conformer: 85.90169210706021 kcal/mol)

>  <smiles>  (18) 
CCc1ccc(S(=O)(=O)N(CCNC(=O)OC(C)(C)C)c2sc3ccccc3c2C)cc1

>  <score_type>  (18) 
oracle

>  <origin>  (18) 
adg

>  <m_score__min__energy>  (18) 
-9.1899999999999995

>  <m_primary>  (18) 
energy

$$$$
18:0
     RDKit          3D

 46 48  0  0  1  0  0  0  0  0999 V2000
   57.8690   32.3440   41.2030 C   0  0  0  0  0  0  0  0  0  0  0  0
   57.7990   32.0640   42.6770 C   0  0  0  0  0  0  0  0  0  0  0  0
   58.5080   32.8110   43.5360 N   0  0  0  0  0  0  0  0  0  0  0  0
   58.4520   32.5680   44.8580 C   0  0  0  0  0  0  0  0  0  0  0  0
   57.6650   31.5540   45.3210 C   0  0  0  0  0  0  0  0  0  0  0  0
   57.7900   31.5270   46.6710 N   0  0  0  0  0  0  0  0  0  0  0  0
   58.6500   32.5220   47.0350 C   0  0  0  0  0  0  0  0  0  0  0  0
   59.0450   33.1500   45.9080 N   0  0  0  0  0  0  0  0  0  0  0  0
   59.9590   34.2650   45.8520 C   0  0  0  0  0  0  0  0  0  0  0  0
   59.4840   35.4210   45.7040 O   0  0  0  0  0  0  0  0  0  0  0  0
   61.3050   34.0480   45.9620 O   0  0  0  0  0  0  0  0  0  0  0  0
   61.9400   33.4650   47.1060 C   0  0  0  0  0  0  0  0  0  0  0  0
   63.3980   33.8440   46.9960 C   0  0  0  0  0  0  0  0  0  0  0  0
   61.3950   34.0390   48.3810 C   0  0  0  0  0  0  0  0  0  0  0  0
   61.7780   31.9710   47.1420 C   0  0  0  0  0  0  0  0  0  0  0  0
   56.9510   30.8090   44.3970 C   0  0  0  0  0  0  0  0  0  0  0  0
   56.2180   29.8650   44.8080 N   0  0  0  0  0  0  0  0  0  0  0  0
   56.6180   28.5060   45.0690 C   0  0  0  0  0  0  0  0  0  0  0  0
   58.0320   28.4030   45.5610 C   0  0  0  0  0  0  0  0  0  0  0  0
   59.0950   28.3550   44.6170 C   0  0  0  0  0  0  0  0  0  0  0  0
   60.5910   28.2360   45.5480 S   0  0  0  0  0  0  0  0  0  0  0  0
   59.7220   28.2570   47.1640 C   0  0  0  0  0  0  0  0  0  0  0  0
   60.4170   28.1820   48.4680 C   0  0  0  0  0  0  0  0  0  0  0  0
   58.4030   28.3500   46.8400 C   0  0  0  0  0  0  0  0  0  0  0  0
   57.0110   31.0550   43.0810 N   0  0  0  0  0  0  0  0  0  0  0  0
   58.1329   33.3997   41.0425 H   0  0  0  0  0  0  0  0  0  0  0  0
   58.6340   31.7008   40.7435 H   0  0  0  0  0  0  0  0  0  0  0  0
   56.8913   32.1365   40.7435 H   0  0  0  0  0  0  0  0  0  0  0  0
   58.9640   32.7674   48.0603 H   0  0  0  0  0  0  0  0  0  0  0  0
   63.8250   33.9550   48.0036 H   0  0  0  0  0  0  0  0  0  0  0  0
   63.9413   33.0572   46.4521 H   0  0  0  0  0  0  0  0  0  0  0  0
   63.4894   34.7958   46.4521 H   0  0  0  0  0  0  0  0  0  0  0  0
   61.8685   33.5403   49.2395 H   0  0  0  0  0  0  0  0  0  0  0  0
   61.6098   35.1172   48.4190 H   0  0  0  0  0  0  0  0  0  0  0  0
   60.3072   33.8803   48.4190 H   0  0  0  0  0  0  0  0  0  0  0  0
   61.7412   31.6313   48.1876 H   0  0  0  0  0  0  0  0  0  0  0  0
   60.8442   31.6910   46.6324 H   0  0  0  0  0  0  0  0  0  0  0  0
   62.6301   31.4974   46.6324 H   0  0  0  0  0  0  0  0  0  0  0  0
   55.9482   28.0823   45.8318 H   0  0  0  0  0  0  0  0  0  0  0  0
   56.5552   27.9530   44.1202 H   0  0  0  0  0  0  0  0  0  0  0  0
   59.0032   28.3860   43.5213 H   0  0  0  0  0  0  0  0  0  0  0  0
   59.6805   28.2615   49.2811 H   0  0  0  0  0  0  0  0  0  0  0  0
   60.9473   27.2214   48.5462 H   0  0  0  0  0  0  0  0  0  0  0  0
   61.1400   29.0073   48.5462 H   0  0  0  0  0  0  0  0  0  0  0  0
   57.6428   28.3814   47.6345 H   0  0  0  0  0  0  0  0  0  0  0  0
   56.4820   30.5060   42.3770 H   0  0  0  0  0  0  0  0  0  0  0  0
  1  2  1  0
  2  3  2  0
  3  4  1  0
  4  5  2  0
  5  6  1  0
  6  7  2  0
  7  8  1  0
  8  9  1  0
  9 10  2  0
  9 11  1  0
 11 12  1  0
 12 13  1  0
 12 14  1  0
 12 15  1  0
  5 16  1  0
 16 17  2  0
 17 18  1  0
 18 19  1  0
 19 20  2  0
 20 21  1  0
 21 22  1  0
 22 23  1  0
 22 24  2  0
 16 25  1  0
 25  2  1  0
  8  4  1  0
 24 19  1  0
  1 26  1  0
  1 27  1  0
  1 28  1  0
  7 29  1  0
 13 30  1  0
 13 31  1  0
 13 32  1  0
 14 33  1  0
 14 34  1  0
 14 35  1  0
 15 36  1  0
 15 37  1  0
 15 38  1  0
 18 39  1  0
 18 40  1  0
 20 41  1  0
 23 42  1  0
 23 43  1  0
 23 44  1  0
 24 45  1  0
 25 46  1  0
M  END
>  <smiles>  (19) 
Cc1nc2c(ncn2C(=O)OC(C)(C)C)c(=NCc2csc(C)c2)[nH]1

>  <score_type>  (19) 
oracle

>  <origin>  (19) 
adg

>  <m_score__min__energy>  (19) 
-7.3200000000000003

>  <m_primary>  (19) 
energy

$$$$
19:0
     RDKit          3D

 50 51  0  0  0  0  0  0  0  0999 V2000
   58.5040   33.1780   47.4790 C   0  0  0  0  0  0  0  0  0  0  0  0
   58.8980   34.2950   46.5160 C   0  0  0  0  0  0  0  0  0  0  0  0
   60.3630   34.1560   46.0730 C   0  0  0  0  0  0  0  0  0  0  0  0
   61.0580   32.9460   46.7310 C   0  0  0  0  0  0  0  0  0  0  0  0
   62.5000   33.2320   47.1820 C   0  0  0  0  0  0  0  0  0  0  0  0
   62.7270   32.9390   48.6690 C   0  0  0  0  0  0  0  0  0  0  0  0
   61.9760   34.2000   49.6910 S   0  0  0  0  0  0  0  0  0  0  0  0
   62.9690   35.2820   50.0080 O   0  0  0  0  0  0  0  0  0  0  0  0
   60.8190   34.8050   48.9470 O   0  0  0  0  0  0  0  0  0  0  0  0
   61.3840   33.4920   51.1600 N   0  0  0  0  0  0  0  0  0  0  0  0
   60.0650   32.9390   51.3100 C   0  0  0  0  0  0  0  0  0  0  0  0
   59.7320   31.7680   50.6120 C   0  0  0  0  0  0  0  0  0  0  0  0
   58.4620   31.1980   50.7400 C   0  0  0  0  0  0  0  0  0  0  0  0
   57.5030   31.7900   51.5780 C   0  0  0  0  0  0  0  0  0  0  0  0
   56.1820   31.2460   51.7240 N   0  0  0  0  0  0  0  0  0  0  0  0
   55.8440   30.0120   52.3710 C   0  0  0  0  0  0  0  0  0  0  0  0
   56.5790   28.9980   52.2380 O   0  0  0  0  0  0  0  0  0  0  0  0
   54.6620   29.9500   53.2480 C   0  0  0  0  0  0  0  0  0  0  0  0
   54.8160   30.0090   54.4960 O   0  0  0  0  0  0  0  0  0  0  0  0
   53.3460   29.7320   52.7180 N   0  0  0  0  0  0  0  0  0  0  0  0
   52.4880   30.6400   52.3400 C   0  0  0  0  0  0  0  0  0  0  0  0
   51.6640   31.2260   53.3100 C   0  0  0  0  0  0  0  0  0  0  0  0
   50.7400   32.2050   52.9370 C   0  0  0  0  0  0  0  0  0  0  0  0
   50.6500   32.5990   51.6400 N   0  0  0  0  0  0  0  0  0  0  0  0
   51.4450   32.0640   50.6760 C   0  0  0  0  0  0  0  0  0  0  0  0
   52.3830   31.0820   51.0050 C   0  0  0  0  0  0  0  0  0  0  0  0
   57.8180   32.9800   52.2430 C   0  0  0  0  0  0  0  0  0  0  0  0
   59.0880   33.5510   52.1150 C   0  0  0  0  0  0  0  0  0  0  0  0
   58.6270   33.5267   48.5150 H   0  0  0  0  0  0  0  0  0  0  0  0
   57.4536   32.9000   47.3080 H   0  0  0  0  0  0  0  0  0  0  0  0
   59.1475   32.3024   47.3080 H   0  0  0  0  0  0  0  0  0  0  0  0
   58.2491   34.2495   45.6290 H   0  0  0  0  0  0  0  0  0  0  0  0
   58.7806   35.2585   47.0335 H   0  0  0  0  0  0  0  0  0  0  0  0
   60.3925   34.0306   44.9806 H   0  0  0  0  0  0  0  0  0  0  0  0
   60.8983   35.0645   46.3861 H   0  0  0  0  0  0  0  0  0  0  0  0
   60.4717   32.6454   47.6118 H   0  0  0  0  0  0  0  0  0  0  0  0
   61.1101   32.1525   45.9710 H   0  0  0  0  0  0  0  0  0  0  0  0
   63.1838   32.6042   46.5918 H   0  0  0  0  0  0  0  0  0  0  0  0
   62.6900   34.3038   47.0231 H   0  0  0  0  0  0  0  0  0  0  0  0
   62.2822   31.9636   48.9157 H   0  0  0  0  0  0  0  0  0  0  0  0
   63.8096   32.9283   48.8634 H   0  0  0  0  0  0  0  0  0  0  0  0
   61.9830   33.6050   52.0080 H   0  0  0  0  0  0  0  0  0  0  0  0
   60.4780   31.2937   49.9574 H   0  0  0  0  0  0  0  0  0  0  0  0
   58.2130   30.2829   50.1826 H   0  0  0  0  0  0  0  0  0  0  0  0
   51.7445   30.9160   54.3623 H   0  0  0  0  0  0  0  0  0  0  0  0
   50.0839   32.6578   53.6950 H   0  0  0  0  0  0  0  0  0  0  0  0
   51.3497   32.4049   49.6345 H   0  0  0  0  0  0  0  0  0  0  0  0
   53.0351   30.6566   50.2279 H   0  0  0  0  0  0  0  0  0  0  0  0
   57.0603   33.4705   52.8717 H   0  0  0  0  0  0  0  0  0  0  0  0
   59.3241   34.4843   52.6471 H   0  0  0  0  0  0  0  0  0  0  0  0
  1  2  1  0
  2  3  1  0
  3  4  1  0
  4  5  1  0
  5  6  1  0
  6  7  1  0
  7  8  2  0
  7  9  2  0
  7 10  1  0
 10 11  1  0
 11 12  2  0
 12 13  1  0
 13 14  2  0
 14 15  1  0
 15 16  1  0
 16 17  2  0
 16 18  1  0
 18 19  2  0
 18 20  1  0
 20 21  2  3
 21 22  1  0
 22 23  2  0
 23 24  1  0
 24 25  1  0
 25 26  2  0
 14 27  1  0
 27 28  2  0
 28 11  1  0
 26 21  1  0
  1 29  1  0
  1 30  1  0
  1 31  1  0
  2 32  1  0
  2 33  1  0
  3 34  1  0
  3 35  1  0
  4 36  1  0
  4 37  1  0
  5 38  1  0
  5 39  1  0
  6 40  1  0
  6 41  1  0
 10 42  1  0
 12 43  1  0
 13 44  1  0
 22 45  1  0
 23 46  1  0
 25 47  1  0
 26 48  1  0
 27 49  1  0
 28 50  1  0
M  CHG  2  15  -1  24  -1
M  END
>  <UniqueID>  (20) 
16

>  <SMILES>  (20) 
CCCCCCS(=O)(=O)Nc1ccc([N-]C(=O)C(=O)N=c2cc[n-]cc2)cc1

>  <Energy>  (20) 
53.903173259021514

>  <Genealogy>  (20) 
CCCCCCS(=O)(=O)Nc1ccc([N-]C(=O)C(=O)N=c2cc[n-]cc2)cc1 (protonated)
CCCCCCS(=O)(=O)Nc1ccc([N-]C(=O)C(=O)N=c2cc[n-]cc2)cc1 (3D coordinates assigned)
CCCCCCS(=O)(=O)Nc1ccc([N-]C(=O)C(=O)N=c2cc[n-]cc2)cc1 (optimized conformer: 53.903173259021514 kcal/mol)

>  <smiles>  (20) 
CCCCCCS(=O)(=O)Nc1ccc(NC(=O)C(=O)N=c2cc[nH]cc2)cc1

>  <score_type>  (20) 
oracle

>  <origin>  (20) 
adg

>  <m_score__min__energy>  (20) 
-11.289999999999999

>  <m_primary>  (20) 
energy

$$$$
20:0
     RDKit          3D

 43 46  0  0  1  0  0  0  0  0999 V2000
   60.0070   34.0980   45.4540 N   0  0  0  0  0  0  0  0  0  0  0  0
   59.7920   33.0810   45.9630 C   0  0  0  0  0  0  0  0  0  0  0  0
   59.5360   31.7990   46.5780 C   0  0  0  0  0  0  0  0  0  0  0  0
   60.2520   31.5760   47.7550 C   0  0  0  0  0  0  0  0  0  0  0  0
   61.1210   32.5660   48.3570 C   0  0  0  0  0  0  0  0  0  0  0  0
   62.3960   32.7530   47.8170 C   0  0  0  0  0  0  0  0  0  0  0  0
   63.2520   33.6860   48.3700 C   0  0  0  0  0  0  0  0  0  0  0  0
   62.8840   34.4530   49.4580 C   0  0  0  0  0  0  0  0  0  0  0  0
   61.6250   34.2780   50.0010 C   0  0  0  0  0  0  0  0  0  0  0  0
   60.7770   33.3430   49.4420 C   0  0  0  0  0  0  0  0  0  0  0  0
   60.1230   30.3770   48.3520 N   0  0  0  0  0  0  0  0  0  0  0  0
   59.3270   29.4210   47.8300 C   0  0  0  0  0  0  0  0  0  0  0  0
   59.2400   28.2870   48.4420 N   0  0  0  0  0  0  0  0  0  0  0  0
   59.4860   27.0640   47.7570 C   0  0  0  0  0  0  0  0  0  0  0  0
   60.4940   26.3410   47.9700 O   0  0  0  0  0  0  0  0  0  0  0  0
   58.5430   26.5780   46.7390 C   0  0  0  0  0  0  0  0  0  0  0  0
   58.7660   25.7870   45.6520 C   0  0  0  0  0  0  0  0  0  0  0  0
   57.5370   25.6290   45.0230 C   0  0  0  0  0  0  0  0  0  0  0  0
   56.6390   26.3490   45.7900 C   0  0  0  0  0  0  0  0  0  0  0  0
   57.2530   26.9050   46.8040 O   0  0  0  0  0  0  0  0  0  0  0  0
   58.6450   29.6630   46.6940 N   0  0  0  0  0  0  0  0  0  0  0  0
   58.7100   30.8450   46.0170 C   0  0  0  0  0  0  0  0  0  0  0  0
   58.0050   31.0270   44.7570 C   0  0  0  0  0  0  0  0  0  0  0  0
   58.4360   31.8380   43.7330 C   0  0  0  0  0  0  0  0  0  0  0  0
   57.7920   31.9400   42.5040 C   0  0  0  0  0  0  0  0  0  0  0  0
   56.6560   31.2130   42.2410 C   0  0  0  0  0  0  0  0  0  0  0  0
   56.1980   30.3940   43.2460 C   0  0  0  0  0  0  0  0  0  0  0  0
   56.8430   30.2900   44.4760 C   0  0  0  0  0  0  0  0  0  0  0  0
   56.2620   29.4210   45.3790 O   0  0  0  0  0  0  0  0  0  0  0  0
   62.7186   32.1568   46.9507 H   0  0  0  0  0  0  0  0  0  0  0  0
   64.2521   33.8214   47.9325 H   0  0  0  0  0  0  0  0  0  0  0  0
   63.5803   35.1899   49.8848 H   0  0  0  0  0  0  0  0  0  0  0  0
   61.3032   34.8755   50.8667 H   0  0  0  0  0  0  0  0  0  0  0  0
   59.7783   33.2118   49.8840 H   0  0  0  0  0  0  0  0  0  0  0  0
   59.7283   25.3584   45.3352 H   0  0  0  0  0  0  0  0  0  0  0  0
   57.3238   25.0540   44.1098 H   0  0  0  0  0  0  0  0  0  0  0  0
   55.5635   26.4412   45.5785 H   0  0  0  0  0  0  0  0  0  0  0  0
   58.0370   28.8690   46.3770 H   0  0  0  0  0  0  0  0  0  0  0  0
   59.3419   32.4405   43.8951 H   0  0  0  0  0  0  0  0  0  0  0  0
   58.1975   32.6114   41.7328 H   0  0  0  0  0  0  0  0  0  0  0  0
   56.1380   31.2829   41.2731 H   0  0  0  0  0  0  0  0  0  0  0  0
   55.2891   29.7993   43.0722 H   0  0  0  0  0  0  0  0  0  0  0  0
   55.5320   29.7170   46.0400 H   0  0  0  0  0  0  0  0  0  0  0  0
  1  2  3  0
  2  3  1  0
  3  4  1  0
  4  5  1  0
  5  6  2  0
  6  7  1  0
  7  8  2  0
  8  9  1  0
  9 10  2  0
  4 11  2  0
 11 12  1  0
 12 13  2  0
 13 14  1  0
 14 15  2  0
 14 16  1  0
 16 17  2  0
 17 18  1  0
 18 19  2  0
 19 20  1  0
 12 21  1  0
 21 22  1  0
 22 23  1  0
 23 24  2  0
 24 25  1  0
 25 26  2  0
 26 27  1  0
 27 28  2  0
 28 29  1  0
 22  3  2  0
 28 23  1  0
 10  5  1  0
 20 16  1  0
  6 30  1  0
  7 31  1  0
  8 32  1  0
  9 33  1  0
 10 34  1  0
 17 35  1  0
 18 36  1  0
 19 37  1  0
 21 38  1  0
 24 39  1  0
 25 40  1  0
 26 41  1  0
 27 42  1  0
 29 43  1  0
M  END
>  <smiles>  (21) 
N#Cc1c(-c2ccccc2)nc(=NC(=O)c2ccco2)[nH]c1-c1ccccc1O

>  <score_type>  (21) 
oracle

>  <origin>  (21) 
adg

>  <m_score__min__energy>  (21) 
-10.25

>  <m_primary>  (21) 
energy

$$$$
21:0
     RDKit          3D

 45 47  0  0  1  0  0  0  0  0999 V2000
   56.6180   29.9370   42.2500 C   0  0  0  0  0  0  0  0  0  0  0  0
   57.1350   30.9470   43.1400 N   0  0  0  0  0  0  0  0  0  0  0  0
   57.7000   32.0700   42.6650 C   0  0  0  0  0  0  0  0  0  0  0  0
   58.1980   33.0430   43.4470 N   0  0  0  0  0  0  0  0  0  0  0  0
   58.1430   32.9130   44.7860 C   0  0  0  0  0  0  0  0  0  0  0  0
   58.6150   33.8340   45.5250 N   0  0  0  0  0  0  0  0  0  0  0  0
   59.4110   33.6140   46.6850 C   0  0  0  0  0  0  0  0  0  0  0  0
   59.0760   32.6780   47.4680 O   0  0  0  0  0  0  0  0  0  0  0  0
   60.5590   34.3940   47.0000 N   0  0  0  0  0  0  0  0  0  0  0  0
   61.2520   34.0490   48.1980 C   0  0  0  0  0  0  0  0  0  0  0  0
   60.5540   34.1150   49.4060 C   0  0  0  0  0  0  0  0  0  0  0  0
   61.1630   33.7950   50.6030 C   0  0  0  0  0  0  0  0  0  0  0  0
   62.5050   33.3990   50.5910 C   0  0  0  0  0  0  0  0  0  0  0  0
   63.2020   33.3330   49.3900 C   0  0  0  0  0  0  0  0  0  0  0  0
   62.5840   33.6550   48.1960 C   0  0  0  0  0  0  0  0  0  0  0  0
   63.4320   33.5810   46.6730 Cl  0  0  0  0  0  0  0  0  0  0  0  0
   57.5670   31.7670   45.2950 C   0  0  0  0  0  0  0  0  0  0  0  0
   57.0580   30.7740   44.4690 C   0  0  0  0  0  0  0  0  0  0  0  0
   56.4540   29.5690   45.0720 C   0  0  0  0  0  0  0  0  0  0  0  0
   55.2290   29.3460   44.9120 O   0  0  0  0  0  0  0  0  0  0  0  0
   57.2160   28.7030   45.7940 O   0  0  0  0  0  0  0  0  0  0  0  0
   58.5760   28.4410   45.7070 C   0  0  0  0  0  0  0  0  0  0  0  0
   59.4310   29.1730   46.6730 C   0  0  0  0  0  0  0  0  0  0  0  0
   60.5150   29.8890   46.1870 C   0  0  0  0  0  0  0  0  0  0  0  0
   61.3600   30.6060   47.0290 C   0  0  0  0  0  0  0  0  0  0  0  0
   61.0810   30.5850   48.3800 C   0  0  0  0  0  0  0  0  0  0  0  0
   60.0170   29.8910   48.9180 C   0  0  0  0  0  0  0  0  0  0  0  0
   59.2080   29.1930   48.0330 C   0  0  0  0  0  0  0  0  0  0  0  0
   56.1949   29.1104   42.8397 H   0  0  0  0  0  0  0  0  0  0  0  0
   55.8329   30.3743   41.6157 H   0  0  0  0  0  0  0  0  0  0  0  0
   57.4319   29.5558   41.6157 H   0  0  0  0  0  0  0  0  0  0  0  0
   57.7582   32.2002   41.5743 H   0  0  0  0  0  0  0  0  0  0  0  0
   60.8490   35.1690   46.3670 H   0  0  0  0  0  0  0  0  0  0  0  0
   59.4994   34.4278   49.4036 H   0  0  0  0  0  0  0  0  0  0  0  0
   60.6036   33.8503   51.5485 H   0  0  0  0  0  0  0  0  0  0  0  0
   63.0093   33.1395   51.5335 H   0  0  0  0  0  0  0  0  0  0  0  0
   64.2569   33.0211   49.3897 H   0  0  0  0  0  0  0  0  0  0  0  0
   57.5095   31.6366   46.3857 H   0  0  0  0  0  0  0  0  0  0  0  0
   58.7247   27.3636   45.8717 H   0  0  0  0  0  0  0  0  0  0  0  0
   58.8862   28.7843   44.7090 H   0  0  0  0  0  0  0  0  0  0  0  0
   60.7125   29.8902   45.1049 H   0  0  0  0  0  0  0  0  0  0  0  0
   62.2181   31.1683   46.6322 H   0  0  0  0  0  0  0  0  0  0  0  0
   61.7375   31.1478   49.0598 H   0  0  0  0  0  0  0  0  0  0  0  0
   59.8189   29.8910   50.0000 H   0  0  0  0  0  0  0  0  0  0  0  0
   58.3515   28.6312   48.4341 H   0  0  0  0  0  0  0  0  0  0  0  0
  1  2  1  0
  2  3  1  0
  3  4  2  0
  4  5  1  0
  5  6  2  0
  6  7  1  0
  7  8  2  0
  7  9  1  0
  9 10  1  0
 10 11  2  0
 11 12  1  0
 12 13  2  0
 13 14  1  0
 14 15  2  0
 15 16  1  0
  5 17  1  0
 17 18  2  0
 18 19  1  0
 19 20  2  0
 19 21  1  0
 21 22  1  0
 22 23  1  0
 23 24  2  0
 24 25  1  0
 25 26  2  0
 26 27  1  0
 27 28  2  0
 18  2  1  0
 28 23  1  0
 15 10  1  0
  1 29  1  0
  1 30  1  0
  1 31  1  0
  3 32  1  0
  9 33  1  0
 11 34  1  0
 12 35  1  0
 13 36  1  0
 14 37  1  0
 17 38  1  0
 22 39  1  0
 22 40  1  0
 24 41  1  0
 25 42  1  0
 26 43  1  0
 27 44  1  0
 28 45  1  0
M  END
>  <smiles>  (22) 
Cn1cnc(=NC(=O)Nc2ccccc2Cl)cc1C(=O)OCc1ccccc1

>  <score_type>  (22) 
oracle

>  <origin>  (22) 
adg

>  <m_score__min__energy>  (22) 
-8.3399999999999999

>  <m_primary>  (22) 
energy

$$$$
22:0
     RDKit          3D

 50 52  0  0  1  0  0  0  0  0999 V2000
   60.0170   28.3830   45.5680 C   0  0  0  0  0  0  0  0  0  0  0  0
   58.9360   27.4440   45.9450 C   0  0  0  0  0  0  0  0  0  0  0  0
   59.2360   26.2850   46.6610 C   0  0  0  0  0  0  0  0  0  0  0  0
   58.2750   25.3750   47.0400 C   0  0  0  0  0  0  0  0  0  0  0  0
   56.9730   25.6410   46.6820 C   0  0  0  0  0  0  0  0  0  0  0  0
   56.6580   26.7960   45.9650 C   0  0  0  0  0  0  0  0  0  0  0  0
   57.6100   27.7140   45.5820 C   0  0  0  0  0  0  0  0  0  0  0  0
   57.2770   28.9180   44.8330 C   0  0  0  0  0  0  0  0  0  0  0  0
   57.2310   30.0970   45.4430 N   0  0  0  0  0  0  0  0  0  0  0  0
   56.9310   31.2390   44.8020 C   0  0  0  0  0  0  0  0  0  0  0  0
   56.8820   32.3910   45.3790 N   0  0  0  0  0  0  0  0  0  0  0  0
   57.9380   33.3590   45.2140 C   0  0  0  0  0  0  0  0  0  0  0  0
   57.6560   34.4160   44.6360 O   0  0  0  0  0  0  0  0  0  0  0  0
   59.2390   33.0770   45.7070 N   0  0  0  0  0  0  0  0  0  0  0  0
   60.3640   33.9530   45.6050 C   0  0  0  0  0  0  0  0  0  0  0  0
   61.3480   33.8270   46.6980 C   0  0  0  0  0  0  0  0  0  0  0  0
   60.8700   33.9020   47.9960 C   0  0  0  0  0  0  0  0  0  0  0  0
   61.7510   33.7870   49.0330 C   0  0  0  0  0  0  0  0  0  0  0  0
   63.1030   33.6000   48.8600 C   0  0  0  0  0  0  0  0  0  0  0  0
   64.0180   33.4800   49.9410 N   0  0  0  0  0  0  0  0  0  0  0  0
   65.2680   32.7270   49.8030 C   0  0  0  0  0  0  0  0  0  0  0  0
   63.7650   34.0930   51.2280 C   0  0  0  0  0  0  0  0  0  0  0  0
   63.5960   33.5230   47.5670 C   0  0  0  0  0  0  0  0  0  0  0  0
   62.6960   33.6400   46.5160 C   0  0  0  0  0  0  0  0  0  0  0  0
   56.6470   31.2210   43.4340 C   0  0  0  0  0  0  0  0  0  0  0  0
   56.6930   30.0130   42.8130 C   0  0  0  0  0  0  0  0  0  0  0  0
   57.0010   28.9030   43.5050 N   0  0  0  0  0  0  0  0  0  0  0  0
   60.4840   28.7887   46.4776 H   0  0  0  0  0  0  0  0  0  0  0  0
   60.7740   27.8509   44.9732 H   0  0  0  0  0  0  0  0  0  0  0  0
   59.5960   29.2070   44.9732 H   0  0  0  0  0  0  0  0  0  0  0  0
   60.2836   26.0901   46.9340 H   0  0  0  0  0  0  0  0  0  0  0  0
   58.5377   24.4699   47.6073 H   0  0  0  0  0  0  0  0  0  0  0  0
   56.1749   24.9381   46.9631 H   0  0  0  0  0  0  0  0  0  0  0  0
   55.6077   26.9803   45.6952 H   0  0  0  0  0  0  0  0  0  0  0  0
   59.3600   32.1430   46.1830 H   0  0  0  0  0  0  0  0  0  0  0  0
   60.8779   33.7409   44.6558 H   0  0  0  0  0  0  0  0  0  0  0  0
   59.9656   34.9766   45.6636 H   0  0  0  0  0  0  0  0  0  0  0  0
   59.7974   34.0519   48.1884 H   0  0  0  0  0  0  0  0  0  0  0  0
   61.3596   33.8469   50.0593 H   0  0  0  0  0  0  0  0  0  0  0  0
   65.6643   32.4883   50.8010 H   0  0  0  0  0  0  0  0  0  0  0  0
   65.0754   31.7945   49.2522 H   0  0  0  0  0  0  0  0  0  0  0  0
   66.0023   33.3332   49.2522 H   0  0  0  0  0  0  0  0  0  0  0  0
   64.0526   33.3961   52.0290 H   0  0  0  0  0  0  0  0  0  0  0  0
   64.3553   35.0170   51.3164 H   0  0  0  0  0  0  0  0  0  0  0  0
   62.6949   34.3317   51.3164 H   0  0  0  0  0  0  0  0  0  0  0  0
   64.6694   33.3735   47.3787 H   0  0  0  0  0  0  0  0  0  0  0  0
   63.0818   33.5799   45.4876 H   0  0  0  0  0  0  0  0  0  0  0  0
   56.3979   32.1413   42.8854 H   0  0  0  0  0  0  0  0  0  0  0  0
   56.4767   29.9434   41.7367 H   0  0  0  0  0  0  0  0  0  0  0  0
   57.0190   28.0120   42.9670 H   0  0  0  0  0  0  0  0  0  0  0  0
  1  2  1  0
  2  3  2  0
  3  4  1  0
  4  5  2  0
  5  6  1  0
  6  7  2  0
  7  8  1  0
  8  9  2  0
  9 10  1  0
 10 11  2  0
 11 12  1  0
 12 13  2  0
 12 14  1  0
 14 15  1  0
 15 16  1  0
 16 17  2  0
 17 18  1  0
 18 19  2  0
 19 20  1  0
 20 21  1  0
 20 22  1  0
 19 23  1  0
 23 24  2  0
 10 25  1  0
 25 26  2  0
 26 27  1  0
  7  2  1  0
 27  8  1  0
 24 16  1  0
  1 28  1  0
  1 29  1  0
  1 30  1  0
  3 31  1  0
  4 32  1  0
  5 33  1  0
  6 34  1  0
 14 35  1  0
 15 36  1  0
 15 37  1  0
 17 38  1  0
 18 39  1  0
 21 40  1  0
 21 41  1  0
 21 42  1  0
 22 43  1  0
 22 44  1  0
 22 45  1  0
 23 46  1  0
 24 47  1  0
 25 48  1  0
 26 49  1  0
 27 50  1  0
M  END
>  <smiles>  (23) 
Cc1ccccc1-c1nc(=NC(=O)NCc2ccc(N(C)C)cc2)cc[nH]1

>  <score_type>  (23) 
oracle

>  <origin>  (23) 
adg

>  <m_score__min__energy>  (23) 
-8.3499999999999996

>  <m_primary>  (23) 
energy

$$$$
23:0
     RDKit          3D

 36 39  0  0  0  0  0  0  0  0999 V2000
   59.6340   36.0960   45.2180 O   0  0  0  0  0  0  0  0  0  0  0  0
   59.2820   34.9920   45.7080 C   0  0  0  0  0  0  0  0  0  0  0  0
   58.1090   34.3510   45.1930 N   0  0  0  0  0  0  0  0  0  0  0  0
   58.0030   32.9730   44.8120 C   0  0  0  0  0  0  0  0  0  0  0  0
   57.7610   32.5940   43.4660 C   0  0  0  0  0  0  0  0  0  0  0  0
   57.6400   31.2380   43.1130 C   0  0  0  0  0  0  0  0  0  0  0  0
   57.7500   30.2870   44.1230 C   0  0  0  0  0  0  0  0  0  0  0  0
   57.9600   30.6490   45.4350 C   0  0  0  0  0  0  0  0  0  0  0  0
   58.0850   31.9850   45.8130 C   0  0  0  0  0  0  0  0  0  0  0  0
   58.0110   29.4280   46.2300 C   0  0  0  0  0  0  0  0  0  0  0  0
   58.2360   29.3730   47.4680 O   0  0  0  0  0  0  0  0  0  0  0  0
   57.8240   28.2850   45.3870 N   0  0  0  0  0  0  0  0  0  0  0  0
   57.8050   26.9000   45.7730 C   0  0  0  0  0  0  0  0  0  0  0  0
   57.7990   26.5370   47.1310 C   0  0  0  0  0  0  0  0  0  0  0  0
   57.7800   25.1900   47.5040 C   0  0  0  0  0  0  0  0  0  0  0  0
   57.7680   24.1920   46.5260 C   0  0  0  0  0  0  0  0  0  0  0  0
   57.7500   22.8530   46.8980 O   0  0  0  0  0  0  0  0  0  0  0  0
   57.7740   24.5420   45.1730 C   0  0  0  0  0  0  0  0  0  0  0  0
   57.7920   25.8890   44.7960 C   0  0  0  0  0  0  0  0  0  0  0  0
   57.6610   28.8320   44.0730 C   0  0  0  0  0  0  0  0  0  0  0  0
   57.4230   28.1510   43.0410 O   0  0  0  0  0  0  0  0  0  0  0  0
   60.0440   34.4280   46.8390 C   0  0  0  0  0  0  0  0  0  0  0  0
   59.6950   34.5300   48.1810 C   0  0  0  0  0  0  0  0  0  0  0  0
   60.5740   33.8540   49.0360 C   0  0  0  0  0  0  0  0  0  0  0  0
   61.6090   33.2060   48.3760 C   0  0  0  0  0  0  0  0  0  0  0  0
   61.4290   33.4750   46.7260 S   0  0  0  0  0  0  0  0  0  0  0  0
   57.6671   33.3688   42.6908 H   0  0  0  0  0  0  0  0  0  0  0  0
   57.4636   30.9380   42.0695 H   0  0  0  0  0  0  0  0  0  0  0  0
   58.2436   32.2608   46.8660 H   0  0  0  0  0  0  0  0  0  0  0  0
   57.8093   27.3182   47.9054 H   0  0  0  0  0  0  0  0  0  0  0  0
   57.7745   24.9152   48.5691 H   0  0  0  0  0  0  0  0  0  0  0  0
   57.7645   23.7566   44.4029 H   0  0  0  0  0  0  0  0  0  0  0  0
   57.7960   26.1587   43.7296 H   0  0  0  0  0  0  0  0  0  0  0  0
   58.8152   35.0868   48.5360 H   0  0  0  0  0  0  0  0  0  0  0  0
   60.4553   33.8380   50.1295 H   0  0  0  0  0  0  0  0  0  0  0  0
   62.4087   32.6182   48.8504 H   0  0  0  0  0  0  0  0  0  0  0  0
  1  2  2  0
  2  3  1  0
  3  4  1  0
  4  5  2  0
  5  6  1  0
  6  7  2  0
  7  8  1  0
  8  9  2  0
  8 10  1  0
 10 11  2  0
 10 12  1  0
 12 13  1  0
 13 14  2  0
 14 15  1  0
 15 16  2  0
 16 17  1  0
 16 18  1  0
 18 19  2  0
 12 20  1  0
 20 21  2  0
  2 22  1  0
 22 23  2  0
 23 24  1  0
 24 25  2  0
 25 26  1  0
  9  4  1  0
 19 13  1  0
 26 22  1  0
 20  7  1  0
  5 27  1  0
  6 28  1  0
  9 29  1  0
 14 30  1  0
 15 31  1  0
 18 32  1  0
 19 33  1  0
 23 34  1  0
 24 35  1  0
 25 36  1  0
M  CHG  2   3  -1  17  -1
M  END
>  <UniqueID>  (24) 
17

>  <SMILES>  (24) 
O=C([N-]c1ccc2c(c1)C(=O)N(c1ccc([O-])cc1)C2=O)c1cccs1

>  <Energy>  (24) 
109.23122199291977

>  <Genealogy>  (24) 
O=C([N-]c1ccc2c(c1)C(=O)N(c1ccc([O-])cc1)C2=O)c1cccs1 (protonated)
O=C([N-]c1ccc2c(c1)C(=O)N(c1ccc([O-])cc1)C2=O)c1cccs1 (3D coordinates assigned)
O=C([N-]c1ccc2c(c1)C(=O)N(c1ccc([O-])cc1)C2=O)c1cccs1 (nonaromatic ring conformer: 109.23122199291977 kcal/mol)

>  <smiles>  (24) 
O=C(Nc1ccc2c(c1)C(=O)N(c1ccc(O)cc1)C2=O)c1cccs1

>  <score_type>  (24) 
oracle

>  <origin>  (24) 
adg

>  <m_score__min__energy>  (24) 
-10.43

>  <m_primary>  (24) 
energy

$$$$
24:0
     RDKit          3D

 74 76  0  0  0  0  0  0  0  0999 V2000
   57.3880   32.3260   40.7820 C   0  0  0  0  0  0  0  0  0  0  0  0
   57.5100   31.6770   42.1510 C   0  0  0  0  0  0  0  0  0  0  0  0
   57.8500   32.6670   43.1150 O   0  0  0  0  0  0  0  0  0  0  0  0
   57.3840   32.6320   44.4330 C   0  0  0  0  0  0  0  0  0  0  0  0
   56.7300   31.6400   44.8520 O   0  0  0  0  0  0  0  0  0  0  0  0
   57.5890   33.7480   45.3010 N   0  0  0  0  0  0  0  0  0  0  0  0
   58.3420   33.7330   46.5210 C   0  0  0  0  0  0  0  0  0  0  0  0
   57.9790   32.8340   47.5300 C   0  0  0  0  0  0  0  0  0  0  0  0
   58.7220   32.7550   48.7120 C   0  0  0  0  0  0  0  0  0  0  0  0
   59.8500   33.5650   48.8890 C   0  0  0  0  0  0  0  0  0  0  0  0
   60.8110   33.4590   50.3630 S   0  0  0  0  0  0  0  0  0  0  0  0
   61.9630   34.4180   50.2660 O   0  0  0  0  0  0  0  0  0  0  0  0
   61.3620   32.0680   50.5220 O   0  0  0  0  0  0  0  0  0  0  0  0
   59.8450   33.8640   51.7520 N   0  0  0  0  0  0  0  0  0  0  0  0
   59.5680   32.6750   52.5630 C   0  0  0  0  0  0  0  0  0  0  0  0
   58.2100   32.1040   52.2440 C   0  0  0  0  0  0  0  0  0  0  0  0
   57.3010   32.8650   51.8130 O   0  0  0  0  0  0  0  0  0  0  0  0
   57.9390   30.6970   52.4290 N   0  0  0  0  0  0  0  0  0  0  0  0
   59.0240   29.7090   52.3750 C   0  0  0  0  0  0  0  0  0  0  0  0
   59.3230   29.3490   50.9450 C   0  0  0  0  0  0  0  0  0  0  0  0
   58.5270   29.8520   49.9030 C   0  0  0  0  0  0  0  0  0  0  0  0
   58.8260   29.5370   48.5750 C   0  0  0  0  0  0  0  0  0  0  0  0
   59.9370   28.7350   48.2660 C   0  0  0  0  0  0  0  0  0  0  0  0
   60.2700   28.4020   46.8300 C   0  0  0  0  0  0  0  0  0  0  0  0
   59.1460   28.7610   45.8290 C   0  0  0  0  0  0  0  0  0  0  0  0
   58.9740   27.6980   44.7340 C   0  0  0  0  0  0  0  0  0  0  0  0
   59.3440   30.1520   45.2110 C   0  0  0  0  0  0  0  0  0  0  0  0
   60.7450   28.2520   49.3090 C   0  0  0  0  0  0  0  0  0  0  0  0
   60.4410   28.5560   50.6380 C   0  0  0  0  0  0  0  0  0  0  0  0
   56.6280   30.2420   52.8090 C   0  0  0  0  0  0  0  0  0  0  0  0
   56.4390   29.5960   54.0380 C   0  0  0  0  0  0  0  0  0  0  0  0
   55.1550   29.2370   54.4530 C   0  0  0  0  0  0  0  0  0  0  0  0
   54.0490   29.5330   53.6500 C   0  0  0  0  0  0  0  0  0  0  0  0
   54.2250   30.1630   52.4100 C   0  0  0  0  0  0  0  0  0  0  0  0
   53.0350   30.5320   51.6140 C   0  0  0  0  0  0  0  0  0  0  0  0
   52.7920   31.7480   51.1060 C   0  0  0  0  0  0  0  0  0  0  0  0
   51.4540   32.3390   50.9210 C   0  0  0  0  0  0  0  0  0  0  0  0
   50.9450   32.3670   49.7710 O   0  0  0  0  0  0  0  0  0  0  0  0
   50.7720   32.9300   51.9800 O   0  0  0  0  0  0  0  0  0  0  0  0
   55.5190   30.5250   51.9960 C   0  0  0  0  0  0  0  0  0  0  0  0
   60.2200   34.4620   47.8810 C   0  0  0  0  0  0  0  0  0  0  0  0
   59.4740   34.5450   46.7010 C   0  0  0  0  0  0  0  0  0  0  0  0
   57.1860   33.4006   40.9023 H   0  0  0  0  0  0  0  0  0  0  0  0
   58.3275   32.1895   40.2265 H   0  0  0  0  0  0  0  0  0  0  0  0
   56.5622   31.8576   40.2265 H   0  0  0  0  0  0  0  0  0  0  0  0
   56.5507   31.2132   42.4240 H   0  0  0  0  0  0  0  0  0  0  0  0
   58.2944   30.9063   42.1236 H   0  0  0  0  0  0  0  0  0  0  0  0
   57.1022   32.1842   47.3923 H   0  0  0  0  0  0  0  0  0  0  0  0
   58.4194   32.0548   49.5046 H   0  0  0  0  0  0  0  0  0  0  0  0
   60.3349   31.9136   52.3578 H   0  0  0  0  0  0  0  0  0  0  0  0
   59.5844   32.9646   53.6241 H   0  0  0  0  0  0  0  0  0  0  0  0
   59.9262   30.1332   52.8399 H   0  0  0  0  0  0  0  0  0  0  0  0
   58.7146   28.8036   52.9176 H   0  0  0  0  0  0  0  0  0  0  0  0
   57.6654   30.4960   50.1331 H   0  0  0  0  0  0  0  0  0  0  0  0
   58.1868   29.9198   47.7657 H   0  0  0  0  0  0  0  0  0  0  0  0
   61.1768   28.9564   46.5467 H   0  0  0  0  0  0  0  0  0  0  0  0
   60.4094   27.3121   46.7779 H   0  0  0  0  0  0  0  0  0  0  0  0
   58.2157   28.7835   46.4155 H   0  0  0  0  0  0  0  0  0  0  0  0
   58.8148   26.7143   45.1997 H   0  0  0  0  0  0  0  0  0  0  0  0
   58.1054   27.9526   44.1090 H   0  0  0  0  0  0  0  0  0  0  0  0
   59.8786   27.6657   44.1090 H   0  0  0  0  0  0  0  0  0  0  0  0
   59.4501   30.8977   46.0127 H   0  0  0  0  0  0  0  0  0  0  0  0
   60.2511   30.1510   44.5887 H   0  0  0  0  0  0  0  0  0  0  0  0
   58.4727   30.4042   44.5887 H   0  0  0  0  0  0  0  0  0  0  0  0
   61.6226   27.6305   49.0775 H   0  0  0  0  0  0  0  0  0  0  0  0
   61.0797   28.1728   51.4475 H   0  0  0  0  0  0  0  0  0  0  0  0
   57.3049   29.3710   54.6779 H   0  0  0  0  0  0  0  0  0  0  0  0
   55.0132   28.7202   55.4136 H   0  0  0  0  0  0  0  0  0  0  0  0
   53.0372   29.2705   53.9926 H   0  0  0  0  0  0  0  0  0  0  0  0
   52.2897   29.7457   51.4236 H   0  0  0  0  0  0  0  0  0  0  0  0
   53.6593   32.3530   50.8031 H   0  0  0  0  0  0  0  0  0  0  0  0
   55.6631   31.0323   51.0306 H   0  0  0  0  0  0  0  0  0  0  0  0
   61.1020   35.1051   48.0173 H   0  0  0  0  0  0  0  0  0  0  0  0
   59.7748   35.2487   45.9109 H   0  0  0  0  0  0  0  0  0  0  0  0
  1  2  1  0
  2  3  1  0
  3  4  1  0
  4  5  2  0
  4  6  1  0
  6  7  1  0
  7  8  2  0
  8  9  1  0
  9 10  2  0
 10 11  1  0
 11 12  2  0
 11 13  2  0
 11 14  1  0
 14 15  1  0
 15 16  1  0
 16 17  2  0
 16 18  1  0
 18 19  1  0
 19 20  1  0
 20 21  2  0
 21 22  1  0
 22 23  2  0
 23 24  1  0
 24 25  1  0
 25 26  1  0
 25 27  1  0
 23 28  1  0
 28 29  2  0
 18 30  1  0
 30 31  2  0
 31 32  1  0
 32 33  2  0
 33 34  1  0
 34 35  1  0
 35 36  2  3
 36 37  1  0
 37 38  2  0
 37 39  1  0
 34 40  2  0
 10 41  1  0
 41 42  2  0
 42  7  1  0
 29 20  1  0
 40 30  1  0
  1 43  1  0
  1 44  1  0
  1 45  1  0
  2 46  1  0
  2 47  1  0
  8 48  1  0
  9 49  1  0
 15 50  1  0
 15 51  1  0
 19 52  1  0
 19 53  1  0
 21 54  1  0
 22 55  1  0
 24 56  1  0
 24 57  1  0
 25 58  1  0
 26 59  1  0
 26 60  1  0
 26 61  1  0
 27 62  1  0
 27 63  1  0
 27 64  1  0
 28 65  1  0
 29 66  1  0
 31 67  1  0
 32 68  1  0
 33 69  1  0
 35 70  1  0
 36 71  1  0
 40 72  1  0
 41 73  1  0
 42 74  1  0
M  CHG  3   6  -1  14  -1  39  -1
M  END
>  <UniqueID>  (25) 
18

>  <SMILES>  (25) 
CCOC(=O)[N-]c1ccc(S(=O)(=O)[N-]CC(=O)N(Cc2ccc(CC(C)C)cc2)c2cccc(C=CC(=O)[O-])c2)cc1

>  <Energy>  (25) 
70.81938507350245

>  <Genealogy>  (25) 
CCOC(=O)[N-]c1ccc(S(=O)(=O)[N-]CC(=O)N(Cc2ccc(CC(C)C)cc2)c2cccc(C=CC(=O)[O-])c2)cc1 (protonated)
CCOC(=O)[N-]c1ccc(S(=O)(=O)[N-]CC(=O)N(Cc2ccc(CC(C)C)cc2)c2cccc(C=CC(=O)[O-])c2)cc1 (3D coordinates assigned)
CCOC(=O)[N-]c1ccc(S(=O)(=O)[N-]CC(=O)N(Cc2ccc(CC(C)C)cc2)c2cccc(C=CC(=O)[O-])c2)cc1 (optimized conformer: 70.81938507350245 kcal/mol)

>  <smiles>  (25) 
CCOC(=O)Nc1ccc(S(=O)(=O)NCC(=O)N(Cc2ccc(CC(C)C)cc2)c2cccc(C=CC(=O)O)c2)cc1

>  <score_type>  (25) 
oracle

>  <origin>  (25) 
adg

>  <m_score__min__energy>  (25) 
-16.710000000000001

>  <m_primary>  (25) 
energy

$$$$
25:0
     RDKit          3D

 54 56  0  0  0  0  0  0  0  0999 V2000
   56.6240   26.6240   46.0320 C   0  0  0  0  0  0  0  0  0  0  0  0
   55.9360   27.7930   45.6030 O   0  0  0  0  0  0  0  0  0  0  0  0
   56.5680   28.9760   45.1870 C   0  0  0  0  0  0  0  0  0  0  0  0
   56.0170   29.6820   44.1110 C   0  0  0  0  0  0  0  0  0  0  0  0
   56.6090   30.8650   43.6600 C   0  0  0  0  0  0  0  0  0  0  0  0
   57.7660   31.3600   44.2730 C   0  0  0  0  0  0  0  0  0  0  0  0
   58.3240   32.5510   43.7840 O   0  0  0  0  0  0  0  0  0  0  0  0
   58.8300   33.6010   44.6030 C   0  0  0  0  0  0  0  0  0  0  0  0
   57.8070   33.9570   45.6380 C   0  0  0  0  0  0  0  0  0  0  0  0
   56.6420   34.2650   45.2730 O   0  0  0  0  0  0  0  0  0  0  0  0
   58.1110   33.9330   47.0360 N   0  0  0  0  0  0  0  0  0  0  0  0
   59.4570   34.0570   47.5860 C   0  0  0  0  0  0  0  0  0  0  0  0
   60.1640   32.6940   47.5420 C   0  0  1  0  0  0  0  0  0  0  0  0
   61.6630   32.8340   47.5210 C   0  0  0  0  0  0  0  0  0  0  0  0
   62.4050   33.7210   46.7600 C   0  0  0  0  0  0  0  0  0  0  0  0
   63.7190   33.5050   47.1130 C   0  0  0  0  0  0  0  0  0  0  0  0
   63.7020   32.5050   48.0650 C   0  0  0  0  0  0  0  0  0  0  0  0
   62.4650   32.1280   48.2880 O   0  0  0  0  0  0  0  0  0  0  0  0
   59.7410   31.8340   48.6590 N   0  0  0  0  0  0  0  0  0  0  0  0
   59.2820   32.3820   49.9030 C   0  0  0  0  0  0  0  0  0  0  0  0
   58.0840   31.9290   50.4750 C   0  0  0  0  0  0  0  0  0  0  0  0
   57.6540   32.4440   51.7030 C   0  0  0  0  0  0  0  0  0  0  0  0
   58.4260   33.4020   52.3680 C   0  0  0  0  0  0  0  0  0  0  0  0
   59.6280   33.8430   51.8090 C   0  0  0  0  0  0  0  0  0  0  0  0
   60.0600   33.3300   50.5830 C   0  0  0  0  0  0  0  0  0  0  0  0
   59.9440   30.1150   48.5390 S   0  0  0  0  0  0  0  0  0  0  0  0
   60.9930   29.5490   49.8590 C   0  0  0  0  0  0  0  0  0  0  0  0
   60.5580   29.7710   47.2120 O   0  0  0  0  0  0  0  0  0  0  0  0
   58.6060   29.4350   48.6430 O   0  0  0  0  0  0  0  0  0  0  0  0
   58.3260   30.6520   45.3530 C   0  0  0  0  0  0  0  0  0  0  0  0
   57.7290   29.4720   45.8100 C   0  0  0  0  0  0  0  0  0  0  0  0
   56.6427   26.5922   47.1314 H   0  0  0  0  0  0  0  0  0  0  0  0
   56.1066   25.7324   45.6482 H   0  0  0  0  0  0  0  0  0  0  0  0
   57.6547   26.6435   45.6482 H   0  0  0  0  0  0  0  0  0  0  0  0
   55.1107   29.3025   43.6164 H   0  0  0  0  0  0  0  0  0  0  0  0
   56.1621   31.4115   42.8165 H   0  0  0  0  0  0  0  0  0  0  0  0
   59.7539   33.2680   45.0985 H   0  0  0  0  0  0  0  0  0  0  0  0
   59.0476   34.4818   43.9810 H   0  0  0  0  0  0  0  0  0  0  0  0
   60.0290   34.7846   46.9914 H   0  0  0  0  0  0  0  0  0  0  0  0
   59.3932   34.3998   48.6293 H   0  0  0  0  0  0  0  0  0  0  0  0
   59.8623   32.2120   46.6004 H   0  0  0  0  0  0  0  0  0  0  0  0
   62.0246   34.4470   46.0263 H   0  0  0  0  0  0  0  0  0  0  0  0
   64.6037   34.0246   46.7163 H   0  0  0  0  0  0  0  0  0  0  0  0
   64.5906   32.0877   48.5612 H   0  0  0  0  0  0  0  0  0  0  0  0
   57.4817   31.1678   49.9575 H   0  0  0  0  0  0  0  0  0  0  0  0
   56.7090   32.0954   52.1452 H   0  0  0  0  0  0  0  0  0  0  0  0
   58.0865   33.8086   53.3320 H   0  0  0  0  0  0  0  0  0  0  0  0
   60.2351   34.5949   52.3345 H   0  0  0  0  0  0  0  0  0  0  0  0
   61.0123   33.6706   50.1505 H   0  0  0  0  0  0  0  0  0  0  0  0
   60.5319   29.7978   50.8262 H   0  0  0  0  0  0  0  0  0  0  0  0
   61.1215   28.4591   49.7836 H   0  0  0  0  0  0  0  0  0  0  0  0
   61.9745   30.0400   49.7836 H   0  0  0  0  0  0  0  0  0  0  0  0
   59.2376   31.0283   45.8402 H   0  0  0  0  0  0  0  0  0  0  0  0
   58.1687   28.9294   46.6598 H   0  0  0  0  0  0  0  0  0  0  0  0
  1  2  1  0
  2  3  1  0
  3  4  2  0
  4  5  1  0
  5  6  2  0
  6  7  1  0
  7  8  1  0
  8  9  1  0
  9 10  2  0
  9 11  1  0
 11 12  1  0
 12 13  1  0
 13 14  1  0
 14 15  2  0
 15 16  1  0
 16 17  2  0
 17 18  1  0
 13 19  1  0
 19 20  1  0
 20 21  2  0
 21 22  1  0
 22 23  2  0
 23 24  1  0
 24 25  2  0
 19 26  1  0
 26 27  1  0
 26 28  2  0
 26 29  2  0
  6 30  1  0
 30 31  2  0
 31  3  1  0
 18 14  1  0
 25 20  1  0
  1 32  1  0
  1 33  1  0
  1 34  1  0
  4 35  1  0
  5 36  1  0
  8 37  1  0
  8 38  1  0
 12 39  1  0
 12 40  1  0
 13 41  1  6
 15 42  1  0
 16 43  1  0
 17 44  1  0
 21 45  1  0
 22 46  1  0
 23 47  1  0
 24 48  1  0
 25 49  1  0
 27 50  1  0
 27 51  1  0
 27 52  1  0
 30 53  1  0
 31 54  1  0
M  CHG  1  11  -1
M  END
>  <UniqueID>  (26) 
19

>  <SMILES>  (26) 
COc1ccc(OCC(=O)[N-]C[C@@H](c2ccco2)N(c2ccccc2)S(C)(=O)=O)cc1

>  <Energy>  (26) 
76.31860188463415

>  <Genealogy>  (26) 
COc1ccc(OCC(=O)[N-]CC(c2ccco2)N(c2ccccc2)S(C)(=O)=O)cc1 (protonated)
COc1ccc(OCC(=O)[N-]C[C@@H](c2ccco2)N(c2ccccc2)S(C)(=O)=O)cc1 (chirality)
COc1ccc(OCC(=O)[N-]C[C@@H](c2ccco2)N(c2ccccc2)S(C)(=O)=O)cc1 (3D coordinates assigned)
COc1ccc(OCC(=O)[N-]C[C@@H](c2ccco2)N(c2ccccc2)S(C)(=O)=O)cc1 (optimized conformer: 76.31860188463415 kcal/mol)

>  <smiles>  (26) 
COc1ccc(OCC(=O)NCC(c2ccco2)N(c2ccccc2)S(C)(=O)=O)cc1

>  <score_type>  (26) 
oracle

>  <origin>  (26) 
adg

>  <m_score__min__energy>  (26) 
-10.02

>  <m_primary>  (26) 
energy

$$$$
26:0
     RDKit          3D

 57 60  0  0  0  0  0  0  0  0999 V2000
   56.4170   23.6760   45.0470 C   0  0  0  0  0  0  0  0  0  0  0  0
   57.2310   24.6360   45.8710 C   0  0  0  0  0  0  0  0  0  0  0  0
   57.3550   24.4390   47.2550 C   0  0  0  0  0  0  0  0  0  0  0  0
   58.0990   25.3270   48.0340 C   0  0  0  0  0  0  0  0  0  0  0  0
   58.7560   26.4160   47.4380 C   0  0  0  0  0  0  0  0  0  0  0  0
   59.5380   27.3430   48.2130 N   0  0  0  0  0  0  0  0  0  0  0  0
   59.4230   28.7750   48.1250 C   0  0  0  0  0  0  0  0  0  0  0  0
   58.4020   29.2950   47.5980 O   0  0  0  0  0  0  0  0  0  0  0  0
   60.4960   29.6420   48.6750 C   0  0  0  0  0  0  0  0  0  0  0  0
   61.0660   30.6170   47.8360 C   0  0  0  0  0  0  0  0  0  0  0  0
   62.0560   31.4930   48.3060 C   0  0  0  0  0  0  0  0  0  0  0  0
   62.6900   32.5010   47.3780 C   0  0  0  0  0  0  0  0  0  0  0  0
   63.0650   33.6160   48.1060 F   0  0  0  0  0  0  0  0  0  0  0  0
   63.8100   31.9640   46.7650 F   0  0  0  0  0  0  0  0  0  0  0  0
   61.7990   32.8850   46.3900 F   0  0  0  0  0  0  0  0  0  0  0  0
   62.5100   31.3610   49.6260 C   0  0  0  0  0  0  0  0  0  0  0  0
   61.9620   30.3960   50.4700 C   0  0  0  0  0  0  0  0  0  0  0  0
   60.9640   29.5210   50.0100 C   0  0  0  0  0  0  0  0  0  0  0  0
   60.4320   28.4740   50.9540 C   0  0  0  0  0  0  0  0  0  0  0  0
   58.6060   26.6330   46.0600 C   0  0  0  0  0  0  0  0  0  0  0  0
   57.8320   25.7620   45.2730 C   0  0  0  0  0  0  0  0  0  0  0  0
   57.6880   25.9740   43.8600 N   0  0  0  0  0  0  0  0  0  0  0  0
   58.0530   27.1640   43.1480 C   0  0  0  0  0  0  0  0  0  0  0  0
   58.6200   27.0790   42.0240 O   0  0  0  0  0  0  0  0  0  0  0  0
   57.8150   28.4930   43.7550 C   0  0  0  0  0  0  0  0  0  0  0  0
   58.8750   29.2660   44.2500 C   0  0  0  0  0  0  0  0  0  0  0  0
   58.6310   30.4770   44.8120 N   0  0  0  0  0  0  0  0  0  0  0  0
   57.3660   30.9760   44.8960 C   0  0  0  0  0  0  0  0  0  0  0  0
   57.1280   32.1270   45.4560 N   0  0  0  0  0  0  0  0  0  0  0  0
   58.0960   33.0430   45.9950 C   0  0  0  0  0  0  0  0  0  0  0  0
   58.6950   34.0470   45.2100 C   0  0  0  0  0  0  0  0  0  0  0  0
   59.6060   34.9390   45.7830 C   0  0  0  0  0  0  0  0  0  0  0  0
   59.9140   34.8480   47.1440 C   0  0  0  0  0  0  0  0  0  0  0  0
   59.3010   33.8730   47.9350 C   0  0  0  0  0  0  0  0  0  0  0  0
   58.3880   32.9820   47.3650 C   0  0  0  0  0  0  0  0  0  0  0  0
   56.3250   30.2380   44.4310 N   0  0  0  0  0  0  0  0  0  0  0  0
   56.5200   29.0200   43.8660 C   0  0  0  0  0  0  0  0  0  0  0  0
   55.8512   23.0088   45.7139 H   0  0  0  0  0  0  0  0  0  0  0  0
   55.7173   24.2395   44.4123 H   0  0  0  0  0  0  0  0  0  0  0  0
   57.0873   23.0778   44.4123 H   0  0  0  0  0  0  0  0  0  0  0  0
   56.8620   23.5779   47.7298 H   0  0  0  0  0  0  0  0  0  0  0  0
   58.1711   25.1730   49.1208 H   0  0  0  0  0  0  0  0  0  0  0  0
   60.1720   26.9540   48.9460 H   0  0  0  0  0  0  0  0  0  0  0  0
   60.7291   30.6939   46.7917 H   0  0  0  0  0  0  0  0  0  0  0  0
   63.3047   32.0240   49.9986 H   0  0  0  0  0  0  0  0  0  0  0  0
   62.3155   30.3189   51.5088 H   0  0  0  0  0  0  0  0  0  0  0  0
   60.5969   28.7985   51.9920 H   0  0  0  0  0  0  0  0  0  0  0  0
   59.3547   28.3364   50.7796 H   0  0  0  0  0  0  0  0  0  0  0  0
   60.9561   27.5227   50.7796 H   0  0  0  0  0  0  0  0  0  0  0  0
   59.1003   27.4956   45.5892 H   0  0  0  0  0  0  0  0  0  0  0  0
   59.9066   28.8901   44.1827 H   0  0  0  0  0  0  0  0  0  0  0  0
   58.4451   34.1296   44.1420 H   0  0  0  0  0  0  0  0  0  0  0  0
   60.0811   35.7133   45.1627 H   0  0  0  0  0  0  0  0  0  0  0  0
   60.6388   35.5439   47.5917 H   0  0  0  0  0  0  0  0  0  0  0  0
   59.5373   33.8068   49.0073 H   0  0  0  0  0  0  0  0  0  0  0  0
   57.8949   32.2274   47.9955 H   0  0  0  0  0  0  0  0  0  0  0  0
   55.6599   28.4441   43.4939 H   0  0  0  0  0  0  0  0  0  0  0  0
  1  2  1  0
  2  3  2  0
  3  4  1  0
  4  5  2  0
  5  6  1  0
  6  7  1  0
  7  8  2  0
  7  9  1  0
  9 10  2  0
 10 11  1  0
 11 12  1  0
 12 13  1  0
 12 14  1  0
 12 15  1  0
 11 16  2  0
 16 17  1  0
 17 18  2  0
 18 19  1  0
  5 20  1  0
 20 21  2  0
 21 22  1  0
 22 23  1  0
 23 24  2  0
 23 25  1  0
 25 26  1  0
 26 27  2  0
 27 28  1  0
 28 29  2  3
 29 30  1  0
 30 31  2  0
 31 32  1  0
 32 33  2  0
 33 34  1  0
 34 35  2  0
 28 36  1  0
 36 37  1  0
 21  2  1  0
 37 25  2  0
 18  9  1  0
 35 30  1  0
  1 38  1  0
  1 39  1  0
  1 40  1  0
  3 41  1  0
  4 42  1  0
  6 43  1  0
 10 44  1  0
 16 45  1  0
 17 46  1  0
 19 47  1  0
 19 48  1  0
 19 49  1  0
 20 50  1  0
 26 51  1  0
 31 52  1  0
 32 53  1  0
 33 54  1  0
 34 55  1  0
 35 56  1  0
 37 57  1  0
M  CHG  2  22  -1  36  -1
M  END
>  <UniqueID>  (27) 
20

>  <SMILES>  (27) 
Cc1ccc(NC(=O)c2cc(C(F)(F)F)ccc2C)cc1[N-]C(=O)c1cnc(=Nc2ccccc2)[n-]c1

>  <Energy>  (27) 
82.55412000716174

>  <Genealogy>  (27) 
Cc1ccc(NC(=O)c2cc(C(F)(F)F)ccc2C)cc1[N-]C(=O)c1cnc(=Nc2ccccc2)[n-]c1 (protonated)
Cc1ccc(NC(=O)c2cc(C(F)(F)F)ccc2C)cc1[N-]C(=O)c1cnc(=Nc2ccccc2)[n-]c1 (3D coordinates assigned)
Cc1ccc(NC(=O)c2cc(C(F)(F)F)ccc2C)cc1[N-]C(=O)c1cnc(=Nc2ccccc2)[n-]c1 (optimized conformer: 82.55412000716174 kcal/mol)

>  <smiles>  (27) 
Cc1ccc(NC(=O)c2cc(C(F)(F)F)ccc2C)cc1NC(=O)c1cnc(=Nc2ccccc2)[nH]c1

>  <score_type>  (27) 
oracle

>  <origin>  (27) 
adg

>  <m_score__min__energy>  (27) 
-11.390000000000001

>  <m_primary>  (27) 
energy

$$$$
27:0
     RDKit          3D

 35 37  0  0  0  0  0  0  0  0999 V2000
   58.8084   28.2411   49.9301 H   0  0  0  0  0  0  0  0  0  0  0  0
   59.2860   29.1870   49.6350 C   0  0  0  0  0  0  0  0  0  0  0  0
   58.6390   30.3810   49.7000 N   0  0  0  0  0  0  0  0  0  0  0  0
   59.4230   31.4000   49.2870 C   0  0  0  0  0  0  0  0  0  0  0  0
   58.9960   32.6280   49.2640 N   0  0  0  0  0  0  0  0  0  0  0  0
   59.3270   33.6620   48.3190 C   0  0  0  0  0  0  0  0  0  0  0  0
   59.9960   34.6700   48.6750 O   0  0  0  0  0  0  0  0  0  0  0  0
   58.8850   33.5340   46.9090 C   0  0  0  0  0  0  0  0  0  0  0  0
   59.5790   34.1950   45.8790 C   0  0  0  0  0  0  0  0  0  0  0  0
   60.4456   34.8278   46.1209 H   0  0  0  0  0  0  0  0  0  0  0  0
   59.1720   34.0510   44.5500 C   0  0  0  0  0  0  0  0  0  0  0  0
   59.7155   34.5760   43.7506 H   0  0  0  0  0  0  0  0  0  0  0  0
   58.0790   33.2440   44.2330 C   0  0  0  0  0  0  0  0  0  0  0  0
   57.7691   33.1309   43.1836 H   0  0  0  0  0  0  0  0  0  0  0  0
   57.3750   32.5780   45.2410 C   0  0  0  0  0  0  0  0  0  0  0  0
   56.2700   31.7410   44.8700 N   0  0  0  0  0  0  0  0  0  0  0  0
   56.3930   30.0800   44.3850 S   0  0  0  0  0  0  0  0  0  0  0  0
   55.1590   29.3450   44.8300 O   0  0  0  0  0  0  0  0  0  0  0  0
   56.4920   30.0070   42.8880 O   0  0  0  0  0  0  0  0  0  0  0  0
   57.8390   29.3550   45.0840 C   0  0  0  0  0  0  0  0  0  0  0  0
   59.1160   29.7890   44.6940 C   0  0  0  0  0  0  0  0  0  0  0  0
   59.2197   30.6109   43.9703 H   0  0  0  0  0  0  0  0  0  0  0  0
   60.2570   29.1770   45.2250 C   0  0  0  0  0  0  0  0  0  0  0  0
   61.2566   29.5166   44.9162 H   0  0  0  0  0  0  0  0  0  0  0  0
   60.1280   28.1350   46.1470 C   0  0  0  0  0  0  0  0  0  0  0  0
   61.0259   27.6546   46.5628 H   0  0  0  0  0  0  0  0  0  0  0  0
   58.8590   27.7030   46.5410 C   0  0  0  0  0  0  0  0  0  0  0  0
   58.7586   26.8841   47.2686 H   0  0  0  0  0  0  0  0  0  0  0  0
   57.7160   28.3110   46.0110 C   0  0  0  0  0  0  0  0  0  0  0  0
   56.7181   27.9688   46.3226 H   0  0  0  0  0  0  0  0  0  0  0  0
   57.7720   32.7390   46.5800 C   0  0  0  0  0  0  0  0  0  0  0  0
   57.2062   32.2379   47.3792 H   0  0  0  0  0  0  0  0  0  0  0  0
   60.9510   30.8530   48.8240 S   0  0  0  0  0  0  0  0  0  0  0  0
   60.5940   29.2470   49.1690 C   0  0  0  0  0  0  0  0  0  0  0  0
   61.2764   28.3929   49.0472 H   0  0  0  0  0  0  0  0  0  0  0  0
  1  2  1  0
  2  3  1  0
  3  4  1  0
  4  5  2  0
  5  6  1  0
  6  7  2  0
  6  8  1  0
  8  9  2  0
  9 10  1  0
  9 11  1  0
 11 12  1  0
 11 13  2  0
 13 14  1  0
 13 15  1  0
 15 16  1  0
 16 17  1  0
 17 18  2  0
 17 19  2  0
 17 20  1  0
 20 21  2  0
 21 22  1  0
 21 23  1  0
 23 24  1  0
 23 25  2  0
 25 26  1  0
 25 27  1  0
 27 28  1  0
 27 29  2  0
 29 30  1  0
 15 31  2  0
 31 32  1  0
  4 33  1  0
 33 34  1  0
 34 35  1  0
 34  2  2  0
 31  8  1  0
 29 20  1  0
M  CHG  2   3  -1  16  -1
M  END
>  <UniqueID>  (28) 
21

>  <SMILES>  (28) 
O=C(/N=c1/[n-]ccs1)c1cccc([N-]S(=O)(=O)c2ccccc2)c1

>  <Energy>  (28) 
74.44587980852934

>  <Genealogy>  (28) 
O=C(N=c1[n-]ccs1)c1cccc([N-]S(=O)(=O)c2ccccc2)c1 (protonated)
O=C(/N=c1/[n-]ccs1)c1cccc([N-]S(=O)(=O)c2ccccc2)c1 (cis-trans isomerization)
O=C(/N=c1/[n-]ccs1)c1cccc([N-]S(=O)(=O)c2ccccc2)c1 (3D coordinates assigned)
O=C(/N=c1/[n-]ccs1)c1cccc([N-]S(=O)(=O)c2ccccc2)c1 (optimized conformer: 74.44587980852934 kcal/mol)

>  <smiles>  (28) 
O=C(N=c1[nH]ccs1)c1cccc(NS(=O)(=O)c2ccccc2)c1

>  <score_type>  (28) 
oracle

>  <origin>  (28) 
adg

>  <m_score__min__energy>  (28) 
-11.449999999999999

>  <m_primary>  (28) 
energy

$$$$
28:0
     RDKit          3D

 45 48  0  0  0  0  0  0  0  0999 V2000
   65.5360   33.6510   51.1970 C   0  0  0  0  0  0  0  0  0  0  0  0
   65.3920   33.2200   49.8470 O   0  0  0  0  0  0  0  0  0  0  0  0
   64.1830   33.2430   49.1330 C   0  0  0  0  0  0  0  0  0  0  0  0
   62.9930   33.4160   49.8470 C   0  0  0  0  0  0  0  0  0  0  0  0
   61.7650   33.4550   49.1820 C   0  0  0  0  0  0  0  0  0  0  0  0
   61.7030   33.3250   47.7830 C   0  0  0  0  0  0  0  0  0  0  0  0
   60.3890   33.3720   47.0970 C   0  0  0  0  0  0  0  0  0  0  0  0
   59.5600   34.5270   47.1400 C   0  0  0  0  0  0  0  0  0  0  0  0
   58.3020   34.5180   46.5120 C   0  0  0  0  0  0  0  0  0  0  0  0
   57.9320   33.3500   45.8640 C   0  0  0  0  0  0  0  0  0  0  0  0
   56.7740   33.0640   45.2440 N   0  0  0  0  0  0  0  0  0  0  0  0
   56.8480   31.8000   44.8260 N   0  0  0  0  0  0  0  0  0  0  0  0
   58.0680   31.3430   45.2000 C   0  0  0  0  0  0  0  0  0  0  0  0
   58.6700   29.6800   44.9080 S   0  0  0  0  0  0  0  0  0  0  0  0
   57.2140   29.1610   43.9360 C   0  0  0  0  0  0  0  0  0  0  0  0
   56.0540   28.9710   44.8570 C   0  0  0  0  0  0  0  0  0  0  0  0
   55.1420   29.8390   44.9030 O   0  0  0  0  0  0  0  0  0  0  0  0
   55.9610   27.7620   45.6210 N   0  0  0  0  0  0  0  0  0  0  0  0
   57.0090   26.8070   45.8480 C   0  0  0  0  0  0  0  0  0  0  0  0
   56.9990   25.6150   45.1110 C   0  0  0  0  0  0  0  0  0  0  0  0
   58.0190   24.6730   45.2750 C   0  0  0  0  0  0  0  0  0  0  0  0
   59.0630   24.9210   46.1680 C   0  0  0  0  0  0  0  0  0  0  0  0
   59.0940   26.1170   46.8930 C   0  0  0  0  0  0  0  0  0  0  0  0
   58.0740   27.0620   46.7300 C   0  0  0  0  0  0  0  0  0  0  0  0
   58.7490   32.3010   45.8440 N   0  0  0  0  0  0  0  0  0  0  0  0
   59.9370   32.2610   46.4380 N   0  0  0  0  0  0  0  0  0  0  0  0
   62.9000   33.1390   47.0680 C   0  0  0  0  0  0  0  0  0  0  0  0
   64.1290   33.1000   47.7350 C   0  0  0  0  0  0  0  0  0  0  0  0
   65.2616   32.8297   51.8754 H   0  0  0  0  0  0  0  0  0  0  0  0
   66.5807   33.9434   51.3791 H   0  0  0  0  0  0  0  0  0  0  0  0
   64.8770   34.5127   51.3791 H   0  0  0  0  0  0  0  0  0  0  0  0
   63.0242   33.5223   50.9414 H   0  0  0  0  0  0  0  0  0  0  0  0
   60.8376   33.5887   49.7582 H   0  0  0  0  0  0  0  0  0  0  0  0
   59.9040   35.4298   47.6660 H   0  0  0  0  0  0  0  0  0  0  0  0
   57.6418   35.3976   46.5340 H   0  0  0  0  0  0  0  0  0  0  0  0
   55.9470   33.6890   45.1210 H   0  0  0  0  0  0  0  0  0  0  0  0
   56.9717   29.9355   43.1934 H   0  0  0  0  0  0  0  0  0  0  0  0
   57.4330   28.2166   43.4162 H   0  0  0  0  0  0  0  0  0  0  0  0
   56.1836   25.4194   44.3991 H   0  0  0  0  0  0  0  0  0  0  0  0
   57.9989   23.7356   44.6999 H   0  0  0  0  0  0  0  0  0  0  0  0
   59.8612   24.1760   46.3016 H   0  0  0  0  0  0  0  0  0  0  0  0
   59.9203   26.3151   47.5916 H   0  0  0  0  0  0  0  0  0  0  0  0
   58.1058   28.0063   47.2933 H   0  0  0  0  0  0  0  0  0  0  0  0
   62.8694   33.0232   45.9745 H   0  0  0  0  0  0  0  0  0  0  0  0
   65.0577   32.9568   47.1632 H   0  0  0  0  0  0  0  0  0  0  0  0
  1  2  1  0
  2  3  1  0
  3  4  2  0
  4  5  1  0
  5  6  2  0
  6  7  1  0
  7  8  1  0
  8  9  2  0
  9 10  1  0
 10 11  2  0
 11 12  1  0
 12 13  2  0
 13 14  1  0
 14 15  1  0
 15 16  1  0
 16 17  2  0
 16 18  1  0
 18 19  1  0
 19 20  2  0
 20 21  1  0
 21 22  2  0
 22 23  1  0
 23 24  2  0
 13 25  1  0
 25 26  1  0
  6 27  1  0
 27 28  2  0
 28  3  1  0
 26  7  2  0
 25 10  1  0
 24 19  1  0
  1 29  1  0
  1 30  1  0
  1 31  1  0
  4 32  1  0
  5 33  1  0
  8 34  1  0
  9 35  1  0
 11 36  1  0
 15 37  1  0
 15 38  1  0
 20 39  1  0
 21 40  1  0
 22 41  1  0
 23 42  1  0
 24 43  1  0
 27 44  1  0
 28 45  1  0
M  CHG  2  11   1  18  -1
M  END
>  <UniqueID>  (29) 
22

>  <SMILES>  (29) 
COc1ccc(-c2ccc3[nH+]nc(SCC(=O)[N-]c4ccccc4)n3n2)cc1

>  <Energy>  (29) 
94.66950296671796

>  <Genealogy>  (29) 
COc1ccc(-c2ccc3[nH+]nc(SCC(=O)[N-]c4ccccc4)n3n2)cc1 (protonated)
COc1ccc(-c2ccc3[nH+]nc(SCC(=O)[N-]c4ccccc4)n3n2)cc1 (3D coordinates assigned)
COc1ccc(-c2ccc3[nH+]nc(SCC(=O)[N-]c4ccccc4)n3n2)cc1 (optimized conformer: 94.66950296671796 kcal/mol)

>  <smiles>  (29) 
COc1ccc(-c2ccc3nnc(SCC(=O)Nc4ccccc4)n3n2)cc1

>  <score_type>  (29) 
oracle

>  <origin>  (29) 
adg

>  <m_score__min__energy>  (29) 
-9.9800000000000004

>  <m_primary>  (29) 
energy

$$$$
29:0
     RDKit          3D

 37 39  0  0  0  0  0  0  0  0999 V2000
   57.1820   31.2140   42.7470 C   0  0  0  0  0  0  0  0  0  0  0  0
   57.0080   30.3140   43.8000 C   0  0  0  0  0  0  0  0  0  0  0  0
   57.4350   30.6460   45.0890 C   0  0  0  0  0  0  0  0  0  0  0  0
   58.0430   31.8880   45.3320 C   0  0  0  0  0  0  0  0  0  0  0  0
   58.4770   32.2310   46.6210 C   0  0  0  0  0  0  0  0  0  0  0  0
   59.0890   33.4740   46.8570 C   0  0  0  0  0  0  0  0  0  0  0  0
   59.5600   33.8340   48.2500 C   0  0  0  0  0  0  0  0  0  0  0  0
   60.8690   33.2140   48.5770 N   0  0  0  0  0  0  0  0  0  0  0  0
   61.5050   32.5910   47.3780 C   0  0  0  0  0  0  0  0  0  0  0  0
   62.5720   33.4870   46.7340 C   0  0  0  0  0  0  0  0  0  0  0  0
   63.7060   33.7950   47.7280 C   0  0  0  0  0  0  0  0  0  0  0  0
   63.2180   33.8330   49.1860 C   0  0  0  0  0  0  0  0  0  0  0  0
   61.7350   34.2160   49.2580 C   0  0  0  0  0  0  0  0  0  0  0  0
   59.2560   34.3750   45.7930 C   0  0  0  0  0  0  0  0  0  0  0  0
   58.8270   34.0400   44.5060 C   0  0  0  0  0  0  0  0  0  0  0  0
   58.2210   32.8010   44.2640 C   0  0  0  0  0  0  0  0  0  0  0  0
   57.7870   32.4550   42.9750 C   0  0  0  0  0  0  0  0  0  0  0  0
   56.8426   30.9468   41.7354 H   0  0  0  0  0  0  0  0  0  0  0  0
   56.5328   29.3394   43.6145 H   0  0  0  0  0  0  0  0  0  0  0  0
   57.2944   29.9328   45.9146 H   0  0  0  0  0  0  0  0  0  0  0  0
   58.3376   31.5234   47.4516 H   0  0  0  0  0  0  0  0  0  0  0  0
   59.6587   34.9274   48.3191 H   0  0  0  0  0  0  0  0  0  0  0  0
   58.8174   33.4531   48.9666 H   0  0  0  0  0  0  0  0  0  0  0  0
   60.7000   32.4490   49.2740 H   0  0  0  0  0  0  0  0  0  0  0  0
   61.9779   31.6458   47.6829 H   0  0  0  0  0  0  0  0  0  0  0  0
   60.7139   32.4307   46.6307 H   0  0  0  0  0  0  0  0  0  0  0  0
   62.9920   32.9728   45.8570 H   0  0  0  0  0  0  0  0  0  0  0  0
   62.1003   34.4348   46.4354 H   0  0  0  0  0  0  0  0  0  0  0  0
   64.4778   33.0168   47.6346 H   0  0  0  0  0  0  0  0  0  0  0  0
   64.1036   34.7909   47.4829 H   0  0  0  0  0  0  0  0  0  0  0  0
   63.3555   32.8394   49.6376 H   0  0  0  0  0  0  0  0  0  0  0  0
   63.8024   34.5881   49.7322 H   0  0  0  0  0  0  0  0  0  0  0  0
   61.4363   34.2847   50.3144 H   0  0  0  0  0  0  0  0  0  0  0  0
   61.6069   35.1812   48.7462 H   0  0  0  0  0  0  0  0  0  0  0  0
   59.7281   35.3519   45.9740 H   0  0  0  0  0  0  0  0  0  0  0  0
   58.9659   34.7525   43.6795 H   0  0  0  0  0  0  0  0  0  0  0  0
   57.9227   33.1608   42.1422 H   0  0  0  0  0  0  0  0  0  0  0  0
  1  2  2  0
  2  3  1  0
  3  4  2  0
  4  5  1  0
  5  6  2  0
  6  7  1  0
  7  8  1  0
  8  9  1  0
  9 10  1  0
 10 11  1  0
 11 12  1  0
 12 13  1  0
  6 14  1  0
 14 15  2  0
 15 16  1  0
 16 17  2  0
 17  1  1  0
 16  4  1  0
 13  8  1  0
  1 18  1  0
  2 19  1  0
  3 20  1  0
  5 21  1  0
  7 22  1  0
  7 23  1  0
  8 24  1  0
  9 25  1  0
  9 26  1  0
 10 27  1  0
 10 28  1  0
 11 29  1  0
 11 30  1  0
 12 31  1  0
 12 32  1  0
 13 33  1  0
 13 34  1  0
 14 35  1  0
 15 36  1  0
 17 37  1  0
M  CHG  1   8   1
M  END
>  <UniqueID>  (30) 
23

>  <SMILES>  (30) 
c1ccc2cc(C[NH+]3CCCCC3)ccc2c1

>  <Energy>  (30) 
49.327449833584666

>  <Genealogy>  (30) 
c1ccc2cc(C[NH+]3CCCCC3)ccc2c1 (protonated)
c1ccc2cc(C[NH+]3CCCCC3)ccc2c1 (3D coordinates assigned)
c1ccc2cc(C[NH+]3CCCCC3)ccc2c1 (nonaromatic ring conformer: 49.327449833584666 kcal/mol)

>  <smiles>  (30) 
c1ccc2cc(CN3CCCCC3)ccc2c1

>  <score_type>  (30) 
oracle

>  <origin>  (30) 
adg

>  <m_score__min__energy>  (30) 
-5.6900000000000004

>  <m_primary>  (30) 
energy

$$$$
30:0
     RDKit          3D

 52 56  0  0  0  0  0  0  0  0999 V2000
   65.8210   32.4490   50.1300 C   0  0  0  0  0  0  0  0  0  0  0  0
   64.9200   33.3110   49.4410 O   0  0  0  0  0  0  0  0  0  0  0  0
   63.6770   32.9100   48.9310 C   0  0  0  0  0  0  0  0  0  0  0  0
   62.8000   33.9090   48.4470 C   0  0  0  0  0  0  0  0  0  0  0  0
   61.5320   33.5710   47.9160 C   0  0  0  0  0  0  0  0  0  0  0  0
   60.6250   34.5190   47.4170 O   0  0  0  0  0  0  0  0  0  0  0  0
   60.3320   34.7260   46.0360 C   0  0  0  0  0  0  0  0  0  0  0  0
   59.0560   34.0240   45.6510 C   0  0  0  0  0  0  0  0  0  0  0  0
   57.8190   34.5590   46.0280 C   0  0  0  0  0  0  0  0  0  0  0  0
   56.6440   33.9000   45.6620 C   0  0  0  0  0  0  0  0  0  0  0  0
   56.7050   32.7510   44.9400 N   0  0  0  0  0  0  0  0  0  0  0  0
   57.8900   32.2050   44.5470 C   0  0  0  0  0  0  0  0  0  0  0  0
   57.9230   30.9870   43.7810 N   0  0  0  0  0  0  0  0  0  0  0  0
   56.9120   29.9680   43.8290 C   0  0  0  0  0  0  0  0  0  0  0  0
   57.0510   28.7480   42.9780 C   0  0  0  0  0  0  0  0  0  0  0  0
   55.9200   30.0750   44.5990 O   0  0  0  0  0  0  0  0  0  0  0  0
   59.0900   32.8430   44.8950 C   0  0  0  0  0  0  0  0  0  0  0  0
   61.1880   32.2210   47.8990 C   0  0  0  0  0  0  0  0  0  0  0  0
   60.0500   31.5860   47.4540 C   0  0  0  0  0  0  0  0  0  0  0  0
   60.2930   30.2350   47.6910 C   0  0  0  0  0  0  0  0  0  0  0  0
   59.3760   29.1290   47.3890 C   0  0  0  0  0  0  0  0  0  0  0  0
   58.2170   29.2200   46.6090 C   0  0  0  0  0  0  0  0  0  0  0  0
   57.7160   27.9850   46.6110 N   0  0  0  0  0  0  0  0  0  0  0  0
   56.6510   27.4170   46.0690 N   0  0  0  0  0  0  0  0  0  0  0  0
   56.6340   26.0960   46.4090 C   0  0  0  0  0  0  0  0  0  0  0  0
   55.6400   25.2060   45.9990 O   0  0  0  0  0  0  0  0  0  0  0  0
   55.8070   24.3430   44.8830 C   0  0  0  0  0  0  0  0  0  0  0  0
   57.9640   25.6350   47.4000 S   0  0  0  0  0  0  0  0  0  0  0  0
   58.5030   27.2220   47.3290 C   0  0  0  0  0  0  0  0  0  0  0  0
   59.5660   27.8570   47.8530 N   0  0  0  0  0  0  0  0  0  0  0  0
   61.4830   30.0640   48.2360 O   0  0  0  0  0  0  0  0  0  0  0  0
   62.0310   31.2480   48.3650 C   0  0  0  0  0  0  0  0  0  0  0  0
   63.2840   31.5500   48.8880 C   0  0  0  0  0  0  0  0  0  0  0  0
   65.6905   32.5739   51.2151 H   0  0  0  0  0  0  0  0  0  0  0  0
   65.6132   31.4048   49.8535 H   0  0  0  0  0  0  0  0  0  0  0  0
   66.8550   32.7027   49.8535 H   0  0  0  0  0  0  0  0  0  0  0  0
   63.1080   34.9644   48.4838 H   0  0  0  0  0  0  0  0  0  0  0  0
   60.2218   35.8042   45.8480 H   0  0  0  0  0  0  0  0  0  0  0  0
   61.1565   34.3158   45.4344 H   0  0  0  0  0  0  0  0  0  0  0  0
   57.7729   35.4922   46.6086 H   0  0  0  0  0  0  0  0  0  0  0  0
   55.6679   34.3115   45.9585 H   0  0  0  0  0  0  0  0  0  0  0  0
   58.7370   30.8280   43.1430 H   0  0  0  0  0  0  0  0  0  0  0  0
   57.1520   27.8616   43.6215 H   0  0  0  0  0  0  0  0  0  0  0  0
   56.1593   28.6404   42.3429 H   0  0  0  0  0  0  0  0  0  0  0  0
   57.9440   28.8437   42.3429 H   0  0  0  0  0  0  0  0  0  0  0  0
   60.0536   32.4188   44.5763 H   0  0  0  0  0  0  0  0  0  0  0  0
   59.1522   32.0423   47.0115 H   0  0  0  0  0  0  0  0  0  0  0  0
   57.8110   30.1107   46.1072 H   0  0  0  0  0  0  0  0  0  0  0  0
   56.0049   23.3204   45.2367 H   0  0  0  0  0  0  0  0  0  0  0  0
   54.8909   24.3496   44.2741 H   0  0  0  0  0  0  0  0  0  0  0  0
   56.6545   24.6908   44.2741 H   0  0  0  0  0  0  0  0  0  0  0  0
   63.9499   30.7561   49.2572 H   0  0  0  0  0  0  0  0  0  0  0  0
  1  2  1  0
  2  3  1  0
  3  4  2  0
  4  5  1  0
  5  6  1  0
  6  7  1  0
  7  8  1  0
  8  9  2  0
  9 10  1  0
 10 11  2  0
 11 12  1  0
 12 13  1  0
 13 14  1  0
 14 15  1  0
 14 16  2  0
 12 17  2  0
  5 18  2  0
 18 19  1  0
 19 20  2  0
 20 21  1  0
 21 22  2  0
 22 23  1  0
 23 24  1  0
 24 25  2  0
 25 26  1  0
 26 27  1  0
 25 28  1  0
 28 29  1  0
 29 30  2  0
 20 31  1  0
 31 32  1  0
 32 33  2  0
 33  3  1  0
 17  8  1  0
 32 18  1  0
 30 21  1  0
 29 23  1  0
  1 34  1  0
  1 35  1  0
  1 36  1  0
  4 37  1  0
  7 38  1  0
  7 39  1  0
  9 40  1  0
 10 41  1  0
 13 42  1  0
 15 43  1  0
 15 44  1  0
 15 45  1  0
 17 46  1  0
 19 47  1  0
 22 48  1  0
 27 49  1  0
 27 50  1  0
 27 51  1  0
 33 52  1  0
M  END
>  <UniqueID>  (31) 
24

>  <SMILES>  (31) 
COc1cc(OCc2ccnc(NC(C)=O)c2)c2cc(-c3cn4nc(OC)sc4n3)oc2c1

>  <Energy>  (31) 
170.83440344418543

>  <Genealogy>  (31) 
COc1cc(OCc2ccnc(NC(C)=O)c2)c2cc(-c3cn4nc(OC)sc4n3)oc2c1 (3D coordinates assigned)
COc1cc(OCc2ccnc(NC(C)=O)c2)c2cc(-c3cn4nc(OC)sc4n3)oc2c1 (optimized conformer: 170.83440344418543 kcal/mol)

>  <smiles>  (31) 
COc1cc(OCc2ccnc(NC(C)=O)c2)c2cc(-c3cn4nc(OC)sc4n3)oc2c1

>  <score_type>  (31) 
oracle

>  <origin>  (31) 
adg

>  <m_score__min__energy>  (31) 
-8.4600000000000009

>  <m_primary>  (31) 
energy

$$$$
31:0
     RDKit          3D

 37 39  0  0  0  0  0  0  0  0999 V2000
   59.5270   35.3310   44.9760 O   0  0  0  0  0  0  0  0  0  0  0  0
   58.7720   34.5000   45.5460 C   0  0  0  0  0  0  0  0  0  0  0  0
   57.4350   34.1820   44.9350 C   0  0  0  0  0  0  0  0  0  0  0  0
   57.3950   32.7860   44.5080 N   0  0  0  0  0  0  0  0  0  0  0  0
   58.1360   32.2170   43.5410 C   0  0  0  0  0  0  0  0  0  0  0  0
   57.8870   30.8960   43.4490 N   0  0  0  0  0  0  0  0  0  0  0  0
   56.9640   30.7180   44.4200 C   0  0  0  0  0  0  0  0  0  0  0  0
   56.3770   29.4520   44.7260 N   0  0  0  0  0  0  0  0  0  0  0  0
   55.1440   29.3530   44.8930 O   0  0  0  0  0  0  0  0  0  0  0  0
   57.1690   28.3330   44.8390 O   0  0  0  0  0  0  0  0  0  0  0  0
   56.6580   31.8530   45.0780 N   0  0  0  0  0  0  0  0  0  0  0  0
   59.2320   33.8520   46.7390 N   0  0  0  0  0  0  0  0  0  0  0  0
   60.5180   33.2500   46.9460 C   0  0  0  0  0  0  0  0  0  0  0  0
   61.6910   34.0260   46.9330 C   0  0  0  0  0  0  0  0  0  0  0  0
   62.9340   33.4320   47.1660 C   0  0  0  0  0  0  0  0  0  0  0  0
   63.0190   32.0600   47.4070 C   0  0  0  0  0  0  0  0  0  0  0  0
   61.8640   31.2760   47.3950 C   0  0  0  0  0  0  0  0  0  0  0  0
   60.6150   31.8550   47.1370 C   0  0  0  0  0  0  0  0  0  0  0  0
   59.4850   31.0250   47.1260 O   0  0  0  0  0  0  0  0  0  0  0  0
   59.4990   29.6520   46.8350 C   0  0  0  0  0  0  0  0  0  0  0  0
   58.9090   28.7010   47.6920 C   0  0  0  0  0  0  0  0  0  0  0  0
   58.9380   27.3430   47.3600 C   0  0  0  0  0  0  0  0  0  0  0  0
   59.5430   26.9250   46.1720 C   0  0  0  0  0  0  0  0  0  0  0  0
   60.1140   27.8650   45.3100 C   0  0  0  0  0  0  0  0  0  0  0  0
   60.0870   29.2240   45.6380 C   0  0  0  0  0  0  0  0  0  0  0  0
   56.6444   34.3571   45.6795 H   0  0  0  0  0  0  0  0  0  0  0  0
   57.2770   34.8297   44.0601 H   0  0  0  0  0  0  0  0  0  0  0  0
   58.8527   32.7597   42.9071 H   0  0  0  0  0  0  0  0  0  0  0  0
   61.6294   35.1069   46.7383 H   0  0  0  0  0  0  0  0  0  0  0  0
   63.8464   34.0463   47.1595 H   0  0  0  0  0  0  0  0  0  0  0  0
   63.9963   31.5963   47.6065 H   0  0  0  0  0  0  0  0  0  0  0  0
   61.9353   30.1957   47.5896 H   0  0  0  0  0  0  0  0  0  0  0  0
   58.4247   29.0279   48.6240 H   0  0  0  0  0  0  0  0  0  0  0  0
   58.4838   26.6027   48.0351 H   0  0  0  0  0  0  0  0  0  0  0  0
   59.5698   25.8557   45.9152 H   0  0  0  0  0  0  0  0  0  0  0  0
   60.5853   27.5355   44.3723 H   0  0  0  0  0  0  0  0  0  0  0  0
   60.5300   29.9611   44.9521 H   0  0  0  0  0  0  0  0  0  0  0  0
  1  2  2  0
  2  3  1  0
  3  4  1  0
  4  5  1  0
  5  6  2  0
  6  7  1  0
  7  8  1  0
  8  9  2  0
  8 10  1  0
  7 11  2  0
  2 12  1  0
 12 13  1  0
 13 14  2  0
 14 15  1  0
 15 16  2  0
 16 17  1  0
 17 18  2  0
 18 19  1  0
 19 20  1  0
 20 21  2  0
 21 22  1  0
 22 23  2  0
 23 24  1  0
 24 25  2  0
 11  4  1  0
 18 13  1  0
 25 20  1  0
  3 26  1  0
  3 27  1  0
  5 28  1  0
 14 29  1  0
 15 30  1  0
 16 31  1  0
 17 32  1  0
 21 33  1  0
 22 34  1  0
 23 35  1  0
 24 36  1  0
 25 37  1  0
M  CHG  3   8   1  10  -1  12  -1
M  END
>  <UniqueID>  (32) 
25

>  <SMILES>  (32) 
O=C(Cn1cnc([N+](=O)[O-])n1)[N-]c1ccccc1Oc1ccccc1

>  <Energy>  (32) 
83.07695615237131

>  <Genealogy>  (32) 
O=C(Cn1cnc([N+](=O)[O-])n1)[N-]c1ccccc1Oc1ccccc1 (protonated)
O=C(Cn1cnc([N+](=O)[O-])n1)[N-]c1ccccc1Oc1ccccc1 (3D coordinates assigned)
O=C(Cn1cnc([N+](=O)[O-])n1)[N-]c1ccccc1Oc1ccccc1 (optimized conformer: 83.07695615237131 kcal/mol)

>  <smiles>  (32) 
O=C(Cn1cnc([N+](=O)[O-])n1)Nc1ccccc1Oc1ccccc1

>  <score_type>  (32) 
oracle

>  <origin>  (32) 
adg

>  <m_score__min__energy>  (32) 
-10.289999999999999

>  <m_primary>  (32) 
energy

$$$$
32:0
     RDKit          3D

 55 59  0  0  0  0  0  0  0  0999 V2000
   54.5680   25.8630   45.7840 O   0  0  0  0  0  0  0  0  0  0  0  0
   55.6920   25.3160   45.9360 C   0  0  0  0  0  0  0  0  0  0  0  0
   56.7240   26.0430   46.6170 N   0  0  0  0  0  0  0  0  0  0  0  0
   57.1170   27.4010   46.3660 C   0  0  0  0  0  0  0  0  0  0  0  0
   56.6260   28.1250   45.2460 C   0  0  0  0  0  0  0  0  0  0  0  0
   57.0390   29.4490   45.0110 C   0  0  0  0  0  0  0  0  0  0  0  0
   57.9480   30.0160   45.9000 C   0  0  0  0  0  0  0  0  0  0  0  0
   58.4770   31.2480   45.8490 N   0  0  0  0  0  0  0  0  0  0  0  0
   59.3100   31.3340   46.9160 C   0  0  0  0  0  0  0  0  0  0  0  0
   60.1250   32.5280   47.2100 C   0  0  0  0  0  0  0  0  0  0  0  0
   59.5440   33.5720   47.6110 O   0  0  0  0  0  0  0  0  0  0  0  0
   61.5590   32.5180   47.0750 N   0  0  0  0  0  0  0  0  0  0  0  0
   62.2720   33.7630   46.7510 C   0  0  0  0  0  0  0  0  0  0  0  0
   63.1190   34.2000   47.9530 C   0  0  0  0  0  0  0  0  0  0  0  0
   63.8020   33.0490   48.5690 N   0  0  0  0  0  0  0  0  0  0  0  0
   64.3670   33.1820   49.8890 C   0  0  0  0  0  0  0  0  0  0  0  0
   63.6820   33.8830   50.8950 C   0  0  0  0  0  0  0  0  0  0  0  0
   64.2590   34.0210   52.1590 C   0  0  0  0  0  0  0  0  0  0  0  0
   65.4810   33.4790   52.4170 N   0  0  0  0  0  0  0  0  0  0  0  0
   66.1720   32.8010   51.4610 C   0  0  0  0  0  0  0  0  0  0  0  0
   65.6310   32.6440   50.1810 C   0  0  0  0  0  0  0  0  0  0  0  0
   63.7780   31.7490   47.8840 C   0  0  0  0  0  0  0  0  0  0  0  0
   62.3290   31.3620   47.5710 C   0  0  0  0  0  0  0  0  0  0  0  0
   59.3230   30.1390   47.6330 C   0  0  0  0  0  0  0  0  0  0  0  0
   58.4400   29.3160   46.9680 C   0  0  0  0  0  0  0  0  0  0  0  0
   58.0570   28.0020   47.2260 C   0  0  0  0  0  0  0  0  0  0  0  0
   55.9290   23.9730   45.3620 C   0  0  0  0  0  0  0  0  0  0  0  0
   55.3810   22.8200   45.9720 C   0  0  0  0  0  0  0  0  0  0  0  0
   54.4650   22.9070   47.4750 Cl  0  0  0  0  0  0  0  0  0  0  0  0
   55.5990   21.5590   45.4090 C   0  0  0  0  0  0  0  0  0  0  0  0
   56.3630   21.4260   44.2490 C   0  0  0  0  0  0  0  0  0  0  0  0
   56.9190   22.5540   43.6460 C   0  0  0  0  0  0  0  0  0  0  0  0
   56.7130   23.8230   44.1950 C   0  0  0  0  0  0  0  0  0  0  0  0
   57.4020   25.2120   43.3590 Cl  0  0  0  0  0  0  0  0  0  0  0  0
   55.9161   27.6454   44.5561 H   0  0  0  0  0  0  0  0  0  0  0  0
   56.6557   30.0186   44.1516 H   0  0  0  0  0  0  0  0  0  0  0  0
   58.2840   31.9860   45.1360 H   0  0  0  0  0  0  0  0  0  0  0  0
   62.9272   33.5943   45.8837 H   0  0  0  0  0  0  0  0  0  0  0  0
   61.5416   34.5506   46.5137 H   0  0  0  0  0  0  0  0  0  0  0  0
   63.8730   34.9264   47.6157 H   0  0  0  0  0  0  0  0  0  0  0  0
   62.4532   34.6525   48.7027 H   0  0  0  0  0  0  0  0  0  0  0  0
   62.6947   34.3216   50.6879 H   0  0  0  0  0  0  0  0  0  0  0  0
   63.7246   34.5693   52.9488 H   0  0  0  0  0  0  0  0  0  0  0  0
   65.9010   33.5950   53.3660 H   0  0  0  0  0  0  0  0  0  0  0  0
   67.1588   32.3752   51.6955 H   0  0  0  0  0  0  0  0  0  0  0  0
   66.1929   32.1016   49.4064 H   0  0  0  0  0  0  0  0  0  0  0  0
   64.3495   31.8181   46.9467 H   0  0  0  0  0  0  0  0  0  0  0  0
   64.2291   30.9844   48.5336 H   0  0  0  0  0  0  0  0  0  0  0  0
   62.3267   30.5743   46.8032 H   0  0  0  0  0  0  0  0  0  0  0  0
   61.8579   31.0041   48.4984 H   0  0  0  0  0  0  0  0  0  0  0  0
   59.9099   29.9040   48.5332 H   0  0  0  0  0  0  0  0  0  0  0  0
   58.4773   27.4483   48.0785 H   0  0  0  0  0  0  0  0  0  0  0  0
   55.1656   20.6662   45.8834 H   0  0  0  0  0  0  0  0  0  0  0  0
   56.5269   20.4309   43.8099 H   0  0  0  0  0  0  0  0  0  0  0  0
   57.5230   22.4445   42.7332 H   0  0  0  0  0  0  0  0  0  0  0  0
  1  2  2  0
  2  3  1  0
  3  4  1  0
  4  5  2  0
  5  6  1  0
  6  7  2  0
  7  8  1  0
  8  9  1  0
  9 10  1  0
 10 11  2  0
 10 12  1  0
 12 13  1  0
 13 14  1  0
 14 15  1  0
 15 16  1  0
 16 17  2  0
 17 18  1  0
 18 19  2  0
 19 20  1  0
 20 21  2  0
 15 22  1  0
 22 23  1  0
  9 24  2  0
 24 25  1  0
 25 26  2  0
  2 27  1  0
 27 28  2  0
 28 29  1  0
 28 30  1  0
 30 31  2  0
 31 32  1  0
 32 33  2  0
 33 34  1  0
 26  4  1  0
 33 27  1  0
 25  7  1  0
 23 12  1  0
 21 16  1  0
  5 35  1  0
  6 36  1  0
  8 37  1  0
 13 38  1  0
 13 39  1  0
 14 40  1  0
 14 41  1  0
 17 42  1  0
 18 43  1  0
 19 44  1  0
 20 45  1  0
 21 46  1  0
 22 47  1  0
 22 48  1  0
 23 49  1  0
 23 50  1  0
 24 51  1  0
 26 52  1  0
 30 53  1  0
 31 54  1  0
 32 55  1  0
M  CHG  2   3  -1  19   1
M  END
>  <UniqueID>  (33) 
26

>  <SMILES>  (33) 
O=C([N-]c1ccc2[nH]c(C(=O)N3CCN(c4cc[nH+]cc4)CC3)cc2c1)c1c(Cl)cccc1Cl

>  <Energy>  (33) 
113.25352218292974

>  <Genealogy>  (33) 
O=C([N-]c1ccc2[nH]c(C(=O)N3CCN(c4cc[nH+]cc4)CC3)cc2c1)c1c(Cl)cccc1Cl (protonated)
O=C([N-]c1ccc2[nH]c(C(=O)N3CCN(c4cc[nH+]cc4)CC3)cc2c1)c1c(Cl)cccc1Cl (3D coordinates assigned)
O=C([N-]c1ccc2[nH]c(C(=O)N3CCN(c4cc[nH+]cc4)CC3)cc2c1)c1c(Cl)cccc1Cl (nonaromatic ring conformer: 113.25352218292974 kcal/mol)

>  <smiles>  (33) 
O=C(Nc1ccc2[nH]c(C(=O)N3CCN(c4ccncc4)CC3)cc2c1)c1c(Cl)cccc1Cl

>  <score_type>  (33) 
oracle

>  <origin>  (33) 
adg

>  <m_score__min__energy>  (33) 
-9.3800000000000008

>  <m_primary>  (33) 
energy

$$$$
33:0
     RDKit          3D

 48 50  0  0  0  0  0  0  0  0999 V2000
   56.5500   21.4790   48.4870 C   0  0  0  0  0  0  0  0  0  0  0  0
   57.3400   22.1570   47.5160 O   0  0  0  0  0  0  0  0  0  0  0  0
   57.0170   22.2550   46.1510 C   0  0  0  0  0  0  0  0  0  0  0  0
   57.3780   21.2520   45.2280 C   0  0  0  0  0  0  0  0  0  0  0  0
   57.0450   21.3800   43.8770 C   0  0  0  0  0  0  0  0  0  0  0  0
   56.3550   22.5070   43.4290 C   0  0  0  0  0  0  0  0  0  0  0  0
   55.9940   23.5110   44.3310 C   0  0  0  0  0  0  0  0  0  0  0  0
   56.3110   23.3900   45.6960 C   0  0  0  0  0  0  0  0  0  0  0  0
   55.9160   24.4870   46.6530 C   0  0  0  0  0  0  0  0  0  0  0  0
   56.6800   25.7390   46.3540 C   0  0  0  0  0  0  0  0  0  0  0  0
   58.0030   25.8260   46.6850 N   0  0  0  0  0  0  0  0  0  0  0  0
   58.7260   26.9580   46.4500 C   0  0  0  0  0  0  0  0  0  0  0  0
   59.9450   26.9960   46.7670 O   0  0  0  0  0  0  0  0  0  0  0  0
   58.0860   28.0570   45.8600 C   0  0  0  0  0  0  0  0  0  0  0  0
   58.6190   29.3150   45.5080 C   0  0  0  0  0  0  0  0  0  0  0  0
   60.0620   29.6990   45.6820 C   0  0  0  0  0  0  0  0  0  0  0  0
   57.6420   30.1610   44.9550 C   0  0  0  0  0  0  0  0  0  0  0  0
   57.8800   31.4820   44.3600 C   0  0  0  0  0  0  0  0  0  0  0  0
   57.3830   31.7260   43.2310 O   0  0  0  0  0  0  0  0  0  0  0  0
   58.6690   32.4990   45.0000 N   0  0  0  0  0  0  0  0  0  0  0  0
   58.2460   33.6610   45.7950 C   0  0  0  0  0  0  0  0  0  0  0  0
   57.8600   33.1430   47.1890 C   0  0  0  0  0  0  0  0  0  0  0  0
   59.4070   34.6600   45.9420 C   0  0  0  0  0  0  0  0  0  0  0  0
   57.0190   34.3470   45.1650 C   0  0  0  0  0  0  0  0  0  0  0  0
   56.1700   29.3340   44.8350 S   0  0  0  0  0  0  0  0  0  0  0  0
   56.7470   27.9340   45.5460 C   0  0  0  0  0  0  0  0  0  0  0  0
   56.0450   26.8010   45.7840 N   0  0  0  0  0  0  0  0  0  0  0  0
   56.8833   21.7651   49.4955 H   0  0  0  0  0  0  0  0  0  0  0  0
   55.4932   21.7556   48.3579 H   0  0  0  0  0  0  0  0  0  0  0  0
   56.6631   20.3925   48.3579 H   0  0  0  0  0  0  0  0  0  0  0  0
   57.9255   20.3628   45.5738 H   0  0  0  0  0  0  0  0  0  0  0  0
   57.3275   20.5905   43.1650 H   0  0  0  0  0  0  0  0  0  0  0  0
   56.0950   22.6051   42.3647 H   0  0  0  0  0  0  0  0  0  0  0  0
   55.4584   24.4019   43.9713 H   0  0  0  0  0  0  0  0  0  0  0  0
   54.8390   24.6864   46.5515 H   0  0  0  0  0  0  0  0  0  0  0  0
   56.1452   24.1652   47.6796 H   0  0  0  0  0  0  0  0  0  0  0  0
   60.2980   29.7618   46.7546 H   0  0  0  0  0  0  0  0  0  0  0  0
   60.7029   28.9402   45.2094 H   0  0  0  0  0  0  0  0  0  0  0  0
   60.2410   30.6760   45.2094 H   0  0  0  0  0  0  0  0  0  0  0  0
   58.3301   33.7739   47.9577 H   0  0  0  0  0  0  0  0  0  0  0  0
   56.7666   33.1788   47.3037 H   0  0  0  0  0  0  0  0  0  0  0  0
   58.2069   32.1055   47.3037 H   0  0  0  0  0  0  0  0  0  0  0  0
   59.6086   34.8334   47.0094 H   0  0  0  0  0  0  0  0  0  0  0  0
   60.3070   34.2496   45.4609 H   0  0  0  0  0  0  0  0  0  0  0  0
   59.1354   35.6112   45.4609 H   0  0  0  0  0  0  0  0  0  0  0  0
   56.3567   34.7173   45.9614 H   0  0  0  0  0  0  0  0  0  0  0  0
   57.3503   35.1907   44.5418 H   0  0  0  0  0  0  0  0  0  0  0  0
   56.4738   33.6229   44.5418 H   0  0  0  0  0  0  0  0  0  0  0  0
  1  2  1  0
  2  3  1  0
  3  4  2  0
  4  5  1  0
  5  6  2  0
  6  7  1  0
  7  8  2  0
  8  9  1  0
  9 10  1  0
 10 11  2  0
 11 12  1  0
 12 13  2  0
 12 14  1  0
 14 15  1  0
 15 16  1  0
 15 17  2  0
 17 18  1  0
 18 19  2  0
 18 20  1  0
 20 21  1  0
 21 22  1  0
 21 23  1  0
 21 24  1  0
 17 25  1  0
 25 26  1  0
 26 27  1  0
  8  3  1  0
 27 10  1  0
 26 14  2  0
  1 28  1  0
  1 29  1  0
  1 30  1  0
  4 31  1  0
  5 32  1  0
  6 33  1  0
  7 34  1  0
  9 35  1  0
  9 36  1  0
 16 37  1  0
 16 38  1  0
 16 39  1  0
 22 40  1  0
 22 41  1  0
 22 42  1  0
 23 43  1  0
 23 44  1  0
 23 45  1  0
 24 46  1  0
 24 47  1  0
 24 48  1  0
M  CHG  2  20  -1  27  -1
M  END
>  <UniqueID>  (34) 
27

>  <SMILES>  (34) 
COc1ccccc1Cc1nc(=O)c2c(C)c(C(=O)[N-]C(C)(C)C)sc2[n-]1

>  <Energy>  (34) 
85.73250231787162

>  <Genealogy>  (34) 
COc1ccccc1Cc1nc(=O)c2c(C)c(C(=O)[N-]C(C)(C)C)sc2[n-]1 (protonated)
COc1ccccc1Cc1nc(=O)c2c(C)c(C(=O)[N-]C(C)(C)C)sc2[n-]1 (3D coordinates assigned)
COc1ccccc1Cc1nc(=O)c2c(C)c(C(=O)[N-]C(C)(C)C)sc2[n-]1 (optimized conformer: 85.73250231787162 kcal/mol)

>  <smiles>  (34) 
COc1ccccc1Cc1nc(=O)c2c(C)c(C(=O)NC(C)(C)C)sc2[nH]1

>  <score_type>  (34) 
oracle

>  <origin>  (34) 
adg

>  <m_score__min__energy>  (34) 
-10.76

>  <m_primary>  (34) 
energy

$$$$
34:0
     RDKit          3D

 36 38  0  0  0  0  0  0  0  0999 V2000
   57.4320   32.9940   47.8200 N   0  0  0  0  0  0  0  0  0  0  0  0
   58.6700   31.7900   47.7620 S   0  0  0  0  0  0  0  0  0  0  0  0
   58.1440   30.5630   47.0700 O   0  0  0  0  0  0  0  0  0  0  0  0
   59.8430   32.3160   46.9830 O   0  0  0  0  0  0  0  0  0  0  0  0
   59.1770   31.3870   49.3980 C   0  0  0  0  0  0  0  0  0  0  0  0
   60.5250   31.4960   49.7640 C   0  0  0  0  0  0  0  0  0  0  0  0
   60.9260   31.1970   51.0680 C   0  0  0  0  0  0  0  0  0  0  0  0
   59.9850   30.7790   52.0130 C   0  0  0  0  0  0  0  0  0  0  0  0
   58.6360   30.6490   51.6580 C   0  0  0  0  0  0  0  0  0  0  0  0
   57.7190   30.2370   52.6360 O   0  0  0  0  0  0  0  0  0  0  0  0
   56.3290   30.1530   52.4620 C   0  0  0  0  0  0  0  0  0  0  0  0
   55.6370   31.2850   52.0180 C   0  0  0  0  0  0  0  0  0  0  0  0
   54.2520   31.2430   51.8370 C   0  0  0  0  0  0  0  0  0  0  0  0
   53.5360   30.0690   52.1190 C   0  0  0  0  0  0  0  0  0  0  0  0
   52.0520   30.0110   51.8830 C   0  0  0  0  0  0  0  0  0  0  0  0
   51.3990   31.2490   52.4130 C   0  0  0  0  0  0  0  0  0  0  0  0
   51.1840   31.6100   54.0450 S   0  0  0  0  0  0  0  0  0  0  0  0
   50.5200   33.1180   53.7080 C   0  0  0  0  0  0  0  0  0  0  0  0
   50.1220   33.9290   54.5830 O   0  0  0  0  0  0  0  0  0  0  0  0
   50.4620   33.3780   52.3840 N   0  0  0  0  0  0  0  0  0  0  0  0
   50.9590   32.3380   51.6620 C   0  0  0  0  0  0  0  0  0  0  0  0
   51.0190   32.3770   50.2750 O   0  0  0  0  0  0  0  0  0  0  0  0
   54.2260   28.9370   52.5790 C   0  0  0  0  0  0  0  0  0  0  0  0
   55.6120   28.9810   52.7600 C   0  0  0  0  0  0  0  0  0  0  0  0
   58.2330   30.9780   50.3500 C   0  0  0  0  0  0  0  0  0  0  0  0
   56.9890   33.0240   46.8740 H   0  0  0  0  0  0  0  0  0  0  0  0
   61.2701   31.8182   49.0217 H   0  0  0  0  0  0  0  0  0  0  0  0
   61.9846   31.2907   51.3518 H   0  0  0  0  0  0  0  0  0  0  0  0
   60.3051   30.5510   53.0404 H   0  0  0  0  0  0  0  0  0  0  0  0
   56.1870   32.2146   51.8099 H   0  0  0  0  0  0  0  0  0  0  0  0
   53.7204   32.1341   51.4718 H   0  0  0  0  0  0  0  0  0  0  0  0
   51.8580   29.9309   50.8032 H   0  0  0  0  0  0  0  0  0  0  0  0
   51.6384   29.1345   52.4032 H   0  0  0  0  0  0  0  0  0  0  0  0
   53.6743   28.0110   52.7982 H   0  0  0  0  0  0  0  0  0  0  0  0
   56.1435   28.0948   53.1371 H   0  0  0  0  0  0  0  0  0  0  0  0
   57.1703   30.9137   50.0732 H   0  0  0  0  0  0  0  0  0  0  0  0
  1  2  1  0
  2  3  2  0
  2  4  2  0
  2  5  1  0
  5  6  2  0
  6  7  1  0
  7  8  2  0
  8  9  1  0
  9 10  1  0
 10 11  1  0
 11 12  2  0
 12 13  1  0
 13 14  2  0
 14 15  1  0
 15 16  1  0
 16 17  1  0
 17 18  1  0
 18 19  2  0
 18 20  1  0
 20 21  1  0
 21 22  1  0
 14 23  1  0
 23 24  2  0
  9 25  2  0
 25  5  1  0
 24 11  1  0
 21 16  2  0
  1 26  1  0
  6 27  1  0
  7 28  1  0
  8 29  1  0
 12 30  1  0
 13 31  1  0
 15 32  1  0
 15 33  1  0
 23 34  1  0
 24 35  1  0
 25 36  1  0
M  CHG  3   1  -1  20  -1  22  -1
M  END
>  <UniqueID>  (35) 
28

>  <SMILES>  (35) 
[NH-]S(=O)(=O)c1cccc(Oc2ccc(Cc3sc(=O)[n-]c3[O-])cc2)c1

>  <Energy>  (35) 
73.69934885318558

>  <Genealogy>  (35) 
[NH-]S(=O)(=O)c1cccc(Oc2ccc(Cc3sc(=O)[n-]c3[O-])cc2)c1 (protonated)
[NH-]S(=O)(=O)c1cccc(Oc2ccc(Cc3sc(=O)[n-]c3[O-])cc2)c1 (3D coordinates assigned)
[NH-]S(=O)(=O)c1cccc(Oc2ccc(Cc3sc(=O)[n-]c3[O-])cc2)c1 (optimized conformer: 73.69934885318558 kcal/mol)

>  <smiles>  (35) 
NS(=O)(=O)c1cccc(Oc2ccc(Cc3sc(=O)[nH]c3O)cc2)c1

>  <score_type>  (35) 
oracle

>  <origin>  (35) 
adg

>  <m_score__min__energy>  (35) 
-14.880000000000001

>  <m_primary>  (35) 
energy

$$$$
35:0
     RDKit          3D

 32 33  0  0  0  0  0  0  0  0999 V2000
   60.2650   27.4090   46.1090 C   0  0  0  0  0  0  0  0  0  0  0  0
   59.5670   28.6150   46.4050 O   0  0  0  0  0  0  0  0  0  0  0  0
   58.5200   29.1390   45.6290 C   0  0  0  0  0  0  0  0  0  0  0  0
   58.6780   30.3040   44.8530 C   0  0  0  0  0  0  0  0  0  0  0  0
   57.6110   30.8020   44.0980 C   0  0  0  0  0  0  0  0  0  0  0  0
   57.8190   32.2900   43.1220 S   0  0  0  0  0  0  0  0  0  0  0  0
   58.2570   33.2690   44.5520 C   0  0  0  0  0  0  0  0  0  0  0  0
   59.2460   34.1980   44.4620 N   0  0  0  0  0  0  0  0  0  0  0  0
   59.5870   34.9580   45.5340 C   0  0  0  0  0  0  0  0  0  0  0  0
   58.9190   34.7890   46.7470 C   0  0  0  0  0  0  0  0  0  0  0  0
   57.9090   33.8310   46.8210 C   0  0  0  0  0  0  0  0  0  0  0  0
   57.5960   33.0890   45.7260 N   0  0  0  0  0  0  0  0  0  0  0  0
   56.3830   30.1370   44.1060 C   0  0  0  0  0  0  0  0  0  0  0  0
   56.2150   28.9800   44.8700 C   0  0  0  0  0  0  0  0  0  0  0  0
   57.2810   28.4740   45.6370 C   0  0  0  0  0  0  0  0  0  0  0  0
   57.1410   27.2890   46.4340 N   0  0  0  0  0  0  0  0  0  0  0  0
   56.1910   25.9020   46.0090 S   0  0  0  0  0  0  0  0  0  0  0  0
   56.9130   25.1270   44.5810 C   0  0  0  0  0  0  0  0  0  0  0  0
   56.1810   24.9210   47.1480 O   0  0  0  0  0  0  0  0  0  0  0  0
   54.7870   26.3250   45.6810 O   0  0  0  0  0  0  0  0  0  0  0  0
   60.5526   26.9121   47.0473 H   0  0  0  0  0  0  0  0  0  0  0  0
   59.6134   26.7419   45.5256 H   0  0  0  0  0  0  0  0  0  0  0  0
   61.1680   27.6417   45.5256 H   0  0  0  0  0  0  0  0  0  0  0  0
   59.6465   30.8253   44.8407 H   0  0  0  0  0  0  0  0  0  0  0  0
   60.3888   35.7059   45.4463 H   0  0  0  0  0  0  0  0  0  0  0  0
   59.1831   35.3974   47.6245 H   0  0  0  0  0  0  0  0  0  0  0  0
   57.3658   33.6757   47.7648 H   0  0  0  0  0  0  0  0  0  0  0  0
   55.5452   30.5258   43.5085 H   0  0  0  0  0  0  0  0  0  0  0  0
   55.2448   28.4617   44.8723 H   0  0  0  0  0  0  0  0  0  0  0  0
   57.6297   24.3577   44.9043 H   0  0  0  0  0  0  0  0  0  0  0  0
   56.1208   24.6597   43.9776 H   0  0  0  0  0  0  0  0  0  0  0  0
   57.4352   25.8841   43.9776 H   0  0  0  0  0  0  0  0  0  0  0  0
  1  2  1  0
  2  3  1  0
  3  4  2  0
  4  5  1  0
  5  6  1  0
  6  7  1  0
  7  8  2  0
  8  9  1  0
  9 10  2  0
 10 11  1  0
 11 12  2  0
  5 13  2  0
 13 14  1  0
 14 15  2  0
 15 16  1  0
 16 17  1  0
 17 18  1  0
 17 19  2  0
 17 20  2  0
 15  3  1  0
 12  7  1  0
  1 21  1  0
  1 22  1  0
  1 23  1  0
  4 24  1  0
  9 25  1  0
 10 26  1  0
 11 27  1  0
 13 28  1  0
 14 29  1  0
 18 30  1  0
 18 31  1  0
 18 32  1  0
M  CHG  1  16  -1
M  END
>  <UniqueID>  (36) 
29

>  <SMILES>  (36) 
COc1cc(Sc2ncccn2)ccc1[N-]S(C)(=O)=O

>  <Energy>  (36) 
27.708689993864787

>  <Genealogy>  (36) 
COc1cc(Sc2ncccn2)ccc1[N-]S(C)(=O)=O (protonated)
COc1cc(Sc2ncccn2)ccc1[N-]S(C)(=O)=O (3D coordinates assigned)
COc1cc(Sc2ncccn2)ccc1[N-]S(C)(=O)=O (optimized conformer: 27.708689993864787 kcal/mol)

>  <smiles>  (36) 
COc1cc(Sc2ncccn2)ccc1NS(C)(=O)=O

>  <score_type>  (36) 
oracle

>  <origin>  (36) 
adg

>  <m_score__min__energy>  (36) 
-9.1799999999999997

>  <m_primary>  (36) 
energy

$$$$
36:0
     RDKit          3D

 40 42  0  0  0  0  0  0  0  0999 V2000
   64.9820   32.6570   49.8190 C   0  0  0  0  0  0  0  0  0  0  0  0
   64.2390   32.2740   48.6660 O   0  0  0  0  0  0  0  0  0  0  0  0
   63.1050   32.9510   48.1950 C   0  0  0  0  0  0  0  0  0  0  0  0
   62.1740   33.4210   49.1300 C   0  0  0  0  0  0  0  0  0  0  0  0
   61.0230   34.0940   48.7090 C   0  0  0  0  0  0  0  0  0  0  0  0
   60.7920   34.3010   47.3450 C   0  0  0  0  0  0  0  0  0  0  0  0
   59.2950   35.1270   46.8020 S   0  0  0  0  0  0  0  0  0  0  0  0
   58.6760   33.6480   46.0020 C   0  0  0  0  0  0  0  0  0  0  0  0
   58.2000   33.7090   44.6870 C   0  0  0  0  0  0  0  0  0  0  0  0
   57.6610   32.5690   44.0830 C   0  0  0  0  0  0  0  0  0  0  0  0
   57.5960   31.3610   44.7920 C   0  0  0  0  0  0  0  0  0  0  0  0
   56.8430   29.9410   44.0730 S   0  0  0  0  0  0  0  0  0  0  0  0
   56.4660   30.2590   42.6530 O   0  0  0  0  0  0  0  0  0  0  0  0
   55.6060   29.5490   44.8310 O   0  0  0  0  0  0  0  0  0  0  0  0
   57.9620   28.6130   44.0810 N   0  0  0  0  0  0  0  0  0  0  0  0
   57.9960   27.6390   44.9430 C   0  0  0  0  0  0  0  0  0  0  0  0
   59.2060   27.1610   45.3370 N   0  0  0  0  0  0  0  0  0  0  0  0
   59.3100   26.1560   46.2450 C   0  0  0  0  0  0  0  0  0  0  0  0
   58.1600   25.5980   46.7950 C   0  0  0  0  0  0  0  0  0  0  0  0
   56.9230   26.0890   46.3850 C   0  0  0  0  0  0  0  0  0  0  0  0
   56.8550   27.0930   45.4690 N   0  0  0  0  0  0  0  0  0  0  0  0
   58.0970   31.2970   46.1000 C   0  0  0  0  0  0  0  0  0  0  0  0
   58.6360   32.4370   46.7020 C   0  0  0  0  0  0  0  0  0  0  0  0
   61.7210   33.8440   46.4040 C   0  0  0  0  0  0  0  0  0  0  0  0
   62.8710   33.1700   46.8230 C   0  0  0  0  0  0  0  0  0  0  0  0
   64.4270   32.3709   50.7246 H   0  0  0  0  0  0  0  0  0  0  0  0
   65.9580   32.1496   49.8115 H   0  0  0  0  0  0  0  0  0  0  0  0
   65.1349   33.7463   49.8115 H   0  0  0  0  0  0  0  0  0  0  0  0
   62.3497   33.2594   50.2038 H   0  0  0  0  0  0  0  0  0  0  0  0
   60.2986   34.4610   49.4510 H   0  0  0  0  0  0  0  0  0  0  0  0
   58.2501   34.6551   44.1281 H   0  0  0  0  0  0  0  0  0  0  0  0
   57.2872   32.6199   43.0497 H   0  0  0  0  0  0  0  0  0  0  0  0
   60.3009   25.7842   46.5448 H   0  0  0  0  0  0  0  0  0  0  0  0
   58.2265   24.7880   47.5363 H   0  0  0  0  0  0  0  0  0  0  0  0
   55.9984   25.6641   46.8027 H   0  0  0  0  0  0  0  0  0  0  0  0
   55.9060   27.4180   45.1850 H   0  0  0  0  0  0  0  0  0  0  0  0
   58.0657   30.3470   46.6536 H   0  0  0  0  0  0  0  0  0  0  0  0
   59.0295   32.3824   47.7278 H   0  0  0  0  0  0  0  0  0  0  0  0
   61.5457   34.0157   45.3317 H   0  0  0  0  0  0  0  0  0  0  0  0
   63.5963   32.8090   46.0790 H   0  0  0  0  0  0  0  0  0  0  0  0
  1  2  1  0
  2  3  1  0
  3  4  2  0
  4  5  1  0
  5  6  2  0
  6  7  1  0
  7  8  1  0
  8  9  2  0
  9 10  1  0
 10 11  2  0
 11 12  1  0
 12 13  2  0
 12 14  2  0
 12 15  1  0
 15 16  2  3
 16 17  1  0
 17 18  2  0
 18 19  1  0
 19 20  2  0
 20 21  1  0
 11 22  1  0
 22 23  2  0
  6 24  1  0
 24 25  2  0
 25  3  1  0
 23  8  1  0
 21 16  1  0
  1 26  1  0
  1 27  1  0
  1 28  1  0
  4 29  1  0
  5 30  1  0
  9 31  1  0
 10 32  1  0
 18 33  1  0
 19 34  1  0
 20 35  1  0
 21 36  1  0
 22 37  1  0
 23 38  1  0
 24 39  1  0
 25 40  1  0
M  END
>  <UniqueID>  (37) 
30

>  <SMILES>  (37) 
COc1ccc(Sc2ccc(S(=O)(=O)N=c3nccc[nH]3)cc2)cc1

>  <Energy>  (37) 
42.214005743896884

>  <Genealogy>  (37) 
COc1ccc(Sc2ccc(S(=O)(=O)N=c3nccc[nH]3)cc2)cc1 (3D coordinates assigned)
COc1ccc(Sc2ccc(S(=O)(=O)N=c3nccc[nH]3)cc2)cc1 (optimized conformer: 42.214005743896884 kcal/mol)

>  <smiles>  (37) 
COc1ccc(Sc2ccc(S(=O)(=O)N=c3nccc[nH]3)cc2)cc1

>  <score_type>  (37) 
oracle

>  <origin>  (37) 
adg

>  <m_score__min__energy>  (37) 
-8.8100000000000005

>  <m_primary>  (37) 
energy

$$$$
37:0
     RDKit          3D

 45 48  0  0  0  0  0  0  0  0999 V2000
   50.2230   31.8703   53.6939 H   0  0  0  0  0  0  0  0  0  0  0  0
   50.9160   31.8070   52.8420 C   0  0  0  0  0  0  0  0  0  0  0  0
   52.1070   31.1740   52.9050 N   0  0  0  0  0  0  0  0  0  0  0  0
   52.6100   31.3240   51.6670 C   0  0  0  0  0  0  0  0  0  0  0  0
   53.9620   30.8390   51.2460 C   0  0  0  0  0  0  0  0  0  0  0  0
   54.5973   31.7034   51.0027 H   0  0  0  0  0  0  0  0  0  0  0  0
   53.8493   30.1915   50.3639 H   0  0  0  0  0  0  0  0  0  0  0  0
   54.6160   30.0340   52.3710 C   0  0  0  0  0  0  0  0  0  0  0  0
   54.8050   29.0091   52.0189 H   0  0  0  0  0  0  0  0  0  0  0  0
   53.9379   30.0211   53.2370 H   0  0  0  0  0  0  0  0  0  0  0  0
   55.8840   30.6450   52.7750 N   0  0  0  0  0  0  0  0  0  0  0  0
   56.8210   31.0110   51.9520 C   0  0  0  0  0  0  0  0  0  0  0  0
   57.1190   32.3260   51.8160 N   0  0  0  0  0  0  0  0  0  0  0  0
   58.0880   32.7260   50.9930 N   0  0  0  0  0  0  0  0  0  0  0  0
   58.8100   31.8420   50.2550 C   0  0  0  0  0  0  0  0  0  0  0  0
   59.9270   32.3590   49.4320 C   0  0  0  0  0  0  0  0  0  0  0  0
   59.7010   33.3090   48.4220 C   0  0  0  0  0  0  0  0  0  0  0  0
   58.6828   33.6839   48.2410 H   0  0  0  0  0  0  0  0  0  0  0  0
   60.7640   33.7800   47.6460 C   0  0  0  0  0  0  0  0  0  0  0  0
   60.5815   34.5399   46.8719 H   0  0  0  0  0  0  0  0  0  0  0  0
   62.0620   33.2890   47.8490 C   0  0  0  0  0  0  0  0  0  0  0  0
   63.2070   33.8260   47.0440 C   0  0  0  0  0  0  0  0  0  0  0  0
   63.9912   34.1938   47.7220 H   0  0  0  0  0  0  0  0  0  0  0  0
   63.6163   33.0260   46.4097 H   0  0  0  0  0  0  0  0  0  0  0  0
   62.8536   34.6523   46.4097 H   0  0  0  0  0  0  0  0  0  0  0  0
   62.2880   32.3370   48.8540 C   0  0  0  0  0  0  0  0  0  0  0  0
   63.3060   31.9599   49.0317 H   0  0  0  0  0  0  0  0  0  0  0  0
   61.2260   31.8650   49.6310 C   0  0  0  0  0  0  0  0  0  0  0  0
   61.4091   31.1025   50.4024 H   0  0  0  0  0  0  0  0  0  0  0  0
   58.4850   30.4690   50.3540 C   0  0  0  0  0  0  0  0  0  0  0  0
   59.1320   29.4160   49.5380 C   0  0  0  0  0  0  0  0  0  0  0  0
   58.7540   29.1990   48.2000 C   0  0  0  0  0  0  0  0  0  0  0  0
   57.9769   29.8282   47.7415 H   0  0  0  0  0  0  0  0  0  0  0  0
   59.3620   28.1870   47.4510 C   0  0  0  0  0  0  0  0  0  0  0  0
   59.0723   28.0308   46.4014 H   0  0  0  0  0  0  0  0  0  0  0  0
   60.3370   27.3740   48.0340 C   0  0  0  0  0  0  0  0  0  0  0  0
   60.8183   26.5817   47.4419 H   0  0  0  0  0  0  0  0  0  0  0  0
   60.7010   27.5670   49.3690 C   0  0  0  0  0  0  0  0  0  0  0  0
   61.4639   26.9216   49.8288 H   0  0  0  0  0  0  0  0  0  0  0  0
   60.0980   28.5780   50.1210 C   0  0  0  0  0  0  0  0  0  0  0  0
   60.3806   28.7190   51.1747 H   0  0  0  0  0  0  0  0  0  0  0  0
   57.5030   30.0970   51.2140 N   0  0  0  0  0  0  0  0  0  0  0  0
   51.7350   32.0500   50.8950 C   0  0  0  0  0  0  0  0  0  0  0  0
   51.8921   32.3347   49.8442 H   0  0  0  0  0  0  0  0  0  0  0  0
   50.6550   32.3550   51.6360 N   0  0  0  0  0  0  0  0  0  0  0  0
  1  2  1  0
  2  3  2  0
  3  4  1  0
  4  5  1  0
  5  6  1  0
  5  7  1  0
  5  8  1  0
  8  9  1  0
  8 10  1  0
  8 11  1  0
 11 12  2  0
 12 13  1  0
 13 14  2  0
 14 15  1  0
 15 16  1  0
 16 17  2  0
 17 18  1  0
 17 19  1  0
 19 20  1  0
 19 21  2  0
 21 22  1  0
 22 23  1  0
 22 24  1  0
 22 25  1  0
 21 26  1  0
 26 27  1  0
 26 28  2  0
 28 29  1  0
 15 30  2  0
 30 31  1  0
 31 32  2  0
 32 33  1  0
 32 34  1  0
 34 35  1  0
 34 36  2  0
 36 37  1  0
 36 38  1  0
 38 39  1  0
 38 40  2  0
 40 41  1  0
 30 42  1  0
  4 43  2  0
 43 44  1  0
 43 45  1  0
 45  2  1  0
 42 12  1  0
 28 16  1  0
 40 31  1  0
M  CHG  2  42  -1  45  -1
M  END
>  <UniqueID>  (38) 
31

>  <SMILES>  (38) 
Cc1ccc(-c2nn/c(=N/CCc3c[n-]cn3)[n-]c2-c2ccccc2)cc1

>  <Energy>  (38) 
85.20510651115534

>  <Genealogy>  (38) 
Cc1ccc(-c2nnc(=NCCc3c[n-]cn3)[n-]c2-c2ccccc2)cc1 (protonated)
Cc1ccc(-c2nn/c(=N/CCc3c[n-]cn3)[n-]c2-c2ccccc2)cc1 (cis-trans isomerization)
Cc1ccc(-c2nn/c(=N/CCc3c[n-]cn3)[n-]c2-c2ccccc2)cc1 (3D coordinates assigned)
Cc1ccc(-c2nn/c(=N/CCc3c[n-]cn3)[n-]c2-c2ccccc2)cc1 (optimized conformer: 85.20510651115534 kcal/mol)

>  <smiles>  (38) 
Cc1ccc(-c2nnc(=NCCc3c[nH]cn3)[nH]c2-c2ccccc2)cc1

>  <score_type>  (38) 
oracle

>  <origin>  (38) 
adg

>  <m_score__min__energy>  (38) 
-11.19

>  <m_primary>  (38) 
energy

$$$$
38:0
     RDKit          3D

 41 44  0  0  0  0  0  0  0  0999 V2000
   65.5270   33.0830   48.3400 H   0  0  0  0  0  0  0  0  0  0  0  0
   64.6960   32.8800   48.9410 N   0  0  0  0  0  0  0  0  0  0  0  0
   63.3330   33.6310   48.1880 S   0  0  0  0  0  0  0  0  0  0  0  0
   62.9360   34.8330   48.9970 O   0  0  0  0  0  0  0  0  0  0  0  0
   63.7060   34.0660   46.7990 O   0  0  0  0  0  0  0  0  0  0  0  0
   61.9930   32.4920   48.1040 C   0  0  0  0  0  0  0  0  0  0  0  0
   60.8600   32.7970   47.3390 C   0  0  0  0  0  0  0  0  0  0  0  0
   60.8118   33.7465   46.7857 H   0  0  0  0  0  0  0  0  0  0  0  0
   59.7900   31.8990   47.2760 C   0  0  0  0  0  0  0  0  0  0  0  0
   58.8982   32.1498   46.6829 H   0  0  0  0  0  0  0  0  0  0  0  0
   59.8500   30.6750   47.9690 C   0  0  0  0  0  0  0  0  0  0  0  0
   58.7580   29.7380   47.9580 N   0  0  0  0  0  0  0  0  0  0  0  0
   58.7610   28.5420   47.4440 C   0  0  0  0  0  0  0  0  0  0  0  0
   59.9410   27.8760   47.3250 N   0  0  0  0  0  0  0  0  0  0  0  0
   60.0030   26.6350   46.7760 C   0  0  0  0  0  0  0  0  0  0  0  0
   60.9712   26.1206   46.6873 H   0  0  0  0  0  0  0  0  0  0  0  0
   58.8370   26.0120   46.3240 C   0  0  0  0  0  0  0  0  0  0  0  0
   57.6310   26.7300   46.4290 C   0  0  0  0  0  0  0  0  0  0  0  0
   57.6160   27.9680   46.9840 N   0  0  0  0  0  0  0  0  0  0  0  0
   56.4020   26.0910   45.9630 C   0  0  0  0  0  0  0  0  0  0  0  0
   55.1560   26.5950   46.0050 N   0  0  0  0  0  0  0  0  0  0  0  0
   54.3240   25.6330   45.6200 N   0  0  0  0  0  0  0  0  0  0  0  0
   55.0460   24.5280   45.3330 C   0  0  0  0  0  0  0  0  0  0  0  0
   54.4490   23.2340   44.9750 C   0  0  0  0  0  0  0  0  0  0  0  0
   55.1880   22.3260   44.5130 O   0  0  0  0  0  0  0  0  0  0  0  0
   53.0560   22.9690   45.1660 N   0  0  0  0  0  0  0  0  0  0  0  0
   52.4650   22.6180   46.4510 C   0  0  0  0  0  0  0  0  0  0  0  0
   53.1026   22.9967   47.2635 H   0  0  0  0  0  0  0  0  0  0  0  0
   51.4645   23.0684   46.5297 H   0  0  0  0  0  0  0  0  0  0  0  0
   52.3818   21.5240   46.5297 H   0  0  0  0  0  0  0  0  0  0  0  0
   56.3830   24.7930   45.5380 C   0  0  0  0  0  0  0  0  0  0  0  0
   57.5560   23.8720   45.7180 C   0  0  0  0  0  0  0  0  0  0  0  0
   57.4917   23.3925   46.7059 H   0  0  0  0  0  0  0  0  0  0  0  0
   57.5354   23.1099   44.9250 H   0  0  0  0  0  0  0  0  0  0  0  0
   58.8850   24.6620   45.6200 C   0  0  0  0  0  0  0  0  0  0  0  0
   59.6841   24.0588   46.0757 H   0  0  0  0  0  0  0  0  0  0  0  0
   59.0700   24.8573   44.5534 H   0  0  0  0  0  0  0  0  0  0  0  0
   60.9680   30.3940   48.7640 C   0  0  0  0  0  0  0  0  0  0  0  0
   61.0051   29.4603   49.3443 H   0  0  0  0  0  0  0  0  0  0  0  0
   62.0380   31.2930   48.8250 C   0  0  0  0  0  0  0  0  0  0  0  0
   62.9178   31.0569   49.4417 H   0  0  0  0  0  0  0  0  0  0  0  0
  1  2  1  0
  2  3  1  0
  3  4  2  0
  3  5  2  0
  3  6  1  0
  6  7  2  0
  7  8  1  0
  7  9  1  0
  9 10  1  0
  9 11  2  0
 11 12  1  0
 12 13  2  0
 13 14  1  0
 14 15  2  0
 15 16  1  0
 15 17  1  0
 17 18  2  0
 18 19  1  0
 18 20  1  0
 20 21  1  0
 21 22  1  0
 22 23  2  0
 23 24  1  0
 24 25  2  0
 24 26  1  0
 26 27  1  0
 27 28  1  0
 27 29  1  0
 27 30  1  0
 23 31  1  0
 31 32  1  0
 32 33  1  0
 32 34  1  0
 32 35  1  0
 35 36  1  0
 35 37  1  0
 11 38  1  0
 38 39  1  0
 38 40  2  0
 40 41  1  0
 40  6  1  0
 19 13  1  0
 31 20  2  0
 35 17  1  0
M  CHG  4   2  -1  19  -1  21  -1  26  -1
M  END
>  <UniqueID>  (39) 
32

>  <SMILES>  (39) 
C[N-]C(=O)c1n[n-]c2c1CCc1cn/c(=N/c3ccc(S([NH-])(=O)=O)cc3)[n-]c1-2

>  <Energy>  (39) 
91.39720207091868

>  <Genealogy>  (39) 
C[N-]C(=O)c1n[n-]c2c1CCc1cnc(=Nc3ccc(S([NH-])(=O)=O)cc3)[n-]c1-2 (protonated)
C[N-]C(=O)c1n[n-]c2c1CCc1cn/c(=N/c3ccc(S([NH-])(=O)=O)cc3)[n-]c1-2 (cis-trans isomerization)
C[N-]C(=O)c1n[n-]c2c1CCc1cn/c(=N/c3ccc(S([NH-])(=O)=O)cc3)[n-]c1-2 (3D coordinates assigned)
C[N-]C(=O)c1n[n-]c2c1CCc1cn/c(=N/c3ccc(S([NH-])(=O)=O)cc3)[n-]c1-2 (nonaromatic ring conformer: 91.39720207091868 kcal/mol)

>  <smiles>  (39) 
CNC(=O)c1n[nH]c2c1CCc1cnc(=Nc3ccc(S(N)(=O)=O)cc3)[nH]c1-2

>  <score_type>  (39) 
oracle

>  <origin>  (39) 
adg

>  <m_score__min__energy>  (39) 
-14.300000000000001

>  <m_primary>  (39) 
energy

$$$$
39:0
     RDKit          3D

 57 61  0  0  0  0  0  0  0  0999 V2000
   61.9430   33.5260   46.3660 C   0  0  0  0  0  0  0  0  0  0  0  0
   62.6730   32.9720   47.5460 C   0  0  0  0  0  0  0  0  0  0  0  0
   63.9130   33.5020   47.9230 C   0  0  0  0  0  0  0  0  0  0  0  0
   64.5600   33.0010   49.0550 C   0  0  0  0  0  0  0  0  0  0  0  0
   63.9700   31.9710   49.7990 C   0  0  0  0  0  0  0  0  0  0  0  0
   64.5930   31.4600   50.9460 C   0  0  0  0  0  0  0  0  0  0  0  0
   63.9730   30.4510   51.6850 C   0  0  0  0  0  0  0  0  0  0  0  0
   62.7410   29.9350   51.2790 C   0  0  0  0  0  0  0  0  0  0  0  0
   62.1100   30.4150   50.1200 C   0  0  0  0  0  0  0  0  0  0  0  0
   60.7650   29.8590   49.7290 C   0  0  0  0  0  0  0  0  0  0  0  0
   60.8220   28.3980   49.7360 N   0  0  0  0  0  0  0  0  0  0  0  0
   60.6030   27.5810   48.5810 C   0  0  0  0  0  0  0  0  0  0  0  0
   61.0520   26.4040   48.5790 O   0  0  0  0  0  0  0  0  0  0  0  0
   59.9210   28.1000   47.3760 C   0  0  0  0  0  0  0  0  0  0  0  0
   58.5300   27.9610   47.2320 C   0  0  0  0  0  0  0  0  0  0  0  0
   57.8860   28.4110   46.0720 C   0  0  0  0  0  0  0  0  0  0  0  0
   58.6230   29.0010   45.0300 C   0  0  0  0  0  0  0  0  0  0  0  0
   57.9940   29.4830   43.8270 N   0  0  0  0  0  0  0  0  0  0  0  0
   57.0250   30.9210   43.7420 S   0  0  0  0  0  0  0  0  0  0  0  0
   55.6220   30.5930   44.1700 O   0  0  0  0  0  0  0  0  0  0  0  0
   56.9760   31.4210   42.3250 O   0  0  0  0  0  0  0  0  0  0  0  0
   57.6780   32.1490   44.8240 C   0  0  0  0  0  0  0  0  0  0  0  0
   57.7030   33.5030   44.4450 C   0  0  0  0  0  0  0  0  0  0  0  0
   58.2250   34.4670   45.3160 C   0  0  0  0  0  0  0  0  0  0  0  0
   58.7180   34.0850   46.5660 C   0  0  0  0  0  0  0  0  0  0  0  0
   58.6630   32.7400   46.9620 C   0  0  0  0  0  0  0  0  0  0  0  0
   58.1640   31.7700   46.0860 C   0  0  0  0  0  0  0  0  0  0  0  0
   59.1070   32.3890   48.2410 O   0  0  0  0  0  0  0  0  0  0  0  0
   59.3500   33.3850   49.2370 C   0  0  0  0  0  0  0  0  0  0  0  0
   60.0020   34.6210   48.6040 C   0  0  0  0  0  0  0  0  0  0  0  0
   59.2710   35.0270   47.4410 O   0  0  0  0  0  0  0  0  0  0  0  0
   60.0170   29.1090   45.1630 C   0  0  0  0  0  0  0  0  0  0  0  0
   60.6610   28.6600   46.3230 C   0  0  0  0  0  0  0  0  0  0  0  0
   62.7200   31.4540   49.3850 C   0  0  0  0  0  0  0  0  0  0  0  0
   62.1110   31.9760   48.2840 N   0  0  0  0  0  0  0  0  0  0  0  0
   61.1114   34.1571   46.7125 H   0  0  0  0  0  0  0  0  0  0  0  0
   62.6330   34.1298   45.7583 H   0  0  0  0  0  0  0  0  0  0  0  0
   61.5471   32.6989   45.7583 H   0  0  0  0  0  0  0  0  0  0  0  0
   64.3742   34.3070   47.3320 H   0  0  0  0  0  0  0  0  0  0  0  0
   65.5319   33.4148   49.3620 H   0  0  0  0  0  0  0  0  0  0  0  0
   65.5698   31.8538   51.2635 H   0  0  0  0  0  0  0  0  0  0  0  0
   64.4577   30.0605   52.5919 H   0  0  0  0  0  0  0  0  0  0  0  0
   62.2596   29.1443   51.8731 H   0  0  0  0  0  0  0  0  0  0  0  0
   60.0044   30.1999   50.4468 H   0  0  0  0  0  0  0  0  0  0  0  0
   60.5011   30.2113   48.7209 H   0  0  0  0  0  0  0  0  0  0  0  0
   57.9421   27.4951   48.0366 H   0  0  0  0  0  0  0  0  0  0  0  0
   56.7957   28.3019   45.9757 H   0  0  0  0  0  0  0  0  0  0  0  0
   58.1870   28.9910   42.9240 H   0  0  0  0  0  0  0  0  0  0  0  0
   57.3117   33.8053   43.4624 H   0  0  0  0  0  0  0  0  0  0  0  0
   58.2469   35.5251   45.0160 H   0  0  0  0  0  0  0  0  0  0  0  0
   58.1523   30.7116   46.3854 H   0  0  0  0  0  0  0  0  0  0  0  0
   58.3957   33.6752   49.7008 H   0  0  0  0  0  0  0  0  0  0  0  0
   60.0282   32.9724   49.9985 H   0  0  0  0  0  0  0  0  0  0  0  0
   60.0072   35.4431   49.3348 H   0  0  0  0  0  0  0  0  0  0  0  0
   61.0324   34.3717   48.3105 H   0  0  0  0  0  0  0  0  0  0  0  0
   60.6091   29.5507   44.3479 H   0  0  0  0  0  0  0  0  0  0  0  0
   61.7542   28.7469   46.4093 H   0  0  0  0  0  0  0  0  0  0  0  0
  1  2  1  0
  2  3  2  0
  3  4  1  0
  4  5  2  0
  5  6  1  0
  6  7  2  0
  7  8  1  0
  8  9  2  0
  9 10  1  0
 10 11  1  0
 11 12  1  0
 12 13  2  0
 12 14  1  0
 14 15  2  0
 15 16  1  0
 16 17  2  0
 17 18  1  0
 18 19  1  0
 19 20  2  0
 19 21  2  0
 19 22  1  0
 22 23  2  0
 23 24  1  0
 24 25  2  0
 25 26  1  0
 26 27  2  0
 26 28  1  0
 28 29  1  0
 29 30  1  0
 30 31  1  0
 17 32  1  0
 32 33  2  0
  9 34  1  0
 34 35  2  0
 35  2  1  0
 34  5  1  0
 33 14  1  0
 27 22  1  0
 31 25  1  0
  1 36  1  0
  1 37  1  0
  1 38  1  0
  3 39  1  0
  4 40  1  0
  6 41  1  0
  7 42  1  0
  8 43  1  0
 10 44  1  0
 10 45  1  0
 15 46  1  0
 16 47  1  0
 18 48  1  0
 23 49  1  0
 24 50  1  0
 27 51  1  0
 29 52  1  0
 29 53  1  0
 30 54  1  0
 30 55  1  0
 32 56  1  0
 33 57  1  0
M  CHG  1  11  -1
M  END
>  <UniqueID>  (40) 
33

>  <SMILES>  (40) 
Cc1ccc2cccc(C[N-]C(=O)c3ccc(NS(=O)(=O)c4ccc5c(c4)OCCO5)cc3)c2n1

>  <Energy>  (40) 
74.72964024401972

>  <Genealogy>  (40) 
Cc1ccc2cccc(C[N-]C(=O)c3ccc(NS(=O)(=O)c4ccc5c(c4)OCCO5)cc3)c2n1 (protonated)
Cc1ccc2cccc(C[N-]C(=O)c3ccc(NS(=O)(=O)c4ccc5c(c4)OCCO5)cc3)c2n1 (3D coordinates assigned)
Cc1ccc2cccc(C[N-]C(=O)c3ccc(NS(=O)(=O)c4ccc5c(c4)OCCO5)cc3)c2n1 (nonaromatic ring conformer: 74.72964024401972 kcal/mol)

>  <smiles>  (40) 
Cc1ccc2cccc(CNC(=O)c3ccc(NS(=O)(=O)c4ccc5c(c4)OCCO5)cc3)c2n1

>  <score_type>  (40) 
oracle

>  <origin>  (40) 
adg

>  <m_score__min__energy>  (40) 
-11.1

>  <m_primary>  (40) 
energy

$$$$
40:0
     RDKit          3D

 37 40  0  0  0  0  0  0  0  0999 V2000
   62.9030   33.7080   46.7480 C   0  0  0  0  0  0  0  0  0  0  0  0
   61.6650   33.7220   47.6180 C   0  0  0  0  0  0  0  0  0  0  0  0
   60.7050   34.6070   47.1740 O   0  0  0  0  0  0  0  0  0  0  0  0
   59.4040   34.2320   47.5350 C   0  0  0  0  0  0  0  0  0  0  0  0
   58.9330   33.0480   46.7700 C   0  0  0  0  0  0  0  0  0  0  0  0
   58.8990   31.7140   47.1930 C   0  0  0  0  0  0  0  0  0  0  0  0
   58.3960   31.0320   46.1510 N   0  0  0  0  0  0  0  0  0  0  0  0
   58.1250   31.8620   45.1280 C   0  0  0  0  0  0  0  0  0  0  0  0
   58.4520   33.1150   45.4960 N   0  0  0  0  0  0  0  0  0  0  0  0
   57.5650   31.5330   43.8130 C   0  0  0  0  0  0  0  0  0  0  0  0
   57.7440   32.2380   42.7050 N   0  0  0  0  0  0  0  0  0  0  0  0
   57.0670   31.5930   41.7410 C   0  0  0  0  0  0  0  0  0  0  0  0
   56.4700   30.4950   42.2550 N   0  0  0  0  0  0  0  0  0  0  0  0
   56.7640   30.4170   43.5820 C   0  0  0  0  0  0  0  0  0  0  0  0
   56.2830   29.3440   44.4790 C   0  0  0  0  0  0  0  0  0  0  0  0
   57.2890   28.8990   45.4740 C   0  0  0  0  0  0  0  0  0  0  0  0
   57.2610   27.5180   45.6670 C   0  0  0  0  0  0  0  0  0  0  0  0
   58.1290   26.9010   46.5590 C   0  0  0  0  0  0  0  0  0  0  0  0
   59.0450   27.6750   47.2740 C   0  0  0  0  0  0  0  0  0  0  0  0
   59.0920   29.0620   47.0970 C   0  0  0  0  0  0  0  0  0  0  0  0
   58.2090   29.6240   46.2010 C   0  0  0  0  0  0  0  0  0  0  0  0
   63.7992   33.6979   47.3857 H   0  0  0  0  0  0  0  0  0  0  0  0
   62.8947   32.8099   46.1129 H   0  0  0  0  0  0  0  0  0  0  0  0
   62.9150   34.6061   46.1129 H   0  0  0  0  0  0  0  0  0  0  0  0
   61.2320   32.7109   47.6280 H   0  0  0  0  0  0  0  0  0  0  0  0
   61.9725   34.0466   48.6230 H   0  0  0  0  0  0  0  0  0  0  0  0
   59.3889   33.9904   48.6080 H   0  0  0  0  0  0  0  0  0  0  0  0
   58.7325   35.0729   47.3068 H   0  0  0  0  0  0  0  0  0  0  0  0
   59.2154   31.3119   48.1668 H   0  0  0  0  0  0  0  0  0  0  0  0
   57.0073   31.9111   40.6897 H   0  0  0  0  0  0  0  0  0  0  0  0
   55.8890   29.8410   41.6900 H   0  0  0  0  0  0  0  0  0  0  0  0
   55.4001   29.7146   45.0205 H   0  0  0  0  0  0  0  0  0  0  0  0
   56.0541   28.4750   43.8446 H   0  0  0  0  0  0  0  0  0  0  0  0
   56.5399   26.9075   45.1038 H   0  0  0  0  0  0  0  0  0  0  0  0
   58.0949   25.8107   46.7009 H   0  0  0  0  0  0  0  0  0  0  0  0
   59.7345   27.1909   47.9813 H   0  0  0  0  0  0  0  0  0  0  0  0
   59.8093   29.6826   47.6541 H   0  0  0  0  0  0  0  0  0  0  0  0
  1  2  1  0
  2  3  1  0
  3  4  1  0
  4  5  1  0
  5  6  2  0
  6  7  1  0
  7  8  1  0
  8  9  2  0
  8 10  1  0
 10 11  1  0
 11 12  2  0
 12 13  1  0
 13 14  1  0
 14 15  1  0
 15 16  1  0
 16 17  2  0
 17 18  1  0
 18 19  2  0
 19 20  1  0
 20 21  2  0
  9  5  1  0
 14 10  2  0
 21 16  1  0
 21  7  1  0
  1 22  1  0
  1 23  1  0
  1 24  1  0
  2 25  1  0
  2 26  1  0
  4 27  1  0
  4 28  1  0
  6 29  1  0
 12 30  1  0
 13 31  1  0
 15 32  1  0
 15 33  1  0
 17 34  1  0
 18 35  1  0
 19 36  1  0
 20 37  1  0
M  END
>  <smiles>  (41) 
CCOCc1cn2c(n1)-c1nc[nH]c1Cc1ccccc1-2

>  <score_type>  (41) 
oracle

>  <origin>  (41) 
adg

>  <m_score__min__energy>  (41) 
-6.6900000000000004

>  <m_primary>  (41) 
energy

$$$$
41:0
     RDKit          3D

 49 51  0  0  0  0  0  0  0  0999 V2000
   54.5060   29.4810   55.0480 C   0  0  0  0  0  0  0  0  0  0  0  0
   53.9920   30.1450   53.7990 C   0  0  0  0  0  0  0  0  0  0  0  0
   52.7230   30.7460   53.8200 C   0  0  0  0  0  0  0  0  0  0  0  0
   52.1870   31.3440   52.6650 C   0  0  0  0  0  0  0  0  0  0  0  0
   50.8440   31.9660   52.6890 C   0  0  0  0  0  0  0  0  0  0  0  0
   49.9000   31.4280   53.3260 O   0  0  0  0  0  0  0  0  0  0  0  0
   50.6060   33.1550   52.0090 O   0  0  0  0  0  0  0  0  0  0  0  0
   52.9420   31.3360   51.4820 C   0  0  0  0  0  0  0  0  0  0  0  0
   54.2130   30.7600   51.4570 C   0  0  0  0  0  0  0  0  0  0  0  0
   54.7580   30.1870   52.6120 C   0  0  0  0  0  0  0  0  0  0  0  0
   56.0740   29.6200   52.5460 N   0  0  0  0  0  0  0  0  0  0  0  0
   57.2590   30.4280   52.5270 C   0  0  0  0  0  0  0  0  0  0  0  0
   57.1730   31.6870   52.5390 O   0  0  0  0  0  0  0  0  0  0  0  0
   58.6050   29.7830   52.4080 C   0  0  0  0  0  0  0  0  0  0  0  0
   59.0420   29.7690   50.9690 C   0  0  0  0  0  0  0  0  0  0  0  0
   58.1450   30.1270   49.9510 C   0  0  0  0  0  0  0  0  0  0  0  0
   58.5400   30.0720   48.6100 C   0  0  0  0  0  0  0  0  0  0  0  0
   59.8310   29.6300   48.2670 C   0  0  0  0  0  0  0  0  0  0  0  0
   60.2820   29.5580   46.9070 N   0  0  0  0  0  0  0  0  0  0  0  0
   59.5640   29.9720   45.7360 C   0  0  0  0  0  0  0  0  0  0  0  0
   59.6060   29.2810   44.6820 O   0  0  0  0  0  0  0  0  0  0  0  0
   58.8590   31.2730   45.7320 C   0  0  0  0  0  0  0  0  0  0  0  0
   59.4810   32.3650   46.3660 C   0  0  0  0  0  0  0  0  0  0  0  0
   58.9160   33.6390   46.3080 C   0  0  0  0  0  0  0  0  0  0  0  0
   57.7250   33.8440   45.6160 C   0  0  0  0  0  0  0  0  0  0  0  0
   57.0790   32.7720   44.9980 C   0  0  0  0  0  0  0  0  0  0  0  0
   57.6200   31.4740   45.0620 C   0  0  0  0  0  0  0  0  0  0  0  0
   56.8310   30.3620   44.4810 C   0  0  0  0  0  0  0  0  0  0  0  0
   55.9920   29.7330   45.1770 O   0  0  0  0  0  0  0  0  0  0  0  0
   56.9610   30.0450   43.1340 O   0  0  0  0  0  0  0  0  0  0  0  0
   60.7300   29.2950   49.2870 C   0  0  0  0  0  0  0  0  0  0  0  0
   60.3390   29.3550   50.6280 C   0  0  0  0  0  0  0  0  0  0  0  0
   54.1044   29.9998   55.9309 H   0  0  0  0  0  0  0  0  0  0  0  0
   54.1844   28.4292   55.0630 H   0  0  0  0  0  0  0  0  0  0  0  0
   55.6049   29.5287   55.0630 H   0  0  0  0  0  0  0  0  0  0  0  0
   52.1399   30.7492   54.7527 H   0  0  0  0  0  0  0  0  0  0  0  0
   52.5290   31.7871   50.5677 H   0  0  0  0  0  0  0  0  0  0  0  0
   54.7916   30.7563   50.5214 H   0  0  0  0  0  0  0  0  0  0  0  0
   56.1590   28.6080   52.3020 H   0  0  0  0  0  0  0  0  0  0  0  0
   59.3347   30.3496   53.0050 H   0  0  0  0  0  0  0  0  0  0  0  0
   58.5442   28.7487   52.7775 H   0  0  0  0  0  0  0  0  0  0  0  0
   57.1263   30.4525   50.2086 H   0  0  0  0  0  0  0  0  0  0  0  0
   57.8377   30.3759   47.8198 H   0  0  0  0  0  0  0  0  0  0  0  0
   60.4229   32.2120   46.9132 H   0  0  0  0  0  0  0  0  0  0  0  0
   59.4119   34.4830   46.8096 H   0  0  0  0  0  0  0  0  0  0  0  0
   57.2921   34.8535   45.5563 H   0  0  0  0  0  0  0  0  0  0  0  0
   56.1376   32.9433   44.4554 H   0  0  0  0  0  0  0  0  0  0  0  0
   61.7529   28.9819   49.0309 H   0  0  0  0  0  0  0  0  0  0  0  0
   61.0508   29.0766   51.4191 H   0  0  0  0  0  0  0  0  0  0  0  0
  1  2  1  0
  2  3  2  0
  3  4  1  0
  4  5  1  0
  5  6  2  0
  5  7  1  0
  4  8  2  0
  8  9  1  0
  9 10  2  0
 10 11  1  0
 11 12  1  0
 12 13  2  0
 12 14  1  0
 14 15  1  0
 15 16  2  0
 16 17  1  0
 17 18  2  0
 18 19  1  0
 19 20  1  0
 20 21  2  0
 20 22  1  0
 22 23  2  0
 23 24  1  0
 24 25  2  0
 25 26  1  0
 26 27  2  0
 27 28  1  0
 28 29  2  0
 28 30  1  0
 18 31  1  0
 31 32  2  0
 10  2  1  0
 32 15  1  0
 27 22  1  0
  1 33  1  0
  1 34  1  0
  1 35  1  0
  3 36  1  0
  8 37  1  0
  9 38  1  0
 11 39  1  0
 14 40  1  0
 14 41  1  0
 16 42  1  0
 17 43  1  0
 23 44  1  0
 24 45  1  0
 25 46  1  0
 26 47  1  0
 31 48  1  0
 32 49  1  0
M  CHG  3   7  -1  19  -1  30  -1
M  END
>  <UniqueID>  (42) 
34

>  <SMILES>  (42) 
Cc1cc(C(=O)[O-])ccc1NC(=O)Cc1ccc([N-]C(=O)c2ccccc2C(=O)[O-])cc1

>  <Energy>  (42) 
68.50056062362617

>  <Genealogy>  (42) 
Cc1cc(C(=O)[O-])ccc1NC(=O)Cc1ccc([N-]C(=O)c2ccccc2C(=O)[O-])cc1 (protonated)
Cc1cc(C(=O)[O-])ccc1NC(=O)Cc1ccc([N-]C(=O)c2ccccc2C(=O)[O-])cc1 (3D coordinates assigned)
Cc1cc(C(=O)[O-])ccc1NC(=O)Cc1ccc([N-]C(=O)c2ccccc2C(=O)[O-])cc1 (optimized conformer: 68.50056062362617 kcal/mol)

>  <smiles>  (42) 
Cc1cc(C(=O)O)ccc1NC(=O)Cc1ccc(NC(=O)c2ccccc2C(=O)O)cc1

>  <score_type>  (42) 
oracle

>  <origin>  (42) 
adg

>  <m_score__min__energy>  (42) 
-13.84

>  <m_primary>  (42) 
energy

$$$$
42:0
     RDKit          3D

 32 33  0  0  0  0  0  0  0  0999 V2000
   57.7840   32.9370   47.3920 C   0  0  0  0  0  0  0  0  0  0  0  0
   57.8810   32.7330   45.9200 C   0  0  0  0  0  0  0  0  0  0  0  0
   57.3000   31.7010   45.2700 N   0  0  0  0  0  0  0  0  0  0  0  0
   57.4650   31.7930   43.9230 C   0  0  0  0  0  0  0  0  0  0  0  0
   56.8170   30.8220   42.9900 C   0  0  0  0  0  0  0  0  0  0  0  0
   57.0160   29.4670   43.4920 N   0  0  0  0  0  0  0  0  0  0  0  0
   56.3090   28.9720   44.6390 C   0  0  0  0  0  0  0  0  0  0  0  0
   55.1470   29.3900   44.8890 O   0  0  0  0  0  0  0  0  0  0  0  0
   56.9020   28.0060   45.5170 N   0  0  0  0  0  0  0  0  0  0  0  0
   57.6290   26.8200   45.0760 C   0  0  0  0  0  0  0  0  0  0  0  0
   59.0350   26.8010   45.6820 C   0  0  0  0  0  0  0  0  0  0  0  0
   59.4220   28.1610   46.1670 C   0  0  0  0  0  0  0  0  0  0  0  0
   59.1930   28.6690   47.4390 C   0  0  0  0  0  0  0  0  0  0  0  0
   59.7200   29.9540   47.6200 C   0  0  0  0  0  0  0  0  0  0  0  0
   60.3740   30.4520   46.4990 C   0  0  0  0  0  0  0  0  0  0  0  0
   60.2980   29.2910   45.2830 S   0  0  0  0  0  0  0  0  0  0  0  0
   58.1500   32.9260   43.4870 C   0  0  0  0  0  0  0  0  0  0  0  0
   58.5740   33.8230   44.8440 S   0  0  0  0  0  0  0  0  0  0  0  0
   58.2003   32.0615   47.9117 H   0  0  0  0  0  0  0  0  0  0  0  0
   58.3511   33.8358   47.6758 H   0  0  0  0  0  0  0  0  0  0  0  0
   56.7289   33.0644   47.6758 H   0  0  0  0  0  0  0  0  0  0  0  0
   55.7399   31.0361   42.9263 H   0  0  0  0  0  0  0  0  0  0  0  0
   57.2662   30.9149   41.9902 H   0  0  0  0  0  0  0  0  0  0  0  0
   57.8410   28.9410   43.1280 H   0  0  0  0  0  0  0  0  0  0  0  0
   57.0836   25.9202   45.3969 H   0  0  0  0  0  0  0  0  0  0  0  0
   57.7129   26.8396   43.9794 H   0  0  0  0  0  0  0  0  0  0  0  0
   59.0539   26.0976   46.5275 H   0  0  0  0  0  0  0  0  0  0  0  0
   59.7491   26.4866   44.9066 H   0  0  0  0  0  0  0  0  0  0  0  0
   58.6532   28.1187   48.2238 H   0  0  0  0  0  0  0  0  0  0  0  0
   59.6253   30.5162   48.5607 H   0  0  0  0  0  0  0  0  0  0  0  0
   60.8583   31.4365   46.4202 H   0  0  0  0  0  0  0  0  0  0  0  0
   58.3732   33.1865   42.4419 H   0  0  0  0  0  0  0  0  0  0  0  0
  1  2  1  0
  2  3  2  0
  3  4  1  0
  4  5  1  0
  5  6  1  0
  6  7  1  0
  7  8  2  0
  7  9  1  0
  9 10  1  0
 10 11  1  0
 11 12  1  0
 12 13  2  0
 13 14  1  0
 14 15  2  0
 15 16  1  0
  4 17  2  0
 17 18  1  0
 18  2  1  0
 16 12  1  0
  1 19  1  0
  1 20  1  0
  1 21  1  0
  5 22  1  0
  5 23  1  0
  6 24  1  0
 10 25  1  0
 10 26  1  0
 11 27  1  0
 11 28  1  0
 13 29  1  0
 14 30  1  0
 15 31  1  0
 17 32  1  0
M  CHG  1   9  -1
M  END
>  <UniqueID>  (43) 
35

>  <SMILES>  (43) 
Cc1nc(CNC(=O)[N-]CCc2cccs2)cs1

>  <Energy>  (43) 
76.68440663605901

>  <Genealogy>  (43) 
Cc1nc(CNC(=O)[N-]CCc2cccs2)cs1 (protonated)
Cc1nc(CNC(=O)[N-]CCc2cccs2)cs1 (3D coordinates assigned)
Cc1nc(CNC(=O)[N-]CCc2cccs2)cs1 (optimized conformer: 76.68440663605901 kcal/mol)

>  <smiles>  (43) 
Cc1nc(CNC(=O)NCCc2cccs2)cs1

>  <score_type>  (43) 
oracle

>  <origin>  (43) 
adg

>  <m_score__min__energy>  (43) 
-8.9100000000000001

>  <m_primary>  (43) 
energy

$$$$
43:0
     RDKit          3D

 39 41  0  0  0  0  0  0  0  0999 V2000
   57.7760   24.8840   47.0170 C   0  0  0  0  0  0  0  0  0  0  0  0
   57.9410   26.2080   46.3330 C   0  0  0  0  0  0  0  0  0  0  0  0
   59.2240   26.7190   46.0850 C   0  0  0  0  0  0  0  0  0  0  0  0
   59.3830   27.9790   45.4900 C   0  0  0  0  0  0  0  0  0  0  0  0
   60.7570   28.5400   45.2670 C   0  0  0  0  0  0  0  0  0  0  0  0
   58.2490   28.7420   45.1710 C   0  0  0  0  0  0  0  0  0  0  0  0
   56.9650   28.2390   45.4040 C   0  0  0  0  0  0  0  0  0  0  0  0
   55.8320   29.0610   45.0910 N   0  0  0  0  0  0  0  0  0  0  0  0
   55.5700   29.7120   43.8410 C   0  0  0  0  0  0  0  0  0  0  0  0
   54.4020   29.6830   43.3740 O   0  0  0  0  0  0  0  0  0  0  0  0
   56.6410   30.4630   43.0950 C   0  0  0  0  0  0  0  0  0  0  0  0
   57.1850   31.5280   43.9310 N   0  0  0  0  0  0  0  0  0  0  0  0
   57.9920   32.5280   43.5090 C   0  0  0  0  0  0  0  0  0  0  0  0
   58.3350   33.2680   44.6150 C   0  0  0  0  0  0  0  0  0  0  0  0
   57.6900   32.6800   45.6610 C   0  0  0  0  0  0  0  0  0  0  0  0
   57.0090   31.5970   45.2460 N   0  0  0  0  0  0  0  0  0  0  0  0
   57.8840   33.1570   47.0660 C   0  0  0  0  0  0  0  0  0  0  0  0
   58.3150   34.5150   47.0720 O   0  0  0  0  0  0  0  0  0  0  0  0
   59.4830   34.6860   46.2710 C   0  0  0  0  0  0  0  0  0  0  0  0
   59.1740   34.4910   44.7690 C   0  0  0  0  0  0  0  0  0  0  0  0
   56.8150   26.9800   46.0120 C   0  0  0  0  0  0  0  0  0  0  0  0
   57.7942   25.0297   48.1072 H   0  0  0  0  0  0  0  0  0  0  0  0
   56.8151   24.4365   46.7228 H   0  0  0  0  0  0  0  0  0  0  0  0
   58.5976   24.2144   46.7228 H   0  0  0  0  0  0  0  0  0  0  0  0
   60.1103   26.1279   46.3589 H   0  0  0  0  0  0  0  0  0  0  0  0
   61.2354   28.7353   46.2381 H   0  0  0  0  0  0  0  0  0  0  0  0
   61.3609   27.8164   44.6997 H   0  0  0  0  0  0  0  0  0  0  0  0
   60.6819   29.4794   44.6997 H   0  0  0  0  0  0  0  0  0  0  0  0
   58.3712   29.7441   44.7340 H   0  0  0  0  0  0  0  0  0  0  0  0
   57.4483   29.7680   42.8209 H   0  0  0  0  0  0  0  0  0  0  0  0
   56.2033   30.9064   42.1885 H   0  0  0  0  0  0  0  0  0  0  0  0
   58.3137   32.7142   42.4737 H   0  0  0  0  0  0  0  0  0  0  0  0
   56.9322   33.0759   47.6114 H   0  0  0  0  0  0  0  0  0  0  0  0
   58.6509   32.5360   47.5521 H   0  0  0  0  0  0  0  0  0  0  0  0
   59.8770   35.7013   46.4259 H   0  0  0  0  0  0  0  0  0  0  0  0
   60.2218   33.9288   46.5723 H   0  0  0  0  0  0  0  0  0  0  0  0
   58.6288   35.3660   44.3854 H   0  0  0  0  0  0  0  0  0  0  0  0
   60.1102   34.3804   44.2022 H   0  0  0  0  0  0  0  0  0  0  0  0
   55.8083   26.5982   46.2373 H   0  0  0  0  0  0  0  0  0  0  0  0
  1  2  1  0
  2  3  2  0
  3  4  1  0
  4  5  1  0
  4  6  2  0
  6  7  1  0
  7  8  1  0
  8  9  1  0
  9 10  2  0
  9 11  1  0
 11 12  1  0
 12 13  1  0
 13 14  2  0
 14 15  1  0
 15 16  2  0
 15 17  1  0
 17 18  1  0
 18 19  1  0
 19 20  1  0
  7 21  2  0
 21  2  1  0
 16 12  1  0
 20 14  1  0
  1 22  1  0
  1 23  1  0
  1 24  1  0
  3 25  1  0
  5 26  1  0
  5 27  1  0
  5 28  1  0
  6 29  1  0
 11 30  1  0
 11 31  1  0
 13 32  1  0
 17 33  1  0
 17 34  1  0
 19 35  1  0
 19 36  1  0
 20 37  1  0
 20 38  1  0
 21 39  1  0
M  CHG  1   8  -1
M  END
>  <UniqueID>  (44) 
36

>  <SMILES>  (44) 
Cc1cc(C)cc([N-]C(=O)Cn2cc3c(n2)COCC3)c1

>  <Energy>  (44) 
79.62698835846562

>  <Genealogy>  (44) 
Cc1cc(C)cc([N-]C(=O)Cn2cc3c(n2)COCC3)c1 (protonated)
Cc1cc(C)cc([N-]C(=O)Cn2cc3c(n2)COCC3)c1 (3D coordinates assigned)
Cc1cc(C)cc([N-]C(=O)Cn2cc3c(n2)COCC3)c1 (nonaromatic ring conformer: 79.62698835846562 kcal/mol)

>  <smiles>  (44) 
Cc1cc(C)cc(NC(=O)Cn2cc3c(n2)COCC3)c1

>  <score_type>  (44) 
oracle

>  <origin>  (44) 
adg

>  <m_score__min__energy>  (44) 
-9.9100000000000001

>  <m_primary>  (44) 
energy

$$$$
44:0
     RDKit          3D

 57 60  0  0  0  0  0  0  0  0999 V2000
   65.2860   32.6760   49.9580 C   0  0  0  0  0  0  0  0  0  0  0  0
   64.8510   33.1510   48.6880 O   0  0  0  0  0  0  0  0  0  0  0  0
   63.5220   33.4750   48.3770 C   0  0  0  0  0  0  0  0  0  0  0  0
   62.6710   33.8640   49.4180 C   0  0  0  0  0  0  0  0  0  0  0  0
   61.3390   34.1990   49.1600 C   0  0  0  0  0  0  0  0  0  0  0  0
   60.8380   34.1540   47.8510 C   0  0  0  0  0  0  0  0  0  0  0  0
   59.3930   34.4850   47.5770 C   0  0  0  0  0  0  0  0  0  0  0  0
   58.8750   33.6520   46.4840 N   0  0  0  0  0  0  0  0  0  0  0  0
   58.6590   34.2030   45.1750 C   0  0  0  0  0  0  0  0  0  0  0  0
   59.1730   35.3060   44.8450 O   0  0  0  0  0  0  0  0  0  0  0  0
   57.7650   33.4790   44.2170 C   0  0  0  0  0  0  0  0  0  0  0  0
   58.1150   31.9770   44.1680 C   0  0  2  0  0  0  0  0  0  0  0  0
   57.0560   31.2080   43.3350 C   0  0  0  0  0  0  0  0  0  0  0  0
   56.9870   29.6950   43.6350 C   0  0  0  0  0  0  0  0  0  0  0  0
   58.2080   29.1840   44.4030 C   0  0  0  0  0  0  0  0  0  0  0  0
   58.4350   30.0170   45.6420 C   0  0  0  0  0  0  0  0  0  0  0  0
   58.9410   29.3260   46.8470 C   0  0  0  0  0  0  0  0  0  0  0  0
   59.9740   29.7630   47.4240 O   0  0  0  0  0  0  0  0  0  0  0  0
   58.2460   28.1830   47.3620 N   0  0  0  0  0  0  0  0  0  0  0  0
   57.9660   26.9580   46.6690 C   0  0  0  0  0  0  0  0  0  0  0  0
   58.9650   26.0090   46.3930 C   0  0  0  0  0  0  0  0  0  0  0  0
   58.6430   24.8160   45.7370 C   0  0  0  0  0  0  0  0  0  0  0  0
   57.3130   24.5490   45.3600 C   0  0  0  0  0  0  0  0  0  0  0  0
   56.9400   23.3690   44.7000 O   0  0  0  0  0  0  0  0  0  0  0  0
   56.6260   23.2880   43.3130 C   0  0  0  0  0  0  0  0  0  0  0  0
   56.3190   25.4880   45.6560 C   0  0  0  0  0  0  0  0  0  0  0  0
   56.6420   26.6800   46.3130 C   0  0  0  0  0  0  0  0  0  0  0  0
   58.3110   31.3660   45.5520 C   0  0  0  0  0  0  0  0  0  0  0  0
   58.4900   32.2840   46.7130 C   0  0  0  0  0  0  0  0  0  0  0  0
   58.2630   31.8830   47.8880 O   0  0  0  0  0  0  0  0  0  0  0  0
   61.6870   33.7600   46.8050 C   0  0  0  0  0  0  0  0  0  0  0  0
   63.0190   33.4250   47.0630 C   0  0  0  0  0  0  0  0  0  0  0  0
   64.7733   33.2358   50.7541 H   0  0  0  0  0  0  0  0  0  0  0  0
   65.0480   31.6060   50.0505 H   0  0  0  0  0  0  0  0  0  0  0  0
   66.3727   32.8192   50.0505 H   0  0  0  0  0  0  0  0  0  0  0  0
   63.0541   33.9064   50.4483 H   0  0  0  0  0  0  0  0  0  0  0  0
   60.6801   34.4995   49.9880 H   0  0  0  0  0  0  0  0  0  0  0  0
   58.8005   34.3006   48.4853 H   0  0  0  0  0  0  0  0  0  0  0  0
   59.3186   35.5430   47.2852 H   0  0  0  0  0  0  0  0  0  0  0  0
   56.7202   33.5953   44.5408 H   0  0  0  0  0  0  0  0  0  0  0  0
   57.9050   33.9062   43.2131 H   0  0  0  0  0  0  0  0  0  0  0  0
   59.0893   31.8807   43.6665 H   0  0  0  0  0  0  0  0  0  0  0  0
   56.0689   31.6459   43.5443 H   0  0  0  0  0  0  0  0  0  0  0  0
   57.3529   31.3065   42.2804 H   0  0  0  0  0  0  0  0  0  0  0  0
   56.0867   29.4969   44.2351 H   0  0  0  0  0  0  0  0  0  0  0  0
   56.9597   29.1680   42.6699 H   0  0  0  0  0  0  0  0  0  0  0  0
   58.0404   28.1369   44.6955 H   0  0  0  0  0  0  0  0  0  0  0  0
   59.0942   29.2575   43.7555 H   0  0  0  0  0  0  0  0  0  0  0  0
   60.0047   26.2050   46.6941 H   0  0  0  0  0  0  0  0  0  0  0  0
   59.4326   24.0832   45.5147 H   0  0  0  0  0  0  0  0  0  0  0  0
   55.5673   23.0149   43.1921 H   0  0  0  0  0  0  0  0  0  0  0  0
   56.8098   24.2629   42.8379 H   0  0  0  0  0  0  0  0  0  0  0  0
   57.2584   22.5236   42.8379 H   0  0  0  0  0  0  0  0  0  0  0  0
   55.2759   25.2875   45.3700 H   0  0  0  0  0  0  0  0  0  0  0  0
   55.8490   27.4041   46.5515 H   0  0  0  0  0  0  0  0  0  0  0  0
   61.3015   33.7146   45.7758 H   0  0  0  0  0  0  0  0  0  0  0  0
   63.6773   33.1209   46.2358 H   0  0  0  0  0  0  0  0  0  0  0  0
  1  2  1  0
  2  3  1  0
  3  4  2  0
  4  5  1  0
  5  6  2  0
  6  7  1  0
  7  8  1  0
  8  9  1  0
  9 10  2  0
  9 11  1  0
 11 12  1  0
 12 13  1  0
 13 14  1  0
 14 15  1  0
 15 16  1  0
 16 17  1  0
 17 18  2  0
 17 19  1  0
 19 20  1  0
 20 21  2  0
 21 22  1  0
 22 23  2  0
 23 24  1  0
 24 25  1  0
 23 26  1  0
 26 27  2  0
 16 28  2  0
 28 29  1  0
 29 30  2  0
  6 31  1  0
 31 32  2  0
 32  3  1  0
 29  8  1  0
 28 12  1  0
 27 20  1  0
  1 33  1  0
  1 34  1  0
  1 35  1  0
  4 36  1  0
  5 37  1  0
  7 38  1  0
  7 39  1  0
 11 40  1  0
 11 41  1  0
 12 42  1  6
 13 43  1  0
 13 44  1  0
 14 45  1  0
 14 46  1  0
 15 47  1  0
 15 48  1  0
 21 49  1  0
 22 50  1  0
 25 51  1  0
 25 52  1  0
 25 53  1  0
 26 54  1  0
 27 55  1  0
 31 56  1  0
 32 57  1  0
M  CHG  1  19  -1
M  END
>  <UniqueID>  (45) 
37

>  <SMILES>  (45) 
COc1ccc(CN2C(=O)C[C@@H]3CCCC(C(=O)[N-]c4ccc(OC)cc4)=C3C2=O)cc1

>  <Energy>  (45) 
76.27292488962632

>  <Genealogy>  (45) 
COc1ccc(CN2C(=O)CC3CCCC(C(=O)[N-]c4ccc(OC)cc4)=C3C2=O)cc1 (protonated)
COc1ccc(CN2C(=O)C[C@@H]3CCCC(C(=O)[N-]c4ccc(OC)cc4)=C3C2=O)cc1 (chirality)
COc1ccc(CN2C(=O)C[C@@H]3CCCC(C(=O)[N-]c4ccc(OC)cc4)=C3C2=O)cc1 (3D coordinates assigned)
COc1ccc(CN2C(=O)C[C@@H]3CCCC(C(=O)[N-]c4ccc(OC)cc4)=C3C2=O)cc1 (nonaromatic ring conformer: 76.27292488962632 kcal/mol)

>  <smiles>  (45) 
COc1ccc(CN2C(=O)CC3CCCC(C(=O)Nc4ccc(OC)cc4)=C3C2=O)cc1

>  <score_type>  (45) 
oracle

>  <origin>  (45) 
adg

>  <m_score__min__energy>  (45) 
-10.16

>  <m_primary>  (45) 
energy

$$$$
45:0
     RDKit          3D

 63 66  0  0  0  0  0  0  0  0999 V2000
   56.9740   21.4440   43.0260 C   0  0  0  0  0  0  0  0  0  0  0  0
   56.9030   22.5790   43.4270 C   0  0  0  0  0  0  0  0  0  0  0  0
   56.8130   23.9600   43.9130 C   0  0  0  0  0  0  0  0  0  0  0  0
   57.1560   24.0140   45.3390 N   0  0  0  0  0  0  0  0  0  0  0  0
   56.4210   23.1810   46.2970 C   0  0  0  0  0  0  0  0  0  0  0  0
   58.3000   24.7810   45.7710 C   0  0  0  0  0  0  0  0  0  0  0  0
   59.4000   24.1970   45.9620 O   0  0  0  0  0  0  0  0  0  0  0  0
   58.2170   26.2420   46.0000 C   0  0  0  0  0  0  0  0  0  0  0  0
   58.1350   27.1310   44.9190 C   0  0  0  0  0  0  0  0  0  0  0  0
   58.0740   28.5170   45.1350 C   0  0  0  0  0  0  0  0  0  0  0  0
   57.9260   29.4170   44.0280 N   0  0  0  0  0  0  0  0  0  0  0  0
   56.9940   30.5060   43.9710 C   0  0  0  0  0  0  0  0  0  0  0  0
   55.8320   30.2830   43.5370 O   0  0  0  0  0  0  0  0  0  0  0  0
   57.3920   31.8840   44.3410 C   0  0  0  0  0  0  0  0  0  0  0  0
   58.5080   32.5000   43.7460 C   0  0  0  0  0  0  0  0  0  0  0  0
   58.8600   33.7970   44.1260 C   0  0  0  0  0  0  0  0  0  0  0  0
   58.1070   34.4670   45.0940 C   0  0  0  0  0  0  0  0  0  0  0  0
   57.0100   33.8260   45.6720 C   0  0  0  0  0  0  0  0  0  0  0  0
   56.6810   32.5630   45.2860 N   0  0  0  0  0  0  0  0  0  0  0  0
   58.1580   29.0250   46.4460 C   0  0  0  0  0  0  0  0  0  0  0  0
   58.1690   30.4440   46.6850 N   0  0  0  0  0  0  0  0  0  0  0  0
   59.3550   31.1910   47.0110 C   0  0  0  0  0  0  0  0  0  0  0  0
   59.2840   32.5040   47.5110 C   0  0  0  0  0  0  0  0  0  0  0  0
   60.4500   33.2050   47.8270 C   0  0  0  0  0  0  0  0  0  0  0  0
   61.7140   32.6210   47.6290 C   0  0  0  0  0  0  0  0  0  0  0  0
   62.9420   33.3760   47.9800 C   0  0  0  0  0  0  0  0  0  0  0  0
   64.2350   32.9430   47.5500 N   0  0  0  0  0  0  0  0  0  0  0  0
   62.8530   34.4340   48.6600 O   0  0  0  0  0  0  0  0  0  0  0  0
   61.7820   31.3130   47.1130 C   0  0  0  0  0  0  0  0  0  0  0  0
   60.6140   30.6110   46.8030 C   0  0  0  0  0  0  0  0  0  0  0  0
   58.1870   28.1300   47.5330 C   0  0  0  0  0  0  0  0  0  0  0  0
   58.1580   28.5980   48.8510 O   0  0  0  0  0  0  0  0  0  0  0  0
   59.2450   29.2370   49.4670 C   0  0  0  0  0  0  0  0  0  0  0  0
   59.0350   30.4730   50.0950 C   0  0  0  0  0  0  0  0  0  0  0  0
   60.0900   31.1310   50.7360 C   0  0  0  0  0  0  0  0  0  0  0  0
   61.3670   30.5610   50.7450 C   0  0  0  0  0  0  0  0  0  0  0  0
   61.5920   29.3370   50.1080 C   0  0  0  0  0  0  0  0  0  0  0  0
   60.5370   28.6740   49.4720 C   0  0  0  0  0  0  0  0  0  0  0  0
   58.2500   26.7520   47.3050 C   0  0  0  0  0  0  0  0  0  0  0  0
   57.0388   20.4086   42.6602 H   0  0  0  0  0  0  0  0  0  0  0  0
   57.5124   24.5920   43.3460 H   0  0  0  0  0  0  0  0  0  0  0  0
   55.7845   24.3249   43.7751 H   0  0  0  0  0  0  0  0  0  0  0  0
   56.6854   23.4806   47.3218 H   0  0  0  0  0  0  0  0  0  0  0  0
   55.3398   23.3131   46.1438 H   0  0  0  0  0  0  0  0  0  0  0  0
   56.6867   22.1246   46.1438 H   0  0  0  0  0  0  0  0  0  0  0  0
   58.1183   26.7388   43.8914 H   0  0  0  0  0  0  0  0  0  0  0  0
   59.0984   31.9647   42.9878 H   0  0  0  0  0  0  0  0  0  0  0  0
   59.7281   34.2901   43.6643 H   0  0  0  0  0  0  0  0  0  0  0  0
   58.3761   35.4895   45.3975 H   0  0  0  0  0  0  0  0  0  0  0  0
   56.4122   34.3409   46.4385 H   0  0  0  0  0  0  0  0  0  0  0  0
   57.2650   30.9610   46.6330 H   0  0  0  0  0  0  0  0  0  0  0  0
   58.3036   32.9818   47.6541 H   0  0  0  0  0  0  0  0  0  0  0  0
   60.3790   34.2241   48.2348 H   0  0  0  0  0  0  0  0  0  0  0  0
   65.0890   33.4540   47.8730 H   0  0  0  0  0  0  0  0  0  0  0  0
   64.3520   32.1780   46.8500 H   0  0  0  0  0  0  0  0  0  0  0  0
   62.7620   30.8398   46.9526 H   0  0  0  0  0  0  0  0  0  0  0  0
   60.6834   29.5932   46.3917 H   0  0  0  0  0  0  0  0  0  0  0  0
   58.0337   30.9284   50.0835 H   0  0  0  0  0  0  0  0  0  0  0  0
   59.9152   32.0967   51.2329 H   0  0  0  0  0  0  0  0  0  0  0  0
   62.1951   31.0762   51.2537 H   0  0  0  0  0  0  0  0  0  0  0  0
   62.5993   28.8950   50.1069 H   0  0  0  0  0  0  0  0  0  0  0  0
   60.7165   27.7098   48.9740 H   0  0  0  0  0  0  0  0  0  0  0  0
   58.3262   26.0616   48.1580 H   0  0  0  0  0  0  0  0  0  0  0  0
  1  2  3  0
  2  3  1  0
  3  4  1  0
  4  5  1  0
  4  6  1  0
  6  7  2  0
  6  8  1  0
  8  9  2  0
  9 10  1  0
 10 11  1  0
 11 12  1  0
 12 13  2  0
 12 14  1  0
 14 15  2  0
 15 16  1  0
 16 17  2  0
 17 18  1  0
 18 19  2  0
 10 20  2  0
 20 21  1  0
 21 22  1  0
 22 23  2  0
 23 24  1  0
 24 25  2  0
 25 26  1  0
 26 27  1  0
 26 28  2  0
 25 29  1  0
 29 30  2  0
 20 31  1  0
 31 32  1  0
 32 33  1  0
 33 34  2  0
 34 35  1  0
 35 36  2  0
 36 37  1  0
 37 38  2  0
 31 39  2  0
 39  8  1  0
 19 14  1  0
 30 22  1  0
 38 33  1  0
  1 40  1  0
  3 41  1  0
  3 42  1  0
  5 43  1  0
  5 44  1  0
  5 45  1  0
  9 46  1  0
 15 47  1  0
 16 48  1  0
 17 49  1  0
 18 50  1  0
 21 51  1  0
 23 52  1  0
 24 53  1  0
 27 54  1  0
 27 55  1  0
 29 56  1  0
 30 57  1  0
 34 58  1  0
 35 59  1  0
 36 60  1  0
 37 61  1  0
 38 62  1  0
 39 63  1  0
M  CHG  1  11  -1
M  END
>  <UniqueID>  (46) 
38

>  <SMILES>  (46) 
C#CCN(C)C(=O)c1cc([N-]C(=O)c2ccccn2)c(Nc2ccc(C(N)=O)cc2)c(Oc2ccccc2)c1

>  <Energy>  (46) 
89.91897963077628

>  <Genealogy>  (46) 
C#CCN(C)C(=O)c1cc([N-]C(=O)c2ccccn2)c(Nc2ccc(C(N)=O)cc2)c(Oc2ccccc2)c1 (protonated)
C#CCN(C)C(=O)c1cc([N-]C(=O)c2ccccn2)c(Nc2ccc(C(N)=O)cc2)c(Oc2ccccc2)c1 (3D coordinates assigned)
C#CCN(C)C(=O)c1cc([N-]C(=O)c2ccccn2)c(Nc2ccc(C(N)=O)cc2)c(Oc2ccccc2)c1 (optimized conformer: 89.91897963077628 kcal/mol)

>  <smiles>  (46) 
C#CCN(C)C(=O)c1cc(NC(=O)c2ccccn2)c(Nc2ccc(C(N)=O)cc2)c(Oc2ccccc2)c1

>  <score_type>  (46) 
oracle

>  <origin>  (46) 
adg

>  <m_score__min__energy>  (46) 
-10.59

>  <m_primary>  (46) 
energy

$$$$
46:0
     RDKit          3D

 63 67  0  0  0  0  0  0  0  0999 V2000
   58.9096   30.4268   48.3427 H   0  0  0  0  0  0  0  0  0  0  0  0
   58.5130   29.8330   47.5060 C   0  0  0  0  0  0  0  0  0  0  0  0
   58.4490   28.4810   47.6060 N   0  0  0  0  0  0  0  0  0  0  0  0
   57.9720   27.7220   46.5870 C   0  0  0  0  0  0  0  0  0  0  0  0
   57.9600   26.4270   46.7120 N   0  0  0  0  0  0  0  0  0  0  0  0
   57.4810   25.4690   45.7520 C   0  0  0  0  0  0  0  0  0  0  0  0
   57.6970   25.6220   44.3690 C   0  0  0  0  0  0  0  0  0  0  0  0
   58.2661   26.4861   43.9956 H   0  0  0  0  0  0  0  0  0  0  0  0
   57.1910   24.6800   43.4690 C   0  0  0  0  0  0  0  0  0  0  0  0
   57.3797   24.7988   42.3918 H   0  0  0  0  0  0  0  0  0  0  0  0
   56.4470   23.5880   43.9260 C   0  0  0  0  0  0  0  0  0  0  0  0
   55.9650   22.6680   42.9820 O   0  0  0  0  0  0  0  0  0  0  0  0
   56.6390   21.4680   42.6120 C   0  0  0  0  0  0  0  0  0  0  0  0
   56.9443   20.9245   43.5183 H   0  0  0  0  0  0  0  0  0  0  0  0
   55.9634   20.8368   42.0160 H   0  0  0  0  0  0  0  0  0  0  0  0
   57.5296   21.7165   42.0160 H   0  0  0  0  0  0  0  0  0  0  0  0
   56.2020   23.4520   45.3050 C   0  0  0  0  0  0  0  0  0  0  0  0
   55.6105   22.6018   45.6757 H   0  0  0  0  0  0  0  0  0  0  0  0
   56.7080   24.3940   46.2050 C   0  0  0  0  0  0  0  0  0  0  0  0
   56.4967   24.2894   47.2794 H   0  0  0  0  0  0  0  0  0  0  0  0
   57.5660   28.3250   45.4360 N   0  0  0  0  0  0  0  0  0  0  0  0
   57.5880   29.6780   45.2910 C   0  0  0  0  0  0  0  0  0  0  0  0
   58.0760   30.4730   46.3420 C   0  0  0  0  0  0  0  0  0  0  0  0
   58.2250   31.8950   46.2060 N   0  0  0  0  0  0  0  0  0  0  0  0
   59.2970   32.5600   46.9000 C   0  0  0  0  0  0  0  0  0  0  0  0
   59.0960   33.8190   47.4890 C   0  0  0  0  0  0  0  0  0  0  0  0
   58.1145   34.3095   47.4113 H   0  0  0  0  0  0  0  0  0  0  0  0
   60.1370   34.4510   48.1730 C   0  0  0  0  0  0  0  0  0  0  0  0
   59.9765   35.4444   48.6173 H   0  0  0  0  0  0  0  0  0  0  0  0
   61.3860   33.8250   48.2960 C   0  0  0  0  0  0  0  0  0  0  0  0
   62.4660   34.4590   48.9840 N   0  0  0  0  0  0  0  0  0  0  0  0
   63.6660   33.5810   49.8770 S   0  0  0  0  0  0  0  0  0  0  0  0
   64.6960   33.0470   48.9230 O   0  0  0  0  0  0  0  0  0  0  0  0
   64.3460   34.5220   50.8300 O   0  0  0  0  0  0  0  0  0  0  0  0
   62.9580   32.2560   50.7940 C   0  0  0  0  0  0  0  0  0  0  0  0
   61.5790   32.2350   51.0510 C   0  0  0  0  0  0  0  0  0  0  0  0
   60.9418   33.0587   50.6969 H   0  0  0  0  0  0  0  0  0  0  0  0
   61.0130   31.1680   51.7570 C   0  0  0  0  0  0  0  0  0  0  0  0
   59.9315   31.1543   51.9576 H   0  0  0  0  0  0  0  0  0  0  0  0
   61.8200   30.1190   52.2080 C   0  0  0  0  0  0  0  0  0  0  0  0
   61.3736   29.2808   52.7631 H   0  0  0  0  0  0  0  0  0  0  0  0
   63.1950   30.1360   51.9530 C   0  0  0  0  0  0  0  0  0  0  0  0
   63.8302   29.3114   52.3086 H   0  0  0  0  0  0  0  0  0  0  0  0
   63.7630   31.2010   51.2460 C   0  0  0  0  0  0  0  0  0  0  0  0
   64.8443   31.2107   51.0441 H   0  0  0  0  0  0  0  0  0  0  0  0
   61.5960   32.5820   47.6900 C   0  0  0  0  0  0  0  0  0  0  0  0
   62.5843   32.1030   47.7514 H   0  0  0  0  0  0  0  0  0  0  0  0
   60.5560   31.9460   47.0070 C   0  0  0  0  0  0  0  0  0  0  0  0
   60.7240   30.9593   46.5507 H   0  0  0  0  0  0  0  0  0  0  0  0
   57.3560   32.6360   45.2870 C   0  0  0  0  0  0  0  0  0  0  0  0
   56.3572   32.1751   45.2839 H   0  0  0  0  0  0  0  0  0  0  0  0
   57.2933   33.6809   45.6250 H   0  0  0  0  0  0  0  0  0  0  0  0
   57.9240   32.6120   43.8680 C   0  0  0  0  0  0  0  0  0  0  0  0
   57.2453   33.1681   43.2046 H   0  0  0  0  0  0  0  0  0  0  0  0
   58.9222   33.0734   43.8943 H   0  0  0  0  0  0  0  0  0  0  0  0
   58.0770   31.1870   43.3350 C   0  0  0  0  0  0  0  0  0  0  0  0
   57.8316   31.1772   42.2628 H   0  0  0  0  0  0  0  0  0  0  0  0
   59.1157   30.8645   43.4995 H   0  0  0  0  0  0  0  0  0  0  0  0
   57.1860   30.2560   44.0380 N   0  0  0  0  0  0  0  0  0  0  0  0
   55.8040   30.0730   43.5920 C   0  0  0  0  0  0  0  0  0  0  0  0
   55.1445   29.9857   44.4680 H   0  0  0  0  0  0  0  0  0  0  0  0
   55.4965   30.9383   42.9864 H   0  0  0  0  0  0  0  0  0  0  0  0
   55.7323   29.1575   42.9864 H   0  0  0  0  0  0  0  0  0  0  0  0
  1  2  1  0
  2  3  1  0
  3  4  1  0
  4  5  2  0
  5  6  1  0
  6  7  2  0
  7  8  1  0
  7  9  1  0
  9 10  1  0
  9 11  2  0
 11 12  1  0
 12 13  1  0
 13 14  1  0
 13 15  1  0
 13 16  1  0
 11 17  1  0
 17 18  1  0
 17 19  2  0
 19 20  1  0
  4 21  1  0
 21 22  2  0
 22 23  1  0
 23 24  1  0
 24 25  1  0
 25 26  2  0
 26 27  1  0
 26 28  1  0
 28 29  1  0
 28 30  2  0
 30 31  1  0
 31 32  1  0
 32 33  2  0
 32 34  2  0
 32 35  1  0
 35 36  2  0
 36 37  1  0
 36 38  1  0
 38 39  1  0
 38 40  2  0
 40 41  1  0
 40 42  1  0
 42 43  1  0
 42 44  2  0
 44 45  1  0
 30 46  1  0
 46 47  1  0
 46 48  2  0
 48 49  1  0
 24 50  1  0
 50 51  1  0
 50 52  1  0
 50 53  1  0
 53 54  1  0
 53 55  1  0
 53 56  1  0
 56 57  1  0
 56 58  1  0
 56 59  1  0
 59 60  1  0
 60 61  1  0
 60 62  1  0
 60 63  1  0
 23  2  2  0
 48 25  1  0
 19  6  1  0
 59 22  1  0
 44 35  1  0
M  CHG  2   3  -1  31  -1
M  END
>  <UniqueID>  (47) 
39

>  <SMILES>  (47) 
COc1ccc(/N=c2\nc3c(c[n-]2)N(c2ccc([N-]S(=O)(=O)c4ccccc4)cc2)CCCN3C)cc1

>  <Energy>  (47) 
95.03811242625466

>  <Genealogy>  (47) 
COc1ccc(N=c2nc3c(c[n-]2)N(c2ccc([N-]S(=O)(=O)c4ccccc4)cc2)CCCN3C)cc1 (protonated)
COc1ccc(/N=c2\nc3c(c[n-]2)N(c2ccc([N-]S(=O)(=O)c4ccccc4)cc2)CCCN3C)cc1 (cis-trans isomerization)
COc1ccc(/N=c2\nc3c(c[n-]2)N(c2ccc([N-]S(=O)(=O)c4ccccc4)cc2)CCCN3C)cc1 (3D coordinates assigned)
COc1ccc(/N=c2\nc3c(c[n-]2)N(c2ccc([N-]S(=O)(=O)c4ccccc4)cc2)CCCN3C)cc1 (nonaromatic ring conformer: 95.03811242625466 kcal/mol)

>  <smiles>  (47) 
COc1ccc(N=c2nc3c(c[nH]2)N(c2ccc(NS(=O)(=O)c4ccccc4)cc2)CCCN3C)cc1

>  <score_type>  (47) 
oracle

>  <origin>  (47) 
adg

>  <m_score__min__energy>  (47) 
-9.5999999999999996

>  <m_primary>  (47) 
energy

$$$$
47:0
     RDKit          3D

 47 49  0  0  0  0  0  0  0  0999 V2000
   59.5970   34.2310   48.0260 C   0  0  0  0  0  0  0  0  0  0  0  0
   59.5360   35.0970   46.7730 C   0  0  0  0  0  0  0  0  0  0  0  0
   59.3950   34.2650   45.5790 N   0  0  0  0  0  0  0  0  0  0  0  0
   58.1200   33.8160   45.0970 C   0  0  0  0  0  0  0  0  0  0  0  0
   57.0560   34.2020   45.6530 O   0  0  0  0  0  0  0  0  0  0  0  0
   58.0480   32.8450   43.9610 C   0  0  0  0  0  0  0  0  0  0  0  0
   57.8600   31.4510   44.4920 C   0  0  0  0  0  0  0  0  0  0  0  0
   58.9120   30.7960   45.1510 C   0  0  0  0  0  0  0  0  0  0  0  0
   58.7240   29.5170   45.6800 C   0  0  0  0  0  0  0  0  0  0  0  0
   57.4890   28.8720   45.5560 C   0  0  0  0  0  0  0  0  0  0  0  0
   57.3440   27.5910   46.1030 O   0  0  0  0  0  0  0  0  0  0  0  0
   57.1990   26.4220   45.3480 C   0  0  0  0  0  0  0  0  0  0  0  0
   57.8080   26.1160   44.1410 C   0  0  0  0  0  0  0  0  0  0  0  0
   57.3880   24.8400   43.8220 C   0  0  0  0  0  0  0  0  0  0  0  0
   56.5620   24.3800   44.7810 N   0  0  0  0  0  0  0  0  0  0  0  0
   55.8360   22.8100   44.8390 S   0  0  0  0  0  0  0  0  0  0  0  0
   56.5660   21.9480   45.8300 O   0  0  0  0  0  0  0  0  0  0  0  0
   55.9320   22.1610   43.4870 O   0  0  0  0  0  0  0  0  0  0  0  0
   54.1510   22.9720   45.3190 C   0  0  0  0  0  0  0  0  0  0  0  0
   53.6740   22.3070   46.4580 C   0  0  0  0  0  0  0  0  0  0  0  0
   52.3290   22.4180   46.8240 C   0  0  0  0  0  0  0  0  0  0  0  0
   51.4540   23.1880   46.0510 C   0  0  0  0  0  0  0  0  0  0  0  0
   51.9240   23.8460   44.9110 C   0  0  0  0  0  0  0  0  0  0  0  0
   53.2690   23.7370   44.5430 C   0  0  0  0  0  0  0  0  0  0  0  0
   56.4440   25.3330   45.7230 C   0  0  0  0  0  0  0  0  0  0  0  0
   56.4180   29.5410   44.9330 C   0  0  0  0  0  0  0  0  0  0  0  0
   55.1560   28.9610   44.8720 O   0  0  0  0  0  0  0  0  0  0  0  0
   56.6090   30.8210   44.3970 C   0  0  0  0  0  0  0  0  0  0  0  0
   59.5518   34.8731   48.9180 H   0  0  0  0  0  0  0  0  0  0  0  0
   58.7457   33.5344   48.0321 H   0  0  0  0  0  0  0  0  0  0  0  0
   60.5375   33.6606   48.0321 H   0  0  0  0  0  0  0  0  0  0  0  0
   58.6735   35.7760   46.8444 H   0  0  0  0  0  0  0  0  0  0  0  0
   60.4691   35.6742   46.6950 H   0  0  0  0  0  0  0  0  0  0  0  0
   60.2570   34.0130   45.0460 H   0  0  0  0  0  0  0  0  0  0  0  0
   57.1994   33.1056   43.3114 H   0  0  0  0  0  0  0  0  0  0  0  0
   58.9841   32.8905   43.3851 H   0  0  0  0  0  0  0  0  0  0  0  0
   59.8887   31.2920   45.2513 H   0  0  0  0  0  0  0  0  0  0  0  0
   59.5534   29.0132   46.1980 H   0  0  0  0  0  0  0  0  0  0  0  0
   58.4856   26.7570   43.5580 H   0  0  0  0  0  0  0  0  0  0  0  0
   57.6835   24.2832   42.9205 H   0  0  0  0  0  0  0  0  0  0  0  0
   54.3594   21.6969   47.0646 H   0  0  0  0  0  0  0  0  0  0  0  0
   51.9588   21.8993   47.7206 H   0  0  0  0  0  0  0  0  0  0  0  0
   50.3963   23.2757   46.3401 H   0  0  0  0  0  0  0  0  0  0  0  0
   51.2352   24.4504   44.3024 H   0  0  0  0  0  0  0  0  0  0  0  0
   53.6354   24.2525   43.6430 H   0  0  0  0  0  0  0  0  0  0  0  0
   55.8435   25.2553   46.6414 H   0  0  0  0  0  0  0  0  0  0  0  0
   55.7740   31.3355   43.8988 H   0  0  0  0  0  0  0  0  0  0  0  0
  1  2  1  0
  2  3  1  0
  3  4  1  0
  4  5  2  0
  4  6  1  0
  6  7  1  0
  7  8  2  0
  8  9  1  0
  9 10  2  0
 10 11  1  0
 11 12  1  0
 12 13  1  0
 13 14  2  0
 14 15  1  0
 15 16  1  0
 16 17  2  0
 16 18  2  0
 16 19  1  0
 19 20  2  0
 20 21  1  0
 21 22  2  0
 22 23  1  0
 23 24  2  0
 15 25  1  0
 10 26  1  0
 26 27  1  0
 26 28  2  0
 28  7  1  0
 25 12  2  0
 24 19  1  0
  1 29  1  0
  1 30  1  0
  1 31  1  0
  2 32  1  0
  2 33  1  0
  3 34  1  0
  6 35  1  0
  6 36  1  0
  8 37  1  0
  9 38  1  0
 13 39  1  0
 14 40  1  0
 20 41  1  0
 21 42  1  0
 22 43  1  0
 23 44  1  0
 24 45  1  0
 25 46  1  0
 28 47  1  0
M  CHG  1  27  -1
M  END
>  <UniqueID>  (48) 
40

>  <SMILES>  (48) 
CCNC(=O)Cc1ccc(Oc2ccn(S(=O)(=O)c3ccccc3)c2)c([O-])c1

>  <Energy>  (48) 
77.12008433189625

>  <Genealogy>  (48) 
CCNC(=O)Cc1ccc(Oc2ccn(S(=O)(=O)c3ccccc3)c2)c([O-])c1 (protonated)
CCNC(=O)Cc1ccc(Oc2ccn(S(=O)(=O)c3ccccc3)c2)c([O-])c1 (3D coordinates assigned)
CCNC(=O)Cc1ccc(Oc2ccn(S(=O)(=O)c3ccccc3)c2)c([O-])c1 (optimized conformer: 77.12008433189625 kcal/mol)

>  <smiles>  (48) 
CCNC(=O)Cc1ccc(Oc2ccn(S(=O)(=O)c3ccccc3)c2)c(O)c1

>  <score_type>  (48) 
oracle

>  <origin>  (48) 
adg

>  <m_score__min__energy>  (48) 
-12.359999999999999

>  <m_primary>  (48) 
energy

$$$$
48:0
     RDKit          3D

 62 65  0  0  0  0  0  0  0  0999 V2000
   53.8620   25.9160   46.3740 H   0  0  0  0  0  0  0  0  0  0  0  0
   54.7250   26.3280   46.0410 O   0  0  0  0  0  0  0  0  0  0  0  0
   55.8540   25.5650   45.7310 C   0  0  0  0  0  0  0  0  0  0  0  0
   57.1430   26.1000   45.9350 C   0  0  0  0  0  0  0  0  0  0  0  0
   57.3130   27.3830   46.5480 N   0  0  0  0  0  0  0  0  0  0  0  0
   57.6150   28.5620   46.0650 C   0  0  0  0  0  0  0  0  0  0  0  0
   56.6530   29.1630   45.3310 N   0  0  0  0  0  0  0  0  0  0  0  0
   56.8000   30.4050   44.8320 C   0  0  0  0  0  0  0  0  0  0  0  0
   55.8860   30.8740   44.1030 O   0  0  0  0  0  0  0  0  0  0  0  0
   57.9290   31.1250   45.1030 N   0  0  0  0  0  0  0  0  0  0  0  0
   58.1020   32.4930   44.5530 C   0  0  0  0  0  0  0  0  0  0  0  0
   59.1289   32.5773   44.1678 H   0  0  0  0  0  0  0  0  0  0  0  0
   57.3302   32.6096   43.7779 H   0  0  0  0  0  0  0  0  0  0  0  0
   57.8720   33.6520   45.5690 C   0  0  0  0  0  0  0  0  0  0  0  0
   56.8557   33.9967   45.3274 H   0  0  0  0  0  0  0  0  0  0  0  0
   58.7710   34.8930   45.3460 C   0  0  0  0  0  0  0  0  0  0  0  0
   58.9436   34.9970   44.2646 H   0  0  0  0  0  0  0  0  0  0  0  0
   58.2315   35.7419   45.7914 H   0  0  0  0  0  0  0  0  0  0  0  0
   60.1470   34.8490   46.0460 C   0  0  0  0  0  0  0  0  0  0  0  0
   60.8988   34.5289   45.3096 H   0  0  0  0  0  0  0  0  0  0  0  0
   60.3365   35.8601   46.4356 H   0  0  0  0  0  0  0  0  0  0  0  0
   60.2110   33.8940   47.2460 C   0  0  0  0  0  0  0  0  0  0  0  0
   60.4831   32.8890   46.8911 H   0  0  0  0  0  0  0  0  0  0  0  0
   60.9643   34.2716   47.9531 H   0  0  0  0  0  0  0  0  0  0  0  0
   58.8670   33.8220   47.9630 C   0  0  0  0  0  0  0  0  0  0  0  0
   58.9741   33.2030   48.8660 H   0  0  0  0  0  0  0  0  0  0  0  0
   58.5576   34.8434   48.2294 H   0  0  0  0  0  0  0  0  0  0  0  0
   57.7900   33.2060   47.0570 C   0  0  0  0  0  0  0  0  0  0  0  0
   57.8933   32.1115   47.0946 H   0  0  0  0  0  0  0  0  0  0  0  0
   56.8198   33.5578   47.4378 H   0  0  0  0  0  0  0  0  0  0  0  0
   58.9540   30.5090   45.7780 C   0  0  0  0  0  0  0  0  0  0  0  0
   60.0420   31.1290   45.9460 O   0  0  0  0  0  0  0  0  0  0  0  0
   58.8230   29.2170   46.2530 N   0  0  0  0  0  0  0  0  0  0  0  0
   60.0190   28.5860   46.8630 C   0  0  0  0  0  0  0  0  0  0  0  0
   60.0094   27.5136   46.6184 H   0  0  0  0  0  0  0  0  0  0  0  0
   60.9002   29.1007   46.4525 H   0  0  0  0  0  0  0  0  0  0  0  0
   60.0800   28.7330   48.3680 C   0  0  0  0  0  0  0  0  0  0  0  0
   60.7080   27.7220   49.1140 C   0  0  0  0  0  0  0  0  0  0  0  0
   61.1479   26.8564   48.5970 H   0  0  0  0  0  0  0  0  0  0  0  0
   60.7790   27.8060   50.5080 C   0  0  0  0  0  0  0  0  0  0  0  0
   61.2697   27.0065   51.0825 H   0  0  0  0  0  0  0  0  0  0  0  0
   60.2270   28.9050   51.1720 C   0  0  0  0  0  0  0  0  0  0  0  0
   60.3120   29.0090   52.9210 Cl  0  0  0  0  0  0  0  0  0  0  0  0
   59.6060   29.9210   50.4400 C   0  0  0  0  0  0  0  0  0  0  0  0
   59.1734   30.7871   50.9622 H   0  0  0  0  0  0  0  0  0  0  0  0
   59.5330   29.8400   49.0470 C   0  0  0  0  0  0  0  0  0  0  0  0
   59.0458   30.6449   48.4772 H   0  0  0  0  0  0  0  0  0  0  0  0
   58.2670   25.3000   45.7130 C   0  0  0  0  0  0  0  0  0  0  0  0
   59.2679   25.6828   45.9611 H   0  0  0  0  0  0  0  0  0  0  0  0
   58.1280   24.0220   45.1800 C   0  0  0  0  0  0  0  0  0  0  0  0
   59.0225   23.4177   44.9685 H   0  0  0  0  0  0  0  0  0  0  0  0
   56.8600   23.5020   44.9120 C   0  0  0  0  0  0  0  0  0  0  0  0
   56.7660   21.8790   44.2340 Cl  0  0  0  0  0  0  0  0  0  0  0  0
   55.7050   24.2630   45.2020 C   0  0  0  0  0  0  0  0  0  0  0  0
   54.0950   23.5690   44.9020 S   0  0  0  0  0  0  0  0  0  0  0  0
   53.9420   22.2180   45.5420 O   0  0  0  0  0  0  0  0  0  0  0  0
   53.9100   23.4110   43.4200 O   0  0  0  0  0  0  0  0  0  0  0  0
   52.8620   24.6250   45.5190 N   0  0  0  0  0  0  0  0  0  0  0  0
   51.5720   24.2610   44.9460 C   0  0  0  0  0  0  0  0  0  0  0  0
   50.8552   24.0587   45.7555 H   0  0  0  0  0  0  0  0  0  0  0  0
   51.1998   25.0892   44.3251 H   0  0  0  0  0  0  0  0  0  0  0  0
   51.6876   23.3604   44.3251 H   0  0  0  0  0  0  0  0  0  0  0  0
  1  2  1  0
  2  3  1  0
  3  4  2  0
  4  5  1  0
  5  6  2  0
  6  7  1  0
  7  8  1  0
  8  9  2  0
  8 10  1  0
 10 11  1  0
 11 12  1  0
 11 13  1  0
 11 14  1  0
 14 15  1  0
 14 16  1  0
 16 17  1  0
 16 18  1  0
 16 19  1  0
 19 20  1  0
 19 21  1  0
 19 22  1  0
 22 23  1  0
 22 24  1  0
 22 25  1  0
 25 26  1  0
 25 27  1  0
 25 28  1  0
 28 29  1  0
 28 30  1  0
 10 31  1  0
 31 32  2  0
 31 33  1  0
 33 34  1  0
 34 35  1  0
 34 36  1  0
 34 37  1  0
 37 38  2  0
 38 39  1  0
 38 40  1  0
 40 41  1  0
 40 42  2  0
 42 43  1  0
 42 44  1  0
 44 45  1  0
 44 46  2  0
 46 47  1  0
  4 48  1  0
 48 49  1  0
 48 50  2  0
 50 51  1  0
 50 52  1  0
 52 53  1  0
 52 54  2  0
 54 55  1  0
 55 56  2  0
 55 57  2  0
 55 58  1  0
 58 59  1  0
 59 60  1  0
 59 61  1  0
 59 62  1  0
 54  3  1  0
 33  6  1  0
 46 37  1  0
 28 14  1  0
M  CHG  2   7  -1  58  -1
M  END
>  <UniqueID>  (49) 
41

>  <SMILES>  (49) 
C[N-]S(=O)(=O)c1c(Cl)ccc(/N=c2/[n-]c(=O)n(CC3CCCCC3)c(=O)n2Cc2ccc(Cl)cc2)c1O

>  <Energy>  (49) 
100.43760665054126

>  <Genealogy>  (49) 
C[N-]S(=O)(=O)c1c(Cl)ccc(N=c2[n-]c(=O)n(CC3CCCCC3)c(=O)n2Cc2ccc(Cl)cc2)c1O (protonated)
C[N-]S(=O)(=O)c1c(Cl)ccc(/N=c2/[n-]c(=O)n(CC3CCCCC3)c(=O)n2Cc2ccc(Cl)cc2)c1O (cis-trans isomerization)
C[N-]S(=O)(=O)c1c(Cl)ccc(/N=c2/[n-]c(=O)n(CC3CCCCC3)c(=O)n2Cc2ccc(Cl)cc2)c1O (3D coordinates assigned)
C[N-]S(=O)(=O)c1c(Cl)ccc(/N=c2/[n-]c(=O)n(CC3CCCCC3)c(=O)n2Cc2ccc(Cl)cc2)c1O (nonaromatic ring conformer: 100.43760665054126 kcal/mol)

>  <smiles>  (49) 
CNS(=O)(=O)c1c(Cl)ccc(N=c2[nH]c(=O)n(CC3CCCCC3)c(=O)n2Cc2ccc(Cl)cc2)c1O

>  <score_type>  (49) 
oracle

>  <origin>  (49) 
adg

>  <m_score__min__energy>  (49) 
-14.99

>  <m_primary>  (49) 
energy

$$$$
49:0
     RDKit          3D

 43 46  0  0  0  0  0  0  0  0999 V2000
   55.8210   30.1660   44.8730 O   0  0  0  0  0  0  0  0  0  0  0  0
   57.0050   30.4450   44.5430 C   0  0  0  0  0  0  0  0  0  0  0  0
   57.5910   29.8210   43.3930 N   0  0  0  0  0  0  0  0  0  0  0  0
   57.0340   28.5940   42.8260 C   0  0  0  0  0  0  0  0  0  0  0  0
   58.0020   27.4230   43.0120 C   0  0  0  0  0  0  0  0  0  0  0  0
   57.7270   26.7060   44.3060 C   0  0  0  0  0  0  0  0  0  0  0  0
   57.7580   25.3030   44.3600 C   0  0  0  0  0  0  0  0  0  0  0  0
   57.4710   24.6380   45.5560 C   0  0  0  0  0  0  0  0  0  0  0  0
   57.1430   25.3680   46.7020 C   0  0  0  0  0  0  0  0  0  0  0  0
   57.0970   26.7640   46.6530 C   0  0  0  0  0  0  0  0  0  0  0  0
   57.3830   27.4330   45.4580 C   0  0  0  0  0  0  0  0  0  0  0  0
   57.7550   31.4410   45.3260 C   0  0  0  0  0  0  0  0  0  0  0  0
   57.3010   33.0640   45.4640 S   0  0  0  0  0  0  0  0  0  0  0  0
   58.6080   33.5160   46.4150 C   0  0  0  0  0  0  0  0  0  0  0  0
   58.8870   34.7740   46.9430 C   0  0  0  0  0  0  0  0  0  0  0  0
   60.0260   34.9170   47.7500 C   0  0  0  0  0  0  0  0  0  0  0  0
   60.8490   33.8080   48.0180 C   0  0  0  0  0  0  0  0  0  0  0  0
   60.5460   32.5470   47.4770 C   0  0  0  0  0  0  0  0  0  0  0  0
   59.4180   32.4140   46.6570 C   0  0  0  0  0  0  0  0  0  0  0  0
   58.9450   31.2370   46.0470 C   0  0  0  0  0  0  0  0  0  0  0  0
   59.5630   29.9520   46.2190 N   0  0  0  0  0  0  0  0  0  0  0  0
   59.5690   29.2170   47.3490 C   0  0  0  0  0  0  0  0  0  0  0  0
   60.2280   28.0260   47.1240 C   0  0  0  0  0  0  0  0  0  0  0  0
   60.6400   28.0450   45.8050 C   0  0  0  0  0  0  0  0  0  0  0  0
   60.2140   29.2470   45.2750 C   0  0  0  0  0  0  0  0  0  0  0  0
   58.4450   30.2470   42.9660 H   0  0  0  0  0  0  0  0  0  0  0  0
   56.0849   28.3614   43.3311 H   0  0  0  0  0  0  0  0  0  0  0  0
   56.8666   28.7465   41.7496 H   0  0  0  0  0  0  0  0  0  0  0  0
   57.8812   26.7184   42.1760 H   0  0  0  0  0  0  0  0  0  0  0  0
   59.0298   27.8142   43.0359 H   0  0  0  0  0  0  0  0  0  0  0  0
   58.0089   24.7252   43.4582 H   0  0  0  0  0  0  0  0  0  0  0  0
   57.5034   23.5392   45.5951 H   0  0  0  0  0  0  0  0  0  0  0  0
   56.9209   24.8434   47.6430 H   0  0  0  0  0  0  0  0  0  0  0  0
   56.8357   27.3372   47.5547 H   0  0  0  0  0  0  0  0  0  0  0  0
   57.3384   28.5314   45.4203 H   0  0  0  0  0  0  0  0  0  0  0  0
   58.2321   35.6325   46.7331 H   0  0  0  0  0  0  0  0  0  0  0  0
   60.2764   35.9003   48.1748 H   0  0  0  0  0  0  0  0  0  0  0  0
   61.7368   33.9289   48.6561 H   0  0  0  0  0  0  0  0  0  0  0  0
   61.1845   31.6780   47.6940 H   0  0  0  0  0  0  0  0  0  0  0  0
   59.1173   29.5206   48.3049 H   0  0  0  0  0  0  0  0  0  0  0  0
   60.3933   27.2186   47.8525 H   0  0  0  0  0  0  0  0  0  0  0  0
   61.1985   27.2563   45.2796 H   0  0  0  0  0  0  0  0  0  0  0  0
   60.3812   29.5779   44.2393 H   0  0  0  0  0  0  0  0  0  0  0  0
  1  2  2  0
  2  3  1  0
  3  4  1  0
  4  5  1  0
  5  6  1  0
  6  7  2  0
  7  8  1  0
  8  9  2  0
  9 10  1  0
 10 11  2  0
  2 12  1  0
 12 13  1  0
 13 14  1  0
 14 15  2  0
 15 16  1  0
 16 17  2  0
 17 18  1  0
 18 19  2  0
 19 20  1  0
 20 21  1  0
 21 22  1  0
 22 23  2  0
 23 24  1  0
 24 25  2  0
 11  6  1  0
 20 12  2  0
 25 21  1  0
 19 14  1  0
  3 26  1  0
  4 27  1  0
  4 28  1  0
  5 29  1  0
  5 30  1  0
  7 31  1  0
  8 32  1  0
  9 33  1  0
 10 34  1  0
 11 35  1  0
 15 36  1  0
 16 37  1  0
 17 38  1  0
 18 39  1  0
 22 40  1  0
 23 41  1  0
 24 42  1  0
 25 43  1  0
M  END
>  <UniqueID>  (50) 
42

>  <SMILES>  (50) 
O=C(NCCc1ccccc1)c1sc2ccccc2c1-n1cccc1

>  <Energy>  (50) 
105.86850374155459

>  <Genealogy>  (50) 
O=C(NCCc1ccccc1)c1sc2ccccc2c1-n1cccc1 (3D coordinates assigned)
O=C(NCCc1ccccc1)c1sc2ccccc2c1-n1cccc1 (optimized conformer: 105.86850374155459 kcal/mol)

>  <smiles>  (50) 
O=C(NCCc1ccccc1)c1sc2ccccc2c1-n1cccc1

>  <score_type>  (50) 
oracle

>  <origin>  (50) 
adg

>  <m_score__min__energy>  (50) 
-8.0199999999999996

>  <m_primary>  (50) 
energy

$$$$
50:0
     RDKit          3D

 36 38  0  0  0  0  0  0  0  0999 V2000
   56.6010   29.9020   42.5090 N   0  0  0  0  0  0  0  0  0  0  0  0
   57.1800   30.6430   43.9590 S   0  0  0  0  0  0  0  0  0  0  0  0
   58.1830   31.7070   43.6120 O   0  0  0  0  0  0  0  0  0  0  0  0
   56.0320   31.2840   44.6880 O   0  0  0  0  0  0  0  0  0  0  0  0
   57.9310   29.4260   44.9860 C   0  0  0  0  0  0  0  0  0  0  0  0
   59.2940   29.5120   45.3020 C   0  0  0  0  0  0  0  0  0  0  0  0
   59.8890   28.5420   46.1110 C   0  0  0  0  0  0  0  0  0  0  0  0
   59.1320   27.4730   46.5980 C   0  0  0  0  0  0  0  0  0  0  0  0
   57.7720   27.3600   46.2610 C   0  0  0  0  0  0  0  0  0  0  0  0
   56.9620   26.2780   46.7480 N   0  0  0  0  0  0  0  0  0  0  0  0
   55.8690   25.6620   46.0530 C   0  0  0  0  0  0  0  0  0  0  0  0
   54.7700   26.2770   45.9960 O   0  0  0  0  0  0  0  0  0  0  0  0
   56.0100   24.3590   45.3630 C   0  0  0  0  0  0  0  0  0  0  0  0
   56.3880   24.3160   44.0070 C   0  0  0  0  0  0  0  0  0  0  0  0
   56.5180   23.0910   43.3450 C   0  0  0  0  0  0  0  0  0  0  0  0
   56.2790   21.8990   44.0330 C   0  0  0  0  0  0  0  0  0  0  0  0
   55.9460   21.9290   45.3920 C   0  0  0  0  0  0  0  0  0  0  0  0
   55.8030   23.1510   46.0550 C   0  0  0  0  0  0  0  0  0  0  0  0
   55.7620   20.7220   46.0730 O   0  0  0  0  0  0  0  0  0  0  0  0
   56.1650   19.4780   45.4930 C   0  0  0  0  0  0  0  0  0  0  0  0
   55.8680   19.4720   43.9880 C   0  0  0  0  0  0  0  0  0  0  0  0
   56.3680   20.6650   43.3800 O   0  0  0  0  0  0  0  0  0  0  0  0
   57.1750   28.3490   45.4700 C   0  0  0  0  0  0  0  0  0  0  0  0
   57.4420   29.6170   41.9570 H   0  0  0  0  0  0  0  0  0  0  0  0
   56.1140   29.0220   42.7900 H   0  0  0  0  0  0  0  0  0  0  0  0
   59.8962   30.3457   44.9117 H   0  0  0  0  0  0  0  0  0  0  0  0
   60.9563   28.6194   46.3657 H   0  0  0  0  0  0  0  0  0  0  0  0
   59.6014   26.7185   47.2464 H   0  0  0  0  0  0  0  0  0  0  0  0
   56.5824   25.2530   43.4645 H   0  0  0  0  0  0  0  0  0  0  0  0
   56.8080   23.0661   42.2842 H   0  0  0  0  0  0  0  0  0  0  0  0
   55.5281   23.1687   47.1199 H   0  0  0  0  0  0  0  0  0  0  0  0
   57.2445   19.3368   45.6505 H   0  0  0  0  0  0  0  0  0  0  0  0
   55.6047   18.6615   45.9718 H   0  0  0  0  0  0  0  0  0  0  0  0
   56.3517   18.5988   43.5259 H   0  0  0  0  0  0  0  0  0  0  0  0
   54.7794   19.4224   43.8378 H   0  0  0  0  0  0  0  0  0  0  0  0
   56.1045   28.2805   45.2264 H   0  0  0  0  0  0  0  0  0  0  0  0
  1  2  1  0
  2  3  2  0
  2  4  2  0
  2  5  1  0
  5  6  2  0
  6  7  1  0
  7  8  2  0
  8  9  1  0
  9 10  1  0
 10 11  1  0
 11 12  2  0
 11 13  1  0
 13 14  2  0
 14 15  1  0
 15 16  2  0
 16 17  1  0
 17 18  2  0
 17 19  1  0
 19 20  1  0
 20 21  1  0
 21 22  1  0
  9 23  2  0
 23  5  1  0
 18 13  1  0
 22 16  1  0
  1 24  1  0
  1 25  1  0
  6 26  1  0
  7 27  1  0
  8 28  1  0
 14 29  1  0
 15 30  1  0
 18 31  1  0
 20 32  1  0
 20 33  1  0
 21 34  1  0
 21 35  1  0
 23 36  1  0
M  CHG  1  10  -1
M  END
>  <UniqueID>  (51) 
43

>  <SMILES>  (51) 
NS(=O)(=O)c1cccc([N-]C(=O)c2ccc3c(c2)OCCO3)c1

>  <Energy>  (51) 
44.136644219073276

>  <Genealogy>  (51) 
NS(=O)(=O)c1cccc([N-]C(=O)c2ccc3c(c2)OCCO3)c1 (protonated)
NS(=O)(=O)c1cccc([N-]C(=O)c2ccc3c(c2)OCCO3)c1 (3D coordinates assigned)
NS(=O)(=O)c1cccc([N-]C(=O)c2ccc3c(c2)OCCO3)c1 (nonaromatic ring conformer: 44.136644219073276 kcal/mol)

>  <smiles>  (51) 
NS(=O)(=O)c1cccc(NC(=O)c2ccc3c(c2)OCCO3)c1

>  <score_type>  (51) 
oracle

>  <origin>  (51) 
adg

>  <m_score__min__energy>  (51) 
-9.3800000000000008

>  <m_primary>  (51) 
energy

$$$$
51:0
     RDKit          3D

 31 31  0  0  0  0  0  0  0  0999 V2000
   60.3620   27.1140   47.9210 C   0  0  0  0  0  0  0  0  0  0  0  0
   59.1130   26.3790   47.7950 N   0  0  0  0  0  0  0  0  0  0  0  0
   58.6370   25.8700   46.5440 C   0  0  0  0  0  0  0  0  0  0  0  0
   59.1820   24.8510   46.0340 O   0  0  0  0  0  0  0  0  0  0  0  0
   57.5400   26.6020   45.7930 C   0  0  2  0  0  0  0  0  0  0  0  0
   57.6580   26.3150   44.3520 N   0  0  0  0  0  0  0  0  0  0  0  0
   57.7450   28.1200   46.0390 C   0  0  0  0  0  0  0  0  0  0  0  0
   57.0360   29.1920   44.7830 S   0  0  0  0  0  0  0  0  0  0  0  0
   57.3910   28.6790   43.4140 O   0  0  0  0  0  0  0  0  0  0  0  0
   55.5390   29.2550   44.9000 O   0  0  0  0  0  0  0  0  0  0  0  0
   57.7000   30.8080   44.9910 C   0  0  0  0  0  0  0  0  0  0  0  0
   57.6030   31.7460   43.9520 C   0  0  0  0  0  0  0  0  0  0  0  0
   58.1120   33.0360   44.1200 C   0  0  0  0  0  0  0  0  0  0  0  0
   58.7180   33.4000   45.3280 C   0  0  0  0  0  0  0  0  0  0  0  0
   59.3560   35.0200   45.5380 Cl  0  0  0  0  0  0  0  0  0  0  0  0
   58.8090   32.4710   46.3700 C   0  0  0  0  0  0  0  0  0  0  0  0
   58.3000   31.1780   46.2030 C   0  0  0  0  0  0  0  0  0  0  0  0
   56.1960   26.1300   46.3220 C   0  0  0  0  0  0  0  0  0  0  0  0
   55.1350   26.7240   45.9910 O   0  0  0  0  0  0  0  0  0  0  0  0
   56.1100   24.9870   47.1110 O   0  0  0  0  0  0  0  0  0  0  0  0
   60.5994   27.2537   48.9860 H   0  0  0  0  0  0  0  0  0  0  0  0
   61.1710   26.5480   47.4362 H   0  0  0  0  0  0  0  0  0  0  0  0
   60.2600   28.0961   47.4362 H   0  0  0  0  0  0  0  0  0  0  0  0
   56.7990   26.6460   43.8550 H   0  0  0  0  0  0  0  0  0  0  0  0
   58.4530   26.8600   43.9450 H   0  0  0  0  0  0  0  0  0  0  0  0
   57.2850   28.3749   47.0052 H   0  0  0  0  0  0  0  0  0  0  0  0
   58.8311   28.2927   46.0150 H   0  0  0  0  0  0  0  0  0  0  0  0
   57.1247   31.4647   43.0022 H   0  0  0  0  0  0  0  0  0  0  0  0
   58.0364   33.7670   43.3015 H   0  0  0  0  0  0  0  0  0  0  0  0
   59.2811   32.7570   47.3215 H   0  0  0  0  0  0  0  0  0  0  0  0
   58.3709   30.4502   47.0247 H   0  0  0  0  0  0  0  0  0  0  0  0
  1  2  1  0
  2  3  1  0
  3  4  2  0
  3  5  1  0
  5  6  1  6
  5  7  1  0
  7  8  1  0
  8  9  2  0
  8 10  2  0
  8 11  1  0
 11 12  2  0
 12 13  1  0
 13 14  2  0
 14 15  1  0
 14 16  1  0
 16 17  2  0
  5 18  1  0
 18 19  2  0
 18 20  1  0
 17 11  1  0
  1 21  1  0
  1 22  1  0
  1 23  1  0
  6 24  1  0
  6 25  1  0
  7 26  1  0
  7 27  1  0
 12 28  1  0
 13 29  1  0
 16 30  1  0
 17 31  1  0
M  CHG  2   2  -1  20  -1
M  END
>  <UniqueID>  (52) 
44

>  <SMILES>  (52) 
C[N-]C(=O)[C@](N)(CS(=O)(=O)c1ccc(Cl)cc1)C(=O)[O-]

>  <Energy>  (52) 
27.802146080048594

>  <Genealogy>  (52) 
C[N-]C(=O)C(N)(CS(=O)(=O)c1ccc(Cl)cc1)C(=O)[O-] (protonated)
C[N-]C(=O)[C@](N)(CS(=O)(=O)c1ccc(Cl)cc1)C(=O)[O-] (chirality)
C[N-]C(=O)[C@](N)(CS(=O)(=O)c1ccc(Cl)cc1)C(=O)[O-] (3D coordinates assigned)
C[N-]C(=O)[C@](N)(CS(=O)(=O)c1ccc(Cl)cc1)C(=O)[O-] (optimized conformer: 27.802146080048594 kcal/mol)

>  <smiles>  (52) 
CNC(=O)C(N)(CS(=O)(=O)c1ccc(Cl)cc1)C(=O)O

>  <score_type>  (52) 
oracle

>  <origin>  (52) 
adg

>  <m_score__min__energy>  (52) 
-11.56

>  <m_primary>  (52) 
energy

$$$$
52:0
     RDKit          3D

 47 49  0  0  0  0  0  0  0  0999 V2000
   59.6149   25.0172   46.6393 H   0  0  0  0  0  0  0  0  0  0  0  0
   59.0580   25.9170   46.3390 C   0  0  0  0  0  0  0  0  0  0  0  0
   58.9310   26.9560   47.2020 N   0  0  0  0  0  0  0  0  0  0  0  0
   58.2540   28.0970   46.8850 C   0  0  0  0  0  0  0  0  0  0  0  0
   58.1460   29.0620   47.7560 N   0  0  0  0  0  0  0  0  0  0  0  0
   59.1170   30.0810   48.0480 C   0  0  0  0  0  0  0  0  0  0  0  0
   59.0590   30.8500   49.2250 C   0  0  0  0  0  0  0  0  0  0  0  0
   58.2364   30.6963   49.9389 H   0  0  0  0  0  0  0  0  0  0  0  0
   60.0420   31.8090   49.4920 C   0  0  0  0  0  0  0  0  0  0  0  0
   59.9814   32.4133   50.4091 H   0  0  0  0  0  0  0  0  0  0  0  0
   61.1070   32.0050   48.5950 C   0  0  0  0  0  0  0  0  0  0  0  0
   62.1460   33.0230   48.8670 C   0  0  0  0  0  0  0  0  0  0  0  0
   61.8450   34.0880   49.4750 O   0  0  0  0  0  0  0  0  0  0  0  0
   63.4650   32.8000   48.4520 O   0  0  0  0  0  0  0  0  0  0  0  0
   63.9310   33.0730   47.1340 C   0  0  0  0  0  0  0  0  0  0  0  0
   64.0917   32.1228   46.6037 H   0  0  0  0  0  0  0  0  0  0  0  0
   64.8734   33.6362   47.2014 H   0  0  0  0  0  0  0  0  0  0  0  0
   62.9140   33.9090   46.3660 C   0  0  0  0  0  0  0  0  0  0  0  0
   62.2656   34.4420   47.0771 H   0  0  0  0  0  0  0  0  0  0  0  0
   63.4415   34.6380   45.7333 H   0  0  0  0  0  0  0  0  0  0  0  0
   62.3008   33.2504   45.7333 H   0  0  0  0  0  0  0  0  0  0  0  0
   61.1770   31.2120   47.4360 C   0  0  0  0  0  0  0  0  0  0  0  0
   62.0096   31.3483   46.7301 H   0  0  0  0  0  0  0  0  0  0  0  0
   60.1960   30.2520   47.1750 C   0  0  0  0  0  0  0  0  0  0  0  0
   60.2731   29.6249   46.2745 H   0  0  0  0  0  0  0  0  0  0  0  0
   57.6360   28.2090   45.6110 C   0  0  0  0  0  0  0  0  0  0  0  0
   56.8550   29.4100   45.1950 C   0  0  0  0  0  0  0  0  0  0  0  0
   55.5950   29.3710   45.1370 O   0  0  0  0  0  0  0  0  0  0  0  0
   57.5340   30.6230   44.8530 N   0  0  0  0  0  0  0  0  0  0  0  0
   56.8810   31.9240   44.8490 C   0  0  0  0  0  0  0  0  0  0  0  0
   56.6535   32.2180   43.8137 H   0  0  0  0  0  0  0  0  0  0  0  0
   55.9460   31.8692   45.4258 H   0  0  0  0  0  0  0  0  0  0  0  0
   57.7960   32.9390   45.4690 C   0  0  0  0  0  0  0  0  0  0  0  0
   58.5990   33.7600   44.6590 C   0  0  0  0  0  0  0  0  0  0  0  0
   58.5825   33.6369   43.5660 H   0  0  0  0  0  0  0  0  0  0  0  0
   59.4190   34.7330   45.2390 C   0  0  0  0  0  0  0  0  0  0  0  0
   60.0532   35.3673   44.6023 H   0  0  0  0  0  0  0  0  0  0  0  0
   59.4340   34.9010   46.6280 C   0  0  0  0  0  0  0  0  0  0  0  0
   60.0838   35.6632   47.0828 H   0  0  0  0  0  0  0  0  0  0  0  0
   58.6240   34.1010   47.4370 C   0  0  0  0  0  0  0  0  0  0  0  0
   58.6313   34.2392   48.5283 H   0  0  0  0  0  0  0  0  0  0  0  0
   57.8040   33.1250   46.8630 C   0  0  0  0  0  0  0  0  0  0  0  0
   57.1634   32.5009   47.5034 H   0  0  0  0  0  0  0  0  0  0  0  0
   57.7740   27.1330   44.7130 C   0  0  0  0  0  0  0  0  0  0  0  0
   57.3162   27.1955   43.7147 H   0  0  0  0  0  0  0  0  0  0  0  0
   58.4840   25.9900   45.0750 C   0  0  0  0  0  0  0  0  0  0  0  0
   58.5892   25.1540   44.3678 H   0  0  0  0  0  0  0  0  0  0  0  0
  1  2  1  0
  2  3  1  0
  3  4  1  0
  4  5  2  0
  5  6  1  0
  6  7  2  0
  7  8  1  0
  7  9  1  0
  9 10  1  0
  9 11  2  0
 11 12  1  0
 12 13  2  0
 12 14  1  0
 14 15  1  0
 15 16  1  0
 15 17  1  0
 15 18  1  0
 18 19  1  0
 18 20  1  0
 18 21  1  0
 11 22  1  0
 22 23  1  0
 22 24  2  0
 24 25  1  0
  4 26  1  0
 26 27  1  0
 27 28  2  0
 27 29  1  0
 29 30  1  0
 30 31  1  0
 30 32  1  0
 30 33  1  0
 33 34  2  0
 34 35  1  0
 34 36  1  0
 36 37  1  0
 36 38  2  0
 38 39  1  0
 38 40  1  0
 40 41  1  0
 40 42  2  0
 42 43  1  0
 26 44  2  0
 44 45  1  0
 44 46  1  0
 46 47  1  0
 46  2  2  0
 24  6  1  0
 42 33  1  0
M  CHG  2   3  -1  29  -1
M  END
>  <UniqueID>  (53) 
45

>  <SMILES>  (53) 
CCOC(=O)c1ccc(/N=c2\[n-]cccc2C(=O)[N-]Cc2ccccc2)cc1

>  <Energy>  (53) 
53.7290378465737

>  <Genealogy>  (53) 
CCOC(=O)c1ccc(N=c2[n-]cccc2C(=O)[N-]Cc2ccccc2)cc1 (protonated)
CCOC(=O)c1ccc(/N=c2\[n-]cccc2C(=O)[N-]Cc2ccccc2)cc1 (cis-trans isomerization)
CCOC(=O)c1ccc(/N=c2\[n-]cccc2C(=O)[N-]Cc2ccccc2)cc1 (3D coordinates assigned)
CCOC(=O)c1ccc(/N=c2\[n-]cccc2C(=O)[N-]Cc2ccccc2)cc1 (optimized conformer: 53.7290378465737 kcal/mol)

>  <smiles>  (53) 
CCOC(=O)c1ccc(N=c2[nH]cccc2C(=O)NCc2ccccc2)cc1

>  <score_type>  (53) 
oracle

>  <origin>  (53) 
adg

>  <m_score__min__energy>  (53) 
-11.5

>  <m_primary>  (53) 
energy

$$$$
53:0
     RDKit          3D

 42 44  0  0  0  0  0  0  0  0999 V2000
   57.8200   28.8550   44.1620 C   0  0  0  0  0  0  0  0  0  0  0  0
   56.8530   30.3420   44.0280 S   0  0  0  0  0  0  0  0  0  0  0  0
   56.6090   30.6540   42.5770 O   0  0  0  0  0  0  0  0  0  0  0  0
   55.5270   30.1430   44.7070 O   0  0  0  0  0  0  0  0  0  0  0  0
   57.7200   31.6720   44.7870 C   0  0  0  0  0  0  0  0  0  0  0  0
   57.8070   32.9150   44.1450 C   0  0  0  0  0  0  0  0  0  0  0  0
   58.5100   33.9670   44.7390 C   0  0  0  0  0  0  0  0  0  0  0  0
   59.1340   33.7870   45.9830 C   0  0  0  0  0  0  0  0  0  0  0  0
   59.9190   34.9040   46.6150 C   0  0  0  0  0  0  0  0  0  0  0  0
   60.7240   34.3910   47.7210 N   0  0  0  0  0  0  0  0  0  0  0  0
   62.0350   33.8370   47.5200 C   0  0  0  0  0  0  0  0  0  0  0  0
   62.5880   33.9360   46.3910 O   0  0  0  0  0  0  0  0  0  0  0  0
   62.7570   33.1540   48.6170 C   0  0  0  0  0  0  0  0  0  0  0  0
   62.1350   32.5410   49.7070 C   0  0  0  0  0  0  0  0  0  0  0  0
   63.3230   31.8910   50.7030 S   0  0  0  0  0  0  0  0  0  0  0  0
   64.6310   32.3560   49.7590 C   0  0  0  0  0  0  0  0  0  0  0  0
   66.0690   32.1530   50.1150 C   0  0  0  0  0  0  0  0  0  0  0  0
   66.6100   33.3810   50.7830 C   0  0  0  0  0  0  0  0  0  0  0  0
   67.9200   33.8470   50.5880 C   0  0  0  0  0  0  0  0  0  0  0  0
   68.1940   35.0290   51.2610 C   0  0  0  0  0  0  0  0  0  0  0  0
   66.8020   35.4970   52.0790 S   0  0  0  0  0  0  0  0  0  0  0  0
   65.8410   34.2060   51.5950 C   0  0  0  0  0  0  0  0  0  0  0  0
   64.1580   33.0500   48.6530 C   0  0  0  0  0  0  0  0  0  0  0  0
   59.0570   32.5370   46.6170 C   0  0  0  0  0  0  0  0  0  0  0  0
   58.3530   31.4860   46.0230 C   0  0  0  0  0  0  0  0  0  0  0  0
   57.9767   28.6140   45.2238 H   0  0  0  0  0  0  0  0  0  0  0  0
   57.2877   28.0261   43.6725 H   0  0  0  0  0  0  0  0  0  0  0  0
   58.7936   29.0054   43.6725 H   0  0  0  0  0  0  0  0  0  0  0  0
   57.3201   33.0632   43.1698 H   0  0  0  0  0  0  0  0  0  0  0  0
   58.5744   34.9397   44.2294 H   0  0  0  0  0  0  0  0  0  0  0  0
   60.5817   35.3543   45.8613 H   0  0  0  0  0  0  0  0  0  0  0  0
   59.2201   35.6611   47.0003 H   0  0  0  0  0  0  0  0  0  0  0  0
   60.3310   34.4690   48.6840 H   0  0  0  0  0  0  0  0  0  0  0  0
   61.0504   32.4918   49.8839 H   0  0  0  0  0  0  0  0  0  0  0  0
   66.1574   31.2968   50.7999 H   0  0  0  0  0  0  0  0  0  0  0  0
   66.6440   31.9578   49.1978 H   0  0  0  0  0  0  0  0  0  0  0  0
   68.6584   33.3250   49.9617 H   0  0  0  0  0  0  0  0  0  0  0  0
   69.1541   35.5659   51.2595 H   0  0  0  0  0  0  0  0  0  0  0  0
   64.7890   34.0428   51.8720 H   0  0  0  0  0  0  0  0  0  0  0  0
   64.8154   33.4764   47.8810 H   0  0  0  0  0  0  0  0  0  0  0  0
   59.5535   32.3839   47.5866 H   0  0  0  0  0  0  0  0  0  0  0  0
   58.2957   30.5101   46.5272 H   0  0  0  0  0  0  0  0  0  0  0  0
  1  2  1  0
  2  3  2  0
  2  4  2  0
  2  5  1  0
  5  6  2  0
  6  7  1  0
  7  8  2  0
  8  9  1  0
  9 10  1  0
 10 11  1  0
 11 12  2  0
 11 13  1  0
 13 14  2  0
 14 15  1  0
 15 16  1  0
 16 17  1  0
 17 18  1  0
 18 19  1  0
 19 20  2  0
 20 21  1  0
 21 22  1  0
 16 23  2  0
  8 24  1  0
 24 25  2  0
 25  5  1  0
 23 13  1  0
 22 18  2  0
  1 26  1  0
  1 27  1  0
  1 28  1  0
  6 29  1  0
  7 30  1  0
  9 31  1  0
  9 32  1  0
 10 33  1  0
 14 34  1  0
 17 35  1  0
 17 36  1  0
 19 37  1  0
 20 38  1  0
 22 39  1  0
 23 40  1  0
 24 41  1  0
 25 42  1  0
M  END
>  <UniqueID>  (54) 
46

>  <SMILES>  (54) 
CS(=O)(=O)c1ccc(CNC(=O)c2csc(Cc3ccsc3)c2)cc1

>  <Energy>  (54) 
88.08911423185138

>  <Genealogy>  (54) 
CS(=O)(=O)c1ccc(CNC(=O)c2csc(Cc3ccsc3)c2)cc1 (3D coordinates assigned)
CS(=O)(=O)c1ccc(CNC(=O)c2csc(Cc3ccsc3)c2)cc1 (optimized conformer: 88.08911423185138 kcal/mol)

>  <smiles>  (54) 
CS(=O)(=O)c1ccc(CNC(=O)c2csc(Cc3ccsc3)c2)cc1

>  <score_type>  (54) 
oracle

>  <origin>  (54) 
adg

>  <m_score__min__energy>  (54) 
-8.5500000000000007

>  <m_primary>  (54) 
energy

$$$$
54:0
     RDKit          3D

 66 70  0  0  0  0  0  0  0  0999 V2000
   58.2680   21.5270   45.3080 C   0  0  0  0  0  0  0  0  0  0  0  0
   58.1290   22.4840   46.3570 O   0  0  0  0  0  0  0  0  0  0  0  0
   57.6120   23.7770   46.1860 C   0  0  0  0  0  0  0  0  0  0  0  0
   56.2310   23.9620   46.3260 C   0  0  0  0  0  0  0  0  0  0  0  0
   55.6600   25.2240   46.1430 C   0  0  0  0  0  0  0  0  0  0  0  0
   56.4680   26.3180   45.8220 C   0  0  0  0  0  0  0  0  0  0  0  0
   55.9110   27.5390   45.6200 N   0  0  0  0  0  0  0  0  0  0  0  0
   56.6560   28.6290   45.2980 C   0  0  0  0  0  0  0  0  0  0  0  0
   56.0750   29.7280   45.0990 O   0  0  0  0  0  0  0  0  0  0  0  0
   58.0590   28.5210   45.1750 C   0  0  0  0  0  0  0  0  0  0  0  0
   58.9210   29.7120   44.7860 C   0  0  0  0  0  0  0  0  0  0  0  0
   58.7780   30.8830   45.6850 N   0  0  0  0  0  0  0  0  0  0  0  0
   58.5230   30.5130   47.0930 C   0  0  0  0  0  0  0  0  0  0  0  0
   59.8060   30.5370   47.8710 C   0  0  0  0  0  0  0  0  0  0  0  0
   60.5110   31.6550   48.1150 N   0  0  0  0  0  0  0  0  0  0  0  0
   61.5110   31.2620   48.9350 C   0  0  0  0  0  0  0  0  0  0  0  0
   62.5420   32.1570   49.5090 C   0  0  0  0  0  0  0  0  0  0  0  0
   62.2400   33.4780   49.8880 C   0  0  0  0  0  0  0  0  0  0  0  0
   63.2230   34.2950   50.4490 C   0  0  0  0  0  0  0  0  0  0  0  0
   64.5190   33.8100   50.6340 C   0  0  0  0  0  0  0  0  0  0  0  0
   64.8430   32.5020   50.2510 C   0  0  0  0  0  0  0  0  0  0  0  0
   66.2270   31.9610   50.4650 C   0  0  0  0  0  0  0  0  0  0  0  0
   63.8520   31.6790   49.6930 C   0  0  0  0  0  0  0  0  0  0  0  0
   61.4480   29.9720   49.1920 O   0  0  0  0  0  0  0  0  0  0  0  0
   60.4070   29.4940   48.5500 C   0  0  0  0  0  0  0  0  0  0  0  0
   59.9600   28.0690   48.6220 C   0  0  0  0  0  0  0  0  0  0  0  0
   57.8510   31.9210   45.1730 C   0  0  0  0  0  0  0  0  0  0  0  0
   58.0900   33.2450   45.9140 C   0  0  2  0  0  0  0  0  0  0  0  0
   58.0250   34.4470   44.9700 C   0  0  0  0  0  0  0  0  0  0  0  0
   59.2850   35.2050   45.2710 C   0  0  0  0  0  0  0  0  0  0  0  0
   60.1690   34.1610   45.9110 C   0  0  0  0  0  0  0  0  0  0  0  0
   59.3520   33.2100   46.5480 O   0  0  0  0  0  0  0  0  0  0  0  0
   58.6480   27.2580   45.3560 C   0  0  0  0  0  0  0  0  0  0  0  0
   57.8600   26.1500   45.6890 C   0  0  0  0  0  0  0  0  0  0  0  0
   58.4300   24.8810   45.8740 C   0  0  0  0  0  0  0  0  0  0  0  0
   58.4133   20.5265   45.7414 H   0  0  0  0  0  0  0  0  0  0  0  0
   57.3601   21.5293   44.6869 H   0  0  0  0  0  0  0  0  0  0  0  0
   59.1377   21.7874   44.6869 H   0  0  0  0  0  0  0  0  0  0  0  0
   55.5898   23.1058   46.5824 H   0  0  0  0  0  0  0  0  0  0  0  0
   54.5734   25.3565   46.2517 H   0  0  0  0  0  0  0  0  0  0  0  0
   59.9741   29.3945   44.7973 H   0  0  0  0  0  0  0  0  0  0  0  0
   58.5849   30.0345   43.7895 H   0  0  0  0  0  0  0  0  0  0  0  0
   57.8154   31.2296   47.5354 H   0  0  0  0  0  0  0  0  0  0  0  0
   58.0985   29.4988   47.1284 H   0  0  0  0  0  0  0  0  0  0  0  0
   60.2830   32.6140   47.7740 H   0  0  0  0  0  0  0  0  0  0  0  0
   61.2225   33.8695   49.7412 H   0  0  0  0  0  0  0  0  0  0  0  0
   62.9756   35.3247   50.7464 H   0  0  0  0  0  0  0  0  0  0  0  0
   65.2879   34.4568   51.0818 H   0  0  0  0  0  0  0  0  0  0  0  0
   66.4273   31.8827   51.5438 H   0  0  0  0  0  0  0  0  0  0  0  0
   66.3069   30.9655   50.0040 H   0  0  0  0  0  0  0  0  0  0  0  0
   66.9608   32.6385   50.0040 H   0  0  0  0  0  0  0  0  0  0  0  0
   64.1025   30.6497   49.3966 H   0  0  0  0  0  0  0  0  0  0  0  0
   59.8653   27.7672   49.6755 H   0  0  0  0  0  0  0  0  0  0  0  0
   58.9859   27.9645   48.1217 H   0  0  0  0  0  0  0  0  0  0  0  0
   60.6999   27.4269   48.1217 H   0  0  0  0  0  0  0  0  0  0  0  0
   58.0262   32.0682   44.0971 H   0  0  0  0  0  0  0  0  0  0  0  0
   56.8137   31.5946   45.3390 H   0  0  0  0  0  0  0  0  0  0  0  0
   57.2914   33.3611   46.6615 H   0  0  0  0  0  0  0  0  0  0  0  0
   58.0053   34.1203   43.9198 H   0  0  0  0  0  0  0  0  0  0  0  0
   57.1184   35.0532   45.1138 H   0  0  0  0  0  0  0  0  0  0  0  0
   59.7401   35.5963   44.3492 H   0  0  0  0  0  0  0  0  0  0  0  0
   59.1184   36.0826   45.9129 H   0  0  0  0  0  0  0  0  0  0  0  0
   60.7787   33.6682   45.1393 H   0  0  0  0  0  0  0  0  0  0  0  0
   60.8376   34.6340   46.6454 H   0  0  0  0  0  0  0  0  0  0  0  0
   59.7349   27.1393   45.2353 H   0  0  0  0  0  0  0  0  0  0  0  0
   59.5175   24.7480   45.7752 H   0  0  0  0  0  0  0  0  0  0  0  0
  1  2  1  0
  2  3  1  0
  3  4  2  0
  4  5  1  0
  5  6  2  0
  6  7  1  0
  7  8  1  0
  8  9  2  0
  8 10  1  0
 10 11  1  0
 11 12  1  0
 12 13  1  0
 13 14  1  0
 14 15  1  0
 15 16  2  0
 16 17  1  0
 17 18  2  0
 18 19  1  0
 19 20  2  0
 20 21  1  0
 21 22  1  0
 21 23  2  0
 16 24  1  0
 24 25  1  0
 25 26  1  0
 12 27  1  0
 27 28  1  0
 28 29  1  0
 29 30  1  0
 30 31  1  0
 31 32  1  0
 10 33  2  0
 33 34  1  0
 34 35  2  0
 35  3  1  0
 34  6  1  0
 25 14  2  0
 32 28  1  0
 23 17  1  0
  1 36  1  0
  1 37  1  0
  1 38  1  0
  4 39  1  0
  5 40  1  0
 11 41  1  0
 11 42  1  0
 13 43  1  0
 13 44  1  0
 15 45  1  0
 18 46  1  0
 19 47  1  0
 20 48  1  0
 22 49  1  0
 22 50  1  0
 22 51  1  0
 23 52  1  0
 26 53  1  0
 26 54  1  0
 26 55  1  0
 27 56  1  0
 27 57  1  0
 28 58  1  1
 29 59  1  0
 29 60  1  0
 30 61  1  0
 30 62  1  0
 31 63  1  0
 31 64  1  0
 33 65  1  0
 35 66  1  0
M  CHG  2   7  -1  15   1
M  END
>  <UniqueID>  (55) 
47

>  <SMILES>  (55) 
COc1ccc2[n-]c(=O)c(CN(Cc3[nH+]c(-c4cccc(C)c4)oc3C)C[C@@H]3CCCO3)cc2c1

>  <Energy>  (55) 
107.78836145188716

>  <Genealogy>  (55) 
COc1ccc2[n-]c(=O)c(CN(Cc3[nH+]c(-c4cccc(C)c4)oc3C)CC3CCCO3)cc2c1 (protonated)
COc1ccc2[n-]c(=O)c(CN(Cc3[nH+]c(-c4cccc(C)c4)oc3C)C[C@@H]3CCCO3)cc2c1 (chirality)
COc1ccc2[n-]c(=O)c(CN(Cc3[nH+]c(-c4cccc(C)c4)oc3C)C[C@@H]3CCCO3)cc2c1 (3D coordinates assigned)
COc1ccc2[n-]c(=O)c(CN(Cc3[nH+]c(-c4cccc(C)c4)oc3C)C[C@@H]3CCCO3)cc2c1 (nonaromatic ring conformer: 107.78836145188716 kcal/mol)

>  <smiles>  (55) 
COc1ccc2[nH]c(=O)c(CN(Cc3nc(-c4cccc(C)c4)oc3C)CC3CCCO3)cc2c1

>  <score_type>  (55) 
oracle

>  <origin>  (55) 
adg

>  <m_score__min__energy>  (55) 
-9.8399999999999999

>  <m_primary>  (55) 
energy

$$$$
55:0
     RDKit          3D

 28 29  0  0  0  0  0  0  0  0999 V2000
   56.9292   21.5093   42.4703 H   0  0  0  0  0  0  0  0  0  0  0  0
   56.9340   22.2450   43.2880 C   0  0  0  0  0  0  0  0  0  0  0  0
   57.9830   22.2560   44.2130 C   0  0  0  0  0  0  0  0  0  0  0  0
   58.8013   21.5262   44.1242 H   0  0  0  0  0  0  0  0  0  0  0  0
   57.9930   23.1930   45.2500 C   0  0  0  0  0  0  0  0  0  0  0  0
   58.8161   23.1937   45.9798 H   0  0  0  0  0  0  0  0  0  0  0  0
   56.9560   24.1340   45.3640 C   0  0  0  0  0  0  0  0  0  0  0  0
   56.9450   25.1260   46.4970 C   0  0  0  0  0  0  0  0  0  0  0  0
   57.9738   25.2790   46.8550 H   0  0  0  0  0  0  0  0  0  0  0  0
   56.3168   24.7327   47.3099 H   0  0  0  0  0  0  0  0  0  0  0  0
   56.3800   26.4410   46.0360 C   0  0  0  0  0  0  0  0  0  0  0  0
   55.1300   26.5920   45.9820 O   0  0  0  0  0  0  0  0  0  0  0  0
   57.2270   27.4950   45.5610 N   0  0  0  0  0  0  0  0  0  0  0  0
   56.8410   28.6850   45.2050 C   0  0  0  0  0  0  0  0  0  0  0  0
   57.6750   29.7410   45.1830 N   0  0  0  0  0  0  0  0  0  0  0  0
   56.8610   30.7160   44.7250 C   0  0  0  0  0  0  0  0  0  0  0  0
   57.3930   32.4050   44.4700 S   0  0  0  0  0  0  0  0  0  0  0  0
   57.7710   32.6710   46.2300 C   0  0  0  0  0  0  0  0  0  0  0  0
   57.0268   32.1473   46.8481 H   0  0  0  0  0  0  0  0  0  0  0  0
   58.7742   32.2787   46.4529 H   0  0  0  0  0  0  0  0  0  0  0  0
   57.7404   33.7477   46.4529 H   0  0  0  0  0  0  0  0  0  0  0  0
   55.6120   30.2850   44.4660 N   0  0  0  0  0  0  0  0  0  0  0  0
   55.6050   29.0000   44.7710 N   0  0  0  0  0  0  0  0  0  0  0  0
   54.7840   28.3720   44.6390 H   0  0  0  0  0  0  0  0  0  0  0  0
   55.8990   24.1080   44.4390 C   0  0  0  0  0  0  0  0  0  0  0  0
   55.0735   24.8293   44.5301 H   0  0  0  0  0  0  0  0  0  0  0  0
   55.8920   23.1690   43.4030 C   0  0  0  0  0  0  0  0  0  0  0  0
   55.0652   23.1576   42.6776 H   0  0  0  0  0  0  0  0  0  0  0  0
  1  2  1  0
  2  3  2  0
  3  4  1  0
  3  5  1  0
  5  6  1  0
  5  7  2  0
  7  8  1  0
  8  9  1  0
  8 10  1  0
  8 11  1  0
 11 12  2  0
 11 13  1  0
 13 14  2  0
 14 15  1  0
 15 16  2  0
 16 17  1  0
 17 18  1  0
 18 19  1  0
 18 20  1  0
 18 21  1  0
 16 22  1  0
 22 23  1  0
 23 24  1  0
  7 25  1  0
 25 26  1  0
 25 27  2  0
 27 28  1  0
 27  2  1  0
 23 14  1  0
M  CHG  1  22  -1
M  END
>  <UniqueID>  (56) 
48

>  <SMILES>  (56) 
CSc1n/c(=N/C(=O)Cc2ccccc2)[nH][n-]1

>  <Energy>  (56) 
63.16798379977719

>  <Genealogy>  (56) 
CSc1nc(=NC(=O)Cc2ccccc2)[nH][n-]1 (protonated)
CSc1n/c(=N/C(=O)Cc2ccccc2)[nH][n-]1 (cis-trans isomerization)
CSc1n/c(=N/C(=O)Cc2ccccc2)[nH][n-]1 (3D coordinates assigned)
CSc1n/c(=N/C(=O)Cc2ccccc2)[nH][n-]1 (optimized conformer: 63.16798379977719 kcal/mol)

>  <smiles>  (56) 
CSc1nc(=NC(=O)Cc2ccccc2)[nH][nH]1

>  <score_type>  (56) 
oracle

>  <origin>  (56) 
adg

>  <m_score__min__energy>  (56) 
-8.8499999999999996

>  <m_primary>  (56) 
energy

$$$$
56:0
     RDKit          3D

 36 37  0  0  0  0  0  0  0  0999 V2000
   56.8630   29.1410   42.8870 N   0  0  0  0  0  0  0  0  0  0  0  0
   56.5810   29.6210   44.5230 S   0  0  0  0  0  0  0  0  0  0  0  0
   56.8510   31.0930   44.6680 O   0  0  0  0  0  0  0  0  0  0  0  0
   55.1450   29.3590   44.8830 O   0  0  0  0  0  0  0  0  0  0  0  0
   57.6400   28.7110   45.5980 C   0  0  0  0  0  0  0  0  0  0  0  0
   57.4080   27.3490   45.8280 C   0  0  0  0  0  0  0  0  0  0  0  0
   58.2350   26.6360   46.6990 C   0  0  0  0  0  0  0  0  0  0  0  0
   59.2970   27.2760   47.3430 C   0  0  0  0  0  0  0  0  0  0  0  0
   59.5490   28.6400   47.1100 C   0  0  0  0  0  0  0  0  0  0  0  0
   60.6150   29.3280   47.7840 N   0  0  0  0  0  0  0  0  0  0  0  0
   60.5850   30.7250   48.1160 C   0  0  0  0  0  0  0  0  0  0  0  0
   62.0110   31.5160   48.3010 S   0  0  0  0  0  0  0  0  0  0  0  0
   59.3350   31.3710   48.4190 N   0  0  0  0  0  0  0  0  0  0  0  0
   59.1930   32.8050   48.6700 C   0  0  0  0  0  0  0  0  0  0  0  0
   58.9630   33.5480   47.3800 C   0  0  0  0  0  0  0  0  0  0  0  0
   57.8500   33.2380   46.5800 C   0  0  0  0  0  0  0  0  0  0  0  0
   57.6320   33.9240   45.3820 C   0  0  0  0  0  0  0  0  0  0  0  0
   58.5230   34.9190   44.9710 C   0  0  0  0  0  0  0  0  0  0  0  0
   59.6370   35.2280   45.7590 C   0  0  0  0  0  0  0  0  0  0  0  0
   59.8580   34.5440   46.9580 C   0  0  0  0  0  0  0  0  0  0  0  0
   58.7000   29.3550   46.2510 C   0  0  0  0  0  0  0  0  0  0  0  0
   56.6970   28.1100   42.8380 H   0  0  0  0  0  0  0  0  0  0  0  0
   57.8790   29.2920   42.6960 H   0  0  0  0  0  0  0  0  0  0  0  0
   56.5739   26.8405   45.3223 H   0  0  0  0  0  0  0  0  0  0  0  0
   58.0495   25.5667   46.8786 H   0  0  0  0  0  0  0  0  0  0  0  0
   59.9386   26.7108   48.0350 H   0  0  0  0  0  0  0  0  0  0  0  0
   61.4630   28.7780   48.0520 H   0  0  0  0  0  0  0  0  0  0  0  0
   58.4700   30.7870   48.4810 H   0  0  0  0  0  0  0  0  0  0  0  0
   58.3374   32.9717   49.3409 H   0  0  0  0  0  0  0  0  0  0  0  0
   60.1182   33.1775   49.1341 H   0  0  0  0  0  0  0  0  0  0  0  0
   57.1481   32.4529   46.8977 H   0  0  0  0  0  0  0  0  0  0  0  0
   56.7572   33.6802   44.7613 H   0  0  0  0  0  0  0  0  0  0  0  0
   58.3486   35.4589   44.0286 H   0  0  0  0  0  0  0  0  0  0  0  0
   60.3396   36.0098   45.4348 H   0  0  0  0  0  0  0  0  0  0  0  0
   60.7368   34.7872   47.5734 H   0  0  0  0  0  0  0  0  0  0  0  0
   58.8679   30.4299   46.0888 H   0  0  0  0  0  0  0  0  0  0  0  0
  1  2  1  0
  2  3  2  0
  2  4  2  0
  2  5  1  0
  5  6  2  0
  6  7  1  0
  7  8  2  0
  8  9  1  0
  9 10  1  0
 10 11  1  0
 11 12  2  0
 11 13  1  0
 13 14  1  0
 14 15  1  0
 15 16  2  0
 16 17  1  0
 17 18  2  0
 18 19  1  0
 19 20  2  0
  9 21  2  0
 21  5  1  0
 20 15  1  0
  1 22  1  0
  1 23  1  0
  6 24  1  0
  7 25  1  0
  8 26  1  0
 10 27  1  0
 13 28  1  0
 14 29  1  0
 14 30  1  0
 16 31  1  0
 17 32  1  0
 18 33  1  0
 19 34  1  0
 20 35  1  0
 21 36  1  0
M  END
>  <UniqueID>  (57) 
49

>  <SMILES>  (57) 
NS(=O)(=O)c1cccc(NC(=S)NCc2ccccc2)c1

>  <Energy>  (57) 
37.409351684039756

>  <Genealogy>  (57) 
NS(=O)(=O)c1cccc(NC(=S)NCc2ccccc2)c1 (3D coordinates assigned)
NS(=O)(=O)c1cccc(NC(=S)NCc2ccccc2)c1 (optimized conformer: 37.409351684039756 kcal/mol)

>  <smiles>  (57) 
NS(=O)(=O)c1cccc(NC(=S)NCc2ccccc2)c1

>  <score_type>  (57) 
oracle

>  <origin>  (57) 
adg

>  <m_score__min__energy>  (57) 
-8.5199999999999996

>  <m_primary>  (57) 
energy

$$$$
57:0
     RDKit          3D

 44 47  0  0  0  0  0  0  0  0999 V2000
   57.9070   21.0396   42.8352 H   0  0  0  0  0  0  0  0  0  0  0  0
   57.3650   21.8020   43.4140 C   0  0  0  0  0  0  0  0  0  0  0  0
   57.7540   22.0910   44.7240 C   0  0  0  0  0  0  0  0  0  0  0  0
   58.6027   21.5564   45.1756 H   0  0  0  0  0  0  0  0  0  0  0  0
   57.0660   23.0590   45.4620 C   0  0  0  0  0  0  0  0  0  0  0  0
   57.3770   23.2824   46.4932 H   0  0  0  0  0  0  0  0  0  0  0  0
   55.9780   23.7500   44.8950 C   0  0  0  0  0  0  0  0  0  0  0  0
   55.2450   24.7770   45.6740 C   0  0  0  0  0  0  0  0  0  0  0  0
   53.9860   24.8280   45.6110 O   0  0  0  0  0  0  0  0  0  0  0  0
   55.9740   25.7070   46.4940 N   0  0  0  0  0  0  0  0  0  0  0  0
   56.5580   26.7980   46.0930 C   0  0  0  0  0  0  0  0  0  0  0  0
   57.8990   26.9720   46.2130 N   0  0  0  0  0  0  0  0  0  0  0  0
   58.0760   28.1950   45.6930 C   0  0  0  0  0  0  0  0  0  0  0  0
   59.2690   28.8950   45.5560 C   0  0  0  0  0  0  0  0  0  0  0  0
   60.2237   28.4623   45.8896 H   0  0  0  0  0  0  0  0  0  0  0  0
   59.2140   30.1760   44.9760 C   0  0  0  0  0  0  0  0  0  0  0  0
   60.1410   30.7550   44.8518 H   0  0  0  0  0  0  0  0  0  0  0  0
   57.9770   30.7330   44.5480 C   0  0  0  0  0  0  0  0  0  0  0  0
   57.9440   32.0490   43.9490 N   0  0  0  0  0  0  0  0  0  0  0  0
   57.8120   33.2110   44.7880 C   0  0  0  0  0  0  0  0  0  0  0  0
   57.0090   34.1230   44.4510 O   0  0  0  0  0  0  0  0  0  0  0  0
   58.5820   33.3400   46.0470 C   0  0  0  0  0  0  0  0  0  0  0  0
   58.1430   32.7080   47.2260 C   0  0  0  0  0  0  0  0  0  0  0  0
   57.2238   32.1039   47.2131 H   0  0  0  0  0  0  0  0  0  0  0  0
   58.8690   32.8440   48.4130 C   0  0  0  0  0  0  0  0  0  0  0  0
   58.5223   32.3422   49.3284 H   0  0  0  0  0  0  0  0  0  0  0  0
   60.0330   33.6150   48.4400 C   0  0  0  0  0  0  0  0  0  0  0  0
   60.6038   33.7178   49.3747 H   0  0  0  0  0  0  0  0  0  0  0  0
   60.4720   34.2560   47.2780 C   0  0  0  0  0  0  0  0  0  0  0  0
   61.3868   34.8664   47.3001 H   0  0  0  0  0  0  0  0  0  0  0  0
   59.7510   34.1230   46.0880 C   0  0  0  0  0  0  0  0  0  0  0  0
   60.0993   34.6334   45.1779 H   0  0  0  0  0  0  0  0  0  0  0  0
   57.8070   32.2070   42.4970 C   0  0  0  0  0  0  0  0  0  0  0  0
   57.1003   33.0220   42.2819 H   0  0  0  0  0  0  0  0  0  0  0  0
   58.7876   32.4471   42.0602 H   0  0  0  0  0  0  0  0  0  0  0  0
   57.4304   31.2703   42.0602 H   0  0  0  0  0  0  0  0  0  0  0  0
   56.7890   29.9750   44.7080 C   0  0  0  0  0  0  0  0  0  0  0  0
   55.8164   30.3742   44.3846 H   0  0  0  0  0  0  0  0  0  0  0  0
   56.8870   28.7130   45.2850 C   0  0  0  0  0  0  0  0  0  0  0  0
   55.8950   27.8430   45.5280 N   0  0  0  0  0  0  0  0  0  0  0  0
   55.5980   23.4490   43.5730 C   0  0  0  0  0  0  0  0  0  0  0  0
   54.7511   23.9802   43.1142 H   0  0  0  0  0  0  0  0  0  0  0  0
   56.2890   22.4800   42.8390 C   0  0  0  0  0  0  0  0  0  0  0  0
   55.9842   22.2517   41.8070 H   0  0  0  0  0  0  0  0  0  0  0  0
  1  2  1  0
  2  3  2  0
  3  4  1  0
  3  5  1  0
  5  6  1  0
  5  7  2  0
  7  8  1  0
  8  9  2  0
  8 10  1  0
 10 11  2  0
 11 12  1  0
 12 13  1  0
 13 14  2  0
 14 15  1  0
 14 16  1  0
 16 17  1  0
 16 18  2  0
 18 19  1  0
 19 20  1  0
 20 21  2  0
 20 22  1  0
 22 23  2  0
 23 24  1  0
 23 25  1  0
 25 26  1  0
 25 27  2  0
 27 28  1  0
 27 29  1  0
 29 30  1  0
 29 31  2  0
 31 32  1  0
 19 33  1  0
 33 34  1  0
 33 35  1  0
 33 36  1  0
 18 37  1  0
 37 38  1  0
 37 39  2  0
 39 40  1  0
  7 41  1  0
 41 42  1  0
 41 43  2  0
 43 44  1  0
 43  2  1  0
 40 11  1  0
 39 13  1  0
 31 22  1  0
M  CHG  2  12  -1  40  -1
M  END
>  <UniqueID>  (58) 
50

>  <SMILES>  (58) 
CN(C(=O)c1ccccc1)c1ccc2[n-]/c(=N/C(=O)c3ccccc3)[n-]c2c1

>  <Energy>  (58) 
96.12260385522785

>  <Genealogy>  (58) 
CN(C(=O)c1ccccc1)c1ccc2[n-]c(=NC(=O)c3ccccc3)[n-]c2c1 (protonated)
CN(C(=O)c1ccccc1)c1ccc2[n-]/c(=N/C(=O)c3ccccc3)[n-]c2c1 (cis-trans isomerization)
CN(C(=O)c1ccccc1)c1ccc2[n-]/c(=N/C(=O)c3ccccc3)[n-]c2c1 (3D coordinates assigned)
CN(C(=O)c1ccccc1)c1ccc2[n-]/c(=N/C(=O)c3ccccc3)[n-]c2c1 (optimized conformer: 96.12260385522785 kcal/mol)

>  <smiles>  (58) 
CN(C(=O)c1ccccc1)c1ccc2[nH]c(=NC(=O)c3ccccc3)[nH]c2c1

>  <score_type>  (58) 
oracle

>  <origin>  (58) 
adg

>  <m_score__min__energy>  (58) 
-12.949999999999999

>  <m_primary>  (58) 
energy

$$$$
58:0
     RDKit          3D

 51 54  0  0  0  0  0  0  0  0999 V2000
   58.9020   30.6050   49.5420 C   0  0  0  0  0  0  0  0  0  0  0  0
   59.7510   29.5920   49.7430 C   0  0  0  0  0  0  0  0  0  0  0  0
   60.2400   28.7420   48.6100 C   0  0  0  0  0  0  0  0  0  0  0  0
   59.2790   27.6720   48.3480 N   0  0  0  0  0  0  0  0  0  0  0  0
   58.8880   27.1840   47.2020 C   0  0  0  0  0  0  0  0  0  0  0  0
   59.0320   25.8450   47.0100 N   0  0  0  0  0  0  0  0  0  0  0  0
   58.6610   25.2190   45.8630 C   0  0  0  0  0  0  0  0  0  0  0  0
   58.1010   25.9460   44.8170 C   0  0  0  0  0  0  0  0  0  0  0  0
   57.9260   27.3270   44.9590 C   0  0  0  0  0  0  0  0  0  0  0  0
   57.3780   28.0650   43.9500 N   0  0  0  0  0  0  0  0  0  0  0  0
   57.1990   29.4140   44.0710 C   0  0  0  0  0  0  0  0  0  0  0  0
   56.6550   30.1970   42.9400 C   0  0  0  0  0  0  0  0  0  0  0  0
   56.2540   29.6250   41.8940 O   0  0  0  0  0  0  0  0  0  0  0  0
   57.5750   30.0440   45.2750 C   0  0  0  0  0  0  0  0  0  0  0  0
   57.4040   31.4180   45.4770 O   0  0  0  0  0  0  0  0  0  0  0  0
   58.3150   32.2340   46.1650 C   0  0  0  0  0  0  0  0  0  0  0  0
   59.6100   31.7530   46.3850 C   0  0  0  0  0  0  0  0  0  0  0  0
   60.5490   32.5310   47.0670 C   0  0  0  0  0  0  0  0  0  0  0  0
   60.2090   33.8040   47.5390 C   0  0  0  0  0  0  0  0  0  0  0  0
   61.2080   34.5720   48.2240 N   0  0  0  0  0  0  0  0  0  0  0  0
   62.1420   34.0130   49.5760 S   0  0  0  0  0  0  0  0  0  0  0  0
   62.9840   35.1440   50.0960 O   0  0  0  0  0  0  0  0  0  0  0  0
   63.0490   32.9000   49.1320 O   0  0  0  0  0  0  0  0  0  0  0  0
   61.0610   33.4770   50.8590 C   0  0  0  0  0  0  0  0  0  0  0  0
   61.5690   32.7110   51.9160 C   0  0  0  0  0  0  0  0  0  0  0  0
   60.7230   32.2930   52.9510 C   0  0  0  0  0  0  0  0  0  0  0  0
   59.3690   32.6440   52.9350 C   0  0  0  0  0  0  0  0  0  0  0  0
   58.8580   33.4100   51.8830 C   0  0  0  0  0  0  0  0  0  0  0  0
   59.6990   33.8240   50.8440 C   0  0  0  0  0  0  0  0  0  0  0  0
   58.9070   34.2900   47.3260 C   0  0  0  0  0  0  0  0  0  0  0  0
   57.9660   33.5090   46.6490 C   0  0  0  0  0  0  0  0  0  0  0  0
   58.1320   29.3050   46.2660 N   0  0  0  0  0  0  0  0  0  0  0  0
   58.3210   27.9640   46.1550 C   0  0  0  0  0  0  0  0  0  0  0  0
   58.5595   31.2126   50.3926 H   0  0  0  0  0  0  0  0  0  0  0  0
   58.5460   30.8309   48.5260 H   0  0  0  0  0  0  0  0  0  0  0  0
   60.0988   29.3774   50.7643 H   0  0  0  0  0  0  0  0  0  0  0  0
   60.3514   29.3626   47.7086 H   0  0  0  0  0  0  0  0  0  0  0  0
   61.2121   28.3020   48.8772 H   0  0  0  0  0  0  0  0  0  0  0  0
   58.8038   24.1331   45.7606 H   0  0  0  0  0  0  0  0  0  0  0  0
   57.7990   25.4403   43.8880 H   0  0  0  0  0  0  0  0  0  0  0  0
   57.0990   27.5850   43.0630 H   0  0  0  0  0  0  0  0  0  0  0  0
   56.6005   31.2931   43.0147 H   0  0  0  0  0  0  0  0  0  0  0  0
   59.8912   30.7548   46.0183 H   0  0  0  0  0  0  0  0  0  0  0  0
   61.5634   32.1400   47.2343 H   0  0  0  0  0  0  0  0  0  0  0  0
   62.6343   32.4373   51.9332 H   0  0  0  0  0  0  0  0  0  0  0  0
   61.1238   31.6879   53.7775 H   0  0  0  0  0  0  0  0  0  0  0  0
   58.7064   32.3174   53.7500 H   0  0  0  0  0  0  0  0  0  0  0  0
   57.7937   33.6876   51.8720 H   0  0  0  0  0  0  0  0  0  0  0  0
   59.2936   34.4218   50.0144 H   0  0  0  0  0  0  0  0  0  0  0  0
   58.6279   35.2885   47.6935 H   0  0  0  0  0  0  0  0  0  0  0  0
   56.9469   33.8929   46.4935 H   0  0  0  0  0  0  0  0  0  0  0  0
  1  2  2  0
  2  3  1  0
  3  4  1  0
  4  5  2  3
  5  6  1  0
  6  7  1  0
  7  8  2  0
  8  9  1  0
  9 10  2  0
 10 11  1  0
 11 12  1  0
 12 13  2  0
 11 14  2  0
 14 15  1  0
 15 16  1  0
 16 17  2  0
 17 18  1  0
 18 19  2  0
 19 20  1  0
 20 21  1  0
 21 22  2  0
 21 23  2  0
 21 24  1  0
 24 25  2  0
 25 26  1  0
 26 27  2  0
 27 28  1  0
 28 29  2  0
 19 30  1  0
 30 31  2  0
 14 32  1  0
 32 33  2  0
 33  5  1  0
 33  9  1  0
 31 16  1  0
 29 24  1  0
  1 34  1  0
  1 35  1  0
  2 36  1  0
  3 37  1  0
  3 38  1  0
  7 39  1  0
  8 40  1  0
 10 41  1  0
 12 42  1  0
 17 43  1  0
 18 44  1  0
 25 45  1  0
 26 46  1  0
 27 47  1  0
 28 48  1  0
 29 49  1  0
 30 50  1  0
 31 51  1  0
M  CHG  3   6  -1  10   1  20  -1
M  END
>  <UniqueID>  (59) 
51

>  <SMILES>  (59) 
C=CCN=c1[n-]ccc2[nH+]c(C=O)c(Oc3ccc([N-]S(=O)(=O)c4ccccc4)cc3)nc12

>  <Energy>  (59) 
74.08960579752015

>  <Genealogy>  (59) 
C=CCN=c1[n-]ccc2[nH+]c(C=O)c(Oc3ccc([N-]S(=O)(=O)c4ccccc4)cc3)nc12 (protonated)
C=CCN=c1[n-]ccc2[nH+]c(C=O)c(Oc3ccc([N-]S(=O)(=O)c4ccccc4)cc3)nc12 (3D coordinates assigned)
C=CCN=c1[n-]ccc2[nH+]c(C=O)c(Oc3ccc([N-]S(=O)(=O)c4ccccc4)cc3)nc12 (optimized conformer: 74.08960579752015 kcal/mol)

>  <smiles>  (59) 
C=CCN=c1[nH]ccc2nc(C=O)c(Oc3ccc(NS(=O)(=O)c4ccccc4)cc3)nc12

>  <score_type>  (59) 
oracle

>  <origin>  (59) 
adg

>  <m_score__min__energy>  (59) 
-10.029999999999999

>  <m_primary>  (59) 
energy

$$$$
59:0
     RDKit          3D

 40 42  0  0  0  0  0  0  0  0999 V2000
   58.5930   29.1300   47.1390 O   0  0  0  0  0  0  0  0  0  0  0  0
   58.0580   28.1690   46.5230 C   0  0  0  0  0  0  0  0  0  0  0  0
   58.1260   26.7960   47.1080 C   0  0  0  0  0  0  0  0  0  0  0  0
   58.1380   25.5660   45.7650 S   0  0  0  0  0  0  0  0  0  0  0  0
   56.3580   25.3920   45.7570 C   0  0  0  0  0  0  0  0  0  0  0  0
   55.7240   24.2330   45.4970 N   0  0  0  0  0  0  0  0  0  0  0  0
   54.4320   24.5970   45.6080 C   0  0  0  0  0  0  0  0  0  0  0  0
   54.2920   25.8990   45.9190 N   0  0  0  0  0  0  0  0  0  0  0  0
   55.5100   26.4020   46.0140 N   0  0  0  0  0  0  0  0  0  0  0  0
   57.3100   28.3970   45.3190 N   0  0  0  0  0  0  0  0  0  0  0  0
   57.3270   29.6300   44.5790 C   0  0  0  0  0  0  0  0  0  0  0  0
   56.9340   29.6300   43.2330 C   0  0  0  0  0  0  0  0  0  0  0  0
   56.9690   30.8100   42.4850 C   0  0  0  0  0  0  0  0  0  0  0  0
   57.4080   31.9990   43.0720 C   0  0  0  0  0  0  0  0  0  0  0  0
   57.8180   32.0130   44.4100 C   0  0  0  0  0  0  0  0  0  0  0  0
   58.4180   33.5030   45.1330 S   0  0  0  0  0  0  0  0  0  0  0  0
   59.2680   34.2310   44.1300 O   0  0  0  0  0  0  0  0  0  0  0  0
   57.2590   34.3860   45.5080 O   0  0  0  0  0  0  0  0  0  0  0  0
   59.3770   33.1170   46.5390 N   0  0  0  0  0  0  0  0  0  0  0  0
   58.8860   33.8140   47.7260 C   0  0  0  0  0  0  0  0  0  0  0  0
   60.0780   33.9760   48.6570 C   0  0  0  0  0  0  0  0  0  0  0  0
   61.3040   33.8160   47.7710 C   0  0  0  0  0  0  0  0  0  0  0  0
   60.7620   33.5560   46.3740 C   0  0  0  0  0  0  0  0  0  0  0  0
   57.7900   30.8260   45.1580 C   0  0  0  0  0  0  0  0  0  0  0  0
   59.0446   26.6965   47.7049 H   0  0  0  0  0  0  0  0  0  0  0  0
   57.2507   26.6276   47.7526 H   0  0  0  0  0  0  0  0  0  0  0  0
   53.5870   23.9082   45.4611 H   0  0  0  0  0  0  0  0  0  0  0  0
   56.6480   27.6480   45.0090 H   0  0  0  0  0  0  0  0  0  0  0  0
   56.5959   28.6949   42.7627 H   0  0  0  0  0  0  0  0  0  0  0  0
   56.6503   30.8024   41.4322 H   0  0  0  0  0  0  0  0  0  0  0  0
   57.4315   32.9266   42.4812 H   0  0  0  0  0  0  0  0  0  0  0  0
   58.4840   34.7996   47.4486 H   0  0  0  0  0  0  0  0  0  0  0  0
   58.0763   33.2497   48.2117 H   0  0  0  0  0  0  0  0  0  0  0  0
   60.0685   34.9712   49.1256 H   0  0  0  0  0  0  0  0  0  0  0  0
   60.0634   33.2394   49.4739 H   0  0  0  0  0  0  0  0  0  0  0  0
   61.9104   34.7336   47.7838 H   0  0  0  0  0  0  0  0  0  0  0  0
   61.9541   32.9985   48.1161 H   0  0  0  0  0  0  0  0  0  0  0  0
   60.7993   34.4776   45.7747 H   0  0  0  0  0  0  0  0  0  0  0  0
   61.3601   32.7950   45.8514 H   0  0  0  0  0  0  0  0  0  0  0  0
   58.1321   30.8305   46.2034 H   0  0  0  0  0  0  0  0  0  0  0  0
  1  2  2  0
  2  3  1  0
  3  4  1  0
  4  5  1  0
  5  6  1  0
  6  7  2  0
  7  8  1  0
  8  9  1  0
  2 10  1  0
 10 11  1  0
 11 12  2  0
 12 13  1  0
 13 14  2  0
 14 15  1  0
 15 16  1  0
 16 17  2  0
 16 18  2  0
 16 19  1  0
 19 20  1  0
 20 21  1  0
 21 22  1  0
 22 23  1  0
 15 24  2  0
  9  5  2  0
 24 11  1  0
 23 19  1  0
  3 25  1  0
  3 26  1  0
  7 27  1  0
 10 28  1  0
 12 29  1  0
 13 30  1  0
 14 31  1  0
 20 32  1  0
 20 33  1  0
 21 34  1  0
 21 35  1  0
 22 36  1  0
 22 37  1  0
 23 38  1  0
 23 39  1  0
 24 40  1  0
M  CHG  1   8  -1
M  END
>  <UniqueID>  (60) 
52

>  <SMILES>  (60) 
O=C(CSc1nc[n-]n1)Nc1cccc(S(=O)(=O)N2CCCC2)c1

>  <Energy>  (60) 
71.08356470904586

>  <Genealogy>  (60) 
O=C(CSc1nc[n-]n1)Nc1cccc(S(=O)(=O)N2CCCC2)c1 (protonated)
O=C(CSc1nc[n-]n1)Nc1cccc(S(=O)(=O)N2CCCC2)c1 (3D coordinates assigned)
O=C(CSc1nc[n-]n1)Nc1cccc(S(=O)(=O)N2CCCC2)c1 (nonaromatic ring conformer: 71.08356470904586 kcal/mol)

>  <smiles>  (60) 
O=C(CSc1nc[nH]n1)Nc1cccc(S(=O)(=O)N2CCCC2)c1

>  <score_type>  (60) 
oracle

>  <origin>  (60) 
adg

>  <m_score__min__energy>  (60) 
-11.07

>  <m_primary>  (60) 
energy

$$$$
60:0
     RDKit          3D

 50 53  0  0  0  0  0  0  0  0999 V2000
   61.5150   29.7910   48.4880 O   0  0  0  0  0  0  0  0  0  0  0  0
   61.5750   30.5920   47.5190 C   0  0  0  0  0  0  0  0  0  0  0  0
   62.5460   31.6430   47.5570 N   0  0  0  0  0  0  0  0  0  0  0  0
   62.9240   32.3990   48.7170 C   0  0  0  0  0  0  0  0  0  0  0  0
   63.9000   31.9170   49.6080 C   0  0  0  0  0  0  0  0  0  0  0  0
   64.2840   32.6790   50.7120 C   0  0  0  0  0  0  0  0  0  0  0  0
   63.7140   33.9330   50.9290 C   0  0  0  0  0  0  0  0  0  0  0  0
   62.7630   34.4350   50.0360 C   0  0  0  0  0  0  0  0  0  0  0  0
   62.3700   33.6770   48.9160 C   0  0  0  0  0  0  0  0  0  0  0  0
   61.4030   34.1650   47.9730 N   0  0  0  0  0  0  0  0  0  0  0  0
   59.7000   34.3300   48.2560 S   0  0  0  0  0  0  0  0  0  0  0  0
   59.1610   35.4910   47.4660 O   0  0  0  0  0  0  0  0  0  0  0  0
   59.4790   34.5970   49.7180 O   0  0  0  0  0  0  0  0  0  0  0  0
   58.8610   32.8180   47.8100 C   0  0  0  0  0  0  0  0  0  0  0  0
   58.5540   32.8020   46.3390 C   0  0  0  0  0  0  0  0  0  0  0  0
   57.6970   31.8250   45.8040 C   0  0  0  0  0  0  0  0  0  0  0  0
   57.4400   31.7890   44.4300 C   0  0  0  0  0  0  0  0  0  0  0  0
   58.0410   32.7230   43.5810 C   0  0  0  0  0  0  0  0  0  0  0  0
   58.9020   33.6920   44.1040 C   0  0  0  0  0  0  0  0  0  0  0  0
   59.1640   33.7300   45.4770 C   0  0  0  0  0  0  0  0  0  0  0  0
   60.7010   30.4370   46.3850 N   0  0  0  0  0  0  0  0  0  0  0  0
   59.7030   29.4090   46.2750 C   0  0  0  0  0  0  0  0  0  0  0  0
   59.2370   28.9700   45.0240 C   0  0  0  0  0  0  0  0  0  0  0  0
   58.2460   27.9870   44.9440 C   0  0  0  0  0  0  0  0  0  0  0  0
   57.6900   27.4330   46.1120 C   0  0  0  0  0  0  0  0  0  0  0  0
   56.6390   26.3880   46.0460 C   0  0  0  0  0  0  0  0  0  0  0  0
   56.8250   25.0180   46.0220 C   0  0  0  0  0  0  0  0  0  0  0  0
   55.5490   24.5020   45.9580 C   0  0  0  0  0  0  0  0  0  0  0  0
   54.6580   25.5100   45.9460 N   0  0  0  0  0  0  0  0  0  0  0  0
   55.3190   26.6550   45.9990 N   0  0  0  0  0  0  0  0  0  0  0  0
   58.1420   27.8950   47.3610 C   0  0  0  0  0  0  0  0  0  0  0  0
   59.1320   28.8800   47.4400 C   0  0  0  0  0  0  0  0  0  0  0  0
   64.3628   30.9345   49.4335 H   0  0  0  0  0  0  0  0  0  0  0  0
   65.0377   32.2898   51.4124 H   0  0  0  0  0  0  0  0  0  0  0  0
   64.0132   34.5281   51.8044 H   0  0  0  0  0  0  0  0  0  0  0  0
   62.3195   35.4267   50.2088 H   0  0  0  0  0  0  0  0  0  0  0  0
   59.5051   31.9606   48.0549 H   0  0  0  0  0  0  0  0  0  0  0  0
   57.9172   32.7553   48.3716 H   0  0  0  0  0  0  0  0  0  0  0  0
   57.2265   31.0857   46.4688 H   0  0  0  0  0  0  0  0  0  0  0  0
   56.7646   31.0254   44.0169 H   0  0  0  0  0  0  0  0  0  0  0  0
   57.8362   32.6953   42.5006 H   0  0  0  0  0  0  0  0  0  0  0  0
   59.3742   34.4259   43.4344 H   0  0  0  0  0  0  0  0  0  0  0  0
   59.8494   34.4882   45.8838 H   0  0  0  0  0  0  0  0  0  0  0  0
   60.7420   31.1480   45.6230 H   0  0  0  0  0  0  0  0  0  0  0  0
   59.6543   29.4022   44.1025 H   0  0  0  0  0  0  0  0  0  0  0  0
   57.8977   27.6434   43.9588 H   0  0  0  0  0  0  0  0  0  0  0  0
   57.7758   24.4655   46.0481 H   0  0  0  0  0  0  0  0  0  0  0  0
   55.2977   23.4317   45.9223 H   0  0  0  0  0  0  0  0  0  0  0  0
   57.7131   27.4780   48.2841 H   0  0  0  0  0  0  0  0  0  0  0  0
   59.4647   29.2420   48.4240 H   0  0  0  0  0  0  0  0  0  0  0  0
  1  2  2  0
  2  3  1  0
  3  4  1  0
  4  5  2  0
  5  6  1  0
  6  7  2  0
  7  8  1  0
  8  9  2  0
  9 10  1  0
 10 11  1  0
 11 12  2  0
 11 13  2  0
 11 14  1  0
 14 15  1  0
 15 16  2  0
 16 17  1  0
 17 18  2  0
 18 19  1  0
 19 20  2  0
  2 21  1  0
 21 22  1  0
 22 23  2  0
 23 24  1  0
 24 25  2  0
 25 26  1  0
 26 27  1  0
 27 28  2  0
 28 29  1  0
 29 30  1  0
 25 31  1  0
 31 32  2  0
  9  4  1  0
 20 15  1  0
 32 22  1  0
 30 26  2  0
  5 33  1  0
  6 34  1  0
  7 35  1  0
  8 36  1  0
 14 37  1  0
 14 38  1  0
 16 39  1  0
 17 40  1  0
 18 41  1  0
 19 42  1  0
 20 43  1  0
 21 44  1  0
 23 45  1  0
 24 46  1  0
 27 47  1  0
 28 48  1  0
 31 49  1  0
 32 50  1  0
M  CHG  3   3  -1  10  -1  29  -1
M  END
>  <UniqueID>  (61) 
53

>  <SMILES>  (61) 
O=C([N-]c1ccccc1[N-]S(=O)(=O)Cc1ccccc1)Nc1ccc(-c2cc[n-]n2)cc1

>  <Energy>  (61) 
92.44607562431356

>  <Genealogy>  (61) 
O=C([N-]c1ccccc1[N-]S(=O)(=O)Cc1ccccc1)Nc1ccc(-c2cc[n-]n2)cc1 (protonated)
O=C([N-]c1ccccc1[N-]S(=O)(=O)Cc1ccccc1)Nc1ccc(-c2cc[n-]n2)cc1 (3D coordinates assigned)
O=C([N-]c1ccccc1[N-]S(=O)(=O)Cc1ccccc1)Nc1ccc(-c2cc[n-]n2)cc1 (optimized conformer: 92.44607562431356 kcal/mol)

>  <smiles>  (61) 
O=C(Nc1ccc(-c2cc[nH]n2)cc1)Nc1ccccc1NS(=O)(=O)Cc1ccccc1

>  <score_type>  (61) 
oracle

>  <origin>  (61) 
adg

>  <m_score__min__energy>  (61) 
-13.52

>  <m_primary>  (61) 
energy

$$$$
61:0
     RDKit          3D

 55 59  0  0  0  0  0  0  0  0999 V2000
   56.3630   30.4060   52.3880 C   0  0  0  0  0  0  0  0  0  0  0  0
   57.3950   29.9090   51.5440 O   0  0  0  0  0  0  0  0  0  0  0  0
   58.3270   30.7140   50.8740 C   0  0  0  0  0  0  0  0  0  0  0  0
   59.5760   30.2260   50.4420 C   0  0  0  0  0  0  0  0  0  0  0  0
   60.4710   31.0690   49.7800 C   0  0  0  0  0  0  0  0  0  0  0  0
   60.1470   32.4110   49.5530 C   0  0  0  0  0  0  0  0  0  0  0  0
   61.0860   33.2450   48.8580 N   0  0  0  0  0  0  0  0  0  0  0  0
   61.1470   33.4510   47.4400 C   0  0  0  0  0  0  0  0  0  0  0  0
   62.2560   33.7540   46.9240 O   0  0  0  0  0  0  0  0  0  0  0  0
   59.9350   33.3860   46.5850 C   0  0  0  0  0  0  0  0  0  0  0  0
   59.4210   34.5690   46.0260 C   0  0  0  0  0  0  0  0  0  0  0  0
   58.2870   34.5380   45.2160 C   0  0  0  0  0  0  0  0  0  0  0  0
   57.6480   33.3290   44.9430 C   0  0  0  0  0  0  0  0  0  0  0  0
   58.1420   32.1280   45.4830 C   0  0  0  0  0  0  0  0  0  0  0  0
   57.5120   30.8930   45.2280 C   0  0  0  0  0  0  0  0  0  0  0  0
   56.4860   30.8430   44.4930 O   0  0  0  0  0  0  0  0  0  0  0  0
   58.0310   29.7130   45.7970 C   0  0  0  0  0  0  0  0  0  0  0  0
   57.4370   28.4550   45.5730 C   0  0  0  0  0  0  0  0  0  0  0  0
   57.9840   27.2950   46.1500 C   0  0  0  0  0  0  0  0  0  0  0  0
   57.3830   26.0040   45.9490 N   0  0  0  0  0  0  0  0  0  0  0  0
   55.9700   25.7620   45.9700 C   0  0  0  0  0  0  0  0  0  0  0  0
   55.1530   26.7230   46.0090 O   0  0  0  0  0  0  0  0  0  0  0  0
   55.4910   24.4130   45.9360 N   0  0  0  0  0  0  0  0  0  0  0  0
   55.9900   23.3980   45.0560 C   0  0  0  0  0  0  0  0  0  0  0  0
   55.8470   23.5790   43.6740 C   0  0  0  0  0  0  0  0  0  0  0  0
   56.3170   22.6120   42.7820 C   0  0  0  0  0  0  0  0  0  0  0  0
   56.9180   21.4480   43.2640 C   0  0  0  0  0  0  0  0  0  0  0  0
   57.0380   21.2420   44.6410 C   0  0  0  0  0  0  0  0  0  0  0  0
   56.5690   22.2060   45.5440 C   0  0  0  0  0  0  0  0  0  0  0  0
   56.6380   21.8410   47.2640 Cl  0  0  0  0  0  0  0  0  0  0  0  0
   59.1060   27.4050   46.9840 C   0  0  0  0  0  0  0  0  0  0  0  0
   59.7010   28.6470   47.2120 C   0  0  0  0  0  0  0  0  0  0  0  0
   59.1750   29.7990   46.6200 C   0  0  0  0  0  0  0  0  0  0  0  0
   59.7620   31.0010   46.8490 N   0  0  0  0  0  0  0  0  0  0  0  0
   59.2930   32.1580   46.3080 C   0  0  0  0  0  0  0  0  0  0  0  0
   58.8920   32.8940   49.9620 C   0  0  0  0  0  0  0  0  0  0  0  0
   57.9960   32.0510   50.6250 C   0  0  0  0  0  0  0  0  0  0  0  0
   56.6513   30.2671   53.4404 H   0  0  0  0  0  0  0  0  0  0  0  0
   56.2096   31.4767   52.1880 H   0  0  0  0  0  0  0  0  0  0  0  0
   55.4302   29.8583   52.1880 H   0  0  0  0  0  0  0  0  0  0  0  0
   59.8474   29.1762   50.6270 H   0  0  0  0  0  0  0  0  0  0  0  0
   61.4381   30.6750   49.4344 H   0  0  0  0  0  0  0  0  0  0  0  0
   59.9186   35.5286   46.2298 H   0  0  0  0  0  0  0  0  0  0  0  0
   57.8939   35.4727   44.7896 H   0  0  0  0  0  0  0  0  0  0  0  0
   56.7538   33.3146   44.3026 H   0  0  0  0  0  0  0  0  0  0  0  0
   56.5389   28.3797   44.9423 H   0  0  0  0  0  0  0  0  0  0  0  0
   58.0010   25.2090   45.6710 H   0  0  0  0  0  0  0  0  0  0  0  0
   55.3617   24.4880   43.2890 H   0  0  0  0  0  0  0  0  0  0  0  0
   56.2133   22.7681   41.6981 H   0  0  0  0  0  0  0  0  0  0  0  0
   57.2972   20.6928   42.5599 H   0  0  0  0  0  0  0  0  0  0  0  0
   57.5027   20.3190   45.0180 H   0  0  0  0  0  0  0  0  0  0  0  0
   59.5205   26.5054   47.4624 H   0  0  0  0  0  0  0  0  0  0  0  0
   60.5870   28.7195   47.8599 H   0  0  0  0  0  0  0  0  0  0  0  0
   58.6142   33.9389   49.7596 H   0  0  0  0  0  0  0  0  0  0  0  0
   57.0218   32.4417   50.9541 H   0  0  0  0  0  0  0  0  0  0  0  0
  1  2  1  0
  2  3  1  0
  3  4  2  0
  4  5  1  0
  5  6  2  0
  6  7  1  0
  7  8  1  0
  8  9  2  0
  8 10  1  0
 10 11  2  0
 11 12  1  0
 12 13  2  0
 13 14  1  0
 14 15  1  0
 15 16  2  0
 15 17  1  0
 17 18  2  0
 18 19  1  0
 19 20  1  0
 20 21  1  0
 21 22  2  0
 21 23  1  0
 23 24  1  0
 24 25  2  0
 25 26  1  0
 26 27  2  0
 27 28  1  0
 28 29  2  0
 29 30  1  0
 19 31  2  0
 31 32  1  0
 32 33  2  0
 33 34  1  0
 34 35  1  0
  6 36  1  0
 36 37  2  0
 37  3  1  0
 35 10  1  0
 35 14  2  0
 33 17  1  0
 29 24  1  0
  1 38  1  0
  1 39  1  0
  1 40  1  0
  4 41  1  0
  5 42  1  0
 11 43  1  0
 12 44  1  0
 13 45  1  0
 18 46  1  0
 20 47  1  0
 25 48  1  0
 26 49  1  0
 27 50  1  0
 28 51  1  0
 31 52  1  0
 32 53  1  0
 36 54  1  0
 37 55  1  0
M  CHG  3   7  -1  23  -1  34  -1
M  END
>  <UniqueID>  (62) 
54

>  <SMILES>  (62) 
COc1ccc([N-]C(=O)c2cccc3c(=O)c4cc(NC(=O)[N-]c5ccccc5Cl)ccc4[n-]c23)cc1

>  <Energy>  (62) 
88.2202680390067

>  <Genealogy>  (62) 
COc1ccc([N-]C(=O)c2cccc3c(=O)c4cc(NC(=O)[N-]c5ccccc5Cl)ccc4[n-]c23)cc1 (protonated)
COc1ccc([N-]C(=O)c2cccc3c(=O)c4cc(NC(=O)[N-]c5ccccc5Cl)ccc4[n-]c23)cc1 (3D coordinates assigned)
COc1ccc([N-]C(=O)c2cccc3c(=O)c4cc(NC(=O)[N-]c5ccccc5Cl)ccc4[n-]c23)cc1 (optimized conformer: 88.2202680390067 kcal/mol)

>  <smiles>  (62) 
COc1ccc(NC(=O)c2cccc3c(=O)c4cc(NC(=O)Nc5ccccc5Cl)ccc4[nH]c23)cc1

>  <score_type>  (62) 
oracle

>  <origin>  (62) 
adg

>  <m_score__min__energy>  (62) 
-14.35

>  <m_primary>  (62) 
energy

$$$$
62:0
     RDKit          3D

 55 57  0  0  0  0  0  0  0  0999 V2000
   57.1320   25.0150   44.6630 C   0  0  0  0  0  0  0  0  0  0  0  0
   56.9520   26.2010   45.9790 S   0  0  0  0  0  0  0  0  0  0  0  0
   55.5400   26.7200   45.9880 O   0  0  0  0  0  0  0  0  0  0  0  0
   57.2240   25.4980   47.2800 O   0  0  0  0  0  0  0  0  0  0  0  0
   58.0770   27.5280   45.7900 N   0  0  0  0  0  0  0  0  0  0  0  0
   57.4310   28.8160   46.1260 C   0  0  0  0  0  0  0  0  0  0  0  0
   57.3180   29.6760   44.8960 C   0  0  0  0  0  0  0  0  0  0  0  0
   56.3820   29.3560   43.8950 C   0  0  0  0  0  0  0  0  0  0  0  0
   56.2920   30.1360   42.7390 C   0  0  0  0  0  0  0  0  0  0  0  0
   57.1420   31.2310   42.5650 C   0  0  0  0  0  0  0  0  0  0  0  0
   58.0890   31.5440   43.5430 C   0  0  0  0  0  0  0  0  0  0  0  0
   58.1840   30.7660   44.7010 C   0  0  0  0  0  0  0  0  0  0  0  0
   59.2720   27.2860   46.6220 C   0  0  0  0  0  0  0  0  0  0  0  0
   59.8380   28.5970   47.1000 C   0  0  0  0  0  0  0  0  0  0  0  0
   59.5200   29.0940   48.3730 C   0  0  0  0  0  0  0  0  0  0  0  0
   60.0020   30.3410   48.7820 C   0  0  0  0  0  0  0  0  0  0  0  0
   60.8070   31.1050   47.9240 C   0  0  0  0  0  0  0  0  0  0  0  0
   61.3010   32.3880   48.3450 N   0  0  0  0  0  0  0  0  0  0  0  0
   60.3350   33.4460   48.6690 C   0  0  0  0  0  0  0  0  0  0  0  0
   59.4630   33.7370   47.4760 C   0  0  0  0  0  0  0  0  0  0  0  0
   58.1400   33.2660   47.4390 C   0  0  0  0  0  0  0  0  0  0  0  0
   57.3400   33.5000   46.3170 C   0  0  0  0  0  0  0  0  0  0  0  0
   57.8550   34.2020   45.2240 C   0  0  0  0  0  0  0  0  0  0  0  0
   59.1710   34.6700   45.2520 C   0  0  0  0  0  0  0  0  0  0  0  0
   59.9750   34.4370   46.3700 C   0  0  0  0  0  0  0  0  0  0  0  0
   62.7140   32.6790   48.2890 C   0  0  0  0  0  0  0  0  0  0  0  0
   63.5120   32.2400   47.1860 N   0  0  0  0  0  0  0  0  0  0  0  0
   63.2670   33.3110   49.2290 O   0  0  0  0  0  0  0  0  0  0  0  0
   61.1340   30.6030   46.6560 C   0  0  0  0  0  0  0  0  0  0  0  0
   60.6490   29.3590   46.2450 C   0  0  0  0  0  0  0  0  0  0  0  0
   57.2841   24.0130   45.0907 H   0  0  0  0  0  0  0  0  0  0  0  0
   56.2236   25.0149   44.0427 H   0  0  0  0  0  0  0  0  0  0  0  0
   57.9995   25.2844   44.0427 H   0  0  0  0  0  0  0  0  0  0  0  0
   56.4257   28.6242   46.5291 H   0  0  0  0  0  0  0  0  0  0  0  0
   58.0421   29.3397   46.8758 H   0  0  0  0  0  0  0  0  0  0  0  0
   55.7184   28.4881   44.0231 H   0  0  0  0  0  0  0  0  0  0  0  0
   55.5509   29.8875   41.9650 H   0  0  0  0  0  0  0  0  0  0  0  0
   57.0655   31.8472   41.6570 H   0  0  0  0  0  0  0  0  0  0  0  0
   58.7608   32.4035   43.4020 H   0  0  0  0  0  0  0  0  0  0  0  0
   58.9397   31.0080   45.4628 H   0  0  0  0  0  0  0  0  0  0  0  0
   58.9934   26.6708   47.4903 H   0  0  0  0  0  0  0  0  0  0  0  0
   60.0304   26.7613   46.0224 H   0  0  0  0  0  0  0  0  0  0  0  0
   58.8894   28.5006   49.0514 H   0  0  0  0  0  0  0  0  0  0  0  0
   59.7488   30.7249   49.7813 H   0  0  0  0  0  0  0  0  0  0  0  0
   59.7045   33.1178   49.5085 H   0  0  0  0  0  0  0  0  0  0  0  0
   60.8822   34.3594   48.9451 H   0  0  0  0  0  0  0  0  0  0  0  0
   57.7320   32.7108   48.2965 H   0  0  0  0  0  0  0  0  0  0  0  0
   56.3039   33.1312   46.2944 H   0  0  0  0  0  0  0  0  0  0  0  0
   57.2243   34.3861   44.3417 H   0  0  0  0  0  0  0  0  0  0  0  0
   59.5750   35.2234   44.3914 H   0  0  0  0  0  0  0  0  0  0  0  0
   61.0124   34.8026   46.3850 H   0  0  0  0  0  0  0  0  0  0  0  0
   64.5270   32.4800   47.1470 H   0  0  0  0  0  0  0  0  0  0  0  0
   63.1170   31.6350   46.4320 H   0  0  0  0  0  0  0  0  0  0  0  0
   61.7748   31.1910   45.9825 H   0  0  0  0  0  0  0  0  0  0  0  0
   60.9041   28.9749   45.2463 H   0  0  0  0  0  0  0  0  0  0  0  0
  1  2  1  0
  2  3  2  0
  2  4  2  0
  2  5  1  0
  5  6  1  0
  6  7  1  0
  7  8  2  0
  8  9  1  0
  9 10  2  0
 10 11  1  0
 11 12  2  0
  5 13  1  0
 13 14  1  0
 14 15  2  0
 15 16  1  0
 16 17  2  0
 17 18  1  0
 18 19  1  0
 19 20  1  0
 20 21  2  0
 21 22  1  0
 22 23  2  0
 23 24  1  0
 24 25  2  0
 18 26  1  0
 26 27  1  0
 26 28  2  0
 17 29  1  0
 29 30  2  0
 12  7  1  0
 30 14  1  0
 25 20  1  0
  1 31  1  0
  1 32  1  0
  1 33  1  0
  6 34  1  0
  6 35  1  0
  8 36  1  0
  9 37  1  0
 10 38  1  0
 11 39  1  0
 12 40  1  0
 13 41  1  0
 13 42  1  0
 15 43  1  0
 16 44  1  0
 19 45  1  0
 19 46  1  0
 21 47  1  0
 22 48  1  0
 23 49  1  0
 24 50  1  0
 25 51  1  0
 27 52  1  0
 27 53  1  0
 29 54  1  0
 30 55  1  0
M  END
>  <UniqueID>  (63) 
55

>  <SMILES>  (63) 
CS(=O)(=O)N(Cc1ccccc1)Cc1ccc(N(Cc2ccccc2)C(N)=O)cc1

>  <Energy>  (63) 
55.014772723977806

>  <Genealogy>  (63) 
CS(=O)(=O)N(Cc1ccccc1)Cc1ccc(N(Cc2ccccc2)C(N)=O)cc1 (3D coordinates assigned)
CS(=O)(=O)N(Cc1ccccc1)Cc1ccc(N(Cc2ccccc2)C(N)=O)cc1 (optimized conformer: 55.014772723977806 kcal/mol)

>  <smiles>  (63) 
CS(=O)(=O)N(Cc1ccccc1)Cc1ccc(N(Cc2ccccc2)C(N)=O)cc1

>  <score_type>  (63) 
oracle

>  <origin>  (63) 
adg

>  <m_score__min__energy>  (63) 
-9.5999999999999996

>  <m_primary>  (63) 
energy

$$$$
63:0
     RDKit          3D

 32 34  0  0  0  0  0  0  0  0999 V2000
   58.5976   24.0841   46.7657 H   0  0  0  0  0  0  0  0  0  0  0  0
   58.1040   25.0130   46.4440 C   0  0  0  0  0  0  0  0  0  0  0  0
   58.8710   26.1180   46.0670 C   0  0  0  0  0  0  0  0  0  0  0  0
   59.9691   26.0547   46.0818 H   0  0  0  0  0  0  0  0  0  0  0  0
   58.2460   27.3040   45.6710 C   0  0  0  0  0  0  0  0  0  0  0  0
   58.8545   28.1664   45.3610 H   0  0  0  0  0  0  0  0  0  0  0  0
   56.8410   27.4000   45.6670 C   0  0  0  0  0  0  0  0  0  0  0  0
   56.1600   28.5890   45.2310 N   0  0  0  0  0  0  0  0  0  0  0  0
   56.7070   29.7170   44.8770 C   0  0  0  0  0  0  0  0  0  0  0  0
   57.3530   30.4600   45.8110 N   0  0  0  0  0  0  0  0  0  0  0  0
   57.9610   31.6260   45.4680 C   0  0  0  0  0  0  0  0  0  0  0  0
   58.6300   32.4480   46.5040 C   0  0  0  0  0  0  0  0  0  0  0  0
   59.1260   31.8060   47.6540 C   0  0  0  0  0  0  0  0  0  0  0  0
   59.0796   30.7094   47.7275 H   0  0  0  0  0  0  0  0  0  0  0  0
   59.6760   32.5450   48.7020 C   0  0  0  0  0  0  0  0  0  0  0  0
   60.0628   32.0297   49.5935 H   0  0  0  0  0  0  0  0  0  0  0  0
   59.7360   33.9350   48.6210 C   0  0  0  0  0  0  0  0  0  0  0  0
   60.1536   34.5167   49.4560 H   0  0  0  0  0  0  0  0  0  0  0  0
   59.2670   34.5890   47.4820 C   0  0  0  0  0  0  0  0  0  0  0  0
   59.3178   35.6864   47.4256 H   0  0  0  0  0  0  0  0  0  0  0  0
   58.7300   33.8620   46.4050 C   0  0  0  0  0  0  0  0  0  0  0  0
   58.3500   34.5680   45.2130 N   0  0  0  0  0  0  0  0  0  0  0  0
   59.1930   35.2450   44.5880 O   0  0  0  0  0  0  0  0  0  0  0  0
   57.0200   34.6980   44.8860 O   0  0  0  0  0  0  0  0  0  0  0  0
   57.9050   32.0550   44.1800 N   0  0  0  0  0  0  0  0  0  0  0  0
   57.2700   31.3120   43.2400 C   0  0  0  0  0  0  0  0  0  0  0  0
   57.2190   31.8250   41.6910 S   0  0  0  0  0  0  0  0  0  0  0  0
   56.6770   30.1440   43.5870 N   0  0  0  0  0  0  0  0  0  0  0  0
   56.0790   26.2740   46.0160 C   0  0  0  0  0  0  0  0  0  0  0  0
   54.7240   26.3320   45.9840 F   0  0  0  0  0  0  0  0  0  0  0  0
   56.7090   25.0890   46.4120 C   0  0  0  0  0  0  0  0  0  0  0  0
   56.1050   24.2155   46.6987 H   0  0  0  0  0  0  0  0  0  0  0  0
  1  2  1  0
  2  3  2  0
  3  4  1  0
  3  5  1  0
  5  6  1  0
  5  7  2  0
  7  8  1  0
  8  9  2  0
  9 10  1  0
 10 11  1  0
 11 12  1  0
 12 13  2  0
 13 14  1  0
 13 15  1  0
 15 16  1  0
 15 17  2  0
 17 18  1  0
 17 19  1  0
 19 20  1  0
 19 21  2  0
 21 22  1  0
 22 23  2  0
 22 24  1  0
 11 25  2  0
 25 26  1  0
 26 27  2  0
 26 28  1  0
  7 29  1  0
 29 30  1  0
 29 31  2  0
 31 32  1  0
 31  2  1  0
 28  9  1  0
 21 12  1  0
M  CHG  4  10  -1  22   1  24  -1  28  -1
M  END
>  <UniqueID>  (64) 
56

>  <SMILES>  (64) 
O=[N+]([O-])c1ccccc1-c1nc(=S)[n-]/c(=N\c2ccccc2F)[n-]1

>  <Energy>  (64) 
51.35232842872772

>  <Genealogy>  (64) 
O=[N+]([O-])c1ccccc1-c1nc(=S)[n-]c(=Nc2ccccc2F)[n-]1 (protonated)
O=[N+]([O-])c1ccccc1-c1nc(=S)[n-]/c(=N\c2ccccc2F)[n-]1 (cis-trans isomerization)
O=[N+]([O-])c1ccccc1-c1nc(=S)[n-]/c(=N\c2ccccc2F)[n-]1 (3D coordinates assigned)
O=[N+]([O-])c1ccccc1-c1nc(=S)[n-]/c(=N\c2ccccc2F)[n-]1 (optimized conformer: 51.35232842872772 kcal/mol)

>  <smiles>  (64) 
O=[N+]([O-])c1ccccc1-c1nc(=S)[nH]c(=Nc2ccccc2F)[nH]1

>  <score_type>  (64) 
oracle

>  <origin>  (64) 
adg

>  <m_score__min__energy>  (64) 
-11.02

>  <m_primary>  (64) 
energy

$$$$
64:0
     RDKit          3D

 62 65  0  0  0  0  0  0  0  0999 V2000
   54.5030   30.0940   44.9390 H   0  0  0  0  0  0  0  0  0  0  0  0
   55.1600   29.4150   44.4910 N   0  0  0  0  0  0  0  0  0  0  0  0
   56.2380   29.0000   45.0770 C   0  0  0  0  0  0  0  0  0  0  0  0
   56.2630   27.7580   45.6220 N   0  0  0  0  0  0  0  0  0  0  0  0
   57.3580   27.2570   46.2540 C   0  0  0  0  0  0  0  0  0  0  0  0
   57.2670   25.8680   46.8190 C   0  0  0  0  0  0  0  0  0  0  0  0
   57.2703   25.9182   47.9178 H   0  0  0  0  0  0  0  0  0  0  0  0
   56.3358   25.3931   46.4764 H   0  0  0  0  0  0  0  0  0  0  0  0
   58.1283   25.2757   46.4764 H   0  0  0  0  0  0  0  0  0  0  0  0
   58.5250   28.0520   46.3820 C   0  0  0  0  0  0  0  0  0  0  0  0
   59.7550   27.5210   47.0880 C   0  0  0  0  0  0  0  0  0  0  0  0
   59.8640   26.4470   46.8765 H   0  0  0  0  0  0  0  0  0  0  0  0
   60.6447   28.0582   46.7278 H   0  0  0  0  0  0  0  0  0  0  0  0
   59.6160   27.7210   48.5230 N   0  0  0  0  0  0  0  0  0  0  0  0
   60.6460   28.0920   49.4530 C   0  0  0  0  0  0  0  0  0  0  0  0
   61.1420   27.1850   50.1720 O   0  0  0  0  0  0  0  0  0  0  0  0
   61.1880   29.4640   49.5890 C   0  0  0  0  0  0  0  0  0  0  0  0
   61.0970   30.5240   48.7000 C   0  0  0  0  0  0  0  0  0  0  0  0
   60.6236   30.4954   47.7075 H   0  0  0  0  0  0  0  0  0  0  0  0
   61.6880   31.5930   49.2620 N   0  0  0  0  0  0  0  0  0  0  0  0
   61.7810   32.9340   48.6900 C   0  0  0  0  0  0  0  0  0  0  0  0
   61.8214   33.6739   49.5030 H   0  0  0  0  0  0  0  0  0  0  0  0
   62.6916   33.0003   48.0765 H   0  0  0  0  0  0  0  0  0  0  0  0
   60.5790   33.2140   47.8200 C   0  0  0  0  0  0  0  0  0  0  0  0
   60.7890   33.5100   46.4610 C   0  0  0  0  0  0  0  0  0  0  0  0
   61.8095   33.4914   46.0508 H   0  0  0  0  0  0  0  0  0  0  0  0
   59.7150   33.8270   45.6280 C   0  0  0  0  0  0  0  0  0  0  0  0
   59.8924   34.0575   44.5671 H   0  0  0  0  0  0  0  0  0  0  0  0
   58.4180   33.8520   46.1380 C   0  0  0  0  0  0  0  0  0  0  0  0
   57.5733   34.1028   45.4795 H   0  0  0  0  0  0  0  0  0  0  0  0
   58.1900   33.5590   47.4840 C   0  0  0  0  0  0  0  0  0  0  0  0
   57.1645   33.5806   47.8813 H   0  0  0  0  0  0  0  0  0  0  0  0
   59.2600   33.2370   48.3340 C   0  0  0  0  0  0  0  0  0  0  0  0
   58.9890   32.9100   49.7070 N   0  0  0  0  0  0  0  0  0  0  0  0
   59.5190   33.7750   50.7660 C   0  0  0  0  0  0  0  0  0  0  0  0
   60.5350   33.4426   51.0254 H   0  0  0  0  0  0  0  0  0  0  0  0
   59.5315   34.8105   50.3952 H   0  0  0  0  0  0  0  0  0  0  0  0
   58.6320   33.7200   52.0320 C   0  0  0  0  0  0  0  0  0  0  0  0
   59.2798   33.5287   52.9002 H   0  0  0  0  0  0  0  0  0  0  0  0
   58.1105   34.6863   52.0975 H   0  0  0  0  0  0  0  0  0  0  0  0
   57.6320   32.7160   51.9920 O   0  0  0  0  0  0  0  0  0  0  0  0
   58.1820   31.4900   51.5500 C   0  0  1  0  0  0  0  0  0  0  0  0
   59.1307   31.2874   52.0685 H   0  0  0  0  0  0  0  0  0  0  0  0
   57.2170   30.3410   51.8780 C   0  0  0  0  0  0  0  0  0  0  0  0
   57.4906   29.4608   51.2777 H   0  0  0  0  0  0  0  0  0  0  0  0
   57.2944   30.1184   52.9524 H   0  0  0  0  0  0  0  0  0  0  0  0
   55.8890   30.6940   51.5930 O   0  0  0  0  0  0  0  0  0  0  0  0
   55.9060   31.6250   51.2480 H   0  0  0  0  0  0  0  0  0  0  0  0
   58.4660   31.5810   50.0410 C   0  0  0  0  0  0  0  0  0  0  0  0
   59.2077   30.8176   49.7635 H   0  0  0  0  0  0  0  0  0  0  0  0
   57.5307   31.4120   49.4873 H   0  0  0  0  0  0  0  0  0  0  0  0
   62.1120   31.1950   50.4760 C   0  0  0  0  0  0  0  0  0  0  0  0
   62.6330   31.8455   51.1939 H   0  0  0  0  0  0  0  0  0  0  0  0
   61.8180   29.9000   50.7010 N   0  0  0  0  0  0  0  0  0  0  0  0
   62.0300   29.3560   51.5670 H   0  0  0  0  0  0  0  0  0  0  0  0
   58.5320   29.3400   45.7850 C   0  0  0  0  0  0  0  0  0  0  0  0
   59.7430   30.2370   45.8430 C   0  0  0  0  0  0  0  0  0  0  0  0
   60.0054   30.4313   46.8934 H   0  0  0  0  0  0  0  0  0  0  0  0
   60.5880   29.7452   45.3389 H   0  0  0  0  0  0  0  0  0  0  0  0
   59.5189   31.1887   45.3389 H   0  0  0  0  0  0  0  0  0  0  0  0
   57.3750   29.8110   45.1490 C   0  0  0  0  0  0  0  0  0  0  0  0
   57.3614   30.8181   44.7067 H   0  0  0  0  0  0  0  0  0  0  0  0
  1  2  1  0
  2  3  2  0
  3  4  1  0
  4  5  1  0
  5  6  1  0
  6  7  1  0
  6  8  1  0
  6  9  1  0
  5 10  2  0
 10 11  1  0
 11 12  1  0
 11 13  1  0
 11 14  1  0
 14 15  1  0
 15 16  2  0
 15 17  1  0
 17 18  2  0
 18 19  1  0
 18 20  1  0
 20 21  1  0
 21 22  1  0
 21 23  1  0
 21 24  1  0
 24 25  2  0
 25 26  1  0
 25 27  1  0
 27 28  1  0
 27 29  2  0
 29 30  1  0
 29 31  1  0
 31 32  1  0
 31 33  2  0
 33 34  1  0
 34 35  1  0
 35 36  1  0
 35 37  1  0
 35 38  1  0
 38 39  1  0
 38 40  1  0
 38 41  1  0
 41 42  1  0
 42 43  1  1
 42 44  1  0
 44 45  1  0
 44 46  1  0
 44 47  1  0
 47 48  1  0
 42 49  1  0
 49 50  1  0
 49 51  1  0
 20 52  1  0
 52 53  1  0
 52 54  2  0
 54 55  1  0
 10 56  1  0
 56 57  1  0
 57 58  1  0
 57 59  1  0
 57 60  1  0
 56 61  2  0
 61 62  1  0
 61  3  1  0
 54 17  1  0
 33 24  1  0
 49 34  1  0
M  CHG  3   4  -1  14  -1  54   1
M  END
>  <UniqueID>  (65) 
57

>  <SMILES>  (65) 
[H]/N=c1\cc(C)c(C[N-]C(=O)c2cn(Cc3ccccc3N3CCO[C@@H](CO)C3)c[nH+]2)c(C)[n-]1

>  <Energy>  (65) 
106.22603833711713

>  <Genealogy>  (65) 
Cc1cc(=N)[n-]c(C)c1C[N-]C(=O)c1cn(Cc2ccccc2N2CCOC(CO)C2)c[nH+]1 (protonated)
Cc1cc(=N)[n-]c(C)c1C[N-]C(=O)c1cn(Cc2ccccc2N2CCO[C@@H](CO)C2)c[nH+]1 (chirality)
[H]/N=c1\cc(C)c(C[N-]C(=O)c2cn(Cc3ccccc3N3CCO[C@@H](CO)C3)c[nH+]2)c(C)[n-]1 (cis-trans isomerization)
[H]/N=c1\cc(C)c(C[N-]C(=O)c2cn(Cc3ccccc3N3CCO[C@@H](CO)C3)c[nH+]2)c(C)[n-]1 (3D coordinates assigned)
[H]/N=c1\cc(C)c(C[N-]C(=O)c2cn(Cc3ccccc3N3CCO[C@@H](CO)C3)c[nH+]2)c(C)[n-]1 (nonaromatic ring conformer: 106.22603833711713 kcal/mol)

>  <smiles>  (65) 
Cc1cc(=N)[nH]c(C)c1CNC(=O)c1cn(Cc2ccccc2N2CCOC(CO)C2)cn1

>  <score_type>  (65) 
oracle

>  <origin>  (65) 
adg

>  <m_score__min__energy>  (65) 
-10.9

>  <m_primary>  (65) 
energy

$$$$
65:0
     RDKit          3D

 67 69  0  0  0  0  0  0  0  0999 V2000
   57.4280   28.1050   45.4900 C   0  0  0  0  0  0  0  0  0  0  0  0
   57.0900   29.3960   45.5890 C   0  0  0  0  0  0  0  0  0  0  0  0
   58.0430   30.5520   45.2730 C   0  0  2  0  0  0  0  0  0  0  0  0
   59.2450   29.9510   44.4970 C   0  0  0  0  0  0  0  0  0  0  0  0
   58.6040   31.1630   46.6060 C   0  0  0  0  0  0  0  0  0  0  0  0
   57.9210   32.4710   47.0480 C   0  0  0  0  0  0  0  0  0  0  0  0
   57.9120   33.5720   45.9500 C   0  0  1  0  0  0  0  0  0  0  0  0
   58.9520   34.6600   46.2250 C   0  0  0  0  0  0  0  0  0  0  0  0
   59.5130   35.3470   45.2140 C   0  0  0  0  0  0  0  0  0  0  0  0
   59.4690   34.8570   47.6460 C   0  0  0  0  0  0  0  0  0  0  0  0
   60.6550   34.0380   47.9870 N   0  0  0  0  0  0  0  0  0  0  0  0
   61.3150   33.4260   46.8210 C   0  0  0  0  0  0  0  0  0  0  0  0
   62.6430   32.7470   47.2310 C   0  0  0  0  0  0  0  0  0  0  0  0
   62.8670   32.8170   48.6930 N   0  0  0  0  0  0  0  0  0  0  0  0
   64.1360   32.1690   49.1120 C   0  0  0  0  0  0  0  0  0  0  0  0
   64.9700   32.9840   50.0810 C   0  0  0  0  0  0  0  0  0  0  0  0
   66.3700   32.8550   50.1030 C   0  0  0  0  0  0  0  0  0  0  0  0
   67.1330   33.5890   51.0160 C   0  0  0  0  0  0  0  0  0  0  0  0
   66.5030   34.4330   51.9360 C   0  0  0  0  0  0  0  0  0  0  0  0
   65.1120   34.5630   51.9270 C   0  0  0  0  0  0  0  0  0  0  0  0
   64.3460   33.8410   51.0050 C   0  0  0  0  0  0  0  0  0  0  0  0
   61.6940   32.2940   49.4300 C   0  0  0  0  0  0  0  0  0  0  0  0
   60.3940   33.0350   49.0370 C   0  0  0  0  0  0  0  0  0  0  0  0
   58.0220   33.0060   44.5130 C   0  0  0  0  0  0  0  0  0  0  0  0
   57.3070   31.6420   44.4090 C   0  0  1  0  0  0  0  0  0  0  0  0
   57.0410   31.2130   42.9630 C   0  0  0  0  0  0  0  0  0  0  0  0
   56.3800   30.0680   42.7240 C   0  0  0  0  0  0  0  0  0  0  0  0
   57.5450   32.0020   41.7780 C   0  0  0  0  0  0  0  0  0  0  0  0
   56.6927   27.3238   45.7330 H   0  0  0  0  0  0  0  0  0  0  0  0
   58.4411   27.8250   45.1657 H   0  0  0  0  0  0  0  0  0  0  0  0
   56.0687   29.6408   45.9162 H   0  0  0  0  0  0  0  0  0  0  0  0
   59.9929   29.5771   45.2118 H   0  0  0  0  0  0  0  0  0  0  0  0
   58.8954   29.1216   43.8646 H   0  0  0  0  0  0  0  0  0  0  0  0
   59.6987   30.7283   43.8646 H   0  0  0  0  0  0  0  0  0  0  0  0
   58.4727   30.4198   47.4062 H   0  0  0  0  0  0  0  0  0  0  0  0
   59.6589   31.4103   46.4164 H   0  0  0  0  0  0  0  0  0  0  0  0
   56.8799   32.2443   47.3213 H   0  0  0  0  0  0  0  0  0  0  0  0
   58.5002   32.8662   47.8956 H   0  0  0  0  0  0  0  0  0  0  0  0
   56.9212   34.0467   46.0053 H   0  0  0  0  0  0  0  0  0  0  0  0
   60.2594   36.1266   45.4263 H   0  0  0  0  0  0  0  0  0  0  0  0
   59.2254   35.1293   44.1748 H   0  0  0  0  0  0  0  0  0  0  0  0
   59.7359   35.9168   47.7707 H   0  0  0  0  0  0  0  0  0  0  0  0
   58.6618   34.5346   48.3202 H   0  0  0  0  0  0  0  0  0  0  0  0
   60.6451   32.6714   46.3830 H   0  0  0  0  0  0  0  0  0  0  0  0
   61.5361   34.2158   46.0879 H   0  0  0  0  0  0  0  0  0  0  0  0
   62.6121   31.6907   46.9255 H   0  0  0  0  0  0  0  0  0  0  0  0
   63.4672   33.2783   46.7326 H   0  0  0  0  0  0  0  0  0  0  0  0
   62.9750   33.8280   48.9500 H   0  0  0  0  0  0  0  0  0  0  0  0
   63.8897   31.2108   49.5928 H   0  0  0  0  0  0  0  0  0  0  0  0
   64.7418   32.0512   48.2014 H   0  0  0  0  0  0  0  0  0  0  0  0
   66.8676   32.1728   49.3980 H   0  0  0  0  0  0  0  0  0  0  0  0
   68.2296   33.5026   51.0107 H   0  0  0  0  0  0  0  0  0  0  0  0
   67.1029   34.9948   52.6671 H   0  0  0  0  0  0  0  0  0  0  0  0
   64.6183   35.2338   52.6456 H   0  0  0  0  0  0  0  0  0  0  0  0
   63.2509   33.9443   51.0030 H   0  0  0  0  0  0  0  0  0  0  0  0
   61.5775   31.2243   49.2016 H   0  0  0  0  0  0  0  0  0  0  0  0
   61.8666   32.4512   50.5049 H   0  0  0  0  0  0  0  0  0  0  0  0
   59.6623   32.3040   48.6625 H   0  0  0  0  0  0  0  0  0  0  0  0
   60.0021   33.5513   49.9257 H   0  0  0  0  0  0  0  0  0  0  0  0
   57.5567   33.7124   43.8098 H   0  0  0  0  0  0  0  0  0  0  0  0
   59.0853   32.8682   44.2670 H   0  0  0  0  0  0  0  0  0  0  0  0
   56.3033   31.7601   44.8433 H   0  0  0  0  0  0  0  0  0  0  0  0
   56.1843   29.7517   41.6888 H   0  0  0  0  0  0  0  0  0  0  0  0
   56.0345   29.4468   43.5635 H   0  0  0  0  0  0  0  0  0  0  0  0
   58.1054   32.8793   42.1332 H   0  0  0  0  0  0  0  0  0  0  0  0
   58.2052   31.3672   41.1688 H   0  0  0  0  0  0  0  0  0  0  0  0
   56.6914   32.3342   41.1688 H   0  0  0  0  0  0  0  0  0  0  0  0
  1  2  2  0
  2  3  1  0
  3  4  1  6
  3  5  1  0
  5  6  1  0
  6  7  1  0
  7  8  1  0
  8  9  2  0
  8 10  1  0
 10 11  1  0
 11 12  1  0
 12 13  1  0
 13 14  1  0
 14 15  1  0
 15 16  1  0
 16 17  2  0
 17 18  1  0
 18 19  2  0
 19 20  1  0
 20 21  2  0
 14 22  1  0
 22 23  1  0
  7 24  1  0
 24 25  1  0
 25 26  1  0
 26 27  2  0
 26 28  1  0
 25  3  1  0
 23 11  1  0
 21 16  1  0
  1 29  1  0
  1 30  1  0
  2 31  1  0
  4 32  1  0
  4 33  1  0
  4 34  1  0
  5 35  1  0
  5 36  1  0
  6 37  1  0
  6 38  1  0
  7 39  1  6
  9 40  1  0
  9 41  1  0
 10 42  1  0
 10 43  1  0
 12 44  1  0
 12 45  1  0
 13 46  1  0
 13 47  1  0
 14 48  1  0
 15 49  1  0
 15 50  1  0
 17 51  1  0
 18 52  1  0
 19 53  1  0
 20 54  1  0
 21 55  1  0
 22 56  1  0
 22 57  1  0
 23 58  1  0
 23 59  1  0
 24 60  1  0
 24 61  1  0
 25 62  1  1
 27 63  1  0
 27 64  1  0
 28 65  1  0
 28 66  1  0
 28 67  1  0
M  CHG  1  14   1
M  END
>  <UniqueID>  (66) 
58

>  <SMILES>  (66) 
C=C[C@]1(C)CC[C@@H](C(=C)CN2CC[NH+](Cc3ccccc3)CC2)CC1C(=C)C

>  <Energy>  (66) 
86.47920168703735

>  <Genealogy>  (66) 
C=CC1(C)CCC(C(=C)CN2CC[NH+](Cc3ccccc3)CC2)CC1C(=C)C (protonated)
C=C[C@]1(C)CC[C@@H](C(=C)CN2CC[NH+](Cc3ccccc3)CC2)CC1C(=C)C (chirality)
C=C[C@]1(C)CC[C@@H](C(=C)CN2CC[NH+](Cc3ccccc3)CC2)CC1C(=C)C (3D coordinates assigned)
C=C[C@]1(C)CC[C@@H](C(=C)CN2CC[NH+](Cc3ccccc3)CC2)CC1C(=C)C (nonaromatic ring conformer: 86.47920168703735 kcal/mol)

>  <smiles>  (66) 
C=CC1(C)CCC(C(=C)CN2CCN(Cc3ccccc3)CC2)CC1C(=C)C

>  <score_type>  (66) 
oracle

>  <origin>  (66) 
adg

>  <m_score__min__energy>  (66) 
-8.0600000000000005

>  <m_primary>  (66) 
energy

$$$$
66:0
     RDKit          3D

 44 46  0  0  0  0  0  0  0  0999 V2000
   55.8950   29.1470   44.7810 C   0  0  0  0  0  0  0  0  0  0  0  0
   56.9540   28.2820   45.3270 N   0  0  0  0  0  0  0  0  0  0  0  0
   58.2840   28.6280   45.2180 C   0  0  0  0  0  0  0  0  0  0  0  0
   58.7210   29.7770   44.4670 N   0  0  0  0  0  0  0  0  0  0  0  0
   58.4000   31.1380   44.7980 C   0  0  0  0  0  0  0  0  0  0  0  0
   58.7240   31.6040   46.0810 C   0  0  0  0  0  0  0  0  0  0  0  0
   58.3670   32.8970   46.4880 C   0  0  0  0  0  0  0  0  0  0  0  0
   58.7490   33.3930   47.8600 C   0  0  0  0  0  0  0  0  0  0  0  0
   60.0040   34.2760   47.8160 C   0  0  0  0  0  0  0  0  0  0  0  0
   61.2580   33.4590   47.6320 C   0  0  0  0  0  0  0  0  0  0  0  0
   61.3840   32.2070   48.2570 C   0  0  0  0  0  0  0  0  0  0  0  0
   62.5650   31.4700   48.1250 C   0  0  0  0  0  0  0  0  0  0  0  0
   63.6290   31.9800   47.3750 C   0  0  0  0  0  0  0  0  0  0  0  0
   63.5150   33.2290   46.7590 C   0  0  0  0  0  0  0  0  0  0  0  0
   62.3350   33.9680   46.8870 C   0  0  0  0  0  0  0  0  0  0  0  0
   57.7010   33.7410   45.5900 C   0  0  0  0  0  0  0  0  0  0  0  0
   57.4040   33.3030   44.3010 C   0  0  0  0  0  0  0  0  0  0  0  0
   57.7640   32.0130   43.8830 C   0  0  0  0  0  0  0  0  0  0  0  0
   57.5320   31.6390   42.5190 N   0  0  0  0  0  0  0  0  0  0  0  0
   59.2580   27.8570   45.8610 C   0  0  0  0  0  0  0  0  0  0  0  0
   58.8710   26.7030   46.5300 C   0  0  0  0  0  0  0  0  0  0  0  0
   59.7300   25.9800   47.0990 O   0  0  0  0  0  0  0  0  0  0  0  0
   57.5650   26.3490   46.5580 N   0  0  0  0  0  0  0  0  0  0  0  0
   56.6110   27.1140   45.9670 C   0  0  0  0  0  0  0  0  0  0  0  0
   55.4100   26.7350   46.0220 O   0  0  0  0  0  0  0  0  0  0  0  0
   55.3334   29.6057   45.6082 H   0  0  0  0  0  0  0  0  0  0  0  0
   56.3484   29.9364   44.1635 H   0  0  0  0  0  0  0  0  0  0  0  0
   55.2120   28.5452   44.1635 H   0  0  0  0  0  0  0  0  0  0  0  0
   59.3130   29.6080   43.6220 H   0  0  0  0  0  0  0  0  0  0  0  0
   59.2653   30.9461   46.7768 H   0  0  0  0  0  0  0  0  0  0  0  0
   57.9147   33.9797   48.2719 H   0  0  0  0  0  0  0  0  0  0  0  0
   58.9667   32.5193   48.4919 H   0  0  0  0  0  0  0  0  0  0  0  0
   59.9131   34.9823   46.9776 H   0  0  0  0  0  0  0  0  0  0  0  0
   60.0809   34.8086   48.7754 H   0  0  0  0  0  0  0  0  0  0  0  0
   60.5508   31.8052   48.8522 H   0  0  0  0  0  0  0  0  0  0  0  0
   62.6570   30.4879   48.6118 H   0  0  0  0  0  0  0  0  0  0  0  0
   64.5563   31.3977   47.2698 H   0  0  0  0  0  0  0  0  0  0  0  0
   64.3544   33.6312   46.1728 H   0  0  0  0  0  0  0  0  0  0  0  0
   62.2495   34.9518   46.4025 H   0  0  0  0  0  0  0  0  0  0  0  0
   57.4110   34.7546   45.9040 H   0  0  0  0  0  0  0  0  0  0  0  0
   56.8821   33.9753   43.6042 H   0  0  0  0  0  0  0  0  0  0  0  0
   57.7730   30.6790   42.1850 H   0  0  0  0  0  0  0  0  0  0  0  0
   56.9960   32.2500   41.8670 H   0  0  0  0  0  0  0  0  0  0  0  0
   60.3151   28.1602   45.8372 H   0  0  0  0  0  0  0  0  0  0  0  0
  1  2  1  0
  2  3  1  0
  3  4  1  0
  4  5  1  0
  5  6  2  0
  6  7  1  0
  7  8  1  0
  8  9  1  0
  9 10  1  0
 10 11  2  0
 11 12  1  0
 12 13  2  0
 13 14  1  0
 14 15  2  0
  7 16  2  0
 16 17  1  0
 17 18  2  0
 18 19  1  0
  3 20  2  0
 20 21  1  0
 21 22  2  0
 21 23  1  0
 23 24  1  0
 24 25  2  0
 24  2  1  0
 18  5  1  0
 15 10  1  0
  1 26  1  0
  1 27  1  0
  1 28  1  0
  4 29  1  0
  6 30  1  0
  8 31  1  0
  8 32  1  0
  9 33  1  0
  9 34  1  0
 11 35  1  0
 12 36  1  0
 13 37  1  0
 14 38  1  0
 15 39  1  0
 16 40  1  0
 17 41  1  0
 19 42  1  0
 19 43  1  0
 20 44  1  0
M  CHG  1  23  -1
M  END
>  <UniqueID>  (67) 
59

>  <SMILES>  (67) 
Cn1c(Nc2cc(CCc3ccccc3)ccc2N)cc(=O)[n-]c1=O

>  <Energy>  (67) 
56.78341432491553

>  <Genealogy>  (67) 
Cn1c(Nc2cc(CCc3ccccc3)ccc2N)cc(=O)[n-]c1=O (protonated)
Cn1c(Nc2cc(CCc3ccccc3)ccc2N)cc(=O)[n-]c1=O (3D coordinates assigned)
Cn1c(Nc2cc(CCc3ccccc3)ccc2N)cc(=O)[n-]c1=O (optimized conformer: 56.78341432491553 kcal/mol)

>  <smiles>  (67) 
Cn1c(Nc2cc(CCc3ccccc3)ccc2N)cc(=O)[nH]c1=O

>  <score_type>  (67) 
oracle

>  <origin>  (67) 
adg

>  <m_score__min__energy>  (67) 
-10.130000000000001

>  <m_primary>  (67) 
energy

$$$$
67:0
     RDKit          3D

 35 36  0  0  0  0  0  0  0  0999 V2000
   58.8190   30.5790   44.8370 N   0  0  0  0  0  0  0  0  0  0  0  0
   58.1250   32.1080   45.2450 S   0  0  0  0  0  0  0  0  0  0  0  0
   58.6170   33.1420   44.2730 O   0  0  0  0  0  0  0  0  0  0  0  0
   56.6280   32.0260   45.1530 O   0  0  0  0  0  0  0  0  0  0  0  0
   58.5870   32.5470   46.8870 C   0  0  0  0  0  0  0  0  0  0  0  0
   59.3350   33.7060   47.1370 C   0  0  0  0  0  0  0  0  0  0  0  0
   59.6740   34.0520   48.4480 C   0  0  0  0  0  0  0  0  0  0  0  0
   59.2810   33.2380   49.5130 C   0  0  0  0  0  0  0  0  0  0  0  0
   58.5620   32.0560   49.2710 C   0  0  0  0  0  0  0  0  0  0  0  0
   58.1230   31.2080   50.3420 N   0  0  0  0  0  0  0  0  0  0  0  0
   57.5000   31.6240   51.5650 C   0  0  0  0  0  0  0  0  0  0  0  0
   58.2180   32.1160   52.4740 O   0  0  0  0  0  0  0  0  0  0  0  0
   56.0150   31.5290   51.7780 C   0  0  0  0  0  0  0  0  0  0  0  0
   55.6180   30.1420   52.0060 N   0  0  0  0  0  0  0  0  0  0  0  0
   54.2890   29.7140   52.3280 C   0  0  0  0  0  0  0  0  0  0  0  0
   54.0820   28.4970   52.5730 O   0  0  0  0  0  0  0  0  0  0  0  0
   53.1500   30.6470   52.3340 C   0  0  0  0  0  0  0  0  0  0  0  0
   52.4120   30.8420   53.5100 C   0  0  0  0  0  0  0  0  0  0  0  0
   51.3320   31.7310   53.5240 C   0  0  0  0  0  0  0  0  0  0  0  0
   50.9940   32.4410   52.3680 C   0  0  0  0  0  0  0  0  0  0  0  0
   49.9240   33.3270   52.3900 O   0  0  0  0  0  0  0  0  0  0  0  0
   51.7370   32.2620   51.1940 C   0  0  0  0  0  0  0  0  0  0  0  0
   51.4140   32.9760   50.0470 O   0  0  0  0  0  0  0  0  0  0  0  0
   52.8150   31.3700   51.1790 C   0  0  0  0  0  0  0  0  0  0  0  0
   58.1960   31.7310   47.9590 C   0  0  0  0  0  0  0  0  0  0  0  0
   59.2420   30.6790   43.8880 H   0  0  0  0  0  0  0  0  0  0  0  0
   59.6555   34.3440   46.3002 H   0  0  0  0  0  0  0  0  0  0  0  0
   60.2518   34.9678   48.6417 H   0  0  0  0  0  0  0  0  0  0  0  0
   59.5354   33.5236   50.5444 H   0  0  0  0  0  0  0  0  0  0  0  0
   55.7355   32.1339   52.6532 H   0  0  0  0  0  0  0  0  0  0  0  0
   55.5024   31.9023   50.8792 H   0  0  0  0  0  0  0  0  0  0  0  0
   52.6831   30.2942   54.4246 H   0  0  0  0  0  0  0  0  0  0  0  0
   50.7481   31.8716   54.4455 H   0  0  0  0  0  0  0  0  0  0  0  0
   53.4019   31.2351   50.2585 H   0  0  0  0  0  0  0  0  0  0  0  0
   57.5970   30.8285   47.7674 H   0  0  0  0  0  0  0  0  0  0  0  0
  1  2  1  0
  2  3  2  0
  2  4  2  0
  2  5  1  0
  5  6  2  0
  6  7  1  0
  7  8  2  0
  8  9  1  0
  9 10  1  0
 10 11  1  0
 11 12  2  0
 11 13  1  0
 13 14  1  0
 14 15  1  0
 15 16  2  0
 15 17  1  0
 17 18  2  0
 18 19  1  0
 19 20  2  0
 20 21  1  0
 20 22  1  0
 22 23  1  0
 22 24  2  0
  9 25  2  0
 25  5  1  0
 24 17  1  0
  1 26  1  0
  6 27  1  0
  7 28  1  0
  8 29  1  0
 13 30  1  0
 13 31  1  0
 18 32  1  0
 19 33  1  0
 24 34  1  0
 25 35  1  0
M  CHG  5   1  -1  10  -1  14  -1  21  -1  23  -1
M  END
>  <UniqueID>  (68) 
60

>  <SMILES>  (68) 
[NH-]S(=O)(=O)c1cccc([N-]C(=O)C[N-]C(=O)c2ccc([O-])c([O-])c2)c1

>  <Energy>  (68) 
42.64758773034899

>  <Genealogy>  (68) 
[NH-]S(=O)(=O)c1cccc([N-]C(=O)C[N-]C(=O)c2ccc([O-])c([O-])c2)c1 (protonated)
[NH-]S(=O)(=O)c1cccc([N-]C(=O)C[N-]C(=O)c2ccc([O-])c([O-])c2)c1 (3D coordinates assigned)
[NH-]S(=O)(=O)c1cccc([N-]C(=O)C[N-]C(=O)c2ccc([O-])c([O-])c2)c1 (optimized conformer: 42.64758773034899 kcal/mol)

>  <smiles>  (68) 
NS(=O)(=O)c1cccc(NC(=O)CNC(=O)c2ccc(O)c(O)c2)c1

>  <score_type>  (68) 
oracle

>  <origin>  (68) 
adg

>  <m_score__min__energy>  (68) 
-18.629999999999999

>  <m_primary>  (68) 
energy

$$$$
68:0
     RDKit          3D

 71 74  0  0  0  0  0  0  0  0999 V2000
   59.5410   34.0210   46.0270 C   0  0  0  0  0  0  0  0  0  0  0  0
   60.0500   32.8760   46.7050 O   0  0  0  0  0  0  0  0  0  0  0  0
   60.0670   32.7240   48.0990 C   0  0  0  0  0  0  0  0  0  0  0  0
   58.9430   33.1340   48.8270 C   0  0  0  0  0  0  0  0  0  0  0  0
   58.9120   33.0030   50.2190 C   0  0  0  0  0  0  0  0  0  0  0  0
   60.0120   32.4640   50.9040 C   0  0  0  0  0  0  0  0  0  0  0  0
   59.9700   32.3050   52.4020 C   0  0  0  0  0  0  0  0  0  0  0  0
   60.5520   30.9860   52.8420 C   0  0  0  0  0  0  0  0  0  0  0  0
   61.7970   30.8740   53.0260 O   0  0  0  0  0  0  0  0  0  0  0  0
   59.6970   29.8510   53.0770 N   0  0  0  0  0  0  0  0  0  0  0  0
   58.5940   29.9710   54.0340 C   0  0  0  0  0  0  0  0  0  0  0  0
   57.3050   30.1980   53.2960 C   0  0  0  0  0  0  0  0  0  0  0  0
   57.0760   31.4070   52.6210 C   0  0  0  0  0  0  0  0  0  0  0  0
   55.8640   31.6280   51.9600 C   0  0  0  0  0  0  0  0  0  0  0  0
   54.8600   30.6470   51.9770 C   0  0  0  0  0  0  0  0  0  0  0  0
   53.5780   30.8490   51.2070 C   0  0  0  0  0  0  0  0  0  0  0  0
   52.4370   31.3200   52.1200 C   0  0  0  0  0  0  0  0  0  0  0  0
   51.4520   32.1720   51.3790 C   0  0  0  0  0  0  0  0  0  0  0  0
   51.3750   32.1060   50.1250 O   0  0  0  0  0  0  0  0  0  0  0  0
   50.6540   33.0740   52.0710 O   0  0  0  0  0  0  0  0  0  0  0  0
   55.0820   29.4460   52.6700 C   0  0  0  0  0  0  0  0  0  0  0  0
   56.2920   29.2270   53.3320 C   0  0  0  0  0  0  0  0  0  0  0  0
   59.8910   28.5970   52.3380 C   0  0  0  0  0  0  0  0  0  0  0  0
   59.6980   28.8310   50.8640 C   0  0  0  0  0  0  0  0  0  0  0  0
   60.4900   28.1500   49.9280 C   0  0  0  0  0  0  0  0  0  0  0  0
   60.2990   28.3540   48.5570 C   0  0  0  0  0  0  0  0  0  0  0  0
   59.2950   29.2270   48.0970 C   0  0  0  0  0  0  0  0  0  0  0  0
   59.0820   29.4640   46.6460 C   0  0  0  0  0  0  0  0  0  0  0  0
   59.5960   28.6730   45.8080 O   0  0  0  0  0  0  0  0  0  0  0  0
   58.3310   30.5960   46.1770 N   0  0  0  0  0  0  0  0  0  0  0  0
   57.7690   30.6680   44.8560 C   0  0  0  0  0  0  0  0  0  0  0  0
   58.2960   31.5890   43.9350 C   0  0  0  0  0  0  0  0  0  0  0  0
   57.7740   31.6750   42.6410 C   0  0  0  0  0  0  0  0  0  0  0  0
   56.7120   30.8530   42.2600 C   0  0  0  0  0  0  0  0  0  0  0  0
   56.1630   29.9510   43.1740 C   0  0  0  0  0  0  0  0  0  0  0  0
   56.6770   29.8630   44.4730 C   0  0  0  0  0  0  0  0  0  0  0  0
   56.0790   28.9940   45.3800 O   0  0  0  0  0  0  0  0  0  0  0  0
   58.5000   29.9010   49.0420 C   0  0  0  0  0  0  0  0  0  0  0  0
   58.6990   29.7040   50.4100 C   0  0  0  0  0  0  0  0  0  0  0  0
   61.1340   32.0390   50.1760 C   0  0  0  0  0  0  0  0  0  0  0  0
   61.1650   32.1740   48.7860 C   0  0  0  0  0  0  0  0  0  0  0  0
   59.2095   34.7667   46.7646 H   0  0  0  0  0  0  0  0  0  0  0  0
   60.3309   34.4550   45.3964 H   0  0  0  0  0  0  0  0  0  0  0  0
   58.6895   33.7254   45.3964 H   0  0  0  0  0  0  0  0  0  0  0  0
   58.0778   33.5624   48.2998 H   0  0  0  0  0  0  0  0  0  0  0  0
   58.0215   33.3238   50.7795 H   0  0  0  0  0  0  0  0  0  0  0  0
   60.5472   33.1202   52.8628 H   0  0  0  0  0  0  0  0  0  0  0  0
   58.9173   32.3369   52.7196 H   0  0  0  0  0  0  0  0  0  0  0  0
   58.5194   29.0455   54.6238 H   0  0  0  0  0  0  0  0  0  0  0  0
   58.7845   30.8221   54.7043 H   0  0  0  0  0  0  0  0  0  0  0  0
   57.8540   32.1846   52.6120 H   0  0  0  0  0  0  0  0  0  0  0  0
   55.6965   32.5742   51.4246 H   0  0  0  0  0  0  0  0  0  0  0  0
   53.7460   31.6059   50.4267 H   0  0  0  0  0  0  0  0  0  0  0  0
   53.2878   29.8848   50.7641 H   0  0  0  0  0  0  0  0  0  0  0  0
   51.9152   30.4391   52.5222 H   0  0  0  0  0  0  0  0  0  0  0  0
   52.8721   31.9235   52.9302 H   0  0  0  0  0  0  0  0  0  0  0  0
   54.2989   28.6738   52.6915 H   0  0  0  0  0  0  0  0  0  0  0  0
   56.4520   28.2892   53.8842 H   0  0  0  0  0  0  0  0  0  0  0  0
   60.9099   28.2231   52.5168 H   0  0  0  0  0  0  0  0  0  0  0  0
   59.1548   27.8568   52.6848 H   0  0  0  0  0  0  0  0  0  0  0  0
   61.2660   27.4513   50.2738 H   0  0  0  0  0  0  0  0  0  0  0  0
   60.9385   27.8280   47.8328 H   0  0  0  0  0  0  0  0  0  0  0  0
   58.3590   31.4760   46.7430 H   0  0  0  0  0  0  0  0  0  0  0  0
   59.1251   32.2470   44.2343 H   0  0  0  0  0  0  0  0  0  0  0  0
   58.2003   32.3907   41.9227 H   0  0  0  0  0  0  0  0  0  0  0  0
   56.3073   30.9158   41.2391 H   0  0  0  0  0  0  0  0  0  0  0  0
   55.3236   29.3074   42.8720 H   0  0  0  0  0  0  0  0  0  0  0  0
   57.7138   30.5900   48.6998 H   0  0  0  0  0  0  0  0  0  0  0  0
   58.0679   30.2372   51.1363 H   0  0  0  0  0  0  0  0  0  0  0  0
   61.9930   31.5975   50.7024 H   0  0  0  0  0  0  0  0  0  0  0  0
   62.0533   31.8483   48.2249 H   0  0  0  0  0  0  0  0  0  0  0  0
  1  2  1  0
  2  3  1  0
  3  4  2  0
  4  5  1  0
  5  6  2  0
  6  7  1  0
  7  8  1  0
  8  9  2  0
  8 10  1  0
 10 11  1  0
 11 12  1  0
 12 13  2  0
 13 14  1  0
 14 15  2  0
 15 16  1  0
 16 17  1  0
 17 18  1  0
 18 19  2  0
 18 20  1  0
 15 21  1  0
 21 22  2  0
 10 23  1  0
 23 24  1  0
 24 25  2  0
 25 26  1  0
 26 27  2  0
 27 28  1  0
 28 29  2  0
 28 30  1  0
 30 31  1  0
 31 32  2  0
 32 33  1  0
 33 34  2  0
 34 35  1  0
 35 36  2  0
 36 37  1  0
 27 38  1  0
 38 39  2  0
  6 40  1  0
 40 41  2  0
 41  3  1  0
 22 12  1  0
 39 24  1  0
 36 31  1  0
  1 42  1  0
  1 43  1  0
  1 44  1  0
  4 45  1  0
  5 46  1  0
  7 47  1  0
  7 48  1  0
 11 49  1  0
 11 50  1  0
 13 51  1  0
 14 52  1  0
 16 53  1  0
 16 54  1  0
 17 55  1  0
 17 56  1  0
 21 57  1  0
 22 58  1  0
 23 59  1  0
 23 60  1  0
 25 61  1  0
 26 62  1  0
 30 63  1  0
 32 64  1  0
 33 65  1  0
 34 66  1  0
 35 67  1  0
 38 68  1  0
 39 69  1  0
 40 70  1  0
 41 71  1  0
M  CHG  2  20  -1  37  -1
M  END
>  <UniqueID>  (69) 
61

>  <SMILES>  (69) 
COc1ccc(CC(=O)N(Cc2ccc(CCC(=O)[O-])cc2)Cc2ccc(C(=O)Nc3ccccc3[O-])cc2)cc1

>  <Energy>  (69) 
76.3570960172596

>  <Genealogy>  (69) 
COc1ccc(CC(=O)N(Cc2ccc(CCC(=O)[O-])cc2)Cc2ccc(C(=O)Nc3ccccc3[O-])cc2)cc1 (protonated)
COc1ccc(CC(=O)N(Cc2ccc(CCC(=O)[O-])cc2)Cc2ccc(C(=O)Nc3ccccc3[O-])cc2)cc1 (3D coordinates assigned)
COc1ccc(CC(=O)N(Cc2ccc(CCC(=O)[O-])cc2)Cc2ccc(C(=O)Nc3ccccc3[O-])cc2)cc1 (optimized conformer: 76.3570960172596 kcal/mol)

>  <smiles>  (69) 
COc1ccc(CC(=O)N(Cc2ccc(CCC(=O)O)cc2)Cc2ccc(C(=O)Nc3ccccc3O)cc2)cc1

>  <score_type>  (69) 
oracle

>  <origin>  (69) 
adg

>  <m_score__min__energy>  (69) 
-16.620000000000001

>  <m_primary>  (69) 
energy

$$$$
69:0
     RDKit          3D

 45 48  0  0  0  0  0  0  0  0999 V2000
   60.8270   30.2150   46.8370 O   0  0  0  0  0  0  0  0  0  0  0  0
   59.7510   30.7110   47.2610 C   0  0  0  0  0  0  0  0  0  0  0  0
   58.5180   30.3230   46.6350 N   0  0  0  0  0  0  0  0  0  0  0  0
   58.2820   29.0770   46.0130 N   0  0  0  0  0  0  0  0  0  0  0  0
   57.7560   29.0510   44.7440 C   0  0  0  0  0  0  0  0  0  0  0  0
   57.4460   30.3250   43.9870 C   0  0  0  0  0  0  0  0  0  0  0  0
   56.9890   31.3410   44.8800 O   0  0  0  0  0  0  0  0  0  0  0  0
   57.6760   32.5310   45.1720 C   0  0  0  0  0  0  0  0  0  0  0  0
   58.5300   33.1630   44.2460 C   0  0  0  0  0  0  0  0  0  0  0  0
   59.1850   34.3500   44.5890 C   0  0  0  0  0  0  0  0  0  0  0  0
   58.9980   34.9130   45.8540 C   0  0  0  0  0  0  0  0  0  0  0  0
   58.1560   34.2900   46.7780 C   0  0  0  0  0  0  0  0  0  0  0  0
   57.5000   33.1040   46.4380 C   0  0  0  0  0  0  0  0  0  0  0  0
   57.4600   27.8580   44.1530 N   0  0  0  0  0  0  0  0  0  0  0  0
   57.7340   26.6760   44.7660 C   0  0  0  0  0  0  0  0  0  0  0  0
   57.4230   25.4590   44.1390 C   0  0  0  0  0  0  0  0  0  0  0  0
   57.7290   24.2480   44.7640 C   0  0  0  0  0  0  0  0  0  0  0  0
   58.3490   24.2410   46.0150 C   0  0  0  0  0  0  0  0  0  0  0  0
   58.6650   25.4470   46.6470 C   0  0  0  0  0  0  0  0  0  0  0  0
   58.3550   26.6730   46.0290 C   0  0  0  0  0  0  0  0  0  0  0  0
   58.6490   27.9080   46.6280 C   0  0  0  0  0  0  0  0  0  0  0  0
   59.2820   27.9360   47.7190 O   0  0  0  0  0  0  0  0  0  0  0  0
   59.7950   31.6710   48.3850 C   0  0  0  0  0  0  0  0  0  0  0  0
   58.8920   31.5080   49.4490 C   0  0  0  0  0  0  0  0  0  0  0  0
   58.8740   32.4150   50.5100 C   0  0  0  0  0  0  0  0  0  0  0  0
   59.7690   33.4860   50.5290 C   0  0  0  0  0  0  0  0  0  0  0  0
   60.6950   33.6410   49.4940 C   0  0  0  0  0  0  0  0  0  0  0  0
   60.7220   32.7350   48.4250 C   0  0  0  0  0  0  0  0  0  0  0  0
   62.1130   32.9360   47.1230 Br  0  0  0  0  0  0  0  0  0  0  0  0
   58.3566   30.6738   43.4780 H   0  0  0  0  0  0  0  0  0  0  0  0
   56.6550   30.1171   43.2513 H   0  0  0  0  0  0  0  0  0  0  0  0
   58.6818   32.7211   43.2502 H   0  0  0  0  0  0  0  0  0  0  0  0
   59.8484   34.8411   43.8619 H   0  0  0  0  0  0  0  0  0  0  0  0
   59.5138   35.8468   46.1222 H   0  0  0  0  0  0  0  0  0  0  0  0
   58.0092   34.7333   47.7740 H   0  0  0  0  0  0  0  0  0  0  0  0
   56.8400   32.6164   47.1705 H   0  0  0  0  0  0  0  0  0  0  0  0
   57.0170   27.8540   43.2050 H   0  0  0  0  0  0  0  0  0  0  0  0
   56.9368   25.4592   43.1523 H   0  0  0  0  0  0  0  0  0  0  0  0
   57.4809   23.2973   44.2694 H   0  0  0  0  0  0  0  0  0  0  0  0
   58.5891   23.2853   46.5038 H   0  0  0  0  0  0  0  0  0  0  0  0
   59.1575   25.4379   47.6305 H   0  0  0  0  0  0  0  0  0  0  0  0
   58.1933   30.6584   49.4459 H   0  0  0  0  0  0  0  0  0  0  0  0
   58.1541   32.2856   51.3316 H   0  0  0  0  0  0  0  0  0  0  0  0
   59.7454   34.2079   51.3586 H   0  0  0  0  0  0  0  0  0  0  0  0
   61.4070   34.4791   49.5184 H   0  0  0  0  0  0  0  0  0  0  0  0
  1  2  2  0
  2  3  1  0
  3  4  1  0
  4  5  1  0
  5  6  1  0
  6  7  1  0
  7  8  1  0
  8  9  2  0
  9 10  1  0
 10 11  2  0
 11 12  1  0
 12 13  2  0
  5 14  2  0
 14 15  1  0
 15 16  2  0
 16 17  1  0
 17 18  2  0
 18 19  1  0
 19 20  2  0
 20 21  1  0
 21 22  2  0
  2 23  1  0
 23 24  2  0
 24 25  1  0
 25 26  2  0
 26 27  1  0
 27 28  2  0
 28 29  1  0
 21  4  1  0
 28 23  1  0
 13  8  1  0
 20 15  1  0
  6 30  1  0
  6 31  1  0
  9 32  1  0
 10 33  1  0
 11 34  1  0
 12 35  1  0
 13 36  1  0
 14 37  1  0
 16 38  1  0
 17 39  1  0
 18 40  1  0
 19 41  1  0
 24 42  1  0
 25 43  1  0
 26 44  1  0
 27 45  1  0
M  CHG  2   3  -1  14   1
M  END
>  <UniqueID>  (70) 
62

>  <SMILES>  (70) 
O=C([N-]n1c(COc2ccccc2)[nH+]c2ccccc2c1=O)c1ccccc1Br

>  <Energy>  (70) 
68.24095353254094

>  <Genealogy>  (70) 
O=C([N-]n1c(COc2ccccc2)[nH+]c2ccccc2c1=O)c1ccccc1Br (protonated)
O=C([N-]n1c(COc2ccccc2)[nH+]c2ccccc2c1=O)c1ccccc1Br (3D coordinates assigned)
O=C([N-]n1c(COc2ccccc2)[nH+]c2ccccc2c1=O)c1ccccc1Br (optimized conformer: 68.24095353254094 kcal/mol)

>  <smiles>  (70) 
O=C(Nn1c(COc2ccccc2)nc2ccccc2c1=O)c1ccccc1Br

>  <score_type>  (70) 
oracle

>  <origin>  (70) 
adg

>  <m_score__min__energy>  (70) 
-8.4600000000000009

>  <m_primary>  (70) 
energy

$$$$
70:0
     RDKit          3D

 46 48  0  0  0  0  0  0  0  0999 V2000
   58.5650   32.3040   49.3250 C   0  0  0  0  0  0  0  0  0  0  0  0
   59.7350   33.0980   49.4880 O   0  0  0  0  0  0  0  0  0  0  0  0
   60.8720   33.0230   48.6630 C   0  0  0  0  0  0  0  0  0  0  0  0
   61.8880   32.0720   48.8910 C   0  0  0  0  0  0  0  0  0  0  0  0
   63.0100   32.0210   48.0600 C   0  0  0  0  0  0  0  0  0  0  0  0
   63.1320   32.9080   46.9900 C   0  0  0  0  0  0  0  0  0  0  0  0
   62.1290   33.8470   46.7450 C   0  0  0  0  0  0  0  0  0  0  0  0
   60.9970   33.9180   47.5780 C   0  0  0  0  0  0  0  0  0  0  0  0
   59.9540   34.9730   47.3010 C   0  0  0  0  0  0  0  0  0  0  0  0
   58.8010   34.3910   46.6210 N   0  0  0  0  0  0  0  0  0  0  0  0
   58.8730   33.7270   45.3550 C   0  0  0  0  0  0  0  0  0  0  0  0
   59.3900   34.3170   44.3670 O   0  0  0  0  0  0  0  0  0  0  0  0
   58.3590   32.3470   45.2100 C   0  0  0  0  0  0  0  0  0  0  0  0
   57.3910   32.0410   44.2330 C   0  0  0  0  0  0  0  0  0  0  0  0
   56.9140   30.7350   44.0960 C   0  0  0  0  0  0  0  0  0  0  0  0
   57.3980   29.7070   44.9220 C   0  0  0  0  0  0  0  0  0  0  0  0
   56.8800   28.3750   44.7650 N   0  0  0  0  0  0  0  0  0  0  0  0
   57.8890   26.9760   44.5620 S   0  0  0  0  0  0  0  0  0  0  0  0
   58.0510   26.6620   43.0990 O   0  0  0  0  0  0  0  0  0  0  0  0
   59.2490   27.2700   45.1280 O   0  0  0  0  0  0  0  0  0  0  0  0
   57.1990   25.6150   45.4560 C   0  0  0  0  0  0  0  0  0  0  0  0
   57.9590   24.4460   45.5900 C   0  0  0  0  0  0  0  0  0  0  0  0
   57.4540   23.3560   46.3000 C   0  0  0  0  0  0  0  0  0  0  0  0
   56.1880   23.4470   46.8780 C   0  0  0  0  0  0  0  0  0  0  0  0
   55.4610   24.5880   46.7480 N   0  0  0  0  0  0  0  0  0  0  0  0
   55.9250   25.6640   46.0570 C   0  0  0  0  0  0  0  0  0  0  0  0
   55.2040   26.6930   45.9650 O   0  0  0  0  0  0  0  0  0  0  0  0
   58.3590   30.0150   45.9020 C   0  0  0  0  0  0  0  0  0  0  0  0
   58.8340   31.3200   46.0440 C   0  0  0  0  0  0  0  0  0  0  0  0
   58.1653   32.0328   50.3133 H   0  0  0  0  0  0  0  0  0  0  0  0
   57.8084   32.8760   48.7679 H   0  0  0  0  0  0  0  0  0  0  0  0
   58.8171   31.3896   48.7679 H   0  0  0  0  0  0  0  0  0  0  0  0
   61.7965   31.3653   49.7290 H   0  0  0  0  0  0  0  0  0  0  0  0
   63.7997   31.2792   48.2500 H   0  0  0  0  0  0  0  0  0  0  0  0
   64.0183   32.8673   46.3398 H   0  0  0  0  0  0  0  0  0  0  0  0
   62.2241   34.5372   45.8938 H   0  0  0  0  0  0  0  0  0  0  0  0
   59.6263   35.4159   48.2531 H   0  0  0  0  0  0  0  0  0  0  0  0
   60.3946   35.7451   46.6532 H   0  0  0  0  0  0  0  0  0  0  0  0
   57.0087   32.8348   43.5744 H   0  0  0  0  0  0  0  0  0  0  0  0
   56.1527   30.5097   43.3346 H   0  0  0  0  0  0  0  0  0  0  0  0
   55.8610   28.2510   44.5650 H   0  0  0  0  0  0  0  0  0  0  0  0
   58.9581   24.3870   45.1336 H   0  0  0  0  0  0  0  0  0  0  0  0
   58.0476   22.4356   46.4026 H   0  0  0  0  0  0  0  0  0  0  0  0
   55.7776   22.5948   47.4395 H   0  0  0  0  0  0  0  0  0  0  0  0
   58.7393   29.2212   46.5617 H   0  0  0  0  0  0  0  0  0  0  0  0
   59.5858   31.5464   46.8145 H   0  0  0  0  0  0  0  0  0  0  0  0
  1  2  1  0
  2  3  1  0
  3  4  2  0
  4  5  1  0
  5  6  2  0
  6  7  1  0
  7  8  2  0
  8  9  1  0
  9 10  1  0
 10 11  1  0
 11 12  2  0
 11 13  1  0
 13 14  2  0
 14 15  1  0
 15 16  2  0
 16 17  1  0
 17 18  1  0
 18 19  2  0
 18 20  2  0
 18 21  1  0
 21 22  2  0
 22 23  1  0
 23 24  2  0
 24 25  1  0
 25 26  1  0
 26 27  2  0
 16 28  1  0
 28 29  2  0
  8  3  1  0
 29 13  1  0
 26 21  1  0
  1 30  1  0
  1 31  1  0
  1 32  1  0
  4 33  1  0
  5 34  1  0
  6 35  1  0
  7 36  1  0
  9 37  1  0
  9 38  1  0
 14 39  1  0
 15 40  1  0
 17 41  1  0
 22 42  1  0
 23 43  1  0
 24 44  1  0
 28 45  1  0
 29 46  1  0
M  CHG  2  10  -1  25  -1
M  END
>  <UniqueID>  (71) 
63

>  <SMILES>  (71) 
COc1ccccc1C[N-]C(=O)c1ccc(NS(=O)(=O)c2ccc[n-]c2=O)cc1

>  <Energy>  (71) 
53.97460047371655

>  <Genealogy>  (71) 
COc1ccccc1C[N-]C(=O)c1ccc(NS(=O)(=O)c2ccc[n-]c2=O)cc1 (protonated)
COc1ccccc1C[N-]C(=O)c1ccc(NS(=O)(=O)c2ccc[n-]c2=O)cc1 (3D coordinates assigned)
COc1ccccc1C[N-]C(=O)c1ccc(NS(=O)(=O)c2ccc[n-]c2=O)cc1 (optimized conformer: 53.97460047371655 kcal/mol)

>  <smiles>  (71) 
COc1ccccc1CNC(=O)c1ccc(NS(=O)(=O)c2ccc[nH]c2=O)cc1

>  <score_type>  (71) 
oracle

>  <origin>  (71) 
adg

>  <m_score__min__energy>  (71) 
-11.74

>  <m_primary>  (71) 
energy

$$$$
71:0
     RDKit          3D

 73 76  0  0  0  0  0  0  0  0999 V2000
   59.5089   28.5604   54.0136 H   0  0  0  0  0  0  0  0  0  0  0  0
   59.5180   29.4940   53.4320 C   0  0  0  0  0  0  0  0  0  0  0  0
   60.8110   30.0180   52.9600 C   0  0  0  0  0  0  0  0  0  0  0  0
   61.7520   30.2310   53.7730 O   0  0  0  0  0  0  0  0  0  0  0  0
   60.9970   30.2080   51.5520 N   0  0  0  0  0  0  0  0  0  0  0  0
   60.4640   29.4080   50.4870 C   0  0  0  0  0  0  0  0  0  0  0  0
   61.1030   28.2350   50.0460 C   0  0  0  0  0  0  0  0  0  0  0  0
   62.0365   27.9074   50.5269 H   0  0  0  0  0  0  0  0  0  0  0  0
   60.5600   27.4840   49.0020 C   0  0  0  0  0  0  0  0  0  0  0  0
   61.0632   26.5638   48.6701 H   0  0  0  0  0  0  0  0  0  0  0  0
   59.3770   27.8970   48.3750 C   0  0  0  0  0  0  0  0  0  0  0  0
   58.7840   27.1170   47.2700 C   0  0  0  0  0  0  0  0  0  0  0  0
   58.3420   26.1401   47.5155 H   0  0  0  0  0  0  0  0  0  0  0  0
   58.7450   27.5130   45.9880 C   0  0  0  0  0  0  0  0  0  0  0  0
   59.4804   27.0730   45.2983 H   0  0  0  0  0  0  0  0  0  0  0  0
   57.7860   28.4990   45.4290 C   0  0  0  0  0  0  0  0  0  0  0  0
   56.4370   28.1310   45.3520 C   0  0  0  0  0  0  0  0  0  0  0  0
   56.1226   27.1366   45.7017 H   0  0  0  0  0  0  0  0  0  0  0  0
   55.5160   28.9880   44.8510 N   0  0  0  0  0  0  0  0  0  0  0  0
   55.8530   30.2340   44.4350 C   0  0  0  0  0  0  0  0  0  0  0  0
   55.0776   30.9012   44.0306 H   0  0  0  0  0  0  0  0  0  0  0  0
   57.1780   30.6800   44.5150 C   0  0  0  0  0  0  0  0  0  0  0  0
   57.4110   32.0790   44.2380 C   0  0  0  0  0  0  0  0  0  0  0  0
   57.6060   33.1980   44.0110 N   0  0  0  0  0  0  0  0  0  0  0  0
   58.1810   29.7920   45.0010 C   0  0  0  0  0  0  0  0  0  0  0  0
   59.4470   30.1100   45.1100 N   0  0  0  0  0  0  0  0  0  0  0  0
   60.1050   30.9780   46.0380 C   0  0  0  0  0  0  0  0  0  0  0  0
   61.1180   30.4910   46.8750 C   0  0  0  0  0  0  0  0  0  0  0  0
   61.4680   29.4540   46.7645 H   0  0  0  0  0  0  0  0  0  0  0  0
   61.6860   31.3170   47.8500 C   0  0  0  0  0  0  0  0  0  0  0  0
   62.5084   30.9401   48.4757 H   0  0  0  0  0  0  0  0  0  0  0  0
   61.2100   32.6280   48.0340 C   0  0  0  0  0  0  0  0  0  0  0  0
   61.7500   33.4960   48.9980 O   0  0  0  0  0  0  0  0  0  0  0  0
   62.3450   33.0960   50.2320 C   0  0  0  0  0  0  0  0  0  0  0  0
   62.5623   32.0185   50.1900 H   0  0  0  0  0  0  0  0  0  0  0  0
   63.2669   33.6794   50.3727 H   0  0  0  0  0  0  0  0  0  0  0  0
   61.4370   33.3650   51.4020 C   0  0  0  0  0  0  0  0  0  0  0  0
   61.9140   33.2740   52.7230 C   0  0  0  0  0  0  0  0  0  0  0  0
   62.9724   33.0383   52.9082 H   0  0  0  0  0  0  0  0  0  0  0  0
   61.0480   33.4820   53.8010 C   0  0  0  0  0  0  0  0  0  0  0  0
   61.4290   33.4222   54.8312 H   0  0  0  0  0  0  0  0  0  0  0  0
   59.6980   33.7660   53.5710 C   0  0  0  0  0  0  0  0  0  0  0  0
   59.0177   33.9302   54.4197 H   0  0  0  0  0  0  0  0  0  0  0  0
   59.2140   33.8410   52.2620 C   0  0  0  0  0  0  0  0  0  0  0  0
   57.9020   34.1010   52.0390 F   0  0  0  0  0  0  0  0  0  0  0  0
   60.0780   33.6430   51.1800 C   0  0  0  0  0  0  0  0  0  0  0  0
   59.6920   33.7052   50.1518 H   0  0  0  0  0  0  0  0  0  0  0  0
   60.1540   33.0890   47.2310 C   0  0  0  0  0  0  0  0  0  0  0  0
   59.4940   34.7000   47.4680 Cl  0  0  0  0  0  0  0  0  0  0  0  0
   59.6030   32.2650   46.2450 C   0  0  0  0  0  0  0  0  0  0  0  0
   58.7693   32.6324   45.6286 H   0  0  0  0  0  0  0  0  0  0  0  0
   58.7440   29.0720   48.8020 C   0  0  0  0  0  0  0  0  0  0  0  0
   57.8038   29.3888   48.3269 H   0  0  0  0  0  0  0  0  0  0  0  0
   59.3020   29.8510   49.8350 C   0  0  0  0  0  0  0  0  0  0  0  0
   58.7300   31.0710   50.2380 O   0  0  0  0  0  0  0  0  0  0  0  0
   58.1590   32.0310   49.3540 C   0  0  0  0  0  0  0  0  0  0  0  0
   57.6830   32.8313   49.9397 H   0  0  0  0  0  0  0  0  0  0  0  0
   58.9484   32.4607   48.7198 H   0  0  0  0  0  0  0  0  0  0  0  0
   57.4046   31.5424   48.7198 H   0  0  0  0  0  0  0  0  0  0  0  0
   58.3560   30.1040   53.1840 C   0  0  0  0  0  0  0  0  0  0  0  0
   58.2971   31.2002   53.2545 H   0  0  0  0  0  0  0  0  0  0  0  0
   57.1220   29.3200   52.8090 C   0  0  0  0  0  0  0  0  0  0  0  0
   57.4327   28.4346   52.2349 H   0  0  0  0  0  0  0  0  0  0  0  0
   56.6117   29.0508   53.7456 H   0  0  0  0  0  0  0  0  0  0  0  0
   56.1600   30.0920   51.9950 N   0  0  0  0  0  0  0  0  0  0  0  0
   56.3760   31.5440   52.1080 C   0  0  0  0  0  0  0  0  0  0  0  0
   56.4181   31.8269   53.1702 H   0  0  0  0  0  0  0  0  0  0  0  0
   57.3240   31.8128   51.6191 H   0  0  0  0  0  0  0  0  0  0  0  0
   55.5473   32.0771   51.6191 H   0  0  0  0  0  0  0  0  0  0  0  0
   54.7590   29.7460   52.2980 C   0  0  0  0  0  0  0  0  0  0  0  0
   54.6175   29.7111   53.3883 H   0  0  0  0  0  0  0  0  0  0  0  0
   54.0918   30.5064   51.8659 H   0  0  0  0  0  0  0  0  0  0  0  0
   54.5225   28.7625   51.8659 H   0  0  0  0  0  0  0  0  0  0  0  0
  1  2  1  0
  2  3  1  0
  3  4  2  0
  3  5  1  0
  5  6  1  0
  6  7  2  0
  7  8  1  0
  7  9  1  0
  9 10  1  0
  9 11  2  0
 11 12  1  0
 12 13  1  0
 12 14  2  3
 14 15  1  0
 14 16  1  0
 16 17  2  0
 17 18  1  0
 17 19  1  0
 19 20  1  0
 20 21  1  0
 20 22  2  0
 22 23  1  0
 23 24  3  0
 22 25  1  0
 25 26  2  0
 26 27  1  0
 27 28  2  0
 28 29  1  0
 28 30  1  0
 30 31  1  0
 30 32  2  0
 32 33  1  0
 33 34  1  0
 34 35  1  0
 34 36  1  0
 34 37  1  0
 37 38  2  0
 38 39  1  0
 38 40  1  0
 40 41  1  0
 40 42  2  0
 42 43  1  0
 42 44  1  0
 44 45  1  0
 44 46  2  0
 46 47  1  0
 32 48  1  0
 48 49  1  0
 48 50  2  0
 50 51  1  0
 11 52  1  0
 52 53  1  0
 52 54  2  0
 54 55  1  0
 55 56  1  0
 56 57  1  0
 56 58  1  0
 56 59  1  0
  2 60  2  3
 60 61  1  0
 60 62  1  0
 62 63  1  0
 62 64  1  0
 62 65  1  0
 65 66  1  0
 66 67  1  0
 66 68  1  0
 66 69  1  0
 65 70  1  0
 70 71  1  0
 70 72  1  0
 70 73  1  0
 54  6  1  0
 25 16  1  0
 50 27  1  0
 46 37  1  0
M  CHG  2   5  -1  19  -1
M  END
>  <UniqueID>  (72) 
64

>  <SMILES>  (72) 
COc1cc(C=Cc2c[n-]cc(C#N)/c2=N\c2ccc(OCc3cccc(F)c3)c(Cl)c2)ccc1[N-]C(=O)C=CCN(C)C

>  <Energy>  (72) 
101.04028589648875

>  <Genealogy>  (72) 
COc1cc(C=Cc2c[n-]cc(C#N)c2=Nc2ccc(OCc3cccc(F)c3)c(Cl)c2)ccc1[N-]C(=O)C=CCN(C)C (protonated)
COc1cc(C=Cc2c[n-]cc(C#N)/c2=N\c2ccc(OCc3cccc(F)c3)c(Cl)c2)ccc1[N-]C(=O)C=CCN(C)C (cis-trans isomerization)
COc1cc(C=Cc2c[n-]cc(C#N)/c2=N\c2ccc(OCc3cccc(F)c3)c(Cl)c2)ccc1[N-]C(=O)C=CCN(C)C (3D coordinates assigned)
COc1cc(C=Cc2c[n-]cc(C#N)/c2=N\c2ccc(OCc3cccc(F)c3)c(Cl)c2)ccc1[N-]C(=O)C=CCN(C)C (optimized conformer: 101.04028589648875 kcal/mol)

>  <smiles>  (72) 
COc1cc(C=Cc2c[nH]cc(C#N)c2=Nc2ccc(OCc3cccc(F)c3)c(Cl)c2)ccc1NC(=O)C=CCN(C)C

>  <score_type>  (72) 
oracle

>  <origin>  (72) 
adg

>  <m_score__min__energy>  (72) 
-13.4

>  <m_primary>  (72) 
energy

$$$$
72:0
     RDKit          3D

 59 63  0  0  0  0  0  0  0  0999 V2000
   55.7350   21.8300   45.5570 C   0  0  0  0  0  0  0  0  0  0  0  0
   54.7950   23.3010   45.2180 S   0  0  0  0  0  0  0  0  0  0  0  0
   55.1800   23.8410   43.8720 O   0  0  0  0  0  0  0  0  0  0  0  0
   53.3350   22.9530   45.2330 O   0  0  0  0  0  0  0  0  0  0  0  0
   55.1370   24.4790   46.4410 N   0  0  0  0  0  0  0  0  0  0  0  0
   56.1720   25.4680   46.3720 C   0  0  0  0  0  0  0  0  0  0  0  0
   57.3620   25.2420   47.0700 C   0  0  0  0  0  0  0  0  0  0  0  0
   58.3850   26.1940   47.0570 C   0  0  0  0  0  0  0  0  0  0  0  0
   58.2260   27.4010   46.3570 C   0  0  0  0  0  0  0  0  0  0  0  0
   57.0420   27.6190   45.6420 C   0  0  0  0  0  0  0  0  0  0  0  0
   56.0220   26.6580   45.6400 C   0  0  0  0  0  0  0  0  0  0  0  0
   56.8590   29.1070   44.7570 S   0  0  0  0  0  0  0  0  0  0  0  0
   57.0170   28.8550   43.2840 O   0  0  0  0  0  0  0  0  0  0  0  0
   55.5130   29.7070   45.0420 O   0  0  0  0  0  0  0  0  0  0  0  0
   58.0940   30.1780   45.3040 N   0  0  0  0  0  0  0  0  0  0  0  0
   59.1250   29.7700   45.9920 C   0  0  0  0  0  0  0  0  0  0  0  0
   60.1680   30.7700   46.4440 C   0  0  1  0  0  0  0  0  0  0  0  0
   59.6120   32.1840   46.3710 C   0  0  0  0  0  0  0  0  0  0  0  0
   59.3170   32.6720   45.2870 O   0  0  0  0  0  0  0  0  0  0  0  0
   59.3470   32.9370   47.6460 C   0  0  2  0  0  0  0  0  0  0  0  0
   59.2350   34.4550   47.5590 C   0  0  0  0  0  0  0  0  0  0  0  0
   59.6570   34.9470   48.9550 C   0  0  0  0  0  0  0  0  0  0  0  0
   60.2360   33.7340   49.6970 C   0  0  0  0  0  0  0  0  0  0  0  0
   60.5040   32.7250   48.5900 C   0  0  1  0  0  0  0  0  0  0  0  0
   60.5820   31.3020   48.9450 N   0  0  0  0  0  0  0  0  0  0  0  0
   60.6160   30.8050   50.3300 C   0  0  0  0  0  0  0  0  0  0  0  0
   59.2170   30.6850   50.8820 C   0  0  0  0  0  0  0  0  0  0  0  0
   58.8240   29.5380   51.5940 C   0  0  0  0  0  0  0  0  0  0  0  0
   57.5450   29.4570   52.1540 C   0  0  0  0  0  0  0  0  0  0  0  0
   56.6410   30.5100   51.9940 C   0  0  0  0  0  0  0  0  0  0  0  0
   55.0400   30.4060   52.6970 Cl  0  0  0  0  0  0  0  0  0  0  0  0
   57.0120   31.6410   51.2640 C   0  0  0  0  0  0  0  0  0  0  0  0
   58.2910   31.7280   50.7070 C   0  0  0  0  0  0  0  0  0  0  0  0
   60.6700   30.3850   47.8310 C   0  0  0  0  0  0  0  0  0  0  0  0
   61.1810   29.2450   47.9930 O   0  0  0  0  0  0  0  0  0  0  0  0
   59.2710   28.3940   46.3960 N   0  0  0  0  0  0  0  0  0  0  0  0
   55.8224   21.6933   46.6450 H   0  0  0  0  0  0  0  0  0  0  0  0
   55.2252   20.9598   45.1179 H   0  0  0  0  0  0  0  0  0  0  0  0
   56.7389   21.9270   45.1179 H   0  0  0  0  0  0  0  0  0  0  0  0
   57.4942   24.3070   47.6342 H   0  0  0  0  0  0  0  0  0  0  0  0
   59.3216   25.9965   47.5990 H   0  0  0  0  0  0  0  0  0  0  0  0
   55.1018   26.8357   45.0641 H   0  0  0  0  0  0  0  0  0  0  0  0
   57.9870   31.1830   45.0540 H   0  0  0  0  0  0  0  0  0  0  0  0
   61.0366   30.7502   45.7693 H   0  0  0  0  0  0  0  0  0  0  0  0
   58.3705   32.5390   47.9589 H   0  0  0  0  0  0  0  0  0  0  0  0
   59.9090   34.8519   46.7855 H   0  0  0  0  0  0  0  0  0  0  0  0
   58.2230   34.7871   47.2840 H   0  0  0  0  0  0  0  0  0  0  0  0
   60.4194   35.7347   48.8643 H   0  0  0  0  0  0  0  0  0  0  0  0
   58.8003   35.3706   49.4997 H   0  0  0  0  0  0  0  0  0  0  0  0
   61.1675   34.0011   50.2176 H   0  0  0  0  0  0  0  0  0  0  0  0
   59.5580   33.3457   50.4713 H   0  0  0  0  0  0  0  0  0  0  0  0
   61.5153   32.9127   48.2000 H   0  0  0  0  0  0  0  0  0  0  0  0
   61.0986   29.8167   50.3483 H   0  0  0  0  0  0  0  0  0  0  0  0
   61.1835   31.5152   50.9493 H   0  0  0  0  0  0  0  0  0  0  0  0
   59.5265   28.6997   51.7112 H   0  0  0  0  0  0  0  0  0  0  0  0
   57.2502   28.5621   52.7217 H   0  0  0  0  0  0  0  0  0  0  0  0
   56.2964   32.4651   51.1270 H   0  0  0  0  0  0  0  0  0  0  0  0
   58.5749   32.6189   50.1276 H   0  0  0  0  0  0  0  0  0  0  0  0
   60.1710   28.1210   46.8520 H   0  0  0  0  0  0  0  0  0  0  0  0
  1  2  1  0
  2  3  2  0
  2  4  2  0
  2  5  1  0
  5  6  1  0
  6  7  2  0
  7  8  1  0
  8  9  2  0
  9 10  1  0
 10 11  2  0
 10 12  1  0
 12 13  2  0
 12 14  2  0
 12 15  1  0
 15 16  2  0
 16 17  1  0
 17 18  1  0
 18 19  2  0
 18 20  1  0
 20 21  1  0
 21 22  1  0
 22 23  1  0
 23 24  1  0
 24 25  1  0
 25 26  1  0
 26 27  1  0
 27 28  2  0
 28 29  1  0
 29 30  2  0
 30 31  1  0
 30 32  1  0
 32 33  2  0
 25 34  1  0
 34 35  2  0
 16 36  1  0
 11  6  1  0
 34 17  1  0
 36  9  1  0
 24 20  1  0
 33 27  1  0
  1 37  1  0
  1 38  1  0
  1 39  1  0
  7 40  1  0
  8 41  1  0
 11 42  1  0
 15 43  1  0
 17 44  1  6
 20 45  1  1
 21 46  1  0
 21 47  1  0
 22 48  1  0
 22 49  1  0
 23 50  1  0
 23 51  1  0
 24 52  1  6
 26 53  1  0
 26 54  1  0
 28 55  1  0
 29 56  1  0
 32 57  1  0
 33 58  1  0
 36 59  1  0
M  CHG  2   5  -1  15   1
M  END
>  <UniqueID>  (73) 
65

>  <SMILES>  (73) 
CS(=O)(=O)[N-]c1ccc2c(c1)S(=O)(=O)[NH+]=C([C@H]1C(=O)[C@@H]3CCCC3N(Cc3ccc(Cl)cc3)C1=O)N2

>  <Energy>  (73) 
76.18441711363457

>  <Genealogy>  (73) 
CS(=O)(=O)[N-]c1ccc2c(c1)S(=O)(=O)[NH+]=C(C1C(=O)C3CCCC3N(Cc3ccc(Cl)cc3)C1=O)N2 (protonated)
CS(=O)(=O)[N-]c1ccc2c(c1)S(=O)(=O)[NH+]=C([C@H]1C(=O)[C@@H]3CCCC3N(Cc3ccc(Cl)cc3)C1=O)N2 (chirality)
CS(=O)(=O)[N-]c1ccc2c(c1)S(=O)(=O)[NH+]=C([C@H]1C(=O)[C@@H]3CCCC3N(Cc3ccc(Cl)cc3)C1=O)N2 (3D coordinates assigned)
CS(=O)(=O)[N-]c1ccc2c(c1)S(=O)(=O)[NH+]=C([C@H]1C(=O)[C@@H]3CCCC3N(Cc3ccc(Cl)cc3)C1=O)N2 (nonaromatic ring conformer: 76.18441711363457 kcal/mol)

>  <smiles>  (73) 
CS(=O)(=O)Nc1ccc2c(c1)S(=O)(=O)N=C(C1C(=O)C3CCCC3N(Cc3ccc(Cl)cc3)C1=O)N2

>  <score_type>  (73) 
oracle

>  <origin>  (73) 
adg

>  <m_score__min__energy>  (73) 
-10.34

>  <m_primary>  (73) 
energy

$$$$
73:0
     RDKit          3D

 39 41  0  0  0  0  0  0  0  0999 V2000
   54.3860   25.1230   45.6190 C   0  0  0  0  0  0  0  0  0  0  0  0
   55.1110   26.3300   46.0040 N   0  0  0  0  0  0  0  0  0  0  0  0
   56.8150   25.9960   46.0670 S   0  0  0  0  0  0  0  0  0  0  0  0
   57.1970   25.5560   47.4530 O   0  0  0  0  0  0  0  0  0  0  0  0
   57.1320   24.8810   45.1110 O   0  0  0  0  0  0  0  0  0  0  0  0
   57.7360   27.4270   45.6080 C   0  0  0  0  0  0  0  0  0  0  0  0
   59.1350   27.3730   45.5740 C   0  0  0  0  0  0  0  0  0  0  0  0
   59.8710   28.4980   45.1950 C   0  0  0  0  0  0  0  0  0  0  0  0
   59.2150   29.6810   44.8430 C   0  0  0  0  0  0  0  0  0  0  0  0
   57.8120   29.7500   44.8650 C   0  0  0  0  0  0  0  0  0  0  0  0
   57.1210   31.0000   44.4810 C   0  0  0  0  0  0  0  0  0  0  0  0
   55.8630   31.0760   44.5470 O   0  0  0  0  0  0  0  0  0  0  0  0
   57.8680   32.1020   44.0450 O   0  0  0  0  0  0  0  0  0  0  0  0
   57.7610   33.3990   44.6290 C   0  0  0  0  0  0  0  0  0  0  0  0
   58.7960   33.5820   45.6500 N   0  0  0  0  0  0  0  0  0  0  0  0
   60.0230   33.9380   45.2610 N   0  0  0  0  0  0  0  0  0  0  0  0
   61.0150   34.1090   46.1330 N   0  0  0  0  0  0  0  0  0  0  0  0
   60.8180   33.9230   47.4600 C   0  0  0  0  0  0  0  0  0  0  0  0
   61.8720   34.1040   48.3630 C   0  0  0  0  0  0  0  0  0  0  0  0
   61.6600   33.9090   49.7300 C   0  0  0  0  0  0  0  0  0  0  0  0
   60.3960   33.5340   50.1980 C   0  0  0  0  0  0  0  0  0  0  0  0
   59.3400   33.3510   49.3010 C   0  0  0  0  0  0  0  0  0  0  0  0
   59.5460   33.5460   47.9220 C   0  0  0  0  0  0  0  0  0  0  0  0
   58.5240   33.3770   46.9760 C   0  0  0  0  0  0  0  0  0  0  0  0
   57.3640   33.0380   47.3440 O   0  0  0  0  0  0  0  0  0  0  0  0
   57.0770   28.6120   45.2500 C   0  0  0  0  0  0  0  0  0  0  0  0
   54.0630   24.5853   46.5227 H   0  0  0  0  0  0  0  0  0  0  0  0
   53.5044   25.3995   45.0221 H   0  0  0  0  0  0  0  0  0  0  0  0
   55.0442   24.4746   45.0221 H   0  0  0  0  0  0  0  0  0  0  0  0
   59.6552   26.4428   45.8463 H   0  0  0  0  0  0  0  0  0  0  0  0
   60.9699   28.4529   45.1735 H   0  0  0  0  0  0  0  0  0  0  0  0
   59.8010   30.5636   44.5469 H   0  0  0  0  0  0  0  0  0  0  0  0
   57.8847   34.1613   43.8457 H   0  0  0  0  0  0  0  0  0  0  0  0
   56.7717   33.5001   45.0991 H   0  0  0  0  0  0  0  0  0  0  0  0
   62.8662   34.3995   47.9967 H   0  0  0  0  0  0  0  0  0  0  0  0
   62.4884   34.0506   50.4397 H   0  0  0  0  0  0  0  0  0  0  0  0
   60.2328   33.3827   51.2753 H   0  0  0  0  0  0  0  0  0  0  0  0
   58.3479   33.0546   49.6724 H   0  0  0  0  0  0  0  0  0  0  0  0
   55.9779   28.6530   45.2700 H   0  0  0  0  0  0  0  0  0  0  0  0
  1  2  1  0
  2  3  1  0
  3  4  2  0
  3  5  2  0
  3  6  1  0
  6  7  2  0
  7  8  1  0
  8  9  2  0
  9 10  1  0
 10 11  1  0
 11 12  2  0
 11 13  1  0
 13 14  1  0
 14 15  1  0
 15 16  1  0
 16 17  2  0
 17 18  1  0
 18 19  2  0
 19 20  1  0
 20 21  2  0
 21 22  1  0
 22 23  2  0
 23 24  1  0
 24 25  2  0
 10 26  2  0
 26  6  1  0
 24 15  1  0
 23 18  1  0
  1 27  1  0
  1 28  1  0
  1 29  1  0
  7 30  1  0
  8 31  1  0
  9 32  1  0
 14 33  1  0
 14 34  1  0
 19 35  1  0
 20 36  1  0
 21 37  1  0
 22 38  1  0
 26 39  1  0
M  CHG  1   2  -1
M  END
>  <UniqueID>  (74) 
66

>  <SMILES>  (74) 
C[N-]S(=O)(=O)c1cccc(C(=O)OCn2nnc3ccccc3c2=O)c1

>  <Energy>  (74) 
43.7868213152251

>  <Genealogy>  (74) 
C[N-]S(=O)(=O)c1cccc(C(=O)OCn2nnc3ccccc3c2=O)c1 (protonated)
C[N-]S(=O)(=O)c1cccc(C(=O)OCn2nnc3ccccc3c2=O)c1 (3D coordinates assigned)
C[N-]S(=O)(=O)c1cccc(C(=O)OCn2nnc3ccccc3c2=O)c1 (optimized conformer: 43.7868213152251 kcal/mol)

>  <smiles>  (74) 
CNS(=O)(=O)c1cccc(C(=O)OCn2nnc3ccccc3c2=O)c1

>  <score_type>  (74) 
oracle

>  <origin>  (74) 
adg

>  <m_score__min__energy>  (74) 
-10.609999999999999

>  <m_primary>  (74) 
energy

$$$$
74:0
     RDKit          3D

 68 72  0  0  0  0  0  0  0  0999 V2000
   56.2520   30.4690   43.7240 C   0  0  0  0  0  0  0  0  0  0  0  0
   56.3230   29.6370   44.8750 O   0  0  0  0  0  0  0  0  0  0  0  0
   57.5290   29.1610   45.3980 C   0  0  0  0  0  0  0  0  0  0  0  0
   57.8640   29.0420   46.7430 C   0  0  0  0  0  0  0  0  0  0  0  0
   59.1560   28.5300   46.9330 C   0  0  0  0  0  0  0  0  0  0  0  0
   59.7470   28.2560   48.2820 C   0  0  0  0  0  0  0  0  0  0  0  0
   59.7670   29.5030   49.0760 N   0  0  0  0  0  0  0  0  0  0  0  0
   60.8850   30.4130   48.7280 C   0  0  0  0  0  0  0  0  0  0  0  0
   60.4740   31.6100   47.8930 C   0  0  0  0  0  0  0  0  0  0  0  0
   61.4300   32.5440   47.4660 C   0  0  0  0  0  0  0  0  0  0  0  0
   61.0470   33.6550   46.7080 C   0  0  0  0  0  0  0  0  0  0  0  0
   59.6990   33.8570   46.3690 C   0  0  0  0  0  0  0  0  0  0  0  0
   59.2890   35.0310   45.5670 C   0  0  0  0  0  0  0  0  0  0  0  0
   59.9100   36.1230   45.6670 O   0  0  0  0  0  0  0  0  0  0  0  0
   58.2110   34.9480   44.6940 O   0  0  0  0  0  0  0  0  0  0  0  0
   58.7400   32.9310   46.8120 C   0  0  0  0  0  0  0  0  0  0  0  0
   59.1230   31.8230   47.5720 C   0  0  0  0  0  0  0  0  0  0  0  0
   59.6350   29.2650   50.5270 C   0  0  0  0  0  0  0  0  0  0  0  0
   58.5720   30.1620   51.1060 C   0  0  0  0  0  0  0  0  0  0  0  0
   58.4090   31.4760   50.6370 C   0  0  0  0  0  0  0  0  0  0  0  0
   57.4390   32.3090   51.2010 C   0  0  0  0  0  0  0  0  0  0  0  0
   56.6240   31.8400   52.2360 C   0  0  0  0  0  0  0  0  0  0  0  0
   56.7700   30.5250   52.7080 C   0  0  0  0  0  0  0  0  0  0  0  0
   55.9260   30.0200   53.8470 C   0  0  0  0  0  0  0  0  0  0  0  0
   55.0220   28.9400   53.3900 N   0  0  0  0  0  0  0  0  0  0  0  0
   53.9360   28.6270   54.3470 C   0  0  0  0  0  0  0  0  0  0  0  0
   52.9400   29.7850   54.5220 C   0  0  0  0  0  0  0  0  0  0  0  0
   52.6180   30.4800   53.2250 C   0  0  0  0  0  0  0  0  0  0  0  0
   51.5800   31.4260   53.1950 C   0  0  0  0  0  0  0  0  0  0  0  0
   51.2950   32.1270   52.0200 C   0  0  0  0  0  0  0  0  0  0  0  0
   50.2640   33.0580   52.0010 O   0  0  0  0  0  0  0  0  0  0  0  0
   52.0450   31.8900   50.8660 C   0  0  0  0  0  0  0  0  0  0  0  0
   53.0840   30.9570   50.8850 C   0  0  0  0  0  0  0  0  0  0  0  0
   53.3900   30.2600   52.0640 C   0  0  0  0  0  0  0  0  0  0  0  0
   54.4710   29.2070   52.0470 C   0  0  0  0  0  0  0  0  0  0  0  0
   57.7430   29.6910   52.1370 C   0  0  0  0  0  0  0  0  0  0  0  0
   59.8250   28.2420   45.7470 C   0  0  0  0  0  0  0  0  0  0  0  0
   58.8170   28.6330   44.4580 S   0  0  0  0  0  0  0  0  0  0  0  0
   56.1623   31.5199   44.0362 H   0  0  0  0  0  0  0  0  0  0  0  0
   57.1643   30.3417   43.1227 H   0  0  0  0  0  0  0  0  0  0  0  0
   55.3745   30.1890   43.1227 H   0  0  0  0  0  0  0  0  0  0  0  0
   57.1898   29.3190   47.5669 H   0  0  0  0  0  0  0  0  0  0  0  0
   59.1392   27.5006   48.8016 H   0  0  0  0  0  0  0  0  0  0  0  0
   60.7746   27.8822   48.1621 H   0  0  0  0  0  0  0  0  0  0  0  0
   61.3336   30.7816   49.6623 H   0  0  0  0  0  0  0  0  0  0  0  0
   61.5903   29.8291   48.1185 H   0  0  0  0  0  0  0  0  0  0  0  0
   62.4884   32.4013   47.7294 H   0  0  0  0  0  0  0  0  0  0  0  0
   61.8075   34.3765   46.3746 H   0  0  0  0  0  0  0  0  0  0  0  0
   57.6799   33.0793   46.5587 H   0  0  0  0  0  0  0  0  0  0  0  0
   58.3605   31.1116   47.9219 H   0  0  0  0  0  0  0  0  0  0  0  0
   59.3576   28.2146   50.6993 H   0  0  0  0  0  0  0  0  0  0  0  0
   60.5956   29.4844   51.0159 H   0  0  0  0  0  0  0  0  0  0  0  0
   59.0471   31.8506   49.8230 H   0  0  0  0  0  0  0  0  0  0  0  0
   57.3162   33.3371   50.8295 H   0  0  0  0  0  0  0  0  0  0  0  0
   55.8670   32.5022   52.6815 H   0  0  0  0  0  0  0  0  0  0  0  0
   56.5833   29.6301   54.6382 H   0  0  0  0  0  0  0  0  0  0  0  0
   55.3173   30.8515   54.2317 H   0  0  0  0  0  0  0  0  0  0  0  0
   53.3888   27.7458   53.9808 H   0  0  0  0  0  0  0  0  0  0  0  0
   54.4022   28.4420   55.3260 H   0  0  0  0  0  0  0  0  0  0  0  0
   52.0076   29.3852   54.9472 H   0  0  0  0  0  0  0  0  0  0  0  0
   53.4076   30.5259   55.1872 H   0  0  0  0  0  0  0  0  0  0  0  0
   50.9877   31.6163   54.1022 H   0  0  0  0  0  0  0  0  0  0  0  0
   51.8170   32.4391   49.9405 H   0  0  0  0  0  0  0  0  0  0  0  0
   53.6657   30.7674   49.9708 H   0  0  0  0  0  0  0  0  0  0  0  0
   54.0478   28.2736   51.6475 H   0  0  0  0  0  0  0  0  0  0  0  0
   55.2919   29.5812   51.4176 H   0  0  0  0  0  0  0  0  0  0  0  0
   57.8575   28.6590   52.5001 H   0  0  0  0  0  0  0  0  0  0  0  0
   60.8411   27.8286   45.6661 H   0  0  0  0  0  0  0  0  0  0  0  0
  1  2  1  0
  2  3  1  0
  3  4  2  0
  4  5  1  0
  5  6  1  0
  6  7  1  0
  7  8  1  0
  8  9  1  0
  9 10  2  0
 10 11  1  0
 11 12  2  0
 12 13  1  0
 13 14  2  0
 13 15  1  0
 12 16  1  0
 16 17  2  0
  7 18  1  0
 18 19  1  0
 19 20  2  0
 20 21  1  0
 21 22  2  0
 22 23  1  0
 23 24  1  0
 24 25  1  0
 25 26  1  0
 26 27  1  0
 27 28  1  0
 28 29  2  0
 29 30  1  0
 30 31  1  0
 30 32  2  0
 32 33  1  0
 33 34  2  0
 34 35  1  0
 23 36  2  0
  5 37  2  0
 37 38  1  0
 38  3  1  0
 17  9  1  0
 36 19  1  0
 35 25  1  0
 34 28  1  0
  1 39  1  0
  1 40  1  0
  1 41  1  0
  4 42  1  0
  6 43  1  0
  6 44  1  0
  8 45  1  0
  8 46  1  0
 10 47  1  0
 11 48  1  0
 16 49  1  0
 17 50  1  0
 18 51  1  0
 18 52  1  0
 20 53  1  0
 21 54  1  0
 22 55  1  0
 24 56  1  0
 24 57  1  0
 26 58  1  0
 26 59  1  0
 27 60  1  0
 27 61  1  0
 29 62  1  0
 32 63  1  0
 33 64  1  0
 35 65  1  0
 35 66  1  0
 36 67  1  0
 37 68  1  0
M  CHG  2  15  -1  31  -1
M  END
>  <UniqueID>  (75) 
67

>  <SMILES>  (75) 
COc1cc(CN(Cc2ccc(C(=O)[O-])cc2)Cc2cccc(CN3CCc4cc([O-])ccc4C3)c2)cs1

>  <Energy>  (75) 
105.8027433154098

>  <Genealogy>  (75) 
COc1cc(CN(Cc2ccc(C(=O)[O-])cc2)Cc2cccc(CN3CCc4cc([O-])ccc4C3)c2)cs1 (protonated)
COc1cc(CN(Cc2ccc(C(=O)[O-])cc2)Cc2cccc(CN3CCc4cc([O-])ccc4C3)c2)cs1 (3D coordinates assigned)
COc1cc(CN(Cc2ccc(C(=O)[O-])cc2)Cc2cccc(CN3CCc4cc([O-])ccc4C3)c2)cs1 (nonaromatic ring conformer: 105.8027433154098 kcal/mol)

>  <smiles>  (75) 
COc1cc(CN(Cc2ccc(C(=O)O)cc2)Cc2cccc(CN3CCc4cc(O)ccc4C3)c2)cs1

>  <score_type>  (75) 
oracle

>  <origin>  (75) 
adg

>  <m_score__min__energy>  (75) 
-16.5

>  <m_primary>  (75) 
energy

$$$$
75:0
     RDKit          3D

 58 61  0  0  0  0  0  0  0  0999 V2000
   55.4090   22.3740   48.5970 C   0  0  0  0  0  0  0  0  0  0  0  0
   56.4390   22.7860   47.6720 N   0  0  0  0  0  0  0  0  0  0  0  0
   56.5000   23.9650   47.1780 C   0  0  0  0  0  0  0  0  0  0  0  0
   55.5190   24.5700   46.4910 N   0  0  0  0  0  0  0  0  0  0  0  0
   55.6270   25.8100   45.9830 C   0  0  0  0  0  0  0  0  0  0  0  0
   56.7900   26.5420   46.1500 C   0  0  0  0  0  0  0  0  0  0  0  0
   56.9180   27.8850   45.6100 C   0  0  0  0  0  0  0  0  0  0  0  0
   58.0300   28.6180   45.3970 N   0  0  0  0  0  0  0  0  0  0  0  0
   57.5830   29.7720   44.8930 C   0  0  0  0  0  0  0  0  0  0  0  0
   58.3420   30.9970   44.4600 C   0  0  0  0  0  0  0  0  0  0  0  0
   58.9310   31.5520   45.7470 C   0  0  0  0  0  0  0  0  0  0  0  0
   57.9740   32.5280   46.3230 C   0  0  0  0  0  0  0  0  0  0  0  0
   57.8550   33.7140   45.4880 N   0  0  0  0  0  0  0  0  0  0  0  0
   59.1770   34.2750   45.3290 C   0  0  0  0  0  0  0  0  0  0  0  0
   59.6430   34.8060   46.6270 C   0  0  0  0  0  0  0  0  0  0  0  0
   59.6530   36.0700   46.7430 O   0  0  0  0  0  0  0  0  0  0  0  0
   60.0770   34.0550   47.7270 N   0  0  0  0  0  0  0  0  0  0  0  0
   60.5410   34.5850   48.9920 C   0  0  0  0  0  0  0  0  0  0  0  0
   61.9460   34.1120   49.1760 C   0  0  0  0  0  0  0  0  0  0  0  0
   62.7030   33.5600   48.1740 C   0  0  0  0  0  0  0  0  0  0  0  0
   64.0000   33.1090   48.3700 C   0  0  0  0  0  0  0  0  0  0  0  0
   64.5930   33.2040   49.6220 C   0  0  0  0  0  0  0  0  0  0  0  0
   65.9800   32.7130   49.8220 C   0  0  0  0  0  0  0  0  0  0  0  0
   63.8400   33.7620   50.6420 C   0  0  0  0  0  0  0  0  0  0  0  0
   62.5600   34.2020   50.4290 C   0  0  0  0  0  0  0  0  0  0  0  0
   57.4110   33.3520   44.1520 C   0  0  0  0  0  0  0  0  0  0  0  0
   57.3840   31.9180   43.8100 C   0  0  0  0  0  0  0  0  0  0  0  0
   56.2190   29.7570   44.7940 N   0  0  0  0  0  0  0  0  0  0  0  0
   55.8730   28.5880   45.2430 O   0  0  0  0  0  0  0  0  0  0  0  0
   57.8070   25.9090   46.8640 C   0  0  0  0  0  0  0  0  0  0  0  0
   57.6360   24.6620   47.3500 N   0  0  0  0  0  0  0  0  0  0  0  0
   55.7642   22.5161   49.6283 H   0  0  0  0  0  0  0  0  0  0  0  0
   54.5056   22.9800   48.4336 H   0  0  0  0  0  0  0  0  0  0  0  0
   55.1728   21.3122   48.4336 H   0  0  0  0  0  0  0  0  0  0  0  0
   54.7830   26.2472   45.4293 H   0  0  0  0  0  0  0  0  0  0  0  0
   59.1448   30.8148   43.7304 H   0  0  0  0  0  0  0  0  0  0  0  0
   59.0994   30.7324   46.4611 H   0  0  0  0  0  0  0  0  0  0  0  0
   59.8916   32.0458   45.5384 H   0  0  0  0  0  0  0  0  0  0  0  0
   56.9864   32.0515   46.4101 H   0  0  0  0  0  0  0  0  0  0  0  0
   58.3480   32.8369   47.3103 H   0  0  0  0  0  0  0  0  0  0  0  0
   59.8686   33.4929   44.9826 H   0  0  0  0  0  0  0  0  0  0  0  0
   59.1450   35.0882   44.5889 H   0  0  0  0  0  0  0  0  0  0  0  0
   60.0830   33.0150   47.6330 H   0  0  0  0  0  0  0  0  0  0  0  0
   60.5120   35.6845   48.9741 H   0  0  0  0  0  0  0  0  0  0  0  0
   59.9008   34.2434   49.8187 H   0  0  0  0  0  0  0  0  0  0  0  0
   62.2618   33.4710   47.1703 H   0  0  0  0  0  0  0  0  0  0  0  0
   64.5613   32.6741   47.5299 H   0  0  0  0  0  0  0  0  0  0  0  0
   66.1908   32.6384   50.8990 H   0  0  0  0  0  0  0  0  0  0  0  0
   66.0886   31.7218   49.3576 H   0  0  0  0  0  0  0  0  0  0  0  0
   66.6881   33.4151   49.3576 H   0  0  0  0  0  0  0  0  0  0  0  0
   64.2798   33.8540   51.6461 H   0  0  0  0  0  0  0  0  0  0  0  0
   61.9990   34.6388   51.2683 H   0  0  0  0  0  0  0  0  0  0  0  0
   56.3892   33.7399   44.0277 H   0  0  0  0  0  0  0  0  0  0  0  0
   58.1639   33.7871   43.4784 H   0  0  0  0  0  0  0  0  0  0  0  0
   56.3749   31.5509   44.0485 H   0  0  0  0  0  0  0  0  0  0  0  0
   57.6837   31.8986   42.7518 H   0  0  0  0  0  0  0  0  0  0  0  0
   58.7596   26.4324   47.0329 H   0  0  0  0  0  0  0  0  0  0  0  0
   58.4440   24.2310   47.8870 H   0  0  0  0  0  0  0  0  0  0  0  0
  1  2  1  0
  2  3  2  3
  3  4  1  0
  4  5  2  0
  5  6  1  0
  6  7  1  0
  7  8  2  0
  8  9  1  0
  9 10  1  0
 10 11  1  0
 11 12  1  0
 12 13  1  0
 13 14  1  0
 14 15  1  0
 15 16  2  0
 15 17  1  0
 17 18  1  0
 18 19  1  0
 19 20  2  0
 20 21  1  0
 21 22  2  0
 22 23  1  0
 22 24  1  0
 24 25  2  0
 13 26  1  0
 26 27  1  0
  9 28  2  0
 28 29  1  0
  6 30  2  0
 30 31  1  0
 31  3  1  0
 29  7  1  0
 27 10  1  0
 25 19  1  0
  1 32  1  0
  1 33  1  0
  1 34  1  0
  5 35  1  0
 10 36  1  0
 11 37  1  0
 11 38  1  0
 12 39  1  0
 12 40  1  0
 14 41  1  0
 14 42  1  0
 17 43  1  0
 18 44  1  0
 18 45  1  0
 20 46  1  0
 21 47  1  0
 23 48  1  0
 23 49  1  0
 23 50  1  0
 24 51  1  0
 25 52  1  0
 26 53  1  0
 26 54  1  0
 27 55  1  0
 27 56  1  0
 30 57  1  0
 31 58  1  0
M  END
>  <smiles>  (76) 
CN=c1ncc(-c2nc(C3CCN(CC(=O)NCc4ccc(C)cc4)CC3)no2)c[nH]1

>  <score_type>  (76) 
oracle

>  <origin>  (76) 
adg

>  <m_score__min__energy>  (76) 
-9.8200000000000003

>  <m_primary>  (76) 
energy

$$$$
76:0
     RDKit          3D

 31 32  0  0  0  0  0  0  0  0999 V2000
   56.2650   29.3780   42.7230 C   0  0  0  0  0  0  0  0  0  0  0  0
   56.7970   30.1640   43.8770 C   0  0  0  0  0  0  0  0  0  0  0  0
   55.9940   30.6660   44.7090 O   0  0  0  0  0  0  0  0  0  0  0  0
   58.2130   30.3010   44.0560 N   0  0  0  0  0  0  0  0  0  0  0  0
   58.8070   30.9110   45.2460 C   0  0  0  0  0  0  0  0  0  0  0  0
   58.4830   30.0880   46.4950 C   0  0  0  0  0  0  0  0  0  0  0  0
   58.8520   28.6460   46.3140 C   0  0  0  0  0  0  0  0  0  0  0  0
   60.1300   28.1210   46.1340 C   0  0  0  0  0  0  0  0  0  0  0  0
   60.0670   26.7880   45.8950 N   0  0  0  0  0  0  0  0  0  0  0  0
   58.7600   26.4720   45.9120 C   0  0  0  0  0  0  0  0  0  0  0  0
   58.1710   25.2340   45.6840 C   0  0  0  0  0  0  0  0  0  0  0  0
   56.7620   25.1610   45.7240 C   0  0  0  0  0  0  0  0  0  0  0  0
   56.0670   23.8540   45.4690 C   0  0  0  0  0  0  0  0  0  0  0  0
   56.0110   26.3460   45.9740 C   0  0  0  0  0  0  0  0  0  0  0  0
   54.7520   26.3090   45.9970 O   0  0  0  0  0  0  0  0  0  0  0  0
   56.6470   27.5380   46.1860 N   0  0  0  0  0  0  0  0  0  0  0  0
   58.0010   27.5760   46.1600 C   0  0  0  0  0  0  0  0  0  0  0  0
   55.6855   28.5218   43.0986 H   0  0  0  0  0  0  0  0  0  0  0  0
   55.6151   30.0202   42.1104 H   0  0  0  0  0  0  0  0  0  0  0  0
   57.1027   29.0133   42.1104 H   0  0  0  0  0  0  0  0  0  0  0  0
   58.8520   29.8370   43.3720 H   0  0  0  0  0  0  0  0  0  0  0  0
   59.8986   30.9608   45.1196 H   0  0  0  0  0  0  0  0  0  0  0  0
   58.3906   31.9215   45.3706 H   0  0  0  0  0  0  0  0  0  0  0  0
   59.0450   30.4964   47.3479 H   0  0  0  0  0  0  0  0  0  0  0  0
   57.3995   30.1469   46.6756 H   0  0  0  0  0  0  0  0  0  0  0  0
   61.0602   28.7064   46.1795 H   0  0  0  0  0  0  0  0  0  0  0  0
   60.8700   26.1450   45.7120 H   0  0  0  0  0  0  0  0  0  0  0  0
   58.7816   24.3422   45.4795 H   0  0  0  0  0  0  0  0  0  0  0  0
   55.8147   23.3795   46.4288 H   0  0  0  0  0  0  0  0  0  0  0  0
   55.1457   24.0344   44.8957 H   0  0  0  0  0  0  0  0  0  0  0  0
   56.7317   23.1910   44.8957 H   0  0  0  0  0  0  0  0  0  0  0  0
  1  2  1  0
  2  3  2  0
  2  4  1  0
  4  5  1  0
  5  6  1  0
  6  7  1  0
  7  8  2  0
  8  9  1  0
  9 10  1  0
 10 11  1  0
 11 12  2  0
 12 13  1  0
 12 14  1  0
 14 15  2  0
 14 16  1  0
 16 17  1  0
 17  7  1  0
 17 10  2  0
  1 18  1  0
  1 19  1  0
  1 20  1  0
  4 21  1  0
  5 22  1  0
  5 23  1  0
  6 24  1  0
  6 25  1  0
  8 26  1  0
  9 27  1  0
 11 28  1  0
 13 29  1  0
 13 30  1  0
 13 31  1  0
M  CHG  1  16  -1
M  END
>  <UniqueID>  (77) 
68

>  <SMILES>  (77) 
CC(=O)NCCc1c[nH]c2cc(C)c(=O)[n-]c12

>  <Energy>  (77) 
59.16433144010651

>  <Genealogy>  (77) 
CC(=O)NCCc1c[nH]c2cc(C)c(=O)[n-]c12 (protonated)
CC(=O)NCCc1c[nH]c2cc(C)c(=O)[n-]c12 (3D coordinates assigned)
CC(=O)NCCc1c[nH]c2cc(C)c(=O)[n-]c12 (optimized conformer: 59.16433144010651 kcal/mol)

>  <smiles>  (77) 
CC(=O)NCCc1c[nH]c2cc(C)c(=O)[nH]c12

>  <score_type>  (77) 
oracle

>  <origin>  (77) 
adg

>  <m_score__min__energy>  (77) 
-8.2599999999999998

>  <m_primary>  (77) 
energy

$$$$
77:0
     RDKit          3D

 53 56  0  0  0  0  0  0  0  0999 V2000
   67.8170   33.4710   50.5290 C   0  0  0  0  0  0  0  0  0  0  0  0
   66.6830   33.0770   49.7640 O   0  0  0  0  0  0  0  0  0  0  0  0
   65.6720   32.2110   50.2090 C   0  0  0  0  0  0  0  0  0  0  0  0
   65.9640   31.1490   51.0910 C   0  0  0  0  0  0  0  0  0  0  0  0
   64.9560   30.2940   51.5340 C   0  0  0  0  0  0  0  0  0  0  0  0
   63.6550   30.4980   51.0970 C   0  0  0  0  0  0  0  0  0  0  0  0
   63.3790   31.5230   50.2510 N   0  0  0  0  0  0  0  0  0  0  0  0
   64.3300   32.3870   49.7850 C   0  0  0  0  0  0  0  0  0  0  0  0
   63.8240   33.5120   48.8820 C   0  0  1  0  0  0  0  0  0  0  0  0
   63.7470   33.0530   47.4020 C   0  0  0  0  0  0  0  0  0  0  0  0
   62.4080   33.3830   46.7370 C   0  0  0  0  0  0  0  0  0  0  0  0
   61.2530   33.0060   47.5830 N   0  0  1  0  0  0  0  0  0  0  0  0
   61.1780   31.5520   47.9050 C   0  0  0  0  0  0  0  0  0  0  0  0
   60.6490   30.6750   46.7550 C   0  0  0  0  0  0  0  0  0  0  0  0
   59.3230   31.1620   46.2460 C   0  0  0  0  0  0  0  0  0  0  0  0
   58.9670   32.4260   46.2400 O   0  0  0  0  0  0  0  0  0  0  0  0
   57.7960   32.4750   45.6520 C   0  0  0  0  0  0  0  0  0  0  0  0
   57.1490   33.5400   45.4730 O   0  0  0  0  0  0  0  0  0  0  0  0
   57.3760   31.2930   45.2700 O   0  0  0  0  0  0  0  0  0  0  0  0
   58.3030   30.4390   45.6380 C   0  0  0  0  0  0  0  0  0  0  0  0
   58.2220   28.9880   45.3980 C   0  0  0  0  0  0  0  0  0  0  0  0
   58.2150   28.5030   44.0830 C   0  0  0  0  0  0  0  0  0  0  0  0
   58.1420   27.1270   43.8390 C   0  0  0  0  0  0  0  0  0  0  0  0
   58.0620   26.2280   44.9080 C   0  0  0  0  0  0  0  0  0  0  0  0
   57.9910   24.8950   44.6690 F   0  0  0  0  0  0  0  0  0  0  0  0
   58.0370   26.7070   46.2210 C   0  0  0  0  0  0  0  0  0  0  0  0
   58.1070   28.0830   46.4670 C   0  0  0  0  0  0  0  0  0  0  0  0
   61.2060   33.8380   48.8170 C   0  0  0  0  0  0  0  0  0  0  0  0
   62.5830   34.3160   49.3510 C   0  0  0  0  0  0  0  0  0  0  0  0
   67.5826   33.3896   51.6007 H   0  0  0  0  0  0  0  0  0  0  0  0
   68.6671   32.8155   50.2887 H   0  0  0  0  0  0  0  0  0  0  0  0
   68.0776   34.5123   50.2887 H   0  0  0  0  0  0  0  0  0  0  0  0
   66.9981   30.9941   51.4327 H   0  0  0  0  0  0  0  0  0  0  0  0
   65.1892   29.4677   52.2216 H   0  0  0  0  0  0  0  0  0  0  0  0
   62.8489   29.8304   51.4354 H   0  0  0  0  0  0  0  0  0  0  0  0
   64.6030   34.2832   48.9735 H   0  0  0  0  0  0  0  0  0  0  0  0
   63.8964   31.9638   47.3656 H   0  0  0  0  0  0  0  0  0  0  0  0
   64.5285   33.5960   46.8503 H   0  0  0  0  0  0  0  0  0  0  0  0
   62.3420   32.8370   45.7844 H   0  0  0  0  0  0  0  0  0  0  0  0
   62.3693   34.4710   46.5797 H   0  0  0  0  0  0  0  0  0  0  0  0
   60.3920   33.2420   47.0360 H   0  0  0  0  0  0  0  0  0  0  0  0
   62.1883   31.2045   48.1666 H   0  0  0  0  0  0  0  0  0  0  0  0
   60.4626   31.4494   48.7343 H   0  0  0  0  0  0  0  0  0  0  0  0
   61.3758   30.6939   45.9296 H   0  0  0  0  0  0  0  0  0  0  0  0
   60.5131   29.6533   47.1392 H   0  0  0  0  0  0  0  0  0  0  0  0
   58.2671   29.2069   43.2393 H   0  0  0  0  0  0  0  0  0  0  0  0
   58.1475   26.7516   42.8051 H   0  0  0  0  0  0  0  0  0  0  0  0
   57.9622   26.0017   47.0618 H   0  0  0  0  0  0  0  0  0  0  0  0
   58.0719   28.4574   47.5007 H   0  0  0  0  0  0  0  0  0  0  0  0
   60.7226   33.2453   49.6076 H   0  0  0  0  0  0  0  0  0  0  0  0
   60.6528   34.7496   48.5469 H   0  0  0  0  0  0  0  0  0  0  0  0
   62.5500   34.2692   50.4495 H   0  0  0  0  0  0  0  0  0  0  0  0
   62.7193   35.3275   48.9408 H   0  0  0  0  0  0  0  0  0  0  0  0
  1  2  1  0
  2  3  1  0
  3  4  2  0
  4  5  1  0
  5  6  2  0
  6  7  1  0
  7  8  2  0
  8  9  1  0
  9 10  1  0
 10 11  1  0
 11 12  1  0
 12 13  1  0
 13 14  1  0
 14 15  1  0
 15 16  1  0
 16 17  1  0
 17 18  2  0
 17 19  1  0
 19 20  1  0
 20 21  1  0
 21 22  2  0
 22 23  1  0
 23 24  2  0
 24 25  1  0
 24 26  1  0
 26 27  2  0
 12 28  1  0
 28 29  1  0
  8  3  1  0
 29  9  1  0
 20 15  2  0
 27 21  1  0
  1 30  1  0
  1 31  1  0
  1 32  1  0
  4 33  1  0
  5 34  1  0
  6 35  1  0
  9 36  1  6
 10 37  1  0
 10 38  1  0
 11 39  1  0
 11 40  1  0
 12 41  1  6
 13 42  1  0
 13 43  1  0
 14 44  1  0
 14 45  1  0
 22 46  1  0
 23 47  1  0
 26 48  1  0
 27 49  1  0
 28 50  1  0
 28 51  1  0
 29 52  1  0
 29 53  1  0
M  CHG  1  12   1
M  END
>  <UniqueID>  (78) 
69

>  <SMILES>  (78) 
COc1cccnc1C1CC[NH+](CCc2oc(=O)oc2-c2ccc(F)cc2)CC1

>  <Energy>  (78) 
113.66721584870213

>  <Genealogy>  (78) 
COc1cccnc1C1CC[NH+](CCc2oc(=O)oc2-c2ccc(F)cc2)CC1 (protonated)
COc1cccnc1C1CC[NH+](CCc2oc(=O)oc2-c2ccc(F)cc2)CC1 (3D coordinates assigned)
COc1cccnc1C1CC[NH+](CCc2oc(=O)oc2-c2ccc(F)cc2)CC1 (nonaromatic ring conformer: 113.66721584870213 kcal/mol)

>  <smiles>  (78) 
COc1cccnc1C1CCN(CCc2oc(=O)oc2-c2ccc(F)cc2)CC1

>  <score_type>  (78) 
oracle

>  <origin>  (78) 
adg

>  <m_score__min__energy>  (78) 
-6.8700000000000001

>  <m_primary>  (78) 
energy

$$$$
78:0
     RDKit          3D

 33 36  0  0  0  0  0  0  0  0999 V2000
   55.1970   29.3440   44.8680 O   0  0  0  0  0  0  0  0  0  0  0  0
   56.3090   29.8300   44.5270 C   0  0  0  0  0  0  0  0  0  0  0  0
   57.2960   28.9820   43.7940 C   0  0  0  0  0  0  0  0  0  0  0  0
   58.1680   28.3050   44.7530 N   0  0  0  0  0  0  0  0  0  0  0  0
   59.5080   28.4490   44.9130 C   0  0  0  0  0  0  0  0  0  0  0  0
   60.2010   29.2900   44.2810 O   0  0  0  0  0  0  0  0  0  0  0  0
   60.0200   27.6050   45.7920 O   0  0  0  0  0  0  0  0  0  0  0  0
   59.0110   26.8800   46.2130 C   0  0  0  0  0  0  0  0  0  0  0  0
   59.0150   25.8320   47.1280 C   0  0  0  0  0  0  0  0  0  0  0  0
   57.7910   25.1880   47.3880 C   0  0  0  0  0  0  0  0  0  0  0  0
   56.6080   25.6050   46.7340 C   0  0  0  0  0  0  0  0  0  0  0  0
   56.6370   26.6720   45.8170 C   0  0  0  0  0  0  0  0  0  0  0  0
   57.8670   27.2910   45.5850 C   0  0  0  0  0  0  0  0  0  0  0  0
   56.6440   31.1810   44.8620 N   0  0  0  0  0  0  0  0  0  0  0  0
   57.7700   31.5670   45.6600 C   0  0  0  0  0  0  0  0  0  0  0  0
   58.2020   30.7130   46.6880 C   0  0  0  0  0  0  0  0  0  0  0  0
   59.2870   31.0630   47.5090 C   0  0  0  0  0  0  0  0  0  0  0  0
   59.9470   32.2850   47.3360 C   0  0  0  0  0  0  0  0  0  0  0  0
   59.5070   33.1580   46.3400 C   0  0  0  0  0  0  0  0  0  0  0  0
   60.0490   34.3810   46.1250 N   0  0  0  0  0  0  0  0  0  0  0  0
   59.1070   34.9590   44.9010 S   0  0  0  0  0  0  0  0  0  0  0  0
   58.0230   33.7470   44.5920 N   0  0  0  0  0  0  0  0  0  0  0  0
   58.4120   32.8080   45.5000 C   0  0  0  0  0  0  0  0  0  0  0  0
   56.7600   28.2321   43.1936 H   0  0  0  0  0  0  0  0  0  0  0  0
   57.9035   29.6171   43.1325 H   0  0  0  0  0  0  0  0  0  0  0  0
   59.9418   25.5180   47.6303 H   0  0  0  0  0  0  0  0  0  0  0  0
   57.7539   24.3545   48.1048 H   0  0  0  0  0  0  0  0  0  0  0  0
   55.6582   25.0913   46.9439 H   0  0  0  0  0  0  0  0  0  0  0  0
   55.7243   27.0062   45.3019 H   0  0  0  0  0  0  0  0  0  0  0  0
   57.6836   29.7569   46.8526 H   0  0  0  0  0  0  0  0  0  0  0  0
   59.6210   30.3700   48.2953 H   0  0  0  0  0  0  0  0  0  0  0  0
   60.8004   32.5535   47.9760 H   0  0  0  0  0  0  0  0  0  0  0  0
   60.8440   34.8430   46.6190 H   0  0  0  0  0  0  0  0  0  0  0  0
  1  2  2  0
  2  3  1  0
  3  4  1  0
  4  5  1  0
  5  6  2  0
  5  7  1  0
  7  8  1  0
  8  9  2  0
  9 10  1  0
 10 11  2  0
 11 12  1  0
 12 13  2  0
  2 14  1  0
 14 15  1  0
 15 16  2  0
 16 17  1  0
 17 18  2  0
 18 19  1  0
 19 20  2  0
 20 21  1  0
 21 22  1  0
 22 23  2  0
 13  4  1  0
 23 15  1  0
 13  8  1  0
 23 19  1  0
  3 24  1  0
  3 25  1  0
  9 26  1  0
 10 27  1  0
 11 28  1  0
 12 29  1  0
 16 30  1  0
 17 31  1  0
 18 32  1  0
 20 33  1  0
M  CHG  2  14  -1  20   1
M  END
>  <UniqueID>  (79) 
70

>  <SMILES>  (79) 
O=C(Cn1c(=O)oc2ccccc21)[N-]c1cccc2[nH+]snc12

>  <Energy>  (79) 
121.59592141370051

>  <Genealogy>  (79) 
O=C(Cn1c(=O)oc2ccccc21)[N-]c1cccc2[nH+]snc12 (protonated)
O=C(Cn1c(=O)oc2ccccc21)[N-]c1cccc2[nH+]snc12 (3D coordinates assigned)
O=C(Cn1c(=O)oc2ccccc21)[N-]c1cccc2[nH+]snc12 (optimized conformer: 121.59592141370051 kcal/mol)

>  <smiles>  (79) 
O=C(Cn1c(=O)oc2ccccc21)Nc1cccc2nsnc12

>  <score_type>  (79) 
oracle

>  <origin>  (79) 
adg

>  <m_score__min__energy>  (79) 
-8.0600000000000005

>  <m_primary>  (79) 
energy

$$$$
79:0
     RDKit          3D

 37 38  0  0  0  0  0  0  0  0999 V2000
   54.6219   24.7905   46.2698 H   0  0  0  0  0  0  0  0  0  0  0  0
   55.5530   25.3400   46.0670 C   0  0  0  0  0  0  0  0  0  0  0  0
   55.5210   26.6850   45.8830 N   0  0  0  0  0  0  0  0  0  0  0  0
   56.6470   27.4130   45.6280 C   0  0  0  0  0  0  0  0  0  0  0  0
   56.5840   28.7040   45.4600 N   0  0  0  0  0  0  0  0  0  0  0  0
   56.0120   29.4060   44.3440 C   0  0  0  0  0  0  0  0  0  0  0  0
   54.7760   29.3560   44.1020 O   0  0  0  0  0  0  0  0  0  0  0  0
   56.9040   30.2390   43.4690 C   0  0  0  0  0  0  0  0  0  0  0  0
   56.4273   31.2161   43.3019 H   0  0  0  0  0  0  0  0  0  0  0  0
   57.0494   29.7029   42.5195 H   0  0  0  0  0  0  0  0  0  0  0  0
   58.2260   30.4520   44.0820 N   0  0  0  0  0  0  0  0  0  0  0  0
   58.4610   29.6440   44.7060 H   0  0  0  0  0  0  0  0  0  0  0  0
   58.9500   30.4670   43.3270 H   0  0  0  0  0  0  0  0  0  0  0  0
   58.2740   31.6940   44.8210 C   0  0  0  0  0  0  0  0  0  0  0  0
   58.0970   32.9170   44.1470 C   0  0  0  0  0  0  0  0  0  0  0  0
   57.9018   32.9196   43.0645 H   0  0  0  0  0  0  0  0  0  0  0  0
   58.1670   34.1260   44.8400 C   0  0  0  0  0  0  0  0  0  0  0  0
   58.0239   35.0756   44.3036 H   0  0  0  0  0  0  0  0  0  0  0  0
   58.4180   34.1320   46.2110 C   0  0  0  0  0  0  0  0  0  0  0  0
   58.4713   35.0867   46.7548 H   0  0  0  0  0  0  0  0  0  0  0  0
   58.6020   32.9290   46.8960 C   0  0  0  0  0  0  0  0  0  0  0  0
   58.7998   32.9412   47.9780 H   0  0  0  0  0  0  0  0  0  0  0  0
   58.5360   31.6990   46.2100 C   0  0  0  0  0  0  0  0  0  0  0  0
   58.7240   30.4730   46.8700 O   0  0  0  0  0  0  0  0  0  0  0  0
   59.2310   30.3370   48.1930 C   0  0  0  0  0  0  0  0  0  0  0  0
   58.4305   30.5517   48.9163 H   0  0  0  0  0  0  0  0  0  0  0  0
   59.5944   29.3096   48.3426 H   0  0  0  0  0  0  0  0  0  0  0  0
   60.0598   31.0446   48.3426 H   0  0  0  0  0  0  0  0  0  0  0  0
   57.8940   26.7560   45.5540 C   0  0  0  0  0  0  0  0  0  0  0  0
   59.1590   27.5220   45.2810 C   0  0  0  0  0  0  0  0  0  0  0  0
   59.6285   27.8063   46.2343 H   0  0  0  0  0  0  0  0  0  0  0  0
   59.8521   26.8917   44.7045 H   0  0  0  0  0  0  0  0  0  0  0  0
   58.9217   28.4283   44.7045 H   0  0  0  0  0  0  0  0  0  0  0  0
   57.9380   25.3660   45.7430 C   0  0  0  0  0  0  0  0  0  0  0  0
   58.9002   24.8356   45.6890 H   0  0  0  0  0  0  0  0  0  0  0  0
   56.7660   24.6550   45.9990 C   0  0  0  0  0  0  0  0  0  0  0  0
   56.7979   23.5653   46.1458 H   0  0  0  0  0  0  0  0  0  0  0  0
  1  2  1  0
  2  3  1  0
  3  4  1  0
  4  5  2  0
  5  6  1  0
  6  7  2  0
  6  8  1  0
  8  9  1  0
  8 10  1  0
  8 11  1  0
 11 12  1  0
 11 13  1  0
 11 14  1  0
 14 15  2  0
 15 16  1  0
 15 17  1  0
 17 18  1  0
 17 19  2  0
 19 20  1  0
 19 21  1  0
 21 22  1  0
 21 23  2  0
 23 24  1  0
 24 25  1  0
 25 26  1  0
 25 27  1  0
 25 28  1  0
  4 29  1  0
 29 30  1  0
 30 31  1  0
 30 32  1  0
 30 33  1  0
 29 34  2  0
 34 35  1  0
 34 36  1  0
 36 37  1  0
 36  2  2  0
 23 14  1  0
M  CHG  2   3  -1  11   1
M  END
>  <UniqueID>  (80) 
71

>  <SMILES>  (80) 
COc1ccccc1[NH2+]CC(=O)/N=c1\[n-]cccc1C

>  <Energy>  (80) 
40.41573783548403

>  <Genealogy>  (80) 
COc1ccccc1[NH2+]CC(=O)N=c1[n-]cccc1C (protonated)
COc1ccccc1[NH2+]CC(=O)/N=c1\[n-]cccc1C (cis-trans isomerization)
COc1ccccc1[NH2+]CC(=O)/N=c1\[n-]cccc1C (3D coordinates assigned)
COc1ccccc1[NH2+]CC(=O)/N=c1\[n-]cccc1C (optimized conformer: 40.41573783548403 kcal/mol)

>  <smiles>  (80) 
COc1ccccc1NCC(=O)N=c1[nH]cccc1C

>  <score_type>  (80) 
oracle

>  <origin>  (80) 
adg

>  <m_score__min__energy>  (80) 
-7.3499999999999996

>  <m_primary>  (80) 
energy

$$$$
80:0
     RDKit          3D

 34 35  0  0  0  0  0  0  0  0999 V2000
   60.0010   34.5350   48.7970 C   0  0  0  0  0  0  0  0  0  0  0  0
   59.3000   33.8990   47.6330 C   0  0  0  0  0  0  0  0  0  0  0  0
   58.9920   32.5330   47.6600 C   0  0  0  0  0  0  0  0  0  0  0  0
   58.3730   31.9450   46.5560 C   0  0  0  0  0  0  0  0  0  0  0  0
   58.0720   32.7180   45.4280 C   0  0  0  0  0  0  0  0  0  0  0  0
   57.4250   32.1020   44.2180 C   0  0  0  0  0  0  0  0  0  0  0  0
   56.2640   31.3640   44.5960 O   0  0  0  0  0  0  0  0  0  0  0  0
   56.1220   29.9890   44.3770 C   0  0  0  0  0  0  0  0  0  0  0  0
   55.1480   29.3550   44.8640 O   0  0  0  0  0  0  0  0  0  0  0  0
   57.1120   29.2800   43.5100 C   0  0  0  0  0  0  0  0  0  0  0  0
   58.1630   28.6250   44.3600 C   0  0  0  0  0  0  0  0  0  0  0  0
   57.8750   27.4340   45.0510 C   0  0  0  0  0  0  0  0  0  0  0  0
   58.8440   26.8440   45.8680 C   0  0  0  0  0  0  0  0  0  0  0  0
   60.1000   27.4400   46.0100 C   0  0  0  0  0  0  0  0  0  0  0  0
   60.3890   28.6300   45.3360 C   0  0  0  0  0  0  0  0  0  0  0  0
   59.4240   29.2250   44.5180 C   0  0  0  0  0  0  0  0  0  0  0  0
   58.4170   34.0760   45.4300 C   0  0  0  0  0  0  0  0  0  0  0  0
   59.0200   34.6320   46.5160 N   0  0  0  0  0  0  0  0  0  0  0  0
   59.5764   34.1498   49.7358 H   0  0  0  0  0  0  0  0  0  0  0  0
   61.0738   34.2956   48.7543 H   0  0  0  0  0  0  0  0  0  0  0  0
   59.8668   35.6259   48.7543 H   0  0  0  0  0  0  0  0  0  0  0  0
   59.2363   31.9277   48.5454 H   0  0  0  0  0  0  0  0  0  0  0  0
   58.1216   30.8742   46.5720 H   0  0  0  0  0  0  0  0  0  0  0  0
   57.1357   32.8986   43.5167 H   0  0  0  0  0  0  0  0  0  0  0  0
   58.1418   31.4187   43.7392 H   0  0  0  0  0  0  0  0  0  0  0  0
   56.5930   28.5127   42.9168 H   0  0  0  0  0  0  0  0  0  0  0  0
   57.5919   30.0084   42.8398 H   0  0  0  0  0  0  0  0  0  0  0  0
   56.8850   26.9658   44.9483 H   0  0  0  0  0  0  0  0  0  0  0  0
   58.6172   25.9085   46.4003 H   0  0  0  0  0  0  0  0  0  0  0  0
   60.8611   26.9727   46.6521 H   0  0  0  0  0  0  0  0  0  0  0  0
   61.3775   29.0991   45.4494 H   0  0  0  0  0  0  0  0  0  0  0  0
   59.6525   30.1660   43.9962 H   0  0  0  0  0  0  0  0  0  0  0  0
   58.1991   34.6966   44.5483 H   0  0  0  0  0  0  0  0  0  0  0  0
   59.2720   35.6460   46.4820 H   0  0  0  0  0  0  0  0  0  0  0  0
  1  2  1  0
  2  3  2  0
  3  4  1  0
  4  5  2  0
  5  6  1  0
  6  7  1  0
  7  8  1  0
  8  9  2  0
  8 10  1  0
 10 11  1  0
 11 12  2  0
 12 13  1  0
 13 14  2  0
 14 15  1  0
 15 16  2  0
  5 17  1  0
 17 18  2  0
 18  2  1  0
 16 11  1  0
  1 19  1  0
  1 20  1  0
  1 21  1  0
  3 22  1  0
  4 23  1  0
  6 24  1  0
  6 25  1  0
 10 26  1  0
 10 27  1  0
 12 28  1  0
 13 29  1  0
 14 30  1  0
 15 31  1  0
 16 32  1  0
 17 33  1  0
 18 34  1  0
M  CHG  1  18   1
M  END
>  <UniqueID>  (81) 
72

>  <SMILES>  (81) 
Cc1ccc(COC(=O)Cc2ccccc2)c[nH+]1

>  <Energy>  (81) 
29.509302704827764

>  <Genealogy>  (81) 
Cc1ccc(COC(=O)Cc2ccccc2)c[nH+]1 (protonated)
Cc1ccc(COC(=O)Cc2ccccc2)c[nH+]1 (3D coordinates assigned)
Cc1ccc(COC(=O)Cc2ccccc2)c[nH+]1 (optimized conformer: 29.509302704827764 kcal/mol)

>  <smiles>  (81) 
Cc1ccc(COC(=O)Cc2ccccc2)cn1

>  <score_type>  (81) 
oracle

>  <origin>  (81) 
adg

>  <m_score__min__energy>  (81) 
-5.5300000000000002

>  <m_primary>  (81) 
energy

$$$$
81:0
     RDKit          3D

 39 40  0  0  0  0  0  0  0  0999 V2000
   64.7150   32.7290   46.5800 H   0  0  0  0  0  0  0  0  0  0  0  0
   63.7870   33.1210   46.4750 O   0  0  0  0  0  0  0  0  0  0  0  0
   62.9790   33.4440   47.5680 C   0  0  0  0  0  0  0  0  0  0  0  0
   63.5160   33.4220   48.8710 C   0  0  0  0  0  0  0  0  0  0  0  0
   64.8500   33.0240   49.0490 O   0  0  0  0  0  0  0  0  0  0  0  0
   65.3360   32.3030   50.1770 C   0  0  0  0  0  0  0  0  0  0  0  0
   65.0020   32.7985   51.1006 H   0  0  0  0  0  0  0  0  0  0  0  0
   64.9459   31.2748   50.1508 H   0  0  0  0  0  0  0  0  0  0  0  0
   66.4354   32.2788   50.1508 H   0  0  0  0  0  0  0  0  0  0  0  0
   62.7050   33.8040   49.9570 C   0  0  0  0  0  0  0  0  0  0  0  0
   63.1132   33.7824   50.9782 H   0  0  0  0  0  0  0  0  0  0  0  0
   61.3890   34.2090   49.7460 C   0  0  0  0  0  0  0  0  0  0  0  0
   60.7674   34.5175   50.5995 H   0  0  0  0  0  0  0  0  0  0  0  0
   60.8560   34.2250   48.4570 C   0  0  0  0  0  0  0  0  0  0  0  0
   59.8194   34.5574   48.2986 H   0  0  0  0  0  0  0  0  0  0  0  0
   61.6330   33.8200   47.3610 C   0  0  0  0  0  0  0  0  0  0  0  0
   61.0140   33.8540   46.0160 C   0  0  0  0  0  0  0  0  0  0  0  0
   61.6605   33.7359   45.1339 H   0  0  0  0  0  0  0  0  0  0  0  0
   59.6970   34.0230   45.8310 C   0  0  0  0  0  0  0  0  0  0  0  0
   59.2701   35.0204   46.0124 H   0  0  0  0  0  0  0  0  0  0  0  0
   58.7840   32.9380   45.3950 C   0  0  0  0  0  0  0  0  0  0  0  0
   58.3830   31.8920   46.2470 C   0  0  0  0  0  0  0  0  0  0  0  0
   58.7601   31.8509   47.2795 H   0  0  0  0  0  0  0  0  0  0  0  0
   57.5310   30.9320   45.7980 N   0  0  0  0  0  0  0  0  0  0  0  0
   57.0320   30.9360   44.5320 C   0  0  0  0  0  0  0  0  0  0  0  0
   56.1160   29.8600   44.1120 C   0  0  0  0  0  0  0  0  0  0  0  0
   55.7130   29.8170   42.9180 O   0  0  0  0  0  0  0  0  0  0  0  0
   55.6790   28.8710   45.0520 N   0  0  0  0  0  0  0  0  0  0  0  0
   56.5510   27.8410   45.6070 C   0  0  0  0  0  0  0  0  0  0  0  0
   56.0092   26.8840   45.6331 H   0  0  0  0  0  0  0  0  0  0  0  0
   56.8481   28.1376   46.6238 H   0  0  0  0  0  0  0  0  0  0  0  0
   57.8040   27.6840   44.7550 C   0  0  0  0  0  0  0  0  0  0  0  0
   58.6811   27.5741   45.4096 H   0  0  0  0  0  0  0  0  0  0  0  0
   57.7062   26.7911   44.1201 H   0  0  0  0  0  0  0  0  0  0  0  0
   57.9295   28.5734   44.1201 H   0  0  0  0  0  0  0  0  0  0  0  0
   57.3950   31.9690   43.6550 C   0  0  0  0  0  0  0  0  0  0  0  0
   56.9972   31.9914   42.6297 H   0  0  0  0  0  0  0  0  0  0  0  0
   58.2650   32.9680   44.0940 C   0  0  0  0  0  0  0  0  0  0  0  0
   58.5454   33.7853   43.4133 H   0  0  0  0  0  0  0  0  0  0  0  0
  1  2  1  0
  2  3  1  0
  3  4  2  0
  4  5  1  0
  5  6  1  0
  6  7  1  0
  6  8  1  0
  6  9  1  0
  4 10  1  0
 10 11  1  0
 10 12  2  0
 12 13  1  0
 12 14  1  0
 14 15  1  0
 14 16  2  0
 16 17  1  0
 17 18  1  0
 17 19  2  0
 19 20  1  0
 19 21  1  0
 21 22  2  0
 22 23  1  0
 22 24  1  0
 24 25  2  0
 25 26  1  0
 26 27  2  0
 26 28  1  0
 28 29  1  0
 29 30  1  0
 29 31  1  0
 29 32  1  0
 32 33  1  0
 32 34  1  0
 32 35  1  0
 25 36  1  0
 36 37  1  0
 36 38  2  0
 38 39  1  0
 16  3  1  0
 38 21  1  0
M  CHG  1  28  -1
M  END
>  <UniqueID>  (82) 
73

>  <SMILES>  (82) 
CC[N-]C(=O)c1ccc(/C=C/c2cccc(OC)c2O)cn1

>  <Energy>  (82) 
41.84797414303273

>  <Genealogy>  (82) 
CC[N-]C(=O)c1ccc(C=Cc2cccc(OC)c2O)cn1 (protonated)
CC[N-]C(=O)c1ccc(/C=C/c2cccc(OC)c2O)cn1 (cis-trans isomerization)
CC[N-]C(=O)c1ccc(/C=C/c2cccc(OC)c2O)cn1 (3D coordinates assigned)
CC[N-]C(=O)c1ccc(/C=C/c2cccc(OC)c2O)cn1 (optimized conformer: 41.84797414303273 kcal/mol)

>  <smiles>  (82) 
CCNC(=O)c1ccc(C=Cc2cccc(OC)c2O)cn1

>  <score_type>  (82) 
oracle

>  <origin>  (82) 
adg

>  <m_score__min__energy>  (82) 
-9.4299999999999997

>  <m_primary>  (82) 
energy

$$$$
82:0
     RDKit          3D

 46 49  0  0  0  0  0  0  0  0999 V2000
   61.7320   27.9620   44.1040 H   0  0  0  0  0  0  0  0  0  0  0  0
   60.9360   28.5550   44.1520 O   0  0  0  0  0  0  0  0  0  0  0  0
   60.0010   27.9090   44.9750 C   0  0  1  0  0  0  0  0  0  0  0  0
   59.8543   26.8746   44.6308 H   0  0  0  0  0  0  0  0  0  0  0  0
   60.5030   27.9150   46.3470 N   0  0  0  0  0  0  0  0  0  0  0  0
   59.9920   28.6180   47.3120 C   0  0  0  0  0  0  0  0  0  0  0  0
   59.2930   28.0950   48.3450 N   0  0  0  0  0  0  0  0  0  0  0  0
   58.9080   29.0160   49.2270 N   0  0  0  0  0  0  0  0  0  0  0  0
   59.2960   30.2660   48.8900 C   0  0  0  0  0  0  0  0  0  0  0  0
   58.9550   31.7140   49.8870 S   0  0  0  0  0  0  0  0  0  0  0  0
   60.6850   31.9450   50.4200 C   0  0  0  0  0  0  0  0  0  0  0  0
   60.7150   32.6609   51.2546 H   0  0  0  0  0  0  0  0  0  0  0  0
   61.0931   30.9751   50.7405 H   0  0  0  0  0  0  0  0  0  0  0  0
   61.5150   32.4730   49.2840 C   0  0  0  0  0  0  0  0  0  0  0  0
   61.1680   33.6680   48.6360 C   0  0  0  0  0  0  0  0  0  0  0  0
   60.2635   34.2148   48.9409 H   0  0  0  0  0  0  0  0  0  0  0  0
   61.9470   34.1520   47.6320 N   0  0  0  0  0  0  0  0  0  0  0  0
   63.0730   33.5090   47.2260 C   0  0  0  0  0  0  0  0  0  0  0  0
   63.6797   33.9256   46.4085 H   0  0  0  0  0  0  0  0  0  0  0  0
   63.4600   32.3200   47.8460 C   0  0  0  0  0  0  0  0  0  0  0  0
   64.3709   31.7954   47.5220 H   0  0  0  0  0  0  0  0  0  0  0  0
   62.6790   31.8030   48.8820 C   0  0  0  0  0  0  0  0  0  0  0  0
   62.9772   30.8700   49.3826 H   0  0  0  0  0  0  0  0  0  0  0  0
   60.1670   30.2850   47.4480 S   0  0  0  0  0  0  0  0  0  0  0  0
   58.6830   28.6330   44.9180 C   0  0  0  0  0  0  0  0  0  0  0  0
   57.4260   28.0550   44.9910 C   0  0  0  0  0  0  0  0  0  0  0  0
   57.1895   26.9899   45.1311 H   0  0  0  0  0  0  0  0  0  0  0  0
   56.5350   29.0960   44.8510 C   0  0  0  0  0  0  0  0  0  0  0  0
   55.1520   28.9650   44.8700 O   0  0  0  0  0  0  0  0  0  0  0  0
   57.1830   30.2660   44.6870 N   0  0  0  0  0  0  0  0  0  0  0  0
   56.5760   31.5800   44.4750 C   0  0  0  0  0  0  0  0  0  0  0  0
   56.4730   31.7628   43.3952 H   0  0  0  0  0  0  0  0  0  0  0  0
   55.5865   31.6002   44.9552 H   0  0  0  0  0  0  0  0  0  0  0  0
   57.4380   32.6540   45.0810 C   0  0  0  0  0  0  0  0  0  0  0  0
   58.3330   33.3860   44.2830 C   0  0  0  0  0  0  0  0  0  0  0  0
   58.3891   33.1911   43.2019 H   0  0  0  0  0  0  0  0  0  0  0  0
   59.1530   34.3620   44.8590 C   0  0  0  0  0  0  0  0  0  0  0  0
   59.8494   34.9353   44.2295 H   0  0  0  0  0  0  0  0  0  0  0  0
   59.0890   34.6100   46.2330 C   0  0  0  0  0  0  0  0  0  0  0  0
   59.7324   35.3800   46.6838 H   0  0  0  0  0  0  0  0  0  0  0  0
   58.2070   33.8790   47.0340 C   0  0  0  0  0  0  0  0  0  0  0  0
   58.1588   34.0726   48.1157 H   0  0  0  0  0  0  0  0  0  0  0  0
   57.3850   32.9010   46.4620 C   0  0  0  0  0  0  0  0  0  0  0  0
   56.6956   32.3244   47.0963 H   0  0  0  0  0  0  0  0  0  0  0  0
   58.5010   29.9900   44.7130 C   0  0  0  0  0  0  0  0  0  0  0  0
   59.3074   30.7280   44.5904 H   0  0  0  0  0  0  0  0  0  0  0  0
  1  2  1  0
  2  3  1  0
  3  4  1  6
  3  5  1  0
  5  6  2  0
  6  7  1  0
  7  8  1  0
  8  9  2  0
  9 10  1  0
 10 11  1  0
 11 12  1  0
 11 13  1  0
 11 14  1  0
 14 15  2  0
 15 16  1  0
 15 17  1  0
 17 18  2  0
 18 19  1  0
 18 20  1  0
 20 21  1  0
 20 22  2  0
 22 23  1  0
  9 24  1  0
  3 25  1  0
 25 26  1  0
 26 27  1  0
 26 28  2  0
 28 29  1  0
 28 30  1  0
 30 31  1  0
 31 32  1  0
 31 33  1  0
 31 34  1  0
 34 35  2  0
 35 36  1  0
 35 37  1  0
 37 38  1  0
 37 39  2  0
 39 40  1  0
 39 41  1  0
 41 42  1  0
 41 43  2  0
 43 44  1  0
 30 45  1  0
 45 46  1  0
 24  6  1  0
 45 25  2  0
 22 14  1  0
 43 34  1  0
M  CHG  2   7  -1  29  -1
M  END
>  <UniqueID>  (83) 
74

>  <SMILES>  (83) 
[O-]c1cc([C@@H](O)/N=c2\[n-]nc(SCc3cccnc3)s2)cn1Cc1ccccc1

>  <Energy>  (83) 
104.16338032703372

>  <Genealogy>  (83) 
[O-]c1cc(C(O)N=c2[n-]nc(SCc3cccnc3)s2)cn1Cc1ccccc1 (protonated)
[O-]c1cc([C@@H](O)N=c2[n-]nc(SCc3cccnc3)s2)cn1Cc1ccccc1 (chirality)
[O-]c1cc([C@@H](O)/N=c2\[n-]nc(SCc3cccnc3)s2)cn1Cc1ccccc1 (cis-trans isomerization)
[O-]c1cc([C@@H](O)/N=c2\[n-]nc(SCc3cccnc3)s2)cn1Cc1ccccc1 (3D coordinates assigned)
[O-]c1cc([C@@H](O)/N=c2\[n-]nc(SCc3cccnc3)s2)cn1Cc1ccccc1 (optimized conformer: 104.16338032703372 kcal/mol)

>  <smiles>  (83) 
Oc1cc(C(O)N=c2[nH]nc(SCc3cccnc3)s2)cn1Cc1ccccc1

>  <score_type>  (83) 
oracle

>  <origin>  (83) 
adg

>  <m_score__min__energy>  (83) 
-13.470000000000001

>  <m_primary>  (83) 
energy

$$$$
83:0
     RDKit          3D

 38 39  0  0  0  0  0  0  0  0999 V2000
   64.8460   33.0220   47.0330 H   0  0  0  0  0  0  0  0  0  0  0  0
   63.9500   33.4330   46.9130 O   0  0  0  0  0  0  0  0  0  0  0  0
   63.0480   32.6490   47.6450 C   0  0  0  0  0  0  0  0  0  0  0  0
   63.3858   32.5854   48.6899 H   0  0  0  0  0  0  0  0  0  0  0  0
   63.0053   31.6422   47.2039 H   0  0  0  0  0  0  0  0  0  0  0  0
   61.6770   33.2640   47.6020 C   0  0  0  0  0  0  0  0  0  0  0  0
   61.1740   33.9410   48.7230 C   0  0  0  0  0  0  0  0  0  0  0  0
   61.7677   33.9874   49.6478 H   0  0  0  0  0  0  0  0  0  0  0  0
   59.9220   34.5560   48.6680 C   0  0  0  0  0  0  0  0  0  0  0  0
   59.5318   35.0844   49.5504 H   0  0  0  0  0  0  0  0  0  0  0  0
   59.1630   34.5030   47.4970 C   0  0  0  0  0  0  0  0  0  0  0  0
   58.1790   34.9934   47.4622 H   0  0  0  0  0  0  0  0  0  0  0  0
   59.6460   33.8280   46.3620 C   0  0  0  0  0  0  0  0  0  0  0  0
   58.8110   33.8170   45.1350 C   0  0  0  0  0  0  0  0  0  0  0  0
   59.1346   34.4294   44.2804 H   0  0  0  0  0  0  0  0  0  0  0  0
   57.6830   33.1010   45.0110 C   0  0  0  0  0  0  0  0  0  0  0  0
   56.7290   33.6435   44.9363 H   0  0  0  0  0  0  0  0  0  0  0  0
   57.6510   31.6170   44.9690 C   0  0  0  0  0  0  0  0  0  0  0  0
   56.8070   30.9910   44.0390 C   0  0  0  0  0  0  0  0  0  0  0  0
   56.1853   31.6031   43.3691 H   0  0  0  0  0  0  0  0  0  0  0  0
   56.7490   29.5980   43.9560 C   0  0  0  0  0  0  0  0  0  0  0  0
   56.0761   29.1233   43.2267 H   0  0  0  0  0  0  0  0  0  0  0  0
   57.5380   28.8010   44.7910 C   0  0  0  0  0  0  0  0  0  0  0  0
   57.4370   27.4050   44.6670 O   0  0  0  0  0  0  0  0  0  0  0  0
   57.6660   26.4640   45.7170 C   0  0  0  0  0  0  0  0  0  0  0  0
   58.2768   26.9377   46.4997 H   0  0  0  0  0  0  0  0  0  0  0  0
   58.1894   25.5903   45.3014 H   0  0  0  0  0  0  0  0  0  0  0  0
   56.3680   26.0100   46.3130 C   0  0  0  0  0  0  0  0  0  0  0  0
   56.3600   25.0550   47.1350 O   0  0  0  0  0  0  0  0  0  0  0  0
   55.1450   26.6670   45.9820 N   0  0  0  0  0  0  0  0  0  0  0  0
   55.1330   27.4700   45.3140 H   0  0  0  0  0  0  0  0  0  0  0  0
   54.2450   26.3490   46.4050 H   0  0  0  0  0  0  0  0  0  0  0  0
   58.4010   29.4210   45.7130 C   0  0  0  0  0  0  0  0  0  0  0  0
   59.0327   28.8056   46.3705 H   0  0  0  0  0  0  0  0  0  0  0  0
   58.4600   30.8160   45.7980 C   0  0  0  0  0  0  0  0  0  0  0  0
   59.1432   31.2908   46.5176 H   0  0  0  0  0  0  0  0  0  0  0  0
   60.9190   33.2260   46.4190 C   0  0  0  0  0  0  0  0  0  0  0  0
   61.3233   32.7215   45.5290 H   0  0  0  0  0  0  0  0  0  0  0  0
  1  2  1  0
  2  3  1  0
  3  4  1  0
  3  5  1  0
  3  6  1  0
  6  7  2  0
  7  8  1  0
  7  9  1  0
  9 10  1  0
  9 11  2  0
 11 12  1  0
 11 13  1  0
 13 14  1  0
 14 15  1  0
 14 16  2  0
 16 17  1  0
 16 18  1  0
 18 19  2  0
 19 20  1  0
 19 21  1  0
 21 22  1  0
 21 23  2  0
 23 24  1  0
 24 25  1  0
 25 26  1  0
 25 27  1  0
 25 28  1  0
 28 29  2  0
 28 30  1  0
 30 31  1  0
 30 32  1  0
 23 33  1  0
 33 34  1  0
 33 35  2  0
 35 36  1  0
 13 37  2  0
 37 38  1  0
 37  6  1  0
 35 18  1  0
M  END
>  <UniqueID>  (84) 
75

>  <SMILES>  (84) 
NC(=O)COc1ccc(/C=C/c2cccc(CO)c2)cc1

>  <Energy>  (84) 
40.6099954269598

>  <Genealogy>  (84) 
NC(=O)COc1ccc(/C=C/c2cccc(CO)c2)cc1 (cis-trans isomerization)
NC(=O)COc1ccc(/C=C/c2cccc(CO)c2)cc1 (3D coordinates assigned)
NC(=O)COc1ccc(/C=C/c2cccc(CO)c2)cc1 (optimized conformer: 40.6099954269598 kcal/mol)

>  <smiles>  (84) 
NC(=O)COc1ccc(C=Cc2cccc(CO)c2)cc1

>  <score_type>  (84) 
oracle

>  <origin>  (84) 
adg

>  <m_score__min__energy>  (84) 
-8.3399999999999999

>  <m_primary>  (84) 
energy

$$$$
84:0
     RDKit          3D

 53 55  0  0  0  0  0  0  0  0999 V2000
   59.6510   33.6420   49.4000 C   0  0  0  0  0  0  0  0  0  0  0  0
   60.7050   34.3900   48.5880 C   0  0  0  0  0  0  0  0  0  0  0  0
   61.0160   33.6630   47.3470 N   0  0  0  0  0  0  0  0  0  0  0  0
   62.3470   33.8200   46.7450 C   0  0  0  0  0  0  0  0  0  0  0  0
   63.3240   32.8010   47.3260 C   0  0  0  0  0  0  0  0  0  0  0  0
   60.0320   32.7920   46.7390 C   0  0  0  0  0  0  0  0  0  0  0  0
   58.8980   33.2060   46.0290 C   0  0  0  0  0  0  0  0  0  0  0  0
   58.3070   32.0160   45.6650 C   0  0  0  0  0  0  0  0  0  0  0  0
   57.1690   31.8330   44.9550 N   0  0  0  0  0  0  0  0  0  0  0  0
   56.7520   30.5600   44.6960 C   0  0  0  0  0  0  0  0  0  0  0  0
   57.4960   29.4470   45.1550 C   0  0  0  0  0  0  0  0  0  0  0  0
   57.0250   28.0720   44.8950 C   0  0  0  0  0  0  0  0  0  0  0  0
   57.6050   27.3830   44.0150 O   0  0  0  0  0  0  0  0  0  0  0  0
   55.9360   27.4880   45.6200 N   0  0  0  0  0  0  0  0  0  0  0  0
   56.0230   26.3100   46.4790 C   0  0  0  0  0  0  0  0  0  0  0  0
   55.9960   25.0620   45.6430 C   0  0  0  0  0  0  0  0  0  0  0  0
   54.7680   24.4970   45.2730 C   0  0  0  0  0  0  0  0  0  0  0  0
   54.7280   23.3410   44.4930 C   0  0  0  0  0  0  0  0  0  0  0  0
   55.9220   22.7280   44.0660 C   0  0  0  0  0  0  0  0  0  0  0  0
   55.9210   21.5630   43.2800 O   0  0  0  0  0  0  0  0  0  0  0  0
   56.5580   20.3430   43.6460 C   0  0  0  0  0  0  0  0  0  0  0  0
   57.1570   23.2870   44.4290 C   0  0  0  0  0  0  0  0  0  0  0  0
   58.3310   22.6590   43.9830 O   0  0  0  0  0  0  0  0  0  0  0  0
   59.3770   22.2040   44.8370 C   0  0  0  0  0  0  0  0  0  0  0  0
   57.1880   24.4520   45.2230 C   0  0  0  0  0  0  0  0  0  0  0  0
   58.6670   29.6920   45.9030 C   0  0  0  0  0  0  0  0  0  0  0  0
   59.3730   28.7470   46.3470 O   0  0  0  0  0  0  0  0  0  0  0  0
   59.0250   30.9840   46.1200 N   0  0  0  0  0  0  0  0  0  0  0  0
   60.0800   31.4360   46.7760 N   0  0  0  0  0  0  0  0  0  0  0  0
   59.8477   33.7816   50.4732 H   0  0  0  0  0  0  0  0  0  0  0  0
   58.6530   34.0351   49.1560 H   0  0  0  0  0  0  0  0  0  0  0  0
   59.6926   32.5702   49.1560 H   0  0  0  0  0  0  0  0  0  0  0  0
   60.3235   35.3902   48.3349 H   0  0  0  0  0  0  0  0  0  0  0  0
   61.6223   34.4731   49.1893 H   0  0  0  0  0  0  0  0  0  0  0  0
   62.2719   33.6696   45.6579 H   0  0  0  0  0  0  0  0  0  0  0  0
   62.7181   34.8319   46.9648 H   0  0  0  0  0  0  0  0  0  0  0  0
   63.2855   32.8412   48.4246 H   0  0  0  0  0  0  0  0  0  0  0  0
   63.0469   31.7922   46.9860 H   0  0  0  0  0  0  0  0  0  0  0  0
   64.3436   33.0354   46.9860 H   0  0  0  0  0  0  0  0  0  0  0  0
   58.5614   34.2310   45.8144 H   0  0  0  0  0  0  0  0  0  0  0  0
   55.8268   30.3968   44.1238 H   0  0  0  0  0  0  0  0  0  0  0  0
   56.9617   26.3449   47.0514 H   0  0  0  0  0  0  0  0  0  0  0  0
   55.1660   26.3016   47.1686 H   0  0  0  0  0  0  0  0  0  0  0  0
   53.8293   24.9682   45.5998 H   0  0  0  0  0  0  0  0  0  0  0  0
   53.7583   22.9057   44.2098 H   0  0  0  0  0  0  0  0  0  0  0  0
   56.5986   20.2652   44.7425 H   0  0  0  0  0  0  0  0  0  0  0  0
   55.9875   19.4951   43.2391 H   0  0  0  0  0  0  0  0  0  0  0  0
   57.5798   20.3264   43.2391 H   0  0  0  0  0  0  0  0  0  0  0  0
   59.0762   22.3349   45.8870 H   0  0  0  0  0  0  0  0  0  0  0  0
   59.5729   21.1394   44.6417 H   0  0  0  0  0  0  0  0  0  0  0  0
   60.2894   22.7866   44.6417 H   0  0  0  0  0  0  0  0  0  0  0  0
   58.1552   24.8865   45.5158 H   0  0  0  0  0  0  0  0  0  0  0  0
   60.8050   30.8310   47.2250 H   0  0  0  0  0  0  0  0  0  0  0  0
  1  2  1  0
  2  3  1  0
  3  4  1  0
  4  5  1  0
  3  6  1  0
  6  7  1  0
  7  8  2  0
  8  9  1  0
  9 10  1  0
 10 11  2  0
 11 12  1  0
 12 13  2  0
 12 14  1  0
 14 15  1  0
 15 16  1  0
 16 17  2  0
 17 18  1  0
 18 19  2  0
 19 20  1  0
 20 21  1  0
 19 22  1  0
 22 23  1  0
 23 24  1  0
 22 25  2  0
 11 26  1  0
 26 27  2  0
 26 28  1  0
 28 29  1  0
 29  6  2  0
 28  8  1  0
 25 16  1  0
  1 30  1  0
  1 31  1  0
  1 32  1  0
  2 33  1  0
  2 34  1  0
  4 35  1  0
  4 36  1  0
  5 37  1  0
  5 38  1  0
  5 39  1  0
  7 40  1  0
 10 41  1  0
 15 42  1  0
 15 43  1  0
 17 44  1  0
 18 45  1  0
 21 46  1  0
 21 47  1  0
 21 48  1  0
 24 49  1  0
 24 50  1  0
 24 51  1  0
 25 52  1  0
 29 53  1  0
M  CHG  3   9  -1  14  -1  29   1
M  END
>  <UniqueID>  (85) 
76

>  <SMILES>  (85) 
CCN(CC)c1cc2[n-]cc(C(=O)[N-]Cc3ccc(OC)c(OC)c3)c(=O)n2[nH+]1

>  <Energy>  (85) 
92.10701658025799

>  <Genealogy>  (85) 
CCN(CC)c1cc2[n-]cc(C(=O)[N-]Cc3ccc(OC)c(OC)c3)c(=O)n2[nH+]1 (protonated)
CCN(CC)c1cc2[n-]cc(C(=O)[N-]Cc3ccc(OC)c(OC)c3)c(=O)n2[nH+]1 (3D coordinates assigned)
CCN(CC)c1cc2[n-]cc(C(=O)[N-]Cc3ccc(OC)c(OC)c3)c(=O)n2[nH+]1 (optimized conformer: 92.10701658025799 kcal/mol)

>  <smiles>  (85) 
CCN(CC)c1cc2[nH]cc(C(=O)NCc3ccc(OC)c(OC)c3)c(=O)n2n1

>  <score_type>  (85) 
oracle

>  <origin>  (85) 
adg

>  <m_score__min__energy>  (85) 
-8.7899999999999991

>  <m_primary>  (85) 
energy

$$$$
85:0
     RDKit          3D

 53 56  0  0  1  0  0  0  0  0999 V2000
   56.2420   30.2210   43.0550 C   0  0  0  0  0  0  0  0  0  0  0  0
   56.0380   29.9140   44.4570 N   0  0  0  0  0  0  0  0  0  0  0  0
   56.9200   29.1940   45.0840 C   0  0  0  0  0  0  0  0  0  0  0  0
   57.5650   29.8300   46.0960 N   0  0  0  0  0  0  0  0  0  0  0  0
   58.4980   29.1650   46.8060 C   0  0  0  0  0  0  0  0  0  0  0  0
   59.1460   29.8410   47.8410 N   0  0  0  0  0  0  0  0  0  0  0  0
   58.8280   29.4650   49.2150 C   0  0  0  0  0  0  0  0  0  0  0  0
   59.2590   30.4620   50.2280 C   0  0  0  0  0  0  0  0  0  0  0  0
   60.6660   30.9800   50.0350 C   0  0  0  0  0  0  0  0  0  0  0  0
   60.7110   32.3590   50.0960 O   0  0  0  0  0  0  0  0  0  0  0  0
   61.9180   32.9290   50.3430 C   0  0  0  0  0  0  0  0  0  0  0  0
   62.7460   33.3040   49.1990 C   0  0  0  0  0  0  0  0  0  0  0  0
   62.3160   33.6820   47.9500 C   0  0  0  0  0  0  0  0  0  0  0  0
   60.9900   33.8380   47.3950 C   0  0  0  0  0  0  0  0  0  0  0  0
   60.8770   33.6850   46.0070 C   0  0  0  0  0  0  0  0  0  0  0  0
   59.6840   33.8000   45.3510 C   0  0  0  0  0  0  0  0  0  0  0  0
   58.5380   34.0780   46.0720 C   0  0  0  0  0  0  0  0  0  0  0  0
   57.0180   34.2300   45.2610 Cl  0  0  0  0  0  0  0  0  0  0  0  0
   58.6180   34.2340   47.4330 C   0  0  0  0  0  0  0  0  0  0  0  0
   59.8480   34.1110   48.0740 C   0  0  0  0  0  0  0  0  0  0  0  0
   63.4320   33.9510   47.2050 N   0  0  0  0  0  0  0  0  0  0  0  0
   64.4900   33.7580   47.9320 O   0  0  0  0  0  0  0  0  0  0  0  0
   64.1240   33.3660   49.1470 C   0  0  0  0  0  0  0  0  0  0  0  0
   65.1320   33.0720   50.1980 C   0  0  0  0  0  0  0  0  0  0  0  0
   61.2160   30.5780   48.6720 C   0  0  0  0  0  0  0  0  0  0  0  0
   60.1240   30.8970   47.6720 C   0  0  0  0  0  0  0  0  0  0  0  0
   58.7650   27.8500   46.4750 C   0  0  0  0  0  0  0  0  0  0  0  0
   58.0860   27.2520   45.4440 C   0  0  0  0  0  0  0  0  0  0  0  0
   57.1640   27.9210   44.7480 N   0  0  0  0  0  0  0  0  0  0  0  0
   56.8487   31.1340   42.9641 H   0  0  0  0  0  0  0  0  0  0  0  0
   56.7641   29.3839   42.5685 H   0  0  0  0  0  0  0  0  0  0  0  0
   55.2680   30.3780   42.5685 H   0  0  0  0  0  0  0  0  0  0  0  0
   57.7383   29.3383   49.2958 H   0  0  0  0  0  0  0  0  0  0  0  0
   59.3786   28.5366   49.4270 H   0  0  0  0  0  0  0  0  0  0  0  0
   58.5685   31.3172   50.1845 H   0  0  0  0  0  0  0  0  0  0  0  0
   59.2443   29.9480   51.2004 H   0  0  0  0  0  0  0  0  0  0  0  0
   61.2677   30.5409   50.8444 H   0  0  0  0  0  0  0  0  0  0  0  0
   61.7349   33.8425   50.9278 H   0  0  0  0  0  0  0  0  0  0  0  0
   62.4940   32.1430   50.8534 H   0  0  0  0  0  0  0  0  0  0  0  0
   61.7828   33.4640   45.4234 H   0  0  0  0  0  0  0  0  0  0  0  0
   59.6360   33.6726   44.2595 H   0  0  0  0  0  0  0  0  0  0  0  0
   57.7122   34.4558   48.0165 H   0  0  0  0  0  0  0  0  0  0  0  0
   59.8950   34.2393   49.1655 H   0  0  0  0  0  0  0  0  0  0  0  0
   64.6764   33.2049   51.1904 H   0  0  0  0  0  0  0  0  0  0  0  0
   65.4815   32.0345   50.0909 H   0  0  0  0  0  0  0  0  0  0  0  0
   65.9844   33.7589   50.0909 H   0  0  0  0  0  0  0  0  0  0  0  0
   62.1252   31.1528   48.4418 H   0  0  0  0  0  0  0  0  0  0  0  0
   61.4889   29.5127   48.6453 H   0  0  0  0  0  0  0  0  0  0  0  0
   59.6758   31.8781   47.8877 H   0  0  0  0  0  0  0  0  0  0  0  0
   60.5066   30.9471   46.6419 H   0  0  0  0  0  0  0  0  0  0  0  0
   59.5214   27.2834   47.0379 H   0  0  0  0  0  0  0  0  0  0  0  0
   58.3046   26.2051   45.1868 H   0  0  0  0  0  0  0  0  0  0  0  0
   56.6560   27.4550   43.9680 H   0  0  0  0  0  0  0  0  0  0  0  0
  1  2  1  0
  2  3  2  0
  3  4  1  0
  4  5  2  0
  5  6  1  0
  6  7  1  0
  7  8  1  0
  8  9  1  0
  9 10  1  0
 10 11  1  0
 11 12  1  0
 12 13  1  0
 13 14  1  0
 14 15  2  0
 15 16  1  0
 16 17  2  0
 17 18  1  0
 17 19  1  0
 19 20  2  0
 13 21  2  0
 21 22  1  0
 22 23  1  0
 23 24  1  0
  9 25  1  0
 25 26  1  0
  5 27  1  0
 27 28  2  0
 28 29  1  0
 29  3  1  0
 26  6  1  0
 23 12  2  0
 20 14  1  0
  1 30  1  0
  1 31  1  0
  1 32  1  0
  7 33  1  0
  7 34  1  0
  8 35  1  0
  8 36  1  0
  9 37  1  0
 11 38  1  0
 11 39  1  0
 15 40  1  0
 16 41  1  0
 19 42  1  0
 20 43  1  0
 24 44  1  0
 24 45  1  0
 24 46  1  0
 25 47  1  0
 25 48  1  0
 26 49  1  0
 26 50  1  0
 27 51  1  0
 28 52  1  0
 29 53  1  0
M  END
>  <smiles>  (86) 
CN=c1nc(N2CCC(OCc3c(-c4ccc(Cl)cc4)noc3C)CC2)cc[nH]1

>  <score_type>  (86) 
oracle

>  <origin>  (86) 
adg

>  <m_score__min__energy>  (86) 
-9.2200000000000006

>  <m_primary>  (86) 
energy

$$$$
86:0
     RDKit          3D

 39 40  0  0  0  0  0  0  0  0999 V2000
   53.7900   25.2050   45.6220 C   0  0  0  0  0  0  0  0  0  0  0  0
   54.7940   26.1950   45.9850 N   0  0  0  0  0  0  0  0  0  0  0  0
   56.1190   25.8410   46.3890 C   0  0  0  0  0  0  0  0  0  0  0  0
   56.3150   25.2470   47.4840 O   0  0  0  0  0  0  0  0  0  0  0  0
   57.2810   26.2220   45.5300 C   0  0  0  0  0  0  0  0  0  0  0  0
   57.7040   27.6340   45.8300 C   0  0  0  0  0  0  0  0  0  0  0  0
   58.6950   27.8850   46.7860 C   0  0  0  0  0  0  0  0  0  0  0  0
   59.0650   29.1950   47.0920 C   0  0  0  0  0  0  0  0  0  0  0  0
   58.4460   30.2850   46.4490 C   0  0  0  0  0  0  0  0  0  0  0  0
   58.8240   31.6450   46.7570 N   0  0  0  0  0  0  0  0  0  0  0  0
   59.6020   32.0400   47.9320 C   0  0  0  0  0  0  0  0  0  0  0  0
   61.0090   32.4100   47.5390 C   0  0  0  0  0  0  0  0  0  0  0  0
   62.0980   31.6180   47.9280 C   0  0  0  0  0  0  0  0  0  0  0  0
   63.3930   31.9790   47.5530 C   0  0  0  0  0  0  0  0  0  0  0  0
   63.5890   33.1360   46.7970 C   0  0  0  0  0  0  0  0  0  0  0  0
   62.5250   33.9010   46.4340 N   0  0  0  0  0  0  0  0  0  0  0  0
   61.2540   33.5690   46.7860 C   0  0  0  0  0  0  0  0  0  0  0  0
   57.4320   30.0390   45.4990 C   0  0  0  0  0  0  0  0  0  0  0  0
   56.8150   31.1320   44.8680 O   0  0  0  0  0  0  0  0  0  0  0  0
   57.4130   31.9210   43.8450 C   0  0  0  0  0  0  0  0  0  0  0  0
   57.0660   28.7110   45.2000 C   0  0  0  0  0  0  0  0  0  0  0  0
   53.3531   24.7741   46.5349 H   0  0  0  0  0  0  0  0  0  0  0  0
   52.9986   25.6860   45.0284 H   0  0  0  0  0  0  0  0  0  0  0  0
   54.2598   24.4069   45.0284 H   0  0  0  0  0  0  0  0  0  0  0  0
   58.1207   25.5402   45.7303 H   0  0  0  0  0  0  0  0  0  0  0  0
   56.9858   26.1513   44.4727 H   0  0  0  0  0  0  0  0  0  0  0  0
   59.1851   27.0444   47.2991 H   0  0  0  0  0  0  0  0  0  0  0  0
   59.8478   29.3785   47.8427 H   0  0  0  0  0  0  0  0  0  0  0  0
   58.5810   32.4040   46.0810 H   0  0  0  0  0  0  0  0  0  0  0  0
   59.1207   32.9063   48.4093 H   0  0  0  0  0  0  0  0  0  0  0  0
   59.6414   31.1921   48.6316 H   0  0  0  0  0  0  0  0  0  0  0  0
   61.9320   30.7117   48.5290 H   0  0  0  0  0  0  0  0  0  0  0  0
   64.2508   31.3579   47.8503 H   0  0  0  0  0  0  0  0  0  0  0  0
   64.6052   33.4292   46.4946 H   0  0  0  0  0  0  0  0  0  0  0  0
   60.4150   34.2110   46.4795 H   0  0  0  0  0  0  0  0  0  0  0  0
   58.0172   32.7181   44.3027 H   0  0  0  0  0  0  0  0  0  0  0  0
   58.0577   31.2847   43.2209 H   0  0  0  0  0  0  0  0  0  0  0  0
   56.6262   32.3698   43.2209 H   0  0  0  0  0  0  0  0  0  0  0  0
   56.2712   28.5180   44.4644 H   0  0  0  0  0  0  0  0  0  0  0  0
  1  2  1  0
  2  3  1  0
  3  4  2  0
  3  5  1  0
  5  6  1  0
  6  7  2  0
  7  8  1  0
  8  9  2  0
  9 10  1  0
 10 11  1  0
 11 12  1  0
 12 13  2  0
 13 14  1  0
 14 15  2  0
 15 16  1  0
 16 17  2  0
  9 18  1  0
 18 19  1  0
 19 20  1  0
 18 21  2  0
 21  6  1  0
 17 12  1  0
  1 22  1  0
  1 23  1  0
  1 24  1  0
  5 25  1  0
  5 26  1  0
  7 27  1  0
  8 28  1  0
 10 29  1  0
 11 30  1  0
 11 31  1  0
 13 32  1  0
 14 33  1  0
 15 34  1  0
 17 35  1  0
 20 36  1  0
 20 37  1  0
 20 38  1  0
 21 39  1  0
M  CHG  1   2  -1
M  END
>  <UniqueID>  (87) 
77

>  <SMILES>  (87) 
C[N-]C(=O)Cc1ccc(NCc2cccnc2)c(OC)c1

>  <Energy>  (87) 
34.649632189811705

>  <Genealogy>  (87) 
C[N-]C(=O)Cc1ccc(NCc2cccnc2)c(OC)c1 (protonated)
C[N-]C(=O)Cc1ccc(NCc2cccnc2)c(OC)c1 (3D coordinates assigned)
C[N-]C(=O)Cc1ccc(NCc2cccnc2)c(OC)c1 (optimized conformer: 34.649632189811705 kcal/mol)

>  <smiles>  (87) 
CNC(=O)Cc1ccc(NCc2cccnc2)c(OC)c1

>  <score_type>  (87) 
oracle

>  <origin>  (87) 
adg

>  <m_score__min__energy>  (87) 
-8.6699999999999999

>  <m_primary>  (87) 
energy

$$$$
87:0
     RDKit          3D

 44 46  0  0  0  0  0  0  0  0999 V2000
   56.9080   23.6030   44.8360 C   0  0  0  0  0  0  0  0  0  0  0  0
   57.0530   24.2670   46.4820 S   0  0  0  0  0  0  0  0  0  0  0  0
   57.1620   23.1570   47.4890 O   0  0  0  0  0  0  0  0  0  0  0  0
   55.8230   25.0760   46.7820 O   0  0  0  0  0  0  0  0  0  0  0  0
   58.4390   25.3050   46.5870 N   0  0  0  0  0  0  0  0  0  0  0  0
   58.4270   26.7320   46.4420 C   0  0  0  0  0  0  0  0  0  0  0  0
   59.4620   27.4700   47.0180 C   0  0  0  0  0  0  0  0  0  0  0  0
   59.4610   28.8630   46.9500 C   0  0  0  0  0  0  0  0  0  0  0  0
   58.4230   29.5440   46.3020 C   0  0  0  0  0  0  0  0  0  0  0  0
   58.3690   30.9740   46.4120 N   0  0  0  0  0  0  0  0  0  0  0  0
   58.2640   31.7820   45.3690 N   0  0  0  0  0  0  0  0  0  0  0  0
   58.1920   33.0440   45.8430 C   0  0  0  0  0  0  0  0  0  0  0  0
   58.0620   34.2300   44.9910 C   0  0  0  0  0  0  0  0  0  0  0  0
   56.9250   34.6170   44.6140 O   0  0  0  0  0  0  0  0  0  0  0  0
   59.1930   34.9340   44.5940 O   0  0  0  0  0  0  0  0  0  0  0  0
   58.2560   33.0430   47.2260 C   0  0  0  0  0  0  0  0  0  0  0  0
   58.3900   31.7110   47.5450 C   0  0  0  0  0  0  0  0  0  0  0  0
   58.5020   31.2080   48.8470 O   0  0  0  0  0  0  0  0  0  0  0  0
   59.7200   31.1090   49.5270 C   0  0  0  0  0  0  0  0  0  0  0  0
   59.7700   30.4880   50.6250 O   0  0  0  0  0  0  0  0  0  0  0  0
   60.9400   31.7310   48.9580 C   0  0  0  0  0  0  0  0  0  0  0  0
   61.7270   30.9990   48.0500 C   0  0  0  0  0  0  0  0  0  0  0  0
   62.8630   31.5700   47.4710 C   0  0  0  0  0  0  0  0  0  0  0  0
   63.2320   32.8820   47.7890 C   0  0  0  0  0  0  0  0  0  0  0  0
   64.3600   33.4630   47.2140 O   0  0  0  0  0  0  0  0  0  0  0  0
   62.4590   33.6190   48.6900 C   0  0  0  0  0  0  0  0  0  0  0  0
   61.3160   33.0570   49.2690 C   0  0  0  0  0  0  0  0  0  0  0  0
   60.5610   33.8360   50.1410 O   0  0  0  0  0  0  0  0  0  0  0  0
   57.4080   28.8070   45.6410 C   0  0  0  0  0  0  0  0  0  0  0  0
   56.3560   29.4700   44.8340 C   0  0  0  0  0  0  0  0  0  0  0  0
   55.1410   29.3390   45.1420 O   0  0  0  0  0  0  0  0  0  0  0  0
   56.6860   30.2120   43.7060 O   0  0  0  0  0  0  0  0  0  0  0  0
   57.4130   27.4040   45.7370 C   0  0  0  0  0  0  0  0  0  0  0  0
   56.6736   22.5298   44.8929 H   0  0  0  0  0  0  0  0  0  0  0  0
   56.1029   24.1262   44.2992 H   0  0  0  0  0  0  0  0  0  0  0  0
   57.8579   23.7429   44.2992 H   0  0  0  0  0  0  0  0  0  0  0  0
   60.2848   26.9491   47.5295 H   0  0  0  0  0  0  0  0  0  0  0  0
   60.2828   29.4318   47.4094 H   0  0  0  0  0  0  0  0  0  0  0  0
   58.2105   33.9041   47.9090 H   0  0  0  0  0  0  0  0  0  0  0  0
   61.4451   29.9671   47.7935 H   0  0  0  0  0  0  0  0  0  0  0  0
   63.4695   30.9864   46.7628 H   0  0  0  0  0  0  0  0  0  0  0  0
   65.0590   32.9040   46.7400 H   0  0  0  0  0  0  0  0  0  0  0  0
   62.7511   34.6482   48.9458 H   0  0  0  0  0  0  0  0  0  0  0  0
   56.6126   26.8244   45.2539 H   0  0  0  0  0  0  0  0  0  0  0  0
  1  2  1  0
  2  3  2  0
  2  4  2  0
  2  5  1  0
  5  6  1  0
  6  7  2  0
  7  8  1  0
  8  9  2  0
  9 10  1  0
 10 11  1  0
 11 12  2  0
 12 13  1  0
 13 14  2  0
 13 15  1  0
 12 16  1  0
 16 17  2  0
 17 18  1  0
 18 19  1  0
 19 20  2  0
 19 21  1  0
 21 22  2  0
 22 23  1  0
 23 24  2  0
 24 25  1  0
 24 26  1  0
 26 27  2  0
 27 28  1  0
  9 29  1  0
 29 30  1  0
 30 31  2  0
 30 32  1  0
 29 33  2  0
 33  6  1  0
 17 10  1  0
 27 21  1  0
  1 34  1  0
  1 35  1  0
  1 36  1  0
  7 37  1  0
  8 38  1  0
 16 39  1  0
 22 40  1  0
 23 41  1  0
 25 42  1  0
 26 43  1  0
 33 44  1  0
M  CHG  4   5  -1  15  -1  28  -1  32  -1
M  END
>  <UniqueID>  (88) 
78

>  <SMILES>  (88) 
CS(=O)(=O)[N-]c1ccc(-n2nc(C(=O)[O-])cc2OC(=O)c2ccc(O)cc2[O-])c(C(=O)[O-])c1

>  <Energy>  (88) 
89.04964380530308

>  <Genealogy>  (88) 
CS(=O)(=O)[N-]c1ccc(-n2nc(C(=O)[O-])cc2OC(=O)c2ccc(O)cc2[O-])c(C(=O)[O-])c1 (protonated)
CS(=O)(=O)[N-]c1ccc(-n2nc(C(=O)[O-])cc2OC(=O)c2ccc(O)cc2[O-])c(C(=O)[O-])c1 (3D coordinates assigned)
CS(=O)(=O)[N-]c1ccc(-n2nc(C(=O)[O-])cc2OC(=O)c2ccc(O)cc2[O-])c(C(=O)[O-])c1 (optimized conformer: 89.04964380530308 kcal/mol)

>  <smiles>  (88) 
CS(=O)(=O)Nc1ccc(-n2nc(C(=O)O)cc2OC(=O)c2ccc(O)cc2O)c(C(=O)O)c1

>  <score_type>  (88) 
oracle

>  <origin>  (88) 
adg

>  <m_score__min__energy>  (88) 
-14.15

>  <m_primary>  (88) 
energy

$$$$
88:0
     RDKit          3D

 76 80  0  0  0  0  0  0  0  0999 V2000
   52.0870   31.7230   50.7100 N   0  0  0  0  0  0  0  0  0  0  0  0
   51.3190   31.9820   51.8850 C   0  0  0  0  0  0  0  0  0  0  0  0
   50.7200   33.0830   52.0090 O   0  0  0  0  0  0  0  0  0  0  0  0
   51.2020   30.9430   52.9540 C   0  0  0  0  0  0  0  0  0  0  0  0
   51.7890   29.7270   52.4990 O   0  0  0  0  0  0  0  0  0  0  0  0
   53.0840   29.2990   52.8230 C   0  0  0  0  0  0  0  0  0  0  0  0
   53.2270   28.1060   53.5390 C   0  0  0  0  0  0  0  0  0  0  0  0
   54.4920   27.6430   53.8990 C   0  0  0  0  0  0  0  0  0  0  0  0
   55.6320   28.3670   53.5420 C   0  0  0  0  0  0  0  0  0  0  0  0
   55.5180   29.5640   52.8120 C   0  0  0  0  0  0  0  0  0  0  0  0
   56.7330   30.3270   52.4190 C   0  0  0  0  0  0  0  0  0  0  0  0
   58.0070   29.7380   52.5090 C   0  0  0  0  0  0  0  0  0  0  0  0
   59.1500   30.4560   52.1480 C   0  0  0  0  0  0  0  0  0  0  0  0
   59.0440   31.7720   51.6710 C   0  0  0  0  0  0  0  0  0  0  0  0
   60.2790   32.5430   51.2680 C   0  0  0  0  0  0  0  0  0  0  0  0
   60.2860   32.8080   49.8150 N   0  0  0  0  0  0  0  0  0  0  0  0
   60.7290   34.1000   49.3340 C   0  0  0  0  0  0  0  0  0  0  0  0
   61.9020   34.4960   49.5750 O   0  0  0  0  0  0  0  0  0  0  0  0
   59.8590   34.9070   48.5250 N   0  0  0  0  0  0  0  0  0  0  0  0
   59.2390   34.5290   47.2870 C   0  0  0  0  0  0  0  0  0  0  0  0
   59.7110   34.9850   46.0420 C   0  0  0  0  0  0  0  0  0  0  0  0
   59.0550   34.6110   44.8640 C   0  0  0  0  0  0  0  0  0  0  0  0
   57.9200   33.8000   44.9180 C   0  0  0  0  0  0  0  0  0  0  0  0
   57.4330   33.3630   46.1530 C   0  0  0  0  0  0  0  0  0  0  0  0
   58.0880   33.7330   47.3340 C   0  0  0  0  0  0  0  0  0  0  0  0
   60.0770   31.7130   48.8400 C   0  0  0  0  0  0  0  0  0  0  0  0
   60.8750   31.9770   47.5460 C   0  0  0  0  0  0  0  0  0  0  0  0
   61.1200   30.6890   46.7370 C   0  0  0  0  0  0  0  0  0  0  0  0
   60.0380   29.7130   46.9860 N   0  0  0  0  0  0  0  0  0  0  0  0
   60.1040   28.5850   46.0350 C   0  0  0  0  0  0  0  0  0  0  0  0
   59.0290   28.7160   44.9890 C   0  0  0  0  0  0  0  0  0  0  0  0
   58.7790   27.6550   44.1020 C   0  0  0  0  0  0  0  0  0  0  0  0
   57.7710   27.7630   43.1380 C   0  0  0  0  0  0  0  0  0  0  0  0
   57.0060   28.9310   43.0550 C   0  0  0  0  0  0  0  0  0  0  0  0
   57.2450   29.9880   43.9380 C   0  0  0  0  0  0  0  0  0  0  0  0
   58.2530   29.8840   44.9020 C   0  0  0  0  0  0  0  0  0  0  0  0
   60.0840   29.2130   48.3820 C   0  0  0  0  0  0  0  0  0  0  0  0
   60.4130   30.3210   49.4080 C   0  0  0  0  0  0  0  0  0  0  0  0
   57.7740   32.3660   51.5890 C   0  0  0  0  0  0  0  0  0  0  0  0
   56.6310   31.6520   51.9590 C   0  0  0  0  0  0  0  0  0  0  0  0
   54.2350   30.0240   52.4560 C   0  0  0  0  0  0  0  0  0  0  0  0
   52.5830   30.8110   50.5890 H   0  0  0  0  0  0  0  0  0  0  0  0
   52.1700   32.4480   49.9630 H   0  0  0  0  0  0  0  0  0  0  0  0
   51.7249   31.2868   53.8586 H   0  0  0  0  0  0  0  0  0  0  0  0
   50.1404   30.7737   53.1869 H   0  0  0  0  0  0  0  0  0  0  0  0
   52.3342   27.5283   53.8204 H   0  0  0  0  0  0  0  0  0  0  0  0
   54.5925   26.7054   54.4654 H   0  0  0  0  0  0  0  0  0  0  0  0
   56.6264   27.9983   53.8339 H   0  0  0  0  0  0  0  0  0  0  0  0
   58.1045   28.7024   52.8669 H   0  0  0  0  0  0  0  0  0  0  0  0
   60.1406   29.9864   52.2383 H   0  0  0  0  0  0  0  0  0  0  0  0
   60.2976   33.5008   51.8086 H   0  0  0  0  0  0  0  0  0  0  0  0
   61.1653   31.9419   51.5192 H   0  0  0  0  0  0  0  0  0  0  0  0
   60.5964   35.6360   45.9949 H   0  0  0  0  0  0  0  0  0  0  0  0
   59.4351   34.9574   43.8916 H   0  0  0  0  0  0  0  0  0  0  0  0
   57.4094   33.5052   43.9894 H   0  0  0  0  0  0  0  0  0  0  0  0
   56.5355   32.7286   46.1972 H   0  0  0  0  0  0  0  0  0  0  0  0
   57.6958   33.3962   48.3049 H   0  0  0  0  0  0  0  0  0  0  0  0
   59.0016   31.7046   48.6088 H   0  0  0  0  0  0  0  0  0  0  0  0
   60.3113   32.6854   46.9211 H   0  0  0  0  0  0  0  0  0  0  0  0
   61.8551   32.3859   47.8326 H   0  0  0  0  0  0  0  0  0  0  0  0
   61.1483   30.9337   45.6649 H   0  0  0  0  0  0  0  0  0  0  0  0
   62.0784   30.2478   47.0483 H   0  0  0  0  0  0  0  0  0  0  0  0
   61.0885   28.5819   45.5444 H   0  0  0  0  0  0  0  0  0  0  0  0
   59.9529   27.6449   46.5858 H   0  0  0  0  0  0  0  0  0  0  0  0
   59.3788   26.7352   44.1660 H   0  0  0  0  0  0  0  0  0  0  0  0
   57.5801   26.9298   42.4456 H   0  0  0  0  0  0  0  0  0  0  0  0
   56.2160   29.0178   42.2946 H   0  0  0  0  0  0  0  0  0  0  0  0
   56.6389   30.9037   43.8745 H   0  0  0  0  0  0  0  0  0  0  0  0
   58.4387   30.7188   45.5938 H   0  0  0  0  0  0  0  0  0  0  0  0
   59.1034   28.7824   48.6329 H   0  0  0  0  0  0  0  0  0  0  0  0
   60.8870   28.4633   48.4374 H   0  0  0  0  0  0  0  0  0  0  0  0
   59.8235   30.1527   50.3213 H   0  0  0  0  0  0  0  0  0  0  0  0
   61.4891   30.2835   49.6331 H   0  0  0  0  0  0  0  0  0  0  0  0
   57.6782   33.4016   51.2307 H   0  0  0  0  0  0  0  0  0  0  0  0
   55.6430   32.1306   51.8898 H   0  0  0  0  0  0  0  0  0  0  0  0
   54.1307   30.9588   51.8857 H   0  0  0  0  0  0  0  0  0  0  0  0
  1  2  1  0
  2  3  2  0
  2  4  1  0
  4  5  1  0
  5  6  1  0
  6  7  2  0
  7  8  1  0
  8  9  2  0
  9 10  1  0
 10 11  1  0
 11 12  2  0
 12 13  1  0
 13 14  2  0
 14 15  1  0
 15 16  1  0
 16 17  1  0
 17 18  2  0
 17 19  1  0
 19 20  1  0
 20 21  2  0
 21 22  1  0
 22 23  2  0
 23 24  1  0
 24 25  2  0
 16 26  1  0
 26 27  1  0
 27 28  1  0
 28 29  1  0
 29 30  1  0
 30 31  1  0
 31 32  2  0
 32 33  1  0
 33 34  2  0
 34 35  1  0
 35 36  2  0
 29 37  1  0
 37 38  1  0
 14 39  1  0
 39 40  2  0
 10 41  2  0
 41  6  1  0
 40 11  1  0
 25 20  1  0
 38 26  1  0
 36 31  1  0
  1 42  1  0
  1 43  1  0
  4 44  1  0
  4 45  1  0
  7 46  1  0
  8 47  1  0
  9 48  1  0
 12 49  1  0
 13 50  1  0
 15 51  1  0
 15 52  1  0
 21 53  1  0
 22 54  1  0
 23 55  1  0
 24 56  1  0
 25 57  1  0
 26 58  1  0
 27 59  1  0
 27 60  1  0
 28 61  1  0
 28 62  1  0
 30 63  1  0
 30 64  1  0
 32 65  1  0
 33 66  1  0
 34 67  1  0
 35 68  1  0
 36 69  1  0
 37 70  1  0
 37 71  1  0
 38 72  1  0
 38 73  1  0
 39 74  1  0
 40 75  1  0
 41 76  1  0
M  CHG  1  19  -1
M  END
>  <UniqueID>  (89) 
79

>  <SMILES>  (89) 
NC(=O)COc1cccc(-c2ccc(CN(C(=O)[N-]c3ccccc3)C3CCN(Cc4ccccc4)CC3)cc2)c1

>  <Energy>  (89) 
93.97781423135963

>  <Genealogy>  (89) 
NC(=O)COc1cccc(-c2ccc(CN(C(=O)[N-]c3ccccc3)C3CCN(Cc4ccccc4)CC3)cc2)c1 (protonated)
NC(=O)COc1cccc(-c2ccc(CN(C(=O)[N-]c3ccccc3)C3CCN(Cc4ccccc4)CC3)cc2)c1 (3D coordinates assigned)
NC(=O)COc1cccc(-c2ccc(CN(C(=O)[N-]c3ccccc3)C3CCN(Cc4ccccc4)CC3)cc2)c1 (nonaromatic ring conformer: 93.97781423135963 kcal/mol)

>  <smiles>  (89) 
NC(=O)COc1cccc(-c2ccc(CN(C(=O)Nc3ccccc3)C3CCN(Cc4ccccc4)CC3)cc2)c1

>  <score_type>  (89) 
oracle

>  <origin>  (89) 
adg

>  <m_score__min__energy>  (89) 
-12.029999999999999

>  <m_primary>  (89) 
energy

$$$$
89:0
     RDKit          3D

 32 33  0  0  0  0  0  0  0  0999 V2000
   57.9330   34.2460   44.9050 C   0  0  0  0  0  0  0  0  0  0  0  0
   58.2880   33.3080   45.7900 C   0  0  0  0  0  0  0  0  0  0  0  0
   57.6500   32.0170   45.7420 N   0  0  0  0  0  0  0  0  0  0  0  0
   58.3810   30.7960   45.5420 C   0  0  0  0  0  0  0  0  0  0  0  0
   59.6250   30.6300   46.1750 C   0  0  0  0  0  0  0  0  0  0  0  0
   60.3730   29.4690   45.9780 C   0  0  0  0  0  0  0  0  0  0  0  0
   59.8870   28.4580   45.1510 C   0  0  0  0  0  0  0  0  0  0  0  0
   58.6530   28.6060   44.5150 C   0  0  0  0  0  0  0  0  0  0  0  0
   57.8840   29.7700   44.6990 C   0  0  0  0  0  0  0  0  0  0  0  0
   56.5980   29.9040   43.9700 C   0  0  0  0  0  0  0  0  0  0  0  0
   56.4510   29.3810   42.6480 N   0  0  0  0  0  0  0  0  0  0  0  0
   55.6140   30.4700   44.5150 O   0  0  0  0  0  0  0  0  0  0  0  0
   59.3690   33.5810   46.7730 C   0  0  0  0  0  0  0  0  0  0  0  0
   59.0720   33.7970   48.1310 C   0  0  0  0  0  0  0  0  0  0  0  0
   60.0990   34.0350   49.0500 C   0  0  0  0  0  0  0  0  0  0  0  0
   61.4280   34.0600   48.6240 C   0  0  0  0  0  0  0  0  0  0  0  0
   61.7350   33.8500   47.2770 C   0  0  0  0  0  0  0  0  0  0  0  0
   60.7110   33.6120   46.3550 C   0  0  0  0  0  0  0  0  0  0  0  0
   58.4122   35.2358   44.9306 H   0  0  0  0  0  0  0  0  0  0  0  0
   57.1619   34.0276   44.1516 H   0  0  0  0  0  0  0  0  0  0  0  0
   56.6380   31.9480   45.9900 H   0  0  0  0  0  0  0  0  0  0  0  0
   60.0123   31.4229   46.8318 H   0  0  0  0  0  0  0  0  0  0  0  0
   61.3469   29.3515   46.4757 H   0  0  0  0  0  0  0  0  0  0  0  0
   60.4766   27.5419   44.9991 H   0  0  0  0  0  0  0  0  0  0  0  0
   58.2777   27.8037   43.8627 H   0  0  0  0  0  0  0  0  0  0  0  0
   55.5310   29.4410   42.1600 H   0  0  0  0  0  0  0  0  0  0  0  0
   57.2670   28.9870   42.1280 H   0  0  0  0  0  0  0  0  0  0  0  0
   58.0263   33.7786   48.4719 H   0  0  0  0  0  0  0  0  0  0  0  0
   59.8590   34.2028   50.1103 H   0  0  0  0  0  0  0  0  0  0  0  0
   62.2342   34.2451   49.3491 H   0  0  0  0  0  0  0  0  0  0  0  0
   62.7825   33.8719   46.9419 H   0  0  0  0  0  0  0  0  0  0  0  0
   60.9571   33.4479   45.2955 H   0  0  0  0  0  0  0  0  0  0  0  0
  1  2  2  0
  2  3  1  0
  3  4  1  0
  4  5  2  0
  5  6  1  0
  6  7  2  0
  7  8  1  0
  8  9  2  0
  9 10  1  0
 10 11  1  0
 10 12  2  0
  2 13  1  0
 13 14  2  0
 14 15  1  0
 15 16  2  0
 16 17  1  0
 17 18  2  0
  9  4  1  0
 18 13  1  0
  1 19  1  0
  1 20  1  0
  3 21  1  0
  5 22  1  0
  6 23  1  0
  7 24  1  0
  8 25  1  0
 11 26  1  0
 11 27  1  0
 14 28  1  0
 15 29  1  0
 16 30  1  0
 17 31  1  0
 18 32  1  0
M  END
>  <UniqueID>  (90) 
80

>  <SMILES>  (90) 
C=C(Nc1ccccc1C(N)=O)c1ccccc1

>  <Energy>  (90) 
44.94355862661739

>  <Genealogy>  (90) 
C=C(Nc1ccccc1C(N)=O)c1ccccc1 (3D coordinates assigned)
C=C(Nc1ccccc1C(N)=O)c1ccccc1 (optimized conformer: 44.94355862661739 kcal/mol)

>  <smiles>  (90) 
C=C(Nc1ccccc1C(N)=O)c1ccccc1

>  <score_type>  (90) 
oracle

>  <origin>  (90) 
adg

>  <m_score__min__energy>  (90) 
-7.5300000000000002

>  <m_primary>  (90) 
energy

$$$$
90:0
     RDKit          3D

 62 65  0  0  0  0  0  0  0  0999 V2000
   62.4140   33.8380   46.3590 C   0  0  0  0  0  0  0  0  0  0  0  0
   61.2690   34.5890   46.7580 O   0  0  0  0  0  0  0  0  0  0  0  0
   59.9350   34.2310   46.4820 C   0  0  0  0  0  0  0  0  0  0  0  0
   59.3810   34.3920   45.1950 C   0  0  0  0  0  0  0  0  0  0  0  0
   58.0400   34.0830   44.9530 C   0  0  0  0  0  0  0  0  0  0  0  0
   57.2320   33.6110   45.9880 C   0  0  0  0  0  0  0  0  0  0  0  0
   57.7660   33.4340   47.2650 C   0  0  0  0  0  0  0  0  0  0  0  0
   59.1200   33.7250   47.5240 C   0  0  0  0  0  0  0  0  0  0  0  0
   59.6480   33.5170   48.8930 C   0  0  0  0  0  0  0  0  0  0  0  0
   58.8850   33.0530   49.7820 O   0  0  0  0  0  0  0  0  0  0  0  0
   61.0220   33.7950   49.2080 N   0  0  0  0  0  0  0  0  0  0  0  0
   61.5630   33.6190   50.5530 C   0  0  0  0  0  0  0  0  0  0  0  0
   62.9700   33.0680   50.4850 C   0  0  0  0  0  0  0  0  0  0  0  0
   64.0550   33.9620   50.4870 C   0  0  0  0  0  0  0  0  0  0  0  0
   65.3690   33.4890   50.5040 C   0  0  0  0  0  0  0  0  0  0  0  0
   65.6170   32.1160   50.5320 C   0  0  0  0  0  0  0  0  0  0  0  0
   64.5540   31.2110   50.5340 C   0  0  0  0  0  0  0  0  0  0  0  0
   63.2280   31.6720   50.4990 C   0  0  0  0  0  0  0  0  0  0  0  0
   62.1360   30.6780   50.5030 C   0  0  0  0  0  0  0  0  0  0  0  0
   62.0470   29.8790   51.4740 O   0  0  0  0  0  0  0  0  0  0  0  0
   61.1930   30.6010   49.4150 N   0  0  0  0  0  0  0  0  0  0  0  0
   61.6190   30.9480   48.0500 C   0  0  0  0  0  0  0  0  0  0  0  0
   60.4500   30.9070   47.0590 C   0  0  0  0  0  0  0  0  0  0  0  0
   59.6630   29.6770   47.2350 N   0  0  0  0  0  0  0  0  0  0  0  0
   59.0260   29.0580   46.0980 C   0  0  0  0  0  0  0  0  0  0  0  0
   59.4770   27.8150   45.6170 C   0  0  0  0  0  0  0  0  0  0  0  0
   58.8760   27.2310   44.5000 C   0  0  0  0  0  0  0  0  0  0  0  0
   57.8130   27.8700   43.8570 C   0  0  0  0  0  0  0  0  0  0  0  0
   57.3260   29.0970   44.3390 C   0  0  0  0  0  0  0  0  0  0  0  0
   56.2030   29.8090   43.6260 C   0  0  0  0  0  0  0  0  0  0  0  0
   56.2580   29.5600   42.2660 F   0  0  0  0  0  0  0  0  0  0  0  0
   56.2860   31.1760   43.8170 F   0  0  0  0  0  0  0  0  0  0  0  0
   54.9940   29.3600   44.1180 F   0  0  0  0  0  0  0  0  0  0  0  0
   57.9570   29.6960   45.4440 C   0  0  0  0  0  0  0  0  0  0  0  0
   59.3810   29.1650   48.5850 C   0  0  0  0  0  0  0  0  0  0  0  0
   59.8140   30.1610   49.6640 C   0  0  0  0  0  0  0  0  0  0  0  0
   62.9510   33.4858   47.2521 H   0  0  0  0  0  0  0  0  0  0  0  0
   62.0945   32.9735   45.7586 H   0  0  0  0  0  0  0  0  0  0  0  0
   63.0796   34.4755   45.7586 H   0  0  0  0  0  0  0  0  0  0  0  0
   60.0108   34.7645   44.3737 H   0  0  0  0  0  0  0  0  0  0  0  0
   57.6204   34.2121   43.9444 H   0  0  0  0  0  0  0  0  0  0  0  0
   56.1739   33.3784   45.7973 H   0  0  0  0  0  0  0  0  0  0  0  0
   57.1235   33.0636   48.0774 H   0  0  0  0  0  0  0  0  0  0  0  0
   61.6900   34.0380   48.4400 H   0  0  0  0  0  0  0  0  0  0  0  0
   61.5784   34.5909   51.0680 H   0  0  0  0  0  0  0  0  0  0  0  0
   60.9275   32.9104   51.1044 H   0  0  0  0  0  0  0  0  0  0  0  0
   63.8670   35.0458   50.4750 H   0  0  0  0  0  0  0  0  0  0  0  0
   66.2090   34.1992   50.4953 H   0  0  0  0  0  0  0  0  0  0  0  0
   66.6527   31.7459   50.5525 H   0  0  0  0  0  0  0  0  0  0  0  0
   64.7564   30.1302   50.5632 H   0  0  0  0  0  0  0  0  0  0  0  0
   62.0439   31.9626   48.0571 H   0  0  0  0  0  0  0  0  0  0  0  0
   62.3659   30.2078   47.7272 H   0  0  0  0  0  0  0  0  0  0  0  0
   59.8010   31.7786   47.2297 H   0  0  0  0  0  0  0  0  0  0  0  0
   60.8528   30.9261   46.0356 H   0  0  0  0  0  0  0  0  0  0  0  0
   60.3071   27.3007   46.1234 H   0  0  0  0  0  0  0  0  0  0  0  0
   59.2411   26.2636   44.1247 H   0  0  0  0  0  0  0  0  0  0  0  0
   57.3548   27.4104   42.9688 H   0  0  0  0  0  0  0  0  0  0  0  0
   57.6097   30.6766   45.8014 H   0  0  0  0  0  0  0  0  0  0  0  0
   58.3004   28.9826   48.6797 H   0  0  0  0  0  0  0  0  0  0  0  0
   59.9489   28.2337   48.7268 H   0  0  0  0  0  0  0  0  0  0  0  0
   59.1440   31.0332   49.6450 H   0  0  0  0  0  0  0  0  0  0  0  0
   59.7622   29.6731   50.6485 H   0  0  0  0  0  0  0  0  0  0  0  0
  1  2  1  0
  2  3  1  0
  3  4  2  0
  4  5  1  0
  5  6  2  0
  6  7  1  0
  7  8  2  0
  8  9  1  0
  9 10  2  0
  9 11  1  0
 11 12  1  0
 12 13  1  0
 13 14  2  0
 14 15  1  0
 15 16  2  0
 16 17  1  0
 17 18  2  0
 18 19  1  0
 19 20  2  0
 19 21  1  0
 21 22  1  0
 22 23  1  0
 23 24  1  0
 24 25  1  0
 25 26  2  0
 26 27  1  0
 27 28  2  0
 28 29  1  0
 29 30  1  0
 30 31  1  0
 30 32  1  0
 30 33  1  0
 29 34  2  0
 24 35  1  0
 35 36  1  0
  8  3  1  0
 18 13  1  0
 36 21  1  0
 34 25  1  0
  1 37  1  0
  1 38  1  0
  1 39  1  0
  4 40  1  0
  5 41  1  0
  6 42  1  0
  7 43  1  0
 11 44  1  0
 12 45  1  0
 12 46  1  0
 14 47  1  0
 15 48  1  0
 16 49  1  0
 17 50  1  0
 22 51  1  0
 22 52  1  0
 23 53  1  0
 23 54  1  0
 26 55  1  0
 27 56  1  0
 28 57  1  0
 34 58  1  0
 35 59  1  0
 35 60  1  0
 36 61  1  0
 36 62  1  0
M  END
>  <UniqueID>  (91) 
81

>  <SMILES>  (91) 
COc1ccccc1C(=O)NCc1ccccc1C(=O)N1CCN(c2cccc(C(F)(F)F)c2)CC1

>  <Energy>  (91) 
78.58354623407578

>  <Genealogy>  (91) 
COc1ccccc1C(=O)NCc1ccccc1C(=O)N1CCN(c2cccc(C(F)(F)F)c2)CC1 (3D coordinates assigned)
COc1ccccc1C(=O)NCc1ccccc1C(=O)N1CCN(c2cccc(C(F)(F)F)c2)CC1 (nonaromatic ring conformer: 78.58354623407578 kcal/mol)

>  <smiles>  (91) 
COc1ccccc1C(=O)NCc1ccccc1C(=O)N1CCN(c2cccc(C(F)(F)F)c2)CC1

>  <score_type>  (91) 
oracle

>  <origin>  (91) 
adg

>  <m_score__min__energy>  (91) 
-8.5

>  <m_primary>  (91) 
energy

$$$$
91:0
     RDKit          3D

 40 41  0  0  0  0  0  0  0  0999 V2000
   56.2650   29.7390   42.7670 C   0  0  0  0  0  0  0  0  0  0  0  0
   56.0240   30.0050   44.2150 C   0  0  0  0  0  0  0  0  0  0  0  0
   55.1460   29.3460   44.8340 O   0  0  0  0  0  0  0  0  0  0  0  0
   56.7570   31.0410   44.8750 N   0  0  0  0  0  0  0  0  0  0  0  0
   58.1940   30.9800   45.1170 C   0  0  0  0  0  0  0  0  0  0  0  0
   58.5260   29.8580   46.0720 C   0  0  0  0  0  0  0  0  0  0  0  0
   58.1900   28.5360   45.7340 C   0  0  0  0  0  0  0  0  0  0  0  0
   58.4370   27.4770   46.6210 C   0  0  0  0  0  0  0  0  0  0  0  0
   58.0760   26.1400   46.2280 N   0  0  0  0  0  0  0  0  0  0  0  0
   56.4460   25.5500   46.1230 S   0  0  0  0  0  0  0  0  0  0  0  0
   56.2790   24.4490   44.7340 C   0  0  0  0  0  0  0  0  0  0  0  0
   56.1250   24.7880   47.3770 O   0  0  0  0  0  0  0  0  0  0  0  0
   55.4880   26.7010   46.0000 O   0  0  0  0  0  0  0  0  0  0  0  0
   59.0360   27.7540   47.8630 C   0  0  0  0  0  0  0  0  0  0  0  0
   59.3740   29.0640   48.2070 C   0  0  0  0  0  0  0  0  0  0  0  0
   59.1360   30.1160   47.3190 C   0  0  0  0  0  0  0  0  0  0  0  0
   59.4890   31.4140   47.7030 O   0  0  0  0  0  0  0  0  0  0  0  0
   60.7470   31.9870   47.4730 C   0  0  0  0  0  0  0  0  0  0  0  0
   60.8960   33.2800   46.9350 C   0  0  0  0  0  0  0  0  0  0  0  0
   62.1730   33.8110   46.7210 C   0  0  0  0  0  0  0  0  0  0  0  0
   63.3060   33.0560   47.0360 C   0  0  0  0  0  0  0  0  0  0  0  0
   63.1650   31.7700   47.5620 C   0  0  0  0  0  0  0  0  0  0  0  0
   61.8900   31.2370   47.7770 C   0  0  0  0  0  0  0  0  0  0  0  0
   57.0001   28.9276   42.6606 H   0  0  0  0  0  0  0  0  0  0  0  0
   55.3207   29.4436   42.2863 H   0  0  0  0  0  0  0  0  0  0  0  0
   56.6519   30.6497   42.2863 H   0  0  0  0  0  0  0  0  0  0  0  0
   58.7141   30.8083   44.1631 H   0  0  0  0  0  0  0  0  0  0  0  0
   58.5190   31.9319   45.5622 H   0  0  0  0  0  0  0  0  0  0  0  0
   57.7260   28.3280   44.7586 H   0  0  0  0  0  0  0  0  0  0  0  0
   58.8290   25.4860   45.9170 H   0  0  0  0  0  0  0  0  0  0  0  0
   56.1233   23.4222   45.0966 H   0  0  0  0  0  0  0  0  0  0  0  0
   55.4173   24.7569   44.1236 H   0  0  0  0  0  0  0  0  0  0  0  0
   57.1933   24.4875   44.1236 H   0  0  0  0  0  0  0  0  0  0  0  0
   59.2393   26.9338   48.5672 H   0  0  0  0  0  0  0  0  0  0  0  0
   59.8318   29.2698   49.1858 H   0  0  0  0  0  0  0  0  0  0  0  0
   60.0057   33.8745   46.6822 H   0  0  0  0  0  0  0  0  0  0  0  0
   62.2850   34.8230   46.3047 H   0  0  0  0  0  0  0  0  0  0  0  0
   64.3094   33.4749   46.8695 H   0  0  0  0  0  0  0  0  0  0  0  0
   64.0576   31.1758   47.8074 H   0  0  0  0  0  0  0  0  0  0  0  0
   61.7842   30.2220   48.1876 H   0  0  0  0  0  0  0  0  0  0  0  0
  1  2  1  0
  2  3  2  0
  2  4  1  0
  4  5  1  0
  5  6  1  0
  6  7  2  0
  7  8  1  0
  8  9  1  0
  9 10  1  0
 10 11  1  0
 10 12  2  0
 10 13  2  0
  8 14  2  0
 14 15  1  0
 15 16  2  0
 16 17  1  0
 17 18  1  0
 18 19  2  0
 19 20  1  0
 20 21  2  0
 21 22  1  0
 22 23  2  0
 16  6  1  0
 23 18  1  0
  1 24  1  0
  1 25  1  0
  1 26  1  0
  5 27  1  0
  5 28  1  0
  7 29  1  0
  9 30  1  0
 11 31  1  0
 11 32  1  0
 11 33  1  0
 14 34  1  0
 15 35  1  0
 19 36  1  0
 20 37  1  0
 21 38  1  0
 22 39  1  0
 23 40  1  0
M  CHG  1   4  -1
M  END
>  <UniqueID>  (92) 
82

>  <SMILES>  (92) 
CC(=O)[N-]Cc1cc(NS(C)(=O)=O)ccc1Oc1ccccc1

>  <Energy>  (92) 
43.68273176628713

>  <Genealogy>  (92) 
CC(=O)[N-]Cc1cc(NS(C)(=O)=O)ccc1Oc1ccccc1 (protonated)
CC(=O)[N-]Cc1cc(NS(C)(=O)=O)ccc1Oc1ccccc1 (3D coordinates assigned)
CC(=O)[N-]Cc1cc(NS(C)(=O)=O)ccc1Oc1ccccc1 (optimized conformer: 43.68273176628713 kcal/mol)

>  <smiles>  (92) 
CC(=O)NCc1cc(NS(C)(=O)=O)ccc1Oc1ccccc1

>  <score_type>  (92) 
oracle

>  <origin>  (92) 
adg

>  <m_score__min__energy>  (92) 
-9.7899999999999991

>  <m_primary>  (92) 
energy

$$$$
92:0
     RDKit          3D

 50 54  0  0  0  0  0  0  0  0999 V2000
   56.9470   33.4530   52.3370 O   0  0  0  0  0  0  0  0  0  0  0  0
   57.5210   32.3510   52.1240 C   0  0  0  0  0  0  0  0  0  0  0  0
   58.8550   32.3120   51.6100 N   0  0  0  0  0  0  0  0  0  0  0  0
   59.5310   31.1370   51.1590 C   0  0  0  0  0  0  0  0  0  0  0  0
   60.0090   30.1370   52.0220 C   0  0  0  0  0  0  0  0  0  0  0  0
   60.6710   29.1100   51.3620 C   0  0  0  0  0  0  0  0  0  0  0  0
   60.6600   29.4480   49.7150 S   0  0  0  0  0  0  0  0  0  0  0  0
   59.8200   30.9030   49.8140 C   0  0  0  0  0  0  0  0  0  0  0  0
   59.4000   31.7070   48.6520 C   0  0  0  0  0  0  0  0  0  0  0  0
   58.7860   31.1650   47.5700 N   0  0  0  0  0  0  0  0  0  0  0  0
   58.4590   32.1180   46.6590 C   0  0  0  0  0  0  0  0  0  0  0  0
   57.8170   31.8640   45.4450 C   0  0  0  0  0  0  0  0  0  0  0  0
   57.5320   32.9460   44.5940 C   0  0  0  0  0  0  0  0  0  0  0  0
   57.8850   34.2590   44.9640 C   0  0  0  0  0  0  0  0  0  0  0  0
   58.5280   34.5040   46.1880 C   0  0  0  0  0  0  0  0  0  0  0  0
   58.8010   33.4140   47.0110 C   0  0  0  0  0  0  0  0  0  0  0  0
   59.5430   33.3940   48.5130 S   0  0  0  0  0  0  0  0  0  0  0  0
   56.8760   31.0940   52.5260 C   0  0  0  0  0  0  0  0  0  0  0  0
   57.4350   30.3030   53.5400 C   0  0  0  0  0  0  0  0  0  0  0  0
   56.7750   29.1510   53.9810 C   0  0  0  0  0  0  0  0  0  0  0  0
   57.3570   28.3620   54.9700 O   0  0  0  0  0  0  0  0  0  0  0  0
   55.5280   28.8110   53.4380 C   0  0  0  0  0  0  0  0  0  0  0  0
   54.9370   29.6190   52.4550 C   0  0  0  0  0  0  0  0  0  0  0  0
   53.5910   29.3410   52.0260 N   0  0  0  0  0  0  0  0  0  0  0  0
   52.5180   30.3380   52.0550 C   0  0  0  0  0  0  0  0  0  0  0  0
   51.9420   30.5460   50.6710 C   0  0  0  0  0  0  0  0  0  0  0  0
   52.1150   29.5480   49.6950 C   0  0  0  0  0  0  0  0  0  0  0  0
   51.5440   29.6900   48.4280 C   0  0  0  0  0  0  0  0  0  0  0  0
   50.8030   30.8310   48.1170 C   0  0  0  0  0  0  0  0  0  0  0  0
   50.6370   31.8380   49.0700 C   0  0  0  0  0  0  0  0  0  0  0  0
   51.2070   31.7060   50.3420 C   0  0  0  0  0  0  0  0  0  0  0  0
   51.0330   32.7280   51.2680 O   0  0  0  0  0  0  0  0  0  0  0  0
   55.6410   30.7330   51.9680 C   0  0  0  0  0  0  0  0  0  0  0  0
   59.8724   30.1647   53.1131 H   0  0  0  0  0  0  0  0  0  0  0  0
   61.1247   28.2269   51.8355 H   0  0  0  0  0  0  0  0  0  0  0  0
   57.5400   30.8382   45.1605 H   0  0  0  0  0  0  0  0  0  0  0  0
   57.0297   32.7663   43.6320 H   0  0  0  0  0  0  0  0  0  0  0  0
   57.6554   35.0973   44.2898 H   0  0  0  0  0  0  0  0  0  0  0  0
   58.8074   35.5249   46.4875 H   0  0  0  0  0  0  0  0  0  0  0  0
   58.3967   30.5896   53.9907 H   0  0  0  0  0  0  0  0  0  0  0  0
   57.2330   28.5700   55.9550 H   0  0  0  0  0  0  0  0  0  0  0  0
   55.0096   27.9049   53.7849 H   0  0  0  0  0  0  0  0  0  0  0  0
   53.3170   28.3460   51.8580 H   0  0  0  0  0  0  0  0  0  0  0  0
   51.7211   29.9910   52.7292 H   0  0  0  0  0  0  0  0  0  0  0  0
   52.9322   31.2924   52.4123 H   0  0  0  0  0  0  0  0  0  0  0  0
   52.7040   28.6495   49.9310 H   0  0  0  0  0  0  0  0  0  0  0  0
   51.6787   28.9007   47.6738 H   0  0  0  0  0  0  0  0  0  0  0  0
   50.3494   30.9371   47.1205 H   0  0  0  0  0  0  0  0  0  0  0  0
   50.0563   32.7383   48.8205 H   0  0  0  0  0  0  0  0  0  0  0  0
   55.2204   31.3265   51.1429 H   0  0  0  0  0  0  0  0  0  0  0  0
  1  2  2  0
  2  3  1  0
  3  4  1  0
  4  5  1  0
  5  6  2  0
  6  7  1  0
  7  8  1  0
  8  9  1  0
  9 10  2  0
 10 11  1  0
 11 12  2  0
 12 13  1  0
 13 14  2  0
 14 15  1  0
 15 16  2  0
 16 17  1  0
  2 18  1  0
 18 19  2  0
 19 20  1  0
 20 21  1  0
 20 22  2  0
 22 23  1  0
 23 24  1  0
 24 25  1  0
 25 26  1  0
 26 27  2  0
 27 28  1  0
 28 29  2  0
 29 30  1  0
 30 31  2  0
 31 32  1  0
 23 33  2  0
  8  4  2  0
 17  9  1  0
 33 18  1  0
 16 11  1  0
 31 26  1  0
  5 34  1  0
  6 35  1  0
 12 36  1  0
 13 37  1  0
 14 38  1  0
 15 39  1  0
 19 40  1  0
 21 41  1  0
 22 42  1  0
 24 43  1  0
 25 44  1  0
 25 45  1  0
 27 46  1  0
 28 47  1  0
 29 48  1  0
 30 49  1  0
 33 50  1  0
M  CHG  2   3  -1  32  -1
M  END
>  <UniqueID>  (93) 
83

>  <SMILES>  (93) 
O=C([N-]c1ccsc1-c1nc2ccccc2s1)c1cc(O)cc(NCc2ccccc2[O-])c1

>  <Energy>  (93) 
123.68256591394274

>  <Genealogy>  (93) 
O=C([N-]c1ccsc1-c1nc2ccccc2s1)c1cc(O)cc(NCc2ccccc2[O-])c1 (protonated)
O=C([N-]c1ccsc1-c1nc2ccccc2s1)c1cc(O)cc(NCc2ccccc2[O-])c1 (3D coordinates assigned)
O=C([N-]c1ccsc1-c1nc2ccccc2s1)c1cc(O)cc(NCc2ccccc2[O-])c1 (optimized conformer: 123.68256591394274 kcal/mol)

>  <smiles>  (93) 
O=C(Nc1ccsc1-c1nc2ccccc2s1)c1cc(O)cc(NCc2ccccc2O)c1

>  <score_type>  (93) 
oracle

>  <origin>  (93) 
adg

>  <m_score__min__energy>  (93) 
-14.48

>  <m_primary>  (93) 
energy

$$$$
93:0
     RDKit          3D

 49 51  0  0  0  0  0  0  0  0999 V2000
   56.6520   30.6670   52.3430 C   0  0  0  0  0  0  0  0  0  0  0  0
   57.4210   30.1810   51.2480 O   0  0  0  0  0  0  0  0  0  0  0  0
   58.3380   30.9540   50.5180 C   0  0  0  0  0  0  0  0  0  0  0  0
   58.5990   32.3030   50.8240 C   0  0  0  0  0  0  0  0  0  0  0  0
   59.5050   33.0360   50.0560 C   0  0  0  0  0  0  0  0  0  0  0  0
   60.1730   32.4310   48.9830 C   0  0  0  0  0  0  0  0  0  0  0  0
   59.9250   31.0820   48.6690 C   0  0  0  0  0  0  0  0  0  0  0  0
   59.0050   30.3520   49.4450 C   0  0  0  0  0  0  0  0  0  0  0  0
   60.6560   30.4880   47.4810 C   0  0  2  0  0  0  0  0  0  0  0  0
   60.5830   29.0600   47.4540 O   0  0  0  0  0  0  0  0  0  0  0  0
   59.9950   28.3330   46.4120 C   0  0  0  0  0  0  0  0  0  0  0  0
   60.6370   27.4280   45.8120 O   0  0  0  0  0  0  0  0  0  0  0  0
   58.6060   28.6750   45.9710 C   0  0  0  0  0  0  0  0  0  0  0  0
   58.5850   29.9800   45.3130 N   0  0  0  0  0  0  0  0  0  0  0  0
   57.3760   30.5310   44.7770 C   0  0  0  0  0  0  0  0  0  0  0  0
   56.2870   29.9010   44.8850 O   0  0  0  0  0  0  0  0  0  0  0  0
   57.4030   31.8370   44.0450 C   0  0  0  0  0  0  0  0  0  0  0  0
   57.9720   32.9130   44.9270 C   0  0  0  0  0  0  0  0  0  0  0  0
   57.5610   33.0190   46.2660 C   0  0  0  0  0  0  0  0  0  0  0  0
   58.0730   34.0340   47.0810 C   0  0  0  0  0  0  0  0  0  0  0  0
   58.9870   34.9530   46.5650 C   0  0  0  0  0  0  0  0  0  0  0  0
   59.3920   34.8620   45.2290 C   0  0  0  0  0  0  0  0  0  0  0  0
   58.8840   33.8490   44.4100 C   0  0  0  0  0  0  0  0  0  0  0  0
   62.1350   30.9010   47.5500 C   0  0  0  0  0  0  0  0  0  0  0  0
   62.3500   32.4290   47.6910 C   0  0  0  0  0  0  0  0  0  0  0  0
   61.0940   33.2290   48.1000 C   0  0  0  0  0  0  0  0  0  0  0  0
   57.1283   30.3660   53.2878 H   0  0  0  0  0  0  0  0  0  0  0  0
   56.5966   31.7645   52.2937 H   0  0  0  0  0  0  0  0  0  0  0  0
   55.6369   30.2460   52.2937 H   0  0  0  0  0  0  0  0  0  0  0  0
   58.0868   32.7814   51.6718 H   0  0  0  0  0  0  0  0  0  0  0  0
   59.6955   34.0929   50.2940 H   0  0  0  0  0  0  0  0  0  0  0  0
   58.8081   29.2966   49.2054 H   0  0  0  0  0  0  0  0  0  0  0  0
   60.1728   30.8688   46.5691 H   0  0  0  0  0  0  0  0  0  0  0  0
   58.2507   27.9085   45.2665 H   0  0  0  0  0  0  0  0  0  0  0  0
   57.9509   28.7110   46.8539 H   0  0  0  0  0  0  0  0  0  0  0  0
   59.4740   30.5140   45.1830 H   0  0  0  0  0  0  0  0  0  0  0  0
   58.0274   31.7366   43.1450 H   0  0  0  0  0  0  0  0  0  0  0  0
   56.3764   32.1109   43.7603 H   0  0  0  0  0  0  0  0  0  0  0  0
   56.8343   32.3016   46.6749 H   0  0  0  0  0  0  0  0  0  0  0  0
   57.7542   34.1077   48.1312 H   0  0  0  0  0  0  0  0  0  0  0  0
   59.3893   35.7492   47.2086 H   0  0  0  0  0  0  0  0  0  0  0  0
   60.1110   35.5884   44.8223 H   0  0  0  0  0  0  0  0  0  0  0  0
   59.1991   33.7845   43.3581 H   0  0  0  0  0  0  0  0  0  0  0  0
   62.5940   30.4044   48.4176 H   0  0  0  0  0  0  0  0  0  0  0  0
   62.5977   30.5981   46.5991 H   0  0  0  0  0  0  0  0  0  0  0  0
   63.1245   32.5958   48.4541 H   0  0  0  0  0  0  0  0  0  0  0  0
   62.6353   32.7931   46.6930 H   0  0  0  0  0  0  0  0  0  0  0  0
   61.4105   34.1319   48.6427 H   0  0  0  0  0  0  0  0  0  0  0  0
   60.5437   33.4850   47.1826 H   0  0  0  0  0  0  0  0  0  0  0  0
  1  2  1  0
  2  3  1  0
  3  4  2  0
  4  5  1  0
  5  6  2  0
  6  7  1  0
  7  8  2  0
  7  9  1  0
  9 10  1  0
 10 11  1  0
 11 12  2  0
 11 13  1  0
 13 14  1  0
 14 15  1  0
 15 16  2  0
 15 17  1  0
 17 18  1  0
 18 19  2  0
 19 20  1  0
 20 21  2  0
 21 22  1  0
 22 23  2  0
  9 24  1  0
 24 25  1  0
 25 26  1  0
  8  3  1  0
 23 18  1  0
 26  6  1  0
  1 27  1  0
  1 28  1  0
  1 29  1  0
  4 30  1  0
  5 31  1  0
  8 32  1  0
  9 33  1  6
 13 34  1  0
 13 35  1  0
 14 36  1  0
 17 37  1  0
 17 38  1  0
 19 39  1  0
 20 40  1  0
 21 41  1  0
 22 42  1  0
 23 43  1  0
 24 44  1  0
 24 45  1  0
 25 46  1  0
 25 47  1  0
 26 48  1  0
 26 49  1  0
M  END
>  <UniqueID>  (94) 
84

>  <SMILES>  (94) 
COc1ccc2c(c1)[C@H](OC(=O)CNC(=O)Cc1ccccc1)CCC2

>  <Energy>  (94) 
49.55163844731643

>  <Genealogy>  (94) 
COc1ccc2c(c1)[C@H](OC(=O)CNC(=O)Cc1ccccc1)CCC2 (chirality)
COc1ccc2c(c1)[C@H](OC(=O)CNC(=O)Cc1ccccc1)CCC2 (3D coordinates assigned)
COc1ccc2c(c1)[C@H](OC(=O)CNC(=O)Cc1ccccc1)CCC2 (nonaromatic ring conformer: 49.55163844731643 kcal/mol)

>  <smiles>  (94) 
COc1ccc2c(c1)C(OC(=O)CNC(=O)Cc1ccccc1)CCC2

>  <score_type>  (94) 
oracle

>  <origin>  (94) 
adg

>  <m_score__min__energy>  (94) 
-9.2200000000000006

>  <m_primary>  (94) 
energy

$$$$
94:0
     RDKit          3D

 47 49  0  0  0  0  0  0  0  0999 V2000
   56.2790   22.6450   41.9490 H   0  0  0  0  0  0  0  0  0  0  0  0
   55.9050   21.9540   42.6390 N   0  0  0  0  0  0  0  0  0  0  0  0
   55.8300   22.7570   44.1680 S   0  0  0  0  0  0  0  0  0  0  0  0
   54.3900   22.9870   44.5310 O   0  0  0  0  0  0  0  0  0  0  0  0
   56.4760   21.9020   45.2210 O   0  0  0  0  0  0  0  0  0  0  0  0
   56.6660   24.2970   44.0710 C   0  0  0  0  0  0  0  0  0  0  0  0
   57.1210   24.7450   42.8700 N   0  0  0  0  0  0  0  0  0  0  0  0
   57.7690   25.9350   42.7480 C   0  0  0  0  0  0  0  0  0  0  0  0
   58.1382   26.2610   41.7644 H   0  0  0  0  0  0  0  0  0  0  0  0
   57.9670   26.7470   43.8750 C   0  0  0  0  0  0  0  0  0  0  0  0
   58.7090   27.9690   43.7850 N   0  0  0  0  0  0  0  0  0  0  0  0
   58.8890   28.8800   44.7050 C   0  0  0  0  0  0  0  0  0  0  0  0
   60.0540   28.9360   45.5040 C   0  0  0  0  0  0  0  0  0  0  0  0
   61.1170   28.1190   45.2930 F   0  0  0  0  0  0  0  0  0  0  0  0
   60.1610   29.8940   46.5110 C   0  0  0  0  0  0  0  0  0  0  0  0
   61.0638   29.9213   47.1389 H   0  0  0  0  0  0  0  0  0  0  0  0
   59.1610   30.8000   46.7300 N   0  0  0  0  0  0  0  0  0  0  0  0
   59.2630   31.7880   47.8210 C   0  0  2  0  0  0  0  0  0  0  0  0
   58.9350   31.2762   48.7378 H   0  0  0  0  0  0  0  0  0  0  0  0
   58.4280   32.9020   47.5790 O   0  0  0  0  0  0  0  0  0  0  0  0
   59.1250   34.0640   47.9850 C   0  0  2  0  0  0  0  0  0  0  0  0
   58.5763   34.6191   48.7601 H   0  0  0  0  0  0  0  0  0  0  0  0
   59.2680   35.0090   46.7770 C   0  0  0  0  0  0  0  0  0  0  0  0
   58.2687   35.2524   46.3869 H   0  0  0  0  0  0  0  0  0  0  0  0
   59.7812   35.9266   47.1005 H   0  0  0  0  0  0  0  0  0  0  0  0
   60.0230   34.3980   45.7650 O   0  0  0  0  0  0  0  0  0  0  0  0
   59.8480   33.4230   45.8290 H   0  0  0  0  0  0  0  0  0  0  0  0
   60.4670   33.6460   48.5990 C   0  0  2  0  0  0  0  0  0  0  0  0
   60.4449   33.6501   49.6988 H   0  0  0  0  0  0  0  0  0  0  0  0
   61.5120   34.5380   48.3000 O   0  0  0  0  0  0  0  0  0  0  0  0
   61.6450   34.4970   47.3180 H   0  0  0  0  0  0  0  0  0  0  0  0
   60.6960   32.2720   48.0190 C   0  0  2  0  0  0  0  0  0  0  0  0
   61.3141   31.6142   48.6477 H   0  0  0  0  0  0  0  0  0  0  0  0
   61.3730   32.3500   46.7890 O   0  0  0  0  0  0  0  0  0  0  0  0
   61.3720   33.3060   46.5210 H   0  0  0  0  0  0  0  0  0  0  0  0
   58.0330   30.7760   45.9590 C   0  0  0  0  0  0  0  0  0  0  0  0
   57.2270   31.4972   46.1597 H   0  0  0  0  0  0  0  0  0  0  0  0
   57.8830   29.8490   44.9160 C   0  0  0  0  0  0  0  0  0  0  0  0
   56.6450   29.8950   44.0970 C   0  0  0  0  0  0  0  0  0  0  0  0
   55.6150   30.4550   44.5570 O   0  0  0  0  0  0  0  0  0  0  0  0
   56.6120   29.3550   42.7740 N   0  0  0  0  0  0  0  0  0  0  0  0
   55.7210   29.3590   42.2300 H   0  0  0  0  0  0  0  0  0  0  0  0
   57.4850   29.0340   42.2980 H   0  0  0  0  0  0  0  0  0  0  0  0
   57.5390   26.2850   45.1230 C   0  0  0  0  0  0  0  0  0  0  0  0
   57.7285   26.8843   46.0257 H   0  0  0  0  0  0  0  0  0  0  0  0
   56.8710   25.0630   45.2240 C   0  0  0  0  0  0  0  0  0  0  0  0
   56.5097   24.7062   46.1998 H   0  0  0  0  0  0  0  0  0  0  0  0
  1  2  1  0
  2  3  1  0
  3  4  2  0
  3  5  2  0
  3  6  1  0
  6  7  2  0
  7  8  1  0
  8  9  1  0
  8 10  2  0
 10 11  1  0
 11 12  2  0
 12 13  1  0
 13 14  1  0
 13 15  2  0
 15 16  1  0
 15 17  1  0
 17 18  1  0
 18 19  1  1
 18 20  1  0
 20 21  1  0
 21 22  1  1
 21 23  1  0
 23 24  1  0
 23 25  1  0
 23 26  1  0
 26 27  1  0
 21 28  1  0
 28 29  1  1
 28 30  1  0
 30 31  1  0
 28 32  1  0
 32 33  1  1
 32 34  1  0
 34 35  1  0
 17 36  1  0
 36 37  1  0
 36 38  2  0
 38 39  1  0
 39 40  2  0
 39 41  1  0
 41 42  1  0
 41 43  1  0
 10 44  1  0
 44 45  1  0
 44 46  2  0
 46 47  1  0
 46  6  1  0
 38 12  1  0
 32 18  1  0
M  CHG  1   2  -1
M  END
>  <UniqueID>  (95) 
85

>  <SMILES>  (95) 
[NH-]S(=O)(=O)c1ccc(/N=c2\c(F)cn([C@@H]3O[C@H](CO)C(O)C3O)cc2C(N)=O)cn1

>  <Energy>  (95) 
69.5767825599167

>  <Genealogy>  (95) 
[NH-]S(=O)(=O)c1ccc(N=c2c(F)cn(C3OC(CO)C(O)C3O)cc2C(N)=O)cn1 (protonated)
[NH-]S(=O)(=O)c1ccc(N=c2c(F)cn([C@@H]3O[C@H](CO)C(O)C3O)cc2C(N)=O)cn1 (chirality)
[NH-]S(=O)(=O)c1ccc(/N=c2\c(F)cn([C@@H]3O[C@H](CO)C(O)C3O)cc2C(N)=O)cn1 (cis-trans isomerization)
[NH-]S(=O)(=O)c1ccc(/N=c2\c(F)cn([C@@H]3O[C@H](CO)C(O)C3O)cc2C(N)=O)cn1 (3D coordinates assigned)
[NH-]S(=O)(=O)c1ccc(/N=c2\c(F)cn([C@@H]3O[C@H](CO)C(O)C3O)cc2C(N)=O)cn1 (nonaromatic ring conformer: 69.5767825599167 kcal/mol)

>  <smiles>  (95) 
NC(=O)c1cn(C2OC(CO)C(O)C2O)cc(F)c1=Nc1ccc(S(N)(=O)=O)nc1

>  <score_type>  (95) 
oracle

>  <origin>  (95) 
adg

>  <m_score__min__energy>  (95) 
-9.0500000000000007

>  <m_primary>  (95) 
energy

$$$$
