0:0
     RDKit          3D

 44 46  0  0  0  0  0  0  0  0999 V2000
   55.1480   29.3540   45.2260 O   0  0  0  0  0  0  0  0  0  0  0  0
   56.1930   29.3720   44.5210 C   0  0  0  0  0  0  0  0  0  0  0  0
   56.5120   30.5780   43.6940 C   0  0  0  0  0  0  0  0  0  0  0  0
   57.9950   30.9510   43.8070 C   0  0  0  0  0  0  0  0  0  0  0  0
   58.2030   32.0030   44.8180 N   0  0  0  0  0  0  0  0  0  0  0  0
   57.4760   33.1590   44.7470 C   0  0  0  0  0  0  0  0  0  0  0  0
   57.6760   34.1820   45.6740 C   0  0  0  0  0  0  0  0  0  0  0  0
   58.6340   34.0000   46.6680 C   0  0  0  0  0  0  0  0  0  0  0  0
   58.8470   34.9040   47.5200 O   0  0  0  0  0  0  0  0  0  0  0  0
   59.3450   32.8460   46.7160 N   0  0  0  0  0  0  0  0  0  0  0  0
   59.1440   31.8540   45.8080 C   0  0  0  0  0  0  0  0  0  0  0  0
   59.8360   30.8030   45.8890 O   0  0  0  0  0  0  0  0  0  0  0  0
   57.0820   28.2500   44.5030 N   0  0  0  0  0  0  0  0  0  0  0  0
   57.8640   27.7850   45.6100 C   0  0  0  0  0  0  0  0  0  0  0  0
   58.3030   26.4520   45.6970 C   0  0  0  0  0  0  0  0  0  0  0  0
   59.0570   26.0330   46.7960 C   0  0  0  0  0  0  0  0  0  0  0  0
   59.3710   26.9330   47.8180 C   0  0  0  0  0  0  0  0  0  0  0  0
   58.9200   28.2660   47.7580 C   0  0  0  0  0  0  0  0  0  0  0  0
   59.2700   29.2420   48.8200 C   0  0  0  0  0  0  0  0  0  0  0  0
   59.9320   28.8540   49.8220 O   0  0  0  0  0  0  0  0  0  0  0  0
   58.8970   30.6290   48.7010 N   0  0  0  0  0  0  0  0  0  0  0  0
   58.9040   31.5460   49.8110 C   0  0  0  0  0  0  0  0  0  0  0  0
   59.6850   32.7170   49.7820 C   0  0  0  0  0  0  0  0  0  0  0  0
   59.6750   33.5990   50.8680 C   0  0  0  0  0  0  0  0  0  0  0  0
   58.8970   33.3200   51.9940 C   0  0  0  0  0  0  0  0  0  0  0  0
   58.8890   34.5280   53.4750 Br  0  0  0  0  0  0  0  0  0  0  0  0
   58.1340   32.1490   52.0410 C   0  0  0  0  0  0  0  0  0  0  0  0
   58.1420   31.2590   50.9610 C   0  0  0  0  0  0  0  0  0  0  0  0
   57.3850   30.1330   51.0210 F   0  0  0  0  0  0  0  0  0  0  0  0
   58.1600   28.6780   46.6490 C   0  0  0  0  0  0  0  0  0  0  0  0
   56.2749   30.3642   42.6413 H   0  0  0  0  0  0  0  0  0  0  0  0
   55.9112   31.4224   44.0630 H   0  0  0  0  0  0  0  0  0  0  0  0
   58.5690   30.0579   44.0948 H   0  0  0  0  0  0  0  0  0  0  0  0
   58.3343   31.3317   42.8324 H   0  0  0  0  0  0  0  0  0  0  0  0
   56.7265   33.2834   43.9515 H   0  0  0  0  0  0  0  0  0  0  0  0
   57.0901   35.1115   45.6210 H   0  0  0  0  0  0  0  0  0  0  0  0
   58.0524   25.7380   44.8986 H   0  0  0  0  0  0  0  0  0  0  0  0
   59.4047   24.9912   46.8571 H   0  0  0  0  0  0  0  0  0  0  0  0
   59.9742   26.5982   48.6748 H   0  0  0  0  0  0  0  0  0  0  0  0
   58.7090   31.0130   47.7470 H   0  0  0  0  0  0  0  0  0  0  0  0
   60.3058   32.9395   48.9016 H   0  0  0  0  0  0  0  0  0  0  0  0
   60.2821   34.5157   50.8350 H   0  0  0  0  0  0  0  0  0  0  0  0
   57.5254   31.9267   52.9299 H   0  0  0  0  0  0  0  0  0  0  0  0
   57.7933   29.7137   46.5962 H   0  0  0  0  0  0  0  0  0  0  0  0
  1  2  2  0
  2  3  1  0
  3  4  1  0
  4  5  1  0
  5  6  1  0
  6  7  2  0
  7  8  1  0
  8  9  2  0
  8 10  1  0
 10 11  1  0
 11 12  2  0
  2 13  1  0
 13 14  1  0
 14 15  2  0
 15 16  1  0
 16 17  2  0
 17 18  1  0
 18 19  1  0
 19 20  2  0
 19 21  1  0
 21 22  1  0
 22 23  2  0
 23 24  1  0
 24 25  2  0
 25 26  1  0
 25 27  1  0
 27 28  2  0
 28 29  1  0
 18 30  2  0
 11  5  1  0
 30 14  1  0
 28 22  1  0
  3 31  1  0
  3 32  1  0
  4 33  1  0
  4 34  1  0
  6 35  1  0
  7 36  1  0
 15 37  1  0
 16 38  1  0
 17 39  1  0
 21 40  1  0
 23 41  1  0
 24 42  1  0
 27 43  1  0
 30 44  1  0
M  CHG  2  10  -1  13  -1
M  END
>  <UniqueID>  (1) 
1

>  <SMILES>  (1) 
O=C(CCn1ccc(=O)[n-]c1=O)[N-]c1cccc(C(=O)Nc2ccc(Br)cc2F)c1

>  <Energy>  (1) 
55.11305442872221

>  <Genealogy>  (1) 
O=C(CCn1ccc(=O)[n-]c1=O)[N-]c1cccc(C(=O)Nc2ccc(Br)cc2F)c1 (protonated)
O=C(CCn1ccc(=O)[n-]c1=O)[N-]c1cccc(C(=O)Nc2ccc(Br)cc2F)c1 (3D coordinates assigned)
O=C(CCn1ccc(=O)[n-]c1=O)[N-]c1cccc(C(=O)Nc2ccc(Br)cc2F)c1 (optimized conformer: 55.11305442872221 kcal/mol)

>  <smiles>  (1) 
O=C(CCn1ccc(=O)[nH]c1=O)Nc1cccc(C(=O)Nc2ccc(Br)cc2F)c1

>  <score_type>  (1) 
oracle

>  <origin>  (1) 
adg

>  <m_score__min__energy>  (1) 
-12.720000000000001

>  <m_primary>  (1) 
energy

$$$$
1:0
     RDKit          3D

 48 50  0  0  0  0  0  0  0  0999 V2000
   59.6213   27.7070   45.9519 H   0  0  0  0  0  0  0  0  0  0  0  0
   58.5500   27.8580   45.7530 C   0  0  0  0  0  0  0  0  0  0  0  0
   58.1120   29.0400   45.2470 N   0  0  0  0  0  0  0  0  0  0  0  0
   56.7900   29.2500   44.9950 C   0  0  0  0  0  0  0  0  0  0  0  0
   56.3710   30.3820   44.5140 N   0  0  0  0  0  0  0  0  0  0  0  0
   57.1880   31.3180   43.7430 C   0  0  0  0  0  0  0  0  0  0  0  0
   57.9637   30.7588   43.1993 H   0  0  0  0  0  0  0  0  0  0  0  0
   56.5409   31.8550   43.0339 H   0  0  0  0  0  0  0  0  0  0  0  0
   57.8460   32.3180   44.6560 C   0  0  0  0  0  0  0  0  0  0  0  0
   57.3980   33.6480   44.6780 C   0  0  0  0  0  0  0  0  0  0  0  0
   56.5726   33.9590   44.0207 H   0  0  0  0  0  0  0  0  0  0  0  0
   57.9960   34.5780   45.5310 C   0  0  0  0  0  0  0  0  0  0  0  0
   57.6516   35.6227   45.5317 H   0  0  0  0  0  0  0  0  0  0  0  0
   59.0300   34.1850   46.3830 C   0  0  0  0  0  0  0  0  0  0  0  0
   59.5048   34.9250   47.0441 H   0  0  0  0  0  0  0  0  0  0  0  0
   59.4670   32.8520   46.4010 C   0  0  0  0  0  0  0  0  0  0  0  0
   60.5370   32.4720   47.2830 N   0  0  0  0  0  0  0  0  0  0  0  0
   60.3410   31.6980   47.9550 H   0  0  0  0  0  0  0  0  0  0  0  0
   61.8560   33.0480   47.2320 C   0  0  0  0  0  0  0  0  0  0  0  0
   62.1500   33.8620   46.3140 O   0  0  0  0  0  0  0  0  0  0  0  0
   62.8890   32.7000   48.2360 C   0  0  0  0  0  0  0  0  0  0  0  0
   62.6720   31.6220   49.1130 C   0  0  0  0  0  0  0  0  0  0  0  0
   61.7380   31.0448   49.0460 H   0  0  0  0  0  0  0  0  0  0  0  0
   63.6320   31.2770   50.0690 C   0  0  0  0  0  0  0  0  0  0  0  0
   63.4551   30.4241   50.7407 H   0  0  0  0  0  0  0  0  0  0  0  0
   64.8180   32.0140   50.1740 C   0  0  0  0  0  0  0  0  0  0  0  0
   66.0330   31.5710   51.3680 S   0  0  0  0  0  0  0  0  0  0  0  0
   66.7950   30.3640   50.8970 O   0  0  0  0  0  0  0  0  0  0  0  0
   65.3680   31.2410   52.6750 O   0  0  0  0  0  0  0  0  0  0  0  0
   67.1560   32.9300   51.5990 C   0  0  0  0  0  0  0  0  0  0  0  0
   67.3018   33.1064   52.6749 H   0  0  0  0  0  0  0  0  0  0  0  0
   68.1228   32.6901   51.1325 H   0  0  0  0  0  0  0  0  0  0  0  0
   66.7382   33.8343   51.1325 H   0  0  0  0  0  0  0  0  0  0  0  0
   65.0390   33.0930   49.3100 C   0  0  0  0  0  0  0  0  0  0  0  0
   65.9713   33.6719   49.3855 H   0  0  0  0  0  0  0  0  0  0  0  0
   64.0820   33.4390   48.3520 C   0  0  0  0  0  0  0  0  0  0  0  0
   64.2619   34.2943   47.6842 H   0  0  0  0  0  0  0  0  0  0  0  0
   58.8850   31.9270   45.5170 C   0  0  0  0  0  0  0  0  0  0  0  0
   59.2461   30.8881   45.4992 H   0  0  0  0  0  0  0  0  0  0  0  0
   55.8920   28.2600   45.2480 N   0  0  0  0  0  0  0  0  0  0  0  0
   56.2880   27.0600   45.7560 C   0  0  0  0  0  0  0  0  0  0  0  0
   55.3590   26.0480   46.0140 O   0  0  0  0  0  0  0  0  0  0  0  0
   55.4960   24.7290   45.4990 C   0  0  0  0  0  0  0  0  0  0  0  0
   55.5701   24.0156   46.3330 H   0  0  0  0  0  0  0  0  0  0  0  0
   54.6186   24.4830   44.8829 H   0  0  0  0  0  0  0  0  0  0  0  0
   56.4053   24.6685   44.8829 H   0  0  0  0  0  0  0  0  0  0  0  0
   57.6390   26.8360   46.0200 C   0  0  0  0  0  0  0  0  0  0  0  0
   57.9790   25.8736   46.4302 H   0  0  0  0  0  0  0  0  0  0  0  0
  1  2  1  0
  2  3  1  0
  3  4  1  0
  4  5  2  0
  5  6  1  0
  6  7  1  0
  6  8  1  0
  6  9  1  0
  9 10  2  0
 10 11  1  0
 10 12  1  0
 12 13  1  0
 12 14  2  0
 14 15  1  0
 14 16  1  0
 16 17  1  0
 17 18  1  0
 17 19  1  0
 19 20  2  0
 19 21  1  0
 21 22  2  0
 22 23  1  0
 22 24  1  0
 24 25  1  0
 24 26  2  0
 26 27  1  0
 27 28  2  0
 27 29  2  0
 27 30  1  0
 30 31  1  0
 30 32  1  0
 30 33  1  0
 26 34  1  0
 34 35  1  0
 34 36  2  0
 36 37  1  0
 16 38  2  0
 38 39  1  0
  4 40  1  0
 40 41  2  0
 41 42  1  0
 42 43  1  0
 43 44  1  0
 43 45  1  0
 43 46  1  0
 41 47  1  0
 47 48  1  0
 47  2  2  0
 38  9  1  0
 36 21  1  0
M  CHG  1   3  -1
M  END
>  <UniqueID>  (2) 
2

>  <SMILES>  (2) 
COc1cc[n-]/c(=N\Cc2cccc(NC(=O)c3ccc(S(C)(=O)=O)cc3)c2)n1

>  <Energy>  (2) 
52.0367151124032

>  <Genealogy>  (2) 
COc1cc[n-]c(=NCc2cccc(NC(=O)c3ccc(S(C)(=O)=O)cc3)c2)n1 (protonated)
COc1cc[n-]/c(=N\Cc2cccc(NC(=O)c3ccc(S(C)(=O)=O)cc3)c2)n1 (cis-trans isomerization)
COc1cc[n-]/c(=N\Cc2cccc(NC(=O)c3ccc(S(C)(=O)=O)cc3)c2)n1 (3D coordinates assigned)
COc1cc[n-]/c(=N\Cc2cccc(NC(=O)c3ccc(S(C)(=O)=O)cc3)c2)n1 (optimized conformer: 52.0367151124032 kcal/mol)

>  <smiles>  (2) 
COc1cc[nH]c(=NCc2cccc(NC(=O)c3ccc(S(C)(=O)=O)cc3)c2)n1

>  <score_type>  (2) 
oracle

>  <origin>  (2) 
adg

>  <m_score__min__energy>  (2) 
-10.49

>  <m_primary>  (2) 
energy

$$$$
2:0
     RDKit          3D

 56 58  0  0  0  0  0  0  0  0999 V2000
   60.6820   33.5120   49.3570 N   0  0  0  0  0  0  0  0  0  0  0  0
   59.9560   34.5860   48.6870 C   0  0  0  0  0  0  0  0  0  0  0  0
   59.3000   34.0620   47.4400 C   0  0  0  0  0  0  0  0  0  0  0  0
   58.2580   33.1250   47.5300 C   0  0  0  0  0  0  0  0  0  0  0  0
   57.6700   32.6100   46.3700 C   0  0  0  0  0  0  0  0  0  0  0  0
   58.1150   33.0280   45.1060 C   0  0  0  0  0  0  0  0  0  0  0  0
   57.5100   32.4470   43.8620 C   0  0  0  0  0  0  0  0  0  0  0  0
   57.6900   31.0010   43.8680 N   0  0  0  0  0  0  0  0  0  0  0  0
   56.6970   30.0540   44.2780 C   0  0  0  0  0  0  0  0  0  0  0  0
   55.5340   30.4700   44.5270 O   0  0  0  0  0  0  0  0  0  0  0  0
   57.0180   28.5870   44.4680 C   0  0  1  0  0  0  0  0  0  0  0  0
   58.5280   28.3610   44.6700 C   0  0  0  0  0  0  0  0  0  0  0  0
   59.0660   29.0240   45.9170 C   0  0  0  0  0  0  0  0  0  0  0  0
   60.0400   30.0330   45.8190 C   0  0  0  0  0  0  0  0  0  0  0  0
   60.5210   30.6620   46.9710 C   0  0  0  0  0  0  0  0  0  0  0  0
   60.0330   30.2920   48.2280 C   0  0  0  0  0  0  0  0  0  0  0  0
   60.5110   30.9190   49.3720 O   0  0  0  0  0  0  0  0  0  0  0  0
   59.0620   29.2900   48.3330 C   0  0  0  0  0  0  0  0  0  0  0  0
   58.5790   28.6590   47.1820 C   0  0  0  0  0  0  0  0  0  0  0  0
   56.2700   28.0380   45.5970 N   0  0  0  0  0  0  0  0  0  0  0  0
   56.2430   26.6430   45.9010 C   0  0  0  0  0  0  0  0  0  0  0  0
   55.1460   26.0970   46.1970 O   0  0  0  0  0  0  0  0  0  0  0  0
   57.4260   25.8940   45.8660 O   0  0  0  0  0  0  0  0  0  0  0  0
   57.5130   24.5410   46.3040 C   0  0  0  0  0  0  0  0  0  0  0  0
   57.2750   23.6060   45.1500 C   0  0  0  0  0  0  0  0  0  0  0  0
   56.3400   23.9430   44.1580 C   0  0  0  0  0  0  0  0  0  0  0  0
   56.1260   23.0880   43.0710 C   0  0  0  0  0  0  0  0  0  0  0  0
   56.8470   21.8950   42.9680 C   0  0  0  0  0  0  0  0  0  0  0  0
   57.7830   21.5550   43.9490 C   0  0  0  0  0  0  0  0  0  0  0  0
   57.9990   22.4080   45.0370 C   0  0  0  0  0  0  0  0  0  0  0  0
   59.1770   33.9410   45.0160 C   0  0  0  0  0  0  0  0  0  0  0  0
   59.7650   34.4540   46.1760 C   0  0  0  0  0  0  0  0  0  0  0  0
   59.9970   32.9580   49.9220 H   0  0  0  0  0  0  0  0  0  0  0  0
   61.0470   32.8670   48.6190 H   0  0  0  0  0  0  0  0  0  0  0  0
   59.1859   34.9833   49.3646 H   0  0  0  0  0  0  0  0  0  0  0  0
   60.6617   35.3850   48.4158 H   0  0  0  0  0  0  0  0  0  0  0  0
   57.9026   32.7945   48.5171 H   0  0  0  0  0  0  0  0  0  0  0  0
   56.8557   31.8746   46.4486 H   0  0  0  0  0  0  0  0  0  0  0  0
   56.4361   32.6833   43.8309 H   0  0  0  0  0  0  0  0  0  0  0  0
   58.0039   32.8758   42.9776 H   0  0  0  0  0  0  0  0  0  0  0  0
   56.7157   28.0604   43.5508 H   0  0  0  0  0  0  0  0  0  0  0  0
   58.7134   27.2791   44.7411 H   0  0  0  0  0  0  0  0  0  0  0  0
   59.0447   28.8123   43.8101 H   0  0  0  0  0  0  0  0  0  0  0  0
   60.4251   30.3287   44.8320 H   0  0  0  0  0  0  0  0  0  0  0  0
   61.2847   31.4494   46.8885 H   0  0  0  0  0  0  0  0  0  0  0  0
   58.6782   28.9983   49.3217 H   0  0  0  0  0  0  0  0  0  0  0  0
   57.8141   27.8732   47.2684 H   0  0  0  0  0  0  0  0  0  0  0  0
   58.5146   24.3573   46.7201 H   0  0  0  0  0  0  0  0  0  0  0  0
   56.7483   24.3629   47.0744 H   0  0  0  0  0  0  0  0  0  0  0  0
   55.7736   24.8827   44.2356 H   0  0  0  0  0  0  0  0  0  0  0  0
   55.3905   23.3548   42.2978 H   0  0  0  0  0  0  0  0  0  0  0  0
   56.6777   21.2228   42.1139 H   0  0  0  0  0  0  0  0  0  0  0  0
   58.3502   20.6162   43.8656 H   0  0  0  0  0  0  0  0  0  0  0  0
   58.7381   22.1394   45.8061 H   0  0  0  0  0  0  0  0  0  0  0  0
   59.5482   34.2542   44.0290 H   0  0  0  0  0  0  0  0  0  0  0  0
   60.5971   35.1691   46.0970 H   0  0  0  0  0  0  0  0  0  0  0  0
  1  2  1  0
  2  3  1  0
  3  4  2  0
  4  5  1  0
  5  6  2  0
  6  7  1  0
  7  8  1  0
  8  9  1  0
  9 10  2  0
  9 11  1  0
 11 12  1  0
 12 13  1  0
 13 14  2  0
 14 15  1  0
 15 16  2  0
 16 17  1  0
 16 18  1  0
 18 19  2  0
 11 20  1  0
 20 21  1  0
 21 22  2  0
 21 23  1  0
 23 24  1  0
 24 25  1  0
 25 26  2  0
 26 27  1  0
 27 28  2  0
 28 29  1  0
 29 30  2  0
  6 31  1  0
 31 32  2  0
 32  3  1  0
 19 13  1  0
 30 25  1  0
  1 33  1  0
  1 34  1  0
  2 35  1  0
  2 36  1  0
  4 37  1  0
  5 38  1  0
  7 39  1  0
  7 40  1  0
 11 41  1  6
 12 42  1  0
 12 43  1  0
 14 44  1  0
 15 45  1  0
 18 46  1  0
 19 47  1  0
 24 48  1  0
 24 49  1  0
 26 50  1  0
 27 51  1  0
 28 52  1  0
 29 53  1  0
 30 54  1  0
 31 55  1  0
 32 56  1  0
M  CHG  3   8  -1  17  -1  20  -1
M  END
>  <UniqueID>  (3) 
3

>  <SMILES>  (3) 
NCc1ccc(C[N-]C(=O)[C@@H](Cc2ccc([O-])cc2)[N-]C(=O)OCc2ccccc2)cc1

>  <Energy>  (3) 
47.44223601342178

>  <Genealogy>  (3) 
NCc1ccc(C[N-]C(=O)C(Cc2ccc([O-])cc2)[N-]C(=O)OCc2ccccc2)cc1 (protonated)
NCc1ccc(C[N-]C(=O)[C@@H](Cc2ccc([O-])cc2)[N-]C(=O)OCc2ccccc2)cc1 (chirality)
NCc1ccc(C[N-]C(=O)[C@@H](Cc2ccc([O-])cc2)[N-]C(=O)OCc2ccccc2)cc1 (3D coordinates assigned)
NCc1ccc(C[N-]C(=O)[C@@H](Cc2ccc([O-])cc2)[N-]C(=O)OCc2ccccc2)cc1 (optimized conformer: 47.44223601342178 kcal/mol)

>  <smiles>  (3) 
NCc1ccc(CNC(=O)C(Cc2ccc(O)cc2)NC(=O)OCc2ccccc2)cc1

>  <score_type>  (3) 
oracle

>  <origin>  (3) 
adg

>  <m_score__min__energy>  (3) 
-13.640000000000001

>  <m_primary>  (3) 
energy

$$$$
3:0
     RDKit          3D

 49 52  0  0  0  0  0  0  0  0999 V2000
   63.9740   33.0990   46.8910 C   0  0  0  0  0  0  0  0  0  0  0  0
   63.5760   33.3100   48.3610 C   0  0  2  0  0  0  0  0  0  0  0  0
   64.6320   32.6620   49.3070 C   0  0  0  0  0  0  0  0  0  0  0  0
   64.0770   32.0240   50.4460 O   0  0  0  0  0  0  0  0  0  0  0  0
   63.0620   32.8210   51.0130 C   0  0  0  0  0  0  0  0  0  0  0  0
   61.8280   32.7810   50.1120 C   0  0  0  0  0  0  0  0  0  0  0  0
   62.2140   32.8340   48.6960 N   0  0  0  0  0  0  0  0  0  0  0  0
   61.1550   32.7450   47.7220 C   0  0  0  0  0  0  0  0  0  0  0  0
   60.7120   33.8650   47.0940 N   0  0  0  0  0  0  0  0  0  0  0  0
   59.6860   33.7960   46.2080 C   0  0  0  0  0  0  0  0  0  0  0  0
   59.2200   35.0080   45.5240 C   0  0  0  0  0  0  0  0  0  0  0  0
   59.8230   36.2680   45.8110 N   0  0  0  0  0  0  0  0  0  0  0  0
   58.2840   34.9410   44.6830 O   0  0  0  0  0  0  0  0  0  0  0  0
   59.0950   32.6000   45.9540 N   0  0  0  0  0  0  0  0  0  0  0  0
   59.5190   31.4730   46.5860 C   0  0  0  0  0  0  0  0  0  0  0  0
   58.8730   30.1660   46.3050 C   0  0  0  0  0  0  0  0  0  0  0  0
   59.6000   28.9690   46.4270 C   0  0  0  0  0  0  0  0  0  0  0  0
   58.9910   27.7400   46.1620 C   0  0  0  0  0  0  0  0  0  0  0  0
   57.6450   27.6760   45.7920 C   0  0  0  0  0  0  0  0  0  0  0  0
   57.0690   26.3900   45.5240 N   0  0  0  0  0  0  0  0  0  0  0  0
   55.9060   25.8530   46.1620 C   0  0  0  0  0  0  0  0  0  0  0  0
   54.7680   26.3430   45.9230 O   0  0  0  0  0  0  0  0  0  0  0  0
   56.0660   24.7820   47.1050 N   0  0  0  0  0  0  0  0  0  0  0  0
   56.1860   23.5190   46.8200 C   0  0  0  0  0  0  0  0  0  0  0  0
   55.5020   22.9000   45.8330 N   0  0  0  0  0  0  0  0  0  0  0  0
   55.9350   21.6290   45.8980 C   0  0  0  0  0  0  0  0  0  0  0  0
   56.8580   21.5140   46.9110 C   0  0  0  0  0  0  0  0  0  0  0  0
   57.0230   22.7100   47.5010 N   0  0  0  0  0  0  0  0  0  0  0  0
   56.9160   28.8700   45.6240 C   0  0  0  0  0  0  0  0  0  0  0  0
   55.6040   28.8380   45.1560 O   0  0  0  0  0  0  0  0  0  0  0  0
   57.5280   30.1030   45.8990 C   0  0  0  0  0  0  0  0  0  0  0  0
   60.5430   31.5570   47.4740 N   0  0  0  0  0  0  0  0  0  0  0  0
   64.9450   32.5842   46.8443 H   0  0  0  0  0  0  0  0  0  0  0  0
   63.2102   32.4874   46.3885 H   0  0  0  0  0  0  0  0  0  0  0  0
   64.0516   34.0744   46.3885 H   0  0  0  0  0  0  0  0  0  0  0  0
   63.5551   34.3991   48.5143 H   0  0  0  0  0  0  0  0  0  0  0  0
   65.1965   31.9128   48.7325 H   0  0  0  0  0  0  0  0  0  0  0  0
   65.2669   33.4793   49.6798 H   0  0  0  0  0  0  0  0  0  0  0  0
   62.8028   32.4327   52.0090 H   0  0  0  0  0  0  0  0  0  0  0  0
   63.4165   33.8580   51.1077 H   0  0  0  0  0  0  0  0  0  0  0  0
   61.2742   31.8494   50.3002 H   0  0  0  0  0  0  0  0  0  0  0  0
   61.1977   33.6536   50.3385 H   0  0  0  0  0  0  0  0  0  0  0  0
   59.6530   36.7470   46.7230 H   0  0  0  0  0  0  0  0  0  0  0  0
   60.6560   29.0003   46.7333 H   0  0  0  0  0  0  0  0  0  0  0  0
   59.5772   26.8129   46.2455 H   0  0  0  0  0  0  0  0  0  0  0  0
   55.6031   20.8095   45.2436 H   0  0  0  0  0  0  0  0  0  0  0  0
   57.3796   20.5878   47.1940 H   0  0  0  0  0  0  0  0  0  0  0  0
   55.1420   27.9660   44.9230 H   0  0  0  0  0  0  0  0  0  0  0  0
   56.9481   31.0320   45.7956 H   0  0  0  0  0  0  0  0  0  0  0  0
  1  2  1  0
  2  3  1  0
  3  4  1  0
  4  5  1  0
  5  6  1  0
  6  7  1  0
  7  8  1  0
  8  9  2  0
  9 10  1  0
 10 11  1  0
 11 12  1  0
 11 13  2  0
 10 14  2  0
 14 15  1  0
 15 16  1  0
 16 17  2  0
 17 18  1  0
 18 19  2  0
 19 20  1  0
 20 21  1  0
 21 22  2  0
 21 23  1  0
 23 24  2  3
 24 25  1  0
 25 26  1  0
 26 27  2  0
 27 28  1  0
 19 29  1  0
 29 30  1  0
 29 31  2  0
 15 32  2  0
  7  2  1  0
 32  8  1  0
 31 16  1  0
 28 24  1  0
  1 33  1  0
  1 34  1  0
  1 35  1  0
  2 36  1  1
  3 37  1  0
  3 38  1  0
  5 39  1  0
  5 40  1  0
  6 41  1  0
  6 42  1  0
 12 43  1  0
 17 44  1  0
 18 45  1  0
 26 46  1  0
 27 47  1  0
 30 48  1  0
 31 49  1  0
M  CHG  4  12  -1  20  -1  25  -1  28  -1
M  END
>  <UniqueID>  (4) 
4

>  <SMILES>  (4) 
C[C@@H]1COCCN1c1nc(C([NH-])=O)nc(-c2ccc([N-]C(=O)N=c3[n-]cc[n-]3)c(O)c2)n1

>  <Energy>  (4) 
99.45272425577392

>  <Genealogy>  (4) 
CC1COCCN1c1nc(C([NH-])=O)nc(-c2ccc([N-]C(=O)N=c3[n-]cc[n-]3)c(O)c2)n1 (protonated)
C[C@@H]1COCCN1c1nc(C([NH-])=O)nc(-c2ccc([N-]C(=O)N=c3[n-]cc[n-]3)c(O)c2)n1 (chirality)
C[C@@H]1COCCN1c1nc(C([NH-])=O)nc(-c2ccc([N-]C(=O)N=c3[n-]cc[n-]3)c(O)c2)n1 (3D coordinates assigned)
C[C@@H]1COCCN1c1nc(C([NH-])=O)nc(-c2ccc([N-]C(=O)N=c3[n-]cc[n-]3)c(O)c2)n1 (nonaromatic ring conformer: 99.45272425577392 kcal/mol)

>  <smiles>  (4) 
CC1COCCN1c1nc(C(N)=O)nc(-c2ccc(NC(=O)N=c3[nH]cc[nH]3)c(O)c2)n1

>  <score_type>  (4) 
oracle

>  <origin>  (4) 
adg

>  <m_score__min__energy>  (4) 
-13.6

>  <m_primary>  (4) 
energy

$$$$
4:0
     RDKit          3D

 62 66  0  0  0  0  0  0  0  0999 V2000
   61.8260   30.6730   46.7260 O   0  0  0  0  0  0  0  0  0  0  0  0
   61.9560   31.6110   47.5570 C   0  0  0  0  0  0  0  0  0  0  0  0
   61.7590   31.3570   48.9590 N   0  0  0  0  0  0  0  0  0  0  0  0
   60.9080   31.9230   49.7710 C   0  0  0  0  0  0  0  0  0  0  0  0
   60.3620   31.2510   50.8880 C   0  0  0  0  0  0  0  0  0  0  0  0
   59.4410   31.9100   51.7020 C   0  0  0  0  0  0  0  0  0  0  0  0
   59.0560   33.2190   51.4050 C   0  0  0  0  0  0  0  0  0  0  0  0
   59.5930   33.8470   50.2830 C   0  0  0  0  0  0  0  0  0  0  0  0
   60.4910   33.1950   49.4950 N   0  0  0  0  0  0  0  0  0  0  0  0
   62.3390   32.9830   47.1120 C   0  0  0  0  0  0  0  0  0  0  0  0
   63.7180   33.4960   47.4330 C   0  0  0  0  0  0  0  0  0  0  0  0
   63.9830   33.4210   48.9140 C   0  0  0  0  0  0  0  0  0  0  0  0
   64.9800   32.5630   49.4070 C   0  0  0  0  0  0  0  0  0  0  0  0
   65.2450   32.5060   50.7790 C   0  0  0  0  0  0  0  0  0  0  0  0
   64.5220   33.3080   51.6660 C   0  0  0  0  0  0  0  0  0  0  0  0
   63.5300   34.1630   51.1830 C   0  0  0  0  0  0  0  0  0  0  0  0
   63.2580   34.2220   49.8130 C   0  0  0  0  0  0  0  0  0  0  0  0
   61.5070   33.8120   46.5390 N   0  0  0  0  0  0  0  0  0  0  0  0
   60.0850   33.8670   46.7110 C   0  0  0  0  0  0  0  0  0  0  0  0
   59.5830   34.8650   47.2950 O   0  0  0  0  0  0  0  0  0  0  0  0
   59.2020   32.8110   46.1560 C   0  0  0  0  0  0  0  0  0  0  0  0
   58.6810   32.9330   44.8550 C   0  0  0  0  0  0  0  0  0  0  0  0
   57.8550   31.9350   44.3270 C   0  0  0  0  0  0  0  0  0  0  0  0
   57.5560   30.7940   45.0810 C   0  0  0  0  0  0  0  0  0  0  0  0
   56.5800   29.4940   44.4050 S   0  0  0  0  0  0  0  0  0  0  0  0
   55.1440   29.6970   44.8010 O   0  0  0  0  0  0  0  0  0  0  0  0
   56.6660   29.4800   42.9040 O   0  0  0  0  0  0  0  0  0  0  0  0
   57.1530   27.9820   45.0260 N   0  0  0  0  0  0  0  0  0  0  0  0
   56.3020   27.0050   45.7020 C   0  0  0  0  0  0  0  0  0  0  0  0
   57.2640   25.9880   46.3630 C   0  0  0  0  0  0  0  0  0  0  0  0
   58.6130   26.5490   46.0690 C   0  0  0  0  0  0  0  0  0  0  0  0
   59.8570   26.0680   46.4840 C   0  0  0  0  0  0  0  0  0  0  0  0
   61.0110   26.7750   46.1010 C   0  0  0  0  0  0  0  0  0  0  0  0
   60.8990   27.9410   45.3190 C   0  0  0  0  0  0  0  0  0  0  0  0
   59.6370   28.4020   44.9120 C   0  0  0  0  0  0  0  0  0  0  0  0
   58.5080   27.6790   45.3080 C   0  0  0  0  0  0  0  0  0  0  0  0
   58.0760   30.6640   46.3720 C   0  0  0  0  0  0  0  0  0  0  0  0
   58.8890   31.6670   46.9090 C   0  0  0  0  0  0  0  0  0  0  0  0
   60.6610   30.2167   51.1135 H   0  0  0  0  0  0  0  0  0  0  0  0
   59.0175   31.3982   52.5787 H   0  0  0  0  0  0  0  0  0  0  0  0
   58.3377   33.7478   52.0488 H   0  0  0  0  0  0  0  0  0  0  0  0
   59.2898   34.8744   50.0330 H   0  0  0  0  0  0  0  0  0  0  0  0
   60.8710   33.6930   48.6580 H   0  0  0  0  0  0  0  0  0  0  0  0
   64.4630   32.8856   46.9016 H   0  0  0  0  0  0  0  0  0  0  0  0
   63.7875   34.5465   47.1142 H   0  0  0  0  0  0  0  0  0  0  0  0
   65.5544   31.9336   48.7113 H   0  0  0  0  0  0  0  0  0  0  0  0
   66.0236   31.8290   51.1604 H   0  0  0  0  0  0  0  0  0  0  0  0
   64.7345   33.2655   52.7444 H   0  0  0  0  0  0  0  0  0  0  0  0
   62.9604   34.7924   51.8826 H   0  0  0  0  0  0  0  0  0  0  0  0
   62.4747   34.8969   49.4377 H   0  0  0  0  0  0  0  0  0  0  0  0
   58.9245   33.8183   44.2493 H   0  0  0  0  0  0  0  0  0  0  0  0
   57.4387   32.0473   43.3150 H   0  0  0  0  0  0  0  0  0  0  0  0
   55.6844   27.4996   46.4662 H   0  0  0  0  0  0  0  0  0  0  0  0
   55.6157   26.5121   44.9977 H   0  0  0  0  0  0  0  0  0  0  0  0
   57.0899   25.9288   47.4475 H   0  0  0  0  0  0  0  0  0  0  0  0
   57.1327   24.9635   45.9847 H   0  0  0  0  0  0  0  0  0  0  0  0
   59.9324   25.1573   47.0963 H   0  0  0  0  0  0  0  0  0  0  0  0
   62.0031   26.4165   46.4129 H   0  0  0  0  0  0  0  0  0  0  0  0
   61.8043   28.4928   45.0259 H   0  0  0  0  0  0  0  0  0  0  0  0
   59.5391   29.3089   44.2972 H   0  0  0  0  0  0  0  0  0  0  0  0
   57.8447   29.7689   46.9680 H   0  0  0  0  0  0  0  0  0  0  0  0
   59.2866   31.5594   47.9290 H   0  0  0  0  0  0  0  0  0  0  0  0
  1  2  2  0
  2  3  1  0
  3  4  2  3
  4  5  1  0
  5  6  2  0
  6  7  1  0
  7  8  2  0
  8  9  1  0
  2 10  1  0
 10 11  1  0
 11 12  1  0
 12 13  2  0
 13 14  1  0
 14 15  2  0
 15 16  1  0
 16 17  2  0
 10 18  2  3
 18 19  1  0
 19 20  2  0
 19 21  1  0
 21 22  2  0
 22 23  1  0
 23 24  2  0
 24 25  1  0
 25 26  2  0
 25 27  2  0
 25 28  1  0
 28 29  1  0
 29 30  1  0
 30 31  1  0
 31 32  2  0
 32 33  1  0
 33 34  2  0
 34 35  1  0
 35 36  2  0
 24 37  1  0
 37 38  2  0
  9  4  1  0
 17 12  1  0
 38 21  1  0
 36 28  1  0
 36 31  1  0
  5 39  1  0
  6 40  1  0
  7 41  1  0
  8 42  1  0
  9 43  1  0
 11 44  1  0
 11 45  1  0
 13 46  1  0
 14 47  1  0
 15 48  1  0
 16 49  1  0
 17 50  1  0
 22 51  1  0
 23 52  1  0
 29 53  1  0
 29 54  1  0
 30 55  1  0
 30 56  1  0
 32 57  1  0
 33 58  1  0
 34 59  1  0
 35 60  1  0
 37 61  1  0
 38 62  1  0
M  END
>  <UniqueID>  (5) 
5

>  <SMILES>  (5) 
O=C(N=c1cccc[nH]1)C(Cc1ccccc1)=NC(=O)c1ccc(S(=O)(=O)N2CCc3ccccc32)cc1

>  <Energy>  (5) 
100.52389036556224

>  <Genealogy>  (5) 
O=C(N=c1cccc[nH]1)C(Cc1ccccc1)=NC(=O)c1ccc(S(=O)(=O)N2CCc3ccccc32)cc1 (3D coordinates assigned)
O=C(N=c1cccc[nH]1)C(Cc1ccccc1)=NC(=O)c1ccc(S(=O)(=O)N2CCc3ccccc32)cc1 (nonaromatic ring conformer: 100.52389036556224 kcal/mol)

>  <smiles>  (5) 
O=C(N=c1cccc[nH]1)C(Cc1ccccc1)=NC(=O)c1ccc(S(=O)(=O)N2CCc3ccccc32)cc1

>  <score_type>  (5) 
oracle

>  <origin>  (5) 
adg

>  <m_score__min__energy>  (5) 
-11.300000000000001

>  <m_primary>  (5) 
energy

$$$$
5:0
     RDKit          3D

 63 66  0  0  0  0  0  0  0  0999 V2000
   57.8640   32.4620   51.0830 N   0  0  0  0  0  0  0  0  0  0  0  0
   58.0760   31.0500   51.1280 C   0  0  0  0  0  0  0  0  0  0  0  0
   57.0800   30.2870   51.2560 O   0  0  0  0  0  0  0  0  0  0  0  0
   59.4420   30.4810   51.0310 C   0  0  0  0  0  0  0  0  0  0  0  0
   60.4410   30.9240   51.9180 C   0  0  0  0  0  0  0  0  0  0  0  0
   61.7430   30.4240   51.8330 C   0  0  0  0  0  0  0  0  0  0  0  0
   62.0640   29.4680   50.8700 C   0  0  0  0  0  0  0  0  0  0  0  0
   61.0850   29.0100   49.9870 C   0  0  0  0  0  0  0  0  0  0  0  0
   59.7760   29.5220   50.0420 C   0  0  0  0  0  0  0  0  0  0  0  0
   58.7680   28.9850   49.1670 N   0  0  0  0  0  0  0  0  0  0  0  0
   59.0490   28.2160   47.9810 C   0  0  0  0  0  0  0  0  0  0  0  0
   59.7210   26.9810   48.0410 C   0  0  0  0  0  0  0  0  0  0  0  0
   60.0110   26.2750   46.8690 C   0  0  0  0  0  0  0  0  0  0  0  0
   59.6430   26.7970   45.6270 C   0  0  0  0  0  0  0  0  0  0  0  0
   58.9700   28.0270   45.5480 C   0  0  0  0  0  0  0  0  0  0  0  0
   58.6520   28.6430   44.2410 C   0  0  0  0  0  0  0  0  0  0  0  0
   57.4160   28.8400   43.7610 C   0  0  0  0  0  0  0  0  0  0  0  0
   56.3050   29.4510   44.5230 C   0  0  0  0  0  0  0  0  0  0  0  0
   55.5600   28.7260   45.2340 O   0  0  0  0  0  0  0  0  0  0  0  0
   56.0670   30.8630   44.5020 N   0  0  0  0  0  0  0  0  0  0  0  0
   57.0740   31.8840   44.2250 C   0  0  0  0  0  0  0  0  0  0  0  0
   57.8770   32.2030   45.4590 C   0  0  0  0  0  0  0  0  0  0  0  0
   57.4090   33.1490   46.3820 C   0  0  0  0  0  0  0  0  0  0  0  0
   58.1670   33.4680   47.5120 C   0  0  0  0  0  0  0  0  0  0  0  0
   59.4190   32.8670   47.7230 C   0  0  0  0  0  0  0  0  0  0  0  0
   60.2210   33.2180   48.9180 C   0  0  0  0  0  0  0  0  0  0  0  0
   59.8920   34.2170   49.6110 O   0  0  0  0  0  0  0  0  0  0  0  0
   61.3380   32.4240   49.3450 N   0  0  0  0  0  0  0  0  0  0  0  0
   62.6090   32.9210   49.7950 C   0  0  0  0  0  0  0  0  0  0  0  0
   62.7260   33.6110   51.0180 C   0  0  0  0  0  0  0  0  0  0  0  0
   63.9720   34.0620   51.4610 C   0  0  0  0  0  0  0  0  0  0  0  0
   65.1140   33.8220   50.6960 C   0  0  0  0  0  0  0  0  0  0  0  0
   65.0160   33.1210   49.4930 C   0  0  0  0  0  0  0  0  0  0  0  0
   63.7690   32.6630   49.0350 C   0  0  0  0  0  0  0  0  0  0  0  0
   63.6940   31.9490   47.7950 N   0  0  0  0  0  0  0  0  0  0  0  0
   59.8900   31.9290   46.7920 C   0  0  0  0  0  0  0  0  0  0  0  0
   59.1280   31.6020   45.6670 C   0  0  0  0  0  0  0  0  0  0  0  0
   58.6930   28.7370   46.7250 C   0  0  0  0  0  0  0  0  0  0  0  0
   58.6640   33.1320   51.0480 H   0  0  0  0  0  0  0  0  0  0  0  0
   56.8960   32.8490   51.1460 H   0  0  0  0  0  0  0  0  0  0  0  0
   60.1942   31.6717   52.6862 H   0  0  0  0  0  0  0  0  0  0  0  0
   62.5162   30.7852   52.5271 H   0  0  0  0  0  0  0  0  0  0  0  0
   63.0893   29.0746   50.8062 H   0  0  0  0  0  0  0  0  0  0  0  0
   61.3392   28.2420   49.2416 H   0  0  0  0  0  0  0  0  0  0  0  0
   57.7690   29.1940   49.3950 H   0  0  0  0  0  0  0  0  0  0  0  0
   60.0201   26.5683   49.0158 H   0  0  0  0  0  0  0  0  0  0  0  0
   60.5299   25.3067   46.9256 H   0  0  0  0  0  0  0  0  0  0  0  0
   59.8812   26.2426   44.7072 H   0  0  0  0  0  0  0  0  0  0  0  0
   59.4964   28.9647   43.6137 H   0  0  0  0  0  0  0  0  0  0  0  0
   57.2134   28.5249   42.7268 H   0  0  0  0  0  0  0  0  0  0  0  0
   57.7518   31.5165   43.4404 H   0  0  0  0  0  0  0  0  0  0  0  0
   56.5614   32.7998   43.8955 H   0  0  0  0  0  0  0  0  0  0  0  0
   56.4402   33.6427   46.2159 H   0  0  0  0  0  0  0  0  0  0  0  0
   57.7804   34.1950   48.2414 H   0  0  0  0  0  0  0  0  0  0  0  0
   61.8298   33.7959   51.6284 H   0  0  0  0  0  0  0  0  0  0  0  0
   64.0527   34.6066   52.4133 H   0  0  0  0  0  0  0  0  0  0  0  0
   66.0929   34.1858   51.0415 H   0  0  0  0  0  0  0  0  0  0  0  0
   65.9212   32.9257   48.8993 H   0  0  0  0  0  0  0  0  0  0  0  0
   62.7930   31.5140   47.4890 H   0  0  0  0  0  0  0  0  0  0  0  0
   64.5280   31.8250   47.1790 H   0  0  0  0  0  0  0  0  0  0  0  0
   60.8664   31.4473   46.9487 H   0  0  0  0  0  0  0  0  0  0  0  0
   59.5108   30.8698   44.9408 H   0  0  0  0  0  0  0  0  0  0  0  0
   58.1909   29.7138   46.6647 H   0  0  0  0  0  0  0  0  0  0  0  0
  1  2  1  0
  2  3  2  0
  2  4  1  0
  4  5  2  0
  5  6  1  0
  6  7  2  0
  7  8  1  0
  8  9  2  0
  9 10  1  0
 10 11  1  0
 11 12  2  0
 12 13  1  0
 13 14  2  0
 14 15  1  0
 15 16  1  0
 16 17  2  3
 17 18  1  0
 18 19  2  0
 18 20  1  0
 20 21  1  0
 21 22  1  0
 22 23  2  0
 23 24  1  0
 24 25  2  0
 25 26  1  0
 26 27  2  0
 26 28  1  0
 28 29  1  0
 29 30  2  0
 30 31  1  0
 31 32  2  0
 32 33  1  0
 33 34  2  0
 34 35  1  0
 25 36  1  0
 36 37  2  0
 15 38  2  0
  9  4  1  0
 38 11  1  0
 37 22  1  0
 34 29  1  0
  1 39  1  0
  1 40  1  0
  5 41  1  0
  6 42  1  0
  7 43  1  0
  8 44  1  0
 10 45  1  0
 12 46  1  0
 13 47  1  0
 14 48  1  0
 16 49  1  0
 17 50  1  0
 21 51  1  0
 21 52  1  0
 23 53  1  0
 24 54  1  0
 30 55  1  0
 31 56  1  0
 32 57  1  0
 33 58  1  0
 35 59  1  0
 35 60  1  0
 36 61  1  0
 37 62  1  0
 38 63  1  0
M  CHG  2  20  -1  28  -1
M  END
>  <UniqueID>  (6) 
6

>  <SMILES>  (6) 
NC(=O)c1ccccc1Nc1cccc(C=CC(=O)[N-]Cc2ccc(C(=O)[N-]c3ccccc3N)cc2)c1

>  <Energy>  (6) 
90.6686819194032

>  <Genealogy>  (6) 
NC(=O)c1ccccc1Nc1cccc(C=CC(=O)[N-]Cc2ccc(C(=O)[N-]c3ccccc3N)cc2)c1 (protonated)
NC(=O)c1ccccc1Nc1cccc(C=CC(=O)[N-]Cc2ccc(C(=O)[N-]c3ccccc3N)cc2)c1 (3D coordinates assigned)
NC(=O)c1ccccc1Nc1cccc(C=CC(=O)[N-]Cc2ccc(C(=O)[N-]c3ccccc3N)cc2)c1 (optimized conformer: 90.6686819194032 kcal/mol)

>  <smiles>  (6) 
NC(=O)c1ccccc1Nc1cccc(C=CC(=O)NCc2ccc(C(=O)Nc3ccccc3N)cc2)c1

>  <score_type>  (6) 
oracle

>  <origin>  (6) 
adg

>  <m_score__min__energy>  (6) 
-12.76

>  <m_primary>  (6) 
energy

$$$$
6:0
     RDKit          3D

 44 45  0  0  0  0  0  0  0  0999 V2000
   59.6430   34.5280   48.3450 C   0  0  0  0  0  0  0  0  0  0  0  0
   59.2250   34.2590   46.9760 N   0  0  0  0  0  0  0  0  0  0  0  0
   58.5050   33.1980   46.5700 C   0  0  0  0  0  0  0  0  0  0  0  0
   58.2820   33.3340   45.2170 C   0  0  0  0  0  0  0  0  0  0  0  0
   57.4870   32.4190   44.3370 C   0  0  0  0  0  0  0  0  0  0  0  0
   56.7180   31.4730   45.1430 N   0  0  0  0  0  0  0  0  0  0  0  0
   56.4050   30.0090   44.2590 S   0  0  0  0  0  0  0  0  0  0  0  0
   56.2200   30.3340   42.8020 O   0  0  0  0  0  0  0  0  0  0  0  0
   55.1640   29.3380   44.7790 O   0  0  0  0  0  0  0  0  0  0  0  0
   57.7930   28.8950   44.4300 C   0  0  0  0  0  0  0  0  0  0  0  0
   58.3540   28.8740   45.8680 C   0  0  0  0  0  0  0  0  0  0  0  0
   57.7710   27.7460   46.7290 C   0  0  0  0  0  0  0  0  0  0  0  0
   57.7540   26.4800   45.9950 N   0  0  0  0  0  0  0  0  0  0  0  0
   56.5400   25.8050   45.6270 C   0  0  0  0  0  0  0  0  0  0  0  0
   55.4250   26.2710   45.9920 O   0  0  0  0  0  0  0  0  0  0  0  0
   56.5780   24.6110   44.8270 N   0  0  0  0  0  0  0  0  0  0  0  0
   57.7900   23.8750   44.5110 C   0  0  0  0  0  0  0  0  0  0  0  0
   57.3280   22.6220   43.7790 C   0  0  0  0  0  0  0  0  0  0  0  0
   55.8960   22.9040   43.3320 C   0  0  0  0  0  0  0  0  0  0  0  0
   55.3890   24.0170   44.2400 C   0  0  0  0  0  0  0  0  0  0  0  0
   58.8840   34.5290   44.8640 C   0  0  0  0  0  0  0  0  0  0  0  0
   59.4520   35.0750   45.9570 N   0  0  0  0  0  0  0  0  0  0  0  0
   58.9285   34.0682   49.0436 H   0  0  0  0  0  0  0  0  0  0  0  0
   60.6442   34.1042   48.5127 H   0  0  0  0  0  0  0  0  0  0  0  0
   59.6721   35.6148   48.5127 H   0  0  0  0  0  0  0  0  0  0  0  0
   58.1565   32.3698   47.2045 H   0  0  0  0  0  0  0  0  0  0  0  0
   56.7967   33.0165   43.7235 H   0  0  0  0  0  0  0  0  0  0  0  0
   58.1783   31.8567   43.6921 H   0  0  0  0  0  0  0  0  0  0  0  0
   57.4662   27.8792   44.1630 H   0  0  0  0  0  0  0  0  0  0  0  0
   58.5924   29.2486   43.7622 H   0  0  0  0  0  0  0  0  0  0  0  0
   59.4452   28.7451   45.8155 H   0  0  0  0  0  0  0  0  0  0  0  0
   58.0720   29.8256   46.3423 H   0  0  0  0  0  0  0  0  0  0  0  0
   58.3864   27.6291   47.6332 H   0  0  0  0  0  0  0  0  0  0  0  0
   56.7371   28.0090   46.9973 H   0  0  0  0  0  0  0  0  0  0  0  0
   58.6700   26.1140   45.6540 H   0  0  0  0  0  0  0  0  0  0  0  0
   58.4474   24.4764   43.8659 H   0  0  0  0  0  0  0  0  0  0  0  0
   58.3652   23.6294   45.4159 H   0  0  0  0  0  0  0  0  0  0  0  0
   57.9703   22.4293   42.9070 H   0  0  0  0  0  0  0  0  0  0  0  0
   57.3823   21.7332   44.4249 H   0  0  0  0  0  0  0  0  0  0  0  0
   55.8798   23.2296   42.2814 H   0  0  0  0  0  0  0  0  0  0  0  0
   55.2656   22.0053   43.4026 H   0  0  0  0  0  0  0  0  0  0  0  0
   54.8331   24.7658   43.6567 H   0  0  0  0  0  0  0  0  0  0  0  0
   54.7015   23.6350   45.0090 H   0  0  0  0  0  0  0  0  0  0  0  0
   58.8967   34.9633   43.8535 H   0  0  0  0  0  0  0  0  0  0  0  0
  1  2  1  0
  2  3  1  0
  3  4  2  0
  4  5  1  0
  5  6  1  0
  6  7  1  0
  7  8  2  0
  7  9  2  0
  7 10  1  0
 10 11  1  0
 11 12  1  0
 12 13  1  0
 13 14  1  0
 14 15  2  0
 14 16  1  0
 16 17  1  0
 17 18  1  0
 18 19  1  0
 19 20  1  0
  4 21  1  0
 21 22  2  0
 22  2  1  0
 20 16  1  0
  1 23  1  0
  1 24  1  0
  1 25  1  0
  3 26  1  0
  5 27  1  0
  5 28  1  0
 10 29  1  0
 10 30  1  0
 11 31  1  0
 11 32  1  0
 12 33  1  0
 12 34  1  0
 13 35  1  0
 17 36  1  0
 17 37  1  0
 18 38  1  0
 18 39  1  0
 19 40  1  0
 19 41  1  0
 20 42  1  0
 20 43  1  0
 21 44  1  0
M  CHG  1   6  -1
M  END
>  <UniqueID>  (7) 
7

>  <SMILES>  (7) 
Cn1cc(C[N-]S(=O)(=O)CCCNC(=O)N2CCCC2)cn1

>  <Energy>  (7) 
59.15140636630386

>  <Genealogy>  (7) 
Cn1cc(C[N-]S(=O)(=O)CCCNC(=O)N2CCCC2)cn1 (protonated)
Cn1cc(C[N-]S(=O)(=O)CCCNC(=O)N2CCCC2)cn1 (3D coordinates assigned)
Cn1cc(C[N-]S(=O)(=O)CCCNC(=O)N2CCCC2)cn1 (nonaromatic ring conformer: 59.15140636630386 kcal/mol)

>  <smiles>  (7) 
Cn1cc(CNS(=O)(=O)CCCNC(=O)N2CCCC2)cn1

>  <score_type>  (7) 
oracle

>  <origin>  (7) 
adg

>  <m_score__min__energy>  (7) 
-9.3300000000000001

>  <m_primary>  (7) 
energy

$$$$
7:0
     RDKit          3D

 39 41  0  0  0  0  0  0  0  0999 V2000
   56.4430   29.9030   42.5000 N   0  0  0  0  0  0  0  0  0  0  0  0
   56.4100   30.0700   44.2200 S   0  0  0  0  0  0  0  0  0  0  0  0
   55.2130   29.3420   44.7670 O   0  0  0  0  0  0  0  0  0  0  0  0
   56.2860   31.5230   44.5830 O   0  0  0  0  0  0  0  0  0  0  0  0
   57.8880   29.3900   44.9170 C   0  0  0  0  0  0  0  0  0  0  0  0
   58.0400   27.9960   44.9530 C   0  0  0  0  0  0  0  0  0  0  0  0
   59.1680   27.4200   45.5430 C   0  0  0  0  0  0  0  0  0  0  0  0
   60.1540   28.2310   46.1050 C   0  0  0  0  0  0  0  0  0  0  0  0
   60.0220   29.6200   46.0660 C   0  0  0  0  0  0  0  0  0  0  0  0
   58.9060   30.2100   45.4590 C   0  0  0  0  0  0  0  0  0  0  0  0
   58.8220   31.6390   45.4090 N   0  0  0  0  0  0  0  0  0  0  0  0
   59.4440   32.5000   46.3810 C   0  0  0  0  0  0  0  0  0  0  0  0
   58.6570   33.0920   47.3800 C   0  0  0  0  0  0  0  0  0  0  0  0
   59.2390   33.9240   48.3390 C   0  0  0  0  0  0  0  0  0  0  0  0
   60.6130   34.1730   48.3120 C   0  0  0  0  0  0  0  0  0  0  0  0
   61.4150   33.5950   47.3180 C   0  0  0  0  0  0  0  0  0  0  0  0
   62.9000   33.8270   47.3090 C   0  0  0  0  0  0  0  0  0  0  0  0
   63.5180   33.1230   48.4260 N   0  0  0  0  0  0  0  0  0  0  0  0
   63.0380   32.0200   49.0290 C   0  0  0  0  0  0  0  0  0  0  0  0
   63.9460   31.6220   49.9870 C   0  0  0  0  0  0  0  0  0  0  0  0
   64.9750   32.5410   49.9000 C   0  0  0  0  0  0  0  0  0  0  0  0
   64.6960   33.4420   48.9370 N   0  0  0  0  0  0  0  0  0  0  0  0
   60.8300   32.7430   46.3670 C   0  0  0  0  0  0  0  0  0  0  0  0
   57.3700   29.4950   42.2490 H   0  0  0  0  0  0  0  0  0  0  0  0
   55.7200   29.1940   42.2460 H   0  0  0  0  0  0  0  0  0  0  0  0
   57.2649   27.3511   44.5132 H   0  0  0  0  0  0  0  0  0  0  0  0
   59.2786   26.3258   45.5643 H   0  0  0  0  0  0  0  0  0  0  0  0
   61.0360   27.7757   46.5791 H   0  0  0  0  0  0  0  0  0  0  0  0
   60.7995   30.2555   46.5149 H   0  0  0  0  0  0  0  0  0  0  0  0
   58.1920   32.0630   44.6910 H   0  0  0  0  0  0  0  0  0  0  0  0
   57.5743   32.8997   47.4082 H   0  0  0  0  0  0  0  0  0  0  0  0
   58.6134   34.3845   49.1178 H   0  0  0  0  0  0  0  0  0  0  0  0
   61.0672   34.8246   49.0730 H   0  0  0  0  0  0  0  0  0  0  0  0
   63.3219   33.4539   46.3641 H   0  0  0  0  0  0  0  0  0  0  0  0
   63.0992   34.9046   47.4047 H   0  0  0  0  0  0  0  0  0  0  0  0
   62.0851   31.5216   48.7974 H   0  0  0  0  0  0  0  0  0  0  0  0
   63.8687   30.7630   50.6697 H   0  0  0  0  0  0  0  0  0  0  0  0
   65.8826   32.5375   50.5215 H   0  0  0  0  0  0  0  0  0  0  0  0
   61.4605   32.2617   45.6049 H   0  0  0  0  0  0  0  0  0  0  0  0
  1  2  1  0
  2  3  2  0
  2  4  2  0
  2  5  1  0
  5  6  2  0
  6  7  1  0
  7  8  2  0
  8  9  1  0
  9 10  2  0
 10 11  1  0
 11 12  1  0
 12 13  2  0
 13 14  1  0
 14 15  2  0
 15 16  1  0
 16 17  1  0
 17 18  1  0
 18 19  1  0
 19 20  2  0
 20 21  1  0
 21 22  2  0
 16 23  2  0
 10  5  1  0
 23 12  1  0
 22 18  1  0
  1 24  1  0
  1 25  1  0
  6 26  1  0
  7 27  1  0
  8 28  1  0
  9 29  1  0
 11 30  1  0
 13 31  1  0
 14 32  1  0
 15 33  1  0
 17 34  1  0
 17 35  1  0
 19 36  1  0
 20 37  1  0
 21 38  1  0
 23 39  1  0
M  END
>  <UniqueID>  (8) 
8

>  <SMILES>  (8) 
NS(=O)(=O)c1ccccc1Nc1cccc(Cn2cccn2)c1

>  <Energy>  (8) 
74.89904792378513

>  <Genealogy>  (8) 
NS(=O)(=O)c1ccccc1Nc1cccc(Cn2cccn2)c1 (3D coordinates assigned)
NS(=O)(=O)c1ccccc1Nc1cccc(Cn2cccn2)c1 (optimized conformer: 74.89904792378513 kcal/mol)

>  <smiles>  (8) 
NS(=O)(=O)c1ccccc1Nc1cccc(Cn2cccn2)c1

>  <score_type>  (8) 
oracle

>  <origin>  (8) 
adg

>  <m_score__min__energy>  (8) 
-9.0099999999999998

>  <m_primary>  (8) 
energy

$$$$
8:0
     RDKit          3D

 42 44  0  0  0  0  0  0  0  0999 V2000
   59.7380   27.5330   48.5400 O   0  0  0  0  0  0  0  0  0  0  0  0
   59.5060   28.2410   47.2360 S   0  0  0  0  0  0  0  0  0  0  0  0
   60.4970   27.7650   46.2100 O   0  0  0  0  0  0  0  0  0  0  0  0
   57.8950   27.9290   46.6650 N   0  0  0  0  0  0  0  0  0  0  0  0
   57.5870   27.1250   45.6900 C   0  0  0  0  0  0  0  0  0  0  0  0
   57.6420   27.6390   44.2830 C   0  0  0  0  0  0  0  0  0  0  0  0
   57.5320   29.1420   44.2780 C   0  0  0  0  0  0  0  0  0  0  0  0
   58.6940   29.9220   44.1470 C   0  0  0  0  0  0  0  0  0  0  0  0
   58.6170   31.3170   44.1860 C   0  0  0  0  0  0  0  0  0  0  0  0
   57.3800   31.9480   44.3660 C   0  0  0  0  0  0  0  0  0  0  0  0
   57.2930   33.3380   44.4070 O   0  0  0  0  0  0  0  0  0  0  0  0
   56.2220   31.1790   44.5080 C   0  0  0  0  0  0  0  0  0  0  0  0
   56.2920   29.7820   44.4700 C   0  0  0  0  0  0  0  0  0  0  0  0
   55.1250   29.0400   44.6290 O   0  0  0  0  0  0  0  0  0  0  0  0
   57.0960   25.7530   45.9320 C   0  0  0  0  0  0  0  0  0  0  0  0
   58.0100   24.6950   46.0450 C   0  0  0  0  0  0  0  0  0  0  0  0
   57.5560   23.3960   46.2960 C   0  0  0  0  0  0  0  0  0  0  0  0
   56.1890   23.1500   46.4410 C   0  0  0  0  0  0  0  0  0  0  0  0
   55.7380   21.8590   46.6890 O   0  0  0  0  0  0  0  0  0  0  0  0
   55.2720   24.2020   46.3370 C   0  0  0  0  0  0  0  0  0  0  0  0
   55.7220   25.5030   46.0870 C   0  0  0  0  0  0  0  0  0  0  0  0
   54.8000   26.5400   45.9890 O   0  0  0  0  0  0  0  0  0  0  0  0
   59.7040   29.9720   47.4790 C   0  0  0  0  0  0  0  0  0  0  0  0
   60.7010   30.6740   46.7840 C   0  0  0  0  0  0  0  0  0  0  0  0
   60.8620   32.0480   46.9870 C   0  0  0  0  0  0  0  0  0  0  0  0
   60.0330   32.7260   47.8860 C   0  0  0  0  0  0  0  0  0  0  0  0
   59.0430   32.0290   48.5850 C   0  0  0  0  0  0  0  0  0  0  0  0
   58.8800   30.6540   48.3850 C   0  0  0  0  0  0  0  0  0  0  0  0
   58.5965   27.3422   43.8239 H   0  0  0  0  0  0  0  0  0  0  0  0
   56.8043   27.2140   43.7106 H   0  0  0  0  0  0  0  0  0  0  0  0
   59.6695   29.4317   44.0130 H   0  0  0  0  0  0  0  0  0  0  0  0
   59.5300   31.9204   44.0751 H   0  0  0  0  0  0  0  0  0  0  0  0
   56.6700   33.8480   43.7910 H   0  0  0  0  0  0  0  0  0  0  0  0
   55.2503   31.6744   44.6504 H   0  0  0  0  0  0  0  0  0  0  0  0
   59.0875   24.8875   45.9358 H   0  0  0  0  0  0  0  0  0  0  0  0
   58.2757   22.5683   46.3792 H   0  0  0  0  0  0  0  0  0  0  0  0
   54.1958   24.0058   46.4520 H   0  0  0  0  0  0  0  0  0  0  0  0
   61.3567   30.1425   46.0786 H   0  0  0  0  0  0  0  0  0  0  0  0
   61.6421   32.5964   46.4386 H   0  0  0  0  0  0  0  0  0  0  0  0
   60.1597   33.8073   48.0432 H   0  0  0  0  0  0  0  0  0  0  0  0
   58.3915   32.5623   49.2930 H   0  0  0  0  0  0  0  0  0  0  0  0
   58.1036   30.1069   48.9399 H   0  0  0  0  0  0  0  0  0  0  0  0
  1  2  2  0
  2  3  2  0
  2  4  1  0
  4  5  2  3
  5  6  1  0
  6  7  1  0
  7  8  2  0
  8  9  1  0
  9 10  2  0
 10 11  1  0
 10 12  1  0
 12 13  2  0
 13 14  1  0
  5 15  1  0
 15 16  2  0
 16 17  1  0
 17 18  2  0
 18 19  1  0
 18 20  1  0
 20 21  2  0
 21 22  1  0
  2 23  1  0
 23 24  2  0
 24 25  1  0
 25 26  2  0
 26 27  1  0
 27 28  2  0
 13  7  1  0
 21 15  1  0
 28 23  1  0
  6 29  1  0
  6 30  1  0
  8 31  1  0
  9 32  1  0
 11 33  1  0
 12 34  1  0
 16 35  1  0
 17 36  1  0
 20 37  1  0
 24 38  1  0
 25 39  1  0
 26 40  1  0
 27 41  1  0
 28 42  1  0
M  CHG  3  14  -1  19  -1  22  -1
M  END
>  <UniqueID>  (9) 
9

>  <SMILES>  (9) 
O=S(=O)(N=C(Cc1ccc(O)cc1[O-])c1ccc([O-])cc1[O-])c1ccccc1

>  <Energy>  (9) 
53.64053283559858

>  <Genealogy>  (9) 
O=S(=O)(N=C(Cc1ccc(O)cc1[O-])c1ccc([O-])cc1[O-])c1ccccc1 (protonated)
O=S(=O)(N=C(Cc1ccc(O)cc1[O-])c1ccc([O-])cc1[O-])c1ccccc1 (3D coordinates assigned)
O=S(=O)(N=C(Cc1ccc(O)cc1[O-])c1ccc([O-])cc1[O-])c1ccccc1 (optimized conformer: 53.64053283559858 kcal/mol)

>  <smiles>  (9) 
O=S(=O)(N=C(Cc1ccc(O)cc1O)c1ccc(O)cc1O)c1ccccc1

>  <score_type>  (9) 
oracle

>  <origin>  (9) 
adg

>  <m_score__min__energy>  (9) 
-15.800000000000001

>  <m_primary>  (9) 
energy

$$$$
9:0
     RDKit          3D

 48 51  0  0  0  0  0  0  0  0999 V2000
   59.1800   27.9260   47.2500 C   0  0  0  0  0  0  0  0  0  0  0  0
   58.7990   28.5020   46.0990 C   0  0  0  0  0  0  0  0  0  0  0  0
   58.0120   27.9320   45.0850 C   0  0  0  0  0  0  0  0  0  0  0  0
   57.6250   26.6590   44.8760 C   0  0  0  0  0  0  0  0  0  0  0  0
   57.1320   25.7320   45.9070 C   0  0  0  0  0  0  0  0  0  0  0  0
   57.8800   24.7910   46.5130 N   0  0  0  0  0  0  0  0  0  0  0  0
   56.9810   24.1100   47.2570 C   0  0  0  0  0  0  0  0  0  0  0  0
   57.3050   23.1430   47.9940 O   0  0  0  0  0  0  0  0  0  0  0  0
   55.7070   24.5420   47.1420 N   0  0  0  0  0  0  0  0  0  0  0  0
   55.8190   25.5600   46.2710 C   0  0  0  0  0  0  0  0  0  0  0  0
   54.7460   26.3160   45.8160 O   0  0  0  0  0  0  0  0  0  0  0  0
   57.6700   28.9690   44.2320 C   0  0  0  0  0  0  0  0  0  0  0  0
   58.3090   30.0990   44.6970 C   0  0  0  0  0  0  0  0  0  0  0  0
   58.2240   31.4510   44.0560 C   0  0  0  0  0  0  0  0  0  0  0  0
   58.9910   29.8190   45.8300 N   0  0  0  0  0  0  0  0  0  0  0  0
   59.7410   30.7610   46.6160 C   0  0  0  0  0  0  0  0  0  0  0  0
   61.1270   30.6090   46.7540 C   0  0  0  0  0  0  0  0  0  0  0  0
   61.8650   31.5230   47.5100 C   0  0  0  0  0  0  0  0  0  0  0  0
   61.2230   32.5940   48.1510 C   0  0  0  0  0  0  0  0  0  0  0  0
   62.0120   33.5670   48.9310 C   0  0  0  0  0  0  0  0  0  0  0  0
   61.6200   34.7650   48.9850 O   0  0  0  0  0  0  0  0  0  0  0  0
   63.2150   33.1820   49.6220 N   0  0  0  0  0  0  0  0  0  0  0  0
   63.8260   34.0090   50.6490 C   0  0  0  0  0  0  0  0  0  0  0  0
   65.2420   33.4770   50.8240 C   0  0  0  0  0  0  0  0  0  0  0  0
   65.2630   32.1070   50.1520 C   0  0  0  0  0  0  0  0  0  0  0  0
   64.0790   32.0920   49.1970 C   0  0  0  0  0  0  0  0  0  0  0  0
   59.8360   32.7550   47.9990 C   0  0  0  0  0  0  0  0  0  0  0  0
   59.0980   31.8400   47.2420 C   0  0  0  0  0  0  0  0  0  0  0  0
   57.7540   31.9960   47.1310 F   0  0  0  0  0  0  0  0  0  0  0  0
   59.8010   28.4849   47.9655 H   0  0  0  0  0  0  0  0  0  0  0  0
   58.8712   26.8951   47.4777 H   0  0  0  0  0  0  0  0  0  0  0  0
   57.6824   26.2793   43.8452 H   0  0  0  0  0  0  0  0  0  0  0  0
   54.3840   27.0840   46.3690 H   0  0  0  0  0  0  0  0  0  0  0  0
   57.0138   28.9033   43.3516 H   0  0  0  0  0  0  0  0  0  0  0  0
   58.1754   32.2245   44.8366 H   0  0  0  0  0  0  0  0  0  0  0  0
   59.1135   31.6168   43.4304 H   0  0  0  0  0  0  0  0  0  0  0  0
   57.3207   31.5041   43.4304 H   0  0  0  0  0  0  0  0  0  0  0  0
   61.6365   29.7658   46.2647 H   0  0  0  0  0  0  0  0  0  0  0  0
   62.9544   31.4028   47.6034 H   0  0  0  0  0  0  0  0  0  0  0  0
   63.8492   35.0613   50.3295 H   0  0  0  0  0  0  0  0  0  0  0  0
   63.2595   33.9682   51.5910 H   0  0  0  0  0  0  0  0  0  0  0  0
   65.9656   34.1505   50.3415 H   0  0  0  0  0  0  0  0  0  0  0  0
   65.5182   33.4087   51.8866 H   0  0  0  0  0  0  0  0  0  0  0  0
   66.2030   31.9671   49.5981 H   0  0  0  0  0  0  0  0  0  0  0  0
   65.1963   31.2943   50.8903 H   0  0  0  0  0  0  0  0  0  0  0  0
   64.4184   32.2528   48.1631 H   0  0  0  0  0  0  0  0  0  0  0  0
   63.5532   31.1260   49.2182 H   0  0  0  0  0  0  0  0  0  0  0  0
   59.3279   33.6050   48.4778 H   0  0  0  0  0  0  0  0  0  0  0  0
  1  2  2  0
  2  3  1  0
  3  4  2  3
  4  5  1  0
  5  6  1  0
  6  7  1  0
  7  8  2  0
  7  9  1  0
  9 10  1  0
 10 11  1  0
  3 12  1  0
 12 13  2  0
 13 14  1  0
 13 15  1  0
 15 16  1  0
 16 17  2  0
 17 18  1  0
 18 19  2  0
 19 20  1  0
 20 21  2  0
 20 22  1  0
 22 23  1  0
 23 24  1  0
 24 25  1  0
 25 26  1  0
 19 27  1  0
 27 28  2  0
 28 29  1  0
 15  2  1  0
 28 16  1  0
 10  5  2  0
 26 22  1  0
  1 30  1  0
  1 31  1  0
  4 32  1  0
 11 33  1  0
 12 34  1  0
 14 35  1  0
 14 36  1  0
 14 37  1  0
 17 38  1  0
 18 39  1  0
 23 40  1  0
 23 41  1  0
 24 42  1  0
 24 43  1  0
 25 44  1  0
 25 45  1  0
 26 46  1  0
 26 47  1  0
 27 48  1  0
M  CHG  2   6  -1   9  -1
M  END
>  <UniqueID>  (10) 
10

>  <SMILES>  (10) 
C=c1c(=Cc2[n-]c(=O)[n-]c2O)cc(C)n1-c1ccc(C(=O)N2CCCC2)cc1F

>  <Energy>  (10) 
129.70607075899275

>  <Genealogy>  (10) 
C=c1c(=Cc2[n-]c(=O)[n-]c2O)cc(C)n1-c1ccc(C(=O)N2CCCC2)cc1F (protonated)
C=c1c(=Cc2[n-]c(=O)[n-]c2O)cc(C)n1-c1ccc(C(=O)N2CCCC2)cc1F (3D coordinates assigned)
C=c1c(=Cc2[n-]c(=O)[n-]c2O)cc(C)n1-c1ccc(C(=O)N2CCCC2)cc1F (nonaromatic ring conformer: 129.70607075899275 kcal/mol)

>  <smiles>  (10) 
C=c1c(=Cc2[nH]c(=O)[nH]c2O)cc(C)n1-c1ccc(C(=O)N2CCCC2)cc1F

>  <score_type>  (10) 
oracle

>  <origin>  (10) 
adg

>  <m_score__min__energy>  (10) 
-13.02

>  <m_primary>  (10) 
energy

$$$$
10:0
     RDKit          3D

 48 51  0  0  0  0  0  0  0  0999 V2000
   57.2398   21.5942   42.2067 H   0  0  0  0  0  0  0  0  0  0  0  0
   56.9630   22.2200   43.0680 C   0  0  0  0  0  0  0  0  0  0  0  0
   57.7820   22.2520   44.2010 C   0  0  0  0  0  0  0  0  0  0  0  0
   58.7008   21.6480   44.2327 H   0  0  0  0  0  0  0  0  0  0  0  0
   57.4330   23.0520   45.2940 C   0  0  0  0  0  0  0  0  0  0  0  0
   58.0758   23.0696   46.1865 H   0  0  0  0  0  0  0  0  0  0  0  0
   56.2660   23.8330   45.2580 C   0  0  0  0  0  0  0  0  0  0  0  0
   55.8890   24.6850   46.4410 C   0  0  0  0  0  0  0  0  0  0  0  0
   56.7438   24.7410   47.1311 H   0  0  0  0  0  0  0  0  0  0  0  0
   55.0209   24.2287   46.9393 H   0  0  0  0  0  0  0  0  0  0  0  0
   55.5260   26.0380   46.0180 N   0  0  0  0  0  0  0  0  0  0  0  0
   56.3040   27.0820   45.9800 C   0  0  0  0  0  0  0  0  0  0  0  0
   55.9020   28.1660   45.2680 N   0  0  0  0  0  0  0  0  0  0  0  0
   56.6710   29.2820   45.2010 C   0  0  0  0  0  0  0  0  0  0  0  0
   56.2990   30.3300   44.5230 N   0  0  0  0  0  0  0  0  0  0  0  0
   56.9770   31.5890   44.3510 C   0  0  0  0  0  0  0  0  0  0  0  0
   56.8560   32.4590   45.2530 O   0  0  0  0  0  0  0  0  0  0  0  0
   57.8180   31.9140   43.1520 C   0  0  0  0  0  0  0  0  0  0  0  0
   58.7967   32.2922   43.4822 H   0  0  0  0  0  0  0  0  0  0  0  0
   57.9607   31.0063   42.5473 H   0  0  0  0  0  0  0  0  0  0  0  0
   57.3132   32.6818   42.5473 H   0  0  0  0  0  0  0  0  0  0  0  0
   57.8570   29.3090   45.8540 N   0  0  0  0  0  0  0  0  0  0  0  0
   58.2800   28.2340   46.5710 C   0  0  0  0  0  0  0  0  0  0  0  0
   59.4190   28.2610   47.2000 N   0  0  0  0  0  0  0  0  0  0  0  0
   60.0060   29.4550   47.8120 C   0  0  0  0  0  0  0  0  0  0  0  0
   60.7226   29.1043   48.5693 H   0  0  0  0  0  0  0  0  0  0  0  0
   58.9040   30.3290   48.4500 C   0  0  0  0  0  0  0  0  0  0  0  0
   57.9052   29.9848   48.1434 H   0  0  0  0  0  0  0  0  0  0  0  0
   58.9145   30.2890   49.5492 H   0  0  0  0  0  0  0  0  0  0  0  0
   59.1770   31.6860   47.9260 C   0  0  0  0  0  0  0  0  0  0  0  0
   58.5150   32.8650   48.2750 C   0  0  0  0  0  0  0  0  0  0  0  0
   57.7064   32.8540   49.0207 H   0  0  0  0  0  0  0  0  0  0  0  0
   58.9010   34.0650   47.6560 C   0  0  0  0  0  0  0  0  0  0  0  0
   58.3948   35.0057   47.9183 H   0  0  0  0  0  0  0  0  0  0  0  0
   59.9340   34.0660   46.7010 C   0  0  0  0  0  0  0  0  0  0  0  0
   60.2344   35.0080   46.2188 H   0  0  0  0  0  0  0  0  0  0  0  0
   60.5820   32.8690   46.3620 C   0  0  0  0  0  0  0  0  0  0  0  0
   61.3878   32.8604   45.6133 H   0  0  0  0  0  0  0  0  0  0  0  0
   60.1840   31.6870   46.9940 C   0  0  0  0  0  0  0  0  0  0  0  0
   60.7290   30.3310   46.7610 C   0  0  0  0  0  0  0  0  0  0  0  0
   60.5011   29.9873   45.7412 H   0  0  0  0  0  0  0  0  0  0  0  0
   61.8242   30.2913   46.8560 H   0  0  0  0  0  0  0  0  0  0  0  0
   57.5050   27.1180   46.6310 N   0  0  0  0  0  0  0  0  0  0  0  0
   57.8520   26.3000   47.1790 H   0  0  0  0  0  0  0  0  0  0  0  0
   55.4410   23.7840   44.1200 C   0  0  0  0  0  0  0  0  0  0  0  0
   54.5157   24.3780   44.0877 H   0  0  0  0  0  0  0  0  0  0  0  0
   55.7930   22.9830   43.0300 C   0  0  0  0  0  0  0  0  0  0  0  0
   55.1473   22.9532   42.1399 H   0  0  0  0  0  0  0  0  0  0  0  0
  1  2  1  0
  2  3  2  0
  3  4  1  0
  3  5  1  0
  5  6  1  0
  5  7  2  0
  7  8  1  0
  8  9  1  0
  8 10  1  0
  8 11  1  0
 11 12  2  0
 12 13  1  0
 13 14  1  0
 14 15  2  3
 15 16  1  0
 16 17  2  0
 16 18  1  0
 18 19  1  0
 18 20  1  0
 18 21  1  0
 14 22  1  0
 22 23  1  0
 23 24  2  0
 24 25  1  0
 25 26  1  0
 25 27  1  0
 27 28  1  0
 27 29  1  0
 27 30  1  0
 30 31  2  0
 31 32  1  0
 31 33  1  0
 33 34  1  0
 33 35  2  0
 35 36  1  0
 35 37  1  0
 37 38  1  0
 37 39  2  0
 39 40  1  0
 40 41  1  0
 40 42  1  0
 23 43  1  0
 43 44  1  0
  7 45  1  0
 45 46  1  0
 45 47  2  0
 47 48  1  0
 47  2  1  0
 43 12  1  0
 40 25  1  0
 39 30  1  0
M  CHG  2  13  -1  22  -1
M  END
>  <UniqueID>  (11) 
11

>  <SMILES>  (11) 
CC(=O)N=c1[n-]/c(=N/Cc2ccccc2)[nH]/c(=N/C2Cc3ccccc3C2)[n-]1

>  <Energy>  (11) 
63.72058021675855

>  <Genealogy>  (11) 
CC(=O)N=c1[n-]c(=NCc2ccccc2)[nH]c(=NC2Cc3ccccc3C2)[n-]1 (protonated)
CC(=O)N=c1[n-]/c(=N/Cc2ccccc2)[nH]/c(=N/C2Cc3ccccc3C2)[n-]1 (cis-trans isomerization)
CC(=O)N=c1[n-]/c(=N/Cc2ccccc2)[nH]/c(=N/C2Cc3ccccc3C2)[n-]1 (3D coordinates assigned)
CC(=O)N=c1[n-]/c(=N/Cc2ccccc2)[nH]/c(=N/C2Cc3ccccc3C2)[n-]1 (nonaromatic ring conformer: 63.72058021675855 kcal/mol)

>  <smiles>  (11) 
CC(=O)N=c1[nH]c(=NCc2ccccc2)[nH]c(=NC2Cc3ccccc3C2)[nH]1

>  <score_type>  (11) 
oracle

>  <origin>  (11) 
adg

>  <m_score__min__energy>  (11) 
-12.449999999999999

>  <m_primary>  (11) 
energy

$$$$
11:0
     RDKit          3D

 66 69  0  0  0  0  0  0  0  0999 V2000
   62.0677   33.8893   45.4140 H   0  0  0  0  0  0  0  0  0  0  0  0
   61.3150   33.8460   46.2150 C   0  0  0  0  0  0  0  0  0  0  0  0
   59.9920   33.8770   45.9050 N   0  0  0  0  0  0  0  0  0  0  0  0
   59.0180   33.8270   46.8530 C   0  0  0  0  0  0  0  0  0  0  0  0
   57.7740   33.8730   46.4650 N   0  0  0  0  0  0  0  0  0  0  0  0
   57.2660   33.6780   45.1380 C   0  0  0  0  0  0  0  0  0  0  0  0
   56.7460   34.6540   44.5350 O   0  0  0  0  0  0  0  0  0  0  0  0
   57.5520   32.4010   44.3860 C   0  0  0  0  0  0  0  0  0  0  0  0
   56.8544   32.3220   43.5392 H   0  0  0  0  0  0  0  0  0  0  0  0
   58.5942   32.4350   44.0359 H   0  0  0  0  0  0  0  0  0  0  0  0
   57.3940   31.2110   45.2500 N   0  0  0  0  0  0  0  0  0  0  0  0
   58.5790   30.9800   46.1160 C   0  0  0  0  0  0  0  0  0  0  0  0
   59.1164   31.9316   46.2412 H   0  0  0  0  0  0  0  0  0  0  0  0
   58.2201   30.5911   47.0803 H   0  0  0  0  0  0  0  0  0  0  0  0
   59.5450   29.9410   45.5200 C   0  0  0  0  0  0  0  0  0  0  0  0
   59.9338   30.3269   44.5661 H   0  0  0  0  0  0  0  0  0  0  0  0
   60.3526   29.7779   46.2489 H   0  0  0  0  0  0  0  0  0  0  0  0
   58.8900   28.6350   45.2730 N   0  0  0  0  0  0  0  0  0  0  0  0
   59.3150   27.4570   46.4930 S   0  0  0  0  0  0  0  0  0  0  0  0
   60.5590   26.7290   46.0670 O   0  0  0  0  0  0  0  0  0  0  0  0
   58.2070   26.4480   46.6230 O   0  0  0  0  0  0  0  0  0  0  0  0
   59.5950   28.2180   48.0620 C   0  0  0  0  0  0  0  0  0  0  0  0
   60.7160   27.8670   48.8280 C   0  0  0  0  0  0  0  0  0  0  0  0
   61.4135   27.1003   48.4595 H   0  0  0  0  0  0  0  0  0  0  0  0
   60.9500   28.4880   50.0580 C   0  0  0  0  0  0  0  0  0  0  0  0
   61.8304   28.2074   50.6548 H   0  0  0  0  0  0  0  0  0  0  0  0
   60.0670   29.4670   50.5340 C   0  0  0  0  0  0  0  0  0  0  0  0
   60.3580   30.2440   52.0870 S   0  0  0  0  0  0  0  0  0  0  0  0
   59.1380   30.1130   52.9550 O   0  0  0  0  0  0  0  0  0  0  0  0
   60.6470   31.7050   51.8800 O   0  0  0  0  0  0  0  0  0  0  0  0
   61.7050   29.4960   52.8700 N   0  0  0  0  0  0  0  0  0  0  0  0
   62.4640   29.4130   52.1570 H   0  0  0  0  0  0  0  0  0  0  0  0
   62.0460   30.1650   53.5970 H   0  0  0  0  0  0  0  0  0  0  0  0
   58.9370   29.8040   49.7780 C   0  0  0  0  0  0  0  0  0  0  0  0
   58.2318   30.5598   50.1541 H   0  0  0  0  0  0  0  0  0  0  0  0
   58.7020   29.1840   48.5480 C   0  0  0  0  0  0  0  0  0  0  0  0
   57.8134   29.4546   47.9588 H   0  0  0  0  0  0  0  0  0  0  0  0
   57.4220   28.7210   45.1270 C   0  0  0  0  0  0  0  0  0  0  0  0
   57.0694   27.8717   44.5234 H   0  0  0  0  0  0  0  0  0  0  0  0
   56.9663   28.6953   46.1278 H   0  0  0  0  0  0  0  0  0  0  0  0
   57.0190   30.0280   44.4380 C   0  0  0  0  0  0  0  0  0  0  0  0
   57.5255   30.0888   43.4634 H   0  0  0  0  0  0  0  0  0  0  0  0
   55.9261   30.0286   44.3133 H   0  0  0  0  0  0  0  0  0  0  0  0
   59.3890   33.7700   48.2100 C   0  0  0  0  0  0  0  0  0  0  0  0
   58.6182   33.7524   48.9946 H   0  0  0  0  0  0  0  0  0  0  0  0
   60.7420   33.7360   48.5530 C   0  0  0  0  0  0  0  0  0  0  0  0
   61.0388   33.6910   49.6112 H   0  0  0  0  0  0  0  0  0  0  0  0
   61.7220   33.7590   47.5530 C   0  0  0  0  0  0  0  0  0  0  0  0
   63.1830   33.7630   47.9110 C   0  0  0  0  0  0  0  0  0  0  0  0
   63.5186   34.8006   48.0551 H   0  0  0  0  0  0  0  0  0  0  0  0
   63.7528   33.2928   47.0960 H   0  0  0  0  0  0  0  0  0  0  0  0
   63.4110   32.9870   49.1790 C   0  0  0  0  0  0  0  0  0  0  0  0
   63.2650   31.5910   49.1910 C   0  0  0  0  0  0  0  0  0  0  0  0
   63.0121   31.0600   48.2615 H   0  0  0  0  0  0  0  0  0  0  0  0
   63.4390   30.8710   50.3770 C   0  0  0  0  0  0  0  0  0  0  0  0
   63.3277   29.7766   50.3748 H   0  0  0  0  0  0  0  0  0  0  0  0
   63.7560   31.5410   51.5740 C   0  0  0  0  0  0  0  0  0  0  0  0
   63.9420   30.8660   52.7890 O   0  0  0  0  0  0  0  0  0  0  0  0
   64.3870   31.4820   53.9930 C   0  0  0  0  0  0  0  0  0  0  0  0
   63.9880   30.9297   54.8566 H   0  0  0  0  0  0  0  0  0  0  0  0
   65.4864   31.4702   54.0263 H   0  0  0  0  0  0  0  0  0  0  0  0
   64.0303   32.5220   54.0263 H   0  0  0  0  0  0  0  0  0  0  0  0
   63.8920   32.9350   51.5600 C   0  0  0  0  0  0  0  0  0  0  0  0
   64.1404   33.4677   52.4898 H   0  0  0  0  0  0  0  0  0  0  0  0
   63.7150   33.6550   50.3760 C   0  0  0  0  0  0  0  0  0  0  0  0
   63.8143   34.7505   50.3815 H   0  0  0  0  0  0  0  0  0  0  0  0
  1  2  1  0
  2  3  1  0
  3  4  1  0
  4  5  2  0
  5  6  1  0
  6  7  2  0
  6  8  1  0
  8  9  1  0
  8 10  1  0
  8 11  1  0
 11 12  1  0
 12 13  1  0
 12 14  1  0
 12 15  1  0
 15 16  1  0
 15 17  1  0
 15 18  1  0
 18 19  1  0
 19 20  2  0
 19 21  2  0
 19 22  1  0
 22 23  2  0
 23 24  1  0
 23 25  1  0
 25 26  1  0
 25 27  2  0
 27 28  1  0
 28 29  2  0
 28 30  2  0
 28 31  1  0
 31 32  1  0
 31 33  1  0
 27 34  1  0
 34 35  1  0
 34 36  2  0
 36 37  1  0
 18 38  1  0
 38 39  1  0
 38 40  1  0
 38 41  1  0
 41 42  1  0
 41 43  1  0
  4 44  1  0
 44 45  1  0
 44 46  2  0
 46 47  1  0
 46 48  1  0
 48 49  1  0
 49 50  1  0
 49 51  1  0
 49 52  1  0
 52 53  2  0
 53 54  1  0
 53 55  1  0
 55 56  1  0
 55 57  2  0
 57 58  1  0
 58 59  1  0
 59 60  1  0
 59 61  1  0
 59 62  1  0
 57 63  1  0
 63 64  1  0
 63 65  2  0
 65 66  1  0
 48  2  2  0
 65 52  1  0
 41 11  1  0
 36 22  1  0
M  CHG  1   3  -1
M  END
>  <UniqueID>  (12) 
12

>  <SMILES>  (12) 
COc1ccc(Cc2cc/c(=N\C(=O)CN3CCN(S(=O)(=O)c4ccc(S(N)(=O)=O)cc4)CC3)[n-]c2)cc1

>  <Energy>  (12) 
86.83011378978658

>  <Genealogy>  (12) 
COc1ccc(Cc2ccc(=NC(=O)CN3CCN(S(=O)(=O)c4ccc(S(N)(=O)=O)cc4)CC3)[n-]c2)cc1 (protonated)
COc1ccc(Cc2cc/c(=N\C(=O)CN3CCN(S(=O)(=O)c4ccc(S(N)(=O)=O)cc4)CC3)[n-]c2)cc1 (cis-trans isomerization)
COc1ccc(Cc2cc/c(=N\C(=O)CN3CCN(S(=O)(=O)c4ccc(S(N)(=O)=O)cc4)CC3)[n-]c2)cc1 (3D coordinates assigned)
COc1ccc(Cc2cc/c(=N\C(=O)CN3CCN(S(=O)(=O)c4ccc(S(N)(=O)=O)cc4)CC3)[n-]c2)cc1 (nonaromatic ring conformer: 86.83011378978658 kcal/mol)

>  <smiles>  (12) 
COc1ccc(Cc2ccc(=NC(=O)CN3CCN(S(=O)(=O)c4ccc(S(N)(=O)=O)cc4)CC3)[nH]c2)cc1

>  <score_type>  (12) 
oracle

>  <origin>  (12) 
adg

>  <m_score__min__energy>  (12) 
-12.67

>  <m_primary>  (12) 
energy

$$$$
12:0
     RDKit          3D

 49 51  0  0  1  0  0  0  0  0999 V2000
   56.1970   24.5560   44.4250 N   0  0  0  0  0  0  0  0  0  0  0  0
   56.1150   25.5640   45.8380 S   0  0  0  0  0  0  0  0  0  0  0  0
   54.7760   26.2070   45.9680 O   0  0  0  0  0  0  0  0  0  0  0  0
   56.3510   24.6930   47.0510 O   0  0  0  0  0  0  0  0  0  0  0  0
   57.3350   26.7790   45.7530 C   0  0  0  0  0  0  0  0  0  0  0  0
   57.8300   27.3690   46.8990 C   0  0  0  0  0  0  0  0  0  0  0  0
   58.8130   28.3360   46.8570 C   0  0  0  0  0  0  0  0  0  0  0  0
   59.3250   28.7300   45.6150 C   0  0  0  0  0  0  0  0  0  0  0  0
   60.3410   29.7270   45.6000 N   0  0  0  0  0  0  0  0  0  0  0  0
   60.3390   30.6140   46.5120 C   0  0  0  0  0  0  0  0  0  0  0  0
   61.1950   30.6770   47.5290 N   0  0  0  0  0  0  0  0  0  0  0  0
   61.1670   31.6350   48.4790 C   0  0  0  0  0  0  0  0  0  0  0  0
   62.0840   31.6710   49.5360 O   0  0  0  0  0  0  0  0  0  0  0  0
   63.1860   32.5620   49.4260 C   0  0  0  0  0  0  0  0  0  0  0  0
   62.8740   33.5810   48.4170 C   0  0  0  0  0  0  0  0  0  0  0  0
   63.5180   33.5330   47.3140 O   0  0  0  0  0  0  0  0  0  0  0  0
   61.9420   34.5860   48.5630 O   0  0  0  0  0  0  0  0  0  0  0  0
   60.2260   32.5980   48.4210 N   0  0  0  0  0  0  0  0  0  0  0  0
   59.3450   32.5740   47.4150 C   0  0  0  0  0  0  0  0  0  0  0  0
   59.3560   31.6000   46.4260 C   0  0  0  0  0  0  0  0  0  0  0  0
   58.3830   31.5900   45.3120 C   0  0  0  0  0  0  0  0  0  0  0  0
   57.2810   32.5790   45.4750 C   0  0  0  0  0  0  0  0  0  0  0  0
   57.8000   33.8880   46.0510 C   0  0  2  0  0  0  0  0  0  0  0  0
   58.9050   34.4140   45.1540 C   0  0  0  0  0  0  0  0  0  0  0  0
   60.0110   34.8720   46.0000 C   0  0  0  0  0  0  0  0  0  0  0  0
   59.8150   35.9110   46.7030 O   0  0  0  0  0  0  0  0  0  0  0  0
   61.2200   34.1680   46.0090 O   0  0  0  0  0  0  0  0  0  0  0  0
   58.3570   33.5910   47.3670 N   0  0  0  0  0  0  0  0  0  0  0  0
   58.8160   28.1310   44.4910 C   0  0  0  0  0  0  0  0  0  0  0  0
   57.8360   27.1690   44.5360 C   0  0  0  0  0  0  0  0  0  0  0  0
   56.3070   25.1550   43.5760 H   0  0  0  0  0  0  0  0  0  0  0  0
   55.3350   23.9670   44.3930 H   0  0  0  0  0  0  0  0  0  0  0  0
   57.4284   27.0586   47.8749 H   0  0  0  0  0  0  0  0  0  0  0  0
   59.1889   28.7907   47.7854 H   0  0  0  0  0  0  0  0  0  0  0  0
   61.9280   29.9630   47.6080 H   0  0  0  0  0  0  0  0  0  0  0  0
   63.3673   33.0467   50.3966 H   0  0  0  0  0  0  0  0  0  0  0  0
   64.0870   32.0057   49.1280 H   0  0  0  0  0  0  0  0  0  0  0  0
   61.0940   34.5590   48.0210 H   0  0  0  0  0  0  0  0  0  0  0  0
   58.9197   31.8177   44.3792 H   0  0  0  0  0  0  0  0  0  0  0  0
   57.9213   30.5917   45.2954 H   0  0  0  0  0  0  0  0  0  0  0  0
   56.8255   32.7743   44.4930 H   0  0  0  0  0  0  0  0  0  0  0  0
   56.5375   32.1620   46.1703 H   0  0  0  0  0  0  0  0  0  0  0  0
   56.9974   34.6368   46.1221 H   0  0  0  0  0  0  0  0  0  0  0  0
   59.2551   33.6123   44.4871 H   0  0  0  0  0  0  0  0  0  0  0  0
   58.5292   35.2464   44.5409 H   0  0  0  0  0  0  0  0  0  0  0  0
   61.4220   33.5270   46.7610 H   0  0  0  0  0  0  0  0  0  0  0  0
   58.0580   34.0860   48.2370 H   0  0  0  0  0  0  0  0  0  0  0  0
   59.2099   28.4343   43.5098 H   0  0  0  0  0  0  0  0  0  0  0  0
   57.4573   26.7166   43.6076 H   0  0  0  0  0  0  0  0  0  0  0  0
  1  2  1  0
  2  3  2  0
  2  4  2  0
  2  5  1  0
  5  6  2  0
  6  7  1  0
  7  8  2  0
  8  9  1  0
  9 10  2  0
 10 11  1  0
 11 12  1  0
 12 13  1  0
 13 14  1  0
 14 15  1  0
 15 16  2  0
 15 17  1  0
 12 18  2  0
 18 19  1  0
 19 20  2  0
 20 21  1  0
 21 22  1  0
 22 23  1  0
 23 24  1  0
 24 25  1  0
 25 26  2  0
 25 27  1  0
 23 28  1  0
  8 29  1  0
 29 30  2  0
 30  5  1  0
 20 10  1  0
 28 19  1  0
  1 31  1  0
  1 32  1  0
  6 33  1  0
  7 34  1  0
 11 35  1  0
 14 36  1  0
 14 37  1  0
 17 38  1  0
 21 39  1  0
 21 40  1  0
 22 41  1  0
 22 42  1  0
 23 43  1  1
 24 44  1  0
 24 45  1  0
 27 46  1  0
 28 47  1  0
 29 48  1  0
 30 49  1  0
M  END
>  <smiles>  (13) 
NS(=O)(=O)c1ccc(N=c2[nH]c(OCC(=O)O)nc3c2CCC(CC(=O)O)N3)cc1

>  <score_type>  (13) 
oracle

>  <origin>  (13) 
adg

>  <m_score__min__energy>  (13) 
-8.8499999999999996

>  <m_primary>  (13) 
energy

$$$$
13:0
     RDKit          3D

 53 56  0  0  0  0  0  0  0  0999 V2000
   57.9197   29.1443   44.6693 H   0  0  0  0  0  0  0  0  0  0  0  0
   57.7550   28.0570   44.6460 C   0  0  0  0  0  0  0  0  0  0  0  0
   57.1992   27.6027   43.8126 H   0  0  0  0  0  0  0  0  0  0  0  0
   58.2320   27.2850   45.6340 C   0  0  0  0  0  0  0  0  0  0  0  0
   58.1130   25.8910   45.7600 C   0  0  0  0  0  0  0  0  0  0  0  0
   57.3870   24.9970   45.0600 C   0  0  0  0  0  0  0  0  0  0  0  0
   57.8906   24.4820   44.2286 H   0  0  0  0  0  0  0  0  0  0  0  0
   55.9800   24.6500   45.3110 C   0  0  0  0  0  0  0  0  0  0  0  0
   54.9800   25.5240   45.6740 C   0  0  0  0  0  0  0  0  0  0  0  0
   55.1510   26.8650   45.9900 O   0  0  0  0  0  0  0  0  0  0  0  0
   53.7850   24.9010   45.6740 N   0  0  0  0  0  0  0  0  0  0  0  0
   54.1000   23.6490   45.2790 C   0  0  0  0  0  0  0  0  0  0  0  0
   53.2410   22.7400   45.1360 O   0  0  0  0  0  0  0  0  0  0  0  0
   55.4130   23.4620   45.0360 N   0  0  0  0  0  0  0  0  0  0  0  0
   55.8770   22.5990   44.6770 H   0  0  0  0  0  0  0  0  0  0  0  0
   58.9140   25.5280   46.8310 C   0  0  0  0  0  0  0  0  0  0  0  0
   59.0949   24.5066   47.1972 H   0  0  0  0  0  0  0  0  0  0  0  0
   59.4410   26.6920   47.3500 C   0  0  0  0  0  0  0  0  0  0  0  0
   60.3440   26.7640   48.5440 C   0  0  0  0  0  0  0  0  0  0  0  0
   59.7413   26.7159   49.4629 H   0  0  0  0  0  0  0  0  0  0  0  0
   61.0481   25.9191   48.5227 H   0  0  0  0  0  0  0  0  0  0  0  0
   60.9053   27.7098   48.5227 H   0  0  0  0  0  0  0  0  0  0  0  0
   59.0210   27.7580   46.6340 N   0  0  0  0  0  0  0  0  0  0  0  0
   59.4200   29.1200   46.8630 C   0  0  0  0  0  0  0  0  0  0  0  0
   58.5420   30.0150   47.4890 C   0  0  0  0  0  0  0  0  0  0  0  0
   57.5398   29.6781   47.7925 H   0  0  0  0  0  0  0  0  0  0  0  0
   58.9360   31.3350   47.7290 C   0  0  0  0  0  0  0  0  0  0  0  0
   58.2428   32.0298   48.2257 H   0  0  0  0  0  0  0  0  0  0  0  0
   60.2060   31.7790   47.3420 C   0  0  0  0  0  0  0  0  0  0  0  0
   60.5630   33.1060   47.6180 O   0  0  0  0  0  0  0  0  0  0  0  0
   59.8290   34.2330   47.2300 C   0  0  0  0  0  0  0  0  0  0  0  0
   59.3210   35.0040   48.0900 O   0  0  0  0  0  0  0  0  0  0  0  0
   59.6840   34.5500   45.7730 C   0  0  0  0  0  0  0  0  0  0  0  0
   60.1040   35.5484   45.5813 H   0  0  0  0  0  0  0  0  0  0  0  0
   60.2212   33.7812   45.1983 H   0  0  0  0  0  0  0  0  0  0  0  0
   58.2130   34.5360   45.3360 C   0  0  0  0  0  0  0  0  0  0  0  0
   57.5755   34.6005   46.2301 H   0  0  0  0  0  0  0  0  0  0  0  0
   58.0467   35.3945   44.6686 H   0  0  0  0  0  0  0  0  0  0  0  0
   57.8650   33.2790   44.5780 C   0  0  0  0  0  0  0  0  0  0  0  0
   58.3530   33.0790   43.2760 C   0  0  0  0  0  0  0  0  0  0  0  0
   59.0177   33.8266   42.8185 H   0  0  0  0  0  0  0  0  0  0  0  0
   57.9960   31.9320   42.5600 C   0  0  0  0  0  0  0  0  0  0  0  0
   58.3857   31.7763   41.5432 H   0  0  0  0  0  0  0  0  0  0  0  0
   57.1460   30.9840   43.1330 C   0  0  0  0  0  0  0  0  0  0  0  0
   56.8671   30.0828   42.5672 H   0  0  0  0  0  0  0  0  0  0  0  0
   56.6490   31.1790   44.4250 C   0  0  0  0  0  0  0  0  0  0  0  0
   55.9770   30.4329   44.8742 H   0  0  0  0  0  0  0  0  0  0  0  0
   57.0060   32.3220   45.1460 C   0  0  0  0  0  0  0  0  0  0  0  0
   56.6131   32.4734   46.1622 H   0  0  0  0  0  0  0  0  0  0  0  0
   61.0950   30.8720   46.7350 C   0  0  0  0  0  0  0  0  0  0  0  0
   62.1037   31.2035   46.4474 H   0  0  0  0  0  0  0  0  0  0  0  0
   60.7020   29.5520   46.4960 C   0  0  0  0  0  0  0  0  0  0  0  0
   61.4012   28.8499   46.0183 H   0  0  0  0  0  0  0  0  0  0  0  0
  1  2  1  0
  2  3  1  0
  2  4  2  0
  4  5  1  0
  5  6  2  0
  6  7  1  0
  6  8  1  0
  8  9  2  0
  9 10  1  0
  9 11  1  0
 11 12  1  0
 12 13  2  0
 12 14  1  0
 14 15  1  0
  5 16  1  0
 16 17  1  0
 16 18  2  0
 18 19  1  0
 19 20  1  0
 19 21  1  0
 19 22  1  0
 18 23  1  0
 23 24  1  0
 24 25  2  0
 25 26  1  0
 25 27  1  0
 27 28  1  0
 27 29  2  0
 29 30  1  0
 30 31  1  0
 31 32  2  0
 31 33  1  0
 33 34  1  0
 33 35  1  0
 33 36  1  0
 36 37  1  0
 36 38  1  0
 36 39  1  0
 39 40  2  0
 40 41  1  0
 40 42  1  0
 42 43  1  0
 42 44  2  0
 44 45  1  0
 44 46  1  0
 46 47  1  0
 46 48  2  0
 48 49  1  0
 29 50  1  0
 50 51  1  0
 50 52  2  0
 52 53  1  0
 23  4  1  0
 52 24  1  0
 14  8  1  0
 48 39  1  0
M  CHG  2  10  -1  11  -1
M  END
>  <UniqueID>  (14) 
13

>  <SMILES>  (14) 
C=c1/c(=C\c2[nH]c(=O)[n-]c2[O-])cc(C)n1-c1ccc(OC(=O)CCc2ccccc2)cc1

>  <Energy>  (14) 
133.46181311229446

>  <Genealogy>  (14) 
C=c1c(=Cc2[nH]c(=O)[n-]c2[O-])cc(C)n1-c1ccc(OC(=O)CCc2ccccc2)cc1 (protonated)
C=c1/c(=C\c2[nH]c(=O)[n-]c2[O-])cc(C)n1-c1ccc(OC(=O)CCc2ccccc2)cc1 (cis-trans isomerization)
C=c1/c(=C\c2[nH]c(=O)[n-]c2[O-])cc(C)n1-c1ccc(OC(=O)CCc2ccccc2)cc1 (3D coordinates assigned)
C=c1/c(=C\c2[nH]c(=O)[n-]c2[O-])cc(C)n1-c1ccc(OC(=O)CCc2ccccc2)cc1 (optimized conformer: 133.46181311229446 kcal/mol)

>  <smiles>  (14) 
C=c1c(=Cc2[nH]c(=O)[nH]c2O)cc(C)n1-c1ccc(OC(=O)CCc2ccccc2)cc1

>  <score_type>  (14) 
oracle

>  <origin>  (14) 
adg

>  <m_score__min__energy>  (14) 
-14.529999999999999

>  <m_primary>  (14) 
energy

$$$$
14:0
     RDKit          3D

 47 49  0  0  0  0  0  0  0  0999 V2000
   54.4170   27.1090   46.3640 H   0  0  0  0  0  0  0  0  0  0  0  0
   55.2810   26.8760   45.8900 O   0  0  0  0  0  0  0  0  0  0  0  0
   56.1200   25.8630   46.3460 C   0  0  0  0  0  0  0  0  0  0  0  0
   55.6830   24.8190   47.0700 N   0  0  0  0  0  0  0  0  0  0  0  0
   56.8090   24.1090   47.2840 C   0  0  0  0  0  0  0  0  0  0  0  0
   56.8190   23.0330   47.9370 O   0  0  0  0  0  0  0  0  0  0  0  0
   57.9230   24.6390   46.7380 N   0  0  0  0  0  0  0  0  0  0  0  0
   57.4830   25.7670   46.1490 C   0  0  0  0  0  0  0  0  0  0  0  0
   58.3160   26.6850   45.3410 C   0  0  0  0  0  0  0  0  0  0  0  0
   59.0905   26.2381   44.7003 H   0  0  0  0  0  0  0  0  0  0  0  0
   58.1970   28.0300   45.3310 C   0  0  0  0  0  0  0  0  0  0  0  0
   58.0080   28.8430   44.2200 C   0  0  0  0  0  0  0  0  0  0  0  0
   57.9039   28.5131   43.1758 H   0  0  0  0  0  0  0  0  0  0  0  0
   57.9760   30.1440   44.6790 C   0  0  0  0  0  0  0  0  0  0  0  0
   57.7660   31.3430   43.8020 C   0  0  0  0  0  0  0  0  0  0  0  0
   57.6101   32.2332   44.4291 H   0  0  0  0  0  0  0  0  0  0  0  0
   58.6516   31.4924   43.1669 H   0  0  0  0  0  0  0  0  0  0  0  0
   56.8823   31.1825   43.1669 H   0  0  0  0  0  0  0  0  0  0  0  0
   58.1330   30.1790   46.0220 N   0  0  0  0  0  0  0  0  0  0  0  0
   58.1770   31.3890   46.8600 C   0  0  0  0  0  0  0  0  0  0  0  0
   57.7291   32.2270   46.3058 H   0  0  0  0  0  0  0  0  0  0  0  0
   57.6150   31.1952   47.7855 H   0  0  0  0  0  0  0  0  0  0  0  0
   59.5980   31.7420   47.2250 C   0  0  0  0  0  0  0  0  0  0  0  0
   59.8730   32.9050   47.9600 C   0  0  0  0  0  0  0  0  0  0  0  0
   59.0471   33.5575   48.2795 H   0  0  0  0  0  0  0  0  0  0  0  0
   61.1900   33.2400   48.2890 C   0  0  0  0  0  0  0  0  0  0  0  0
   61.3921   34.1461   48.8790 H   0  0  0  0  0  0  0  0  0  0  0  0
   62.2570   32.4270   47.8710 C   0  0  0  0  0  0  0  0  0  0  0  0
   63.6490   32.7800   48.2360 C   0  0  0  0  0  0  0  0  0  0  0  0
   64.3830   33.3400   47.3760 O   0  0  0  0  0  0  0  0  0  0  0  0
   64.1790   32.5170   49.5490 N   0  0  0  0  0  0  0  0  0  0  0  0
   65.1250   33.4630   50.1420 C   0  0  0  0  0  0  0  0  0  0  0  0
   65.0649   33.4029   51.2387 H   0  0  0  0  0  0  0  0  0  0  0  0
   66.1457   33.2135   49.8165 H   0  0  0  0  0  0  0  0  0  0  0  0
   64.8755   34.4837   49.8165 H   0  0  0  0  0  0  0  0  0  0  0  0
   63.8360   31.2960   50.2820 C   0  0  0  0  0  0  0  0  0  0  0  0
   63.8905   31.4900   51.3634 H   0  0  0  0  0  0  0  0  0  0  0  0
   62.8153   30.9835   50.0165 H   0  0  0  0  0  0  0  0  0  0  0  0
   64.5446   30.4977   50.0165 H   0  0  0  0  0  0  0  0  0  0  0  0
   61.9800   31.2600   47.1380 C   0  0  0  0  0  0  0  0  0  0  0  0
   62.8050   30.6056   46.8198 H   0  0  0  0  0  0  0  0  0  0  0  0
   60.6630   30.9260   46.8110 C   0  0  0  0  0  0  0  0  0  0  0  0
   60.4593   30.0175   46.2252 H   0  0  0  0  0  0  0  0  0  0  0  0
   58.2720   28.8920   46.4330 C   0  0  0  0  0  0  0  0  0  0  0  0
   58.4410   28.5280   47.7160 C   0  0  0  0  0  0  0  0  0  0  0  0
   58.4857   29.2944   48.5038 H   0  0  0  0  0  0  0  0  0  0  0  0
   58.5346   27.4638   47.9780 H   0  0  0  0  0  0  0  0  0  0  0  0
  1  2  1  0
  2  3  1  0
  3  4  1  0
  4  5  1  0
  5  6  2  0
  5  7  1  0
  7  8  1  0
  8  9  1  0
  9 10  1  0
  9 11  2  0
 11 12  1  0
 12 13  1  0
 12 14  2  0
 14 15  1  0
 15 16  1  0
 15 17  1  0
 15 18  1  0
 14 19  1  0
 19 20  1  0
 20 21  1  0
 20 22  1  0
 20 23  1  0
 23 24  2  0
 24 25  1  0
 24 26  1  0
 26 27  1  0
 26 28  2  0
 28 29  1  0
 29 30  2  0
 29 31  1  0
 31 32  1  0
 32 33  1  0
 32 34  1  0
 32 35  1  0
 31 36  1  0
 36 37  1  0
 36 38  1  0
 36 39  1  0
 28 40  1  0
 40 41  1  0
 40 42  2  0
 42 43  1  0
 19 44  1  0
 44 45  2  0
 45 46  1  0
 45 47  1  0
  8  3  2  0
 44 11  1  0
 42 23  1  0
M  CHG  2   4  -1   7  -1
M  END
>  <UniqueID>  (15) 
14

>  <SMILES>  (15) 
C=c1/c(=C/c2[n-]c(=O)[n-]c2O)cc(C)n1Cc1ccc(C(=O)N(C)C)cc1

>  <Energy>  (15) 
112.85464770052764

>  <Genealogy>  (15) 
C=c1c(=Cc2[n-]c(=O)[n-]c2O)cc(C)n1Cc1ccc(C(=O)N(C)C)cc1 (protonated)
C=c1/c(=C/c2[n-]c(=O)[n-]c2O)cc(C)n1Cc1ccc(C(=O)N(C)C)cc1 (cis-trans isomerization)
C=c1/c(=C/c2[n-]c(=O)[n-]c2O)cc(C)n1Cc1ccc(C(=O)N(C)C)cc1 (3D coordinates assigned)
C=c1/c(=C/c2[n-]c(=O)[n-]c2O)cc(C)n1Cc1ccc(C(=O)N(C)C)cc1 (optimized conformer: 112.85464770052764 kcal/mol)

>  <smiles>  (15) 
C=c1c(=Cc2[nH]c(=O)[nH]c2O)cc(C)n1Cc1ccc(C(=O)N(C)C)cc1

>  <score_type>  (15) 
oracle

>  <origin>  (15) 
adg

>  <m_score__min__energy>  (15) 
-12.69

>  <m_primary>  (15) 
energy

$$$$
15:0
     RDKit          3D

 45 46  0  0  0  0  0  0  0  0999 V2000
   53.1450   23.7790   45.1530 C   0  0  0  0  0  0  0  0  0  0  0  0
   54.3090   24.4150   45.3150 C   0  0  0  0  0  0  0  0  0  0  0  0
   55.2840   23.9980   46.3750 C   0  0  0  0  0  0  0  0  0  0  0  0
   55.8930   25.1810   46.9710 N   0  0  0  0  0  0  0  0  0  0  0  0
   56.4770   26.2880   46.2660 C   0  0  0  0  0  0  0  0  0  0  0  0
   55.7040   27.0480   45.6240 O   0  0  0  0  0  0  0  0  0  0  0  0
   57.9410   26.5610   46.2440 C   0  0  0  0  0  0  0  0  0  0  0  0
   58.4900   27.7140   47.0600 C   0  0  0  0  0  0  0  0  0  0  0  0
   59.8110   28.6100   46.1640 S   0  0  0  0  0  0  0  0  0  0  0  0
   58.7050   29.7600   45.3250 C   0  0  0  0  0  0  0  0  0  0  0  0
   58.7780   31.1190   45.6620 C   0  0  0  0  0  0  0  0  0  0  0  0
   57.9540   32.0500   45.0250 C   0  0  0  0  0  0  0  0  0  0  0  0
   57.0450   31.6290   44.0540 C   0  0  0  0  0  0  0  0  0  0  0  0
   56.9530   30.2760   43.7200 C   0  0  0  0  0  0  0  0  0  0  0  0
   57.7800   29.3290   44.3480 C   0  0  0  0  0  0  0  0  0  0  0  0
   57.6680   27.9490   43.9770 N   0  0  0  0  0  0  0  0  0  0  0  0
   58.7130   25.8150   45.5030 N   0  0  0  0  0  0  0  0  0  0  0  0
   59.0280   24.3950   45.6810 C   0  0  0  0  0  0  0  0  0  0  0  0
   58.1810   23.5340   44.7750 C   0  0  0  0  0  0  0  0  0  0  0  0
   58.1830   22.1390   44.9560 C   0  0  0  0  0  0  0  0  0  0  0  0
   57.4190   21.3140   44.1270 C   0  0  0  0  0  0  0  0  0  0  0  0
   56.6500   21.8700   43.1050 C   0  0  0  0  0  0  0  0  0  0  0  0
   56.6460   23.2530   42.9050 C   0  0  0  0  0  0  0  0  0  0  0  0
   57.4080   24.0920   43.7250 C   0  0  0  0  0  0  0  0  0  0  0  0
   57.3840   25.4650   43.4660 O   0  0  0  0  0  0  0  0  0  0  0  0
   52.4457   24.1032   44.3683 H   0  0  0  0  0  0  0  0  0  0  0  0
   52.8862   22.9312   45.8044 H   0  0  0  0  0  0  0  0  0  0  0  0
   54.5568   25.2614   44.6576 H   0  0  0  0  0  0  0  0  0  0  0  0
   54.7569   23.4261   47.1529 H   0  0  0  0  0  0  0  0  0  0  0  0
   56.0676   23.3709   45.9247 H   0  0  0  0  0  0  0  0  0  0  0  0
   57.6717   28.4147   47.2823 H   0  0  0  0  0  0  0  0  0  0  0  0
   58.9209   27.3042   47.9854 H   0  0  0  0  0  0  0  0  0  0  0  0
   59.4881   31.4540   46.4324 H   0  0  0  0  0  0  0  0  0  0  0  0
   58.0219   33.1156   45.2892 H   0  0  0  0  0  0  0  0  0  0  0  0
   56.3996   32.3639   43.5506 H   0  0  0  0  0  0  0  0  0  0  0  0
   56.2280   29.9492   42.9600 H   0  0  0  0  0  0  0  0  0  0  0  0
   56.7380   27.5430   43.7320 H   0  0  0  0  0  0  0  0  0  0  0  0
   58.4990   27.3230   43.9100 H   0  0  0  0  0  0  0  0  0  0  0  0
   60.0895   24.2299   45.4446 H   0  0  0  0  0  0  0  0  0  0  0  0
   58.8173   24.1179   46.7245 H   0  0  0  0  0  0  0  0  0  0  0  0
   58.7913   21.6940   45.7572 H   0  0  0  0  0  0  0  0  0  0  0  0
   57.4240   20.2248   44.2805 H   0  0  0  0  0  0  0  0  0  0  0  0
   56.0460   21.2192   42.4557 H   0  0  0  0  0  0  0  0  0  0  0  0
   56.0387   23.6855   42.0962 H   0  0  0  0  0  0  0  0  0  0  0  0
   57.0190   26.1460   44.1180 H   0  0  0  0  0  0  0  0  0  0  0  0
  1  2  2  0
  2  3  1  0
  3  4  1  0
  4  5  1  0
  5  6  2  0
  5  7  1  0
  7  8  1  0
  8  9  1  0
  9 10  1  0
 10 11  2  0
 11 12  1  0
 12 13  2  0
 13 14  1  0
 14 15  2  0
 15 16  1  0
  7 17  2  3
 17 18  1  0
 18 19  1  0
 19 20  2  0
 20 21  1  0
 21 22  2  0
 22 23  1  0
 23 24  2  0
 24 25  1  0
 15 10  1  0
 24 19  1  0
  1 26  1  0
  1 27  1  0
  2 28  1  0
  3 29  1  0
  3 30  1  0
  8 31  1  0
  8 32  1  0
 11 33  1  0
 12 34  1  0
 13 35  1  0
 14 36  1  0
 16 37  1  0
 16 38  1  0
 18 39  1  0
 18 40  1  0
 20 41  1  0
 21 42  1  0
 22 43  1  0
 23 44  1  0
 25 45  1  0
M  CHG  1   4  -1
M  END
>  <UniqueID>  (16) 
15

>  <SMILES>  (16) 
C=CC[N-]C(=O)C(CSc1ccccc1N)=NCc1ccccc1O

>  <Energy>  (16) 
39.142748281981945

>  <Genealogy>  (16) 
C=CC[N-]C(=O)C(CSc1ccccc1N)=NCc1ccccc1O (protonated)
C=CC[N-]C(=O)C(CSc1ccccc1N)=NCc1ccccc1O (3D coordinates assigned)
C=CC[N-]C(=O)C(CSc1ccccc1N)=NCc1ccccc1O (optimized conformer: 39.142748281981945 kcal/mol)

>  <smiles>  (16) 
C=CCNC(=O)C(CSc1ccccc1N)=NCc1ccccc1O

>  <score_type>  (16) 
oracle

>  <origin>  (16) 
adg

>  <m_score__min__energy>  (16) 
-10.369999999999999

>  <m_primary>  (16) 
energy

$$$$
16:0
     RDKit          3D

 45 48  0  0  0  0  0  0  0  0999 V2000
   57.3925   21.7271   42.0771 H   0  0  0  0  0  0  0  0  0  0  0  0
   57.0370   22.0520   43.0660 C   0  0  0  0  0  0  0  0  0  0  0  0
   55.8890   22.8420   43.1710 C   0  0  0  0  0  0  0  0  0  0  0  0
   55.3381   23.1336   42.2647 H   0  0  0  0  0  0  0  0  0  0  0  0
   55.4400   23.2620   44.4260 C   0  0  0  0  0  0  0  0  0  0  0  0
   54.5300   23.8749   44.5042 H   0  0  0  0  0  0  0  0  0  0  0  0
   56.1440   22.9060   45.5880 C   0  0  0  0  0  0  0  0  0  0  0  0
   55.6570   23.3680   46.9110 C   0  0  0  0  0  0  0  0  0  0  0  0
   55.9150   24.5560   47.3830 N   0  0  0  0  0  0  0  0  0  0  0  0
   56.7530   25.5660   46.7950 C   0  0  0  0  0  0  0  0  0  0  0  0
   58.1560   25.4800   46.8520 C   0  0  0  0  0  0  0  0  0  0  0  0
   58.6315   24.6376   47.3756 H   0  0  0  0  0  0  0  0  0  0  0  0
   58.9490   26.4590   46.2470 C   0  0  0  0  0  0  0  0  0  0  0  0
   60.0447   26.4039   46.3277 H   0  0  0  0  0  0  0  0  0  0  0  0
   58.3540   27.5090   45.5390 C   0  0  0  0  0  0  0  0  0  0  0  0
   59.1770   28.5300   44.9600 N   0  0  0  0  0  0  0  0  0  0  0  0
   59.6120   28.3010   44.0380 H   0  0  0  0  0  0  0  0  0  0  0  0
   59.4940   29.6640   45.5280 C   0  0  0  0  0  0  0  0  0  0  0  0
   58.6890   30.9210   45.5320 C   0  0  0  0  0  0  0  0  0  0  0  0
   57.6160   31.2890   44.7020 C   0  0  0  0  0  0  0  0  0  0  0  0
   57.2281   30.5860   43.9501 H   0  0  0  0  0  0  0  0  0  0  0  0
   57.0450   32.5630   44.8430 C   0  0  0  0  0  0  0  0  0  0  0  0
   56.1819   32.8461   44.2226 H   0  0  0  0  0  0  0  0  0  0  0  0
   57.5670   33.4790   45.7700 C   0  0  0  0  0  0  0  0  0  0  0  0
   57.1007   34.4686   45.8856 H   0  0  0  0  0  0  0  0  0  0  0  0
   58.6800   33.1360   46.5480 C   0  0  0  0  0  0  0  0  0  0  0  0
   59.1153   33.8584   47.2542 H   0  0  0  0  0  0  0  0  0  0  0  0
   59.2250   31.8600   46.4090 C   0  0  0  0  0  0  0  0  0  0  0  0
   60.6840   31.2820   47.1470 S   0  0  0  0  0  0  0  0  0  0  0  0
   60.5440   31.1000   48.6320 O   0  0  0  0  0  0  0  0  0  0  0  0
   61.8830   32.1100   46.7810 O   0  0  0  0  0  0  0  0  0  0  0  0
   60.6820   29.7740   46.3190 N   0  0  0  0  0  0  0  0  0  0  0  0
   61.3500   28.9950   46.5140 H   0  0  0  0  0  0  0  0  0  0  0  0
   56.9540   27.5970   45.4780 C   0  0  0  0  0  0  0  0  0  0  0  0
   56.4804   28.4383   44.9508 H   0  0  0  0  0  0  0  0  0  0  0  0
   56.1590   26.6190   46.0850 C   0  0  0  0  0  0  0  0  0  0  0  0
   54.7750   26.7060   45.9920 O   0  0  0  0  0  0  0  0  0  0  0  0
   54.8200   22.4410   47.7370 C   0  0  0  0  0  0  0  0  0  0  0  0
   54.9984   22.6386   48.8043 H   0  0  0  0  0  0  0  0  0  0  0  0
   53.7567   22.6036   47.5067 H   0  0  0  0  0  0  0  0  0  0  0  0
   55.0900   21.3998   47.5067 H   0  0  0  0  0  0  0  0  0  0  0  0
   57.2880   22.0890   45.4770 C   0  0  0  0  0  0  0  0  0  0  0  0
   57.9770   21.6740   46.6110 O   0  0  0  0  0  0  0  0  0  0  0  0
   57.7330   21.6750   44.2170 C   0  0  0  0  0  0  0  0  0  0  0  0
   58.6344   21.0502   44.1323 H   0  0  0  0  0  0  0  0  0  0  0  0
  1  2  1  0
  2  3  2  0
  3  4  1  0
  3  5  1  0
  5  6  1  0
  5  7  2  0
  7  8  1  0
  8  9  2  0
  9 10  1  0
 10 11  2  0
 11 12  1  0
 11 13  1  0
 13 14  1  0
 13 15  2  0
 15 16  1  0
 16 17  1  0
 16 18  2  0
 18 19  1  0
 19 20  2  0
 20 21  1  0
 20 22  1  0
 22 23  1  0
 22 24  2  0
 24 25  1  0
 24 26  1  0
 26 27  1  0
 26 28  2  0
 28 29  1  0
 29 30  2  0
 29 31  2  0
 29 32  1  0
 32 33  1  0
 15 34  1  0
 34 35  1  0
 34 36  2  0
 36 37  1  0
  8 38  1  0
 38 39  1  0
 38 40  1  0
 38 41  1  0
  7 42  1  0
 42 43  1  0
 42 44  2  0
 44 45  1  0
 44  2  1  0
 36 10  1  0
 32 18  1  0
 28 19  1  0
M  CHG  3  16   1  37  -1  43  -1
M  END
>  <UniqueID>  (17) 
16

>  <SMILES>  (17) 
C/C(=N/c1ccc(/[NH+]=C2/NS(=O)(=O)c3ccccc32)cc1[O-])c1ccccc1[O-]

>  <Energy>  (17) 
95.50773445447727

>  <Genealogy>  (17) 
CC(=Nc1ccc([NH+]=C2NS(=O)(=O)c3ccccc32)cc1[O-])c1ccccc1[O-] (protonated)
C/C(=N/c1ccc(/[NH+]=C2/NS(=O)(=O)c3ccccc32)cc1[O-])c1ccccc1[O-] (cis-trans isomerization)
C/C(=N/c1ccc(/[NH+]=C2/NS(=O)(=O)c3ccccc32)cc1[O-])c1ccccc1[O-] (3D coordinates assigned)
C/C(=N/c1ccc(/[NH+]=C2/NS(=O)(=O)c3ccccc32)cc1[O-])c1ccccc1[O-] (nonaromatic ring conformer: 95.50773445447727 kcal/mol)

>  <smiles>  (17) 
CC(=Nc1ccc(N=C2NS(=O)(=O)c3ccccc32)cc1O)c1ccccc1O

>  <score_type>  (17) 
oracle

>  <origin>  (17) 
adg

>  <m_score__min__energy>  (17) 
-13.279999999999999

>  <m_primary>  (17) 
energy

$$$$
17:0
     RDKit          3D

 74 79  0  0  0  0  0  0  0  0999 V2000
   61.1296   28.0656   46.4848 H   0  0  0  0  0  0  0  0  0  0  0  0
   60.2190   28.0330   47.1010 C   0  0  0  0  0  0  0  0  0  0  0  0
   60.2890   27.4860   48.2800 N   0  0  0  0  0  0  0  0  0  0  0  0
   60.3250   28.2050   49.4580 O   0  0  0  0  0  0  0  0  0  0  0  0
   61.1380   27.8150   50.5610 C   0  0  0  0  0  0  0  0  0  0  0  0
   61.0047   26.7411   50.7585 H   0  0  0  0  0  0  0  0  0  0  0  0
   62.1972   28.0061   50.3340 H   0  0  0  0  0  0  0  0  0  0  0  0
   60.7120   28.6220   51.7890 C   0  0  0  0  0  0  0  0  0  0  0  0
   60.9950   28.0658   52.6948 H   0  0  0  0  0  0  0  0  0  0  0  0
   61.2181   29.5977   51.7459 H   0  0  0  0  0  0  0  0  0  0  0  0
   59.2520   28.8660   51.8150 N   0  0  0  0  0  0  0  0  0  0  0  0
   58.6340   28.2890   53.0400 C   0  0  0  0  0  0  0  0  0  0  0  0
   58.4278   27.2235   52.8604 H   0  0  0  0  0  0  0  0  0  0  0  0
   59.3437   28.4351   53.8676 H   0  0  0  0  0  0  0  0  0  0  0  0
   57.3190   28.9840   53.4320 C   0  0  0  0  0  0  0  0  0  0  0  0
   56.6459   28.2525   53.9030 H   0  0  0  0  0  0  0  0  0  0  0  0
   57.5358   29.7981   54.1393 H   0  0  0  0  0  0  0  0  0  0  0  0
   56.6720   29.5420   52.2330 N   0  0  0  0  0  0  0  0  0  0  0  0
   55.2640   29.9540   52.4520 C   0  0  0  0  0  0  0  0  0  0  0  0
   55.2618   30.8277   53.1204 H   0  0  0  0  0  0  0  0  0  0  0  0
   54.8437   30.1707   51.4588 H   0  0  0  0  0  0  0  0  0  0  0  0
   54.3670   28.8640   53.0800 C   0  0  0  0  0  0  0  0  0  0  0  0
   54.7297   27.8732   52.7689 H   0  0  0  0  0  0  0  0  0  0  0  0
   54.4088   28.9564   54.1753 H   0  0  0  0  0  0  0  0  0  0  0  0
   53.0120   29.0240   52.6540 O   0  0  0  0  0  0  0  0  0  0  0  0
   52.3300   30.2450   52.5330 C   0  0  0  0  0  0  0  0  0  0  0  0
   52.4220   30.9320   51.3140 C   0  0  0  0  0  0  0  0  0  0  0  0
   53.0133   30.5040   50.4911 H   0  0  0  0  0  0  0  0  0  0  0  0
   51.7700   32.1550   51.1340 C   0  0  0  0  0  0  0  0  0  0  0  0
   51.8516   32.6865   50.1744 H   0  0  0  0  0  0  0  0  0  0  0  0
   51.0140   32.7020   52.1750 C   0  0  0  0  0  0  0  0  0  0  0  0
   50.3630   33.9180   51.9970 O   0  0  0  0  0  0  0  0  0  0  0  0
   50.9170   32.0290   53.3960 C   0  0  0  0  0  0  0  0  0  0  0  0
   50.3231   32.4613   54.2148 H   0  0  0  0  0  0  0  0  0  0  0  0
   51.5730   30.8070   53.5800 C   0  0  0  0  0  0  0  0  0  0  0  0
   51.4976   30.2837   54.5446 H   0  0  0  0  0  0  0  0  0  0  0  0
   57.4860   30.6030   51.6050 C   0  0  0  0  0  0  0  0  0  0  0  0
   57.2157   30.6749   50.5412 H   0  0  0  0  0  0  0  0  0  0  0  0
   57.2802   31.5458   52.1330 H   0  0  0  0  0  0  0  0  0  0  0  0
   58.9950   30.3160   51.7160 C   0  0  0  0  0  0  0  0  0  0  0  0
   59.5029   30.7112   50.8239 H   0  0  0  0  0  0  0  0  0  0  0  0
   59.3782   30.8026   52.6250 H   0  0  0  0  0  0  0  0  0  0  0  0
   58.9710   28.6150   46.5470 C   0  0  0  0  0  0  0  0  0  0  0  0
   57.8830   27.8020   46.0990 C   0  0  0  0  0  0  0  0  0  0  0  0
   57.8090   26.5060   46.2610 N   0  0  0  0  0  0  0  0  0  0  0  0
   56.8640   25.5630   45.7430 C   0  0  0  0  0  0  0  0  0  0  0  0
   55.8640   25.2320   46.4330 O   0  0  0  0  0  0  0  0  0  0  0  0
   56.9570   25.1100   44.3900 N   0  0  0  0  0  0  0  0  0  0  0  0
   57.0520   23.7390   43.9690 C   0  0  0  0  0  0  0  0  0  0  0  0
   58.0780   22.9400   44.4930 C   0  0  0  0  0  0  0  0  0  0  0  0
   58.7797   23.3633   45.2268 H   0  0  0  0  0  0  0  0  0  0  0  0
   58.2150   21.6090   44.0890 C   0  0  0  0  0  0  0  0  0  0  0  0
   59.0141   20.9848   44.5154 H   0  0  0  0  0  0  0  0  0  0  0  0
   57.3370   21.0700   43.1430 C   0  0  0  0  0  0  0  0  0  0  0  0
   57.4403   20.0199   42.8321 H   0  0  0  0  0  0  0  0  0  0  0  0
   56.3270   21.8670   42.5920 C   0  0  0  0  0  0  0  0  0  0  0  0
   55.6426   21.4462   41.8406 H   0  0  0  0  0  0  0  0  0  0  0  0
   56.1880   23.1990   42.9970 C   0  0  0  0  0  0  0  0  0  0  0  0
   55.4007   23.8269   42.5544 H   0  0  0  0  0  0  0  0  0  0  0  0
   56.8470   28.3880   45.4420 N   0  0  0  0  0  0  0  0  0  0  0  0
   56.7610   29.7210   45.2190 C   0  0  0  0  0  0  0  0  0  0  0  0
   55.8869   30.1353   44.6952 H   0  0  0  0  0  0  0  0  0  0  0  0
   57.7800   30.5690   45.6530 C   0  0  0  0  0  0  0  0  0  0  0  0
   57.7450   31.9610   45.4280 C   0  0  0  0  0  0  0  0  0  0  0  0
   56.7600   32.5150   44.8610 O   0  0  0  0  0  0  0  0  0  0  0  0
   58.8110   32.6940   45.8340 N   0  0  0  0  0  0  0  0  0  0  0  0
   59.0610   34.0090   45.7520 C   0  0  0  0  0  0  0  0  0  0  0  0
   58.4014   34.7751   45.3185 H   0  0  0  0  0  0  0  0  0  0  0  0
   60.3100   34.2190   46.3180 C   0  0  0  0  0  0  0  0  0  0  0  0
   60.8034   35.1982   46.4054 H   0  0  0  0  0  0  0  0  0  0  0  0
   60.8360   33.0460   46.7480 N   0  0  0  0  0  0  0  0  0  0  0  0
   59.8810   32.1520   46.4270 C   0  0  0  0  0  0  0  0  0  0  0  0
   59.9540   30.8220   46.6650 N   0  0  0  0  0  0  0  0  0  0  0  0
   58.9120   30.0090   46.3080 C   0  0  0  0  0  0  0  0  0  0  0  0
  1  2  1  0
  2  3  2  0
  3  4  1  0
  4  5  1  0
  5  6  1  0
  5  7  1  0
  5  8  1  0
  8  9  1  0
  8 10  1  0
  8 11  1  0
 11 12  1  0
 12 13  1  0
 12 14  1  0
 12 15  1  0
 15 16  1  0
 15 17  1  0
 15 18  1  0
 18 19  1  0
 19 20  1  0
 19 21  1  0
 19 22  1  0
 22 23  1  0
 22 24  1  0
 22 25  1  0
 25 26  1  0
 26 27  2  0
 27 28  1  0
 27 29  1  0
 29 30  1  0
 29 31  2  0
 31 32  1  0
 31 33  1  0
 33 34  1  0
 33 35  2  0
 35 36  1  0
 18 37  1  0
 37 38  1  0
 37 39  1  0
 37 40  1  0
 40 41  1  0
 40 42  1  0
  2 43  1  0
 43 44  1  0
 44 45  2  3
 45 46  1  0
 46 47  2  0
 46 48  1  0
 48 49  1  0
 49 50  2  0
 50 51  1  0
 50 52  1  0
 52 53  1  0
 52 54  2  0
 54 55  1  0
 54 56  1  0
 56 57  1  0
 56 58  2  0
 58 59  1  0
 44 60  1  0
 60 61  1  0
 61 62  1  0
 61 63  2  0
 63 64  1  0
 64 65  2  0
 64 66  1  0
 66 67  1  0
 67 68  1  0
 67 69  2  0
 69 70  1  0
 69 71  1  0
 71 72  2  0
 72 73  1  0
 73 74  1  0
 40 11  1  0
 74 43  2  0
 35 26  1  0
 58 49  1  0
 74 63  1  0
 72 66  1  0
M  CHG  4  32  -1  48  -1  60  -1  73  -1
M  END
>  <UniqueID>  (18) 
17

>  <SMILES>  (18) 
O=C(N=c1[n-]cc2c(=O)n3ccnc3[n-]c2c1/C=N\OCCN1CCN(CCOc2ccc([O-])cc2)CC1)[N-]c1ccccc1

>  <Energy>  (18) 
162.74292096381456

>  <Genealogy>  (18) 
O=C(N=c1[n-]cc2c(=O)n3ccnc3[n-]c2c1C=NOCCN1CCN(CCOc2ccc([O-])cc2)CC1)[N-]c1ccccc1 (protonated)
O=C(N=c1[n-]cc2c(=O)n3ccnc3[n-]c2c1/C=N\OCCN1CCN(CCOc2ccc([O-])cc2)CC1)[N-]c1ccccc1 (cis-trans isomerization)
O=C(N=c1[n-]cc2c(=O)n3ccnc3[n-]c2c1/C=N\OCCN1CCN(CCOc2ccc([O-])cc2)CC1)[N-]c1ccccc1 (3D coordinates assigned)
O=C(N=c1[n-]cc2c(=O)n3ccnc3[n-]c2c1/C=N\OCCN1CCN(CCOc2ccc([O-])cc2)CC1)[N-]c1ccccc1 (nonaromatic ring conformer: 162.74292096381456 kcal/mol)

>  <smiles>  (18) 
O=C(N=c1[nH]cc2c(=O)n3ccnc3[nH]c2c1C=NOCCN1CCN(CCOc2ccc(O)cc2)CC1)Nc1ccccc1

>  <score_type>  (18) 
oracle

>  <origin>  (18) 
adg

>  <m_score__min__energy>  (18) 
-17.760000000000002

>  <m_primary>  (18) 
energy

$$$$
18:0
     RDKit          3D

 52 55  0  0  0  0  0  0  0  0999 V2000
   58.6430   29.8880   45.9360 C   0  0  0  0  0  0  0  0  0  0  0  0
   59.1320   29.0350   46.8500 C   0  0  0  0  0  0  0  0  0  0  0  0
   59.1040   27.6390   46.7800 C   0  0  0  0  0  0  0  0  0  0  0  0
   58.5840   26.8770   45.8000 C   0  0  0  0  0  0  0  0  0  0  0  0
   57.3860   26.0260   45.9810 C   0  0  0  0  0  0  0  0  0  0  0  0
   56.0910   26.5540   45.8130 C   0  0  0  0  0  0  0  0  0  0  0  0
   55.8760   27.9020   45.5170 O   0  0  0  0  0  0  0  0  0  0  0  0
   55.0100   25.7430   45.9560 N   0  0  0  0  0  0  0  0  0  0  0  0
   55.1500   24.4260   46.2520 C   0  0  0  0  0  0  0  0  0  0  0  0
   54.1310   23.7010   46.3850 O   0  0  0  0  0  0  0  0  0  0  0  0
   56.3880   23.8910   46.4000 N   0  0  0  0  0  0  0  0  0  0  0  0
   57.5030   24.6510   46.2630 C   0  0  0  0  0  0  0  0  0  0  0  0
   58.6360   24.1120   46.3790 O   0  0  0  0  0  0  0  0  0  0  0  0
   59.6810   27.1770   47.9560 C   0  0  0  0  0  0  0  0  0  0  0  0
   60.0490   28.2930   48.6800 C   0  0  0  0  0  0  0  0  0  0  0  0
   60.6880   28.2540   50.0350 C   0  0  0  0  0  0  0  0  0  0  0  0
   59.7090   29.4200   48.0160 N   0  0  0  0  0  0  0  0  0  0  0  0
   59.9280   30.7650   48.4780 C   0  0  0  0  0  0  0  0  0  0  0  0
   59.2720   31.2300   49.6240 C   0  0  0  0  0  0  0  0  0  0  0  0
   59.4800   32.5370   50.0690 C   0  0  0  0  0  0  0  0  0  0  0  0
   60.3470   33.3860   49.3750 C   0  0  0  0  0  0  0  0  0  0  0  0
   61.0210   32.9320   48.2260 C   0  0  0  0  0  0  0  0  0  0  0  0
   61.9380   33.8340   47.4900 C   0  0  0  0  0  0  0  0  0  0  0  0
   63.1460   33.9300   47.8400 O   0  0  0  0  0  0  0  0  0  0  0  0
   61.4580   34.5930   46.3740 N   0  0  0  0  0  0  0  0  0  0  0  0
   60.1810   35.2990   46.3660 C   0  0  0  0  0  0  0  0  0  0  0  0
   59.0800   34.3620   45.9570 C   0  0  0  0  0  0  0  0  0  0  0  0
   59.0920   33.7830   44.6780 C   0  0  0  0  0  0  0  0  0  0  0  0
   58.0980   32.8710   44.3080 C   0  0  0  0  0  0  0  0  0  0  0  0
   57.0890   32.5260   45.2140 C   0  0  0  0  0  0  0  0  0  0  0  0
   56.1060   31.6160   44.8460 O   0  0  0  0  0  0  0  0  0  0  0  0
   57.0720   33.0970   46.4900 C   0  0  0  0  0  0  0  0  0  0  0  0
   58.0650   34.0110   46.8630 C   0  0  0  0  0  0  0  0  0  0  0  0
   60.8030   31.6140   47.7850 C   0  0  0  0  0  0  0  0  0  0  0  0
   58.7220   30.9731   46.0986 H   0  0  0  0  0  0  0  0  0  0  0  0
   58.1633   29.5019   45.0245 H   0  0  0  0  0  0  0  0  0  0  0  0
   59.0737   26.8870   44.8151 H   0  0  0  0  0  0  0  0  0  0  0  0
   55.1430   28.2180   44.8940 H   0  0  0  0  0  0  0  0  0  0  0  0
   59.8179   26.1266   48.2525 H   0  0  0  0  0  0  0  0  0  0  0  0
   59.9084   28.3016   50.8096 H   0  0  0  0  0  0  0  0  0  0  0  0
   61.2576   27.3194   50.1450 H   0  0  0  0  0  0  0  0  0  0  0  0
   61.3670   29.1124   50.1450 H   0  0  0  0  0  0  0  0  0  0  0  0
   58.5913   30.5643   50.1750 H   0  0  0  0  0  0  0  0  0  0  0  0
   58.9602   32.8996   50.9681 H   0  0  0  0  0  0  0  0  0  0  0  0
   60.5034   34.4156   49.7293 H   0  0  0  0  0  0  0  0  0  0  0  0
   59.9731   35.6879   47.3737 H   0  0  0  0  0  0  0  0  0  0  0  0
   60.2325   36.1315   45.6489 H   0  0  0  0  0  0  0  0  0  0  0  0
   59.8861   34.0475   43.9642 H   0  0  0  0  0  0  0  0  0  0  0  0
   58.1096   32.4242   43.3029 H   0  0  0  0  0  0  0  0  0  0  0  0
   56.2776   32.8279   47.2018 H   0  0  0  0  0  0  0  0  0  0  0  0
   58.0504   34.4559   47.8689 H   0  0  0  0  0  0  0  0  0  0  0  0
   61.3236   31.2461   46.8885 H   0  0  0  0  0  0  0  0  0  0  0  0
  1  2  2  0
  2  3  1  0
  3  4  2  3
  4  5  1  0
  5  6  2  0
  6  7  1  0
  6  8  1  0
  8  9  1  0
  9 10  2  0
  9 11  1  0
 11 12  1  0
 12 13  2  0
  3 14  1  0
 14 15  2  0
 15 16  1  0
 15 17  1  0
 17 18  1  0
 18 19  2  0
 19 20  1  0
 20 21  2  0
 21 22  1  0
 22 23  1  0
 23 24  2  0
 23 25  1  0
 25 26  1  0
 26 27  1  0
 27 28  2  0
 28 29  1  0
 29 30  2  0
 30 31  1  0
 30 32  1  0
 32 33  2  0
 22 34  2  0
 17  2  1  0
 34 18  1  0
 12  5  1  0
 33 27  1  0
  1 35  1  0
  1 36  1  0
  4 37  1  0
  7 38  1  0
 14 39  1  0
 16 40  1  0
 16 41  1  0
 16 42  1  0
 19 43  1  0
 20 44  1  0
 21 45  1  0
 26 46  1  0
 26 47  1  0
 28 48  1  0
 29 49  1  0
 32 50  1  0
 33 51  1  0
 34 52  1  0
M  CHG  4   8  -1  11  -1  25  -1  31  -1
M  END
>  <UniqueID>  (19) 
18

>  <SMILES>  (19) 
C=c1c(=Cc2c(O)[n-]c(=O)[n-]c2=O)cc(C)n1-c1cccc(C(=O)[N-]Cc2ccc([O-])cc2)c1

>  <Energy>  (19) 
100.4834931643909

>  <Genealogy>  (19) 
C=c1c(=Cc2c(O)[n-]c(=O)[n-]c2=O)cc(C)n1-c1cccc(C(=O)[N-]Cc2ccc([O-])cc2)c1 (protonated)
C=c1c(=Cc2c(O)[n-]c(=O)[n-]c2=O)cc(C)n1-c1cccc(C(=O)[N-]Cc2ccc([O-])cc2)c1 (3D coordinates assigned)
C=c1c(=Cc2c(O)[n-]c(=O)[n-]c2=O)cc(C)n1-c1cccc(C(=O)[N-]Cc2ccc([O-])cc2)c1 (optimized conformer: 100.4834931643909 kcal/mol)

>  <smiles>  (19) 
C=c1c(=Cc2c(O)[nH]c(=O)[nH]c2=O)cc(C)n1-c1cccc(C(=O)NCc2ccc(O)cc2)c1

>  <score_type>  (19) 
oracle

>  <origin>  (19) 
adg

>  <m_score__min__energy>  (19) 
-19.530000000000001

>  <m_primary>  (19) 
energy

$$$$
19:0
     RDKit          3D

 48 50  0  0  0  0  0  0  0  0999 V2000
   59.1210   27.7310   48.1140 O   0  0  0  0  0  0  0  0  0  0  0  0
   59.1120   28.8400   47.5180 C   0  0  0  0  0  0  0  0  0  0  0  0
   58.1290   29.0610   46.4000 C   0  0  0  0  0  0  0  0  0  0  0  0
   58.3420   30.3620   45.7700 N   0  0  0  0  0  0  0  0  0  0  0  0
   57.3880   30.9460   44.8710 C   0  0  0  0  0  0  0  0  0  0  0  0
   56.2800   30.3750   44.6680 O   0  0  0  0  0  0  0  0  0  0  0  0
   57.6690   32.2820   44.2440 C   0  0  0  0  0  0  0  0  0  0  0  0
   58.2710   33.2420   45.2370 C   0  0  0  0  0  0  0  0  0  0  0  0
   57.9590   33.1340   46.6040 C   0  0  0  0  0  0  0  0  0  0  0  0
   58.4970   34.0420   47.5230 C   0  0  0  0  0  0  0  0  0  0  0  0
   59.3420   35.0660   47.0840 C   0  0  0  0  0  0  0  0  0  0  0  0
   59.6490   35.1850   45.7250 C   0  0  0  0  0  0  0  0  0  0  0  0
   59.1130   34.2800   44.8020 C   0  0  0  0  0  0  0  0  0  0  0  0
   60.0690   29.8370   47.8990 N   0  0  0  0  0  0  0  0  0  0  0  0
   59.8140   30.8870   48.8360 C   0  0  0  0  0  0  0  0  0  0  0  0
   58.6290   30.8460   49.5810 C   0  0  0  0  0  0  0  0  0  0  0  0
   58.3690   31.8200   50.5460 C   0  0  0  0  0  0  0  0  0  0  0  0
   59.2820   32.8530   50.7590 C   0  0  0  0  0  0  0  0  0  0  0  0
   60.4530   32.9220   49.9990 C   0  0  0  0  0  0  0  0  0  0  0  0
   60.7310   31.9460   49.0270 C   0  0  0  0  0  0  0  0  0  0  0  0
   61.9010   32.0760   48.1940 N   0  0  0  0  0  0  0  0  0  0  0  0
   63.2500   31.8810   48.7280 C   0  0  0  0  0  0  0  0  0  0  0  0
   64.0630   33.1580   48.4940 C   0  0  0  0  0  0  0  0  0  0  0  0
   64.0430   33.5140   47.1220 O   0  0  0  0  0  0  0  0  0  0  0  0
   62.7230   33.8360   46.7200 C   0  0  0  0  0  0  0  0  0  0  0  0
   61.8020   32.6150   46.8360 C   0  0  0  0  0  0  0  0  0  0  0  0
   58.2568   28.2702   45.6461 H   0  0  0  0  0  0  0  0  0  0  0  0
   57.1109   29.0335   46.8157 H   0  0  0  0  0  0  0  0  0  0  0  0
   59.2100   30.8950   46.0060 H   0  0  0  0  0  0  0  0  0  0  0  0
   58.3715   32.1443   43.4088 H   0  0  0  0  0  0  0  0  0  0  0  0
   56.7171   32.7040   43.8893 H   0  0  0  0  0  0  0  0  0  0  0  0
   57.2899   32.3332   46.9520 H   0  0  0  0  0  0  0  0  0  0  0  0
   58.2549   33.9501   48.5921 H   0  0  0  0  0  0  0  0  0  0  0  0
   59.7653   35.7780   47.8078 H   0  0  0  0  0  0  0  0  0  0  0  0
   60.3131   35.9915   45.3808 H   0  0  0  0  0  0  0  0  0  0  0  0
   59.3513   34.3812   43.7329 H   0  0  0  0  0  0  0  0  0  0  0  0
   57.8994   30.0419   49.4047 H   0  0  0  0  0  0  0  0  0  0  0  0
   57.4437   31.7732   51.1390 H   0  0  0  0  0  0  0  0  0  0  0  0
   59.0800   33.6147   51.5265 H   0  0  0  0  0  0  0  0  0  0  0  0
   61.1623   33.7466   50.1630 H   0  0  0  0  0  0  0  0  0  0  0  0
   63.1940   31.6708   49.8063 H   0  0  0  0  0  0  0  0  0  0  0  0
   63.7332   31.0323   48.2218 H   0  0  0  0  0  0  0  0  0  0  0  0
   63.6297   33.9769   49.0870 H   0  0  0  0  0  0  0  0  0  0  0  0
   65.1042   32.9784   48.8001 H   0  0  0  0  0  0  0  0  0  0  0  0
   62.3369   34.6406   47.3630 H   0  0  0  0  0  0  0  0  0  0  0  0
   62.7451   34.1608   45.6693 H   0  0  0  0  0  0  0  0  0  0  0  0
   60.7634   32.9147   46.6321 H   0  0  0  0  0  0  0  0  0  0  0  0
   62.1040   31.8486   46.1070 H   0  0  0  0  0  0  0  0  0  0  0  0
  1  2  2  0
  2  3  1  0
  3  4  1  0
  4  5  1  0
  5  6  2  0
  5  7  1  0
  7  8  1  0
  8  9  2  0
  9 10  1  0
 10 11  2  0
 11 12  1  0
 12 13  2  0
  2 14  1  0
 14 15  1  0
 15 16  2  0
 16 17  1  0
 17 18  2  0
 18 19  1  0
 19 20  2  0
 20 21  1  0
 21 22  1  0
 22 23  1  0
 23 24  1  0
 24 25  1  0
 25 26  1  0
 13  8  1  0
 20 15  1  0
 26 21  1  0
  3 27  1  0
  3 28  1  0
  4 29  1  0
  7 30  1  0
  7 31  1  0
  9 32  1  0
 10 33  1  0
 11 34  1  0
 12 35  1  0
 13 36  1  0
 16 37  1  0
 17 38  1  0
 18 39  1  0
 19 40  1  0
 22 41  1  0
 22 42  1  0
 23 43  1  0
 23 44  1  0
 25 45  1  0
 25 46  1  0
 26 47  1  0
 26 48  1  0
M  CHG  1  14  -1
M  END
>  <UniqueID>  (20) 
19

>  <SMILES>  (20) 
O=C(CNC(=O)Cc1ccccc1)[N-]c1ccccc1N1CCOCC1

>  <Energy>  (20) 
56.700819195841234

>  <Genealogy>  (20) 
O=C(CNC(=O)Cc1ccccc1)[N-]c1ccccc1N1CCOCC1 (protonated)
O=C(CNC(=O)Cc1ccccc1)[N-]c1ccccc1N1CCOCC1 (3D coordinates assigned)
O=C(CNC(=O)Cc1ccccc1)[N-]c1ccccc1N1CCOCC1 (nonaromatic ring conformer: 56.700819195841234 kcal/mol)

>  <smiles>  (20) 
O=C(Cc1ccccc1)NCC(=O)Nc1ccccc1N1CCOCC1

>  <score_type>  (20) 
oracle

>  <origin>  (20) 
adg

>  <m_score__min__energy>  (20) 
-10.18

>  <m_primary>  (20) 
energy

$$$$
20:0
     RDKit          3D

 40 42  0  0  0  0  0  0  0  0999 V2000
   58.7110   32.8410   46.1200 H   0  0  0  0  0  0  0  0  0  0  0  0
   57.7130   32.6120   45.1530 S   0  0  0  0  0  0  0  0  0  0  0  0
   57.7450   30.8370   45.4410 C   0  0  0  0  0  0  0  0  0  0  0  0
   57.1390   30.0180   44.4810 C   0  0  0  0  0  0  0  0  0  0  0  0
   56.7073   30.4688   43.5752 H   0  0  0  0  0  0  0  0  0  0  0  0
   57.0770   28.6370   44.6610 C   0  0  0  0  0  0  0  0  0  0  0  0
   56.6185   28.0029   43.8879 H   0  0  0  0  0  0  0  0  0  0  0  0
   57.5980   28.0540   45.8260 C   0  0  0  0  0  0  0  0  0  0  0  0
   57.5740   26.6310   46.0310 N   0  0  0  0  0  0  0  0  0  0  0  0
   57.3130   25.7090   45.1480 C   0  0  0  0  0  0  0  0  0  0  0  0
   58.0327   25.5599   44.3296 H   0  0  0  0  0  0  0  0  0  0  0  0
   56.1070   24.8490   45.1780 C   0  0  0  0  0  0  0  0  0  0  0  0
   54.8810   25.3750   45.6100 C   0  0  0  0  0  0  0  0  0  0  0  0
   54.7880   26.6950   46.0370 O   0  0  0  0  0  0  0  0  0  0  0  0
   53.7720   24.5920   45.6240 N   0  0  0  0  0  0  0  0  0  0  0  0
   53.8220   23.2990   45.2130 C   0  0  0  0  0  0  0  0  0  0  0  0
   52.7830   22.5910   45.2410 O   0  0  0  0  0  0  0  0  0  0  0  0
   54.9900   22.7730   44.7630 N   0  0  0  0  0  0  0  0  0  0  0  0
   56.1260   23.5160   44.7260 C   0  0  0  0  0  0  0  0  0  0  0  0
   57.1810   23.0030   44.2670 O   0  0  0  0  0  0  0  0  0  0  0  0
   58.2380   28.8620   46.7710 C   0  0  0  0  0  0  0  0  0  0  0  0
   58.6866   28.3995   47.6625 H   0  0  0  0  0  0  0  0  0  0  0  0
   58.3180   30.2570   46.6010 C   0  0  0  0  0  0  0  0  0  0  0  0
   59.0060   31.0610   47.6430 C   0  0  0  0  0  0  0  0  0  0  0  0
   58.9050   32.3170   47.6580 O   0  0  0  0  0  0  0  0  0  0  0  0
   59.8200   30.4040   48.6230 N   0  0  0  0  0  0  0  0  0  0  0  0
   59.3110   29.9050   49.8960 C   0  0  0  0  0  0  0  0  0  0  0  0
   58.4779   29.2119   49.7074 H   0  0  0  0  0  0  0  0  0  0  0  0
   60.1214   29.3835   50.4264 H   0  0  0  0  0  0  0  0  0  0  0  0
   58.8230   31.0500   50.7480 C   0  0  0  0  0  0  0  0  0  0  0  0
   59.5010   32.2800   50.6980 C   0  0  0  0  0  0  0  0  0  0  0  0
   60.3850   32.3911   50.0528 H   0  0  0  0  0  0  0  0  0  0  0  0
   59.0590   33.3630   51.4630 C   0  0  0  0  0  0  0  0  0  0  0  0
   59.5970   34.3215   51.4203 H   0  0  0  0  0  0  0  0  0  0  0  0
   57.9360   33.2300   52.2810 C   0  0  0  0  0  0  0  0  0  0  0  0
   57.5893   34.0837   52.8819 H   0  0  0  0  0  0  0  0  0  0  0  0
   57.2520   32.0130   52.3370 C   0  0  0  0  0  0  0  0  0  0  0  0
   56.3675   31.9113   52.9830 H   0  0  0  0  0  0  0  0  0  0  0  0
   57.6870   30.9230   51.5750 C   0  0  0  0  0  0  0  0  0  0  0  0
   56.9860   29.7240   51.6460 O   0  0  0  0  0  0  0  0  0  0  0  0
  1  2  1  0
  2  3  1  0
  3  4  2  0
  4  5  1  0
  4  6  1  0
  6  7  1  0
  6  8  2  0
  8  9  1  0
  9 10  2  0
 10 11  1  0
 10 12  1  0
 12 13  2  0
 13 14  1  0
 13 15  1  0
 15 16  1  0
 16 17  2  0
 16 18  1  0
 18 19  1  0
 19 20  2  0
  8 21  1  0
 21 22  1  0
 21 23  2  0
 23 24  1  0
 24 25  2  0
 24 26  1  0
 26 27  1  0
 27 28  1  0
 27 29  1  0
 27 30  1  0
 30 31  2  0
 31 32  1  0
 31 33  1  0
 33 34  1  0
 33 35  2  0
 35 36  1  0
 35 37  1  0
 37 38  1  0
 37 39  2  0
 39 40  1  0
 23  3  1  0
 39 30  1  0
 19 12  1  0
M  CHG  5  14  -1  15  -1  18  -1  26  -1  40  -1
M  END
>  <UniqueID>  (21) 
20

>  <SMILES>  (21) 
O=C([N-]Cc1ccccc1[O-])c1cc(/N=C\c2c([O-])[n-]c(=O)[n-]c2=O)ccc1S

>  <Energy>  (21) 
59.94798336052202

>  <Genealogy>  (21) 
O=C([N-]Cc1ccccc1[O-])c1cc(N=Cc2c([O-])[n-]c(=O)[n-]c2=O)ccc1S (protonated)
O=C([N-]Cc1ccccc1[O-])c1cc(/N=C\c2c([O-])[n-]c(=O)[n-]c2=O)ccc1S (cis-trans isomerization)
O=C([N-]Cc1ccccc1[O-])c1cc(/N=C\c2c([O-])[n-]c(=O)[n-]c2=O)ccc1S (3D coordinates assigned)
O=C([N-]Cc1ccccc1[O-])c1cc(/N=C\c2c([O-])[n-]c(=O)[n-]c2=O)ccc1S (optimized conformer: 59.94798336052202 kcal/mol)

>  <smiles>  (21) 
O=C(NCc1ccccc1O)c1cc(N=Cc2c(O)[nH]c(=O)[nH]c2=O)ccc1S

>  <score_type>  (21) 
oracle

>  <origin>  (21) 
adg

>  <m_score__min__energy>  (21) 
-17.34

>  <m_primary>  (21) 
energy

$$$$
21:0
     RDKit          3D

 52 54  0  0  0  0  0  0  0  0999 V2000
   57.7550   32.4990   43.1840 O   0  0  0  0  0  0  0  0  0  0  0  0
   57.1020   31.9190   44.0940 C   0  0  0  0  0  0  0  0  0  0  0  0
   56.3370   30.6740   43.7790 C   0  0  0  0  0  0  0  0  0  0  0  0
   57.2990   29.5400   43.4080 C   0  0  0  0  0  0  0  0  0  0  0  0
   57.6900   28.7420   44.6220 C   0  0  0  0  0  0  0  0  0  0  0  0
   57.8190   29.3620   45.7620 N   0  0  0  0  0  0  0  0  0  0  0  0
   58.5030   28.9210   46.9490 C   0  0  0  0  0  0  0  0  0  0  0  0
   58.1590   27.8590   47.5380 O   0  0  0  0  0  0  0  0  0  0  0  0
   59.6420   29.7090   47.4700 C   0  0  0  0  0  0  0  0  0  0  0  0
   59.9460   29.7050   48.8470 C   0  0  0  0  0  0  0  0  0  0  0  0
   61.0140   30.4520   49.3390 C   0  0  0  0  0  0  0  0  0  0  0  0
   61.7950   31.2110   48.4660 C   0  0  0  0  0  0  0  0  0  0  0  0
   61.5060   31.2200   47.0990 C   0  0  0  0  0  0  0  0  0  0  0  0
   60.4390   30.4750   46.6000 C   0  0  0  0  0  0  0  0  0  0  0  0
   57.7710   27.2740   44.5060 C   0  0  0  0  0  0  0  0  0  0  0  0
   58.4190   26.7580   43.5580 O   0  0  0  0  0  0  0  0  0  0  0  0
   57.0970   26.4460   45.4610 N   0  0  0  0  0  0  0  0  0  0  0  0
   57.0670   25.0130   45.3740 C   0  0  0  0  0  0  0  0  0  0  0  0
   58.2660   24.3090   45.1840 C   0  0  0  0  0  0  0  0  0  0  0  0
   58.2550   22.9280   44.9910 C   0  0  0  0  0  0  0  0  0  0  0  0
   57.0490   22.2350   44.9710 C   0  0  0  0  0  0  0  0  0  0  0  0
   55.8470   22.9190   45.1590 C   0  0  0  0  0  0  0  0  0  0  0  0
   55.8370   24.3110   45.3710 C   0  0  0  0  0  0  0  0  0  0  0  0
   54.5450   24.9890   45.6330 C   0  0  0  0  0  0  0  0  0  0  0  0
   53.4640   24.3470   45.5590 O   0  0  0  0  0  0  0  0  0  0  0  0
   54.5030   26.3330   45.9880 O   0  0  0  0  0  0  0  0  0  0  0  0
   57.0860   32.4400   45.4280 N   0  0  0  0  0  0  0  0  0  0  0  0
   58.0850   33.2870   46.0170 C   0  0  0  0  0  0  0  0  0  0  0  0
   58.7100   34.3160   45.2860 C   0  0  0  0  0  0  0  0  0  0  0  0
   59.6500   35.1470   45.8980 C   0  0  0  0  0  0  0  0  0  0  0  0
   59.9680   34.9680   47.2460 C   0  0  0  0  0  0  0  0  0  0  0  0
   59.3400   33.9610   47.9830 C   0  0  0  0  0  0  0  0  0  0  0  0
   58.3950   33.1280   47.3760 C   0  0  0  0  0  0  0  0  0  0  0  0
   57.7890   32.1580   48.1040 F   0  0  0  0  0  0  0  0  0  0  0  0
   55.7480   30.3772   44.6593 H   0  0  0  0  0  0  0  0  0  0  0  0
   55.6684   30.8698   42.9278 H   0  0  0  0  0  0  0  0  0  0  0  0
   56.8071   28.8742   42.6836 H   0  0  0  0  0  0  0  0  0  0  0  0
   58.2077   29.9813   42.9726 H   0  0  0  0  0  0  0  0  0  0  0  0
   59.3345   29.1069   49.5386 H   0  0  0  0  0  0  0  0  0  0  0  0
   61.2417   30.4437   50.4151 H   0  0  0  0  0  0  0  0  0  0  0  0
   62.6378   31.8019   48.8541 H   0  0  0  0  0  0  0  0  0  0  0  0
   62.1238   31.8182   46.4131 H   0  0  0  0  0  0  0  0  0  0  0  0
   60.2194   30.4860   45.5222 H   0  0  0  0  0  0  0  0  0  0  0  0
   56.6570   26.9030   46.2890 H   0  0  0  0  0  0  0  0  0  0  0  0
   59.2230   24.8514   45.1873 H   0  0  0  0  0  0  0  0  0  0  0  0
   59.2021   22.3854   44.8543 H   0  0  0  0  0  0  0  0  0  0  0  0
   57.0427   21.1473   44.8069 H   0  0  0  0  0  0  0  0  0  0  0  0
   54.8971   22.3646   45.1414 H   0  0  0  0  0  0  0  0  0  0  0  0
   58.4558   34.4657   44.2263 H   0  0  0  0  0  0  0  0  0  0  0  0
   60.1403   35.9430   45.3183 H   0  0  0  0  0  0  0  0  0  0  0  0
   60.7124   35.6194   47.7271 H   0  0  0  0  0  0  0  0  0  0  0  0
   59.5899   33.8228   49.0453 H   0  0  0  0  0  0  0  0  0  0  0  0
  1  2  2  0
  2  3  1  0
  3  4  1  0
  4  5  1  0
  5  6  2  3
  6  7  1  0
  7  8  2  0
  7  9  1  0
  9 10  2  0
 10 11  1  0
 11 12  2  0
 12 13  1  0
 13 14  2  0
  5 15  1  0
 15 16  2  0
 15 17  1  0
 17 18  1  0
 18 19  2  0
 19 20  1  0
 20 21  2  0
 21 22  1  0
 22 23  2  0
 23 24  1  0
 24 25  2  0
 24 26  1  0
  2 27  1  0
 27 28  1  0
 28 29  2  0
 29 30  1  0
 30 31  2  0
 31 32  1  0
 32 33  2  0
 33 34  1  0
 14  9  1  0
 23 18  1  0
 33 28  1  0
  3 35  1  0
  3 36  1  0
  4 37  1  0
  4 38  1  0
 10 39  1  0
 11 40  1  0
 12 41  1  0
 13 42  1  0
 14 43  1  0
 17 44  1  0
 19 45  1  0
 20 46  1  0
 21 47  1  0
 22 48  1  0
 29 49  1  0
 30 50  1  0
 31 51  1  0
 32 52  1  0
M  CHG  2  26  -1  27  -1
M  END
>  <UniqueID>  (22) 
21

>  <SMILES>  (22) 
O=C(CCC(=NC(=O)c1ccccc1)C(=O)Nc1ccccc1C(=O)[O-])[N-]c1ccccc1F

>  <Energy>  (22) 
73.22584959602652

>  <Genealogy>  (22) 
O=C(CCC(=NC(=O)c1ccccc1)C(=O)Nc1ccccc1C(=O)[O-])[N-]c1ccccc1F (protonated)
O=C(CCC(=NC(=O)c1ccccc1)C(=O)Nc1ccccc1C(=O)[O-])[N-]c1ccccc1F (3D coordinates assigned)
O=C(CCC(=NC(=O)c1ccccc1)C(=O)Nc1ccccc1C(=O)[O-])[N-]c1ccccc1F (optimized conformer: 73.22584959602652 kcal/mol)

>  <smiles>  (22) 
O=C(CCC(=NC(=O)c1ccccc1)C(=O)Nc1ccccc1C(=O)O)Nc1ccccc1F

>  <score_type>  (22) 
oracle

>  <origin>  (22) 
adg

>  <m_score__min__energy>  (22) 
-13.609999999999999

>  <m_primary>  (22) 
energy

$$$$
22:0
     RDKit          3D

 33 35  0  0  0  0  0  0  0  0999 V2000
   54.7650   28.4050   44.4830 H   0  0  0  0  0  0  0  0  0  0  0  0
   55.1540   29.3660   44.6120 N   0  0  0  0  0  0  0  0  0  0  0  0
   56.3810   29.5560   44.9730 C   0  0  0  0  0  0  0  0  0  0  0  0
   56.8420   30.8140   45.1950 N   0  0  0  0  0  0  0  0  0  0  0  0
   58.1280   31.0470   45.5720 C   0  0  0  0  0  0  0  0  0  0  0  0
   58.5510   32.4510   45.7830 C   0  0  0  0  0  0  0  0  0  0  0  0
   58.8350   32.9070   47.0820 C   0  0  0  0  0  0  0  0  0  0  0  0
   58.7600   32.2144   47.9333 H   0  0  0  0  0  0  0  0  0  0  0  0
   59.2120   34.2350   47.2980 C   0  0  0  0  0  0  0  0  0  0  0  0
   59.4431   34.5816   48.3161 H   0  0  0  0  0  0  0  0  0  0  0  0
   59.2960   35.1240   46.2220 C   0  0  0  0  0  0  0  0  0  0  0  0
   59.5982   36.1678   46.3929 H   0  0  0  0  0  0  0  0  0  0  0  0
   58.9960   34.6860   44.9300 C   0  0  0  0  0  0  0  0  0  0  0  0
   59.0570   35.3869   44.0844 H   0  0  0  0  0  0  0  0  0  0  0  0
   58.6180   33.3570   44.7100 C   0  0  0  0  0  0  0  0  0  0  0  0
   58.3720   33.0193   43.6924 H   0  0  0  0  0  0  0  0  0  0  0  0
   58.9990   29.9520   45.7610 C   0  0  0  0  0  0  0  0  0  0  0  0
   60.3430   30.1320   46.2610 C   0  0  0  0  0  0  0  0  0  0  0  0
   61.4190   30.2760   46.6620 N   0  0  0  0  0  0  0  0  0  0  0  0
   58.5020   28.6590   45.5120 C   0  0  0  0  0  0  0  0  0  0  0  0
   59.5320   27.1980   45.6960 S   0  0  0  0  0  0  0  0  0  0  0  0
   58.1240   26.0890   45.6520 C   0  0  0  0  0  0  0  0  0  0  0  0
   57.7570   25.4690   44.4510 C   0  0  0  0  0  0  0  0  0  0  0  0
   58.3290   25.6687   43.5329 H   0  0  0  0  0  0  0  0  0  0  0  0
   56.6640   24.5960   44.4170 C   0  0  0  0  0  0  0  0  0  0  0  0
   56.3804   24.1057   43.4740 H   0  0  0  0  0  0  0  0  0  0  0  0
   55.9320   24.3470   45.5830 C   0  0  0  0  0  0  0  0  0  0  0  0
   54.4390   23.1550   45.5370 Br  0  0  0  0  0  0  0  0  0  0  0  0
   56.2920   24.9710   46.7820 C   0  0  0  0  0  0  0  0  0  0  0  0
   55.7151   24.7758   47.6980 H   0  0  0  0  0  0  0  0  0  0  0  0
   57.3850   25.8430   46.8170 C   0  0  0  0  0  0  0  0  0  0  0  0
   57.6647   26.3361   47.7597 H   0  0  0  0  0  0  0  0  0  0  0  0
   57.2100   28.4960   45.1280 N   0  0  0  0  0  0  0  0  0  0  0  0
  1  2  1  0
  2  3  2  0
  3  4  1  0
  4  5  2  0
  5  6  1  0
  6  7  2  0
  7  8  1  0
  7  9  1  0
  9 10  1  0
  9 11  2  0
 11 12  1  0
 11 13  1  0
 13 14  1  0
 13 15  2  0
 15 16  1  0
  5 17  1  0
 17 18  1  0
 18 19  3  0
 17 20  2  0
 20 21  1  0
 21 22  1  0
 22 23  2  0
 23 24  1  0
 23 25  1  0
 25 26  1  0
 25 27  2  0
 27 28  1  0
 27 29  1  0
 29 30  1  0
 29 31  2  0
 31 32  1  0
 20 33  1  0
 33  3  1  0
 15  6  1  0
 31 22  1  0
M  CHG  1  33  -1
M  END
>  <UniqueID>  (23) 
22

>  <SMILES>  (23) 
[H]/N=c1\nc(-c2ccccc2)c(C#N)c(Sc2ccc(Br)cc2)[n-]1

>  <Energy>  (23) 
38.96279181581771

>  <Genealogy>  (23) 
N#Cc1c(-c2ccccc2)nc(=N)[n-]c1Sc1ccc(Br)cc1 (protonated)
[H]/N=c1\nc(-c2ccccc2)c(C#N)c(Sc2ccc(Br)cc2)[n-]1 (cis-trans isomerization)
[H]/N=c1\nc(-c2ccccc2)c(C#N)c(Sc2ccc(Br)cc2)[n-]1 (3D coordinates assigned)
[H]/N=c1\nc(-c2ccccc2)c(C#N)c(Sc2ccc(Br)cc2)[n-]1 (optimized conformer: 38.96279181581771 kcal/mol)

>  <smiles>  (23) 
N#Cc1c(-c2ccccc2)nc(=N)[nH]c1Sc1ccc(Br)cc1

>  <score_type>  (23) 
oracle

>  <origin>  (23) 
adg

>  <m_score__min__energy>  (23) 
-10.220000000000001

>  <m_primary>  (23) 
energy

$$$$
23:0
     RDKit          3D

 33 34  0  0  0  0  0  0  0  0999 V2000
   56.6440   30.3130   43.7460 C   0  0  0  0  0  0  0  0  0  0  0  0
   57.3710   30.2140   44.8830 C   0  0  0  0  0  0  0  0  0  0  0  0
   57.8390   31.4120   45.4930 C   0  0  0  0  0  0  0  0  0  0  0  0
   57.5350   32.7030   44.9350 N   0  0  0  0  0  0  0  0  0  0  0  0
   57.0170   33.7490   45.8150 C   0  0  0  0  0  0  0  0  0  0  0  0
   58.1780   33.0920   43.6820 C   0  0  0  0  0  0  0  0  0  0  0  0
   58.6320   31.3610   46.6410 C   0  0  0  0  0  0  0  0  0  0  0  0
   58.9770   30.1430   47.2080 C   0  0  0  0  0  0  0  0  0  0  0  0
   59.9730   30.1040   48.6520 Cl  0  0  0  0  0  0  0  0  0  0  0  0
   58.5220   28.9550   46.6440 C   0  0  0  0  0  0  0  0  0  0  0  0
   57.7100   28.9480   45.4840 C   0  0  0  0  0  0  0  0  0  0  0  0
   57.2410   27.7610   45.0100 C   0  0  0  0  0  0  0  0  0  0  0  0
   57.1850   26.5000   45.7880 C   0  0  0  0  0  0  0  0  0  0  0  0
   55.9540   26.0060   46.2430 C   0  0  0  0  0  0  0  0  0  0  0  0
   54.7790   26.7140   46.0050 O   0  0  0  0  0  0  0  0  0  0  0  0
   55.9030   24.8320   46.9280 N   0  0  0  0  0  0  0  0  0  0  0  0
   57.0330   24.1150   47.1710 C   0  0  0  0  0  0  0  0  0  0  0  0
   56.9700   23.0320   47.8110 O   0  0  0  0  0  0  0  0  0  0  0  0
   58.2320   24.5620   46.7190 N   0  0  0  0  0  0  0  0  0  0  0  0
   58.3340   25.7270   46.0290 C   0  0  0  0  0  0  0  0  0  0  0  0
   59.4600   26.0970   45.6040 O   0  0  0  0  0  0  0  0  0  0  0  0
   56.2689   29.4045   43.2521 H   0  0  0  0  0  0  0  0  0  0  0  0
   56.4281   31.3020   43.3156 H   0  0  0  0  0  0  0  0  0  0  0  0
   57.1641   33.4519   46.8638 H   0  0  0  0  0  0  0  0  0  0  0  0
   57.5534   34.6897   45.6217 H   0  0  0  0  0  0  0  0  0  0  0  0
   55.9437   33.8925   45.6217 H   0  0  0  0  0  0  0  0  0  0  0  0
   59.1003   33.6500   43.9010 H   0  0  0  0  0  0  0  0  0  0  0  0
   58.4238   32.1910   43.1008 H   0  0  0  0  0  0  0  0  0  0  0  0
   57.4940   33.7279   43.1008 H   0  0  0  0  0  0  0  0  0  0  0  0
   58.9865   32.2956   47.1002 H   0  0  0  0  0  0  0  0  0  0  0  0
   58.7998   27.9984   47.1105 H   0  0  0  0  0  0  0  0  0  0  0  0
   56.8764   27.7356   43.9725 H   0  0  0  0  0  0  0  0  0  0  0  0
   54.9810   24.4780   47.2720 H   0  0  0  0  0  0  0  0  0  0  0  0
  1  2  2  0
  2  3  1  0
  3  4  1  0
  4  5  1  0
  4  6  1  0
  3  7  2  0
  7  8  1  0
  8  9  1  0
  8 10  2  0
 10 11  1  0
 11 12  2  3
 12 13  1  0
 13 14  2  0
 14 15  1  0
 14 16  1  0
 16 17  1  0
 17 18  2  0
 17 19  1  0
 19 20  1  0
 20 21  2  0
 11  2  1  0
 20 13  1  0
  1 22  1  0
  1 23  1  0
  5 24  1  0
  5 25  1  0
  5 26  1  0
  6 27  1  0
  6 28  1  0
  6 29  1  0
  7 30  1  0
 10 31  1  0
 12 32  1  0
 16 33  1  0
M  CHG  2  15  -1  19  -1
M  END
>  <UniqueID>  (24) 
23

>  <SMILES>  (24) 
C=c1c(N(C)C)cc(Cl)cc1=Cc1c([O-])[nH]c(=O)[n-]c1=O

>  <Energy>  (24) 
59.54416696597847

>  <Genealogy>  (24) 
C=c1c(N(C)C)cc(Cl)cc1=Cc1c([O-])[nH]c(=O)[n-]c1=O (protonated)
C=c1c(N(C)C)cc(Cl)cc1=Cc1c([O-])[nH]c(=O)[n-]c1=O (3D coordinates assigned)
C=c1c(N(C)C)cc(Cl)cc1=Cc1c([O-])[nH]c(=O)[n-]c1=O (optimized conformer: 59.54416696597847 kcal/mol)

>  <smiles>  (24) 
C=c1c(N(C)C)cc(Cl)cc1=Cc1c(O)[nH]c(=O)[nH]c1=O

>  <score_type>  (24) 
oracle

>  <origin>  (24) 
adg

>  <m_score__min__energy>  (24) 
-12.59

>  <m_primary>  (24) 
energy

$$$$
24:0
     RDKit          3D

 48 49  0  0  0  0  0  0  0  0999 V2000
   59.9770   34.5520   48.7460 C   0  0  0  0  0  0  0  0  0  0  0  0
   59.4200   33.8720   47.5300 C   0  0  0  0  0  0  0  0  0  0  0  0
   59.0590   32.5170   47.5770 C   0  0  0  0  0  0  0  0  0  0  0  0
   58.5130   31.8940   46.4480 C   0  0  0  0  0  0  0  0  0  0  0  0
   58.3030   32.6230   45.2670 C   0  0  0  0  0  0  0  0  0  0  0  0
   57.7560   31.9370   44.0470 C   0  0  0  0  0  0  0  0  0  0  0  0
   56.4410   31.3930   44.3480 N   0  0  0  0  0  0  0  0  0  0  0  0
   56.1670   29.9910   44.3870 C   0  0  0  0  0  0  0  0  0  0  0  0
   55.1090   29.5680   44.9210 O   0  0  0  0  0  0  0  0  0  0  0  0
   57.1530   29.0120   43.8230 C   0  0  0  0  0  0  0  0  0  0  0  0
   57.2600   27.8210   44.6650 N   0  0  0  0  0  0  0  0  0  0  0  0
   58.5210   27.3150   45.1230 C   0  0  0  0  0  0  0  0  0  0  0  0
   59.5920   27.8860   44.7800 O   0  0  0  0  0  0  0  0  0  0  0  0
   58.5720   26.0760   45.9800 C   0  0  1  0  0  0  0  0  0  0  0  0
   59.8700   26.0140   46.8060 C   0  0  0  0  0  0  0  0  0  0  0  0
   59.9160   27.0330   47.9190 C   0  0  0  0  0  0  0  0  0  0  0  0
   60.6850   26.7920   49.0750 C   0  0  0  0  0  0  0  0  0  0  0  0
   60.7600   27.7580   50.0860 C   0  0  0  0  0  0  0  0  0  0  0  0
   60.0700   28.9670   49.9510 C   0  0  0  0  0  0  0  0  0  0  0  0
   59.3040   29.2130   48.8070 C   0  0  0  0  0  0  0  0  0  0  0  0
   59.2260   28.2520   47.7930 C   0  0  0  0  0  0  0  0  0  0  0  0
   57.4000   26.0130   46.8550 N   0  0  0  0  0  0  0  0  0  0  0  0
   56.0990   25.6420   46.3920 C   0  0  0  0  0  0  0  0  0  0  0  0
   55.1800   26.6540   46.0000 N   0  0  0  0  0  0  0  0  0  0  0  0
   55.7600   24.4290   46.3380 O   0  0  0  0  0  0  0  0  0  0  0  0
   58.6600   33.9820   45.2230 C   0  0  0  0  0  0  0  0  0  0  0  0
   59.2050   34.6040   46.3500 C   0  0  0  0  0  0  0  0  0  0  0  0
   59.5805   34.0680   49.6507 H   0  0  0  0  0  0  0  0  0  0  0  0
   61.0742   34.4741   48.7394 H   0  0  0  0  0  0  0  0  0  0  0  0
   59.6846   35.6124   48.7394 H   0  0  0  0  0  0  0  0  0  0  0  0
   59.2053   31.9423   48.5035 H   0  0  0  0  0  0  0  0  0  0  0  0
   58.2472   30.8273   46.4868 H   0  0  0  0  0  0  0  0  0  0  0  0
   57.6737   32.6622   43.2240 H   0  0  0  0  0  0  0  0  0  0  0  0
   58.4319   31.1217   43.7496 H   0  0  0  0  0  0  0  0  0  0  0  0
   56.8243   28.7114   42.8172 H   0  0  0  0  0  0  0  0  0  0  0  0
   58.1392   29.4974   43.7811 H   0  0  0  0  0  0  0  0  0  0  0  0
   56.3860   27.3110   44.9220 H   0  0  0  0  0  0  0  0  0  0  0  0
   58.5619   25.2027   45.3113 H   0  0  0  0  0  0  0  0  0  0  0  0
   59.9559   25.0101   47.2474 H   0  0  0  0  0  0  0  0  0  0  0  0
   60.7029   26.2379   46.1232 H   0  0  0  0  0  0  0  0  0  0  0  0
   61.2283   25.8417   49.1836 H   0  0  0  0  0  0  0  0  0  0  0  0
   61.3617   27.5659   50.9866 H   0  0  0  0  0  0  0  0  0  0  0  0
   60.1298   29.7253   50.7456 H   0  0  0  0  0  0  0  0  0  0  0  0
   58.7615   30.1644   48.7041 H   0  0  0  0  0  0  0  0  0  0  0  0
   58.6232   28.4505   46.8946 H   0  0  0  0  0  0  0  0  0  0  0  0
   55.4900   27.6470   45.9100 H   0  0  0  0  0  0  0  0  0  0  0  0
   58.5099   34.5582   44.2981 H   0  0  0  0  0  0  0  0  0  0  0  0
   59.4668   35.6717   46.3129 H   0  0  0  0  0  0  0  0  0  0  0  0
  1  2  1  0
  2  3  2  0
  3  4  1  0
  4  5  2  0
  5  6  1  0
  6  7  1  0
  7  8  1  0
  8  9  2  0
  8 10  1  0
 10 11  1  0
 11 12  1  0
 12 13  2  0
 12 14  1  0
 14 15  1  0
 15 16  1  0
 16 17  2  0
 17 18  1  0
 18 19  2  0
 19 20  1  0
 20 21  2  0
 14 22  1  0
 22 23  1  0
 23 24  1  0
 23 25  2  0
  5 26  1  0
 26 27  2  0
 27  2  1  0
 21 16  1  0
  1 28  1  0
  1 29  1  0
  1 30  1  0
  3 31  1  0
  4 32  1  0
  6 33  1  0
  6 34  1  0
 10 35  1  0
 10 36  1  0
 11 37  1  0
 14 38  1  6
 15 39  1  0
 15 40  1  0
 17 41  1  0
 18 42  1  0
 19 43  1  0
 20 44  1  0
 21 45  1  0
 24 46  1  0
 26 47  1  0
 27 48  1  0
M  CHG  3   7  -1  22  -1  24  -1
M  END
>  <UniqueID>  (25) 
24

>  <SMILES>  (25) 
Cc1ccc(C[N-]C(=O)CNC(=O)[C@@H](Cc2ccccc2)[N-]C([NH-])=O)cc1

>  <Energy>  (25) 
34.677237930947484

>  <Genealogy>  (25) 
Cc1ccc(C[N-]C(=O)CNC(=O)C(Cc2ccccc2)[N-]C([NH-])=O)cc1 (protonated)
Cc1ccc(C[N-]C(=O)CNC(=O)[C@@H](Cc2ccccc2)[N-]C([NH-])=O)cc1 (chirality)
Cc1ccc(C[N-]C(=O)CNC(=O)[C@@H](Cc2ccccc2)[N-]C([NH-])=O)cc1 (3D coordinates assigned)
Cc1ccc(C[N-]C(=O)CNC(=O)[C@@H](Cc2ccccc2)[N-]C([NH-])=O)cc1 (optimized conformer: 34.677237930947484 kcal/mol)

>  <smiles>  (25) 
Cc1ccc(CNC(=O)CNC(=O)C(Cc2ccccc2)NC(N)=O)cc1

>  <score_type>  (25) 
oracle

>  <origin>  (25) 
adg

>  <m_score__min__energy>  (25) 
-14.800000000000001

>  <m_primary>  (25) 
energy

$$$$
25:0
     RDKit          3D

 55 57  0  0  0  0  0  0  0  0999 V2000
   58.0070   31.8660   45.0000 C   0  0  0  0  0  0  0  0  0  0  0  0
   58.3010   33.3680   45.0240 C   0  0  0  0  0  0  0  0  0  0  0  0
   57.0080   34.1710   45.1830 C   0  0  0  0  0  0  0  0  0  0  0  0
   59.4450   33.7580   46.3500 S   0  0  0  0  0  0  0  0  0  0  0  0
   59.0070   35.0000   47.0740 O   0  0  0  0  0  0  0  0  0  0  0  0
   60.8110   33.9950   45.7710 O   0  0  0  0  0  0  0  0  0  0  0  0
   59.5430   32.4340   47.4680 N   0  0  0  0  0  0  0  0  0  0  0  0
   59.4450   32.5330   48.8950 C   0  0  0  0  0  0  0  0  0  0  0  0
   60.3450   33.3630   49.5680 C   0  0  0  0  0  0  0  0  0  0  0  0
   60.2910   33.4900   50.9570 C   0  0  0  0  0  0  0  0  0  0  0  0
   59.3380   32.7820   51.7020 C   0  0  0  0  0  0  0  0  0  0  0  0
   59.2540   33.0120   53.1200 N   0  0  0  0  0  0  0  0  0  0  0  0
   59.7030   31.9830   54.0660 C   0  0  0  0  0  0  0  0  0  0  0  0
   60.6340   32.5860   55.1460 C   0  0  0  0  0  0  0  0  0  0  0  0
   60.6480   34.0050   55.1750 O   0  0  0  0  0  0  0  0  0  0  0  0
   59.3370   34.5160   55.0600 C   0  0  0  0  0  0  0  0  0  0  0  0
   58.8520   34.3320   53.6230 C   0  0  0  0  0  0  0  0  0  0  0  0
   58.4320   31.9240   51.0340 C   0  0  0  0  0  0  0  0  0  0  0  0
   57.4470   31.1020   51.7660 C   0  0  0  0  0  0  0  0  0  0  0  0
   57.8470   30.1230   52.4540 O   0  0  0  0  0  0  0  0  0  0  0  0
   56.0510   31.4360   51.7340 N   0  0  0  0  0  0  0  0  0  0  0  0
   55.0350   30.6170   52.3910 C   0  0  0  0  0  0  0  0  0  0  0  0
   53.7340   30.7030   51.6400 C   0  0  0  0  0  0  0  0  0  0  0  0
   53.4300   29.7780   50.6270 C   0  0  0  0  0  0  0  0  0  0  0  0
   52.2090   29.8500   49.9520 C   0  0  0  0  0  0  0  0  0  0  0  0
   51.2810   30.8400   50.2840 C   0  0  0  0  0  0  0  0  0  0  0  0
   51.5730   31.7620   51.2950 C   0  0  0  0  0  0  0  0  0  0  0  0
   50.6490   32.7450   51.6270 O   0  0  0  0  0  0  0  0  0  0  0  0
   52.7950   31.6940   51.9720 C   0  0  0  0  0  0  0  0  0  0  0  0
   58.4820   31.8230   49.6330 C   0  0  0  0  0  0  0  0  0  0  0  0
   57.9335   31.4903   46.0312 H   0  0  0  0  0  0  0  0  0  0  0  0
   57.0567   31.6867   44.4758 H   0  0  0  0  0  0  0  0  0  0  0  0
   58.8196   31.3417   44.4758 H   0  0  0  0  0  0  0  0  0  0  0  0
   58.7638   33.6451   44.0653 H   0  0  0  0  0  0  0  0  0  0  0  0
   56.7897   34.3065   46.2526 H   0  0  0  0  0  0  0  0  0  0  0  0
   57.1263   35.1548   44.7054 H   0  0  0  0  0  0  0  0  0  0  0  0
   56.1786   33.6288   44.7054 H   0  0  0  0  0  0  0  0  0  0  0  0
   61.1026   33.9212   48.9984 H   0  0  0  0  0  0  0  0  0  0  0  0
   61.0030   34.1519   51.4717 H   0  0  0  0  0  0  0  0  0  0  0  0
   58.8246   31.5384   54.5566 H   0  0  0  0  0  0  0  0  0  0  0  0
   60.2639   31.2178   53.5093 H   0  0  0  0  0  0  0  0  0  0  0  0
   60.3009   32.2240   56.1299 H   0  0  0  0  0  0  0  0  0  0  0  0
   61.6563   32.2646   54.8977 H   0  0  0  0  0  0  0  0  0  0  0  0
   58.6692   33.9744   55.7462 H   0  0  0  0  0  0  0  0  0  0  0  0
   59.3325   35.5853   55.3182 H   0  0  0  0  0  0  0  0  0  0  0  0
   57.7553   34.4132   53.5959 H   0  0  0  0  0  0  0  0  0  0  0  0
   59.3007   35.1109   52.9890 H   0  0  0  0  0  0  0  0  0  0  0  0
   55.7480   32.3230   51.2740 H   0  0  0  0  0  0  0  0  0  0  0  0
   55.3720   29.5702   52.4156 H   0  0  0  0  0  0  0  0  0  0  0  0
   54.8833   30.9864   53.4159 H   0  0  0  0  0  0  0  0  0  0  0  0
   54.1560   28.9944   50.3645 H   0  0  0  0  0  0  0  0  0  0  0  0
   51.9778   29.1255   49.1573 H   0  0  0  0  0  0  0  0  0  0  0  0
   50.3206   30.8947   49.7505 H   0  0  0  0  0  0  0  0  0  0  0  0
   53.0218   32.4192   52.7674 H   0  0  0  0  0  0  0  0  0  0  0  0
   57.7593   31.1810   49.1080 H   0  0  0  0  0  0  0  0  0  0  0  0
  1  2  1  0
  2  3  1  0
  2  4  1  0
  4  5  2  0
  4  6  2  0
  4  7  1  0
  7  8  1  0
  8  9  2  0
  9 10  1  0
 10 11  2  0
 11 12  1  0
 12 13  1  0
 13 14  1  0
 14 15  1  0
 15 16  1  0
 16 17  1  0
 11 18  1  0
 18 19  1  0
 19 20  2  0
 19 21  1  0
 21 22  1  0
 22 23  1  0
 23 24  2  0
 24 25  1  0
 25 26  2  0
 26 27  1  0
 27 28  1  0
 27 29  2  0
 18 30  2  0
 30  8  1  0
 17 12  1  0
 29 23  1  0
  1 31  1  0
  1 32  1  0
  1 33  1  0
  2 34  1  0
  3 35  1  0
  3 36  1  0
  3 37  1  0
  9 38  1  0
 10 39  1  0
 13 40  1  0
 13 41  1  0
 14 42  1  0
 14 43  1  0
 16 44  1  0
 16 45  1  0
 17 46  1  0
 17 47  1  0
 21 48  1  0
 22 49  1  0
 22 50  1  0
 24 51  1  0
 25 52  1  0
 26 53  1  0
 29 54  1  0
 30 55  1  0
M  CHG  2   7  -1  28  -1
M  END
>  <UniqueID>  (26) 
25

>  <SMILES>  (26) 
CC(C)S(=O)(=O)[N-]c1ccc(N2CCOCC2)c(C(=O)NCc2cccc([O-])c2)c1

>  <Energy>  (26) 
63.52307724744713

>  <Genealogy>  (26) 
CC(C)S(=O)(=O)[N-]c1ccc(N2CCOCC2)c(C(=O)NCc2cccc([O-])c2)c1 (protonated)
CC(C)S(=O)(=O)[N-]c1ccc(N2CCOCC2)c(C(=O)NCc2cccc([O-])c2)c1 (3D coordinates assigned)
CC(C)S(=O)(=O)[N-]c1ccc(N2CCOCC2)c(C(=O)NCc2cccc([O-])c2)c1 (nonaromatic ring conformer: 63.52307724744713 kcal/mol)

>  <smiles>  (26) 
CC(C)S(=O)(=O)Nc1ccc(N2CCOCC2)c(C(=O)NCc2cccc(O)c2)c1

>  <score_type>  (26) 
oracle

>  <origin>  (26) 
adg

>  <m_score__min__energy>  (26) 
-13.529999999999999

>  <m_primary>  (26) 
energy

$$$$
26:0
     RDKit          3D

 40 42  0  0  0  0  0  0  0  0999 V2000
   56.6530   29.3760   42.8190 O   0  0  0  0  0  0  0  0  0  0  0  0
   56.6950   29.7340   44.2780 S   0  0  0  0  0  0  0  0  0  0  0  0
   55.8570   30.9560   44.5240 O   0  0  0  0  0  0  0  0  0  0  0  0
   58.3240   30.0490   44.7540 N   0  0  0  0  0  0  0  0  0  0  0  0
   58.9020   29.3400   45.6710 C   0  0  0  0  0  0  0  0  0  0  0  0
   60.3170   29.6470   46.0580 C   0  0  0  0  0  0  0  0  0  0  0  0
   60.3390   30.5750   47.2770 C   0  0  0  0  0  0  0  0  0  0  0  0
   59.9930   31.9890   46.8810 C   0  0  0  0  0  0  0  0  0  0  0  0
   61.0330   32.9170   46.6920 C   0  0  0  0  0  0  0  0  0  0  0  0
   60.7550   34.2320   46.3140 C   0  0  0  0  0  0  0  0  0  0  0  0
   59.4350   34.6360   46.1110 C   0  0  0  0  0  0  0  0  0  0  0  0
   58.3910   33.7240   46.2780 C   0  0  0  0  0  0  0  0  0  0  0  0
   58.6550   32.4010   46.6530 C   0  0  0  0  0  0  0  0  0  0  0  0
   57.5710   31.5290   46.7820 O   0  0  0  0  0  0  0  0  0  0  0  0
   58.2290   28.2250   46.2770 N   0  0  0  0  0  0  0  0  0  0  0  0
   57.1420   27.4830   45.6070 C   0  0  0  0  0  0  0  0  0  0  0  0
   57.6800   26.7400   44.3400 C   0  0  0  0  0  0  0  0  0  0  0  0
   58.1380   25.2940   44.5790 C   0  0  0  0  0  0  0  0  0  0  0  0
   59.0020   25.1300   46.1700 S   0  0  0  0  0  0  0  0  0  0  0  0
   57.5150   25.4480   47.1960 C   0  0  0  0  0  0  0  0  0  0  0  0
   56.5190   26.4670   46.5960 C   0  0  0  0  0  0  0  0  0  0  0  0
   56.0720   28.4150   45.2220 N   0  0  0  0  0  0  0  0  0  0  0  0
   60.8384   28.7103   46.3042 H   0  0  0  0  0  0  0  0  0  0  0  0
   60.8208   30.1453   45.2166 H   0  0  0  0  0  0  0  0  0  0  0  0
   59.6060   30.2178   48.0153 H   0  0  0  0  0  0  0  0  0  0  0  0
   61.3513   30.5674   47.7073 H   0  0  0  0  0  0  0  0  0  0  0  0
   62.0764   32.6034   46.8436 H   0  0  0  0  0  0  0  0  0  0  0  0
   61.5770   34.9498   46.1762 H   0  0  0  0  0  0  0  0  0  0  0  0
   59.2167   35.6739   45.8192 H   0  0  0  0  0  0  0  0  0  0  0  0
   57.3526   34.0475   46.1136 H   0  0  0  0  0  0  0  0  0  0  0  0
   57.0300   31.1870   46.0000 H   0  0  0  0  0  0  0  0  0  0  0  0
   58.5790   27.9130   47.2110 H   0  0  0  0  0  0  0  0  0  0  0  0
   56.8773   26.7235   43.5880 H   0  0  0  0  0  0  0  0  0  0  0  0
   58.5727   27.2947   44.0153 H   0  0  0  0  0  0  0  0  0  0  0  0
   57.2575   24.6346   44.5796 H   0  0  0  0  0  0  0  0  0  0  0  0
   58.8340   25.0126   43.7750 H   0  0  0  0  0  0  0  0  0  0  0  0
   56.9856   24.4940   47.3363 H   0  0  0  0  0  0  0  0  0  0  0  0
   57.8767   25.8863   48.1379 H   0  0  0  0  0  0  0  0  0  0  0  0
   55.7367   25.9069   46.0628 H   0  0  0  0  0  0  0  0  0  0  0  0
   56.1335   27.0560   47.4413 H   0  0  0  0  0  0  0  0  0  0  0  0
  1  2  2  0
  2  3  2  0
  2  4  1  0
  4  5  2  0
  5  6  1  0
  6  7  1  0
  7  8  1  0
  8  9  2  0
  9 10  1  0
 10 11  2  0
 11 12  1  0
 12 13  2  0
 13 14  1  0
  5 15  1  0
 15 16  1  0
 16 17  1  0
 17 18  1  0
 18 19  1  0
 19 20  1  0
 20 21  1  0
 16 22  1  0
 22  2  1  0
 13  8  1  0
 21 16  1  0
  6 23  1  0
  6 24  1  0
  7 25  1  0
  7 26  1  0
  9 27  1  0
 10 28  1  0
 11 29  1  0
 12 30  1  0
 14 31  1  0
 15 32  1  0
 17 33  1  0
 17 34  1  0
 18 35  1  0
 18 36  1  0
 20 37  1  0
 20 38  1  0
 21 39  1  0
 21 40  1  0
M  CHG  1  22  -1
M  END
>  <UniqueID>  (27) 
26

>  <SMILES>  (27) 
O=S1(=O)N=C(CCc2ccccc2O)NC2(CCSCC2)[N-]1

>  <Energy>  (27) 
44.43961062019017

>  <Genealogy>  (27) 
O=S1(=O)N=C(CCc2ccccc2O)NC2(CCSCC2)[N-]1 (protonated)
O=S1(=O)N=C(CCc2ccccc2O)NC2(CCSCC2)[N-]1 (3D coordinates assigned)
O=S1(=O)N=C(CCc2ccccc2O)NC2(CCSCC2)[N-]1 (nonaromatic ring conformer: 44.43961062019017 kcal/mol)

>  <smiles>  (27) 
O=S1(=O)N=C(CCc2ccccc2O)NC2(CCSCC2)N1

>  <score_type>  (27) 
oracle

>  <origin>  (27) 
adg

>  <m_score__min__energy>  (27) 
-9.2200000000000006

>  <m_primary>  (27) 
energy

$$$$
27:0
     RDKit          3D

 53 56  0  0  0  0  0  0  0  0999 V2000
   56.8420   29.5220   45.5790 O   0  0  0  0  0  0  0  0  0  0  0  0
   57.6770   29.2200   44.6420 C   0  0  0  0  0  0  0  0  0  0  0  0
   58.4930   30.2760   44.2130 N   0  0  0  0  0  0  0  0  0  0  0  0
   58.4370   31.6020   44.7640 C   0  0  0  0  0  0  0  0  0  0  0  0
   57.7120   32.5240   44.0110 C   0  0  0  0  0  0  0  0  0  0  0  0
   57.6470   33.8140   44.4930 C   0  0  0  0  0  0  0  0  0  0  0  0
   58.2830   34.1500   45.6770 C   0  0  0  0  0  0  0  0  0  0  0  0
   58.9990   33.2470   46.4260 C   0  0  0  0  0  0  0  0  0  0  0  0
   59.6880   33.5470   47.6570 C   0  0  0  0  0  0  0  0  0  0  0  0
   58.9860   33.8730   48.6560 O   0  0  0  0  0  0  0  0  0  0  0  0
   61.0930   33.5090   47.8530 N   0  0  0  0  0  0  0  0  0  0  0  0
   61.5660   33.8480   49.1800 C   0  0  0  0  0  0  0  0  0  0  0  0
   63.0090   34.1660   49.2880 C   0  0  0  0  0  0  0  0  0  0  0  0
   63.8540   33.4840   48.2560 C   0  0  0  0  0  0  0  0  0  0  0  0
   63.3310   33.7740   46.8630 C   0  0  0  0  0  0  0  0  0  0  0  0
   61.9560   33.1420   46.7540 C   0  0  0  0  0  0  0  0  0  0  0  0
   59.0660   31.9420   45.9400 C   0  0  0  0  0  0  0  0  0  0  0  0
   57.6470   27.8650   44.1760 C   0  0  0  0  0  0  0  0  0  0  0  0
   57.8720   27.5790   42.8530 N   0  0  0  0  0  0  0  0  0  0  0  0
   57.7980   26.2880   42.6460 N   0  0  0  0  0  0  0  0  0  0  0  0
   57.5200   25.6260   43.8190 C   0  0  0  0  0  0  0  0  0  0  0  0
   57.3870   24.2040   43.8400 C   0  0  0  0  0  0  0  0  0  0  0  0
   56.4380   23.6260   42.9910 C   0  0  0  0  0  0  0  0  0  0  0  0
   56.2660   22.2770   42.8520 C   0  0  0  0  0  0  0  0  0  0  0  0
   57.0420   21.3910   43.5630 C   0  0  0  0  0  0  0  0  0  0  0  0
   57.9850   21.9230   44.4060 C   0  0  0  0  0  0  0  0  0  0  0  0
   58.1600   23.3100   44.5460 C   0  0  0  0  0  0  0  0  0  0  0  0
   57.4230   26.6310   44.7600 C   0  0  0  0  0  0  0  0  0  0  0  0
   57.0590   26.4810   46.1750 C   0  0  0  0  0  0  0  0  0  0  0  0
   55.6400   26.4170   46.3100 F   0  0  0  0  0  0  0  0  0  0  0  0
   57.3280   25.1110   46.5100 F   0  0  0  0  0  0  0  0  0  0  0  0
   57.6760   27.2310   47.0850 F   0  0  0  0  0  0  0  0  0  0  0  0
   59.1630   30.1350   43.4550 H   0  0  0  0  0  0  0  0  0  0  0  0
   57.2138   32.2352   43.0738 H   0  0  0  0  0  0  0  0  0  0  0  0
   57.0878   34.5796   43.9352 H   0  0  0  0  0  0  0  0  0  0  0  0
   58.2116   35.1879   46.0343 H   0  0  0  0  0  0  0  0  0  0  0  0
   61.0001   34.7255   49.5262 H   0  0  0  0  0  0  0  0  0  0  0  0
   61.4119   32.9468   49.7916 H   0  0  0  0  0  0  0  0  0  0  0  0
   63.1345   35.2531   49.1766 H   0  0  0  0  0  0  0  0  0  0  0  0
   63.3458   33.8035   50.2704 H   0  0  0  0  0  0  0  0  0  0  0  0
   64.8886   33.8487   48.3371 H   0  0  0  0  0  0  0  0  0  0  0  0
   63.8191   32.3983   48.4295 H   0  0  0  0  0  0  0  0  0  0  0  0
   63.2588   34.8605   46.7071 H   0  0  0  0  0  0  0  0  0  0  0  0
   64.0089   33.3632   46.1003 H   0  0  0  0  0  0  0  0  0  0  0  0
   61.4896   33.4706   45.8135 H   0  0  0  0  0  0  0  0  0  0  0  0
   62.0856   32.0500   46.7793 H   0  0  0  0  0  0  0  0  0  0  0  0
   59.6256   31.1786   46.5005 H   0  0  0  0  0  0  0  0  0  0  0  0
   57.9390   25.8620   41.6980 H   0  0  0  0  0  0  0  0  0  0  0  0
   55.7934   24.2947   42.4016 H   0  0  0  0  0  0  0  0  0  0  0  0
   55.4979   21.8953   42.1633 H   0  0  0  0  0  0  0  0  0  0  0  0
   56.9122   20.3035   43.4602 H   0  0  0  0  0  0  0  0  0  0  0  0
   58.6231   21.2432   44.9897 H   0  0  0  0  0  0  0  0  0  0  0  0
   58.9303   23.6893   45.2337 H   0  0  0  0  0  0  0  0  0  0  0  0
  1  2  2  0
  2  3  1  0
  3  4  1  0
  4  5  2  0
  5  6  1  0
  6  7  2  0
  7  8  1  0
  8  9  1  0
  9 10  2  0
  9 11  1  0
 11 12  1  0
 12 13  1  0
 13 14  1  0
 14 15  1  0
 15 16  1  0
  8 17  2  0
  2 18  1  0
 18 19  2  0
 19 20  1  0
 20 21  1  0
 21 22  1  0
 22 23  2  0
 23 24  1  0
 24 25  2  0
 25 26  1  0
 26 27  2  0
 21 28  2  0
 28 29  1  0
 29 30  1  0
 29 31  1  0
 29 32  1  0
 17  4  1  0
 28 18  1  0
 16 11  1  0
 27 22  1  0
  3 33  1  0
  5 34  1  0
  6 35  1  0
  7 36  1  0
 12 37  1  0
 12 38  1  0
 13 39  1  0
 13 40  1  0
 14 41  1  0
 14 42  1  0
 15 43  1  0
 15 44  1  0
 16 45  1  0
 16 46  1  0
 17 47  1  0
 20 48  1  0
 23 49  1  0
 24 50  1  0
 25 51  1  0
 26 52  1  0
 27 53  1  0
M  END
>  <smiles>  (28) 
O=C(Nc1cccc(C(=O)N2CCCCC2)c1)c1n[nH]c(-c2ccccc2)c1C(F)(F)F

>  <score_type>  (28) 
oracle

>  <origin>  (28) 
adg

>  <m_score__min__energy>  (28) 
-10.24

>  <m_primary>  (28) 
energy

$$$$
28:0
     RDKit          3D

 29 30  0  0  0  0  0  0  0  0999 V2000
   60.1010   28.6590   45.1300 C   0  0  0  0  0  0  0  0  0  0  0  0
   58.7660   28.9080   45.6840 N   0  0  0  0  0  0  0  0  0  0  0  0
   58.6010   29.9100   46.7480 C   0  0  0  0  0  0  0  0  0  0  0  0
   58.1610   31.2250   46.1830 C   0  0  0  0  0  0  0  0  0  0  0  0
   58.6300   32.4670   46.5620 C   0  0  0  0  0  0  0  0  0  0  0  0
   57.9380   33.3750   45.7880 C   0  0  0  0  0  0  0  0  0  0  0  0
   57.0900   32.6310   44.9920 C   0  0  0  0  0  0  0  0  0  0  0  0
   57.2440   31.3530   45.2530 O   0  0  0  0  0  0  0  0  0  0  0  0
   57.6520   28.1360   45.1770 C   0  0  0  0  0  0  0  0  0  0  0  0
   56.4950   28.6430   45.1720 O   0  0  0  0  0  0  0  0  0  0  0  0
   57.7970   26.7080   44.7160 C   0  0  0  0  0  0  0  0  0  0  0  0
   57.2340   25.7460   45.7230 C   0  0  0  0  0  0  0  0  0  0  0  0
   57.9210   24.7290   46.2780 N   0  0  0  0  0  0  0  0  0  0  0  0
   57.0360   24.1870   47.1410 C   0  0  0  0  0  0  0  0  0  0  0  0
   57.3120   23.1860   47.8540 O   0  0  0  0  0  0  0  0  0  0  0  0
   55.8360   24.8010   47.1830 N   0  0  0  0  0  0  0  0  0  0  0  0
   55.9760   25.7910   46.2880 C   0  0  0  0  0  0  0  0  0  0  0  0
   54.9720   26.7120   46.0030 O   0  0  0  0  0  0  0  0  0  0  0  0
   60.8198   28.5249   45.9518 H   0  0  0  0  0  0  0  0  0  0  0  0
   60.0775   27.7497   44.5114 H   0  0  0  0  0  0  0  0  0  0  0  0
   60.4069   29.5156   44.5114 H   0  0  0  0  0  0  0  0  0  0  0  0
   57.8444   29.5544   47.4629 H   0  0  0  0  0  0  0  0  0  0  0  0
   59.5695   30.0507   47.2502 H   0  0  0  0  0  0  0  0  0  0  0  0
   59.3948   32.6863   47.3216 H   0  0  0  0  0  0  0  0  0  0  0  0
   58.0409   34.4701   45.8021 H   0  0  0  0  0  0  0  0  0  0  0  0
   56.3909   33.0460   44.2510 H   0  0  0  0  0  0  0  0  0  0  0  0
   57.2608   26.5834   43.7636 H   0  0  0  0  0  0  0  0  0  0  0  0
   58.8684   26.4916   44.5926 H   0  0  0  0  0  0  0  0  0  0  0  0
   55.1420   27.5170   45.4140 H   0  0  0  0  0  0  0  0  0  0  0  0
  1  2  1  0
  2  3  1  0
  3  4  1  0
  4  5  2  0
  5  6  1  0
  6  7  2  0
  7  8  1  0
  2  9  1  0
  9 10  2  0
  9 11  1  0
 11 12  1  0
 12 13  1  0
 13 14  1  0
 14 15  2  0
 14 16  1  0
 16 17  1  0
 17 18  1  0
  8  4  1  0
 17 12  2  0
  1 19  1  0
  1 20  1  0
  1 21  1  0
  3 22  1  0
  3 23  1  0
  5 24  1  0
  6 25  1  0
  7 26  1  0
 11 27  1  0
 11 28  1  0
 18 29  1  0
M  CHG  2  13  -1  16  -1
M  END
>  <UniqueID>  (29) 
27

>  <SMILES>  (29) 
CN(Cc1ccco1)C(=O)Cc1[n-]c(=O)[n-]c1O

>  <Energy>  (29) 
78.11957773902198

>  <Genealogy>  (29) 
CN(Cc1ccco1)C(=O)Cc1[n-]c(=O)[n-]c1O (protonated)
CN(Cc1ccco1)C(=O)Cc1[n-]c(=O)[n-]c1O (3D coordinates assigned)
CN(Cc1ccco1)C(=O)Cc1[n-]c(=O)[n-]c1O (optimized conformer: 78.11957773902198 kcal/mol)

>  <smiles>  (29) 
CN(Cc1ccco1)C(=O)Cc1[nH]c(=O)[nH]c1O

>  <score_type>  (29) 
oracle

>  <origin>  (29) 
adg

>  <m_score__min__energy>  (29) 
-10.52

>  <m_primary>  (29) 
energy

$$$$
29:0
     RDKit          3D

 54 57  0  0  0  0  0  0  0  0999 V2000
   58.2590   32.0990   49.2340 O   0  0  0  0  0  0  0  0  0  0  0  0
   58.9460   33.0670   48.8060 C   0  0  0  0  0  0  0  0  0  0  0  0
   59.6870   33.8780   49.7250 N   0  0  0  0  0  0  0  0  0  0  0  0
   61.0090   33.5230   50.2300 C   0  0  0  0  0  0  0  0  0  0  0  0
   61.9230   33.1730   49.0880 C   0  0  0  0  0  0  0  0  0  0  0  0
   62.7980   34.1400   48.5680 C   0  0  0  0  0  0  0  0  0  0  0  0
   63.6670   33.8150   47.5220 C   0  0  0  0  0  0  0  0  0  0  0  0
   63.6690   32.5230   46.9890 C   0  0  0  0  0  0  0  0  0  0  0  0
   62.8020   31.5540   47.5030 C   0  0  0  0  0  0  0  0  0  0  0  0
   61.9340   31.8750   48.5500 C   0  0  0  0  0  0  0  0  0  0  0  0
   58.9700   33.3940   47.3610 C   0  0  0  0  0  0  0  0  0  0  0  0
   59.2860   34.7140   46.9890 C   0  0  0  0  0  0  0  0  0  0  0  0
   59.3340   35.0860   45.6450 C   0  0  0  0  0  0  0  0  0  0  0  0
   59.0780   34.1460   44.6510 C   0  0  0  0  0  0  0  0  0  0  0  0
   58.7760   32.8270   44.9950 C   0  0  0  0  0  0  0  0  0  0  0  0
   58.7150   32.4290   46.3430 C   0  0  0  0  0  0  0  0  0  0  0  0
   58.4590   30.9720   46.6500 C   0  0  0  0  0  0  0  0  0  0  0  0
   59.1000   29.9300   45.2970 S   0  0  0  0  0  0  0  0  0  0  0  0
   58.3680   28.4230   45.9400 C   0  0  0  0  0  0  0  0  0  0  0  0
   59.1410   27.5340   46.6930 C   0  0  0  0  0  0  0  0  0  0  0  0
   58.5660   26.3720   47.2160 C   0  0  0  0  0  0  0  0  0  0  0  0
   57.2020   26.0980   47.0030 C   0  0  0  0  0  0  0  0  0  0  0  0
   56.5780   24.9110   47.5190 N   0  0  0  0  0  0  0  0  0  0  0  0
   56.8770   23.5560   47.1550 C   0  0  0  0  0  0  0  0  0  0  0  0
   57.2730   22.7420   48.0330 O   0  0  0  0  0  0  0  0  0  0  0  0
   56.6600   23.1010   45.7570 C   0  0  0  0  0  0  0  0  0  0  0  0
   57.2320   23.8150   44.6870 C   0  0  0  0  0  0  0  0  0  0  0  0
   57.0250   23.4030   43.3700 C   0  0  0  0  0  0  0  0  0  0  0  0
   56.2490   22.2730   43.1210 C   0  0  0  0  0  0  0  0  0  0  0  0
   56.0530   21.8880   41.9380 O   0  0  0  0  0  0  0  0  0  0  0  0
   55.7020   21.5840   44.1560 N   0  0  0  0  0  0  0  0  0  0  0  0
   55.8820   21.9600   45.4510 C   0  0  0  0  0  0  0  0  0  0  0  0
   55.2940   21.2000   46.4540 O   0  0  0  0  0  0  0  0  0  0  0  0
   56.4390   26.9800   46.2210 C   0  0  0  0  0  0  0  0  0  0  0  0
   55.0980   26.7100   45.9700 O   0  0  0  0  0  0  0  0  0  0  0  0
   57.0180   28.1420   45.6990 C   0  0  0  0  0  0  0  0  0  0  0  0
   61.4283   34.3765   50.7829 H   0  0  0  0  0  0  0  0  0  0  0  0
   60.9174   32.6530   50.8968 H   0  0  0  0  0  0  0  0  0  0  0  0
   62.7999   35.1578   48.9853 H   0  0  0  0  0  0  0  0  0  0  0  0
   64.3498   34.5770   47.1181 H   0  0  0  0  0  0  0  0  0  0  0  0
   64.3524   32.2686   46.1654 H   0  0  0  0  0  0  0  0  0  0  0  0
   62.8032   30.5375   47.0826 H   0  0  0  0  0  0  0  0  0  0  0  0
   61.2567   31.1085   48.9546 H   0  0  0  0  0  0  0  0  0  0  0  0
   59.4978   35.4618   47.7674 H   0  0  0  0  0  0  0  0  0  0  0  0
   59.5745   36.1237   45.3707 H   0  0  0  0  0  0  0  0  0  0  0  0
   59.1137   34.4428   43.5924 H   0  0  0  0  0  0  0  0  0  0  0  0
   58.5833   32.0896   44.2019 H   0  0  0  0  0  0  0  0  0  0  0  0
   58.9652   30.7027   47.5888 H   0  0  0  0  0  0  0  0  0  0  0  0
   57.3760   30.8082   46.7510 H   0  0  0  0  0  0  0  0  0  0  0  0
   60.2043   27.7494   46.8744 H   0  0  0  0  0  0  0  0  0  0  0  0
   59.1819   25.6692   47.7962 H   0  0  0  0  0  0  0  0  0  0  0  0
   57.8466   24.7042   44.8907 H   0  0  0  0  0  0  0  0  0  0  0  0
   57.4704   23.9652   42.5360 H   0  0  0  0  0  0  0  0  0  0  0  0
   56.4114   28.8357   45.0983 H   0  0  0  0  0  0  0  0  0  0  0  0
  1  2  2  0
  2  3  1  0
  3  4  1  0
  4  5  1  0
  5  6  2  0
  6  7  1  0
  7  8  2  0
  8  9  1  0
  9 10  2  0
  2 11  1  0
 11 12  2  0
 12 13  1  0
 13 14  2  0
 14 15  1  0
 15 16  2  0
 16 17  1  0
 17 18  1  0
 18 19  1  0
 19 20  2  0
 20 21  1  0
 21 22  2  0
 22 23  1  0
 23 24  1  0
 24 25  2  0
 24 26  1  0
 26 27  1  0
 27 28  2  0
 28 29  1  0
 29 30  2  0
 29 31  1  0
 31 32  1  0
 32 33  1  0
 22 34  1  0
 34 35  1  0
 34 36  2  0
 10  5  1  0
 16 11  1  0
 36 19  1  0
 32 26  2  0
  4 37  1  0
  4 38  1  0
  6 39  1  0
  7 40  1  0
  8 41  1  0
  9 42  1  0
 10 43  1  0
 12 44  1  0
 13 45  1  0
 14 46  1  0
 15 47  1  0
 17 48  1  0
 17 49  1  0
 20 50  1  0
 21 51  1  0
 27 52  1  0
 28 53  1  0
 36 54  1  0
M  CHG  5   3  -1  23  -1  31  -1  33  -1  35  -1
M  END
>  <UniqueID>  (30) 
28

>  <SMILES>  (30) 
O=C([N-]Cc1ccccc1)c1ccccc1CSc1ccc([N-]C(=O)c2ccc(=O)[n-]c2[O-])c([O-])c1

>  <Energy>  (30) 
65.21895750835253

>  <Genealogy>  (30) 
O=C([N-]Cc1ccccc1)c1ccccc1CSc1ccc([N-]C(=O)c2ccc(=O)[n-]c2[O-])c([O-])c1 (protonated)
O=C([N-]Cc1ccccc1)c1ccccc1CSc1ccc([N-]C(=O)c2ccc(=O)[n-]c2[O-])c([O-])c1 (3D coordinates assigned)
O=C([N-]Cc1ccccc1)c1ccccc1CSc1ccc([N-]C(=O)c2ccc(=O)[n-]c2[O-])c([O-])c1 (optimized conformer: 65.21895750835253 kcal/mol)

>  <smiles>  (30) 
O=C(NCc1ccccc1)c1ccccc1CSc1ccc(NC(=O)c2ccc(=O)[nH]c2O)c(O)c1

>  <score_type>  (30) 
oracle

>  <origin>  (30) 
adg

>  <m_score__min__energy>  (30) 
-20.120000000000001

>  <m_primary>  (30) 
energy

$$$$
30:0
     RDKit          3D

 54 56  0  0  0  0  0  0  0  0999 V2000
   59.5110   29.8840   45.7770 C   0  0  0  0  0  0  0  0  0  0  0  0
   58.9330   31.2740   45.7540 C   0  0  0  0  0  0  0  0  0  0  0  0
   59.7030   32.3340   46.2630 C   0  0  0  0  0  0  0  0  0  0  0  0
   59.2140   33.6480   46.2560 C   0  0  0  0  0  0  0  0  0  0  0  0
   60.0570   34.7770   46.7890 C   0  0  0  0  0  0  0  0  0  0  0  0
   61.2920   34.2510   47.3960 N   0  0  0  0  0  0  0  0  0  0  0  0
   62.3290   33.8910   46.5790 C   0  0  0  0  0  0  0  0  0  0  0  0
   63.5220   33.4120   47.1170 C   0  0  0  0  0  0  0  0  0  0  0  0
   63.6350   33.3140   48.5010 C   0  0  0  0  0  0  0  0  0  0  0  0
   64.6960   32.8820   49.0230 O   0  0  0  0  0  0  0  0  0  0  0  0
   62.5960   33.6890   49.2900 N   0  0  0  0  0  0  0  0  0  0  0  0
   61.4360   34.1560   48.7580 C   0  0  0  0  0  0  0  0  0  0  0  0
   60.5010   34.4960   49.5320 O   0  0  0  0  0  0  0  0  0  0  0  0
   57.9540   33.9070   45.7070 C   0  0  0  0  0  0  0  0  0  0  0  0
   57.1880   32.8670   45.1780 C   0  0  0  0  0  0  0  0  0  0  0  0
   57.6660   31.5480   45.1860 C   0  0  0  0  0  0  0  0  0  0  0  0
   56.6480   30.2690   44.5050 S   0  0  0  0  0  0  0  0  0  0  0  0
   55.2030   30.6810   44.5050 O   0  0  0  0  0  0  0  0  0  0  0  0
   57.0630   30.0020   43.0850 O   0  0  0  0  0  0  0  0  0  0  0  0
   56.8240   28.8230   45.4360 N   0  0  0  0  0  0  0  0  0  0  0  0
   57.5860   27.7060   44.9790 C   0  0  0  0  0  0  0  0  0  0  0  0
   57.8160   27.5500   43.7510 O   0  0  0  0  0  0  0  0  0  0  0  0
   58.1510   26.7420   45.9670 C   0  0  0  0  0  0  0  0  0  0  0  0
   57.0840   26.0950   46.6540 O   0  0  0  0  0  0  0  0  0  0  0  0
   56.3990   24.9690   46.1770 C   0  0  0  0  0  0  0  0  0  0  0  0
   57.0250   23.7180   46.0290 C   0  0  0  0  0  0  0  0  0  0  0  0
   56.2980   22.6190   45.5670 C   0  0  0  0  0  0  0  0  0  0  0  0
   54.9470   22.7540   45.2490 C   0  0  0  0  0  0  0  0  0  0  0  0
   54.3050   23.9970   45.3900 C   0  0  0  0  0  0  0  0  0  0  0  0
   52.9140   24.1750   45.0860 N   0  0  0  0  0  0  0  0  0  0  0  0
   51.6900   22.9500   45.1790 S   0  0  0  0  0  0  0  0  0  0  0  0
   50.4430   23.4180   46.3610 C   0  0  0  0  0  0  0  0  0  0  0  0
   52.3250   21.6650   45.6300 O   0  0  0  0  0  0  0  0  0  0  0  0
   51.0770   22.7370   43.8230 O   0  0  0  0  0  0  0  0  0  0  0  0
   55.0420   25.1010   45.8490 C   0  0  0  0  0  0  0  0  0  0  0  0
   54.4210   26.3370   45.9860 O   0  0  0  0  0  0  0  0  0  0  0  0
   59.6457   29.5601   46.8196 H   0  0  0  0  0  0  0  0  0  0  0  0
   58.8255   29.1933   45.2641 H   0  0  0  0  0  0  0  0  0  0  0  0
   60.4841   29.8830   45.2641 H   0  0  0  0  0  0  0  0  0  0  0  0
   60.7033   32.1298   46.6726 H   0  0  0  0  0  0  0  0  0  0  0  0
   60.3188   35.4553   45.9636 H   0  0  0  0  0  0  0  0  0  0  0  0
   59.4846   35.3196   47.5558 H   0  0  0  0  0  0  0  0  0  0  0  0
   62.2200   33.9805   45.4881 H   0  0  0  0  0  0  0  0  0  0  0  0
   64.3558   33.1179   46.4626 H   0  0  0  0  0  0  0  0  0  0  0  0
   57.5647   34.9357   45.6920 H   0  0  0  0  0  0  0  0  0  0  0  0
   56.1982   33.0840   44.7499 H   0  0  0  0  0  0  0  0  0  0  0  0
   58.7591   25.9909   45.4416 H   0  0  0  0  0  0  0  0  0  0  0  0
   58.7822   27.2807   46.6891 H   0  0  0  0  0  0  0  0  0  0  0  0
   58.0905   23.6052   46.2780 H   0  0  0  0  0  0  0  0  0  0  0  0
   56.7928   21.6432   45.4535 H   0  0  0  0  0  0  0  0  0  0  0  0
   54.3807   21.8837   44.8860 H   0  0  0  0  0  0  0  0  0  0  0  0
   50.8307   23.2725   47.3801 H   0  0  0  0  0  0  0  0  0  0  0  0
   50.1796   24.4762   46.2165 H   0  0  0  0  0  0  0  0  0  0  0  0
   49.5484   22.7944   46.2165 H   0  0  0  0  0  0  0  0  0  0  0  0
  1  2  1  0
  2  3  2  0
  3  4  1  0
  4  5  1  0
  5  6  1  0
  6  7  1  0
  7  8  2  0
  8  9  1  0
  9 10  2  0
  9 11  1  0
 11 12  1  0
 12 13  2  0
  4 14  2  0
 14 15  1  0
 15 16  2  0
 16 17  1  0
 17 18  2  0
 17 19  2  0
 17 20  1  0
 20 21  1  0
 21 22  2  0
 21 23  1  0
 23 24  1  0
 24 25  1  0
 25 26  2  0
 26 27  1  0
 27 28  2  0
 28 29  1  0
 29 30  1  0
 30 31  1  0
 31 32  1  0
 31 33  2  0
 31 34  2  0
 29 35  2  0
 35 36  1  0
 16  2  1  0
 35 25  1  0
 12  6  1  0
  1 37  1  0
  1 38  1  0
  1 39  1  0
  3 40  1  0
  5 41  1  0
  5 42  1  0
  7 43  1  0
  8 44  1  0
 14 45  1  0
 15 46  1  0
 23 47  1  0
 23 48  1  0
 26 49  1  0
 27 50  1  0
 28 51  1  0
 32 52  1  0
 32 53  1  0
 32 54  1  0
M  CHG  4  11  -1  20  -1  30  -1  36  -1
M  END
>  <UniqueID>  (31) 
29

>  <SMILES>  (31) 
Cc1cc(Cn2ccc(=O)[n-]c2=O)ccc1S(=O)(=O)[N-]C(=O)COc1cccc([N-]S(C)(=O)=O)c1[O-]

>  <Energy>  (31) 
59.56562247273899

>  <Genealogy>  (31) 
Cc1cc(Cn2ccc(=O)[n-]c2=O)ccc1S(=O)(=O)[N-]C(=O)COc1cccc([N-]S(C)(=O)=O)c1[O-] (protonated)
Cc1cc(Cn2ccc(=O)[n-]c2=O)ccc1S(=O)(=O)[N-]C(=O)COc1cccc([N-]S(C)(=O)=O)c1[O-] (3D coordinates assigned)
Cc1cc(Cn2ccc(=O)[n-]c2=O)ccc1S(=O)(=O)[N-]C(=O)COc1cccc([N-]S(C)(=O)=O)c1[O-] (optimized conformer: 59.56562247273899 kcal/mol)

>  <smiles>  (31) 
Cc1cc(Cn2ccc(=O)[nH]c2=O)ccc1S(=O)(=O)NC(=O)COc1cccc(NS(C)(=O)=O)c1O

>  <score_type>  (31) 
oracle

>  <origin>  (31) 
adg

>  <m_score__min__energy>  (31) 
-18.550000000000001

>  <m_primary>  (31) 
energy

$$$$
31:0
     RDKit          3D

 50 53  0  0  0  0  0  0  0  0999 V2000
   60.4400   31.9750   49.5560 O   0  0  0  0  0  0  0  0  0  0  0  0
   60.3970   31.6330   48.3440 C   0  0  0  0  0  0  0  0  0  0  0  0
   61.0410   30.4100   47.9540 N   0  0  0  0  0  0  0  0  0  0  0  0
   60.3890   29.2290   47.4640 C   0  0  0  0  0  0  0  0  0  0  0  0
   59.5860   28.4870   48.3370 C   0  0  0  0  0  0  0  0  0  0  0  0
   58.9320   27.3340   47.8920 C   0  0  0  0  0  0  0  0  0  0  0  0
   59.0990   26.8920   46.5660 C   0  0  0  0  0  0  0  0  0  0  0  0
   58.4500   25.7530   46.0670 O   0  0  0  0  0  0  0  0  0  0  0  0
   57.5310   25.7400   45.0080 C   0  0  0  0  0  0  0  0  0  0  0  0
   57.7020   26.4950   44.0130 O   0  0  0  0  0  0  0  0  0  0  0  0
   56.3260   24.8760   45.0980 C   0  0  0  0  0  0  0  0  0  0  0  0
   56.4090   23.5320   44.6860 C   0  0  0  0  0  0  0  0  0  0  0  0
   55.2930   22.6940   44.7540 C   0  0  0  0  0  0  0  0  0  0  0  0
   54.0750   23.1830   45.2360 C   0  0  0  0  0  0  0  0  0  0  0  0
   52.9560   22.3560   45.3070 O   0  0  0  0  0  0  0  0  0  0  0  0
   53.9770   24.5140   45.6480 C   0  0  0  0  0  0  0  0  0  0  0  0
   55.0890   25.3620   45.5820 C   0  0  0  0  0  0  0  0  0  0  0  0
   54.9450   26.6800   45.9990 O   0  0  0  0  0  0  0  0  0  0  0  0
   59.9090   27.6320   45.6970 C   0  0  0  0  0  0  0  0  0  0  0  0
   60.5630   28.7840   46.1420 C   0  0  0  0  0  0  0  0  0  0  0  0
   59.6470   32.4720   47.3780 C   0  0  0  0  0  0  0  0  0  0  0  0
   59.5280   33.8530   47.5920 C   0  0  0  0  0  0  0  0  0  0  0  0
   58.8450   34.6530   46.6740 C   0  0  0  0  0  0  0  0  0  0  0  0
   58.2640   34.0820   45.5400 C   0  0  0  0  0  0  0  0  0  0  0  0
   58.3430   32.6970   45.3220 C   0  0  0  0  0  0  0  0  0  0  0  0
   57.7540   32.1120   44.1420 N   0  0  0  0  0  0  0  0  0  0  0  0
   57.8580   32.6770   42.8040 C   0  0  0  0  0  0  0  0  0  0  0  0
   57.3270   31.5960   41.8440 C   0  0  0  0  0  0  0  0  0  0  0  0
   56.6420   30.5250   42.7030 C   0  0  0  0  0  0  0  0  0  0  0  0
   57.0140   30.9050   44.0790 C   0  0  0  0  0  0  0  0  0  0  0  0
   56.6480   30.2610   45.0990 O   0  0  0  0  0  0  0  0  0  0  0  0
   59.0370   31.8980   46.2480 C   0  0  0  0  0  0  0  0  0  0  0  0
   59.4683   28.8130   49.3810 H   0  0  0  0  0  0  0  0  0  0  0  0
   58.2849   26.7705   48.5803 H   0  0  0  0  0  0  0  0  0  0  0  0
   57.3631   23.1375   44.3064 H   0  0  0  0  0  0  0  0  0  0  0  0
   55.3729   21.6466   44.4274 H   0  0  0  0  0  0  0  0  0  0  0  0
   52.4170   22.2660   46.1600 H   0  0  0  0  0  0  0  0  0  0  0  0
   53.0188   24.8989   46.0272 H   0  0  0  0  0  0  0  0  0  0  0  0
   60.0319   27.3038   44.6543 H   0  0  0  0  0  0  0  0  0  0  0  0
   61.2156   29.3440   45.4560 H   0  0  0  0  0  0  0  0  0  0  0  0
   59.9752   34.3083   48.4880 H   0  0  0  0  0  0  0  0  0  0  0  0
   58.7643   35.7367   46.8447 H   0  0  0  0  0  0  0  0  0  0  0  0
   57.7412   34.7209   44.8130 H   0  0  0  0  0  0  0  0  0  0  0  0
   57.2490   33.5897   42.7262 H   0  0  0  0  0  0  0  0  0  0  0  0
   58.8948   32.9551   42.5636 H   0  0  0  0  0  0  0  0  0  0  0  0
   56.6031   32.0369   41.1429 H   0  0  0  0  0  0  0  0  0  0  0  0
   58.1469   31.1593   41.2550 H   0  0  0  0  0  0  0  0  0  0  0  0
   55.5506   30.5506   42.5685 H   0  0  0  0  0  0  0  0  0  0  0  0
   56.9489   29.5017   42.4410 H   0  0  0  0  0  0  0  0  0  0  0  0
   59.1036   30.8119   46.0868 H   0  0  0  0  0  0  0  0  0  0  0  0
  1  2  2  0
  2  3  1  0
  3  4  1  0
  4  5  2  0
  5  6  1  0
  6  7  2  0
  7  8  1  0
  8  9  1  0
  9 10  2  0
  9 11  1  0
 11 12  2  0
 12 13  1  0
 13 14  2  0
 14 15  1  0
 14 16  1  0
 16 17  2  0
 17 18  1  0
  7 19  1  0
 19 20  2  0
  2 21  1  0
 21 22  2  0
 22 23  1  0
 23 24  2  0
 24 25  1  0
 25 26  1  0
 26 27  1  0
 27 28  1  0
 28 29  1  0
 29 30  1  0
 30 31  2  0
 25 32  2  0
 20  4  1  0
 32 21  1  0
 17 11  1  0
 30 26  1  0
  5 33  1  0
  6 34  1  0
 12 35  1  0
 13 36  1  0
 15 37  1  0
 16 38  1  0
 19 39  1  0
 20 40  1  0
 22 41  1  0
 23 42  1  0
 24 43  1  0
 27 44  1  0
 27 45  1  0
 28 46  1  0
 28 47  1  0
 29 48  1  0
 29 49  1  0
 32 50  1  0
M  CHG  2   3  -1  18  -1
M  END
>  <UniqueID>  (32) 
30

>  <SMILES>  (32) 
O=C([N-]c1ccc(OC(=O)c2ccc(O)cc2[O-])cc1)c1cccc(N2CCCC2=O)c1

>  <Energy>  (32) 
77.20634610129386

>  <Genealogy>  (32) 
O=C([N-]c1ccc(OC(=O)c2ccc(O)cc2[O-])cc1)c1cccc(N2CCCC2=O)c1 (protonated)
O=C([N-]c1ccc(OC(=O)c2ccc(O)cc2[O-])cc1)c1cccc(N2CCCC2=O)c1 (3D coordinates assigned)
O=C([N-]c1ccc(OC(=O)c2ccc(O)cc2[O-])cc1)c1cccc(N2CCCC2=O)c1 (nonaromatic ring conformer: 77.20634610129386 kcal/mol)

>  <smiles>  (32) 
O=C(Nc1ccc(OC(=O)c2ccc(O)cc2O)cc1)c1cccc(N2CCCC2=O)c1

>  <score_type>  (32) 
oracle

>  <origin>  (32) 
adg

>  <m_score__min__energy>  (32) 
-13.74

>  <m_primary>  (32) 
energy

$$$$
32:0
     RDKit          3D

 42 44  0  0  0  0  0  0  0  0999 V2000
   59.8580   33.8590   46.4520 C   0  0  0  0  0  0  0  0  0  0  0  0
   58.5500   33.1700   46.8330 C   0  0  0  0  0  0  0  0  0  0  0  0
   58.7750   31.6990   47.0830 C   0  0  0  0  0  0  0  0  0  0  0  0
   58.4640   30.7740   46.0750 C   0  0  0  0  0  0  0  0  0  0  0  0
   58.6620   29.4010   46.2740 C   0  0  0  0  0  0  0  0  0  0  0  0
   58.4160   28.4230   45.1550 C   0  0  0  0  0  0  0  0  0  0  0  0
   57.5200   27.3000   45.6260 C   0  0  0  0  0  0  0  0  0  0  0  0
   56.1190   27.4410   45.6280 C   0  0  0  0  0  0  0  0  0  0  0  0
   55.5210   28.6340   45.2380 O   0  0  0  0  0  0  0  0  0  0  0  0
   55.3300   26.3990   46.0050 N   0  0  0  0  0  0  0  0  0  0  0  0
   55.8700   25.2140   46.3910 C   0  0  0  0  0  0  0  0  0  0  0  0
   55.1190   24.2620   46.7310 O   0  0  0  0  0  0  0  0  0  0  0  0
   57.2170   25.0560   46.4040 N   0  0  0  0  0  0  0  0  0  0  0  0
   58.0510   26.0610   46.0230 C   0  0  0  0  0  0  0  0  0  0  0  0
   59.2950   25.8680   46.0370 O   0  0  0  0  0  0  0  0  0  0  0  0
   59.1690   28.9550   47.5020 C   0  0  0  0  0  0  0  0  0  0  0  0
   59.4610   29.8640   48.5180 C   0  0  0  0  0  0  0  0  0  0  0  0
   59.2500   31.2360   48.3260 C   0  0  0  0  0  0  0  0  0  0  0  0
   59.6030   32.1750   49.3520 N   0  0  0  0  0  0  0  0  0  0  0  0
   59.1710   32.1160   50.7160 C   0  0  0  0  0  0  0  0  0  0  0  0
   60.0140   31.8210   51.6030 O   0  0  0  0  0  0  0  0  0  0  0  0
   57.7410   32.4160   51.0870 C   0  0  0  0  0  0  0  0  0  0  0  0
   57.0480   31.2200   51.6710 C   0  0  0  0  0  0  0  0  0  0  0  0
   55.7920   31.2510   52.1600 N   0  0  0  0  0  0  0  0  0  0  0  0
   55.5840   29.9760   52.5640 C   0  0  0  0  0  0  0  0  0  0  0  0
   54.5040   29.5990   53.0920 O   0  0  0  0  0  0  0  0  0  0  0  0
   56.6280   29.1370   52.3630 N   0  0  0  0  0  0  0  0  0  0  0  0
   57.5460   29.9370   51.7910 C   0  0  0  0  0  0  0  0  0  0  0  0
   58.8070   29.4960   51.3970 O   0  0  0  0  0  0  0  0  0  0  0  0
   60.4011   34.1451   47.3648 H   0  0  0  0  0  0  0  0  0  0  0  0
   60.4762   33.1695   45.8584 H   0  0  0  0  0  0  0  0  0  0  0  0
   59.6391   34.7588   45.8584 H   0  0  0  0  0  0  0  0  0  0  0  0
   58.1500   33.6344   47.7464 H   0  0  0  0  0  0  0  0  0  0  0  0
   57.8364   33.2826   46.0035 H   0  0  0  0  0  0  0  0  0  0  0  0
   58.0596   31.1310   45.1163 H   0  0  0  0  0  0  0  0  0  0  0  0
   57.9324   28.9454   44.3164 H   0  0  0  0  0  0  0  0  0  0  0  0
   59.3787   28.0005   44.8315 H   0  0  0  0  0  0  0  0  0  0  0  0
   59.3377   27.8804   47.6654 H   0  0  0  0  0  0  0  0  0  0  0  0
   59.8598   29.5017   49.4770 H   0  0  0  0  0  0  0  0  0  0  0  0
   57.7295   33.2295   51.8273 H   0  0  0  0  0  0  0  0  0  0  0  0
   57.2059   32.7042   50.1702 H   0  0  0  0  0  0  0  0  0  0  0  0
   59.3920   30.0540   50.7830 H   0  0  0  0  0  0  0  0  0  0  0  0
  1  2  1  0
  2  3  1  0
  3  4  2  0
  4  5  1  0
  5  6  1  0
  6  7  1  0
  7  8  2  0
  8  9  1  0
  8 10  1  0
 10 11  1  0
 11 12  2  0
 11 13  1  0
 13 14  1  0
 14 15  2  0
  5 16  2  0
 16 17  1  0
 17 18  2  0
 18 19  1  0
 19 20  1  0
 20 21  2  0
 20 22  1  0
 22 23  1  0
 23 24  1  0
 24 25  1  0
 25 26  2  0
 25 27  1  0
 27 28  1  0
 28 29  1  0
 18  3  1  0
 28 23  2  0
 14  7  1  0
  1 30  1  0
  1 31  1  0
  1 32  1  0
  2 33  1  0
  2 34  1  0
  4 35  1  0
  6 36  1  0
  6 37  1  0
 16 38  1  0
 17 39  1  0
 22 40  1  0
 22 41  1  0
 29 42  1  0
M  CHG  6   9  -1  10  -1  13  -1  19  -1  24  -1  27  -1
M  END
>  <UniqueID>  (33) 
31

>  <SMILES>  (33) 
CCc1cc(Cc2c([O-])[n-]c(=O)[n-]c2=O)ccc1[N-]C(=O)Cc1[n-]c(=O)[n-]c1O

>  <Energy>  (33) 
76.99143217035893

>  <Genealogy>  (33) 
CCc1cc(Cc2c([O-])[n-]c(=O)[n-]c2=O)ccc1[N-]C(=O)Cc1[n-]c(=O)[n-]c1O (protonated)
CCc1cc(Cc2c([O-])[n-]c(=O)[n-]c2=O)ccc1[N-]C(=O)Cc1[n-]c(=O)[n-]c1O (3D coordinates assigned)
CCc1cc(Cc2c([O-])[n-]c(=O)[n-]c2=O)ccc1[N-]C(=O)Cc1[n-]c(=O)[n-]c1O (optimized conformer: 76.99143217035893 kcal/mol)

>  <smiles>  (33) 
CCc1cc(Cc2c(O)[nH]c(=O)[nH]c2=O)ccc1NC(=O)Cc1[nH]c(=O)[nH]c1O

>  <score_type>  (33) 
oracle

>  <origin>  (33) 
adg

>  <m_score__min__energy>  (33) 
-17.140000000000001

>  <m_primary>  (33) 
energy

$$$$
33:0
     RDKit          3D

 29 30  0  0  0  0  0  0  0  0999 V2000
   60.1120   28.7510   44.7890 C   0  0  0  0  0  0  0  0  0  0  0  0
   58.6880   29.2850   45.0240 C   0  0  1  0  0  0  0  0  0  0  0  0
   58.2500   28.9780   46.3920 N   0  0  0  0  0  0  0  0  0  0  0  0
   58.5060   27.7750   47.1310 C   0  0  0  0  0  0  0  0  0  0  0  0
   59.4930   27.7010   47.9130 O   0  0  0  0  0  0  0  0  0  0  0  0
   57.6010   26.6240   46.9680 C   0  0  0  0  0  0  0  0  0  0  0  0
   57.9500   25.3480   47.4370 C   0  0  0  0  0  0  0  0  0  0  0  0
   57.0420   24.3030   47.2660 C   0  0  0  0  0  0  0  0  0  0  0  0
   57.3160   23.1500   47.6880 O   0  0  0  0  0  0  0  0  0  0  0  0
   55.8560   24.5290   46.6440 N   0  0  0  0  0  0  0  0  0  0  0  0
   55.5330   25.7670   46.1910 C   0  0  0  0  0  0  0  0  0  0  0  0
   54.4290   25.9580   45.6190 O   0  0  0  0  0  0  0  0  0  0  0  0
   56.3980   26.8000   46.3580 N   0  0  0  0  0  0  0  0  0  0  0  0
   58.6010   30.8100   44.7570 C   0  0  0  0  0  0  0  0  0  0  0  0
   57.1320   31.1890   44.5910 C   0  0  0  0  0  0  0  0  0  0  0  0
   56.3750   29.7700   43.8600 S   0  0  0  0  0  0  0  0  0  0  0  0
   56.0410   30.0010   42.4140 O   0  0  0  0  0  0  0  0  0  0  0  0
   55.1560   29.3390   44.6270 O   0  0  0  0  0  0  0  0  0  0  0  0
   57.7040   28.6180   44.0470 C   0  0  0  0  0  0  0  0  0  0  0  0
   60.5996   28.5682   45.7579 H   0  0  0  0  0  0  0  0  0  0  0  0
   60.0618   27.8106   44.2205 H   0  0  0  0  0  0  0  0  0  0  0  0
   60.6925   29.4925   44.2205 H   0  0  0  0  0  0  0  0  0  0  0  0
   58.9187   25.1757   47.9288 H   0  0  0  0  0  0  0  0  0  0  0  0
   59.0327   31.3606   45.6058 H   0  0  0  0  0  0  0  0  0  0  0  0
   59.1618   31.0659   43.8459 H   0  0  0  0  0  0  0  0  0  0  0  0
   56.6768   31.4103   45.5677 H   0  0  0  0  0  0  0  0  0  0  0  0
   57.0045   32.0902   43.9733 H   0  0  0  0  0  0  0  0  0  0  0  0
   57.3347   27.6682   44.4611 H   0  0  0  0  0  0  0  0  0  0  0  0
   58.1801   28.3826   43.0837 H   0  0  0  0  0  0  0  0  0  0  0  0
  1  2  1  0
  2  3  1  1
  3  4  1  0
  4  5  2  0
  4  6  1  0
  6  7  2  0
  7  8  1  0
  8  9  2  0
  8 10  1  0
 10 11  1  0
 11 12  2  0
 11 13  1  0
  2 14  1  0
 14 15  1  0
 15 16  1  0
 16 17  2  0
 16 18  2  0
 16 19  1  0
 19  2  1  0
 13  6  1  0
  1 20  1  0
  1 21  1  0
  1 22  1  0
  7 23  1  0
 14 24  1  0
 14 25  1  0
 15 26  1  0
 15 27  1  0
 19 28  1  0
 19 29  1  0
M  CHG  3   3  -1  10  -1  13  -1
M  END
>  <UniqueID>  (34) 
32

>  <SMILES>  (34) 
C[C@@]1([N-]C(=O)c2cc(=O)[n-]c(=O)[n-]2)CCS(=O)(=O)C1

>  <Energy>  (34) 
26.261769482409925

>  <Genealogy>  (34) 
CC1([N-]C(=O)c2cc(=O)[n-]c(=O)[n-]2)CCS(=O)(=O)C1 (protonated)
C[C@@]1([N-]C(=O)c2cc(=O)[n-]c(=O)[n-]2)CCS(=O)(=O)C1 (chirality)
C[C@@]1([N-]C(=O)c2cc(=O)[n-]c(=O)[n-]2)CCS(=O)(=O)C1 (3D coordinates assigned)
C[C@@]1([N-]C(=O)c2cc(=O)[n-]c(=O)[n-]2)CCS(=O)(=O)C1 (nonaromatic ring conformer: 26.261769482409925 kcal/mol)

>  <smiles>  (34) 
CC1(NC(=O)c2cc(=O)[nH]c(=O)[nH]2)CCS(=O)(=O)C1

>  <score_type>  (34) 
oracle

>  <origin>  (34) 
adg

>  <m_score__min__energy>  (34) 
-12.73

>  <m_primary>  (34) 
energy

$$$$
34:0
     RDKit          3D

 53 56  0  0  0  0  0  0  0  0999 V2000
   58.1640   27.5630   43.2280 O   0  0  0  0  0  0  0  0  0  0  0  0
   58.1380   28.1870   44.3200 C   0  0  0  0  0  0  0  0  0  0  0  0
   56.8990   28.9530   44.6950 C   0  0  0  0  0  0  0  0  0  0  0  0
   56.5930   30.3340   43.5360 S   0  0  0  0  0  0  0  0  0  0  0  0
   57.4600   31.5630   44.5060 C   0  0  0  0  0  0  0  0  0  0  0  0
   58.1990   32.5200   43.8860 N   0  0  0  0  0  0  0  0  0  0  0  0
   58.8670   33.4630   44.5990 C   0  0  0  0  0  0  0  0  0  0  0  0
   59.5470   34.3300   43.9890 O   0  0  0  0  0  0  0  0  0  0  0  0
   58.7970   33.4600   46.0010 C   0  0  0  0  0  0  0  0  0  0  0  0
   59.6410   34.6670   46.9750 S   0  0  0  0  0  0  0  0  0  0  0  0
   58.8940   34.9150   48.2560 O   0  0  0  0  0  0  0  0  0  0  0  0
   59.7220   35.9530   46.2020 O   0  0  0  0  0  0  0  0  0  0  0  0
   61.2600   34.1030   47.3880 C   0  0  0  0  0  0  0  0  0  0  0  0
   61.7020   34.1710   48.7170 C   0  0  0  0  0  0  0  0  0  0  0  0
   62.9780   33.7100   49.0580 C   0  0  0  0  0  0  0  0  0  0  0  0
   63.8150   33.1780   48.0740 C   0  0  0  0  0  0  0  0  0  0  0  0
   63.3780   33.1040   46.7480 C   0  0  0  0  0  0  0  0  0  0  0  0
   62.1020   33.5620   46.4040 C   0  0  0  0  0  0  0  0  0  0  0  0
   58.0490   32.4490   46.6160 C   0  0  0  0  0  0  0  0  0  0  0  0
   57.3970   31.5270   45.8610 N   0  0  0  0  0  0  0  0  0  0  0  0
   59.3330   28.2360   45.1110 N   0  0  0  0  0  0  0  0  0  0  0  0
   59.5460   29.0080   46.3000 C   0  0  0  0  0  0  0  0  0  0  0  0
   60.5280   30.0090   46.3600 C   0  0  0  0  0  0  0  0  0  0  0  0
   60.6910   30.7700   47.5200 C   0  0  0  0  0  0  0  0  0  0  0  0
   59.8600   30.5580   48.6320 C   0  0  0  0  0  0  0  0  0  0  0  0
   60.0330   31.3430   49.8270 N   0  0  0  0  0  0  0  0  0  0  0  0
   58.9680   32.2510   50.2670 C   0  0  0  0  0  0  0  0  0  0  0  0
   59.5720   33.4040   51.0730 C   0  0  0  0  0  0  0  0  0  0  0  0
   60.3960   32.9140   52.1140 O   0  0  0  0  0  0  0  0  0  0  0  0
   61.5120   32.2390   51.5640 C   0  0  0  0  0  0  0  0  0  0  0  0
   61.0660   30.9850   50.8040 C   0  0  0  0  0  0  0  0  0  0  0  0
   58.8610   29.5710   48.5600 C   0  0  0  0  0  0  0  0  0  0  0  0
   58.6990   28.8130   47.3970 C   0  0  0  0  0  0  0  0  0  0  0  0
   56.0364   28.2707   44.6747 H   0  0  0  0  0  0  0  0  0  0  0  0
   57.0418   29.3712   45.7023 H   0  0  0  0  0  0  0  0  0  0  0  0
   61.0437   34.5879   49.4934 H   0  0  0  0  0  0  0  0  0  0  0  0
   63.3224   33.7664   50.1012 H   0  0  0  0  0  0  0  0  0  0  0  0
   64.8187   32.8170   48.3427 H   0  0  0  0  0  0  0  0  0  0  0  0
   64.0384   32.6851   45.9744 H   0  0  0  0  0  0  0  0  0  0  0  0
   61.7580   33.4981   45.3611 H   0  0  0  0  0  0  0  0  0  0  0  0
   57.9891   32.4011   47.7133 H   0  0  0  0  0  0  0  0  0  0  0  0
   61.1729   30.1953   45.4886 H   0  0  0  0  0  0  0  0  0  0  0  0
   61.4752   31.5402   47.5627 H   0  0  0  0  0  0  0  0  0  0  0  0
   58.4451   32.6545   49.3873 H   0  0  0  0  0  0  0  0  0  0  0  0
   58.2568   31.6987   50.8988 H   0  0  0  0  0  0  0  0  0  0  0  0
   60.1746   34.0350   50.4032 H   0  0  0  0  0  0  0  0  0  0  0  0
   58.7535   33.9890   51.5179 H   0  0  0  0  0  0  0  0  0  0  0  0
   62.0366   32.9135   50.8714 H   0  0  0  0  0  0  0  0  0  0  0  0
   62.1814   31.9369   52.3829 H   0  0  0  0  0  0  0  0  0  0  0  0
   61.9291   30.5479   50.2806 H   0  0  0  0  0  0  0  0  0  0  0  0
   60.6573   30.2527   51.5158 H   0  0  0  0  0  0  0  0  0  0  0  0
   58.2033   29.3945   49.4239 H   0  0  0  0  0  0  0  0  0  0  0  0
   57.9006   28.0582   47.3435 H   0  0  0  0  0  0  0  0  0  0  0  0
  1  2  2  0
  2  3  1  0
  3  4  1  0
  4  5  1  0
  5  6  2  0
  6  7  1  0
  7  8  2  0
  7  9  1  0
  9 10  1  0
 10 11  2  0
 10 12  2  0
 10 13  1  0
 13 14  2  0
 14 15  1  0
 15 16  2  0
 16 17  1  0
 17 18  2  0
  9 19  2  0
 19 20  1  0
  2 21  1  0
 21 22  1  0
 22 23  2  0
 23 24  1  0
 24 25  2  0
 25 26  1  0
 26 27  1  0
 27 28  1  0
 28 29  1  0
 29 30  1  0
 30 31  1  0
 25 32  1  0
 32 33  2  0
 20  5  1  0
 33 22  1  0
 18 13  1  0
 31 26  1  0
  3 34  1  0
  3 35  1  0
 14 36  1  0
 15 37  1  0
 16 38  1  0
 17 39  1  0
 18 40  1  0
 19 41  1  0
 23 42  1  0
 24 43  1  0
 27 44  1  0
 27 45  1  0
 28 46  1  0
 28 47  1  0
 30 48  1  0
 30 49  1  0
 31 50  1  0
 31 51  1  0
 32 52  1  0
 33 53  1  0
M  CHG  2  20  -1  21  -1
M  END
>  <UniqueID>  (35) 
33

>  <SMILES>  (35) 
O=C(CSc1nc(=O)c(S(=O)(=O)c2ccccc2)c[n-]1)[N-]c1ccc(N2CCOCC2)cc1

>  <Energy>  (35) 
68.00075802391771

>  <Genealogy>  (35) 
O=C(CSc1nc(=O)c(S(=O)(=O)c2ccccc2)c[n-]1)[N-]c1ccc(N2CCOCC2)cc1 (protonated)
O=C(CSc1nc(=O)c(S(=O)(=O)c2ccccc2)c[n-]1)[N-]c1ccc(N2CCOCC2)cc1 (3D coordinates assigned)
O=C(CSc1nc(=O)c(S(=O)(=O)c2ccccc2)c[n-]1)[N-]c1ccc(N2CCOCC2)cc1 (nonaromatic ring conformer: 68.00075802391771 kcal/mol)

>  <smiles>  (35) 
O=C(CSc1nc(=O)c(S(=O)(=O)c2ccccc2)c[nH]1)Nc1ccc(N2CCOCC2)cc1

>  <score_type>  (35) 
oracle

>  <origin>  (35) 
adg

>  <m_score__min__energy>  (35) 
-12.630000000000001

>  <m_primary>  (35) 
energy

$$$$
35:0
     RDKit          3D

 67 70  0  0  0  0  0  0  0  0999 V2000
   59.5110   33.5260   51.1580 C   0  0  0  0  0  0  0  0  0  0  0  0
   59.6480   32.9070   49.8840 O   0  0  0  0  0  0  0  0  0  0  0  0
   59.8840   31.5380   49.6820 C   0  0  0  0  0  0  0  0  0  0  0  0
   59.2110   30.5560   50.4330 C   0  0  0  0  0  0  0  0  0  0  0  0
   59.4520   29.1990   50.2090 C   0  0  0  0  0  0  0  0  0  0  0  0
   60.3680   28.7910   49.2260 C   0  0  0  0  0  0  0  0  0  0  0  0
   60.5970   27.3520   48.9640 C   0  0  0  0  0  0  0  0  0  0  0  0
   60.7170   26.5450   49.9270 O   0  0  0  0  0  0  0  0  0  0  0  0
   60.6550   26.8650   47.6180 N   0  0  0  0  0  0  0  0  0  0  0  0
   59.5900   26.9730   46.6640 C   0  0  0  0  0  0  0  0  0  0  0  0
   58.4550   26.1680   46.8250 C   0  0  0  0  0  0  0  0  0  0  0  0
   57.3840   26.2570   45.9250 C   0  0  0  0  0  0  0  0  0  0  0  0
   55.9710   25.2120   46.1140 S   0  0  0  0  0  0  0  0  0  0  0  0
   55.9350   24.6740   47.5180 O   0  0  0  0  0  0  0  0  0  0  0  0
   54.7260   26.0280   45.8990 O   0  0  0  0  0  0  0  0  0  0  0  0
   55.9960   23.8710   44.9920 N   0  0  0  0  0  0  0  0  0  0  0  0
   56.6940   24.2450   43.7540 C   0  0  0  0  0  0  0  0  0  0  0  0
   56.6320   23.0750   42.7500 C   0  0  0  0  0  0  0  0  0  0  0  0
   56.2620   21.8450   43.3560 O   0  0  0  0  0  0  0  0  0  0  0  0
   57.0080   21.6420   44.5390 C   0  0  0  0  0  0  0  0  0  0  0  0
   56.6350   22.6920   45.6070 C   0  0  0  0  0  0  0  0  0  0  0  0
   57.4380   27.1840   44.8760 C   0  0  0  0  0  0  0  0  0  0  0  0
   58.5570   28.0060   44.7220 C   0  0  0  0  0  0  0  0  0  0  0  0
   59.6290   27.9180   45.6190 C   0  0  0  0  0  0  0  0  0  0  0  0
   60.7160   28.7820   45.4910 O   0  0  0  0  0  0  0  0  0  0  0  0
   61.0480   29.7700   48.4830 C   0  0  0  0  0  0  0  0  0  0  0  0
   60.8160   31.1370   48.7030 C   0  0  0  0  0  0  0  0  0  0  0  0
   61.7010   32.3260   47.7310 S   0  0  0  0  0  0  0  0  0  0  0  0
   62.1850   33.4300   48.6310 O   0  0  0  0  0  0  0  0  0  0  0  0
   62.9150   31.6750   47.1200 O   0  0  0  0  0  0  0  0  0  0  0  0
   60.7040   33.0320   46.4760 N   0  0  0  0  0  0  0  0  0  0  0  0
   60.3920   34.4440   46.7930 C   0  0  0  0  0  0  0  0  0  0  0  0
   59.2610   34.9720   45.9030 C   0  0  0  0  0  0  0  0  0  0  0  0
   57.9460   34.1970   46.1590 C   0  0  0  0  0  0  0  0  0  0  0  0
   57.0780   34.1680   44.8910 C   0  0  0  0  0  0  0  0  0  0  0  0
   58.2070   32.7670   46.6950 C   0  0  0  0  0  0  0  0  0  0  0  0
   59.5230   32.1930   46.1470 C   0  0  0  0  0  0  0  0  0  0  0  0
   59.6763   32.7789   51.9483 H   0  0  0  0  0  0  0  0  0  0  0  0
   60.2523   34.3329   51.2553 H   0  0  0  0  0  0  0  0  0  0  0  0
   58.4985   33.9447   51.2553 H   0  0  0  0  0  0  0  0  0  0  0  0
   58.4880   30.8606   51.2040 H   0  0  0  0  0  0  0  0  0  0  0  0
   58.9204   28.4441   50.8069 H   0  0  0  0  0  0  0  0  0  0  0  0
   58.4037   25.4598   47.6651 H   0  0  0  0  0  0  0  0  0  0  0  0
   56.2109   25.1302   43.3146 H   0  0  0  0  0  0  0  0  0  0  0  0
   57.7453   24.4742   43.9828 H   0  0  0  0  0  0  0  0  0  0  0  0
   55.8936   23.3190   41.9721 H   0  0  0  0  0  0  0  0  0  0  0  0
   57.6409   22.9460   42.3311 H   0  0  0  0  0  0  0  0  0  0  0  0
   56.7956   20.6366   44.9316 H   0  0  0  0  0  0  0  0  0  0  0  0
   58.0779   21.7421   44.3036 H   0  0  0  0  0  0  0  0  0  0  0  0
   55.9372   22.2398   46.3271 H   0  0  0  0  0  0  0  0  0  0  0  0
   57.5556   23.0178   46.1133 H   0  0  0  0  0  0  0  0  0  0  0  0
   56.5970   27.2648   44.1716 H   0  0  0  0  0  0  0  0  0  0  0  0
   58.5964   28.7264   43.8916 H   0  0  0  0  0  0  0  0  0  0  0  0
   61.4790   28.7810   46.1580 H   0  0  0  0  0  0  0  0  0  0  0  0
   61.7739   29.4607   47.7166 H   0  0  0  0  0  0  0  0  0  0  0  0
   60.0838   34.5161   47.8465 H   0  0  0  0  0  0  0  0  0  0  0  0
   61.2918   35.0501   46.6113 H   0  0  0  0  0  0  0  0  0  0  0  0
   59.0988   36.0378   46.1217 H   0  0  0  0  0  0  0  0  0  0  0  0
   59.5498   34.8342   44.8506 H   0  0  0  0  0  0  0  0  0  0  0  0
   57.3938   34.7343   46.9441 H   0  0  0  0  0  0  0  0  0  0  0  0
   56.0158   34.1325   45.1745 H   0  0  0  0  0  0  0  0  0  0  0  0
   57.2685   35.0730   44.2955 H   0  0  0  0  0  0  0  0  0  0  0  0
   57.3285   33.2777   44.2955 H   0  0  0  0  0  0  0  0  0  0  0  0
   58.2614   32.8010   47.7931 H   0  0  0  0  0  0  0  0  0  0  0  0
   57.3826   32.1181   46.3644 H   0  0  0  0  0  0  0  0  0  0  0  0
   59.6741   31.1915   46.5760 H   0  0  0  0  0  0  0  0  0  0  0  0
   59.4369   32.1615   45.0508 H   0  0  0  0  0  0  0  0  0  0  0  0
  1  2  1  0
  2  3  1  0
  3  4  2  0
  4  5  1  0
  5  6  2  0
  6  7  1  0
  7  8  2  0
  7  9  1  0
  9 10  1  0
 10 11  2  0
 11 12  1  0
 12 13  1  0
 13 14  2  0
 13 15  2  0
 13 16  1  0
 16 17  1  0
 17 18  1  0
 18 19  1  0
 19 20  1  0
 20 21  1  0
 12 22  2  0
 22 23  1  0
 23 24  2  0
 24 25  1  0
  6 26  1  0
 26 27  2  0
 27 28  1  0
 28 29  2  0
 28 30  2  0
 28 31  1  0
 31 32  1  0
 32 33  1  0
 33 34  1  0
 34 35  1  0
 34 36  1  0
 36 37  1  0
 27  3  1  0
 37 31  1  0
 24 10  1  0
 21 16  1  0
  1 38  1  0
  1 39  1  0
  1 40  1  0
  4 41  1  0
  5 42  1  0
 11 43  1  0
 17 44  1  0
 17 45  1  0
 18 46  1  0
 18 47  1  0
 20 48  1  0
 20 49  1  0
 21 50  1  0
 21 51  1  0
 22 52  1  0
 23 53  1  0
 25 54  1  0
 26 55  1  0
 32 56  1  0
 32 57  1  0
 33 58  1  0
 33 59  1  0
 34 60  1  0
 35 61  1  0
 35 62  1  0
 35 63  1  0
 36 64  1  0
 36 65  1  0
 37 66  1  0
 37 67  1  0
M  CHG  1   9  -1
M  END
>  <UniqueID>  (36) 
34

>  <SMILES>  (36) 
COc1ccc(C(=O)[N-]c2cc(S(=O)(=O)N3CCOCC3)ccc2O)cc1S(=O)(=O)N1CCC(C)CC1

>  <Energy>  (36) 
86.90767676290251

>  <Genealogy>  (36) 
COc1ccc(C(=O)[N-]c2cc(S(=O)(=O)N3CCOCC3)ccc2O)cc1S(=O)(=O)N1CCC(C)CC1 (protonated)
COc1ccc(C(=O)[N-]c2cc(S(=O)(=O)N3CCOCC3)ccc2O)cc1S(=O)(=O)N1CCC(C)CC1 (3D coordinates assigned)
COc1ccc(C(=O)[N-]c2cc(S(=O)(=O)N3CCOCC3)ccc2O)cc1S(=O)(=O)N1CCC(C)CC1 (nonaromatic ring conformer: 86.90767676290251 kcal/mol)

>  <smiles>  (36) 
COc1ccc(C(=O)Nc2cc(S(=O)(=O)N3CCOCC3)ccc2O)cc1S(=O)(=O)N1CCC(C)CC1

>  <score_type>  (36) 
oracle

>  <origin>  (36) 
adg

>  <m_score__min__energy>  (36) 
-13.23

>  <m_primary>  (36) 
energy

$$$$
36:0
     RDKit          3D

 66 69  0  0  0  0  0  0  0  0999 V2000
   52.4140   23.9630   44.8350 C   0  0  0  0  0  0  0  0  0  0  0  0
   53.5990   23.1880   44.6810 O   0  0  0  0  0  0  0  0  0  0  0  0
   54.8980   23.6820   44.8730 C   0  0  0  0  0  0  0  0  0  0  0  0
   55.9530   23.4020   43.9820 C   0  0  0  0  0  0  0  0  0  0  0  0
   57.2300   23.9190   44.2190 C   0  0  0  0  0  0  0  0  0  0  0  0
   57.4750   24.7270   45.3400 C   0  0  0  0  0  0  0  0  0  0  0  0
   58.8620   25.2680   45.6020 C   0  0  0  0  0  0  0  0  0  0  0  0
   58.8300   26.7420   45.7710 N   0  0  0  0  0  0  0  0  0  0  0  0
   59.2840   27.3580   46.9260 C   0  0  0  0  0  0  0  0  0  0  0  0
   59.9820   26.5410   48.0010 C   0  0  0  0  0  0  0  0  0  0  0  0
   59.1010   28.7630   47.0910 C   0  0  0  0  0  0  0  0  0  0  0  0
   59.4790   29.5260   48.3590 C   0  0  2  0  0  0  0  0  0  0  0  0
   58.5190   30.5270   48.5910 O   0  0  0  0  0  0  0  0  0  0  0  0
   60.8330   30.1240   48.2410 N   0  0  0  0  0  0  0  0  0  0  0  0
   61.3310   30.6000   49.5530 C   0  0  0  0  0  0  0  0  0  0  0  0
   62.5690   31.5020   49.3950 C   0  0  0  0  0  0  0  0  0  0  0  0
   63.1530   31.3260   48.1210 O   0  0  0  0  0  0  0  0  0  0  0  0
   62.2710   31.8040   47.1210 C   0  0  0  0  0  0  0  0  0  0  0  0
   60.8420   31.2370   47.2720 C   0  0  0  0  0  0  0  0  0  0  0  0
   58.5250   29.4940   46.0490 C   0  0  0  0  0  0  0  0  0  0  0  0
   58.1170   28.8700   44.8750 C   0  0  0  0  0  0  0  0  0  0  0  0
   57.5530   29.7030   43.7480 C   0  0  0  0  0  0  0  0  0  0  0  0
   57.1800   31.0620   44.2580 C   0  0  0  0  0  0  0  0  0  0  0  0
   56.0650   31.2300   44.8210 O   0  0  0  0  0  0  0  0  0  0  0  0
   58.0640   32.1720   44.0560 N   0  0  0  0  0  0  0  0  0  0  0  0
   57.6940   33.5260   44.4610 C   0  0  0  0  0  0  0  0  0  0  0  0
   58.3370   33.8750   45.7680 C   0  0  0  0  0  0  0  0  0  0  0  0
   58.0480   33.2930   46.9940 C   0  0  0  0  0  0  0  0  0  0  0  0
   58.8780   33.7480   48.0260 C   0  0  0  0  0  0  0  0  0  0  0  0
   59.8300   34.6720   47.6100 C   0  0  0  0  0  0  0  0  0  0  0  0
   59.6400   34.9200   45.9580 S   0  0  0  0  0  0  0  0  0  0  0  0
   58.2830   27.4850   44.7490 C   0  0  0  0  0  0  0  0  0  0  0  0
   57.9150   26.9200   43.6790 O   0  0  0  0  0  0  0  0  0  0  0  0
   56.4230   24.9990   46.2290 C   0  0  0  0  0  0  0  0  0  0  0  0
   55.1460   24.4820   45.9930 C   0  0  0  0  0  0  0  0  0  0  0  0
   52.2028   24.1011   45.9057 H   0  0  0  0  0  0  0  0  0  0  0  0
   52.5536   24.9449   44.3591 H   0  0  0  0  0  0  0  0  0  0  0  0
   51.5704   23.4415   44.3591 H   0  0  0  0  0  0  0  0  0  0  0  0
   55.7712   22.7745   43.0970 H   0  0  0  0  0  0  0  0  0  0  0  0
   58.0493   23.6907   43.5214 H   0  0  0  0  0  0  0  0  0  0  0  0
   59.2610   24.8086   46.5184 H   0  0  0  0  0  0  0  0  0  0  0  0
   59.5030   25.0258   44.7415 H   0  0  0  0  0  0  0  0  0  0  0  0
   59.6739   26.9016   48.9935 H   0  0  0  0  0  0  0  0  0  0  0  0
   59.7057   25.4817   47.8937 H   0  0  0  0  0  0  0  0  0  0  0  0
   61.0715   26.6485   47.8937 H   0  0  0  0  0  0  0  0  0  0  0  0
   59.4998   28.8256   49.2070 H   0  0  0  0  0  0  0  0  0  0  0  0
   58.5470   30.7350   49.5620 H   0  0  0  0  0  0  0  0  0  0  0  0
   60.5341   31.1713   50.0516 H   0  0  0  0  0  0  0  0  0  0  0  0
   61.6181   29.7228   50.1514 H   0  0  0  0  0  0  0  0  0  0  0  0
   62.2676   32.5534   49.5124 H   0  0  0  0  0  0  0  0  0  0  0  0
   63.3068   31.2295   50.1640 H   0  0  0  0  0  0  0  0  0  0  0  0
   62.2240   32.9010   47.1872 H   0  0  0  0  0  0  0  0  0  0  0  0
   62.6602   31.4738   46.1466 H   0  0  0  0  0  0  0  0  0  0  0  0
   60.1713   32.0331   47.6274 H   0  0  0  0  0  0  0  0  0  0  0  0
   60.4996   30.8643   46.2954 H   0  0  0  0  0  0  0  0  0  0  0  0
   58.3921   30.5804   46.1589 H   0  0  0  0  0  0  0  0  0  0  0  0
   58.3092   29.8053   42.9558 H   0  0  0  0  0  0  0  0  0  0  0  0
   56.6573   29.2084   43.3441 H   0  0  0  0  0  0  0  0  0  0  0  0
   58.9860   31.9990   43.5930 H   0  0  0  0  0  0  0  0  0  0  0  0
   58.0273   34.2381   43.6917 H   0  0  0  0  0  0  0  0  0  0  0  0
   56.6013   33.5775   44.5763 H   0  0  0  0  0  0  0  0  0  0  0  0
   57.2494   32.5508   47.1402 H   0  0  0  0  0  0  0  0  0  0  0  0
   58.7855   33.4066   49.0676 H   0  0  0  0  0  0  0  0  0  0  0  0
   60.5795   35.1578   48.2521 H   0  0  0  0  0  0  0  0  0  0  0  0
   56.6048   25.6227   47.1166 H   0  0  0  0  0  0  0  0  0  0  0  0
   54.3289   24.7063   46.6944 H   0  0  0  0  0  0  0  0  0  0  0  0
  1  2  1  0
  2  3  1  0
  3  4  2  0
  4  5  1  0
  5  6  2  0
  6  7  1  0
  7  8  1  0
  8  9  1  0
  9 10  1  0
  9 11  2  0
 11 12  1  0
 12 13  1  0
 12 14  1  0
 14 15  1  0
 15 16  1  0
 16 17  1  0
 17 18  1  0
 18 19  1  0
 11 20  1  0
 20 21  2  0
 21 22  1  0
 22 23  1  0
 23 24  2  0
 23 25  1  0
 25 26  1  0
 26 27  1  0
 27 28  2  0
 28 29  1  0
 29 30  2  0
 30 31  1  0
 21 32  1  0
 32 33  2  0
  6 34  1  0
 34 35  2  0
 35  3  1  0
 32  8  1  0
 19 14  1  0
 31 27  1  0
  1 36  1  0
  1 37  1  0
  1 38  1  0
  4 39  1  0
  5 40  1  0
  7 41  1  0
  7 42  1  0
 10 43  1  0
 10 44  1  0
 10 45  1  0
 12 46  1  1
 13 47  1  0
 15 48  1  0
 15 49  1  0
 16 50  1  0
 16 51  1  0
 18 52  1  0
 18 53  1  0
 19 54  1  0
 19 55  1  0
 20 56  1  0
 22 57  1  0
 22 58  1  0
 25 59  1  0
 26 60  1  0
 26 61  1  0
 28 62  1  0
 29 63  1  0
 30 64  1  0
 34 65  1  0
 35 66  1  0
M  END
>  <UniqueID>  (37) 
35

>  <SMILES>  (37) 
COc1ccc(Cn2c(C)c([C@H](O)N3CCOCC3)cc(CC(=O)NCc3cccs3)c2=O)cc1

>  <Energy>  (37) 
110.53367638138444

>  <Genealogy>  (37) 
COc1ccc(Cn2c(C)c([C@H](O)N3CCOCC3)cc(CC(=O)NCc3cccs3)c2=O)cc1 (chirality)
COc1ccc(Cn2c(C)c([C@H](O)N3CCOCC3)cc(CC(=O)NCc3cccs3)c2=O)cc1 (3D coordinates assigned)
COc1ccc(Cn2c(C)c([C@H](O)N3CCOCC3)cc(CC(=O)NCc3cccs3)c2=O)cc1 (nonaromatic ring conformer: 110.53367638138444 kcal/mol)

>  <smiles>  (37) 
COc1ccc(Cn2c(C)c(C(O)N3CCOCC3)cc(CC(=O)NCc3cccs3)c2=O)cc1

>  <score_type>  (37) 
oracle

>  <origin>  (37) 
adg

>  <m_score__min__energy>  (37) 
-8.6999999999999993

>  <m_primary>  (37) 
energy

$$$$
37:0
     RDKit          3D

 59 62  0  0  0  0  0  0  0  0999 V2000
   61.3230   32.2540   52.2620 C   0  0  0  0  0  0  0  0  0  0  0  0
   61.1640   30.7410   52.1700 C   0  0  0  0  0  0  0  0  0  0  0  0
   60.0380   30.3980   51.2990 N   0  0  0  0  0  0  0  0  0  0  0  0
   58.7320   30.2320   51.6400 C   0  0  0  0  0  0  0  0  0  0  0  0
   58.1880   30.4580   53.0160 C   0  0  0  0  0  0  0  0  0  0  0  0
   57.9460   29.8490   50.6000 N   0  0  0  0  0  0  0  0  0  0  0  0
   58.8170   29.7620   49.5780 C   0  0  0  0  0  0  0  0  0  0  0  0
   58.5460   29.3850   48.2640 C   0  0  0  0  0  0  0  0  0  0  0  0
   59.6240   29.3360   47.3480 C   0  0  0  0  0  0  0  0  0  0  0  0
   59.3850   28.9290   45.9470 C   0  0  0  0  0  0  0  0  0  0  0  0
   60.3560   28.8050   45.1510 O   0  0  0  0  0  0  0  0  0  0  0  0
   58.0780   28.6740   45.5080 O   0  0  0  0  0  0  0  0  0  0  0  0
   57.6720   28.7780   44.1430 C   0  0  0  0  0  0  0  0  0  0  0  0
   56.8340   30.0030   43.9330 C   0  0  0  0  0  0  0  0  0  0  0  0
   56.2050   30.1440   42.8510 O   0  0  0  0  0  0  0  0  0  0  0  0
   56.6840   30.9470   45.0000 N   0  0  0  0  0  0  0  0  0  0  0  0
   57.4700   32.1190   45.2590 C   0  0  0  0  0  0  0  0  0  0  0  0
   57.7870   33.0540   44.2570 C   0  0  0  0  0  0  0  0  0  0  0  0
   58.6150   34.1410   44.5490 C   0  0  0  0  0  0  0  0  0  0  0  0
   59.1460   34.2980   45.8310 C   0  0  0  0  0  0  0  0  0  0  0  0
   58.8470   33.3650   46.8330 C   0  0  0  0  0  0  0  0  0  0  0  0
   59.5710   33.5190   48.4320 S   0  0  0  0  0  0  0  0  0  0  0  0
   59.6010   34.9730   48.8180 O   0  0  0  0  0  0  0  0  0  0  0  0
   58.7360   32.7750   49.4390 O   0  0  0  0  0  0  0  0  0  0  0  0
   61.1990   32.8800   48.4130 N   0  0  0  0  0  0  0  0  0  0  0  0
   62.0820   33.7260   49.2390 C   0  0  0  0  0  0  0  0  0  0  0  0
   63.5540   33.5270   48.8410 C   0  0  0  0  0  0  0  0  0  0  0  0
   63.8400   33.8480   47.4840 O   0  0  0  0  0  0  0  0  0  0  0  0
   62.7010   33.8080   46.6350 C   0  0  0  0  0  0  0  0  0  0  0  0
   61.6900   32.7140   47.0260 C   0  0  0  0  0  0  0  0  0  0  0  0
   58.0120   32.2790   46.5400 C   0  0  0  0  0  0  0  0  0  0  0  0
   60.9350   29.6610   47.7930 C   0  0  0  0  0  0  0  0  0  0  0  0
   61.1700   30.0380   49.1280 C   0  0  0  0  0  0  0  0  0  0  0  0
   60.0760   30.0820   49.9920 C   0  0  0  0  0  0  0  0  0  0  0  0
   61.3547   32.5557   53.3193 H   0  0  0  0  0  0  0  0  0  0  0  0
   62.2578   32.5553   51.7665 H   0  0  0  0  0  0  0  0  0  0  0  0
   60.4713   32.7430   51.7665 H   0  0  0  0  0  0  0  0  0  0  0  0
   62.0861   30.3040   51.7593 H   0  0  0  0  0  0  0  0  0  0  0  0
   60.9715   30.3406   53.1763 H   0  0  0  0  0  0  0  0  0  0  0  0
   58.9352   30.1476   53.7612 H   0  0  0  0  0  0  0  0  0  0  0  0
   57.9591   31.5257   53.1490 H   0  0  0  0  0  0  0  0  0  0  0  0
   57.2699   29.8668   53.1490 H   0  0  0  0  0  0  0  0  0  0  0  0
   57.5232   29.1326   47.9476 H   0  0  0  0  0  0  0  0  0  0  0  0
   58.5653   28.8373   43.5038 H   0  0  0  0  0  0  0  0  0  0  0  0
   57.0753   27.8915   43.8823 H   0  0  0  0  0  0  0  0  0  0  0  0
   57.3823   32.9292   43.2418 H   0  0  0  0  0  0  0  0  0  0  0  0
   58.8497   34.8765   43.7654 H   0  0  0  0  0  0  0  0  0  0  0  0
   59.7992   35.1544   46.0544 H   0  0  0  0  0  0  0  0  0  0  0  0
   61.8086   34.7817   49.0950 H   0  0  0  0  0  0  0  0  0  0  0  0
   61.9594   33.4404   50.2942 H   0  0  0  0  0  0  0  0  0  0  0  0
   64.1751   34.1668   49.4851 H   0  0  0  0  0  0  0  0  0  0  0  0
   63.7732   32.4563   48.9655 H   0  0  0  0  0  0  0  0  0  0  0  0
   62.1956   34.7839   46.6821 H   0  0  0  0  0  0  0  0  0  0  0  0
   63.0577   33.5755   45.6208 H   0  0  0  0  0  0  0  0  0  0  0  0
   60.8328   32.7609   46.3382 H   0  0  0  0  0  0  0  0  0  0  0  0
   62.2006   31.7419   46.9613 H   0  0  0  0  0  0  0  0  0  0  0  0
   57.7797   31.5441   47.3248 H   0  0  0  0  0  0  0  0  0  0  0  0
   61.7756   29.6171   47.0848 H   0  0  0  0  0  0  0  0  0  0  0  0
   62.1819   30.2894   49.4783 H   0  0  0  0  0  0  0  0  0  0  0  0
  1  2  1  0
  2  3  1  0
  3  4  1  0
  4  5  1  0
  4  6  2  0
  6  7  1  0
  7  8  2  0
  8  9  1  0
  9 10  1  0
 10 11  2  0
 10 12  1  0
 12 13  1  0
 13 14  1  0
 14 15  2  0
 14 16  1  0
 16 17  1  0
 17 18  2  0
 18 19  1  0
 19 20  2  0
 20 21  1  0
 21 22  1  0
 22 23  2  0
 22 24  2  0
 22 25  1  0
 25 26  1  0
 26 27  1  0
 27 28  1  0
 28 29  1  0
 29 30  1  0
 21 31  2  0
  9 32  2  0
 32 33  1  0
 33 34  2  0
 34  3  1  0
 34  7  1  0
 31 17  1  0
 30 25  1  0
  1 35  1  0
  1 36  1  0
  1 37  1  0
  2 38  1  0
  2 39  1  0
  5 40  1  0
  5 41  1  0
  5 42  1  0
  8 43  1  0
 13 44  1  0
 13 45  1  0
 18 46  1  0
 19 47  1  0
 20 48  1  0
 26 49  1  0
 26 50  1  0
 27 51  1  0
 27 52  1  0
 29 53  1  0
 29 54  1  0
 30 55  1  0
 30 56  1  0
 31 57  1  0
 32 58  1  0
 33 59  1  0
M  CHG  1  16  -1
M  END
>  <UniqueID>  (38) 
36

>  <SMILES>  (38) 
CCn1c(C)nc2cc(C(=O)OCC(=O)[N-]c3cccc(S(=O)(=O)N4CCOCC4)c3)ccc21

>  <Energy>  (38) 
108.17171399132535

>  <Genealogy>  (38) 
CCn1c(C)nc2cc(C(=O)OCC(=O)[N-]c3cccc(S(=O)(=O)N4CCOCC4)c3)ccc21 (protonated)
CCn1c(C)nc2cc(C(=O)OCC(=O)[N-]c3cccc(S(=O)(=O)N4CCOCC4)c3)ccc21 (3D coordinates assigned)
CCn1c(C)nc2cc(C(=O)OCC(=O)[N-]c3cccc(S(=O)(=O)N4CCOCC4)c3)ccc21 (nonaromatic ring conformer: 108.17171399132535 kcal/mol)

>  <smiles>  (38) 
CCn1c(C)nc2cc(C(=O)OCC(=O)Nc3cccc(S(=O)(=O)N4CCOCC4)c3)ccc21

>  <score_type>  (38) 
oracle

>  <origin>  (38) 
adg

>  <m_score__min__energy>  (38) 
-11.789999999999999

>  <m_primary>  (38) 
energy

$$$$
38:0
     RDKit          3D

 49 52  0  0  0  0  0  0  0  0999 V2000
   59.4650   29.2803   48.3019 H   0  0  0  0  0  0  0  0  0  0  0  0
   58.7670   28.8990   47.5420 C   0  0  0  0  0  0  0  0  0  0  0  0
   58.3001   27.9113   47.6704 H   0  0  0  0  0  0  0  0  0  0  0  0
   58.4850   29.6390   46.4580 C   0  0  0  0  0  0  0  0  0  0  0  0
   57.6220   29.3050   45.3990 C   0  0  0  0  0  0  0  0  0  0  0  0
   56.9990   28.1490   45.0930 C   0  0  0  0  0  0  0  0  0  0  0  0
   56.3036   28.1629   44.2408 H   0  0  0  0  0  0  0  0  0  0  0  0
   57.1700   26.8670   45.8030 C   0  0  0  0  0  0  0  0  0  0  0  0
   56.0520   26.1680   46.2790 C   0  0  0  0  0  0  0  0  0  0  0  0
   54.7740   26.6960   46.1350 O   0  0  0  0  0  0  0  0  0  0  0  0
   56.2140   24.9680   46.8940 N   0  0  0  0  0  0  0  0  0  0  0  0
   57.4460   24.4180   47.0450 C   0  0  0  0  0  0  0  0  0  0  0  0
   57.5710   23.3070   47.6230 O   0  0  0  0  0  0  0  0  0  0  0  0
   58.5420   25.0620   46.5690 N   0  0  0  0  0  0  0  0  0  0  0  0
   58.4340   26.2640   45.9460 C   0  0  0  0  0  0  0  0  0  0  0  0
   59.4690   26.8230   45.4960 O   0  0  0  0  0  0  0  0  0  0  0  0
   57.4980   30.4480   44.6260 C   0  0  0  0  0  0  0  0  0  0  0  0
   56.8671   30.5692   43.7331 H   0  0  0  0  0  0  0  0  0  0  0  0
   58.3160   31.4050   45.1890 C   0  0  0  0  0  0  0  0  0  0  0  0
   58.4910   32.7950   44.6560 C   0  0  0  0  0  0  0  0  0  0  0  0
   58.5799   33.5009   45.4949 H   0  0  0  0  0  0  0  0  0  0  0  0
   59.4019   32.8399   44.0410 H   0  0  0  0  0  0  0  0  0  0  0  0
   57.6197   33.0643   44.0410 H   0  0  0  0  0  0  0  0  0  0  0  0
   58.9140   30.9180   46.2980 N   0  0  0  0  0  0  0  0  0  0  0  0
   59.8200   31.6430   47.1500 C   0  0  0  0  0  0  0  0  0  0  0  0
   59.4000   32.0830   48.4130 C   0  0  0  0  0  0  0  0  0  0  0  0
   58.3732   31.8787   48.7505 H   0  0  0  0  0  0  0  0  0  0  0  0
   60.2800   32.7800   49.2450 C   0  0  0  0  0  0  0  0  0  0  0  0
   59.9387   33.1324   50.2295 H   0  0  0  0  0  0  0  0  0  0  0  0
   61.5980   33.0330   48.8310 C   0  0  0  0  0  0  0  0  0  0  0  0
   62.5280   33.7840   49.6970 C   0  0  0  0  0  0  0  0  0  0  0  0
   62.2130   34.9510   50.0590 O   0  0  0  0  0  0  0  0  0  0  0  0
   63.7810   33.2230   50.1260 N   0  0  0  0  0  0  0  0  0  0  0  0
   64.5330   32.2430   49.3580 C   0  0  0  0  0  0  0  0  0  0  0  0
   63.9621   31.3072   49.2673 H   0  0  0  0  0  0  0  0  0  0  0  0
   64.7367   32.5979   48.3370 H   0  0  0  0  0  0  0  0  0  0  0  0
   65.8200   32.0060   50.1370 C   0  0  0  0  0  0  0  0  0  0  0  0
   65.7635   31.0565   50.6895 H   0  0  0  0  0  0  0  0  0  0  0  0
   66.6908   31.9416   49.4681 H   0  0  0  0  0  0  0  0  0  0  0  0
   65.9440   33.1780   51.1070 C   0  0  0  0  0  0  0  0  0  0  0  0
   66.2991   32.8264   52.0870 H   0  0  0  0  0  0  0  0  0  0  0  0
   66.6668   33.9241   50.7451 H   0  0  0  0  0  0  0  0  0  0  0  0
   64.5480   33.7720   51.2330 C   0  0  0  0  0  0  0  0  0  0  0  0
   64.0946   33.4839   52.1929 H   0  0  0  0  0  0  0  0  0  0  0  0
   64.5721   34.8713   51.2023 H   0  0  0  0  0  0  0  0  0  0  0  0
   62.0100   32.6100   47.5580 C   0  0  0  0  0  0  0  0  0  0  0  0
   63.0315   32.8280   47.2130 H   0  0  0  0  0  0  0  0  0  0  0  0
   61.1290   31.9130   46.7260 C   0  0  0  0  0  0  0  0  0  0  0  0
   61.4641   31.5749   45.7344 H   0  0  0  0  0  0  0  0  0  0  0  0
  1  2  1  0
  2  3  1  0
  2  4  2  0
  4  5  1  0
  5  6  2  0
  6  7  1  0
  6  8  1  0
  8  9  2  0
  9 10  1  0
  9 11  1  0
 11 12  1  0
 12 13  2  0
 12 14  1  0
 14 15  1  0
 15 16  2  0
  5 17  1  0
 17 18  1  0
 17 19  2  0
 19 20  1  0
 20 21  1  0
 20 22  1  0
 20 23  1  0
 19 24  1  0
 24 25  1  0
 25 26  2  0
 26 27  1  0
 26 28  1  0
 28 29  1  0
 28 30  2  0
 30 31  1  0
 31 32  2  0
 31 33  1  0
 33 34  1  0
 34 35  1  0
 34 36  1  0
 34 37  1  0
 37 38  1  0
 37 39  1  0
 37 40  1  0
 40 41  1  0
 40 42  1  0
 40 43  1  0
 43 44  1  0
 43 45  1  0
 30 46  1  0
 46 47  1  0
 46 48  2  0
 48 49  1  0
 24  4  1  0
 48 25  1  0
 15  8  1  0
 43 33  1  0
M  CHG  3  10  -1  11  -1  14  -1
M  END
>  <UniqueID>  (39) 
37

>  <SMILES>  (39) 
C=c1/c(=C\c2c([O-])[n-]c(=O)[n-]c2=O)cc(C)n1-c1ccc(C(=O)N2CCCC2)cc1

>  <Energy>  (39) 
105.90190120552533

>  <Genealogy>  (39) 
C=c1c(=Cc2c([O-])[n-]c(=O)[n-]c2=O)cc(C)n1-c1ccc(C(=O)N2CCCC2)cc1 (protonated)
C=c1/c(=C\c2c([O-])[n-]c(=O)[n-]c2=O)cc(C)n1-c1ccc(C(=O)N2CCCC2)cc1 (cis-trans isomerization)
C=c1/c(=C\c2c([O-])[n-]c(=O)[n-]c2=O)cc(C)n1-c1ccc(C(=O)N2CCCC2)cc1 (3D coordinates assigned)
C=c1/c(=C\c2c([O-])[n-]c(=O)[n-]c2=O)cc(C)n1-c1ccc(C(=O)N2CCCC2)cc1 (nonaromatic ring conformer: 105.90190120552533 kcal/mol)

>  <smiles>  (39) 
C=c1c(=Cc2c(O)[nH]c(=O)[nH]c2=O)cc(C)n1-c1ccc(C(=O)N2CCCC2)cc1

>  <score_type>  (39) 
oracle

>  <origin>  (39) 
adg

>  <m_score__min__energy>  (39) 
-16.239999999999998

>  <m_primary>  (39) 
energy

$$$$
39:0
     RDKit          3D

 51 54  0  0  0  0  0  0  0  0999 V2000
   59.3680   27.0970   46.8130 C   0  0  0  0  0  0  0  0  0  0  0  0
   58.5290   26.8570   45.5630 C   0  0  0  0  0  0  0  0  0  0  0  0
   57.7570   28.0880   45.2000 C   0  0  0  0  0  0  0  0  0  0  0  0
   58.4320   29.5460   44.6980 S   0  0  0  0  0  0  0  0  0  0  0  0
   56.9350   30.3270   44.6250 C   0  0  0  0  0  0  0  0  0  0  0  0
   56.7230   31.5650   44.2850 N   0  0  0  0  0  0  0  0  0  0  0  0
   57.6470   32.6640   44.3470 C   0  0  0  0  0  0  0  0  0  0  0  0
   58.1630   33.1440   43.3010 O   0  0  0  0  0  0  0  0  0  0  0  0
   58.0370   33.2350   45.6850 C   0  0  0  0  0  0  0  0  0  0  0  0
   58.3490   32.1200   46.7170 C   0  0  0  0  0  0  0  0  0  0  0  0
   59.8600   31.8600   46.8420 C   0  0  0  0  0  0  0  0  0  0  0  0
   60.6350   33.0750   47.2010 N   0  0  0  0  0  0  0  0  0  0  0  0
   61.0450   33.0860   48.9000 S   0  0  0  0  0  0  0  0  0  0  0  0
   62.4580   32.6070   49.0880 O   0  0  0  0  0  0  0  0  0  0  0  0
   60.9240   34.4870   49.4350 O   0  0  0  0  0  0  0  0  0  0  0  0
   59.9660   32.0120   49.7840 C   0  0  0  0  0  0  0  0  0  0  0  0
   60.1440   30.6220   49.7220 C   0  0  0  0  0  0  0  0  0  0  0  0
   59.2800   29.7680   50.4150 C   0  0  0  0  0  0  0  0  0  0  0  0
   58.2310   30.2970   51.1730 C   0  0  0  0  0  0  0  0  0  0  0  0
   57.3880   29.4680   51.8460 N   0  0  0  0  0  0  0  0  0  0  0  0
   56.3540   29.9480   52.5890 C   0  0  0  0  0  0  0  0  0  0  0  0
   55.5960   29.1480   53.1950 O   0  0  0  0  0  0  0  0  0  0  0  0
   56.1360   31.3270   52.6790 C   0  0  0  0  0  0  0  0  0  0  0  0
   56.9840   32.2030   51.9990 C   0  0  0  0  0  0  0  0  0  0  0  0
   58.0430   31.6950   51.2360 C   0  0  0  0  0  0  0  0  0  0  0  0
   58.9120   32.5470   50.5380 C   0  0  0  0  0  0  0  0  0  0  0  0
   59.9880   34.3520   46.8320 C   0  0  0  0  0  0  0  0  0  0  0  0
   59.2100   34.2240   45.5200 C   0  0  0  0  0  0  0  0  0  0  0  0
   55.9260   29.5060   44.9880 N   0  0  0  0  0  0  0  0  0  0  0  0
   56.3810   28.2660   45.3120 C   0  0  0  0  0  0  0  0  0  0  0  0
   55.5220   27.2550   45.7310 O   0  0  0  0  0  0  0  0  0  0  0  0
   58.7522   26.9209   47.7073 H   0  0  0  0  0  0  0  0  0  0  0  0
   60.2256   26.4082   46.8168 H   0  0  0  0  0  0  0  0  0  0  0  0
   59.7316   28.1352   46.8168 H   0  0  0  0  0  0  0  0  0  0  0  0
   59.1931   26.5879   44.7284 H   0  0  0  0  0  0  0  0  0  0  0  0
   57.8195   26.0408   45.7642 H   0  0  0  0  0  0  0  0  0  0  0  0
   57.1791   33.7933   46.0880 H   0  0  0  0  0  0  0  0  0  0  0  0
   57.9583   32.4250   47.6990 H   0  0  0  0  0  0  0  0  0  0  0  0
   57.8711   31.1918   46.3707 H   0  0  0  0  0  0  0  0  0  0  0  0
   60.0207   31.1000   47.6208 H   0  0  0  0  0  0  0  0  0  0  0  0
   60.2165   31.5241   45.8571 H   0  0  0  0  0  0  0  0  0  0  0  0
   60.9671   30.2016   49.1255 H   0  0  0  0  0  0  0  0  0  0  0  0
   59.4259   28.6789   50.3636 H   0  0  0  0  0  0  0  0  0  0  0  0
   55.3026   31.7181   53.2811 H   0  0  0  0  0  0  0  0  0  0  0  0
   56.8210   33.2890   52.0622 H   0  0  0  0  0  0  0  0  0  0  0  0
   58.7662   33.6364   50.5824 H   0  0  0  0  0  0  0  0  0  0  0  0
   59.2936   34.6462   47.6328 H   0  0  0  0  0  0  0  0  0  0  0  0
   60.7721   35.1117   46.6974 H   0  0  0  0  0  0  0  0  0  0  0  0
   58.8152   35.2103   45.2349 H   0  0  0  0  0  0  0  0  0  0  0  0
   59.8869   33.8479   44.7388 H   0  0  0  0  0  0  0  0  0  0  0  0
   54.7660   27.4520   46.3770 H   0  0  0  0  0  0  0  0  0  0  0  0
  1  2  1  0
  2  3  1  0
  3  4  1  0
  4  5  1  0
  5  6  2  3
  6  7  1  0
  7  8  2  0
  7  9  1  0
  9 10  1  0
 10 11  1  0
 11 12  1  0
 12 13  1  0
 13 14  2  0
 13 15  2  0
 13 16  1  0
 16 17  2  0
 17 18  1  0
 18 19  2  0
 19 20  1  0
 20 21  1  0
 21 22  2  0
 21 23  1  0
 23 24  2  0
 24 25  1  0
 25 26  2  0
 12 27  1  0
 27 28  1  0
  5 29  1  0
 29 30  1  0
 30 31  1  0
 30  3  2  0
 28  9  1  0
 26 16  1  0
 25 19  1  0
  1 32  1  0
  1 33  1  0
  1 34  1  0
  2 35  1  0
  2 36  1  0
  9 37  1  0
 10 38  1  0
 10 39  1  0
 11 40  1  0
 11 41  1  0
 17 42  1  0
 18 43  1  0
 23 44  1  0
 24 45  1  0
 26 46  1  0
 27 47  1  0
 27 48  1  0
 28 49  1  0
 28 50  1  0
 31 51  1  0
M  CHG  2  20  -1  29  -1
M  END
>  <UniqueID>  (40) 
38

>  <SMILES>  (40) 
CCc1sc(=NC(=O)C2CCN(S(=O)(=O)c3ccc4[n-]c(=O)ccc4c3)CC2)[n-]c1O

>  <Energy>  (40) 
92.54998253425737

>  <Genealogy>  (40) 
CCc1sc(=NC(=O)C2CCN(S(=O)(=O)c3ccc4[n-]c(=O)ccc4c3)CC2)[n-]c1O (protonated)
CCc1sc(=NC(=O)C2CCN(S(=O)(=O)c3ccc4[n-]c(=O)ccc4c3)CC2)[n-]c1O (3D coordinates assigned)
CCc1sc(=NC(=O)C2CCN(S(=O)(=O)c3ccc4[n-]c(=O)ccc4c3)CC2)[n-]c1O (nonaromatic ring conformer: 92.54998253425737 kcal/mol)

>  <smiles>  (40) 
CCc1sc(=NC(=O)C2CCN(S(=O)(=O)c3ccc4[nH]c(=O)ccc4c3)CC2)[nH]c1O

>  <score_type>  (40) 
oracle

>  <origin>  (40) 
adg

>  <m_score__min__energy>  (40) 
-13.539999999999999

>  <m_primary>  (40) 
energy

$$$$
40:0
     RDKit          3D

 44 47  0  0  0  0  0  0  0  0999 V2000
   58.0990   25.1210   48.3990 O   0  0  0  0  0  0  0  0  0  0  0  0
   58.1060   25.8590   47.3780 C   0  0  0  0  0  0  0  0  0  0  0  0
   59.3410   26.4470   46.9560 N   0  0  0  0  0  0  0  0  0  0  0  0
   59.8560   27.7200   47.3750 C   0  0  0  0  0  0  0  0  0  0  0  0
   60.3560   27.8500   48.6760 C   0  0  0  0  0  0  0  0  0  0  0  0
   60.8690   29.0710   49.1170 C   0  0  0  0  0  0  0  0  0  0  0  0
   60.8680   30.1800   48.2670 C   0  0  0  0  0  0  0  0  0  0  0  0
   60.3290   30.0830   46.9800 C   0  0  0  0  0  0  0  0  0  0  0  0
   60.3510   31.2190   46.1570 O   0  0  0  0  0  0  0  0  0  0  0  0
   59.8530   32.4820   46.5090 C   0  0  0  0  0  0  0  0  0  0  0  0
   60.5160   33.2520   47.4180 N   0  0  0  0  0  0  0  0  0  0  0  0
   60.1010   34.5030   47.7460 C   0  0  0  0  0  0  0  0  0  0  0  0
   58.9750   35.0470   47.1320 C   0  0  0  0  0  0  0  0  0  0  0  0
   58.2770   34.2900   46.1910 C   0  0  0  0  0  0  0  0  0  0  0  0
   58.6980   32.9890   45.8760 C   0  0  0  0  0  0  0  0  0  0  0  0
   57.9300   32.1950   44.8880 C   0  0  0  0  0  0  0  0  0  0  0  0
   58.0910   32.3900   43.5080 C   0  0  0  0  0  0  0  0  0  0  0  0
   57.3530   31.5960   42.6290 C   0  0  0  0  0  0  0  0  0  0  0  0
   57.4710   31.7490   41.3850 O   0  0  0  0  0  0  0  0  0  0  0  0
   56.5070   30.6520   43.1170 N   0  0  0  0  0  0  0  0  0  0  0  0
   56.3700   30.4630   44.4540 C   0  0  0  0  0  0  0  0  0  0  0  0
   55.5870   29.5790   44.8880 O   0  0  0  0  0  0  0  0  0  0  0  0
   57.0810   31.2250   45.3250 N   0  0  0  0  0  0  0  0  0  0  0  0
   59.8260   28.8470   46.5340 C   0  0  0  0  0  0  0  0  0  0  0  0
   56.9180   26.0210   46.5920 N   0  0  0  0  0  0  0  0  0  0  0  0
   56.2150   24.9950   45.8760 C   0  0  0  0  0  0  0  0  0  0  0  0
   56.8390   23.7890   45.5010 C   0  0  0  0  0  0  0  0  0  0  0  0
   56.1130   22.8000   44.8320 C   0  0  0  0  0  0  0  0  0  0  0  0
   54.7600   22.9960   44.5450 C   0  0  0  0  0  0  0  0  0  0  0  0
   54.1280   24.1780   44.9350 C   0  0  0  0  0  0  0  0  0  0  0  0
   54.8500   25.1730   45.6040 C   0  0  0  0  0  0  0  0  0  0  0  0
   54.2050   26.3410   45.9960 O   0  0  0  0  0  0  0  0  0  0  0  0
   60.3446   26.9846   49.3550 H   0  0  0  0  0  0  0  0  0  0  0  0
   61.2748   29.1603   50.1355 H   0  0  0  0  0  0  0  0  0  0  0  0
   61.2932   31.1341   48.6117 H   0  0  0  0  0  0  0  0  0  0  0  0
   60.6541   35.0867   48.4966 H   0  0  0  0  0  0  0  0  0  0  0  0
   58.6397   36.0632   47.3867 H   0  0  0  0  0  0  0  0  0  0  0  0
   57.3926   34.7148   45.6936 H   0  0  0  0  0  0  0  0  0  0  0  0
   58.7850   33.1534   43.1265 H   0  0  0  0  0  0  0  0  0  0  0  0
   59.4065   28.7615   45.5208 H   0  0  0  0  0  0  0  0  0  0  0  0
   57.9012   23.6253   45.7355 H   0  0  0  0  0  0  0  0  0  0  0  0
   56.6080   21.8650   44.5307 H   0  0  0  0  0  0  0  0  0  0  0  0
   54.1927   22.2190   44.0117 H   0  0  0  0  0  0  0  0  0  0  0  0
   53.0604   24.3277   44.7161 H   0  0  0  0  0  0  0  0  0  0  0  0
  1  2  2  0
  2  3  1  0
  3  4  1  0
  4  5  2  0
  5  6  1  0
  6  7  2  0
  7  8  1  0
  8  9  1  0
  9 10  1  0
 10 11  2  0
 11 12  1  0
 12 13  2  0
 13 14  1  0
 14 15  2  0
 15 16  1  0
 16 17  2  0
 17 18  1  0
 18 19  2  0
 18 20  1  0
 20 21  1  0
 21 22  2  0
 21 23  1  0
  8 24  2  0
  2 25  1  0
 25 26  1  0
 26 27  2  0
 27 28  1  0
 28 29  2  0
 29 30  1  0
 30 31  2  0
 31 32  1  0
 24  4  1  0
 31 26  1  0
 15 10  1  0
 23 16  1  0
  5 33  1  0
  6 34  1  0
  7 35  1  0
 12 36  1  0
 13 37  1  0
 14 38  1  0
 17 39  1  0
 24 40  1  0
 27 41  1  0
 28 42  1  0
 29 43  1  0
 30 44  1  0
M  CHG  5   3  -1  20  -1  23  -1  25  -1  32  -1
M  END
>  <UniqueID>  (41) 
39

>  <SMILES>  (41) 
O=C([N-]c1cccc(Oc2ncccc2-c2cc(=O)[n-]c(=O)[n-]2)c1)[N-]c1ccccc1[O-]

>  <Energy>  (41) 
67.69433781720174

>  <Genealogy>  (41) 
O=C([N-]c1cccc(Oc2ncccc2-c2cc(=O)[n-]c(=O)[n-]2)c1)[N-]c1ccccc1[O-] (protonated)
O=C([N-]c1cccc(Oc2ncccc2-c2cc(=O)[n-]c(=O)[n-]2)c1)[N-]c1ccccc1[O-] (3D coordinates assigned)
O=C([N-]c1cccc(Oc2ncccc2-c2cc(=O)[n-]c(=O)[n-]2)c1)[N-]c1ccccc1[O-] (optimized conformer: 67.69433781720174 kcal/mol)

>  <smiles>  (41) 
O=C(Nc1cccc(Oc2ncccc2-c2cc(=O)[nH]c(=O)[nH]2)c1)Nc1ccccc1O

>  <score_type>  (41) 
oracle

>  <origin>  (41) 
adg

>  <m_score__min__energy>  (41) 
-19.030000000000001

>  <m_primary>  (41) 
energy

$$$$
41:0
     RDKit          3D

 45 48  0  0  0  0  0  0  0  0999 V2000
   56.0754   29.4789   44.1302 H   0  0  0  0  0  0  0  0  0  0  0  0
   56.8720   29.7570   44.8360 C   0  0  0  0  0  0  0  0  0  0  0  0
   57.2140   31.0590   45.0030 N   0  0  0  0  0  0  0  0  0  0  0  0
   58.2010   31.4490   45.8580 C   0  0  0  0  0  0  0  0  0  0  0  0
   58.4940   32.8560   45.9920 N   0  0  0  0  0  0  0  0  0  0  0  0
   58.7690   33.7700   44.8930 C   0  0  0  0  0  0  0  0  0  0  0  0
   59.4906   33.3225   44.1937 H   0  0  0  0  0  0  0  0  0  0  0  0
   57.8596   33.9975   44.3175 H   0  0  0  0  0  0  0  0  0  0  0  0
   59.3560   35.0210   45.5330 C   0  0  0  0  0  0  0  0  0  0  0  0
   60.4511   35.0275   45.4291 H   0  0  0  0  0  0  0  0  0  0  0  0
   58.9814   35.9372   45.0531 H   0  0  0  0  0  0  0  0  0  0  0  0
   58.9620   34.9540   47.0030 C   0  0  0  0  0  0  0  0  0  0  0  0
   59.7783   35.3302   47.6371 H   0  0  0  0  0  0  0  0  0  0  0  0
   58.0781   35.5730   47.2166 H   0  0  0  0  0  0  0  0  0  0  0  0
   58.7020   33.4820   47.2890 C   0  0  0  0  0  0  0  0  0  0  0  0
   59.5677   33.0319   47.7970 H   0  0  0  0  0  0  0  0  0  0  0  0
   57.8320   33.3455   47.9482 H   0  0  0  0  0  0  0  0  0  0  0  0
   58.8920   30.4530   46.5820 C   0  0  0  0  0  0  0  0  0  0  0  0
   59.9580   30.7880   47.4260 O   0  0  0  0  0  0  0  0  0  0  0  0
   61.2910   31.0270   46.9780 C   0  0  0  0  0  0  0  0  0  0  0  0
   61.9195   30.1560   47.2155 H   0  0  0  0  0  0  0  0  0  0  0  0
   61.2888   31.1913   45.8903 H   0  0  0  0  0  0  0  0  0  0  0  0
   61.8500   32.2670   47.6810 C   0  0  0  0  0  0  0  0  0  0  0  0
   61.2083   32.1779   48.5700 H   0  0  0  0  0  0  0  0  0  0  0  0
   62.2700   33.4180   46.7790 C   0  0  0  0  0  0  0  0  0  0  0  0
   62.0928   33.3602   45.6949 H   0  0  0  0  0  0  0  0  0  0  0  0
   62.0706   34.4995   46.7538 H   0  0  0  0  0  0  0  0  0  0  0  0
   63.3240   32.5340   47.4250 C   0  0  0  0  0  0  0  0  0  0  0  0
   63.9100   31.8368   46.8082 H   0  0  0  0  0  0  0  0  0  0  0  0
   64.2038   32.7113   48.0610 H   0  0  0  0  0  0  0  0  0  0  0  0
   58.5330   29.1500   46.4180 N   0  0  0  0  0  0  0  0  0  0  0  0
   57.5410   28.7710   45.5690 C   0  0  0  0  0  0  0  0  0  0  0  0
   57.2420   27.3350   45.3800 C   0  0  0  0  0  0  0  0  0  0  0  0
   57.7880   26.7000   44.4380 O   0  0  0  0  0  0  0  0  0  0  0  0
   56.4070   26.6220   46.3010 N   0  0  0  0  0  0  0  0  0  0  0  0
   55.7050   25.5740   45.9940 C   0  0  0  0  0  0  0  0  0  0  0  0
   54.3890   25.6070   45.6830 N   0  0  0  0  0  0  0  0  0  0  0  0
   53.9320   24.3710   45.3430 C   0  0  0  0  0  0  0  0  0  0  0  0
   52.5200   24.1410   44.9160 C   0  0  0  0  0  0  0  0  0  0  0  0
   51.8805   24.0368   45.8049 H   0  0  0  0  0  0  0  0  0  0  0  0
   52.1752   24.9948   44.3142 H   0  0  0  0  0  0  0  0  0  0  0  0
   52.4640   23.2219   44.3142 H   0  0  0  0  0  0  0  0  0  0  0  0
   54.8850   23.3560   45.3740 C   0  0  0  0  0  0  0  0  0  0  0  0
   54.7096   22.2972   45.1329 H   0  0  0  0  0  0  0  0  0  0  0  0
   56.3520   24.0330   45.8450 S   0  0  0  0  0  0  0  0  0  0  0  0
  1  2  1  0
  2  3  2  0
  3  4  1  0
  4  5  1  0
  5  6  1  0
  6  7  1  0
  6  8  1  0
  6  9  1  0
  9 10  1  0
  9 11  1  0
  9 12  1  0
 12 13  1  0
 12 14  1  0
 12 15  1  0
 15 16  1  0
 15 17  1  0
  4 18  2  0
 18 19  1  0
 19 20  1  0
 20 21  1  0
 20 22  1  0
 20 23  1  0
 23 24  1  0
 23 25  1  0
 25 26  1  0
 25 27  1  0
 25 28  1  0
 28 29  1  0
 28 30  1  0
 18 31  1  0
 31 32  2  0
 32 33  1  0
 33 34  2  0
 33 35  1  0
 35 36  2  0
 36 37  1  0
 37 38  1  0
 38 39  1  0
 39 40  1  0
 39 41  1  0
 39 42  1  0
 38 43  2  0
 43 44  1  0
 43 45  1  0
 32  2  1  0
 45 36  1  0
 15  5  1  0
 28 23  1  0
M  CHG  1  37  -1
M  END
>  <UniqueID>  (42) 
40

>  <SMILES>  (42) 
Cc1cs/c(=N/C(=O)c2cnc(N3CCCC3)c(OCC3CC3)n2)[n-]1

>  <Energy>  (42) 
345.69433002133525

>  <Genealogy>  (42) 
Cc1csc(=NC(=O)c2cnc(N3CCCC3)c(OCC3CC3)n2)[n-]1 (protonated)
Cc1cs/c(=N/C(=O)c2cnc(N3CCCC3)c(OCC3CC3)n2)[n-]1 (cis-trans isomerization)
Cc1cs/c(=N/C(=O)c2cnc(N3CCCC3)c(OCC3CC3)n2)[n-]1 (3D coordinates assigned)
Cc1cs/c(=N/C(=O)c2cnc(N3CCCC3)c(OCC3CC3)n2)[n-]1 (nonaromatic ring conformer: 345.69433002133525 kcal/mol)

>  <smiles>  (42) 
Cc1csc(=NC(=O)c2cnc(N3CCCC3)c(OCC3CC3)n2)[nH]1

>  <score_type>  (42) 
oracle

>  <origin>  (42) 
adg

>  <m_score__min__energy>  (42) 
-9.3300000000000001

>  <m_primary>  (42) 
energy

$$$$
42:0
     RDKit          3D

 50 53  0  0  0  0  0  0  0  0999 V2000
   56.3260   24.8410   47.1340 H   0  0  0  0  0  0  0  0  0  0  0  0
   55.5580   24.2950   47.5090 O   0  0  0  0  0  0  0  0  0  0  0  0
   54.5980   23.7510   46.6640 C   0  0  0  0  0  0  0  0  0  0  0  0
   53.7630   24.4810   45.9040 N   0  0  0  0  0  0  0  0  0  0  0  0
   53.0360   23.5350   45.2710 C   0  0  0  0  0  0  0  0  0  0  0  0
   52.1240   23.8180   44.4500 O   0  0  0  0  0  0  0  0  0  0  0  0
   53.3610   22.2610   45.5860 N   0  0  0  0  0  0  0  0  0  0  0  0
   54.3540   22.4090   46.4820 C   0  0  0  0  0  0  0  0  0  0  0  0
   55.0930   21.2690   47.1130 C   0  0  0  0  0  0  0  0  0  0  0  0
   54.7321   20.3231   46.6829 H   0  0  0  0  0  0  0  0  0  0  0  0
   54.9130   21.2896   48.1980 H   0  0  0  0  0  0  0  0  0  0  0  0
   56.5740   21.3900   46.8670 C   0  0  0  0  0  0  0  0  0  0  0  0
   57.3810   20.9730   47.7440 O   0  0  0  0  0  0  0  0  0  0  0  0
   57.0870   21.9760   45.6570 N   0  0  0  0  0  0  0  0  0  0  0  0
   56.4020   21.8190   44.3680 C   0  0  0  0  0  0  0  0  0  0  0  0
   55.4856   21.2281   44.5134 H   0  0  0  0  0  0  0  0  0  0  0  0
   57.0740   21.3044   43.6655 H   0  0  0  0  0  0  0  0  0  0  0  0
   56.0320   23.1960   43.7900 C   0  0  0  0  0  0  0  0  0  0  0  0
   55.0463   23.4857   44.1830 H   0  0  0  0  0  0  0  0  0  0  0  0
   56.0305   23.0985   42.6943 H   0  0  0  0  0  0  0  0  0  0  0  0
   57.0530   24.3110   44.1500 C   0  0  0  0  0  0  0  0  0  0  0  0
   57.1608   24.9512   43.2620 H   0  0  0  0  0  0  0  0  0  0  0  0
   56.5680   25.1100   45.2800 N   0  0  0  0  0  0  0  0  0  0  0  0
   57.0390   26.2690   45.6340 C   0  0  0  0  0  0  0  0  0  0  0  0
   58.1880   26.3690   46.3540 N   0  0  0  0  0  0  0  0  0  0  0  0
   58.6880   27.5760   46.7160 C   0  0  0  0  0  0  0  0  0  0  0  0
   59.6177   27.6297   47.3014 H   0  0  0  0  0  0  0  0  0  0  0  0
   58.0260   28.7570   46.3480 C   0  0  0  0  0  0  0  0  0  0  0  0
   58.5620   30.0840   46.7500 C   0  0  0  0  0  0  0  0  0  0  0  0
   59.2630   30.1720   47.7940 O   0  0  0  0  0  0  0  0  0  0  0  0
   58.2880   31.3110   45.9620 C   0  0  0  0  0  0  0  0  0  0  0  0
   58.2940   31.2620   44.5550 C   0  0  0  0  0  0  0  0  0  0  0  0
   58.5206   30.3152   44.0429 H   0  0  0  0  0  0  0  0  0  0  0  0
   58.0140   32.4080   43.8030 C   0  0  0  0  0  0  0  0  0  0  0  0
   58.0370   32.3310   42.0510 Cl  0  0  0  0  0  0  0  0  0  0  0  0
   57.7150   33.6110   44.4460 C   0  0  0  0  0  0  0  0  0  0  0  0
   57.4984   34.5122   43.8536 H   0  0  0  0  0  0  0  0  0  0  0  0
   57.6910   33.6700   45.8420 C   0  0  0  0  0  0  0  0  0  0  0  0
   57.4468   34.6169   46.3456 H   0  0  0  0  0  0  0  0  0  0  0  0
   57.9760   32.5310   46.6020 C   0  0  0  0  0  0  0  0  0  0  0  0
   57.9570   32.6250   47.9900 O   0  0  0  0  0  0  0  0  0  0  0  0
   56.8300   28.6280   45.6160 C   0  0  0  0  0  0  0  0  0  0  0  0
   56.1820   29.6460   45.2520 O   0  0  0  0  0  0  0  0  0  0  0  0
   56.3710   27.3960   45.2770 N   0  0  0  0  0  0  0  0  0  0  0  0
   58.4300   23.7210   44.5070 C   0  0  0  0  0  0  0  0  0  0  0  0
   59.1191   24.5410   44.7574 H   0  0  0  0  0  0  0  0  0  0  0  0
   58.8046   23.1547   43.6416 H   0  0  0  0  0  0  0  0  0  0  0  0
   58.3240   22.7670   45.7100 C   0  0  0  0  0  0  0  0  0  0  0  0
   58.3319   23.3580   46.6377 H   0  0  0  0  0  0  0  0  0  0  0  0
   59.1794   22.0760   45.6814 H   0  0  0  0  0  0  0  0  0  0  0  0
  1  2  1  0
  2  3  1  0
  3  4  1  0
  4  5  1  0
  5  6  2  0
  5  7  1  0
  7  8  1  0
  8  9  1  0
  9 10  1  0
  9 11  1  0
  9 12  1  0
 12 13  2  0
 12 14  1  0
 14 15  1  0
 15 16  1  0
 15 17  1  0
 15 18  1  0
 18 19  1  0
 18 20  1  0
 18 21  1  0
 21 22  1  0
 21 23  1  0
 23 24  2  0
 24 25  1  0
 25 26  1  0
 26 27  1  0
 26 28  2  0
 28 29  1  0
 29 30  2  0
 29 31  1  0
 31 32  2  0
 32 33  1  0
 32 34  1  0
 34 35  1  0
 34 36  2  0
 36 37  1  0
 36 38  1  0
 38 39  1  0
 38 40  2  0
 40 41  1  0
 28 42  1  0
 42 43  2  0
 42 44  1  0
 21 45  1  0
 45 46  1  0
 45 47  1  0
 45 48  1  0
 48 49  1  0
 48 50  1  0
  8  3  2  0
 48 14  1  0
 44 24  1  0
 40 31  1  0
M  CHG  5   4  -1   7  -1  25  -1  41  -1  44  -1
M  END
>  <UniqueID>  (43) 
41

>  <SMILES>  (43) 
O=C(c1cc(Cl)ccc1[O-])c1c[n-]/c(=N\C2CCN(C(=O)Cc3[n-]c(=O)[n-]c3O)CC2)[n-]c1=O

>  <Energy>  (43) 
94.876331140408

>  <Genealogy>  (43) 
O=C(c1cc(Cl)ccc1[O-])c1c[n-]c(=NC2CCN(C(=O)Cc3[n-]c(=O)[n-]c3O)CC2)[n-]c1=O (protonated)
O=C(c1cc(Cl)ccc1[O-])c1c[n-]/c(=N\C2CCN(C(=O)Cc3[n-]c(=O)[n-]c3O)CC2)[n-]c1=O (cis-trans isomerization)
O=C(c1cc(Cl)ccc1[O-])c1c[n-]/c(=N\C2CCN(C(=O)Cc3[n-]c(=O)[n-]c3O)CC2)[n-]c1=O (3D coordinates assigned)
O=C(c1cc(Cl)ccc1[O-])c1c[n-]/c(=N\C2CCN(C(=O)Cc3[n-]c(=O)[n-]c3O)CC2)[n-]c1=O (nonaromatic ring conformer: 94.876331140408 kcal/mol)

>  <smiles>  (43) 
O=C(c1cc(Cl)ccc1O)c1c[nH]c(=NC2CCN(C(=O)Cc3[nH]c(=O)[nH]c3O)CC2)[nH]c1=O

>  <score_type>  (43) 
oracle

>  <origin>  (43) 
adg

>  <m_score__min__energy>  (43) 
-16.82

>  <m_primary>  (43) 
energy

$$$$
43:0
     RDKit          3D

 64 66  0  0  0  0  0  0  0  0999 V2000
   56.4549   23.4607   42.0769 H   0  0  0  0  0  0  0  0  0  0  0  0
   55.9840   23.0220   42.9690 C   0  0  0  0  0  0  0  0  0  0  0  0
   55.9930   21.6350   43.1380 O   0  0  0  0  0  0  0  0  0  0  0  0
   57.0000   20.9650   43.8930 C   0  0  0  0  0  0  0  0  0  0  0  0
   57.2998   20.0493   43.3622 H   0  0  0  0  0  0  0  0  0  0  0  0
   56.5919   20.7161   44.8837 H   0  0  0  0  0  0  0  0  0  0  0  0
   58.2210   21.8590   44.0770 C   0  0  0  0  0  0  0  0  0  0  0  0
   58.4137   22.0001   45.1508 H   0  0  0  0  0  0  0  0  0  0  0  0
   59.0958   21.3863   43.6065 H   0  0  0  0  0  0  0  0  0  0  0  0
   58.0346   22.8357   43.6065 H   0  0  0  0  0  0  0  0  0  0  0  0
   55.4140   23.8240   43.8710 C   0  0  0  0  0  0  0  0  0  0  0  0
   55.0179   24.7935   43.5346 H   0  0  0  0  0  0  0  0  0  0  0  0
   55.2880   23.4640   45.3260 C   0  0  0  0  0  0  0  0  0  0  0  0
   54.4039   23.9632   45.7494 H   0  0  0  0  0  0  0  0  0  0  0  0
   55.1817   22.3732   45.4198 H   0  0  0  0  0  0  0  0  0  0  0  0
   56.4790   23.8930   46.0520 N   0  0  0  0  0  0  0  0  0  0  0  0
   57.1690   23.1630   46.3400 H   0  0  0  0  0  0  0  0  0  0  0  0
   56.6980   25.2580   46.4390 C   0  0  0  0  0  0  0  0  0  0  0  0
   55.7580   26.0940   46.3600 O   0  0  0  0  0  0  0  0  0  0  0  0
   57.9910   25.6950   47.0050 C   0  0  0  0  0  0  0  0  0  0  0  0
   58.1897   25.4605   48.0612 H   0  0  0  0  0  0  0  0  0  0  0  0
   58.9400   26.3560   46.3270 C   0  0  0  0  0  0  0  0  0  0  0  0
   59.5272   25.7904   45.5886 H   0  0  0  0  0  0  0  0  0  0  0  0
   59.2540   27.7890   46.5000 C   0  0  0  0  0  0  0  0  0  0  0  0
   58.7320   28.4830   47.5990 C   0  0  0  0  0  0  0  0  0  0  0  0
   58.0865   27.9601   48.3201 H   0  0  0  0  0  0  0  0  0  0  0  0
   59.0270   29.8360   47.7840 C   0  0  0  0  0  0  0  0  0  0  0  0
   58.6258   30.3699   48.6581 H   0  0  0  0  0  0  0  0  0  0  0  0
   59.8330   30.5160   46.8590 C   0  0  0  0  0  0  0  0  0  0  0  0
   60.1310   31.9520   47.0420 C   0  0  0  0  0  0  0  0  0  0  0  0
   59.1890   32.9050   46.8040 C   0  0  0  0  0  0  0  0  0  0  0  0
   59.5550   34.3710   46.8720 C   0  0  0  0  0  0  0  0  0  0  0  0
   59.6324   34.6811   47.9245 H   0  0  0  0  0  0  0  0  0  0  0  0
   60.5208   34.5315   46.3705 H   0  0  0  0  0  0  0  0  0  0  0  0
   58.7780   34.9666   46.3705 H   0  0  0  0  0  0  0  0  0  0  0  0
   57.7530   32.5430   46.4600 C   0  0  0  0  0  0  0  0  0  0  0  0
   57.4406   31.6916   47.0825 H   0  0  0  0  0  0  0  0  0  0  0  0
   57.1210   33.4227   46.6518 H   0  0  0  0  0  0  0  0  0  0  0  0
   57.6080   32.1650   45.0030 C   0  0  0  0  0  0  0  0  0  0  0  0
   57.9950   33.0730   44.0000 C   0  0  0  0  0  0  0  0  0  0  0  0
   58.3810   34.0644   44.2794 H   0  0  0  0  0  0  0  0  0  0  0  0
   57.8920   32.7230   42.6520 C   0  0  0  0  0  0  0  0  0  0  0  0
   58.2015   33.4369   41.8745 H   0  0  0  0  0  0  0  0  0  0  0  0
   57.3970   31.4690   42.2890 C   0  0  0  0  0  0  0  0  0  0  0  0
   57.3298   31.1910   41.2268 H   0  0  0  0  0  0  0  0  0  0  0  0
   56.9870   30.5670   43.2740 C   0  0  0  0  0  0  0  0  0  0  0  0
   56.5862   29.5841   42.9854 H   0  0  0  0  0  0  0  0  0  0  0  0
   57.0850   30.9110   44.6270 C   0  0  0  0  0  0  0  0  0  0  0  0
   56.6590   30.0010   45.5900 O   0  0  0  0  0  0  0  0  0  0  0  0
   61.4950   32.2850   47.5030 C   0  0  0  0  0  0  0  0  0  0  0  0
   62.3070   33.1490   46.7520 C   0  0  0  0  0  0  0  0  0  0  0  0
   61.9340   33.5709   45.8071 H   0  0  0  0  0  0  0  0  0  0  0  0
   63.5900   33.4740   47.2040 C   0  0  0  0  0  0  0  0  0  0  0  0
   64.2287   34.1429   46.6085 H   0  0  0  0  0  0  0  0  0  0  0  0
   64.0620   32.9510   48.4100 C   0  0  0  0  0  0  0  0  0  0  0  0
   65.0733   33.2044   48.7608 H   0  0  0  0  0  0  0  0  0  0  0  0
   63.2490   32.1050   49.1720 C   0  0  0  0  0  0  0  0  0  0  0  0
   63.6200   31.6963   50.1235 H   0  0  0  0  0  0  0  0  0  0  0  0
   61.9660   31.7790   48.7250 C   0  0  0  0  0  0  0  0  0  0  0  0
   61.3234   31.1243   49.3320 H   0  0  0  0  0  0  0  0  0  0  0  0
   60.3120   29.8380   45.7300 C   0  0  0  0  0  0  0  0  0  0  0  0
   60.9142   30.3751   44.9824 H   0  0  0  0  0  0  0  0  0  0  0  0
   60.0270   28.4820   45.5510 C   0  0  0  0  0  0  0  0  0  0  0  0
   60.4086   27.9543   44.6645 H   0  0  0  0  0  0  0  0  0  0  0  0
  1  2  1  0
  2  3  1  0
  3  4  1  0
  4  5  1  0
  4  6  1  0
  4  7  1  0
  7  8  1  0
  7  9  1  0
  7 10  1  0
  2 11  2  3
 11 12  1  0
 11 13  1  0
 13 14  1  0
 13 15  1  0
 13 16  1  0
 16 17  1  0
 16 18  1  0
 18 19  2  0
 18 20  1  0
 20 21  1  0
 20 22  2  0
 22 23  1  0
 22 24  1  0
 24 25  2  0
 25 26  1  0
 25 27  1  0
 27 28  1  0
 27 29  2  0
 29 30  1  0
 30 31  2  3
 31 32  1  0
 32 33  1  0
 32 34  1  0
 32 35  1  0
 31 36  1  0
 36 37  1  0
 36 38  1  0
 36 39  1  0
 39 40  2  0
 40 41  1  0
 40 42  1  0
 42 43  1  0
 42 44  2  0
 44 45  1  0
 44 46  1  0
 46 47  1  0
 46 48  2  0
 48 49  1  0
 30 50  1  0
 50 51  2  0
 51 52  1  0
 51 53  1  0
 53 54  1  0
 53 55  2  0
 55 56  1  0
 55 57  1  0
 57 58  1  0
 57 59  2  0
 59 60  1  0
 29 61  1  0
 61 62  1  0
 61 63  2  0
 63 64  1  0
 63 24  1  0
 48 39  1  0
 59 50  1  0
M  CHG  1  49  -1
M  END
>  <UniqueID>  (44) 
42

>  <SMILES>  (44) 
CCOC=CCNC(=O)/C=C\c1ccc(C(=C(C)Cc2ccccc2[O-])c2ccccc2)cc1

>  <Energy>  (44) 
75.05925602579825

>  <Genealogy>  (44) 
CCOC=CCNC(=O)C=Cc1ccc(C(=C(C)Cc2ccccc2[O-])c2ccccc2)cc1 (protonated)
CCOC=CCNC(=O)/C=C\c1ccc(C(=C(C)Cc2ccccc2[O-])c2ccccc2)cc1 (cis-trans isomerization)
CCOC=CCNC(=O)/C=C\c1ccc(C(=C(C)Cc2ccccc2[O-])c2ccccc2)cc1 (3D coordinates assigned)
CCOC=CCNC(=O)/C=C\c1ccc(C(=C(C)Cc2ccccc2[O-])c2ccccc2)cc1 (optimized conformer: 75.05925602579825 kcal/mol)

>  <smiles>  (44) 
CCOC=CCNC(=O)C=Cc1ccc(C(=C(C)Cc2ccccc2O)c2ccccc2)cc1

>  <score_type>  (44) 
oracle

>  <origin>  (44) 
adg

>  <m_score__min__energy>  (44) 
-13.5

>  <m_primary>  (44) 
energy

$$$$
44:0
     RDKit          3D

 59 61  0  0  0  0  0  0  0  0999 V2000
   57.6740   27.0630   45.8580 C   0  0  0  0  0  0  0  0  0  0  0  0
   57.7540   28.0300   44.7440 N   0  0  0  0  0  0  0  0  0  0  0  0
   57.3750   29.4010   45.1870 C   0  0  0  0  0  0  0  0  0  0  0  0
   58.5710   30.3440   45.4470 C   0  0  0  0  0  0  0  0  0  0  0  0
   59.7770   29.5980   45.8140 N   0  0  0  0  0  0  0  0  0  0  0  0
   60.6270   30.0650   46.8710 C   0  0  0  0  0  0  0  0  0  0  0  0
   61.5950   31.0430   46.7490 C   0  0  0  0  0  0  0  0  0  0  0  0
   62.1690   31.2480   47.9520 N   0  0  0  0  0  0  0  0  0  0  0  0
   63.1850   32.2520   48.2570 C   0  0  0  0  0  0  0  0  0  0  0  0
   62.7060   33.1570   49.3500 C   0  0  0  0  0  0  0  0  0  0  0  0
   62.2020   32.6890   50.3590 O   0  0  0  0  0  0  0  0  0  0  0  0
   62.8330   34.5030   49.2240 F   0  0  0  0  0  0  0  0  0  0  0  0
   61.5630   30.4360   48.8440 C   0  0  0  0  0  0  0  0  0  0  0  0
   60.6000   29.6810   48.2030 C   0  0  0  0  0  0  0  0  0  0  0  0
   59.4650   28.5900   48.9890 S   0  0  0  0  0  0  0  0  0  0  0  0
   60.0670   27.2150   49.0440 O   0  0  0  0  0  0  0  0  0  0  0  0
   58.1880   28.5270   48.2010 O   0  0  0  0  0  0  0  0  0  0  0  0
   59.1190   29.1340   50.5960 N   0  0  0  0  0  0  0  0  0  0  0  0
   58.6240   30.4430   50.8740 C   0  0  0  0  0  0  0  0  0  0  0  0
   57.3890   30.6320   51.0440 O   0  0  0  0  0  0  0  0  0  0  0  0
   59.5400   31.5410   50.9530 N   0  0  0  0  0  0  0  0  0  0  0  0
   59.1040   32.9230   51.1290 C   0  0  0  0  0  0  0  0  0  0  0  0
   59.2910   33.7140   49.8270 C   0  0  0  0  0  0  0  0  0  0  0  0
   59.4940   32.7960   48.6130 C   0  0  0  0  0  0  0  0  0  0  0  0
   58.9880   33.4230   47.3390 C   0  0  0  0  0  0  0  0  0  0  0  0
   57.6870   33.1610   46.8820 C   0  0  0  0  0  0  0  0  0  0  0  0
   57.2340   33.7720   45.7100 C   0  0  0  0  0  0  0  0  0  0  0  0
   58.0480   34.6160   45.0210 N   0  0  0  0  0  0  0  0  0  0  0  0
   59.3110   34.8910   45.4430 C   0  0  0  0  0  0  0  0  0  0  0  0
   59.8040   34.3020   46.6100 C   0  0  0  0  0  0  0  0  0  0  0  0
   60.1970   28.4420   45.0190 C   0  0  0  0  0  0  0  0  0  0  0  0
   59.0740   27.9880   44.0780 C   0  0  0  0  0  0  0  0  0  0  0  0
   57.7186   27.6024   46.8156 H   0  0  0  0  0  0  0  0  0  0  0  0
   56.7268   26.5074   45.7939 H   0  0  0  0  0  0  0  0  0  0  0  0
   58.5170   26.3593   45.7939 H   0  0  0  0  0  0  0  0  0  0  0  0
   57.0470   27.7210   44.0340 H   0  0  0  0  0  0  0  0  0  0  0  0
   56.7450   29.8524   44.4064 H   0  0  0  0  0  0  0  0  0  0  0  0
   56.8527   29.2859   46.1482 H   0  0  0  0  0  0  0  0  0  0  0  0
   58.7737   30.9232   44.5341 H   0  0  0  0  0  0  0  0  0  0  0  0
   58.3095   31.0080   46.2841 H   0  0  0  0  0  0  0  0  0  0  0  0
   61.8558   31.5701   45.8194 H   0  0  0  0  0  0  0  0  0  0  0  0
   64.1079   31.7484   48.5805 H   0  0  0  0  0  0  0  0  0  0  0  0
   63.3803   32.8506   47.3550 H   0  0  0  0  0  0  0  0  0  0  0  0
   61.7998   30.3836   49.9169 H   0  0  0  0  0  0  0  0  0  0  0  0
   60.5650   31.3420   50.8990 H   0  0  0  0  0  0  0  0  0  0  0  0
   58.0406   32.9344   51.4102 H   0  0  0  0  0  0  0  0  0  0  0  0
   59.7096   33.3898   51.9198 H   0  0  0  0  0  0  0  0  0  0  0  0
   58.3976   34.3329   49.6574 H   0  0  0  0  0  0  0  0  0  0  0  0
   60.1934   34.3336   49.9357 H   0  0  0  0  0  0  0  0  0  0  0  0
   60.5680   32.5855   48.5028 H   0  0  0  0  0  0  0  0  0  0  0  0
   58.9228   31.8722   48.7868 H   0  0  0  0  0  0  0  0  0  0  0  0
   57.0293   32.4800   47.4421 H   0  0  0  0  0  0  0  0  0  0  0  0
   56.2166   33.5699   45.3437 H   0  0  0  0  0  0  0  0  0  0  0  0
   59.9457   35.5784   44.8645 H   0  0  0  0  0  0  0  0  0  0  0  0
   60.8243   34.5255   46.9550 H   0  0  0  0  0  0  0  0  0  0  0  0
   61.0786   28.7170   44.4213 H   0  0  0  0  0  0  0  0  0  0  0  0
   60.4391   27.6147   45.7023 H   0  0  0  0  0  0  0  0  0  0  0  0
   59.0527   28.6522   43.2014 H   0  0  0  0  0  0  0  0  0  0  0  0
   59.2752   26.9487   43.7792 H   0  0  0  0  0  0  0  0  0  0  0  0
  1  2  1  0
  2  3  1  0
  3  4  1  0
  4  5  1  0
  5  6  1  0
  6  7  2  0
  7  8  1  0
  8  9  1  0
  9 10  1  0
 10 11  2  0
 10 12  1  0
  8 13  1  0
 13 14  2  0
 14 15  1  0
 15 16  2  0
 15 17  2  0
 15 18  1  0
 18 19  1  0
 19 20  2  0
 19 21  1  0
 21 22  1  0
 22 23  1  0
 23 24  1  0
 24 25  1  0
 25 26  2  0
 26 27  1  0
 27 28  2  0
 28 29  1  0
 29 30  2  0
  5 31  1  0
 31 32  1  0
 32  2  1  0
 14  6  1  0
 30 25  1  0
  1 33  1  0
  1 34  1  0
  1 35  1  0
  2 36  1  0
  3 37  1  0
  3 38  1  0
  4 39  1  0
  4 40  1  0
  7 41  1  0
  9 42  1  0
  9 43  1  0
 13 44  1  0
 21 45  1  0
 22 46  1  0
 22 47  1  0
 23 48  1  0
 23 49  1  0
 24 50  1  0
 24 51  1  0
 26 52  1  0
 27 53  1  0
 29 54  1  0
 30 55  1  0
 31 56  1  0
 31 57  1  0
 32 58  1  0
 32 59  1  0
M  CHG  2   2   1  18  -1
M  END
>  <UniqueID>  (45) 
43

>  <SMILES>  (45) 
C[NH+]1CCN(c2cn(CC(=O)F)cc2S(=O)(=O)[N-]C(=O)NCCCc2ccncc2)CC1

>  <Energy>  (45) 
90.43092609793443

>  <Genealogy>  (45) 
C[NH+]1CCN(c2cn(CC(=O)F)cc2S(=O)(=O)[N-]C(=O)NCCCc2ccncc2)CC1 (protonated)
C[NH+]1CCN(c2cn(CC(=O)F)cc2S(=O)(=O)[N-]C(=O)NCCCc2ccncc2)CC1 (3D coordinates assigned)
C[NH+]1CCN(c2cn(CC(=O)F)cc2S(=O)(=O)[N-]C(=O)NCCCc2ccncc2)CC1 (nonaromatic ring conformer: 90.43092609793443 kcal/mol)

>  <smiles>  (45) 
CN1CCN(c2cn(CC(=O)F)cc2S(=O)(=O)NC(=O)NCCCc2ccncc2)CC1

>  <score_type>  (45) 
oracle

>  <origin>  (45) 
adg

>  <m_score__min__energy>  (45) 
-7.7000000000000002

>  <m_primary>  (45) 
energy

$$$$
45:0
     RDKit          3D

 61 65  0  0  0  0  0  0  0  0999 V2000
   56.2350   29.7250   42.6130 C   0  0  0  0  0  0  0  0  0  0  0  0
   56.3720   29.7390   44.0970 C   0  0  0  0  0  0  0  0  0  0  0  0
   55.3390   29.7570   44.8190 O   0  0  0  0  0  0  0  0  0  0  0  0
   57.6470   29.8160   44.6690 O   0  0  0  0  0  0  0  0  0  0  0  0
   58.1700   30.9900   45.2250 C   0  0  0  0  0  0  0  0  0  0  0  0
   58.7660   31.0080   46.5050 C   0  0  0  0  0  0  0  0  0  0  0  0
   58.8910   29.7690   47.3390 C   0  0  0  0  0  0  0  0  0  0  0  0
   59.2380   32.1820   47.0080 N   0  0  0  0  0  0  0  0  0  0  0  0
   59.1930   33.3460   46.3070 C   0  0  0  0  0  0  0  0  0  0  0  0
   59.6850   34.6110   46.9420 C   0  0  0  0  0  0  0  0  0  0  0  0
   60.3120   34.3070   48.2680 C   0  0  0  0  0  0  0  0  0  0  0  0
   59.6640   34.2530   49.4980 C   0  0  0  0  0  0  0  0  0  0  0  0
   60.5240   33.8590   50.4650 N   0  0  0  0  0  0  0  0  0  0  0  0
   61.7030   33.6500   49.8530 C   0  0  0  0  0  0  0  0  0  0  0  0
   62.8890   33.2090   50.4360 C   0  0  0  0  0  0  0  0  0  0  0  0
   64.0200   33.0290   49.6050 C   0  0  0  0  0  0  0  0  0  0  0  0
   65.3050   32.5580   50.1810 C   0  0  0  0  0  0  0  0  0  0  0  0
   66.3600   33.4580   50.3990 C   0  0  0  0  0  0  0  0  0  0  0  0
   67.5590   32.9970   50.9410 C   0  0  0  0  0  0  0  0  0  0  0  0
   67.7050   31.6840   51.2550 N   0  0  0  0  0  0  0  0  0  0  0  0
   66.7110   30.7720   51.0620 C   0  0  0  0  0  0  0  0  0  0  0  0
   66.9300   29.3870   51.4190 N   0  0  0  0  0  0  0  0  0  0  0  0
   67.8430   28.5500   50.6240 C   0  0  0  0  0  0  0  0  0  0  0  0
   67.7290   27.0760   51.0220 C   0  0  0  0  0  0  0  0  0  0  0  0
   67.8550   26.9350   52.4790 N   0  0  0  0  0  0  0  0  0  0  0  0
   66.8400   27.6960   53.2440 C   0  0  0  0  0  0  0  0  0  0  0  0
   66.0650   28.7420   52.4180 C   0  0  0  0  0  0  0  0  0  0  0  0
   65.4880   31.2060   50.5150 C   0  0  0  0  0  0  0  0  0  0  0  0
   63.9120   33.2980   48.2130 C   0  0  0  0  0  0  0  0  0  0  0  0
   62.6990   33.7400   47.6570 C   0  0  0  0  0  0  0  0  0  0  0  0
   61.6120   33.9090   48.5120 C   0  0  0  0  0  0  0  0  0  0  0  0
   58.6340   33.3600   45.0230 C   0  0  0  0  0  0  0  0  0  0  0  0
   58.1300   32.1760   44.4810 C   0  0  0  0  0  0  0  0  0  0  0  0
   57.6260   32.1820   43.3260 O   0  0  0  0  0  0  0  0  0  0  0  0
   55.1740   29.6166   42.3437 H   0  0  0  0  0  0  0  0  0  0  0  0
   56.6236   30.6675   42.2000 H   0  0  0  0  0  0  0  0  0  0  0  0
   56.8063   28.8806   42.2000 H   0  0  0  0  0  0  0  0  0  0  0  0
   58.8637   30.0401   48.4047 H   0  0  0  0  0  0  0  0  0  0  0  0
   58.0569   29.0886   47.1122 H   0  0  0  0  0  0  0  0  0  0  0  0
   59.8442   29.2689   47.1122 H   0  0  0  0  0  0  0  0  0  0  0  0
   60.4313   35.0821   46.2854 H   0  0  0  0  0  0  0  0  0  0  0  0
   58.8361   35.2944   47.0916 H   0  0  0  0  0  0  0  0  0  0  0  0
   58.6036   34.4960   49.6609 H   0  0  0  0  0  0  0  0  0  0  0  0
   60.3060   33.7250   51.4780 H   0  0  0  0  0  0  0  0  0  0  0  0
   62.9448   33.0058   51.5156 H   0  0  0  0  0  0  0  0  0  0  0  0
   66.2414   34.5213   50.1436 H   0  0  0  0  0  0  0  0  0  0  0  0
   68.3884   33.6984   51.1146 H   0  0  0  0  0  0  0  0  0  0  0  0
   67.5901   28.6548   49.5586 H   0  0  0  0  0  0  0  0  0  0  0  0
   68.8743   28.8832   50.8119 H   0  0  0  0  0  0  0  0  0  0  0  0
   66.7509   26.6874   50.7022 H   0  0  0  0  0  0  0  0  0  0  0  0
   68.5351   26.5081   50.5344 H   0  0  0  0  0  0  0  0  0  0  0  0
   67.7760   25.9180   52.7200 H   0  0  0  0  0  0  0  0  0  0  0  0
   68.8120   27.2490   52.7640 H   0  0  0  0  0  0  0  0  0  0  0  0
   66.1148   26.9802   53.6583 H   0  0  0  0  0  0  0  0  0  0  0  0
   67.3868   28.2534   54.0188 H   0  0  0  0  0  0  0  0  0  0  0  0
   65.2318   28.2435   51.9011 H   0  0  0  0  0  0  0  0  0  0  0  0
   65.6922   29.5168   53.1040 H   0  0  0  0  0  0  0  0  0  0  0  0
   64.6743   30.4847   50.3490 H   0  0  0  0  0  0  0  0  0  0  0  0
   64.7885   33.1585   47.5632 H   0  0  0  0  0  0  0  0  0  0  0  0
   62.6107   33.9461   46.5801 H   0  0  0  0  0  0  0  0  0  0  0  0
   58.5923   34.2958   44.4464 H   0  0  0  0  0  0  0  0  0  0  0  0
  1  2  1  0
  2  3  2  0
  2  4  1  0
  4  5  1  0
  5  6  2  0
  6  7  1  0
  6  8  1  0
  8  9  1  0
  9 10  1  0
 10 11  1  0
 11 12  2  0
 12 13  1  0
 13 14  1  0
 14 15  2  0
 15 16  1  0
 16 17  1  0
 17 18  2  0
 18 19  1  0
 19 20  2  0
 20 21  1  0
 21 22  1  0
 22 23  1  0
 23 24  1  0
 24 25  1  0
 25 26  1  0
 26 27  1  0
 21 28  2  0
 16 29  2  0
 29 30  1  0
 30 31  2  0
  9 32  2  0
 32 33  1  0
 33 34  2  0
 33  5  1  0
 31 11  1  0
 31 14  1  0
 28 17  1  0
 27 22  1  0
  1 35  1  0
  1 36  1  0
  1 37  1  0
  7 38  1  0
  7 39  1  0
  7 40  1  0
 10 41  1  0
 10 42  1  0
 12 43  1  0
 13 44  1  0
 15 45  1  0
 18 46  1  0
 19 47  1  0
 23 48  1  0
 23 49  1  0
 24 50  1  0
 24 51  1  0
 25 52  1  0
 25 53  1  0
 26 54  1  0
 26 55  1  0
 27 56  1  0
 27 57  1  0
 28 58  1  0
 29 59  1  0
 30 60  1  0
 32 61  1  0
M  CHG  2   8  -1  25   1
M  END
>  <UniqueID>  (46) 
44

>  <SMILES>  (46) 
CC(=O)Oc1c(C)[n-]c(Cc2c[nH]c3cc(-c4ccnc(N5CC[NH2+]CC5)c4)ccc23)cc1=O

>  <Energy>  (46) 
114.22524126678259

>  <Genealogy>  (46) 
CC(=O)Oc1c(C)[n-]c(Cc2c[nH]c3cc(-c4ccnc(N5CC[NH2+]CC5)c4)ccc23)cc1=O (protonated)
CC(=O)Oc1c(C)[n-]c(Cc2c[nH]c3cc(-c4ccnc(N5CC[NH2+]CC5)c4)ccc23)cc1=O (3D coordinates assigned)
CC(=O)Oc1c(C)[n-]c(Cc2c[nH]c3cc(-c4ccnc(N5CC[NH2+]CC5)c4)ccc23)cc1=O (nonaromatic ring conformer: 114.22524126678259 kcal/mol)

>  <smiles>  (46) 
CC(=O)Oc1c(C)[nH]c(Cc2c[nH]c3cc(-c4ccnc(N5CCNCC5)c4)ccc23)cc1=O

>  <score_type>  (46) 
oracle

>  <origin>  (46) 
adg

>  <m_score__min__energy>  (46) 
-9.1899999999999995

>  <m_primary>  (46) 
energy

$$$$
46:0
     RDKit          3D

 47 50  0  0  0  0  0  0  0  0999 V2000
   64.4840   33.0970   50.4990 C   0  0  0  0  0  0  0  0  0  0  0  0
   63.6160   33.3450   49.2990 C   0  0  0  0  0  0  0  0  0  0  0  0
   64.1070   33.1390   48.0060 C   0  0  0  0  0  0  0  0  0  0  0  0
   63.2820   33.3570   46.9080 C   0  0  0  0  0  0  0  0  0  0  0  0
   61.9610   33.7690   47.1060 C   0  0  0  0  0  0  0  0  0  0  0  0
   61.1670   33.9910   46.0250 N   0  0  0  0  0  0  0  0  0  0  0  0
   59.8810   34.4020   46.1570 C   0  0  0  0  0  0  0  0  0  0  0  0
   59.0650   34.6970   44.9310 C   0  0  0  0  0  0  0  0  0  0  0  0
   57.3010   34.2920   45.1900 S   0  0  0  0  0  0  0  0  0  0  0  0
   57.5290   32.5140   45.1220 C   0  0  0  0  0  0  0  0  0  0  0  0
   57.8870   31.8140   46.2830 C   0  0  0  0  0  0  0  0  0  0  0  0
   58.1400   30.4420   46.2240 C   0  0  0  0  0  0  0  0  0  0  0  0
   58.0510   29.7570   44.9990 C   0  0  0  0  0  0  0  0  0  0  0  0
   58.3310   28.3550   44.8940 N   0  0  0  0  0  0  0  0  0  0  0  0
   58.0390   27.3730   45.8960 C   0  0  0  0  0  0  0  0  0  0  0  0
   58.9970   26.8200   46.5020 O   0  0  0  0  0  0  0  0  0  0  0  0
   56.6740   27.0610   46.2300 N   0  0  0  0  0  0  0  0  0  0  0  0
   55.9970   26.0050   45.8830 C   0  0  0  0  0  0  0  0  0  0  0  0
   56.6860   24.8880   45.3990 C   0  0  0  0  0  0  0  0  0  0  0  0
   55.9740   23.7450   45.0270 C   0  0  0  0  0  0  0  0  0  0  0  0
   54.5850   23.7290   45.1420 C   0  0  0  0  0  0  0  0  0  0  0  0
   53.9250   24.8630   45.6240 C   0  0  0  0  0  0  0  0  0  0  0  0
   54.6370   25.9670   45.9800 N   0  0  0  0  0  0  0  0  0  0  0  0
   57.6450   30.4530   43.8520 C   0  0  0  0  0  0  0  0  0  0  0  0
   57.3860   31.8260   43.9110 C   0  0  0  0  0  0  0  0  0  0  0  0
   59.3560   34.6020   47.4350 C   0  0  0  0  0  0  0  0  0  0  0  0
   60.1690   34.3730   48.5470 C   0  0  0  0  0  0  0  0  0  0  0  0
   59.6890   34.5630   49.7020 O   0  0  0  0  0  0  0  0  0  0  0  0
   61.4680   33.9600   48.3800 N   0  0  0  0  0  0  0  0  0  0  0  0
   62.2790   33.7400   49.4670 C   0  0  0  0  0  0  0  0  0  0  0  0
   63.8991   33.2641   51.4155 H   0  0  0  0  0  0  0  0  0  0  0  0
   64.8476   32.0590   50.4803 H   0  0  0  0  0  0  0  0  0  0  0  0
   65.3411   33.7862   50.4803 H   0  0  0  0  0  0  0  0  0  0  0  0
   65.1445   32.8049   47.8576 H   0  0  0  0  0  0  0  0  0  0  0  0
   63.6670   33.2060   45.8887 H   0  0  0  0  0  0  0  0  0  0  0  0
   59.1550   35.7665   44.6901 H   0  0  0  0  0  0  0  0  0  0  0  0
   59.4447   34.0774   44.1052 H   0  0  0  0  0  0  0  0  0  0  0  0
   57.9687   32.3466   47.2420 H   0  0  0  0  0  0  0  0  0  0  0  0
   58.4100   29.8948   47.1393 H   0  0  0  0  0  0  0  0  0  0  0  0
   57.7823   24.9095   45.3118 H   0  0  0  0  0  0  0  0  0  0  0  0
   56.5071   22.8618   44.6451 H   0  0  0  0  0  0  0  0  0  0  0  0
   54.0141   22.8332   44.8564 H   0  0  0  0  0  0  0  0  0  0  0  0
   52.8288   24.8632   45.7157 H   0  0  0  0  0  0  0  0  0  0  0  0
   57.5294   29.9156   42.8992 H   0  0  0  0  0  0  0  0  0  0  0  0
   57.0699   32.3655   43.0060 H   0  0  0  0  0  0  0  0  0  0  0  0
   58.3158   34.9355   47.5643 H   0  0  0  0  0  0  0  0  0  0  0  0
   61.8759   33.8750   50.4815 H   0  0  0  0  0  0  0  0  0  0  0  0
  1  2  1  0
  2  3  1  0
  3  4  2  0
  4  5  1  0
  5  6  2  0
  6  7  1  0
  7  8  1  0
  8  9  1  0
  9 10  1  0
 10 11  2  0
 11 12  1  0
 12 13  2  0
 13 14  1  0
 14 15  1  0
 15 16  2  0
 15 17  1  0
 17 18  2  3
 18 19  1  0
 19 20  2  0
 20 21  1  0
 21 22  2  0
 22 23  1  0
 13 24  1  0
 24 25  2  0
  7 26  2  0
 26 27  1  0
 27 28  2  0
 27 29  1  0
 29 30  1  0
 30  2  2  0
 29  5  1  0
 25 10  1  0
 23 18  1  0
  1 31  1  0
  1 32  1  0
  1 33  1  0
  3 34  1  0
  4 35  1  0
  8 36  1  0
  8 37  1  0
 11 38  1  0
 12 39  1  0
 19 40  1  0
 20 41  1  0
 21 42  1  0
 22 43  1  0
 24 44  1  0
 25 45  1  0
 26 46  1  0
 30 47  1  0
M  CHG  2  14  -1  23  -1
M  END
>  <UniqueID>  (47) 
45

>  <SMILES>  (47) 
Cc1ccc2nc(CSc3ccc([N-]C(=O)N=c4cccc[n-]4)cc3)cc(=O)n2c1

>  <Energy>  (47) 
55.48989219406353

>  <Genealogy>  (47) 
Cc1ccc2nc(CSc3ccc([N-]C(=O)N=c4cccc[n-]4)cc3)cc(=O)n2c1 (protonated)
Cc1ccc2nc(CSc3ccc([N-]C(=O)N=c4cccc[n-]4)cc3)cc(=O)n2c1 (3D coordinates assigned)
Cc1ccc2nc(CSc3ccc([N-]C(=O)N=c4cccc[n-]4)cc3)cc(=O)n2c1 (optimized conformer: 55.48989219406353 kcal/mol)

>  <smiles>  (47) 
Cc1ccc2nc(CSc3ccc(NC(=O)N=c4cccc[nH]4)cc3)cc(=O)n2c1

>  <score_type>  (47) 
oracle

>  <origin>  (47) 
adg

>  <m_score__min__energy>  (47) 
-12.52

>  <m_primary>  (47) 
energy

$$$$
47:0
     RDKit          3D

 35 37  0  0  0  0  0  0  0  0999 V2000
   57.9610   26.7760   45.8530 C   0  0  0  0  0  0  0  0  0  0  0  0
   56.5940   27.3500   45.6580 C   0  0  0  0  0  0  0  0  0  0  0  0
   55.5830   26.6790   45.9970 O   0  0  0  0  0  0  0  0  0  0  0  0
   56.4230   28.6900   45.0750 C   0  0  0  0  0  0  0  0  0  0  0  0
   57.4130   29.4540   44.4910 C   0  0  0  0  0  0  0  0  0  0  0  0
   56.7550   30.6040   44.1030 C   0  0  0  0  0  0  0  0  0  0  0  0
   57.3720   31.7720   43.4480 C   0  0  0  0  0  0  0  0  0  0  0  0
   57.6910   31.7010   42.2320 O   0  0  0  0  0  0  0  0  0  0  0  0
   57.6870   32.9660   44.1760 N   0  0  0  0  0  0  0  0  0  0  0  0
   58.7310   33.1120   45.1490 C   0  0  0  0  0  0  0  0  0  0  0  0
   59.2770   34.3800   45.3720 C   0  0  0  0  0  0  0  0  0  0  0  0
   60.2790   34.5610   46.3300 C   0  0  0  0  0  0  0  0  0  0  0  0
   60.7300   33.4780   47.1010 C   0  0  0  0  0  0  0  0  0  0  0  0
   61.7630   33.6760   48.0820 N   0  0  0  0  0  0  0  0  0  0  0  0
   61.5530   34.0140   49.4850 C   0  0  0  0  0  0  0  0  0  0  0  0
   62.9720   34.1960   50.0760 C   0  0  0  0  0  0  0  0  0  0  0  0
   63.8720   33.8650   49.0240 O   0  0  0  0  0  0  0  0  0  0  0  0
   63.1600   33.5690   47.8870 C   0  0  0  0  0  0  0  0  0  0  0  0
   63.6960   33.1860   46.8140 O   0  0  0  0  0  0  0  0  0  0  0  0
   60.1720   32.2040   46.8860 C   0  0  0  0  0  0  0  0  0  0  0  0
   60.6230   31.1230   47.5690 F   0  0  0  0  0  0  0  0  0  0  0  0
   59.1710   32.0280   45.9250 C   0  0  0  0  0  0  0  0  0  0  0  0
   55.4550   30.5240   44.4520 N   0  0  0  0  0  0  0  0  0  0  0  0
   55.2520   29.3560   45.0400 N   0  0  0  0  0  0  0  0  0  0  0  0
   58.1715   26.6876   46.9290 H   0  0  0  0  0  0  0  0  0  0  0  0
   58.0108   25.7810   45.3867 H   0  0  0  0  0  0  0  0  0  0  0  0
   58.7063   27.4372   45.3867 H   0  0  0  0  0  0  0  0  0  0  0  0
   58.4769   29.2050   44.3644 H   0  0  0  0  0  0  0  0  0  0  0  0
   58.9157   35.2406   44.7899 H   0  0  0  0  0  0  0  0  0  0  0  0
   60.7169   35.5588   46.4807 H   0  0  0  0  0  0  0  0  0  0  0  0
   60.9754   34.9458   49.5749 H   0  0  0  0  0  0  0  0  0  0  0  0
   60.9841   33.2355   50.0145 H   0  0  0  0  0  0  0  0  0  0  0  0
   63.1233   35.2372   50.3970 H   0  0  0  0  0  0  0  0  0  0  0  0
   63.1286   33.5602   50.9598 H   0  0  0  0  0  0  0  0  0  0  0  0
   58.7255   31.0333   45.7763 H   0  0  0  0  0  0  0  0  0  0  0  0
  1  2  1  0
  2  3  2  0
  2  4  1  0
  4  5  2  0
  5  6  1  0
  6  7  1  0
  7  8  2  0
  7  9  1  0
  9 10  1  0
 10 11  2  0
 11 12  1  0
 12 13  2  0
 13 14  1  0
 14 15  1  0
 15 16  1  0
 16 17  1  0
 17 18  1  0
 18 19  2  0
 13 20  1  0
 20 21  1  0
 20 22  2  0
  6 23  2  0
 23 24  1  0
 24  4  1  0
 22 10  1  0
 18 14  1  0
  1 25  1  0
  1 26  1  0
  1 27  1  0
  5 28  1  0
 11 29  1  0
 12 30  1  0
 15 31  1  0
 15 32  1  0
 16 33  1  0
 16 34  1  0
 22 35  1  0
M  CHG  2   9  -1  24  -1
M  END
>  <UniqueID>  (48) 
46

>  <SMILES>  (48) 
CC(=O)c1cc(C(=O)[N-]c2ccc(N3CCOC3=O)c(F)c2)n[n-]1

>  <Energy>  (48) 
88.47215480821541

>  <Genealogy>  (48) 
CC(=O)c1cc(C(=O)[N-]c2ccc(N3CCOC3=O)c(F)c2)n[n-]1 (protonated)
CC(=O)c1cc(C(=O)[N-]c2ccc(N3CCOC3=O)c(F)c2)n[n-]1 (3D coordinates assigned)
CC(=O)c1cc(C(=O)[N-]c2ccc(N3CCOC3=O)c(F)c2)n[n-]1 (nonaromatic ring conformer: 88.47215480821541 kcal/mol)

>  <smiles>  (48) 
CC(=O)c1cc(C(=O)Nc2ccc(N3CCOC3=O)c(F)c2)n[nH]1

>  <score_type>  (48) 
oracle

>  <origin>  (48) 
adg

>  <m_score__min__energy>  (48) 
-11.17

>  <m_primary>  (48) 
energy

$$$$
48:0
     RDKit          3D

 50 52  0  0  0  0  0  0  0  0999 V2000
   61.1915   26.8504   45.8079 H   0  0  0  0  0  0  0  0  0  0  0  0
   60.2590   27.4080   45.6360 C   0  0  0  0  0  0  0  0  0  0  0  0
   60.3090   28.7070   45.1320 C   0  0  0  0  0  0  0  0  0  0  0  0
   61.5060   29.2820   44.8610 F   0  0  0  0  0  0  0  0  0  0  0  0
   59.1270   29.4080   44.8890 C   0  0  0  0  0  0  0  0  0  0  0  0
   59.1734   30.4335   44.4938 H   0  0  0  0  0  0  0  0  0  0  0  0
   57.8790   28.8170   45.1440 C   0  0  0  0  0  0  0  0  0  0  0  0
   56.6590   29.6040   44.8450 C   0  0  0  0  0  0  0  0  0  0  0  0
   55.5430   29.0220   44.8700 O   0  0  0  0  0  0  0  0  0  0  0  0
   56.6950   31.0010   44.5030 N   0  0  0  0  0  0  0  0  0  0  0  0
   57.3890   31.9370   45.0840 C   0  0  0  0  0  0  0  0  0  0  0  0
   58.1060   31.6900   46.2150 N   0  0  0  0  0  0  0  0  0  0  0  0
   58.8350   32.6470   46.8600 C   0  0  0  0  0  0  0  0  0  0  0  0
   59.6590   32.2310   48.0800 C   0  0  2  0  0  0  0  0  0  0  0  0
   58.7510   31.5340   49.1130 C   0  0  0  0  0  0  0  0  0  0  0  0
   59.0862   31.7913   50.1286 H   0  0  0  0  0  0  0  0  0  0  0  0
   57.7126   31.8692   48.9737 H   0  0  0  0  0  0  0  0  0  0  0  0
   58.8064   30.4443   48.9737 H   0  0  0  0  0  0  0  0  0  0  0  0
   60.2670   33.3940   48.7340 N   0  0  0  0  0  0  0  0  0  0  0  0
   59.6470   34.0730   49.2320 H   0  0  0  0  0  0  0  0  0  0  0  0
   61.6810   33.6370   48.6880 C   0  0  0  0  0  0  0  0  0  0  0  0
   62.1970   34.5540   49.4530 N   0  0  0  0  0  0  0  0  0  0  0  0
   62.6440   34.3000   50.3620 H   0  0  0  0  0  0  0  0  0  0  0  0
   62.1970   35.5620   49.1830 H   0  0  0  0  0  0  0  0  0  0  0  0
   62.5590   32.7920   47.7630 C   0  0  0  0  0  0  0  0  0  0  0  0
   63.5810   31.9740   48.5830 C   0  0  0  0  0  0  0  0  0  0  0  0
   63.3938   32.1239   49.6565 H   0  0  0  0  0  0  0  0  0  0  0  0
   63.4773   30.9066   48.3382 H   0  0  0  0  0  0  0  0  0  0  0  0
   64.5997   32.3090   48.3382 H   0  0  0  0  0  0  0  0  0  0  0  0
   63.3300   33.7200   46.8060 C   0  0  0  0  0  0  0  0  0  0  0  0
   63.9254   34.4367   47.3907 H   0  0  0  0  0  0  0  0  0  0  0  0
   63.9985   33.1191   46.1719 H   0  0  0  0  0  0  0  0  0  0  0  0
   62.6168   34.2671   46.1719 H   0  0  0  0  0  0  0  0  0  0  0  0
   61.7860   31.9270   46.9350 O   0  0  0  0  0  0  0  0  0  0  0  0
   60.7660   31.2500   47.6440 C   0  0  0  0  0  0  0  0  0  0  0  0
   61.2005   30.7766   48.5368 H   0  0  0  0  0  0  0  0  0  0  0  0
   60.3233   30.4891   46.9844 H   0  0  0  0  0  0  0  0  0  0  0  0
   58.8680   33.9490   46.3110 C   0  0  0  0  0  0  0  0  0  0  0  0
   59.5940   34.9490   46.8660 F   0  0  0  0  0  0  0  0  0  0  0  0
   58.1290   34.2280   45.1590 C   0  0  0  0  0  0  0  0  0  0  0  0
   58.1352   35.2434   44.7361 H   0  0  0  0  0  0  0  0  0  0  0  0
   57.3840   33.2240   44.5440 C   0  0  0  0  0  0  0  0  0  0  0  0
   56.7967   33.4439   43.6403 H   0  0  0  0  0  0  0  0  0  0  0  0
   57.8270   27.5140   45.7080 C   0  0  0  0  0  0  0  0  0  0  0  0
   56.5200   26.8490   46.0600 C   0  0  0  0  0  0  0  0  0  0  0  0
   56.4180   26.7971   47.1540 H   0  0  0  0  0  0  0  0  0  0  0  0
   55.6871   27.4329   45.6414 H   0  0  0  0  0  0  0  0  0  0  0  0
   56.5016   25.8319   45.6414 H   0  0  0  0  0  0  0  0  0  0  0  0
   59.0300   26.8130   45.9230 C   0  0  0  0  0  0  0  0  0  0  0  0
   59.0130   25.5470   46.4160 F   0  0  0  0  0  0  0  0  0  0  0  0
  1  2  1  0
  2  3  2  0
  3  4  1  0
  3  5  1  0
  5  6  1  0
  5  7  2  0
  7  8  1  0
  8  9  2  0
  8 10  1  0
 10 11  2  0
 11 12  1  0
 12 13  1  0
 13 14  1  0
 14 15  1  1
 15 16  1  0
 15 17  1  0
 15 18  1  0
 14 19  1  0
 19 20  1  0
 19 21  1  0
 21 22  2  0
 22 23  1  0
 22 24  1  0
 21 25  1  0
 25 26  1  0
 26 27  1  0
 26 28  1  0
 26 29  1  0
 25 30  1  0
 30 31  1  0
 30 32  1  0
 30 33  1  0
 25 34  1  0
 34 35  1  0
 35 36  1  0
 35 37  1  0
 13 38  2  0
 38 39  1  0
 38 40  1  0
 40 41  1  0
 40 42  2  0
 42 43  1  0
  7 44  1  0
 44 45  1  0
 45 46  1  0
 45 47  1  0
 45 48  1  0
 44 49  2  0
 49 50  1  0
 49  2  1  0
 42 11  1  0
 35 14  1  0
M  CHG  2  12  -1  22   1
M  END
>  <UniqueID>  (49) 
47

>  <SMILES>  (49) 
Cc1c(F)cc(F)cc1C(=O)/N=c1/ccc(F)c([C@@]2(C)COC(C)(C)C(=[NH2+])N2)[n-]1

>  <Energy>  (49) 
64.96601864235917

>  <Genealogy>  (49) 
Cc1c(F)cc(F)cc1C(=O)N=c1ccc(F)c(C2(C)COC(C)(C)C(=[NH2+])N2)[n-]1 (protonated)
Cc1c(F)cc(F)cc1C(=O)N=c1ccc(F)c([C@@]2(C)COC(C)(C)C(=[NH2+])N2)[n-]1 (chirality)
Cc1c(F)cc(F)cc1C(=O)/N=c1/ccc(F)c([C@@]2(C)COC(C)(C)C(=[NH2+])N2)[n-]1 (cis-trans isomerization)
Cc1c(F)cc(F)cc1C(=O)/N=c1/ccc(F)c([C@@]2(C)COC(C)(C)C(=[NH2+])N2)[n-]1 (3D coordinates assigned)
Cc1c(F)cc(F)cc1C(=O)/N=c1/ccc(F)c([C@@]2(C)COC(C)(C)C(=[NH2+])N2)[n-]1 (nonaromatic ring conformer: 64.96601864235917 kcal/mol)

>  <smiles>  (49) 
Cc1c(F)cc(F)cc1C(=O)N=c1ccc(F)c(C2(C)COC(C)(C)C(=N)N2)[nH]1

>  <score_type>  (49) 
oracle

>  <origin>  (49) 
adg

>  <m_score__min__energy>  (49) 
-8.6199999999999992

>  <m_primary>  (49) 
energy

$$$$
49:0
     RDKit          3D

 61 64  0  0  0  0  0  0  0  0999 V2000
   57.7830   32.4720   43.5020 O   0  0  0  0  0  0  0  0  0  0  0  0
   57.2330   32.3200   44.6270 C   0  0  0  0  0  0  0  0  0  0  0  0
   56.3970   31.1830   44.8710 N   0  0  0  0  0  0  0  0  0  0  0  0
   56.7920   29.8160   44.5470 C   0  0  0  0  0  0  0  0  0  0  0  0
   58.0860   29.4840   45.2380 C   0  0  0  0  0  0  0  0  0  0  0  0
   58.1340   29.4240   46.6400 C   0  0  0  0  0  0  0  0  0  0  0  0
   59.3460   29.1850   47.2930 C   0  0  0  0  0  0  0  0  0  0  0  0
   60.5170   29.0010   46.5510 C   0  0  0  0  0  0  0  0  0  0  0  0
   60.4760   29.0530   45.1560 C   0  0  0  0  0  0  0  0  0  0  0  0
   59.2680   29.3010   44.4990 C   0  0  0  0  0  0  0  0  0  0  0  0
   57.5140   33.3080   45.7310 C   0  0  1  0  0  0  0  0  0  0  0  0
   57.9510   32.6080   47.0450 C   0  0  0  0  0  0  0  0  0  0  0  0
   59.3300   33.0710   47.5440 C   0  0  0  0  0  0  0  0  0  0  0  0
   60.3230   33.0390   46.4480 N   0  0  2  0  0  0  0  0  0  0  0  0
   61.6670   33.3020   46.9420 C   0  0  0  0  0  0  0  0  0  0  0  0
   62.3320   34.2190   46.3820 O   0  0  0  0  0  0  0  0  0  0  0  0
   62.3230   32.5480   48.0680 C   0  0  0  0  0  0  0  0  0  0  0  0
   63.6230   32.9130   48.4710 C   0  0  0  0  0  0  0  0  0  0  0  0
   64.2480   32.2790   49.5450 C   0  0  0  0  0  0  0  0  0  0  0  0
   63.5970   31.2610   50.2440 C   0  0  0  0  0  0  0  0  0  0  0  0
   64.4140   30.5520   51.6350 Cl  0  0  0  0  0  0  0  0  0  0  0  0
   62.3110   30.8520   49.8410 C   0  0  0  0  0  0  0  0  0  0  0  0
   61.4190   29.5980   50.7160 S   0  0  0  0  0  0  0  0  0  0  0  0
   61.0280   28.4960   49.7670 O   0  0  0  0  0  0  0  0  0  0  0  0
   62.2900   29.0070   51.7890 O   0  0  0  0  0  0  0  0  0  0  0  0
   59.9960   30.3130   51.4320 N   0  0  0  0  0  0  0  0  0  0  0  0
   60.2020   31.7350   51.7090 C   0  0  0  0  0  0  0  0  0  0  0  0
   58.8400   32.4070   51.6100 C   0  0  0  0  0  0  0  0  0  0  0  0
   57.9440   31.4090   50.8970 C   0  0  0  0  0  0  0  0  0  0  0  0
   58.8560   30.2560   50.5170 C   0  0  0  0  0  0  0  0  0  0  0  0
   61.6860   31.5020   48.7660 C   0  0  0  0  0  0  0  0  0  0  0  0
   59.9740   33.8550   45.2500 C   0  0  0  0  0  0  0  0  0  0  0  0
   58.5210   34.3730   45.2540 C   0  0  0  0  0  0  0  0  0  0  0  0
   56.0092   29.1200   44.8830 H   0  0  0  0  0  0  0  0  0  0  0  0
   56.9264   29.7242   43.4591 H   0  0  0  0  0  0  0  0  0  0  0  0
   57.2142   29.5657   47.2264 H   0  0  0  0  0  0  0  0  0  0  0  0
   59.3791   29.1415   48.3916 H   0  0  0  0  0  0  0  0  0  0  0  0
   61.4709   28.8152   47.0664 H   0  0  0  0  0  0  0  0  0  0  0  0
   61.3962   28.8985   44.5735 H   0  0  0  0  0  0  0  0  0  0  0  0
   59.2417   29.3532   43.4006 H   0  0  0  0  0  0  0  0  0  0  0  0
   56.5761   33.8284   45.9750 H   0  0  0  0  0  0  0  0  0  0  0  0
   57.9886   31.5230   46.8681 H   0  0  0  0  0  0  0  0  0  0  0  0
   57.2156   32.8733   47.8188 H   0  0  0  0  0  0  0  0  0  0  0  0
   59.6636   32.4039   48.3525 H   0  0  0  0  0  0  0  0  0  0  0  0
   59.2434   34.1042   47.9114 H   0  0  0  0  0  0  0  0  0  0  0  0
   60.3250   32.0420   46.1180 H   0  0  0  0  0  0  0  0  0  0  0  0
   64.1534   33.7105   47.9301 H   0  0  0  0  0  0  0  0  0  0  0  0
   65.2619   32.5837   49.8435 H   0  0  0  0  0  0  0  0  0  0  0  0
   60.6165   31.8673   52.7193 H   0  0  0  0  0  0  0  0  0  0  0  0
   60.9116   32.1765   50.9938 H   0  0  0  0  0  0  0  0  0  0  0  0
   58.4468   32.6279   52.6133 H   0  0  0  0  0  0  0  0  0  0  0  0
   58.8959   33.3633   51.0692 H   0  0  0  0  0  0  0  0  0  0  0  0
   57.1429   31.0627   51.5666 H   0  0  0  0  0  0  0  0  0  0  0  0
   57.4531   31.8520   50.0179 H   0  0  0  0  0  0  0  0  0  0  0  0
   58.3258   29.2987   50.6287 H   0  0  0  0  0  0  0  0  0  0  0  0
   59.1812   30.3332   49.4690 H   0  0  0  0  0  0  0  0  0  0  0  0
   60.6767   31.1884   48.4612 H   0  0  0  0  0  0  0  0  0  0  0  0
   60.1190   33.2348   44.3532 H   0  0  0  0  0  0  0  0  0  0  0  0
   60.6299   34.7380   45.2604 H   0  0  0  0  0  0  0  0  0  0  0  0
   58.2530   34.6786   44.2319 H   0  0  0  0  0  0  0  0  0  0  0  0
   58.4702   35.2181   45.9563 H   0  0  0  0  0  0  0  0  0  0  0  0
  1  2  2  0
  2  3  1  0
  3  4  1  0
  4  5  1  0
  5  6  2  0
  6  7  1  0
  7  8  2  0
  8  9  1  0
  9 10  2  0
  2 11  1  0
 11 12  1  0
 12 13  1  0
 13 14  1  0
 14 15  1  0
 15 16  2  0
 15 17  1  0
 17 18  2  0
 18 19  1  0
 19 20  2  0
 20 21  1  0
 20 22  1  0
 22 23  1  0
 23 24  2  0
 23 25  2  0
 23 26  1  0
 26 27  1  0
 27 28  1  0
 28 29  1  0
 29 30  1  0
 22 31  2  0
 14 32  1  0
 32 33  1  0
 10  5  1  0
 33 11  1  0
 31 17  1  0
 30 26  1  0
  4 34  1  0
  4 35  1  0
  6 36  1  0
  7 37  1  0
  8 38  1  0
  9 39  1  0
 10 40  1  0
 11 41  1  1
 12 42  1  0
 12 43  1  0
 13 44  1  0
 13 45  1  0
 14 46  1  6
 18 47  1  0
 19 48  1  0
 27 49  1  0
 27 50  1  0
 28 51  1  0
 28 52  1  0
 29 53  1  0
 29 54  1  0
 30 55  1  0
 30 56  1  0
 31 57  1  0
 32 58  1  0
 32 59  1  0
 33 60  1  0
 33 61  1  0
M  CHG  2   3  -1  14   1
M  END
>  <UniqueID>  (50) 
48

>  <SMILES>  (50) 
O=C([N-]Cc1ccccc1)C1CC[NH+](C(=O)c2ccc(Cl)c(S(=O)(=O)N3CCCC3)c2)CC1

>  <Energy>  (50) 
77.95343946425044

>  <Genealogy>  (50) 
O=C([N-]Cc1ccccc1)C1CC[NH+](C(=O)c2ccc(Cl)c(S(=O)(=O)N3CCCC3)c2)CC1 (protonated)
O=C([N-]Cc1ccccc1)C1CC[NH+](C(=O)c2ccc(Cl)c(S(=O)(=O)N3CCCC3)c2)CC1 (3D coordinates assigned)
O=C([N-]Cc1ccccc1)C1CC[NH+](C(=O)c2ccc(Cl)c(S(=O)(=O)N3CCCC3)c2)CC1 (nonaromatic ring conformer: 77.95343946425044 kcal/mol)

>  <smiles>  (50) 
O=C(NCc1ccccc1)C1CCN(C(=O)c2ccc(Cl)c(S(=O)(=O)N3CCCC3)c2)CC1

>  <score_type>  (50) 
oracle

>  <origin>  (50) 
adg

>  <m_score__min__energy>  (50) 
-11.35

>  <m_primary>  (50) 
energy

$$$$
50:0
     RDKit          3D

 65 69  0  0  0  0  0  0  0  0999 V2000
   66.2880   28.3420   52.1010 C   0  0  0  0  0  0  0  0  0  0  0  0
   66.4830   29.6970   52.6540 N   0  0  0  0  0  0  0  0  0  0  0  0
   65.1970   30.3920   52.8970 C   0  0  0  0  0  0  0  0  0  0  0  0
   64.5190   30.8570   51.6000 C   0  0  0  0  0  0  0  0  0  0  0  0
   65.4770   31.6020   50.7810 N   0  0  0  0  0  0  0  0  0  0  0  0
   65.2050   32.9460   50.3420 C   0  0  0  0  0  0  0  0  0  0  0  0
   66.1180   33.8130   50.4090 O   0  0  0  0  0  0  0  0  0  0  0  0
   63.8750   33.3340   49.8170 C   0  0  0  0  0  0  0  0  0  0  0  0
   62.8630   33.7860   50.6810 C   0  0  0  0  0  0  0  0  0  0  0  0
   61.6090   34.1440   50.1770 C   0  0  0  0  0  0  0  0  0  0  0  0
   61.3360   34.0350   48.8090 C   0  0  0  0  0  0  0  0  0  0  0  0
   60.0720   34.4220   48.3420 O   0  0  0  0  0  0  0  0  0  0  0  0
   59.5440   34.1150   47.0790 C   0  0  0  0  0  0  0  0  0  0  0  0
   59.7550   34.9480   45.9630 C   0  0  0  0  0  0  0  0  0  0  0  0
   59.2230   34.6030   44.7160 C   0  0  0  0  0  0  0  0  0  0  0  0
   58.5020   33.4160   44.5700 C   0  0  0  0  0  0  0  0  0  0  0  0
   58.2980   32.5760   45.6700 C   0  0  0  0  0  0  0  0  0  0  0  0
   58.8230   32.9240   46.9220 C   0  0  0  0  0  0  0  0  0  0  0  0
   57.4580   31.3790   45.4940 C   0  0  0  0  0  0  0  0  0  0  0  0
   57.0390   30.9970   44.2740 C   0  0  0  0  0  0  0  0  0  0  0  0
   56.0800   29.8700   44.1510 C   0  0  0  0  0  0  0  0  0  0  0  0
   55.4560   29.7210   43.0670 O   0  0  0  0  0  0  0  0  0  0  0  0
   55.8160   28.9430   45.2130 N   0  0  0  0  0  0  0  0  0  0  0  0
   56.6500   27.8100   45.5950 C   0  0  0  0  0  0  0  0  0  0  0  0
   58.0640   28.2790   45.7790 C   0  0  0  0  0  0  0  0  0  0  0  0
   58.4920   28.7720   47.0220 C   0  0  0  0  0  0  0  0  0  0  0  0
   59.8000   29.2410   47.1830 C   0  0  0  0  0  0  0  0  0  0  0  0
   60.6850   29.2300   46.1010 C   0  0  0  0  0  0  0  0  0  0  0  0
   60.2620   28.7560   44.8560 C   0  0  0  0  0  0  0  0  0  0  0  0
   58.9550   28.2860   44.6920 C   0  0  0  0  0  0  0  0  0  0  0  0
   57.5560   31.7210   43.0440 C   0  0  0  0  0  0  0  0  0  0  0  0
   57.9580   33.0630   43.3330 O   0  0  0  0  0  0  0  0  0  0  0  0
   62.3460   33.5860   47.9410 C   0  0  0  0  0  0  0  0  0  0  0  0
   63.6000   33.2290   48.4420 C   0  0  0  0  0  0  0  0  0  0  0  0
   66.7720   30.9740   50.5110 C   0  0  0  0  0  0  0  0  0  0  0  0
   67.4080   30.5120   51.8300 C   0  0  0  0  0  0  0  0  0  0  0  0
   66.1842   27.6210   52.9253 H   0  0  0  0  0  0  0  0  0  0  0  0
   65.3783   28.3257   51.4829 H   0  0  0  0  0  0  0  0  0  0  0  0
   67.1562   28.0698   51.4829 H   0  0  0  0  0  0  0  0  0  0  0  0
   66.9410   29.5700   53.5880 H   0  0  0  0  0  0  0  0  0  0  0  0
   64.5184   29.7029   53.4211 H   0  0  0  0  0  0  0  0  0  0  0  0
   65.4124   31.2876   53.4983 H   0  0  0  0  0  0  0  0  0  0  0  0
   64.1628   29.9803   51.0392 H   0  0  0  0  0  0  0  0  0  0  0  0
   63.6679   31.5085   51.8476 H   0  0  0  0  0  0  0  0  0  0  0  0
   63.0588   33.8586   51.7610 H   0  0  0  0  0  0  0  0  0  0  0  0
   60.8311   34.5141   50.8611 H   0  0  0  0  0  0  0  0  0  0  0  0
   60.3401   35.8730   46.0723 H   0  0  0  0  0  0  0  0  0  0  0  0
   59.3725   35.2662   43.8512 H   0  0  0  0  0  0  0  0  0  0  0  0
   58.6684   32.2594   47.7848 H   0  0  0  0  0  0  0  0  0  0  0  0
   57.1684   30.7874   46.3750 H   0  0  0  0  0  0  0  0  0  0  0  0
   56.2789   27.3810   46.5375 H   0  0  0  0  0  0  0  0  0  0  0  0
   56.6143   27.0424   44.8080 H   0  0  0  0  0  0  0  0  0  0  0  0
   57.7955   28.7895   47.8732 H   0  0  0  0  0  0  0  0  0  0  0  0
   60.1322   29.6186   48.1613 H   0  0  0  0  0  0  0  0  0  0  0  0
   61.7149   29.5946   46.2294 H   0  0  0  0  0  0  0  0  0  0  0  0
   60.9579   28.7526   44.0041 H   0  0  0  0  0  0  0  0  0  0  0  0
   58.6232   27.9206   43.7090 H   0  0  0  0  0  0  0  0  0  0  0  0
   58.4214   31.1702   42.6470 H   0  0  0  0  0  0  0  0  0  0  0  0
   56.7373   31.7654   42.3107 H   0  0  0  0  0  0  0  0  0  0  0  0
   62.1479   33.5153   46.8613 H   0  0  0  0  0  0  0  0  0  0  0  0
   64.3781   32.8631   47.7559 H   0  0  0  0  0  0  0  0  0  0  0  0
   66.6269   30.1059   49.8512 H   0  0  0  0  0  0  0  0  0  0  0  0
   67.4354   31.7027   50.0222 H   0  0  0  0  0  0  0  0  0  0  0  0
   68.2987   29.9091   51.5995 H   0  0  0  0  0  0  0  0  0  0  0  0
   67.6656   31.4113   52.4088 H   0  0  0  0  0  0  0  0  0  0  0  0
  1  2  1  0
  2  3  1  0
  3  4  1  0
  4  5  1  0
  5  6  1  0
  6  7  2  0
  6  8  1  0
  8  9  2  0
  9 10  1  0
 10 11  2  0
 11 12  1  0
 12 13  1  0
 13 14  2  0
 14 15  1  0
 15 16  2  0
 16 17  1  0
 17 18  2  0
 17 19  1  0
 19 20  2  0
 20 21  1  0
 21 22  2  0
 21 23  1  0
 23 24  1  0
 24 25  1  0
 25 26  2  0
 26 27  1  0
 27 28  2  0
 28 29  1  0
 29 30  2  0
 20 31  1  0
 31 32  1  0
 11 33  1  0
 33 34  2  0
  5 35  1  0
 35 36  1  0
 36  2  1  0
 34  8  1  0
 18 13  1  0
 30 25  1  0
 32 16  1  0
  1 37  1  0
  1 38  1  0
  1 39  1  0
  2 40  1  0
  3 41  1  0
  3 42  1  0
  4 43  1  0
  4 44  1  0
  9 45  1  0
 10 46  1  0
 14 47  1  0
 15 48  1  0
 18 49  1  0
 19 50  1  0
 24 51  1  0
 24 52  1  0
 26 53  1  0
 27 54  1  0
 28 55  1  0
 29 56  1  0
 30 57  1  0
 31 58  1  0
 31 59  1  0
 33 60  1  0
 34 61  1  0
 35 62  1  0
 35 63  1  0
 36 64  1  0
 36 65  1  0
M  CHG  2   2   1  23  -1
M  END
>  <UniqueID>  (51) 
49

>  <SMILES>  (51) 
C[NH+]1CCN(C(=O)c2ccc(Oc3ccc4c(c3)C=C(C(=O)[N-]Cc3ccccc3)CO4)cc2)CC1

>  <Energy>  (51) 
90.21269904336523

>  <Genealogy>  (51) 
C[NH+]1CCN(C(=O)c2ccc(Oc3ccc4c(c3)C=C(C(=O)[N-]Cc3ccccc3)CO4)cc2)CC1 (protonated)
C[NH+]1CCN(C(=O)c2ccc(Oc3ccc4c(c3)C=C(C(=O)[N-]Cc3ccccc3)CO4)cc2)CC1 (3D coordinates assigned)
C[NH+]1CCN(C(=O)c2ccc(Oc3ccc4c(c3)C=C(C(=O)[N-]Cc3ccccc3)CO4)cc2)CC1 (nonaromatic ring conformer: 90.21269904336523 kcal/mol)

>  <smiles>  (51) 
CN1CCN(C(=O)c2ccc(Oc3ccc4c(c3)C=C(C(=O)NCc3ccccc3)CO4)cc2)CC1

>  <score_type>  (51) 
oracle

>  <origin>  (51) 
adg

>  <m_score__min__energy>  (51) 
-10.92

>  <m_primary>  (51) 
energy

$$$$
51:0
     RDKit          3D

 59 63  0  0  0  0  0  0  0  0999 V2000
   60.8580   27.9400   52.0360 O   0  0  0  0  0  0  0  0  0  0  0  0
   60.9210   28.6040   50.9670 C   0  0  0  0  0  0  0  0  0  0  0  0
   60.8160   30.0990   51.0340 C   0  0  0  0  0  0  0  0  0  0  0  0
   61.3830   30.6640   49.8570 O   0  0  0  0  0  0  0  0  0  0  0  0
   62.4790   31.5400   49.8370 C   0  0  0  0  0  0  0  0  0  0  0  0
   63.5710   31.3860   50.7130 C   0  0  0  0  0  0  0  0  0  0  0  0
   64.6700   32.2440   50.6310 C   0  0  0  0  0  0  0  0  0  0  0  0
   64.6890   33.2660   49.6850 C   0  0  0  0  0  0  0  0  0  0  0  0
   63.6060   33.4410   48.8220 C   0  0  0  0  0  0  0  0  0  0  0  0
   62.4930   32.5880   48.8950 C   0  0  0  0  0  0  0  0  0  0  0  0
   61.3760   32.7900   48.0140 N   0  0  0  0  0  0  0  0  0  0  0  0
   59.9890   32.7130   48.3570 C   0  0  0  0  0  0  0  0  0  0  0  0
   59.5490   32.2950   49.4620 O   0  0  0  0  0  0  0  0  0  0  0  0
   59.1740   33.2570   47.2750 C   0  0  0  0  0  0  0  0  0  0  0  0
   57.7920   33.4070   47.1660 C   0  0  0  0  0  0  0  0  0  0  0  0
   57.2840   34.0140   46.0010 C   0  0  0  0  0  0  0  0  0  0  0  0
   58.1590   34.4600   44.9860 C   0  0  0  0  0  0  0  0  0  0  0  0
   59.5510   34.3000   45.1220 C   0  0  0  0  0  0  0  0  0  0  0  0
   60.0290   33.6900   46.2820 C   0  0  0  0  0  0  0  0  0  0  0  0
   61.3910   33.4160   46.7240 C   0  0  0  0  0  0  0  0  0  0  0  0
   62.4370   33.6720   46.0690 O   0  0  0  0  0  0  0  0  0  0  0  0
   61.1390   27.9100   49.7320 N   0  0  0  0  0  0  0  0  0  0  0  0
   60.2600   27.8890   48.5980 C   0  0  0  0  0  0  0  0  0  0  0  0
   60.5940   27.0920   47.4970 C   0  0  0  0  0  0  0  0  0  0  0  0
   59.7410   27.0210   46.3910 C   0  0  0  0  0  0  0  0  0  0  0  0
   58.5280   27.7240   46.3880 C   0  0  0  0  0  0  0  0  0  0  0  0
   57.4390   27.6080   45.0060 S   0  0  0  0  0  0  0  0  0  0  0  0
   57.5200   26.2210   44.4300 O   0  0  0  0  0  0  0  0  0  0  0  0
   56.0290   27.8240   45.4810 O   0  0  0  0  0  0  0  0  0  0  0  0
   57.8080   28.7770   43.7550 N   0  0  0  0  0  0  0  0  0  0  0  0
   56.5970   29.3720   43.1490 C   0  0  0  0  0  0  0  0  0  0  0  0
   56.2820   30.7770   43.6920 C   0  0  0  0  0  0  0  0  0  0  0  0
   56.7630   30.9190   45.0080 O   0  0  0  0  0  0  0  0  0  0  0  0
   58.1760   30.9390   45.0010 C   0  0  0  0  0  0  0  0  0  0  0  0
   58.8000   29.7790   44.1880 C   0  0  0  0  0  0  0  0  0  0  0  0
   58.1830   28.5060   47.4980 C   0  0  0  0  0  0  0  0  0  0  0  0
   59.0380   28.5800   48.6030 C   0  0  0  0  0  0  0  0  0  0  0  0
   59.7578   30.3900   51.1082 H   0  0  0  0  0  0  0  0  0  0  0  0
   61.3583   30.4671   51.9174 H   0  0  0  0  0  0  0  0  0  0  0  0
   63.5582   30.5848   51.4666 H   0  0  0  0  0  0  0  0  0  0  0  0
   65.5217   32.1124   51.3145 H   0  0  0  0  0  0  0  0  0  0  0  0
   65.5587   33.9362   49.6179 H   0  0  0  0  0  0  0  0  0  0  0  0
   63.6245   34.2526   48.0797 H   0  0  0  0  0  0  0  0  0  0  0  0
   57.1194   33.0620   47.9651 H   0  0  0  0  0  0  0  0  0  0  0  0
   56.1981   34.1416   45.8808 H   0  0  0  0  0  0  0  0  0  0  0  0
   57.7498   34.9359   44.0826 H   0  0  0  0  0  0  0  0  0  0  0  0
   60.2406   34.6454   44.3377 H   0  0  0  0  0  0  0  0  0  0  0  0
   61.5326   26.5183   47.5016 H   0  0  0  0  0  0  0  0  0  0  0  0
   60.0229   26.4112   45.5200 H   0  0  0  0  0  0  0  0  0  0  0  0
   56.7472   29.4419   42.0615 H   0  0  0  0  0  0  0  0  0  0  0  0
   55.7473   28.7219   43.4049 H   0  0  0  0  0  0  0  0  0  0  0  0
   56.7618   31.5292   43.0486 H   0  0  0  0  0  0  0  0  0  0  0  0
   55.1913   30.9195   43.6957 H   0  0  0  0  0  0  0  0  0  0  0  0
   58.5097   31.8914   44.5632 H   0  0  0  0  0  0  0  0  0  0  0  0
   58.5090   30.8230   46.0430 H   0  0  0  0  0  0  0  0  0  0  0  0
   59.2860   30.1991   43.2951 H   0  0  0  0  0  0  0  0  0  0  0  0
   59.5182   29.2669   44.8453 H   0  0  0  0  0  0  0  0  0  0  0  0
   57.2353   29.0645   47.5008 H   0  0  0  0  0  0  0  0  0  0  0  0
   58.7518   29.1815   49.4784 H   0  0  0  0  0  0  0  0  0  0  0  0
  1  2  2  0
  2  3  1  0
  3  4  1  0
  4  5  1  0
  5  6  2  0
  6  7  1  0
  7  8  2  0
  8  9  1  0
  9 10  2  0
 10 11  1  0
 11 12  1  0
 12 13  2  0
 12 14  1  0
 14 15  2  0
 15 16  1  0
 16 17  2  0
 17 18  1  0
 18 19  2  0
 19 20  1  0
 20 21  2  0
  2 22  1  0
 22 23  1  0
 23 24  2  0
 24 25  1  0
 25 26  2  0
 26 27  1  0
 27 28  2  0
 27 29  2  0
 27 30  1  0
 30 31  1  0
 31 32  1  0
 32 33  1  0
 33 34  1  0
 34 35  1  0
 26 36  1  0
 36 37  2  0
 10  5  1  0
 20 11  1  0
 37 23  1  0
 19 14  1  0
 35 30  1  0
  3 38  1  0
  3 39  1  0
  6 40  1  0
  7 41  1  0
  8 42  1  0
  9 43  1  0
 15 44  1  0
 16 45  1  0
 17 46  1  0
 18 47  1  0
 24 48  1  0
 25 49  1  0
 31 50  1  0
 31 51  1  0
 32 52  1  0
 32 53  1  0
 34 54  1  0
 34 55  1  0
 35 56  1  0
 35 57  1  0
 36 58  1  0
 37 59  1  0
M  CHG  1  22  -1
M  END
>  <UniqueID>  (52) 
50

>  <SMILES>  (52) 
O=C(COc1ccccc1N1C(=O)c2ccccc2C1=O)[N-]c1ccc(S(=O)(=O)N2CCOCC2)cc1

>  <Energy>  (52) 
115.58687528547014

>  <Genealogy>  (52) 
O=C(COc1ccccc1N1C(=O)c2ccccc2C1=O)[N-]c1ccc(S(=O)(=O)N2CCOCC2)cc1 (protonated)
O=C(COc1ccccc1N1C(=O)c2ccccc2C1=O)[N-]c1ccc(S(=O)(=O)N2CCOCC2)cc1 (3D coordinates assigned)
O=C(COc1ccccc1N1C(=O)c2ccccc2C1=O)[N-]c1ccc(S(=O)(=O)N2CCOCC2)cc1 (nonaromatic ring conformer: 115.58687528547014 kcal/mol)

>  <smiles>  (52) 
O=C(COc1ccccc1N1C(=O)c2ccccc2C1=O)Nc1ccc(S(=O)(=O)N2CCOCC2)cc1

>  <score_type>  (52) 
oracle

>  <origin>  (52) 
adg

>  <m_score__min__energy>  (52) 
-11.779999999999999

>  <m_primary>  (52) 
energy

$$$$
52:0
     RDKit          3D

 47 49  0  0  0  0  0  0  0  0999 V2000
   57.4140   31.4870   42.8630 C   0  0  0  0  0  0  0  0  0  0  0  0
   57.0150   30.7620   44.1620 C   0  0  1  0  0  0  0  0  0  0  0  0
   57.3090   29.2490   44.0650 C   0  0  0  0  0  0  0  0  0  0  0  0
   58.8040   28.9630   44.2660 C   0  0  0  0  0  0  0  0  0  0  0  0
   59.3590   29.5200   45.6030 C   0  0  2  0  0  0  0  0  0  0  0  0
   59.6420   28.4270   46.4800 O   0  0  0  0  0  0  0  0  0  0  0  0
   59.1910   27.1060   46.3210 C   0  0  0  0  0  0  0  0  0  0  0  0
   60.0640   26.0220   46.1100 C   0  0  0  0  0  0  0  0  0  0  0  0
   59.5570   24.7280   45.9820 C   0  0  0  0  0  0  0  0  0  0  0  0
   58.1810   24.4990   46.0550 C   0  0  0  0  0  0  0  0  0  0  0  0
   57.2930   25.5680   46.2510 C   0  0  0  0  0  0  0  0  0  0  0  0
   55.8350   25.3310   46.3430 C   0  0  0  0  0  0  0  0  0  0  0  0
   54.9070   26.3490   45.9750 N   0  0  0  0  0  0  0  0  0  0  0  0
   55.4000   24.2170   46.7350 O   0  0  0  0  0  0  0  0  0  0  0  0
   57.8120   26.8700   46.3740 C   0  0  0  0  0  0  0  0  0  0  0  0
   58.3880   30.4990   46.2980 C   0  0  0  0  0  0  0  0  0  0  0  0
   57.7060   31.3550   45.3220 N   0  0  0  0  0  0  0  0  0  0  0  0
   57.4860   32.7350   45.6490 C   0  0  0  0  0  0  0  0  0  0  0  0
   56.4060   33.2890   45.3060 O   0  0  0  0  0  0  0  0  0  0  0  0
   58.5240   33.5230   46.3350 C   0  0  0  0  0  0  0  0  0  0  0  0
   59.0360   33.2970   47.6000 C   0  0  0  0  0  0  0  0  0  0  0  0
   59.9740   34.2330   47.8370 N   0  0  0  0  0  0  0  0  0  0  0  0
   60.8450   34.3230   49.0040 C   0  0  0  0  0  0  0  0  0  0  0  0
   60.0350   34.9950   46.7270 C   0  0  0  0  0  0  0  0  0  0  0  0
   59.1460   34.5920   45.7980 N   0  0  0  0  0  0  0  0  0  0  0  0
   57.9307   32.4259   43.1110 H   0  0  0  0  0  0  0  0  0  0  0  0
   58.0850   30.8434   42.2751 H   0  0  0  0  0  0  0  0  0  0  0  0
   56.5113   31.7095   42.2751 H   0  0  0  0  0  0  0  0  0  0  0  0
   55.9314   30.8881   44.3032 H   0  0  0  0  0  0  0  0  0  0  0  0
   56.7347   28.7209   44.8404 H   0  0  0  0  0  0  0  0  0  0  0  0
   57.0178   28.8998   43.0634 H   0  0  0  0  0  0  0  0  0  0  0  0
   58.9565   27.8737   44.2510 H   0  0  0  0  0  0  0  0  0  0  0  0
   59.3454   29.4676   43.4522 H   0  0  0  0  0  0  0  0  0  0  0  0
   60.2723   30.0870   45.3696 H   0  0  0  0  0  0  0  0  0  0  0  0
   61.1484   26.1953   46.0459 H   0  0  0  0  0  0  0  0  0  0  0  0
   60.2445   23.8842   45.8228 H   0  0  0  0  0  0  0  0  0  0  0  0
   57.7912   23.4749   45.9583 H   0  0  0  0  0  0  0  0  0  0  0  0
   55.1590   27.0710   45.2660 H   0  0  0  0  0  0  0  0  0  0  0  0
   57.1232   27.7161   46.5141 H   0  0  0  0  0  0  0  0  0  0  0  0
   57.6359   29.9221   46.8561 H   0  0  0  0  0  0  0  0  0  0  0  0
   58.9686   31.1407   46.9771 H   0  0  0  0  0  0  0  0  0  0  0  0
   58.7311   32.4956   48.2891 H   0  0  0  0  0  0  0  0  0  0  0  0
   60.2387   34.2604   49.9197 H   0  0  0  0  0  0  0  0  0  0  0  0
   61.5688   33.4949   48.9861 H   0  0  0  0  0  0  0  0  0  0  0  0
   61.3842   35.2816   48.9861 H   0  0  0  0  0  0  0  0  0  0  0  0
   60.7252   35.8414   46.5956 H   0  0  0  0  0  0  0  0  0  0  0  0
   59.0010   35.0080   44.8520 H   0  0  0  0  0  0  0  0  0  0  0  0
  1  2  1  0
  2  3  1  0
  3  4  1  0
  4  5  1  0
  5  6  1  0
  6  7  1  0
  7  8  2  0
  8  9  1  0
  9 10  2  0
 10 11  1  0
 11 12  1  0
 12 13  1  0
 12 14  2  0
 11 15  2  0
  5 16  1  0
 16 17  1  0
 17 18  1  0
 18 19  2  0
 18 20  1  0
 20 21  2  0
 21 22  1  0
 22 23  1  0
 22 24  1  0
 24 25  2  0
 17  2  1  0
 25 20  1  0
 15  7  1  0
  1 26  1  0
  1 27  1  0
  1 28  1  0
  2 29  1  1
  3 30  1  0
  3 31  1  0
  4 32  1  0
  4 33  1  0
  5 34  1  6
  8 35  1  0
  9 36  1  0
 10 37  1  0
 13 38  1  0
 15 39  1  0
 16 40  1  0
 16 41  1  0
 21 42  1  0
 23 43  1  0
 23 44  1  0
 23 45  1  0
 24 46  1  0
 25 47  1  0
M  CHG  2  13  -1  25   1
M  END
>  <UniqueID>  (53) 
51

>  <SMILES>  (53) 
C[C@H]1CC[C@H](Oc2cccc(C([NH-])=O)c2)CN1C(=O)c1cn(C)c[nH+]1

>  <Energy>  (53) 
84.71518812134013

>  <Genealogy>  (53) 
CC1CCC(Oc2cccc(C([NH-])=O)c2)CN1C(=O)c1cn(C)c[nH+]1 (protonated)
C[C@H]1CC[C@H](Oc2cccc(C([NH-])=O)c2)CN1C(=O)c1cn(C)c[nH+]1 (chirality)
C[C@H]1CC[C@H](Oc2cccc(C([NH-])=O)c2)CN1C(=O)c1cn(C)c[nH+]1 (3D coordinates assigned)
C[C@H]1CC[C@H](Oc2cccc(C([NH-])=O)c2)CN1C(=O)c1cn(C)c[nH+]1 (nonaromatic ring conformer: 84.71518812134013 kcal/mol)

>  <smiles>  (53) 
CC1CCC(Oc2cccc(C(N)=O)c2)CN1C(=O)c1cn(C)cn1

>  <score_type>  (53) 
oracle

>  <origin>  (53) 
adg

>  <m_score__min__energy>  (53) 
-10.699999999999999

>  <m_primary>  (53) 
energy

$$$$
53:0
     RDKit          3D

 49 52  0  0  0  0  0  0  0  0999 V2000
   54.0380   26.3260   46.3930 H   0  0  0  0  0  0  0  0  0  0  0  0
   54.9590   26.3880   45.9780 O   0  0  0  0  0  0  0  0  0  0  0  0
   55.9860   25.5230   46.3450 C   0  0  0  0  0  0  0  0  0  0  0  0
   55.8010   24.4630   47.1490 N   0  0  0  0  0  0  0  0  0  0  0  0
   57.0210   23.8860   47.1720 C   0  0  0  0  0  0  0  0  0  0  0  0
   57.2630   22.8380   47.8250 O   0  0  0  0  0  0  0  0  0  0  0  0
   57.9600   24.5160   46.4340 N   0  0  0  0  0  0  0  0  0  0  0  0
   57.3000   25.5730   45.9260 C   0  0  0  0  0  0  0  0  0  0  0  0
   57.9190   26.5450   45.0080 C   0  0  0  0  0  0  0  0  0  0  0  0
   58.2304   26.1955   44.0126 H   0  0  0  0  0  0  0  0  0  0  0  0
   58.1240   27.8380   45.3220 C   0  0  0  0  0  0  0  0  0  0  0  0
   57.3900   28.9210   44.8580 C   0  0  0  0  0  0  0  0  0  0  0  0
   56.5518   28.8897   44.1463 H   0  0  0  0  0  0  0  0  0  0  0  0
   57.9160   30.0450   45.4630 C   0  0  0  0  0  0  0  0  0  0  0  0
   57.4250   31.4420   45.2330 C   0  0  0  0  0  0  0  0  0  0  0  0
   57.2521   31.9340   46.2015 H   0  0  0  0  0  0  0  0  0  0  0  0
   58.1786   32.0066   44.6643 H   0  0  0  0  0  0  0  0  0  0  0  0
   56.4839   31.4109   44.6643 H   0  0  0  0  0  0  0  0  0  0  0  0
   58.9450   29.7070   46.2730 N   0  0  0  0  0  0  0  0  0  0  0  0
   59.7250   30.6210   47.0630 C   0  0  0  0  0  0  0  0  0  0  0  0
   61.0410   30.9320   46.6930 C   0  0  0  0  0  0  0  0  0  0  0  0
   61.4760   30.4851   45.7869 H   0  0  0  0  0  0  0  0  0  0  0  0
   61.8010   31.8070   47.4710 C   0  0  0  0  0  0  0  0  0  0  0  0
   62.8299   32.0549   47.1712 H   0  0  0  0  0  0  0  0  0  0  0  0
   61.2580   32.3690   48.6300 C   0  0  0  0  0  0  0  0  0  0  0  0
   61.8605   33.0619   49.2357 H   0  0  0  0  0  0  0  0  0  0  0  0
   59.9470   32.0540   49.0260 C   0  0  0  0  0  0  0  0  0  0  0  0
   59.3720   32.6480   50.2550 C   0  0  0  0  0  0  0  0  0  0  0  0
   59.6120   33.8540   50.5330 O   0  0  0  0  0  0  0  0  0  0  0  0
   58.5260   31.8780   51.1270 N   0  0  0  0  0  0  0  0  0  0  0  0
   57.4070   32.5320   51.8070 C   0  0  0  0  0  0  0  0  0  0  0  0
   57.7663   33.0039   52.7334 H   0  0  0  0  0  0  0  0  0  0  0  0
   56.9757   33.2995   51.1475 H   0  0  0  0  0  0  0  0  0  0  0  0
   56.3350   31.4900   52.1470 C   0  0  0  0  0  0  0  0  0  0  0  0
   55.5588   31.9609   52.7682 H   0  0  0  0  0  0  0  0  0  0  0  0
   55.8999   31.1137   51.2094 H   0  0  0  0  0  0  0  0  0  0  0  0
   56.8980   30.4000   52.8550 O   0  0  0  0  0  0  0  0  0  0  0  0
   57.8200   29.7150   52.0280 C   0  0  0  0  0  0  0  0  0  0  0  0
   58.1812   28.8192   52.5544 H   0  0  0  0  0  0  0  0  0  0  0  0
   57.3139   29.4301   51.0938 H   0  0  0  0  0  0  0  0  0  0  0  0
   59.0130   30.6140   51.6880 C   0  0  0  0  0  0  0  0  0  0  0  0
   59.5918   30.8166   52.6012 H   0  0  0  0  0  0  0  0  0  0  0  0
   59.6558   30.1088   50.9520 H   0  0  0  0  0  0  0  0  0  0  0  0
   59.1810   31.1880   48.2240 C   0  0  0  0  0  0  0  0  0  0  0  0
   58.1452   30.9536   48.5108 H   0  0  0  0  0  0  0  0  0  0  0  0
   59.0800   28.3580   46.2000 C   0  0  0  0  0  0  0  0  0  0  0  0
   60.0280   27.6610   46.8460 C   0  0  0  0  0  0  0  0  0  0  0  0
   60.7304   28.1782   47.5161 H   0  0  0  0  0  0  0  0  0  0  0  0
   60.1025   26.5726   46.7052 H   0  0  0  0  0  0  0  0  0  0  0  0
  1  2  1  0
  2  3  1  0
  3  4  1  0
  4  5  1  0
  5  6  2  0
  5  7  1  0
  7  8  1  0
  8  9  1  0
  9 10  1  0
  9 11  2  0
 11 12  1  0
 12 13  1  0
 12 14  2  0
 14 15  1  0
 15 16  1  0
 15 17  1  0
 15 18  1  0
 14 19  1  0
 19 20  1  0
 20 21  2  0
 21 22  1  0
 21 23  1  0
 23 24  1  0
 23 25  2  0
 25 26  1  0
 25 27  1  0
 27 28  1  0
 28 29  2  0
 28 30  1  0
 30 31  1  0
 31 32  1  0
 31 33  1  0
 31 34  1  0
 34 35  1  0
 34 36  1  0
 34 37  1  0
 37 38  1  0
 38 39  1  0
 38 40  1  0
 38 41  1  0
 41 42  1  0
 41 43  1  0
 27 44  2  0
 44 45  1  0
 19 46  1  0
 46 47  2  0
 47 48  1  0
 47 49  1  0
  8  3  2  0
 46 11  1  0
 44 20  1  0
 41 30  1  0
M  CHG  2   4  -1   7  -1
M  END
>  <UniqueID>  (54) 
52

>  <SMILES>  (54) 
C=c1/c(=C/c2[n-]c(=O)[n-]c2O)cc(C)n1-c1cccc(C(=O)N2CCOCC2)c1

>  <Energy>  (54) 
127.23887285189144

>  <Genealogy>  (54) 
C=c1c(=Cc2[n-]c(=O)[n-]c2O)cc(C)n1-c1cccc(C(=O)N2CCOCC2)c1 (protonated)
C=c1/c(=C/c2[n-]c(=O)[n-]c2O)cc(C)n1-c1cccc(C(=O)N2CCOCC2)c1 (cis-trans isomerization)
C=c1/c(=C/c2[n-]c(=O)[n-]c2O)cc(C)n1-c1cccc(C(=O)N2CCOCC2)c1 (3D coordinates assigned)
C=c1/c(=C/c2[n-]c(=O)[n-]c2O)cc(C)n1-c1cccc(C(=O)N2CCOCC2)c1 (nonaromatic ring conformer: 127.23887285189144 kcal/mol)

>  <smiles>  (54) 
C=c1c(=Cc2[nH]c(=O)[nH]c2O)cc(C)n1-c1cccc(C(=O)N2CCOCC2)c1

>  <score_type>  (54) 
oracle

>  <origin>  (54) 
adg

>  <m_score__min__energy>  (54) 
-14.470000000000001

>  <m_primary>  (54) 
energy

$$$$
54:0
     RDKit          3D

 25 26  0  0  0  0  0  0  0  0999 V2000
   58.8620   30.0560   44.1040 O   0  0  0  0  0  0  0  0  0  0  0  0
   57.7250   29.9710   44.6440 C   0  0  0  0  0  0  0  0  0  0  0  0
   56.9090   31.1430   44.7900 N   0  0  0  0  0  0  0  0  0  0  0  0
   57.3610   32.4680   44.3710 C   0  0  0  0  0  0  0  0  0  0  0  0
   58.0780   33.1530   45.4980 C   0  0  0  0  0  0  0  0  0  0  0  0
   58.8800   34.2770   45.2530 C   0  0  0  0  0  0  0  0  0  0  0  0
   59.5160   34.9090   46.3230 C   0  0  0  0  0  0  0  0  0  0  0  0
   59.3440   34.4210   47.6200 C   0  0  0  0  0  0  0  0  0  0  0  0
   58.5340   33.3020   47.8270 C   0  0  0  0  0  0  0  0  0  0  0  0
   57.9220   32.7000   46.7730 N   0  0  0  0  0  0  0  0  0  0  0  0
   57.2450   28.6640   45.1200 C   0  0  0  0  0  0  0  0  0  0  0  0
   58.0530   27.5980   45.4800 C   0  0  0  0  0  0  0  0  0  0  0  0
   57.2060   26.5840   45.8640 C   0  0  0  0  0  0  0  0  0  0  0  0
   55.9330   27.0880   45.7170 C   0  0  0  0  0  0  0  0  0  0  0  0
   54.7690   26.3860   45.9970 O   0  0  0  0  0  0  0  0  0  0  0  0
   55.9390   28.3550   45.2650 N   0  0  0  0  0  0  0  0  0  0  0  0
   55.9520   31.0560   45.2000 H   0  0  0  0  0  0  0  0  0  0  0  0
   58.0445   32.3647   43.5153 H   0  0  0  0  0  0  0  0  0  0  0  0
   56.4868   33.0706   44.0836 H   0  0  0  0  0  0  0  0  0  0  0  0
   59.0066   34.6567   44.2284 H   0  0  0  0  0  0  0  0  0  0  0  0
   60.1511   35.7893   46.1449 H   0  0  0  0  0  0  0  0  0  0  0  0
   59.8410   34.9124   48.4694 H   0  0  0  0  0  0  0  0  0  0  0  0
   58.3912   32.9076   48.8439 H   0  0  0  0  0  0  0  0  0  0  0  0
   59.1525   27.5681   45.4624 H   0  0  0  0  0  0  0  0  0  0  0  0
   57.4871   25.5802   46.2152 H   0  0  0  0  0  0  0  0  0  0  0  0
  1  2  2  0
  2  3  1  0
  3  4  1  0
  4  5  1  0
  5  6  2  0
  6  7  1  0
  7  8  2  0
  8  9  1  0
  9 10  2  0
  2 11  1  0
 11 12  2  0
 12 13  1  0
 13 14  2  0
 14 15  1  0
 14 16  1  0
 10  5  1  0
 16 11  1  0
  3 17  1  0
  4 18  1  0
  4 19  1  0
  6 20  1  0
  7 21  1  0
  8 22  1  0
  9 23  1  0
 12 24  1  0
 13 25  1  0
M  CHG  2  15  -1  16  -1
M  END
>  <UniqueID>  (55) 
53

>  <SMILES>  (55) 
O=C(NCc1ccccn1)c1ccc([O-])[n-]1

>  <Energy>  (55) 
47.66252595282263

>  <Genealogy>  (55) 
O=C(NCc1ccccn1)c1ccc([O-])[n-]1 (protonated)
O=C(NCc1ccccn1)c1ccc([O-])[n-]1 (3D coordinates assigned)
O=C(NCc1ccccn1)c1ccc([O-])[n-]1 (optimized conformer: 47.66252595282263 kcal/mol)

>  <smiles>  (55) 
O=C(NCc1ccccn1)c1ccc(O)[nH]1

>  <score_type>  (55) 
oracle

>  <origin>  (55) 
adg

>  <m_score__min__energy>  (55) 
-11.82

>  <m_primary>  (55) 
energy

$$$$
55:0
     RDKit          3D

 48 51  0  0  0  0  0  0  0  0999 V2000
   55.1460   25.7410   46.1510 O   0  0  0  0  0  0  0  0  0  0  0  0
   55.8210   24.7010   46.3680 C   0  0  0  0  0  0  0  0  0  0  0  0
   57.2290   24.8380   46.8820 C   0  0  0  0  0  0  0  0  0  0  0  0
   58.0800   25.4280   45.9000 O   0  0  0  0  0  0  0  0  0  0  0  0
   58.2050   26.8040   45.6550 C   0  0  0  0  0  0  0  0  0  0  0  0
   59.5090   27.3410   45.5280 C   0  0  0  0  0  0  0  0  0  0  0  0
   59.7050   28.7140   45.2920 C   0  0  0  0  0  0  0  0  0  0  0  0
   58.5760   29.5180   45.1870 C   0  0  0  0  0  0  0  0  0  0  0  0
   58.5290   30.8410   44.9740 N   0  0  0  0  0  0  0  0  0  0  0  0
   57.1910   31.0870   44.9800 C   0  0  0  0  0  0  0  0  0  0  0  0
   56.6800   32.2690   44.8060 N   0  0  0  0  0  0  0  0  0  0  0  0
   57.3470   33.5170   45.0530 C   0  0  0  0  0  0  0  0  0  0  0  0
   56.6540   34.5540   45.2210 O   0  0  0  0  0  0  0  0  0  0  0  0
   58.7760   33.6200   45.1190 N   0  0  0  0  0  0  0  0  0  0  0  0
   59.5590   33.7860   46.3110 C   0  0  0  0  0  0  0  0  0  0  0  0
   58.9170   34.1770   47.4930 C   0  0  0  0  0  0  0  0  0  0  0  0
   59.6520   34.3600   48.6690 C   0  0  0  0  0  0  0  0  0  0  0  0
   61.0320   34.1410   48.6730 C   0  0  0  0  0  0  0  0  0  0  0  0
   61.6790   33.7270   47.5040 C   0  0  0  0  0  0  0  0  0  0  0  0
   63.4090   33.4400   47.5130 Cl  0  0  0  0  0  0  0  0  0  0  0  0
   60.9450   33.5390   46.3270 C   0  0  0  0  0  0  0  0  0  0  0  0
   56.4100   29.9920   45.1690 N   0  0  0  0  0  0  0  0  0  0  0  0
   57.3180   29.0140   45.3020 C   0  0  0  0  0  0  0  0  0  0  0  0
   57.0820   27.6610   45.5350 C   0  0  0  0  0  0  0  0  0  0  0  0
   55.2220   23.4250   46.1070 N   0  0  0  0  0  0  0  0  0  0  0  0
   55.3980   22.6270   44.8940 C   0  0  0  0  0  0  0  0  0  0  0  0
   56.5370   21.6130   45.0380 C   0  0  0  0  0  0  0  0  0  0  0  0
   57.3620   21.6860   43.7550 C   0  0  0  0  0  0  0  0  0  0  0  0
   56.6320   22.6430   42.8230 C   0  0  0  0  0  0  0  0  0  0  0  0
   55.7890   23.5200   43.7270 C   0  0  0  0  0  0  0  0  0  0  0  0
   57.2232   25.4728   47.7803 H   0  0  0  0  0  0  0  0  0  0  0  0
   57.6131   23.8350   47.1195 H   0  0  0  0  0  0  0  0  0  0  0  0
   60.3806   26.6756   45.6150 H   0  0  0  0  0  0  0  0  0  0  0  0
   60.7160   29.1363   45.1940 H   0  0  0  0  0  0  0  0  0  0  0  0
   57.8293   34.3410   47.4964 H   0  0  0  0  0  0  0  0  0  0  0  0
   59.1432   34.6766   49.5914 H   0  0  0  0  0  0  0  0  0  0  0  0
   61.6101   34.2943   49.5962 H   0  0  0  0  0  0  0  0  0  0  0  0
   61.4522   33.1975   45.4126 H   0  0  0  0  0  0  0  0  0  0  0  0
   56.0575   27.2702   45.6230 H   0  0  0  0  0  0  0  0  0  0  0  0
   54.4396   22.1144   44.7243 H   0  0  0  0  0  0  0  0  0  0  0  0
   57.1634   21.8686   45.9054 H   0  0  0  0  0  0  0  0  0  0  0  0
   56.1427   20.5982   45.1949 H   0  0  0  0  0  0  0  0  0  0  0  0
   58.3712   22.0649   43.9737 H   0  0  0  0  0  0  0  0  0  0  0  0
   57.4719   20.6921   43.2967 H   0  0  0  0  0  0  0  0  0  0  0  0
   57.3515   23.2529   42.2570 H   0  0  0  0  0  0  0  0  0  0  0  0
   56.0179   22.1065   42.0847 H   0  0  0  0  0  0  0  0  0  0  0  0
   56.3718   24.3835   44.0800 H   0  0  0  0  0  0  0  0  0  0  0  0
   54.9092   23.9243   43.2049 H   0  0  0  0  0  0  0  0  0  0  0  0
  1  2  2  0
  2  3  1  0
  3  4  1  0
  4  5  1  0
  5  6  2  0
  6  7  1  0
  7  8  2  0
  8  9  1  0
  9 10  1  0
 10 11  2  3
 11 12  1  0
 12 13  2  0
 12 14  1  0
 14 15  1  0
 15 16  2  0
 16 17  1  0
 17 18  2  0
 18 19  1  0
 19 20  1  0
 19 21  2  0
 10 22  1  0
 22 23  1  0
 23 24  2  0
  2 25  1  0
 25 26  1  0
 26 27  1  0
 27 28  1  0
 28 29  1  0
 29 30  1  0
 24  5  1  0
 30 26  1  0
 23  8  1  0
 21 15  1  0
  3 31  1  0
  3 32  1  0
  6 33  1  0
  7 34  1  0
 16 35  1  0
 17 36  1  0
 18 37  1  0
 21 38  1  0
 24 39  1  0
 26 40  1  0
 27 41  1  0
 27 42  1  0
 28 43  1  0
 28 44  1  0
 29 45  1  0
 29 46  1  0
 30 47  1  0
 30 48  1  0
M  CHG  4   9  -1  14  -1  22  -1  25  -1
M  END
>  <UniqueID>  (56) 
54

>  <SMILES>  (56) 
O=C(COc1ccc2[n-]c(=NC(=O)[N-]c3cccc(Cl)c3)[n-]c2c1)[N-]C1CCCC1

>  <Energy>  (56) 
91.2719919017718

>  <Genealogy>  (56) 
O=C(COc1ccc2[n-]c(=NC(=O)[N-]c3cccc(Cl)c3)[n-]c2c1)[N-]C1CCCC1 (protonated)
O=C(COc1ccc2[n-]c(=NC(=O)[N-]c3cccc(Cl)c3)[n-]c2c1)[N-]C1CCCC1 (3D coordinates assigned)
O=C(COc1ccc2[n-]c(=NC(=O)[N-]c3cccc(Cl)c3)[n-]c2c1)[N-]C1CCCC1 (nonaromatic ring conformer: 91.2719919017718 kcal/mol)

>  <smiles>  (56) 
O=C(COc1ccc2[nH]c(=NC(=O)Nc3cccc(Cl)c3)[nH]c2c1)NC1CCCC1

>  <score_type>  (56) 
oracle

>  <origin>  (56) 
adg

>  <m_score__min__energy>  (56) 
-13.57

>  <m_primary>  (56) 
energy

$$$$
56:0
     RDKit          3D

 47 49  0  0  0  0  0  0  0  0999 V2000
   63.3350   31.4000   47.2500 N   0  0  0  0  0  0  0  0  0  0  0  0
   62.6180   31.6060   48.5110 C   0  0  1  0  0  0  0  0  0  0  0  0
   62.0810   33.0530   48.6450 C   0  0  0  0  0  0  0  0  0  0  0  0
   61.8040   33.7670   47.3520 C   0  0  0  0  0  0  0  0  0  0  0  0
   62.6390   33.7120   46.4120 O   0  0  0  0  0  0  0  0  0  0  0  0
   60.6690   34.6360   47.2560 N   0  0  0  0  0  0  0  0  0  0  0  0
   59.2930   34.2010   47.4810 C   0  0  0  0  0  0  0  0  0  0  0  0
   58.7030   33.5880   46.2390 C   0  0  0  0  0  0  0  0  0  0  0  0
   57.7530   32.5570   46.3440 C   0  0  0  0  0  0  0  0  0  0  0  0
   57.2060   31.9830   45.1920 C   0  0  0  0  0  0  0  0  0  0  0  0
   57.6090   32.4260   43.9300 C   0  0  0  0  0  0  0  0  0  0  0  0
   58.5490   33.4540   43.8170 C   0  0  0  0  0  0  0  0  0  0  0  0
   59.0910   34.0390   44.9670 C   0  0  0  0  0  0  0  0  0  0  0  0
   61.5400   30.5590   48.7630 C   0  0  0  0  0  0  0  0  0  0  0  0
   61.3800   30.0260   50.0590 C   0  0  0  0  0  0  0  0  0  0  0  0
   60.4060   29.0440   50.1630 C   0  0  0  0  0  0  0  0  0  0  0  0
   59.7350   28.8190   48.6470 S   0  0  0  0  0  0  0  0  0  0  0  0
   60.6610   29.9670   47.8330 C   0  0  0  0  0  0  0  0  0  0  0  0
   60.4670   30.2560   46.3700 C   0  0  0  0  0  0  0  0  0  0  0  0
   60.7320   28.7640   45.3570 S   0  0  0  0  0  0  0  0  0  0  0  0
   59.0560   28.1470   45.5340 C   0  0  0  0  0  0  0  0  0  0  0  0
   58.8260   26.8970   46.1240 C   0  0  0  0  0  0  0  0  0  0  0  0
   57.5200   26.4190   46.2670 C   0  0  0  0  0  0  0  0  0  0  0  0
   56.4390   27.1940   45.8300 C   0  0  0  0  0  0  0  0  0  0  0  0
   55.1420   26.7180   45.9750 O   0  0  0  0  0  0  0  0  0  0  0  0
   56.6670   28.4450   45.2500 C   0  0  0  0  0  0  0  0  0  0  0  0
   57.9730   28.9220   45.1000 C   0  0  0  0  0  0  0  0  0  0  0  0
   62.6660   31.5480   46.4590 H   0  0  0  0  0  0  0  0  0  0  0  0
   64.0430   32.1640   47.1560 H   0  0  0  0  0  0  0  0  0  0  0  0
   63.3600   31.4663   49.3109 H   0  0  0  0  0  0  0  0  0  0  0  0
   61.1424   33.0137   49.2173 H   0  0  0  0  0  0  0  0  0  0  0  0
   62.8803   33.6252   49.1386 H   0  0  0  0  0  0  0  0  0  0  0  0
   59.2807   33.4551   48.2893 H   0  0  0  0  0  0  0  0  0  0  0  0
   58.6911   35.0804   47.7537 H   0  0  0  0  0  0  0  0  0  0  0  0
   57.4387   32.2004   47.3360 H   0  0  0  0  0  0  0  0  0  0  0  0
   56.4575   31.1817   45.2798 H   0  0  0  0  0  0  0  0  0  0  0  0
   57.1863   31.9655   43.0248 H   0  0  0  0  0  0  0  0  0  0  0  0
   58.8633   33.8038   42.8226 H   0  0  0  0  0  0  0  0  0  0  0  0
   59.8232   34.8546   44.8742 H   0  0  0  0  0  0  0  0  0  0  0  0
   61.9793   30.3620   50.9180 H   0  0  0  0  0  0  0  0  0  0  0  0
   60.1242   28.5074   51.0810 H   0  0  0  0  0  0  0  0  0  0  0  0
   59.4413   30.6198   46.2099 H   0  0  0  0  0  0  0  0  0  0  0  0
   61.2023   31.0158   46.0665 H   0  0  0  0  0  0  0  0  0  0  0  0
   59.6742   26.2910   46.4751 H   0  0  0  0  0  0  0  0  0  0  0  0
   57.3417   25.4339   46.7229 H   0  0  0  0  0  0  0  0  0  0  0  0
   55.8173   29.0557   44.9108 H   0  0  0  0  0  0  0  0  0  0  0  0
   58.1498   29.9060   44.6411 H   0  0  0  0  0  0  0  0  0  0  0  0
  1  2  1  0
  2  3  1  0
  3  4  1  0
  4  5  2  0
  4  6  1  0
  6  7  1  0
  7  8  1  0
  8  9  2  0
  9 10  1  0
 10 11  2  0
 11 12  1  0
 12 13  2  0
  2 14  1  0
 14 15  1  0
 15 16  2  0
 16 17  1  0
 17 18  1  0
 18 19  1  0
 19 20  1  0
 20 21  1  0
 21 22  2  0
 22 23  1  0
 23 24  2  0
 24 25  1  0
 24 26  1  0
 26 27  2  0
 13  8  1  0
 18 14  2  0
 27 21  1  0
  1 28  1  0
  1 29  1  0
  2 30  1  1
  3 31  1  0
  3 32  1  0
  7 33  1  0
  7 34  1  0
  9 35  1  0
 10 36  1  0
 11 37  1  0
 12 38  1  0
 13 39  1  0
 15 40  1  0
 16 41  1  0
 19 42  1  0
 19 43  1  0
 22 44  1  0
 23 45  1  0
 26 46  1  0
 27 47  1  0
M  CHG  2   6  -1  25  -1
M  END
>  <UniqueID>  (57) 
55

>  <SMILES>  (57) 
N[C@@H](CC(=O)[N-]Cc1ccccc1)c1ccsc1CSc1ccc([O-])cc1

>  <Energy>  (57) 
66.80513259744565

>  <Genealogy>  (57) 
NC(CC(=O)[N-]Cc1ccccc1)c1ccsc1CSc1ccc([O-])cc1 (protonated)
N[C@@H](CC(=O)[N-]Cc1ccccc1)c1ccsc1CSc1ccc([O-])cc1 (chirality)
N[C@@H](CC(=O)[N-]Cc1ccccc1)c1ccsc1CSc1ccc([O-])cc1 (3D coordinates assigned)
N[C@@H](CC(=O)[N-]Cc1ccccc1)c1ccsc1CSc1ccc([O-])cc1 (optimized conformer: 66.80513259744565 kcal/mol)

>  <smiles>  (57) 
NC(CC(=O)NCc1ccccc1)c1ccsc1CSc1ccc(O)cc1

>  <score_type>  (57) 
oracle

>  <origin>  (57) 
adg

>  <m_score__min__energy>  (57) 
-12.44

>  <m_primary>  (57) 
energy

$$$$
57:0
     RDKit          3D

 57 59  0  0  0  0  0  0  0  0999 V2000
   64.1520   32.9350   48.8350 C   0  0  0  0  0  0  0  0  0  0  0  0
   63.4080   33.2140   47.5640 C   0  0  0  0  0  0  0  0  0  0  0  0
   64.0240   33.0910   46.4700 O   0  0  0  0  0  0  0  0  0  0  0  0
   61.9790   33.6310   47.5630 C   0  0  0  0  0  0  0  0  0  0  0  0
   61.3860   34.2150   48.7000 C   0  0  0  0  0  0  0  0  0  0  0  0
   60.0370   34.5810   48.6880 C   0  0  0  0  0  0  0  0  0  0  0  0
   59.2630   34.3810   47.5440 C   0  0  0  0  0  0  0  0  0  0  0  0
   59.8420   33.8290   46.3880 C   0  0  0  0  0  0  0  0  0  0  0  0
   59.0830   33.5880   45.1930 N   0  0  0  0  0  0  0  0  0  0  0  0
   57.6560   33.5230   45.0730 C   0  0  0  0  0  0  0  0  0  0  0  0
   56.9690   34.5700   44.9290 O   0  0  0  0  0  0  0  0  0  0  0  0
   56.9770   32.1910   45.0520 C   0  0  0  0  0  0  0  0  0  0  0  0
   57.7590   31.2220   45.8200 N   0  0  0  0  0  0  0  0  0  0  0  0
   57.4960   29.6190   45.2000 S   0  0  0  0  0  0  0  0  0  0  0  0
   56.0190   29.3430   45.1660 O   0  0  0  0  0  0  0  0  0  0  0  0
   58.0210   29.5350   43.7950 O   0  0  0  0  0  0  0  0  0  0  0  0
   58.2790   28.4040   46.2180 C   0  0  0  0  0  0  0  0  0  0  0  0
   58.1190   27.0260   46.1600 C   0  0  0  0  0  0  0  0  0  0  0  0
   57.2340   26.2690   45.2190 C   0  0  0  0  0  0  0  0  0  0  0  0
   58.8500   26.4340   47.1240 N   0  0  0  0  0  0  0  0  0  0  0  0
   59.4880   27.4110   47.7950 C   0  0  0  0  0  0  0  0  0  0  0  0
   60.4260   27.1450   48.9290 C   0  0  0  0  0  0  0  0  0  0  0  0
   59.1490   28.6500   47.2690 C   0  0  0  0  0  0  0  0  0  0  0  0
   59.6260   29.9660   47.7270 C   0  0  0  0  0  0  0  0  0  0  0  0
   60.1640   30.7390   46.8870 O   0  0  0  0  0  0  0  0  0  0  0  0
   59.4830   30.3840   49.0990 N   0  0  0  0  0  0  0  0  0  0  0  0
   60.4390   31.3240   49.6920 C   0  0  0  0  0  0  0  0  0  0  0  0
   59.7140   32.2380   50.6820 C   0  0  0  0  0  0  0  0  0  0  0  0
   58.9940   31.4740   51.6310 O   0  0  0  0  0  0  0  0  0  0  0  0
   57.9540   30.7650   50.9830 C   0  0  0  0  0  0  0  0  0  0  0  0
   58.5190   29.7360   49.9970 C   0  0  0  0  0  0  0  0  0  0  0  0
   61.1880   33.4400   46.4140 C   0  0  0  0  0  0  0  0  0  0  0  0
   63.5106   33.1755   49.6957 H   0  0  0  0  0  0  0  0  0  0  0  0
   64.4303   31.8714   48.8710 H   0  0  0  0  0  0  0  0  0  0  0  0
   65.0611   33.5533   48.8710 H   0  0  0  0  0  0  0  0  0  0  0  0
   61.9893   34.3842   49.6041 H   0  0  0  0  0  0  0  0  0  0  0  0
   59.5833   35.0288   49.5845 H   0  0  0  0  0  0  0  0  0  0  0  0
   58.1979   34.6558   47.5469 H   0  0  0  0  0  0  0  0  0  0  0  0
   55.9750   32.2852   45.4961 H   0  0  0  0  0  0  0  0  0  0  0  0
   56.8912   31.8443   44.0116 H   0  0  0  0  0  0  0  0  0  0  0  0
   58.7720   31.4380   45.6840 H   0  0  0  0  0  0  0  0  0  0  0  0
   56.5220   25.6599   45.7952 H   0  0  0  0  0  0  0  0  0  0  0  0
   56.6811   26.9780   44.5852 H   0  0  0  0  0  0  0  0  0  0  0  0
   57.8487   25.6129   44.5852 H   0  0  0  0  0  0  0  0  0  0  0  0
   58.9150   25.4080   47.3140 H   0  0  0  0  0  0  0  0  0  0  0  0
   59.8994   27.2943   49.8832 H   0  0  0  0  0  0  0  0  0  0  0  0
   60.7892   26.1084   48.8690 H   0  0  0  0  0  0  0  0  0  0  0  0
   61.2793   27.8366   48.8690 H   0  0  0  0  0  0  0  0  0  0  0  0
   61.2246   30.7631   50.2195 H   0  0  0  0  0  0  0  0  0  0  0  0
   60.8925   31.9339   48.8968 H   0  0  0  0  0  0  0  0  0  0  0  0
   60.4532   32.8617   51.2060 H   0  0  0  0  0  0  0  0  0  0  0  0
   59.0065   32.8713   50.1267 H   0  0  0  0  0  0  0  0  0  0  0  0
   57.3492   30.2434   51.7394 H   0  0  0  0  0  0  0  0  0  0  0  0
   57.3372   31.4835   50.4232 H   0  0  0  0  0  0  0  0  0  0  0  0
   59.0228   28.9335   50.5556 H   0  0  0  0  0  0  0  0  0  0  0  0
   57.6959   29.3135   49.4020 H   0  0  0  0  0  0  0  0  0  0  0  0
   61.6343   32.9774   45.5213 H   0  0  0  0  0  0  0  0  0  0  0  0
  1  2  1  0
  2  3  2  0
  2  4  1  0
  4  5  2  0
  5  6  1  0
  6  7  2  0
  7  8  1  0
  8  9  1  0
  9 10  1  0
 10 11  2  0
 10 12  1  0
 12 13  1  0
 13 14  1  0
 14 15  2  0
 14 16  2  0
 14 17  1  0
 17 18  2  0
 18 19  1  0
 18 20  1  0
 20 21  1  0
 21 22  1  0
 21 23  2  0
 23 24  1  0
 24 25  2  0
 24 26  1  0
 26 27  1  0
 27 28  1  0
 28 29  1  0
 29 30  1  0
 30 31  1  0
  8 32  2  0
 32  4  1  0
 23 17  1  0
 31 26  1  0
  1 33  1  0
  1 34  1  0
  1 35  1  0
  5 36  1  0
  6 37  1  0
  7 38  1  0
 12 39  1  0
 12 40  1  0
 13 41  1  0
 19 42  1  0
 19 43  1  0
 19 44  1  0
 20 45  1  0
 22 46  1  0
 22 47  1  0
 22 48  1  0
 27 49  1  0
 27 50  1  0
 28 51  1  0
 28 52  1  0
 30 53  1  0
 30 54  1  0
 31 55  1  0
 31 56  1  0
 32 57  1  0
M  CHG  1   9  -1
M  END
>  <UniqueID>  (58) 
56

>  <SMILES>  (58) 
CC(=O)c1cccc([N-]C(=O)CNS(=O)(=O)c2c(C)[nH]c(C)c2C(=O)N2CCOCC2)c1

>  <Energy>  (58) 
89.50031684557048

>  <Genealogy>  (58) 
CC(=O)c1cccc([N-]C(=O)CNS(=O)(=O)c2c(C)[nH]c(C)c2C(=O)N2CCOCC2)c1 (protonated)
CC(=O)c1cccc([N-]C(=O)CNS(=O)(=O)c2c(C)[nH]c(C)c2C(=O)N2CCOCC2)c1 (3D coordinates assigned)
CC(=O)c1cccc([N-]C(=O)CNS(=O)(=O)c2c(C)[nH]c(C)c2C(=O)N2CCOCC2)c1 (nonaromatic ring conformer: 89.50031684557048 kcal/mol)

>  <smiles>  (58) 
CC(=O)c1cccc(NC(=O)CNS(=O)(=O)c2c(C)[nH]c(C)c2C(=O)N2CCOCC2)c1

>  <score_type>  (58) 
oracle

>  <origin>  (58) 
adg

>  <m_score__min__energy>  (58) 
-11.15

>  <m_primary>  (58) 
energy

$$$$
58:0
     RDKit          3D

 60 63  0  0  0  0  0  0  0  0999 V2000
   64.0210   33.1440   46.7130 C   0  0  0  0  0  0  0  0  0  0  0  0
   62.7010   33.0640   47.4150 C   0  0  0  0  0  0  0  0  0  0  0  0
   61.4800   32.8750   46.7950 C   0  0  0  0  0  0  0  0  0  0  0  0
   60.4940   32.8420   47.7180 N   0  0  0  0  0  0  0  0  0  0  0  0
   59.0860   32.7750   47.4350 C   0  0  0  0  0  0  0  0  0  0  0  0
   58.2580   32.9270   48.3750 O   0  0  0  0  0  0  0  0  0  0  0  0
   58.5850   32.5770   46.0530 C   0  0  0  0  0  0  0  0  0  0  0  0
   58.8270   33.5530   45.0710 C   0  0  0  0  0  0  0  0  0  0  0  0
   58.3500   33.3800   43.7700 C   0  0  0  0  0  0  0  0  0  0  0  0
   57.6210   32.2400   43.4330 C   0  0  0  0  0  0  0  0  0  0  0  0
   57.3570   31.2590   44.4020 C   0  0  0  0  0  0  0  0  0  0  0  0
   56.5470   30.0400   44.0520 C   0  0  0  0  0  0  0  0  0  0  0  0
   56.2900   29.2350   45.2420 N   0  0  0  0  0  0  0  0  0  0  0  0
   56.6610   27.8570   45.3630 C   0  0  0  0  0  0  0  0  0  0  0  0
   55.8910   27.0480   45.9480 O   0  0  0  0  0  0  0  0  0  0  0  0
   57.9130   27.3940   44.8240 N   0  0  0  0  0  0  0  0  0  0  0  0
   58.1340   27.4340   43.3740 C   0  0  0  0  0  0  0  0  0  0  0  0
   58.9880   26.9510   45.7190 C   0  0  0  0  0  0  0  0  0  0  0  0
   59.4150   28.0800   46.6030 C   0  0  0  0  0  0  0  0  0  0  0  0
   60.3220   29.0790   46.3040 C   0  0  0  0  0  0  0  0  0  0  0  0
   60.4160   29.9200   47.3540 N   0  0  0  0  0  0  0  0  0  0  0  0
   59.5870   29.4840   48.2890 N   0  0  0  0  0  0  0  0  0  0  0  0
   59.4520   30.0970   49.6040 C   0  0  0  0  0  0  0  0  0  0  0  0
   58.9670   28.3610   47.8740 C   0  0  0  0  0  0  0  0  0  0  0  0
   57.8370   31.4330   45.7110 C   0  0  0  0  0  0  0  0  0  0  0  0
   61.0810   33.0310   48.9200 C   0  0  0  0  0  0  0  0  0  0  0  0
   60.4020   33.0820   50.1360 O   0  0  0  0  0  0  0  0  0  0  0  0
   62.4510   33.1770   48.7780 C   0  0  0  0  0  0  0  0  0  0  0  0
   63.4240   33.4280   49.8670 C   0  0  0  0  0  0  0  0  0  0  0  0
   63.1670   34.4160   50.8340 C   0  0  0  0  0  0  0  0  0  0  0  0
   64.0930   34.6660   51.8530 C   0  0  0  0  0  0  0  0  0  0  0  0
   65.2820   33.9360   51.9130 C   0  0  0  0  0  0  0  0  0  0  0  0
   65.5490   32.9570   50.9550 C   0  0  0  0  0  0  0  0  0  0  0  0
   64.6270   32.7040   49.9360 C   0  0  0  0  0  0  0  0  0  0  0  0
   64.8296   33.1930   47.4571 H   0  0  0  0  0  0  0  0  0  0  0  0
   64.1559   32.2524   46.0831 H   0  0  0  0  0  0  0  0  0  0  0  0
   64.0473   34.0454   46.0831 H   0  0  0  0  0  0  0  0  0  0  0  0
   61.3329   32.7674   45.7102 H   0  0  0  0  0  0  0  0  0  0  0  0
   59.3956   34.4587   45.3288 H   0  0  0  0  0  0  0  0  0  0  0  0
   58.5503   34.1468   43.0072 H   0  0  0  0  0  0  0  0  0  0  0  0
   57.2518   32.1090   42.4051 H   0  0  0  0  0  0  0  0  0  0  0  0
   55.5881   30.3562   43.6154 H   0  0  0  0  0  0  0  0  0  0  0  0
   57.1127   29.4338   43.3291 H   0  0  0  0  0  0  0  0  0  0  0  0
   59.1977   27.6265   43.1704 H   0  0  0  0  0  0  0  0  0  0  0  0
   57.8449   26.4689   42.9323 H   0  0  0  0  0  0  0  0  0  0  0  0
   57.5250   28.2365   42.9323 H   0  0  0  0  0  0  0  0  0  0  0  0
   58.6252   26.1189   46.3403 H   0  0  0  0  0  0  0  0  0  0  0  0
   59.8464   26.6195   45.1162 H   0  0  0  0  0  0  0  0  0  0  0  0
   60.8786   29.1731   45.3599 H   0  0  0  0  0  0  0  0  0  0  0  0
   59.6193   29.3372   50.3816 H   0  0  0  0  0  0  0  0  0  0  0  0
   60.1945   30.9014   49.7115 H   0  0  0  0  0  0  0  0  0  0  0  0
   58.4403   30.5151   49.7115 H   0  0  0  0  0  0  0  0  0  0  0  0
   58.2345   27.7745   48.4480 H   0  0  0  0  0  0  0  0  0  0  0  0
   57.6271   30.6699   46.4750 H   0  0  0  0  0  0  0  0  0  0  0  0
   59.3910   33.0460   50.1890 H   0  0  0  0  0  0  0  0  0  0  0  0
   62.2331   34.9955   50.7892 H   0  0  0  0  0  0  0  0  0  0  0  0
   63.8841   35.4385   52.6077 H   0  0  0  0  0  0  0  0  0  0  0  0
   66.0082   34.1327   52.7155 H   0  0  0  0  0  0  0  0  0  0  0  0
   66.4866   32.3837   51.0021 H   0  0  0  0  0  0  0  0  0  0  0  0
   64.8441   31.9327   49.1823 H   0  0  0  0  0  0  0  0  0  0  0  0
  1  2  1  0
  2  3  2  0
  3  4  1  0
  4  5  1  0
  5  6  2  0
  5  7  1  0
  7  8  2  0
  8  9  1  0
  9 10  2  0
 10 11  1  0
 11 12  1  0
 12 13  1  0
 13 14  1  0
 14 15  2  0
 14 16  1  0
 16 17  1  0
 16 18  1  0
 18 19  1  0
 19 20  1  0
 20 21  2  0
 21 22  1  0
 22 23  1  0
 22 24  1  0
 11 25  2  0
  4 26  1  0
 26 27  1  0
 26 28  2  0
 28 29  1  0
 29 30  2  0
 30 31  1  0
 31 32  2  0
 32 33  1  0
 33 34  2  0
 28  2  1  0
 34 29  1  0
 25  7  1  0
 24 19  2  0
  1 35  1  0
  1 36  1  0
  1 37  1  0
  3 38  1  0
  8 39  1  0
  9 40  1  0
 10 41  1  0
 12 42  1  0
 12 43  1  0
 17 44  1  0
 17 45  1  0
 17 46  1  0
 18 47  1  0
 18 48  1  0
 20 49  1  0
 23 50  1  0
 23 51  1  0
 23 52  1  0
 24 53  1  0
 25 54  1  0
 27 55  1  0
 30 56  1  0
 31 57  1  0
 32 58  1  0
 33 59  1  0
 34 60  1  0
M  CHG  1  13  -1
M  END
>  <UniqueID>  (59) 
57

>  <SMILES>  (59) 
Cc1cn(C(=O)c2cccc(C[N-]C(=O)N(C)Cc3cnn(C)c3)c2)c(O)c1-c1ccccc1

>  <Energy>  (59) 
123.3553389262523

>  <Genealogy>  (59) 
Cc1cn(C(=O)c2cccc(C[N-]C(=O)N(C)Cc3cnn(C)c3)c2)c(O)c1-c1ccccc1 (protonated)
Cc1cn(C(=O)c2cccc(C[N-]C(=O)N(C)Cc3cnn(C)c3)c2)c(O)c1-c1ccccc1 (3D coordinates assigned)
Cc1cn(C(=O)c2cccc(C[N-]C(=O)N(C)Cc3cnn(C)c3)c2)c(O)c1-c1ccccc1 (optimized conformer: 123.3553389262523 kcal/mol)

>  <smiles>  (59) 
Cc1cn(C(=O)c2cccc(CNC(=O)N(C)Cc3cnn(C)c3)c2)c(O)c1-c1ccccc1

>  <score_type>  (59) 
oracle

>  <origin>  (59) 
adg

>  <m_score__min__energy>  (59) 
-11.18

>  <m_primary>  (59) 
energy

$$$$
59:0
     RDKit          3D

 53 56  0  0  0  0  0  0  0  0999 V2000
   67.6780   33.4540   50.5230 C   0  0  0  0  0  0  0  0  0  0  0  0
   66.3950   32.6840   50.6220 C   0  0  0  0  0  0  0  0  0  0  0  0
   66.3120   31.5410   51.4300 C   0  0  0  0  0  0  0  0  0  0  0  0
   65.1220   30.8090   51.4980 C   0  0  0  0  0  0  0  0  0  0  0  0
   63.9990   31.2020   50.7490 C   0  0  0  0  0  0  0  0  0  0  0  0
   62.7340   30.4310   50.8240 C   0  0  0  0  0  0  0  0  0  0  0  0
   62.7040   29.1510   50.9640 N   0  0  0  0  0  0  0  0  0  0  0  0
   61.4070   28.7140   50.9880 O   0  0  0  0  0  0  0  0  0  0  0  0
   60.4660   29.7690   50.8590 C   0  0  2  0  0  0  0  0  0  0  0  0
   59.5860   29.5610   49.6540 C   0  0  0  0  0  0  0  0  0  0  0  0
   58.5400   30.2520   49.5270 O   0  0  0  0  0  0  0  0  0  0  0  0
   59.8790   28.5220   48.7060 N   0  0  0  0  0  0  0  0  0  0  0  0
   59.3770   28.5090   47.3590 C   0  0  0  0  0  0  0  0  0  0  0  0
   59.6260   27.3990   46.5400 C   0  0  0  0  0  0  0  0  0  0  0  0
   59.1730   27.3780   45.2190 C   0  0  0  0  0  0  0  0  0  0  0  0
   58.4850   28.4760   44.6980 C   0  0  0  0  0  0  0  0  0  0  0  0
   58.2530   29.6060   45.4930 C   0  0  0  0  0  0  0  0  0  0  0  0
   57.4280   31.0150   44.8190 S   0  0  0  0  0  0  0  0  0  0  0  0
   58.0530   31.3700   43.4990 O   0  0  0  0  0  0  0  0  0  0  0  0
   55.9840   30.6730   44.5720 O   0  0  0  0  0  0  0  0  0  0  0  0
   57.5260   32.3930   45.8930 N   0  0  0  0  0  0  0  0  0  0  0  0
   58.8850   32.5200   46.4510 C   0  0  0  0  0  0  0  0  0  0  0  0
   59.1340   33.9510   46.9520 C   0  0  0  0  0  0  0  0  0  0  0  0
   59.0230   34.9460   45.9400 O   0  0  0  0  0  0  0  0  0  0  0  0
   58.2120   34.5580   44.8400 C   0  0  0  0  0  0  0  0  0  0  0  0
   57.0500   33.6300   45.2380 C   0  0  0  0  0  0  0  0  0  0  0  0
   58.6960   29.6180   46.8230 C   0  0  0  0  0  0  0  0  0  0  0  0
   61.3600   31.0180   50.7320 C   0  0  0  0  0  0  0  0  0  0  0  0
   64.0930   32.3400   49.9270 C   0  0  0  0  0  0  0  0  0  0  0  0
   65.2820   33.0710   49.8610 C   0  0  0  0  0  0  0  0  0  0  0  0
   68.0504   33.6775   51.5336 H   0  0  0  0  0  0  0  0  0  0  0  0
   68.4245   32.8546   49.9814 H   0  0  0  0  0  0  0  0  0  0  0  0
   67.5002   34.3948   49.9814 H   0  0  0  0  0  0  0  0  0  0  0  0
   67.1871   31.2184   52.0133 H   0  0  0  0  0  0  0  0  0  0  0  0
   65.0644   29.9193   52.1423 H   0  0  0  0  0  0  0  0  0  0  0  0
   59.7639   29.8445   51.7024 H   0  0  0  0  0  0  0  0  0  0  0  0
   60.4460   27.7050   49.0280 H   0  0  0  0  0  0  0  0  0  0  0  0
   60.1820   26.5385   46.9405 H   0  0  0  0  0  0  0  0  0  0  0  0
   59.3583   26.4959   44.5885 H   0  0  0  0  0  0  0  0  0  0  0  0
   58.1238   28.4535   43.6592 H   0  0  0  0  0  0  0  0  0  0  0  0
   58.9977   31.8185   47.2908 H   0  0  0  0  0  0  0  0  0  0  0  0
   59.6150   32.2895   45.6611 H   0  0  0  0  0  0  0  0  0  0  0  0
   58.3990   34.1747   47.7392 H   0  0  0  0  0  0  0  0  0  0  0  0
   60.1705   33.9841   47.3187 H   0  0  0  0  0  0  0  0  0  0  0  0
   57.7928   35.4642   44.3784 H   0  0  0  0  0  0  0  0  0  0  0  0
   58.8533   33.9972   44.1441 H   0  0  0  0  0  0  0  0  0  0  0  0
   56.3887   34.1677   45.9334 H   0  0  0  0  0  0  0  0  0  0  0  0
   56.5155   33.3435   44.3203 H   0  0  0  0  0  0  0  0  0  0  0  0
   58.5100   30.5008   47.4524 H   0  0  0  0  0  0  0  0  0  0  0  0
   61.2054   31.5232   49.7672 H   0  0  0  0  0  0  0  0  0  0  0  0
   61.1558   31.7875   51.4911 H   0  0  0  0  0  0  0  0  0  0  0  0
   63.2239   32.6567   49.3318 H   0  0  0  0  0  0  0  0  0  0  0  0
   65.3456   33.9546   49.2089 H   0  0  0  0  0  0  0  0  0  0  0  0
  1  2  1  0
  2  3  2  0
  3  4  1  0
  4  5  2  0
  5  6  1  0
  6  7  2  0
  7  8  1  0
  8  9  1  0
  9 10  1  0
 10 11  2  0
 10 12  1  0
 12 13  1  0
 13 14  2  0
 14 15  1  0
 15 16  2  0
 16 17  1  0
 17 18  1  0
 18 19  2  0
 18 20  2  0
 18 21  1  0
 21 22  1  0
 22 23  1  0
 23 24  1  0
 24 25  1  0
 25 26  1  0
 17 27  2  0
  9 28  1  0
  5 29  1  0
 29 30  2  0
 30  2  1  0
 28  6  1  0
 27 13  1  0
 26 21  1  0
  1 31  1  0
  1 32  1  0
  1 33  1  0
  3 34  1  0
  4 35  1  0
  9 36  1  1
 12 37  1  0
 14 38  1  0
 15 39  1  0
 16 40  1  0
 22 41  1  0
 22 42  1  0
 23 43  1  0
 23 44  1  0
 25 45  1  0
 25 46  1  0
 26 47  1  0
 26 48  1  0
 27 49  1  0
 28 50  1  0
 28 51  1  0
 29 52  1  0
 30 53  1  0
M  END
>  <UniqueID>  (60) 
58

>  <SMILES>  (60) 
Cc1ccc(C2=NO[C@H](C(=O)Nc3cccc(S(=O)(=O)N4CCOCC4)c3)C2)cc1

>  <Energy>  (60) 
83.93884080308143

>  <Genealogy>  (60) 
Cc1ccc(C2=NO[C@H](C(=O)Nc3cccc(S(=O)(=O)N4CCOCC4)c3)C2)cc1 (chirality)
Cc1ccc(C2=NO[C@H](C(=O)Nc3cccc(S(=O)(=O)N4CCOCC4)c3)C2)cc1 (3D coordinates assigned)
Cc1ccc(C2=NO[C@H](C(=O)Nc3cccc(S(=O)(=O)N4CCOCC4)c3)C2)cc1 (nonaromatic ring conformer: 83.93884080308143 kcal/mol)

>  <smiles>  (60) 
Cc1ccc(C2=NOC(C(=O)Nc3cccc(S(=O)(=O)N4CCOCC4)c3)C2)cc1

>  <score_type>  (60) 
oracle

>  <origin>  (60) 
adg

>  <m_score__min__energy>  (60) 
-9.0999999999999996

>  <m_primary>  (60) 
energy

$$$$
60:0
     RDKit          3D

 51 54  0  0  0  0  0  0  0  0999 V2000
   57.5554   29.4592   44.7761 H   0  0  0  0  0  0  0  0  0  0  0  0
   57.3950   28.3770   44.6620 C   0  0  0  0  0  0  0  0  0  0  0  0
   56.7478   27.9988   43.8570 H   0  0  0  0  0  0  0  0  0  0  0  0
   57.9890   27.5180   45.5050 C   0  0  0  0  0  0  0  0  0  0  0  0
   57.8790   26.1240   45.4830 C   0  0  0  0  0  0  0  0  0  0  0  0
   57.2150   25.3690   44.5860 C   0  0  0  0  0  0  0  0  0  0  0  0
   57.6578   25.2353   43.5880 H   0  0  0  0  0  0  0  0  0  0  0  0
   55.9210   24.7100   44.8730 C   0  0  0  0  0  0  0  0  0  0  0  0
   54.9260   25.3970   45.5830 C   0  0  0  0  0  0  0  0  0  0  0  0
   55.1260   26.7110   45.9910 O   0  0  0  0  0  0  0  0  0  0  0  0
   53.7480   24.7840   45.8670 N   0  0  0  0  0  0  0  0  0  0  0  0
   53.5160   23.5010   45.4890 C   0  0  0  0  0  0  0  0  0  0  0  0
   52.4150   22.9550   45.7580 O   0  0  0  0  0  0  0  0  0  0  0  0
   54.4730   22.8040   44.8250 N   0  0  0  0  0  0  0  0  0  0  0  0
   55.6690   23.3710   44.5180 C   0  0  0  0  0  0  0  0  0  0  0  0
   56.5460   22.6820   43.9330 O   0  0  0  0  0  0  0  0  0  0  0  0
   58.6260   25.6570   46.5580 C   0  0  0  0  0  0  0  0  0  0  0  0
   58.7665   24.6068   46.8537 H   0  0  0  0  0  0  0  0  0  0  0  0
   59.1570   26.7670   47.1820 C   0  0  0  0  0  0  0  0  0  0  0  0
   60.0270   26.7260   48.4010 C   0  0  0  0  0  0  0  0  0  0  0  0
   59.3970   26.7557   49.3022 H   0  0  0  0  0  0  0  0  0  0  0  0
   60.6191   25.7990   48.3979 H   0  0  0  0  0  0  0  0  0  0  0  0
   60.7037   27.5933   48.3979 H   0  0  0  0  0  0  0  0  0  0  0  0
   58.7670   27.8960   46.5490 N   0  0  0  0  0  0  0  0  0  0  0  0
   59.1300   29.2360   46.9260 C   0  0  0  0  0  0  0  0  0  0  0  0
   58.5520   29.8270   48.0570 C   0  0  0  0  0  0  0  0  0  0  0  0
   57.8117   29.2688   48.6489 H   0  0  0  0  0  0  0  0  0  0  0  0
   58.9120   31.1220   48.4360 C   0  0  0  0  0  0  0  0  0  0  0  0
   58.4548   31.5785   49.3263 H   0  0  0  0  0  0  0  0  0  0  0  0
   59.8540   31.8440   47.6870 C   0  0  0  0  0  0  0  0  0  0  0  0
   60.2620   33.2290   48.1210 C   0  0  0  0  0  0  0  0  0  0  0  0
   60.0093   33.3628   49.1832 H   0  0  0  0  0  0  0  0  0  0  0  0
   61.3454   33.3410   47.9672 H   0  0  0  0  0  0  0  0  0  0  0  0
   59.5620   34.2590   47.3230 N   0  0  0  0  0  0  0  0  0  0  0  0
   60.2780   34.5420   46.0560 C   0  0  0  0  0  0  0  0  0  0  0  0
   61.0913   35.2556   46.2541 H   0  0  0  0  0  0  0  0  0  0  0  0
   60.6815   33.5972   45.6629 H   0  0  0  0  0  0  0  0  0  0  0  0
   59.3270   35.1420   45.0080 C   0  0  0  0  0  0  0  0  0  0  0  0
   58.9129   36.0781   45.4108 H   0  0  0  0  0  0  0  0  0  0  0  0
   59.9172   35.3023   44.0937 H   0  0  0  0  0  0  0  0  0  0  0  0
   58.2460   34.2870   44.6590 O   0  0  0  0  0  0  0  0  0  0  0  0
   57.8920   33.3660   45.6810 C   0  0  0  0  0  0  0  0  0  0  0  0
   56.8231   33.1269   45.5797 H   0  0  0  0  0  0  0  0  0  0  0  0
   58.5308   32.4795   45.5542 H   0  0  0  0  0  0  0  0  0  0  0  0
   58.1390   33.9040   47.1030 C   0  0  0  0  0  0  0  0  0  0  0  0
   57.5214   34.8014   47.2555 H   0  0  0  0  0  0  0  0  0  0  0  0
   57.8721   33.1113   47.8174 H   0  0  0  0  0  0  0  0  0  0  0  0
   60.4410   31.2460   46.5600 C   0  0  0  0  0  0  0  0  0  0  0  0
   61.1881   31.8005   45.9732 H   0  0  0  0  0  0  0  0  0  0  0  0
   60.0810   29.9500   46.1800 C   0  0  0  0  0  0  0  0  0  0  0  0
   60.6720   29.3820   45.0990 F   0  0  0  0  0  0  0  0  0  0  0  0
  1  2  1  0
  2  3  1  0
  2  4  2  0
  4  5  1  0
  5  6  2  0
  6  7  1  0
  6  8  1  0
  8  9  2  0
  9 10  1  0
  9 11  1  0
 11 12  1  0
 12 13  2  0
 12 14  1  0
 14 15  1  0
 15 16  2  0
  5 17  1  0
 17 18  1  0
 17 19  2  0
 19 20  1  0
 20 21  1  0
 20 22  1  0
 20 23  1  0
 19 24  1  0
 24 25  1  0
 25 26  2  0
 26 27  1  0
 26 28  1  0
 28 29  1  0
 28 30  2  0
 30 31  1  0
 31 32  1  0
 31 33  1  0
 31 34  1  0
 34 35  1  0
 35 36  1  0
 35 37  1  0
 35 38  1  0
 38 39  1  0
 38 40  1  0
 38 41  1  0
 41 42  1  0
 42 43  1  0
 42 44  1  0
 42 45  1  0
 45 46  1  0
 45 47  1  0
 30 48  1  0
 48 49  1  0
 48 50  2  0
 50 51  1  0
 24  4  1  0
 50 25  1  0
 15  8  1  0
 45 34  1  0
M  CHG  3  10  -1  11  -1  14  -1
M  END
>  <UniqueID>  (61) 
59

>  <SMILES>  (61) 
C=c1/c(=C/c2c([O-])[n-]c(=O)[n-]c2=O)cc(C)n1-c1ccc(CN2CCOCC2)cc1F

>  <Energy>  (61) 
113.67445454854526

>  <Genealogy>  (61) 
C=c1c(=Cc2c([O-])[n-]c(=O)[n-]c2=O)cc(C)n1-c1ccc(CN2CCOCC2)cc1F (protonated)
C=c1/c(=C/c2c([O-])[n-]c(=O)[n-]c2=O)cc(C)n1-c1ccc(CN2CCOCC2)cc1F (cis-trans isomerization)
C=c1/c(=C/c2c([O-])[n-]c(=O)[n-]c2=O)cc(C)n1-c1ccc(CN2CCOCC2)cc1F (3D coordinates assigned)
C=c1/c(=C/c2c([O-])[n-]c(=O)[n-]c2=O)cc(C)n1-c1ccc(CN2CCOCC2)cc1F (nonaromatic ring conformer: 113.67445454854526 kcal/mol)

>  <smiles>  (61) 
C=c1c(=Cc2c(O)[nH]c(=O)[nH]c2=O)cc(C)n1-c1ccc(CN2CCOCC2)cc1F

>  <score_type>  (61) 
oracle

>  <origin>  (61) 
adg

>  <m_score__min__energy>  (61) 
-15.59

>  <m_primary>  (61) 
energy

$$$$
61:0
     RDKit          3D

 56 59  0  0  0  0  0  0  0  0999 V2000
   56.9150   29.0230   43.1170 N   0  0  0  0  0  0  0  0  0  0  0  0
   56.5340   29.6860   44.3290 C   0  0  0  0  0  0  0  0  0  0  0  0
   55.3880   29.4680   44.8080 O   0  0  0  0  0  0  0  0  0  0  0  0
   57.4490   30.6260   45.0190 C   0  0  0  0  0  0  0  0  0  0  0  0
   58.3490   30.1850   46.0040 C   0  0  0  0  0  0  0  0  0  0  0  0
   59.1700   31.0700   46.6260 N   0  0  0  0  0  0  0  0  0  0  0  0
   59.1620   32.4010   46.3400 C   0  0  0  0  0  0  0  0  0  0  0  0
   60.0600   33.2730   47.0440 N   0  0  0  0  0  0  0  0  0  0  0  0
   59.5740   34.5060   47.6660 C   0  0  0  0  0  0  0  0  0  0  0  0
   59.9630   34.5020   49.1460 C   0  0  0  0  0  0  0  0  0  0  0  0
   61.4140   34.2770   49.3590 N   0  0  0  0  0  0  0  0  0  0  0  0
   61.7430   33.5870   50.6310 C   0  0  0  0  0  0  0  0  0  0  0  0
   61.6840   32.0740   50.5380 C   0  0  0  0  0  0  0  0  0  0  0  0
   62.7500   31.2830   51.0050 C   0  0  0  0  0  0  0  0  0  0  0  0
   62.6790   29.8890   50.9360 C   0  0  0  0  0  0  0  0  0  0  0  0
   61.5550   29.2690   50.3890 C   0  0  0  0  0  0  0  0  0  0  0  0
   60.4870   30.0410   49.9030 C   0  0  0  0  0  0  0  0  0  0  0  0
   59.3230   29.3770   49.2820 C   0  0  0  0  0  0  0  0  0  0  0  0
   58.1650   29.6940   49.6750 O   0  0  0  0  0  0  0  0  0  0  0  0
   59.4740   28.3970   48.2380 N   0  0  0  0  0  0  0  0  0  0  0  0
   58.4020   27.4920   47.8530 C   0  0  0  0  0  0  0  0  0  0  0  0
   58.8170   26.9000   46.5130 C   0  0  0  0  0  0  0  0  0  0  0  0
   60.2990   27.2330   46.3380 C   0  0  0  0  0  0  0  0  0  0  0  0
   60.6050   28.3550   47.3220 C   0  0  0  0  0  0  0  0  0  0  0  0
   60.5690   31.4420   49.9560 C   0  0  0  0  0  0  0  0  0  0  0  0
   62.1920   33.8310   48.1800 C   0  0  0  0  0  0  0  0  0  0  0  0
   61.4260   32.8160   47.3160 C   0  0  0  0  0  0  0  0  0  0  0  0
   58.2800   32.8900   45.3580 C   0  0  0  0  0  0  0  0  0  0  0  0
   58.2730   34.5800   44.8700 Cl  0  0  0  0  0  0  0  0  0  0  0  0
   57.4240   31.9960   44.7080 C   0  0  0  0  0  0  0  0  0  0  0  0
   57.7850   29.2750   42.6010 H   0  0  0  0  0  0  0  0  0  0  0  0
   56.2740   28.3180   42.6880 H   0  0  0  0  0  0  0  0  0  0  0  0
   58.3886   29.1189   46.2722 H   0  0  0  0  0  0  0  0  0  0  0  0
   60.0282   35.3749   47.1673 H   0  0  0  0  0  0  0  0  0  0  0  0
   58.4800   34.5661   47.5686 H   0  0  0  0  0  0  0  0  0  0  0  0
   59.6901   35.4736   49.5836 H   0  0  0  0  0  0  0  0  0  0  0  0
   59.4252   33.6719   49.6273 H   0  0  0  0  0  0  0  0  0  0  0  0
   62.7611   33.8770   50.9299 H   0  0  0  0  0  0  0  0  0  0  0  0
   60.9856   33.8932   51.3676 H   0  0  0  0  0  0  0  0  0  0  0  0
   63.6444   31.7647   51.4268 H   0  0  0  0  0  0  0  0  0  0  0  0
   63.5121   29.2784   51.3142 H   0  0  0  0  0  0  0  0  0  0  0  0
   61.5051   28.1713   50.3382 H   0  0  0  0  0  0  0  0  0  0  0  0
   58.2852   26.6961   48.6032 H   0  0  0  0  0  0  0  0  0  0  0  0
   57.4373   28.0157   47.7819 H   0  0  0  0  0  0  0  0  0  0  0  0
   58.6692   25.8100   46.5159 H   0  0  0  0  0  0  0  0  0  0  0  0
   58.2145   27.3118   45.6899 H   0  0  0  0  0  0  0  0  0  0  0  0
   60.9165   26.3508   46.5624 H   0  0  0  0  0  0  0  0  0  0  0  0
   60.5209   27.5366   45.3043 H   0  0  0  0  0  0  0  0  0  0  0  0
   61.5344   28.1412   47.8701 H   0  0  0  0  0  0  0  0  0  0  0  0
   60.7466   29.3173   46.8083 H   0  0  0  0  0  0  0  0  0  0  0  0
   59.7539   32.0514   49.5386 H   0  0  0  0  0  0  0  0  0  0  0  0
   62.4312   34.7096   47.5628 H   0  0  0  0  0  0  0  0  0  0  0  0
   63.1017   33.3349   48.5492 H   0  0  0  0  0  0  0  0  0  0  0  0
   61.9569   32.6848   46.3616 H   0  0  0  0  0  0  0  0  0  0  0  0
   61.3713   31.8640   47.8644 H   0  0  0  0  0  0  0  0  0  0  0  0
   56.7241   32.3688   43.9457 H   0  0  0  0  0  0  0  0  0  0  0  0
  1  2  1  0
  2  3  2  0
  2  4  1  0
  4  5  2  0
  5  6  1  0
  6  7  2  0
  7  8  1  0
  8  9  1  0
  9 10  1  0
 10 11  1  0
 11 12  1  0
 12 13  1  0
 13 14  2  0
 14 15  1  0
 15 16  2  0
 16 17  1  0
 17 18  1  0
 18 19  2  0
 18 20  1  0
 20 21  1  0
 21 22  1  0
 22 23  1  0
 23 24  1  0
 17 25  2  0
 11 26  1  0
 26 27  1  0
  7 28  1  0
 28 29  1  0
 28 30  2  0
 30  4  1  0
 27  8  1  0
 25 13  1  0
 24 20  1  0
  1 31  1  0
  1 32  1  0
  5 33  1  0
  9 34  1  0
  9 35  1  0
 10 36  1  0
 10 37  1  0
 12 38  1  0
 12 39  1  0
 14 40  1  0
 15 41  1  0
 16 42  1  0
 21 43  1  0
 21 44  1  0
 22 45  1  0
 22 46  1  0
 23 47  1  0
 23 48  1  0
 24 49  1  0
 24 50  1  0
 25 51  1  0
 26 52  1  0
 26 53  1  0
 27 54  1  0
 27 55  1  0
 30 56  1  0
M  END
>  <UniqueID>  (62) 
60

>  <SMILES>  (62) 
NC(=O)c1cnc(N2CCN(Cc3cccc(C(=O)N4CCCC4)c3)CC2)c(Cl)c1

>  <Energy>  (62) 
78.07601899635618

>  <Genealogy>  (62) 
NC(=O)c1cnc(N2CCN(Cc3cccc(C(=O)N4CCCC4)c3)CC2)c(Cl)c1 (3D coordinates assigned)
NC(=O)c1cnc(N2CCN(Cc3cccc(C(=O)N4CCCC4)c3)CC2)c(Cl)c1 (nonaromatic ring conformer: 78.07601899635618 kcal/mol)

>  <smiles>  (62) 
NC(=O)c1cnc(N2CCN(Cc3cccc(C(=O)N4CCCC4)c3)CC2)c(Cl)c1

>  <score_type>  (62) 
oracle

>  <origin>  (62) 
adg

>  <m_score__min__energy>  (62) 
-9.4499999999999993

>  <m_primary>  (62) 
energy

$$$$
62:0
     RDKit          3D

 37 38  0  0  0  0  0  0  0  0999 V2000
   64.2540   32.5300   49.1580 C   0  0  0  0  0  0  0  0  0  0  0  0
   63.2940   33.6780   48.8190 C   0  0  0  0  0  0  0  0  0  0  0  0
   61.9960   33.2270   48.0710 C   0  0  2  0  0  0  0  0  0  0  0  0
   61.9480   31.6710   47.9060 C   0  0  0  0  0  0  0  0  0  0  0  0
   60.5810   30.9970   47.6520 C   0  0  0  0  0  0  0  0  0  0  0  0
   60.5190   30.1590   46.3690 C   0  0  0  0  0  0  0  0  0  0  0  0
   59.0910   29.8580   45.9990 C   0  0  0  0  0  0  0  0  0  0  0  0
   58.3320   30.7950   45.2780 C   0  0  0  0  0  0  0  0  0  0  0  0
   57.0160   30.5000   44.9070 C   0  0  0  0  0  0  0  0  0  0  0  0
   56.4520   29.2660   45.2430 C   0  0  0  0  0  0  0  0  0  0  0  0
   55.1450   28.9750   44.8740 O   0  0  0  0  0  0  0  0  0  0  0  0
   57.2060   28.3230   45.9490 C   0  0  0  0  0  0  0  0  0  0  0  0
   58.5220   28.6140   46.3210 C   0  0  0  0  0  0  0  0  0  0  0  0
   61.9900   33.7970   46.6540 C   0  0  0  0  0  0  0  0  0  0  0  0
   63.0660   33.8800   46.0000 O   0  0  0  0  0  0  0  0  0  0  0  0
   60.7640   34.1130   45.9910 N   0  0  0  0  0  0  0  0  0  0  0  0
   59.5260   34.1050   46.6940 C   0  0  0  0  0  0  0  0  0  0  0  0
   58.4490   34.2990   46.0730 O   0  0  0  0  0  0  0  0  0  0  0  0
   59.5180   33.9110   48.1050 N   0  0  0  0  0  0  0  0  0  0  0  0
   60.7470   33.7080   48.8100 C   0  0  0  0  0  0  0  0  0  0  0  0
   60.7690   33.9080   50.0540 O   0  0  0  0  0  0  0  0  0  0  0  0
   64.3364   32.4314   50.2505 H   0  0  0  0  0  0  0  0  0  0  0  0
   63.8679   31.5916   48.7333 H   0  0  0  0  0  0  0  0  0  0  0  0
   65.2459   32.7439   48.7333 H   0  0  0  0  0  0  0  0  0  0  0  0
   62.9984   34.1694   49.7577 H   0  0  0  0  0  0  0  0  0  0  0  0
   63.8342   34.3518   48.1377 H   0  0  0  0  0  0  0  0  0  0  0  0
   62.5989   31.4145   47.0572 H   0  0  0  0  0  0  0  0  0  0  0  0
   62.2584   31.2869   48.8889 H   0  0  0  0  0  0  0  0  0  0  0  0
   60.3578   30.3387   48.5045 H   0  0  0  0  0  0  0  0  0  0  0  0
   59.8471   31.8079   47.5343 H   0  0  0  0  0  0  0  0  0  0  0  0
   60.9944   30.7177   45.5493 H   0  0  0  0  0  0  0  0  0  0  0  0
   61.0477   29.2098   46.5405 H   0  0  0  0  0  0  0  0  0  0  0  0
   58.7743   31.7642   45.0042 H   0  0  0  0  0  0  0  0  0  0  0  0
   56.4237   31.2407   44.3497 H   0  0  0  0  0  0  0  0  0  0  0  0
   56.7631   27.3511   46.2120 H   0  0  0  0  0  0  0  0  0  0  0  0
   59.1146   27.8660   46.8681 H   0  0  0  0  0  0  0  0  0  0  0  0
   58.6280   34.0280   48.6380 H   0  0  0  0  0  0  0  0  0  0  0  0
  1  2  1  0
  3  2  1  1
  3  4  1  0
  4  5  1  0
  5  6  1  0
  6  7  1  0
  7  8  2  0
  8  9  1  0
  9 10  2  0
 10 11  1  0
 10 12  1  0
 12 13  2  0
  3 14  1  0
 14 15  2  0
 14 16  1  0
 16 17  1  0
 17 18  2  0
 17 19  1  0
 19 20  1  0
 20 21  2  0
 20  3  1  0
 13  7  1  0
  1 22  1  0
  1 23  1  0
  1 24  1  0
  2 25  1  0
  2 26  1  0
  4 27  1  0
  4 28  1  0
  5 29  1  0
  5 30  1  0
  6 31  1  0
  6 32  1  0
  8 33  1  0
  9 34  1  0
 12 35  1  0
 13 36  1  0
 19 37  1  0
M  CHG  2  11  -1  16  -1
M  END
>  <UniqueID>  (63) 
61

>  <SMILES>  (63) 
CC[C@]1(CCCc2ccc([O-])cc2)C(=O)[N-]C(=O)NC1=O

>  <Energy>  (63) 
37.61703830759234

>  <Genealogy>  (63) 
CCC1(CCCc2ccc([O-])cc2)C(=O)[N-]C(=O)NC1=O (protonated)
CC[C@]1(CCCc2ccc([O-])cc2)C(=O)[N-]C(=O)NC1=O (chirality)
CC[C@]1(CCCc2ccc([O-])cc2)C(=O)[N-]C(=O)NC1=O (3D coordinates assigned)
CC[C@]1(CCCc2ccc([O-])cc2)C(=O)[N-]C(=O)NC1=O (nonaromatic ring conformer: 37.61703830759234 kcal/mol)

>  <smiles>  (63) 
CCC1(CCCc2ccc(O)cc2)C(=O)NC(=O)NC1=O

>  <score_type>  (63) 
oracle

>  <origin>  (63) 
adg

>  <m_score__min__energy>  (63) 
-11.24

>  <m_primary>  (63) 
energy

$$$$
63:0
     RDKit          3D

 46 48  0  0  1  0  0  0  0  0999 V2000
   56.6970   31.2140   42.2140 C   0  0  0  0  0  0  0  0  0  0  0  0
   57.4440   30.4440   43.2130 N   0  0  0  0  0  0  0  0  0  0  0  0
   56.8360   29.8570   44.3390 C   0  0  0  0  0  0  0  0  0  0  0  0
   55.5780   30.0350   44.4430 O   0  0  0  0  0  0  0  0  0  0  0  0
   57.4910   29.0870   45.3670 C   0  0  0  0  0  0  0  0  0  0  0  0
   58.7490   29.5090   45.8160 C   0  0  0  0  0  0  0  0  0  0  0  0
   59.4400   28.8360   46.7860 C   0  0  0  0  0  0  0  0  0  0  0  0
   60.7170   29.2620   47.2420 N   0  0  0  0  0  0  0  0  0  0  0  0
   60.8370   29.9780   48.3090 C   0  0  0  0  0  0  0  0  0  0  0  0
   60.8050   31.3320   48.2110 N   0  0  0  0  0  0  0  0  0  0  0  0
   60.9300   32.0870   49.3410 C   0  0  0  0  0  0  0  0  0  0  0  0
   60.9160   33.3570   49.3460 N   0  0  0  0  0  0  0  0  0  0  0  0
   59.6630   34.0500   49.2260 C   0  0  0  0  0  0  0  0  0  0  0  0
   59.2860   34.0210   47.7670 C   0  0  0  0  0  0  0  0  0  0  0  0
   59.6520   35.0540   46.9170 C   0  0  0  0  0  0  0  0  0  0  0  0
   59.2950   35.0000   45.5690 C   0  0  0  0  0  0  0  0  0  0  0  0
   58.5830   33.9440   45.0490 C   0  0  0  0  0  0  0  0  0  0  0  0
   58.2150   32.9110   45.8950 C   0  0  0  0  0  0  0  0  0  0  0  0
   58.5650   32.9500   47.2460 C   0  0  0  0  0  0  0  0  0  0  0  0
   58.1750   31.8910   48.0600 O   0  0  0  0  0  0  0  0  0  0  0  0
   61.0860   31.4680   50.5410 N   0  0  0  0  0  0  0  0  0  0  0  0
   61.1200   30.1370   50.6650 C   0  0  0  0  0  0  0  0  0  0  0  0
   60.9950   29.3670   49.5370 C   0  0  0  0  0  0  0  0  0  0  0  0
   61.0330   28.0100   49.6820 F   0  0  0  0  0  0  0  0  0  0  0  0
   58.9300   27.6900   47.3860 C   0  0  0  0  0  0  0  0  0  0  0  0
   57.7040   27.2650   46.9580 C   0  0  0  0  0  0  0  0  0  0  0  0
   57.0020   27.9560   45.9660 C   0  0  0  0  0  0  0  0  0  0  0  0
   55.7770   27.4360   45.6160 O   0  0  0  0  0  0  0  0  0  0  0  0
   56.0180   31.9139   42.7231 H   0  0  0  0  0  0  0  0  0  0  0  0
   57.4009   31.7783   41.5846 H   0  0  0  0  0  0  0  0  0  0  0  0
   56.1116   30.5276   41.5846 H   0  0  0  0  0  0  0  0  0  0  0  0
   58.4560   30.3530   43.0470 H   0  0  0  0  0  0  0  0  0  0  0  0
   59.1961   30.4116   45.3739 H   0  0  0  0  0  0  0  0  0  0  0  0
   60.6880   31.8130   47.3060 H   0  0  0  0  0  0  0  0  0  0  0  0
   58.8920   33.5447   49.8262 H   0  0  0  0  0  0  0  0  0  0  0  0
   59.7480   35.0843   49.5907 H   0  0  0  0  0  0  0  0  0  0  0  0
   60.2212   35.9122   47.3037 H   0  0  0  0  0  0  0  0  0  0  0  0
   59.5911   35.8246   44.9039 H   0  0  0  0  0  0  0  0  0  0  0  0
   58.3116   33.9205   43.9833 H   0  0  0  0  0  0  0  0  0  0  0  0
   57.6449   32.0567   45.5010 H   0  0  0  0  0  0  0  0  0  0  0  0
   58.6790   31.0120   48.0600 H   0  0  0  0  0  0  0  0  0  0  0  0
   61.1830   32.0450   51.4180 H   0  0  0  0  0  0  0  0  0  0  0  0
   61.2458   29.6688   51.6524 H   0  0  0  0  0  0  0  0  0  0  0  0
   59.4866   27.1517   48.1673 H   0  0  0  0  0  0  0  0  0  0  0  0
   57.2608   26.3617   47.4026 H   0  0  0  0  0  0  0  0  0  0  0  0
   55.1430   27.9310   44.9800 H   0  0  0  0  0  0  0  0  0  0  0  0
  1  2  1  0
  2  3  1  0
  3  4  2  0
  3  5  1  0
  5  6  2  0
  6  7  1  0
  7  8  1  0
  8  9  2  0
  9 10  1  0
 10 11  1  0
 11 12  2  0
 12 13  1  0
 13 14  1  0
 14 15  2  0
 15 16  1  0
 16 17  2  0
 17 18  1  0
 18 19  2  0
 19 20  1  0
 11 21  1  0
 21 22  1  0
 22 23  2  0
 23 24  1  0
  7 25  2  0
 25 26  1  0
 26 27  2  0
 27 28  1  0
 27  5  1  0
 23  9  1  0
 19 14  1  0
  1 29  1  0
  1 30  1  0
  1 31  1  0
  2 32  1  0
  6 33  1  0
 10 34  1  0
 13 35  1  0
 13 36  1  0
 15 37  1  0
 16 38  1  0
 17 39  1  0
 18 40  1  0
 20 41  1  0
 21 42  1  0
 22 43  1  0
 25 44  1  0
 26 45  1  0
 28 46  1  0
M  END
>  <smiles>  (64) 
CNC(=O)c1cc(N=c2[nH]c(=NCc3ccccc3O)[nH]cc2F)ccc1O

>  <score_type>  (64) 
oracle

>  <origin>  (64) 
adg

>  <m_score__min__energy>  (64) 
-8.8499999999999996

>  <m_primary>  (64) 
energy

$$$$
64:0
     RDKit          3D

 48 51  0  0  0  0  0  0  0  0999 V2000
   61.0250   27.6980   51.7910 O   0  0  0  0  0  0  0  0  0  0  0  0
   61.4440   28.7060   51.1650 C   0  0  0  0  0  0  0  0  0  0  0  0
   62.6750   29.3500   51.4500 N   0  0  0  0  0  0  0  0  0  0  0  0
   62.7360   30.3440   50.6200 C   0  0  0  0  0  0  0  0  0  0  0  0
   63.8890   31.2590   50.5930 C   0  0  0  0  0  0  0  0  0  0  0  0
   63.7100   32.5980   50.2110 C   0  0  0  0  0  0  0  0  0  0  0  0
   64.8050   33.4670   50.1620 C   0  0  0  0  0  0  0  0  0  0  0  0
   66.0850   33.0020   50.4790 C   0  0  0  0  0  0  0  0  0  0  0  0
   66.2710   31.6630   50.8380 C   0  0  0  0  0  0  0  0  0  0  0  0
   65.1790   30.7920   50.8880 C   0  0  0  0  0  0  0  0  0  0  0  0
   61.5580   30.3890   49.7230 C   0  0  0  0  0  0  0  0  0  0  0  0
   61.4020   31.2590   48.5380 C   0  0  0  0  0  0  0  0  0  0  0  0
   62.4210   31.6410   47.9060 O   0  0  0  0  0  0  0  0  0  0  0  0
   60.0910   31.5970   48.0590 N   0  0  0  0  0  0  0  0  0  0  0  0
   59.8220   32.6720   47.1430 C   0  0  0  0  0  0  0  0  0  0  0  0
   59.0280   32.4300   46.0100 C   0  0  0  0  0  0  0  0  0  0  0  0
   58.7330   33.4650   45.1180 C   0  0  0  0  0  0  0  0  0  0  0  0
   59.2140   34.7550   45.3580 C   0  0  0  0  0  0  0  0  0  0  0  0
   58.9240   35.7590   44.4940 F   0  0  0  0  0  0  0  0  0  0  0  0
   59.9850   35.0130   46.4950 C   0  0  0  0  0  0  0  0  0  0  0  0
   60.2840   33.9780   47.3890 C   0  0  0  0  0  0  0  0  0  0  0  0
   60.7570   29.3790   50.0750 C   0  0  0  0  0  0  0  0  0  0  0  0
   59.4310   29.0210   49.5310 C   0  0  0  0  0  0  0  0  0  0  0  0
   58.3960   29.6120   49.9400 O   0  0  0  0  0  0  0  0  0  0  0  0
   59.3370   28.0070   48.5220 N   0  0  0  0  0  0  0  0  0  0  0  0
   59.0410   28.2090   47.1330 C   0  0  0  0  0  0  0  0  0  0  0  0
   59.9330   27.7050   46.1790 C   0  0  0  0  0  0  0  0  0  0  0  0
   59.6740   27.8660   44.8170 C   0  0  0  0  0  0  0  0  0  0  0  0
   58.5130   28.5150   44.3930 C   0  0  0  0  0  0  0  0  0  0  0  0
   57.5900   29.0050   45.3330 C   0  0  0  0  0  0  0  0  0  0  0  0
   56.3510   29.6750   44.8800 C   0  0  0  0  0  0  0  0  0  0  0  0
   56.3700   30.8820   44.5190 O   0  0  0  0  0  0  0  0  0  0  0  0
   55.1470   28.9810   44.8460 O   0  0  0  0  0  0  0  0  0  0  0  0
   57.8580   28.8400   46.7050 C   0  0  0  0  0  0  0  0  0  0  0  0
   62.7064   32.9646   49.9496 H   0  0  0  0  0  0  0  0  0  0  0  0
   64.6588   34.5184   49.8735 H   0  0  0  0  0  0  0  0  0  0  0  0
   66.9442   33.6880   50.4461 H   0  0  0  0  0  0  0  0  0  0  0  0
   67.2785   31.2948   51.0814 H   0  0  0  0  0  0  0  0  0  0  0  0
   65.3313   29.7370   51.1595 H   0  0  0  0  0  0  0  0  0  0  0  0
   59.2970   30.9760   48.3370 H   0  0  0  0  0  0  0  0  0  0  0  0
   58.6357   31.4194   45.8234 H   0  0  0  0  0  0  0  0  0  0  0  0
   58.1215   33.2639   44.2260 H   0  0  0  0  0  0  0  0  0  0  0  0
   60.3571   36.0301   46.6875 H   0  0  0  0  0  0  0  0  0  0  0  0
   60.8828   34.1867   48.2878 H   0  0  0  0  0  0  0  0  0  0  0  0
   60.8428   27.1793   46.5045 H   0  0  0  0  0  0  0  0  0  0  0  0
   60.3878   27.4798   44.0744 H   0  0  0  0  0  0  0  0  0  0  0  0
   58.3195   28.6436   43.3178 H   0  0  0  0  0  0  0  0  0  0  0  0
   57.1363   29.2076   47.4494 H   0  0  0  0  0  0  0  0  0  0  0  0
  1  2  2  0
  2  3  1  0
  3  4  2  0
  4  5  1  0
  5  6  2  0
  6  7  1  0
  7  8  2  0
  8  9  1  0
  9 10  2  0
  4 11  1  0
 11 12  1  0
 12 13  2  0
 12 14  1  0
 14 15  1  0
 15 16  2  0
 16 17  1  0
 17 18  2  0
 18 19  1  0
 18 20  1  0
 20 21  2  0
 11 22  2  0
 22 23  1  0
 23 24  2  0
 23 25  1  0
 25 26  1  0
 26 27  2  0
 27 28  1  0
 28 29  2  0
 29 30  1  0
 30 31  1  0
 31 32  2  0
 31 33  1  0
 30 34  2  0
 22  2  1  0
 34 26  1  0
 10  5  1  0
 21 15  1  0
  6 35  1  0
  7 36  1  0
  8 37  1  0
  9 38  1  0
 10 39  1  0
 14 40  1  0
 16 41  1  0
 17 42  1  0
 20 43  1  0
 21 44  1  0
 27 45  1  0
 28 46  1  0
 29 47  1  0
 34 48  1  0
M  CHG  2  25  -1  33  -1
M  END
>  <UniqueID>  (65) 
62

>  <SMILES>  (65) 
O=C1N=C(c2ccccc2)C(C(=O)Nc2ccc(F)cc2)=C1C(=O)[N-]c1cccc(C(=O)[O-])c1

>  <Energy>  (65) 
97.51383725153129

>  <Genealogy>  (65) 
O=C1N=C(c2ccccc2)C(C(=O)Nc2ccc(F)cc2)=C1C(=O)[N-]c1cccc(C(=O)[O-])c1 (protonated)
O=C1N=C(c2ccccc2)C(C(=O)Nc2ccc(F)cc2)=C1C(=O)[N-]c1cccc(C(=O)[O-])c1 (3D coordinates assigned)
O=C1N=C(c2ccccc2)C(C(=O)Nc2ccc(F)cc2)=C1C(=O)[N-]c1cccc(C(=O)[O-])c1 (nonaromatic ring conformer: 97.51383725153129 kcal/mol)

>  <smiles>  (65) 
O=C1N=C(c2ccccc2)C(C(=O)Nc2ccc(F)cc2)=C1C(=O)Nc1cccc(C(=O)O)c1

>  <score_type>  (65) 
oracle

>  <origin>  (65) 
adg

>  <m_score__min__energy>  (65) 
-14.619999999999999

>  <m_primary>  (65) 
energy

$$$$
65:0
     RDKit          3D

 39 41  0  0  0  0  0  0  0  0999 V2000
   54.7600   28.9530   45.2900 H   0  0  0  0  0  0  0  0  0  0  0  0
   55.7640   29.0790   45.2760 O   0  0  0  0  0  0  0  0  0  0  0  0
   56.6490   28.0430   45.5830 C   0  0  0  0  0  0  0  0  0  0  0  0
   56.1620   26.7700   45.9290 C   0  0  0  0  0  0  0  0  0  0  0  0
   54.7950   26.5240   45.9730 O   0  0  0  0  0  0  0  0  0  0  0  0
   57.0530   25.7370   46.2380 C   0  0  0  0  0  0  0  0  0  0  0  0
   56.6685   24.7409   46.5027 H   0  0  0  0  0  0  0  0  0  0  0  0
   58.4280   25.9680   46.2110 C   0  0  0  0  0  0  0  0  0  0  0  0
   59.1259   25.1550   46.4597 H   0  0  0  0  0  0  0  0  0  0  0  0
   58.9210   27.2290   45.8690 C   0  0  0  0  0  0  0  0  0  0  0  0
   60.0064   27.4077   45.8629 H   0  0  0  0  0  0  0  0  0  0  0  0
   58.0390   28.2730   45.5320 C   0  0  0  0  0  0  0  0  0  0  0  0
   58.5470   29.6260   45.2000 C   0  0  0  0  0  0  0  0  0  0  0  0
   58.3134   30.0345   44.2057 H   0  0  0  0  0  0  0  0  0  0  0  0
   59.2780   30.3880   46.0410 C   0  0  0  0  0  0  0  0  0  0  0  0
   60.0050   29.8020   47.0260 N   0  0  0  0  0  0  0  0  0  0  0  0
   60.7670   30.5150   47.8870 C   0  0  0  0  0  0  0  0  0  0  0  0
   61.4060   29.9010   48.7850 O   0  0  0  0  0  0  0  0  0  0  0  0
   60.8370   31.8800   47.7860 N   0  0  0  0  0  0  0  0  0  0  0  0
   61.6530   32.5920   48.7410 C   0  0  0  0  0  0  0  0  0  0  0  0
   61.0650   33.5060   49.6230 C   0  0  0  0  0  0  0  0  0  0  0  0
   59.9796   33.6810   49.5888 H   0  0  0  0  0  0  0  0  0  0  0  0
   61.8530   34.1960   50.5460 C   0  0  0  0  0  0  0  0  0  0  0  0
   61.3838   34.9117   51.2371 H   0  0  0  0  0  0  0  0  0  0  0  0
   63.2420   33.9830   50.5990 C   0  0  0  0  0  0  0  0  0  0  0  0
   64.0780   34.7320   51.5980 C   0  0  0  0  0  0  0  0  0  0  0  0
   63.7685   34.4547   52.6165 H   0  0  0  0  0  0  0  0  0  0  0  0
   65.1381   34.4759   51.4544 H   0  0  0  0  0  0  0  0  0  0  0  0
   63.9394   35.8138   51.4544 H   0  0  0  0  0  0  0  0  0  0  0  0
   63.8310   33.0630   49.7070 C   0  0  0  0  0  0  0  0  0  0  0  0
   65.5640   32.7510   49.7220 Cl  0  0  0  0  0  0  0  0  0  0  0  0
   63.0360   32.3750   48.7840 C   0  0  0  0  0  0  0  0  0  0  0  0
   63.4995   31.6599   48.0884 H   0  0  0  0  0  0  0  0  0  0  0  0
   60.1350   32.5380   46.7960 C   0  0  0  0  0  0  0  0  0  0  0  0
   60.2050   33.8800   46.6600 C   0  0  0  0  0  0  0  0  0  0  0  0
   60.8241   34.4713   47.3508 H   0  0  0  0  0  0  0  0  0  0  0  0
   59.6429   34.3817   45.8585 H   0  0  0  0  0  0  0  0  0  0  0  0
   59.3350   31.7880   45.9010 C   0  0  0  0  0  0  0  0  0  0  0  0
   58.6790   32.3650   44.9860 O   0  0  0  0  0  0  0  0  0  0  0  0
  1  2  1  0
  2  3  1  0
  3  4  2  0
  4  5  1  0
  4  6  1  0
  6  7  1  0
  6  8  2  0
  8  9  1  0
  8 10  1  0
 10 11  1  0
 10 12  2  0
 12 13  1  0
 13 14  1  0
 13 15  2  0
 15 16  1  0
 16 17  1  0
 17 18  2  0
 17 19  1  0
 19 20  1  0
 20 21  2  0
 21 22  1  0
 21 23  1  0
 23 24  1  0
 23 25  2  0
 25 26  1  0
 26 27  1  0
 26 28  1  0
 26 29  1  0
 25 30  1  0
 30 31  1  0
 30 32  2  0
 32 33  1  0
 19 34  1  0
 34 35  2  0
 35 36  1  0
 35 37  1  0
 34 38  1  0
 38 39  2  0
 12  3  1  0
 38 15  1  0
 32 20  1  0
M  CHG  2   5  -1  16  -1
M  END
>  <UniqueID>  (66) 
63

>  <SMILES>  (66) 
C=c1c(=O)/c(=C/c2cccc([O-])c2O)[n-]c(=O)n1-c1ccc(C)c(Cl)c1

>  <Energy>  (66) 
66.78352051438604

>  <Genealogy>  (66) 
C=c1c(=O)c(=Cc2cccc([O-])c2O)[n-]c(=O)n1-c1ccc(C)c(Cl)c1 (protonated)
C=c1c(=O)/c(=C/c2cccc([O-])c2O)[n-]c(=O)n1-c1ccc(C)c(Cl)c1 (cis-trans isomerization)
C=c1c(=O)/c(=C/c2cccc([O-])c2O)[n-]c(=O)n1-c1ccc(C)c(Cl)c1 (3D coordinates assigned)
C=c1c(=O)/c(=C/c2cccc([O-])c2O)[n-]c(=O)n1-c1ccc(C)c(Cl)c1 (optimized conformer: 66.78352051438604 kcal/mol)

>  <smiles>  (66) 
C=c1c(=O)c(=Cc2cccc(O)c2O)[nH]c(=O)n1-c1ccc(C)c(Cl)c1

>  <score_type>  (66) 
oracle

>  <origin>  (66) 
adg

>  <m_score__min__energy>  (66) 
-13.25

>  <m_primary>  (66) 
energy

$$$$
66:0
     RDKit          3D

 44 47  0  0  0  0  0  0  0  0999 V2000
   56.3097   30.8564   41.1307 H   0  0  0  0  0  0  0  0  0  0  0  0
   56.6580   30.9040   42.1730 C   0  0  0  0  0  0  0  0  0  0  0  0
   56.2360   29.9790   43.0730 N   0  0  0  0  0  0  0  0  0  0  0  0
   56.6430   29.9900   44.3750 C   0  0  0  0  0  0  0  0  0  0  0  0
   56.1970   29.0940   45.2110 N   0  0  0  0  0  0  0  0  0  0  0  0
   56.8880   27.9000   45.6100 C   0  0  0  0  0  0  0  0  0  0  0  0
   58.2870   27.8710   45.5280 C   0  0  0  0  0  0  0  0  0  0  0  0
   58.8328   28.7596   45.1782 H   0  0  0  0  0  0  0  0  0  0  0  0
   58.9920   26.7200   45.8880 C   0  0  0  0  0  0  0  0  0  0  0  0
   60.0907   26.7096   45.8352 H   0  0  0  0  0  0  0  0  0  0  0  0
   58.3030   25.5820   46.3150 C   0  0  0  0  0  0  0  0  0  0  0  0
   58.8602   24.6805   46.6097 H   0  0  0  0  0  0  0  0  0  0  0  0
   56.9070   25.5880   46.3680 C   0  0  0  0  0  0  0  0  0  0  0  0
   56.3665   24.6883   46.6972 H   0  0  0  0  0  0  0  0  0  0  0  0
   56.1940   26.7370   46.0030 C   0  0  0  0  0  0  0  0  0  0  0  0
   54.8040   26.7030   46.0040 O   0  0  0  0  0  0  0  0  0  0  0  0
   57.5200   31.0030   44.8260 C   0  0  0  0  0  0  0  0  0  0  0  0
   57.9500   31.0420   46.2050 N   0  0  0  0  0  0  0  0  0  0  0  0
   58.0200   30.1440   46.7350 H   0  0  0  0  0  0  0  0  0  0  0  0
   58.2870   32.2840   46.9040 C   0  0  0  0  0  0  0  0  0  0  0  0
   57.5389   32.4715   47.6884 H   0  0  0  0  0  0  0  0  0  0  0  0
   58.2920   33.1093   46.1768 H   0  0  0  0  0  0  0  0  0  0  0  0
   59.6450   32.1860   47.5320 C   0  0  0  0  0  0  0  0  0  0  0  0
   60.0480   31.0710   47.9580 O   0  0  0  0  0  0  0  0  0  0  0  0
   60.5090   33.3340   47.5490 N   0  0  0  0  0  0  0  0  0  0  0  0
   60.2490   34.1450   46.9420 H   0  0  0  0  0  0  0  0  0  0  0  0
   61.7670   33.3860   48.2410 C   0  0  0  0  0  0  0  0  0  0  0  0
   62.9330   32.7750   47.7040 C   0  0  0  0  0  0  0  0  0  0  0  0
   62.8819   32.2635   46.7315 H   0  0  0  0  0  0  0  0  0  0  0  0
   64.1520   32.8190   48.4060 C   0  0  0  0  0  0  0  0  0  0  0  0
   65.0617   32.3579   47.9938 H   0  0  0  0  0  0  0  0  0  0  0  0
   64.1690   33.4640   49.6370 C   0  0  0  0  0  0  0  0  0  0  0  0
   63.0560   34.0330   50.1660 C   0  0  0  0  0  0  0  0  0  0  0  0
   61.8310   34.0100   49.5060 C   0  0  0  0  0  0  0  0  0  0  0  0
   60.9372   34.4654   49.9574 H   0  0  0  0  0  0  0  0  0  0  0  0
   63.3640   34.5920   51.3910 O   0  0  0  0  0  0  0  0  0  0  0  0
   64.7560   34.3600   51.6480 C   0  0  0  0  0  0  0  0  0  0  0  0
   65.2939   35.3139   51.7512 H   0  0  0  0  0  0  0  0  0  0  0  0
   64.9154   33.8045   52.5840 H   0  0  0  0  0  0  0  0  0  0  0  0
   65.2310   33.6350   50.5050 O   0  0  0  0  0  0  0  0  0  0  0  0
   57.9610   31.9640   43.8960 C   0  0  0  0  0  0  0  0  0  0  0  0
   58.6485   32.7602   44.2176 H   0  0  0  0  0  0  0  0  0  0  0  0
   57.5320   31.9130   42.5700 C   0  0  0  0  0  0  0  0  0  0  0  0
   57.8807   32.6627   41.8445 H   0  0  0  0  0  0  0  0  0  0  0  0
  1  2  1  0
  2  3  1  0
  3  4  1  0
  4  5  2  0
  5  6  1  0
  6  7  2  0
  7  8  1  0
  7  9  1  0
  9 10  1  0
  9 11  2  0
 11 12  1  0
 11 13  1  0
 13 14  1  0
 13 15  2  0
 15 16  1  0
  4 17  1  0
 17 18  1  0
 18 19  1  0
 18 20  1  0
 20 21  1  0
 20 22  1  0
 20 23  1  0
 23 24  2  0
 23 25  1  0
 25 26  1  0
 25 27  1  0
 27 28  2  0
 28 29  1  0
 28 30  1  0
 30 31  1  0
 30 32  2  0
 32 33  1  0
 33 34  2  0
 34 35  1  0
 33 36  1  0
 36 37  1  0
 37 38  1  0
 37 39  1  0
 37 40  1  0
 17 41  2  0
 41 42  1  0
 41 43  1  0
 43 44  1  0
 43  2  2  0
 15  6  1  0
 34 27  1  0
 40 32  1  0
M  CHG  2   3  -1  16  -1
M  END
>  <UniqueID>  (67) 
64

>  <SMILES>  (67) 
O=C(CNc1ccc[n-]/c1=N\c1ccccc1[O-])Nc1ccc2c(c1)OCO2

>  <Energy>  (67) 
88.05060334609308

>  <Genealogy>  (67) 
O=C(CNc1ccc[n-]c1=Nc1ccccc1[O-])Nc1ccc2c(c1)OCO2 (protonated)
O=C(CNc1ccc[n-]/c1=N\c1ccccc1[O-])Nc1ccc2c(c1)OCO2 (cis-trans isomerization)
O=C(CNc1ccc[n-]/c1=N\c1ccccc1[O-])Nc1ccc2c(c1)OCO2 (3D coordinates assigned)
O=C(CNc1ccc[n-]/c1=N\c1ccccc1[O-])Nc1ccc2c(c1)OCO2 (nonaromatic ring conformer: 88.05060334609308 kcal/mol)

>  <smiles>  (67) 
O=C(CNc1ccc[nH]c1=Nc1ccccc1O)Nc1ccc2c(c1)OCO2

>  <score_type>  (67) 
oracle

>  <origin>  (67) 
adg

>  <m_score__min__energy>  (67) 
-13.77

>  <m_primary>  (67) 
energy

$$$$
67:0
     RDKit          3D

 52 55  0  0  0  0  0  0  0  0999 V2000
   59.1427   28.9613   47.3784 H   0  0  0  0  0  0  0  0  0  0  0  0
   58.7920   28.1740   46.6950 C   0  0  0  0  0  0  0  0  0  0  0  0
   58.8476   27.1180   46.9978 H   0  0  0  0  0  0  0  0  0  0  0  0
   58.2960   28.5020   45.4910 C   0  0  0  0  0  0  0  0  0  0  0  0
   57.8150   27.6150   44.5220 C   0  0  0  0  0  0  0  0  0  0  0  0
   57.8260   26.2690   44.5710 C   0  0  0  0  0  0  0  0  0  0  0  0
   58.3227   25.7266   43.7530 H   0  0  0  0  0  0  0  0  0  0  0  0
   57.2130   25.4780   45.6540 C   0  0  0  0  0  0  0  0  0  0  0  0
   57.8440   24.4670   46.2770 N   0  0  0  0  0  0  0  0  0  0  0  0
   56.9680   24.0930   47.2350 C   0  0  0  0  0  0  0  0  0  0  0  0
   57.1980   23.1470   48.0310 O   0  0  0  0  0  0  0  0  0  0  0  0
   55.8310   24.8190   47.2780 N   0  0  0  0  0  0  0  0  0  0  0  0
   56.0060   25.7000   46.2800 C   0  0  0  0  0  0  0  0  0  0  0  0
   55.1020   26.7130   45.9830 O   0  0  0  0  0  0  0  0  0  0  0  0
   57.3670   28.3980   43.4660 C   0  0  0  0  0  0  0  0  0  0  0  0
   56.9230   28.0403   42.5253 H   0  0  0  0  0  0  0  0  0  0  0  0
   57.5870   29.7120   43.8260 C   0  0  0  0  0  0  0  0  0  0  0  0
   57.2540   30.8970   42.9690 C   0  0  0  0  0  0  0  0  0  0  0  0
   57.0123   31.7572   43.6106 H   0  0  0  0  0  0  0  0  0  0  0  0
   58.1174   31.1444   42.3339 H   0  0  0  0  0  0  0  0  0  0  0  0
   56.3881   30.6585   42.3339 H   0  0  0  0  0  0  0  0  0  0  0  0
   58.1440   29.7780   45.0560 N   0  0  0  0  0  0  0  0  0  0  0  0
   58.5210   30.9850   45.7430 C   0  0  0  0  0  0  0  0  0  0  0  0
   57.5930   32.0200   45.9130 C   0  0  0  0  0  0  0  0  0  0  0  0
   56.5689   31.9052   45.5281 H   0  0  0  0  0  0  0  0  0  0  0  0
   57.9610   33.1980   46.5690 C   0  0  0  0  0  0  0  0  0  0  0  0
   57.2243   34.0050   46.6956 H   0  0  0  0  0  0  0  0  0  0  0  0
   59.2670   33.3600   47.0690 C   0  0  0  0  0  0  0  0  0  0  0  0
   59.6880   34.6080   47.7620 C   0  0  0  0  0  0  0  0  0  0  0  0
   59.6490   35.6980   47.1240 O   0  0  0  0  0  0  0  0  0  0  0  0
   60.1080   34.6110   49.1520 N   0  0  1  0  0  0  0  0  0  0  0  0
   59.8040   35.5150   49.5840 H   0  0  0  0  0  0  0  0  0  0  0  0
   59.3830   33.5520   49.9160 C   0  0  0  0  0  0  0  0  0  0  0  0
   58.4479   33.3141   49.3878 H   0  0  0  0  0  0  0  0  0  0  0  0
   59.1900   33.9426   50.9261 H   0  0  0  0  0  0  0  0  0  0  0  0
   60.1870   32.2930   50.0610 C   0  0  0  0  0  0  0  0  0  0  0  0
   59.6380   31.1640   49.9530 O   0  0  0  0  0  0  0  0  0  0  0  0
   61.5790   32.4110   50.3700 N   0  0  0  0  0  0  0  0  0  0  0  0
   62.4200   31.2270   50.5380 C   0  0  0  0  0  0  0  0  0  0  0  0
   62.5619   31.0272   51.6104 H   0  0  0  0  0  0  0  0  0  0  0  0
   61.9332   30.3614   50.0650 H   0  0  0  0  0  0  0  0  0  0  0  0
   63.3977   31.4016   50.0650 H   0  0  0  0  0  0  0  0  0  0  0  0
   62.1260   33.7650   50.4250 C   0  0  0  0  0  0  0  0  0  0  0  0
   63.2245   33.7216   50.3885 H   0  0  0  0  0  0  0  0  0  0  0  0
   61.8172   34.2550   51.3602 H   0  0  0  0  0  0  0  0  0  0  0  0
   61.6010   34.5600   49.2220 C   0  0  0  0  0  0  0  0  0  0  0  0
   61.9777   34.0898   48.3017 H   0  0  0  0  0  0  0  0  0  0  0  0
   61.9572   35.5946   49.3350 H   0  0  0  0  0  0  0  0  0  0  0  0
   60.1970   32.3210   46.8810 C   0  0  0  0  0  0  0  0  0  0  0  0
   61.2257   32.4365   47.2532 H   0  0  0  0  0  0  0  0  0  0  0  0
   59.8260   31.1440   46.2260 C   0  0  0  0  0  0  0  0  0  0  0  0
   60.5623   30.3384   46.0890 H   0  0  0  0  0  0  0  0  0  0  0  0
  1  2  1  0
  2  3  1  0
  2  4  2  0
  4  5  1  0
  5  6  2  0
  6  7  1  0
  6  8  1  0
  8  9  1  0
  9 10  1  0
 10 11  2  0
 10 12  1  0
 12 13  1  0
 13 14  1  0
  5 15  1  0
 15 16  1  0
 15 17  2  0
 17 18  1  0
 18 19  1  0
 18 20  1  0
 18 21  1  0
 17 22  1  0
 22 23  1  0
 23 24  2  0
 24 25  1  0
 24 26  1  0
 26 27  1  0
 26 28  2  0
 28 29  1  0
 29 30  2  0
 29 31  1  0
 31 32  1  1
 31 33  1  0
 33 34  1  0
 33 35  1  0
 33 36  1  0
 36 37  2  0
 36 38  1  0
 38 39  1  0
 39 40  1  0
 39 41  1  0
 39 42  1  0
 38 43  1  0
 43 44  1  0
 43 45  1  0
 43 46  1  0
 46 47  1  0
 46 48  1  0
 28 49  1  0
 49 50  1  0
 49 51  2  0
 51 52  1  0
 22  4  1  0
 51 23  1  0
 13  8  2  0
 46 31  1  0
M  CHG  4   9  -1  12  -1  14  -1  31   1
M  END
>  <UniqueID>  (68) 
65

>  <SMILES>  (68) 
C=c1/c(=C/c2[n-]c(=O)[n-]c2[O-])cc(C)n1-c1ccc(C(=O)[N@@H+]2CCN(C)C(=O)C2)cc1

>  <Energy>  (68) 
138.39130925383552

>  <Genealogy>  (68) 
C=c1c(=Cc2[n-]c(=O)[n-]c2[O-])cc(C)n1-c1ccc(C(=O)[NH+]2CCN(C)C(=O)C2)cc1 (protonated)
C=c1c(=Cc2[n-]c(=O)[n-]c2[O-])cc(C)n1-c1ccc(C(=O)[N@@H+]2CCN(C)C(=O)C2)cc1 (chirality)
C=c1/c(=C/c2[n-]c(=O)[n-]c2[O-])cc(C)n1-c1ccc(C(=O)[N@@H+]2CCN(C)C(=O)C2)cc1 (cis-trans isomerization)
C=c1/c(=C/c2[n-]c(=O)[n-]c2[O-])cc(C)n1-c1ccc(C(=O)[N@@H+]2CCN(C)C(=O)C2)cc1 (3D coordinates assigned)
C=c1/c(=C/c2[n-]c(=O)[n-]c2[O-])cc(C)n1-c1ccc(C(=O)[N@@H+]2CCN(C)C(=O)C2)cc1 (nonaromatic ring conformer: 138.39130925383552 kcal/mol)

>  <smiles>  (68) 
C=c1c(=Cc2[nH]c(=O)[nH]c2O)cc(C)n1-c1ccc(C(=O)N2CCN(C)C(=O)C2)cc1

>  <score_type>  (68) 
oracle

>  <origin>  (68) 
adg

>  <m_score__min__energy>  (68) 
-14.68

>  <m_primary>  (68) 
energy

$$$$
68:0
     RDKit          3D

 46 49  0  0  0  0  0  0  0  0999 V2000
   57.7770   25.4200   44.5620 C   0  0  0  0  0  0  0  0  0  0  0  0
   57.3160   25.3010   45.8100 C   0  0  0  0  0  0  0  0  0  0  0  0
   56.7000   26.4640   46.5380 C   0  0  0  0  0  0  0  0  0  0  0  0
   55.9220   27.2940   45.6220 N   0  0  0  0  0  0  0  0  0  0  0  0
   56.2350   28.6270   45.1860 C   0  0  0  0  0  0  0  0  0  0  0  0
   55.3740   29.2490   44.5090 O   0  0  0  0  0  0  0  0  0  0  0  0
   57.5100   29.3070   45.5100 C   0  0  0  0  0  0  0  0  0  0  0  0
   58.5780   28.5700   46.0490 C   0  0  0  0  0  0  0  0  0  0  0  0
   59.7680   29.2090   46.4040 C   0  0  0  0  0  0  0  0  0  0  0  0
   59.9010   30.5890   46.2410 C   0  0  0  0  0  0  0  0  0  0  0  0
   58.8390   31.3490   45.7280 C   0  0  0  0  0  0  0  0  0  0  0  0
   58.9870   32.8160   45.5510 C   0  0  0  0  0  0  0  0  0  0  0  0
   59.5250   33.6890   46.4080 C   0  0  0  0  0  0  0  0  0  0  0  0
   60.2130   33.3820   47.6760 C   0  0  0  0  0  0  0  0  0  0  0  0
   59.6290   33.2800   48.9350 C   0  0  0  0  0  0  0  0  0  0  0  0
   60.5800   33.0700   49.8750 N   0  0  0  0  0  0  0  0  0  0  0  0
   60.3640   32.9970   51.3150 C   0  0  0  0  0  0  0  0  0  0  0  0
   61.7620   33.0600   49.2260 C   0  0  0  0  0  0  0  0  0  0  0  0
   63.0420   32.9460   49.7750 C   0  0  0  0  0  0  0  0  0  0  0  0
   64.1430   33.0190   48.9010 C   0  0  0  0  0  0  0  0  0  0  0  0
   63.9470   33.2170   47.5180 C   0  0  0  0  0  0  0  0  0  0  0  0
   62.6490   33.3400   46.9930 C   0  0  0  0  0  0  0  0  0  0  0  0
   61.5740   33.2410   47.8770 C   0  0  0  0  0  0  0  0  0  0  0  0
   59.3730   35.0250   45.8340 C   0  0  0  0  0  0  0  0  0  0  0  0
   59.7990   36.0880   46.3550 O   0  0  0  0  0  0  0  0  0  0  0  0
   58.7100   34.9880   44.5770 N   0  0  0  0  0  0  0  0  0  0  0  0
   58.4740   33.5940   44.4180 C   0  0  0  0  0  0  0  0  0  0  0  0
   57.8600   33.1150   43.4290 O   0  0  0  0  0  0  0  0  0  0  0  0
   57.6480   30.6950   45.3630 C   0  0  0  0  0  0  0  0  0  0  0  0
   58.2225   24.5514   44.0551 H   0  0  0  0  0  0  0  0  0  0  0  0
   57.7111   26.3866   44.0412 H   0  0  0  0  0  0  0  0  0  0  0  0
   57.3887   24.3281   46.3180 H   0  0  0  0  0  0  0  0  0  0  0  0
   56.0389   26.0842   47.3309 H   0  0  0  0  0  0  0  0  0  0  0  0
   57.5048   27.0756   46.9719 H   0  0  0  0  0  0  0  0  0  0  0  0
   58.4763   27.4841   46.1921 H   0  0  0  0  0  0  0  0  0  0  0  0
   60.6037   28.6226   46.8136 H   0  0  0  0  0  0  0  0  0  0  0  0
   60.8441   31.0836   46.5164 H   0  0  0  0  0  0  0  0  0  0  0  0
   58.5506   33.3587   49.1370 H   0  0  0  0  0  0  0  0  0  0  0  0
   61.2801   33.3066   51.8393 H   0  0  0  0  0  0  0  0  0  0  0  0
   59.5369   33.6655   51.5961 H   0  0  0  0  0  0  0  0  0  0  0  0
   60.1120   31.9638   51.5961 H   0  0  0  0  0  0  0  0  0  0  0  0
   63.1847   32.8037   50.8564 H   0  0  0  0  0  0  0  0  0  0  0  0
   65.1637   32.9210   49.2993 H   0  0  0  0  0  0  0  0  0  0  0  0
   64.8159   33.2755   46.8460 H   0  0  0  0  0  0  0  0  0  0  0  0
   62.4857   33.5091   45.9184 H   0  0  0  0  0  0  0  0  0  0  0  0
   56.8115   31.2818   44.9557 H   0  0  0  0  0  0  0  0  0  0  0  0
  1  2  2  0
  2  3  1  0
  3  4  1  0
  4  5  1  0
  5  6  2  0
  5  7  1  0
  7  8  2  0
  8  9  1  0
  9 10  2  0
 10 11  1  0
 11 12  1  0
 12 13  2  0
 13 14  1  0
 14 15  2  0
 15 16  1  0
 16 17  1  0
 16 18  1  0
 18 19  2  0
 19 20  1  0
 20 21  2  0
 21 22  1  0
 22 23  2  0
 13 24  1  0
 24 25  2  0
 24 26  1  0
 26 27  1  0
 27 28  2  0
 11 29  2  0
 29  7  1  0
 27 12  1  0
 23 14  1  0
 23 18  1  0
  1 30  1  0
  1 31  1  0
  2 32  1  0
  3 33  1  0
  3 34  1  0
  8 35  1  0
  9 36  1  0
 10 37  1  0
 15 38  1  0
 17 39  1  0
 17 40  1  0
 17 41  1  0
 19 42  1  0
 20 43  1  0
 21 44  1  0
 22 45  1  0
 29 46  1  0
M  CHG  2   4  -1  26  -1
M  END
>  <UniqueID>  (69) 
66

>  <SMILES>  (69) 
C=CC[N-]C(=O)c1cccc(C2=C(c3cn(C)c4ccccc34)C(=O)[N-]C2=O)c1

>  <Energy>  (69) 
116.72512789792245

>  <Genealogy>  (69) 
C=CC[N-]C(=O)c1cccc(C2=C(c3cn(C)c4ccccc34)C(=O)[N-]C2=O)c1 (protonated)
C=CC[N-]C(=O)c1cccc(C2=C(c3cn(C)c4ccccc34)C(=O)[N-]C2=O)c1 (3D coordinates assigned)
C=CC[N-]C(=O)c1cccc(C2=C(c3cn(C)c4ccccc34)C(=O)[N-]C2=O)c1 (nonaromatic ring conformer: 116.72512789792245 kcal/mol)

>  <smiles>  (69) 
C=CCNC(=O)c1cccc(C2=C(c3cn(C)c4ccccc34)C(=O)NC2=O)c1

>  <score_type>  (69) 
oracle

>  <origin>  (69) 
adg

>  <m_score__min__energy>  (69) 
-12.48

>  <m_primary>  (69) 
energy

$$$$
69:0
     RDKit          3D

 45 47  0  0  0  0  0  0  0  0999 V2000
   60.4440   27.5660   46.2600 C   0  0  0  0  0  0  0  0  0  0  0  0
   59.1150   28.0720   45.9300 N   0  0  0  0  0  0  0  0  0  0  0  0
   58.0480   27.2260   45.9290 C   0  0  0  0  0  0  0  0  0  0  0  0
   56.7790   27.7090   45.6190 C   0  0  0  0  0  0  0  0  0  0  0  0
   55.6950   26.8290   45.6180 O   0  0  0  0  0  0  0  0  0  0  0  0
   56.6210   29.0670   45.3140 C   0  0  0  0  0  0  0  0  0  0  0  0
   55.4780   29.5160   45.0300 O   0  0  0  0  0  0  0  0  0  0  0  0
   57.7510   29.9080   45.3310 C   0  0  0  0  0  0  0  0  0  0  0  0
   57.6880   31.3550   45.0200 C   0  0  0  0  0  0  0  0  0  0  0  0
   56.6170   31.8410   44.5670 O   0  0  0  0  0  0  0  0  0  0  0  0
   58.8230   32.2040   45.2260 N   0  0  0  0  0  0  0  0  0  0  0  0
   58.9970   33.0640   46.3910 C   0  0  0  0  0  0  0  0  0  0  0  0
   60.4220   33.0040   46.8870 C   0  0  0  0  0  0  0  0  0  0  0  0
   61.4000   33.8010   46.2660 C   0  0  0  0  0  0  0  0  0  0  0  0
   62.7280   33.7590   46.6950 C   0  0  0  0  0  0  0  0  0  0  0  0
   63.0970   32.9240   47.7490 C   0  0  0  0  0  0  0  0  0  0  0  0
   62.1390   32.1300   48.3800 C   0  0  0  0  0  0  0  0  0  0  0  0
   60.8000   32.1620   47.9620 C   0  0  0  0  0  0  0  0  0  0  0  0
   59.8190   31.3150   48.6660 C   0  0  0  0  0  0  0  0  0  0  0  0
   59.5700   30.1640   48.2180 O   0  0  0  0  0  0  0  0  0  0  0  0
   59.1430   31.7860   49.8440 N   0  0  0  0  0  0  0  0  0  0  0  0
   59.4720   33.0250   50.5290 C   0  0  0  0  0  0  0  0  0  0  0  0
   58.4850   33.1280   51.6850 C   0  0  0  0  0  0  0  0  0  0  0  0
   57.8860   31.7350   51.8550 C   0  0  0  0  0  0  0  0  0  0  0  0
   58.1350   31.0060   50.5400 C   0  0  0  0  0  0  0  0  0  0  0  0
   58.9610   29.3670   45.6410 N   0  0  0  0  0  0  0  0  0  0  0  0
   60.5587   27.5223   47.3531 H   0  0  0  0  0  0  0  0  0  0  0  0
   60.5678   26.5578   45.8378 H   0  0  0  0  0  0  0  0  0  0  0  0
   61.2069   28.2366   45.8378 H   0  0  0  0  0  0  0  0  0  0  0  0
   58.1881   26.1625   46.1727 H   0  0  0  0  0  0  0  0  0  0  0  0
   54.7830   27.0990   45.2730 H   0  0  0  0  0  0  0  0  0  0  0  0
   58.7535   34.1006   46.1149 H   0  0  0  0  0  0  0  0  0  0  0  0
   58.3276   32.7166   47.1917 H   0  0  0  0  0  0  0  0  0  0  0  0
   61.1163   34.4634   45.4349 H   0  0  0  0  0  0  0  0  0  0  0  0
   63.4847   34.3859   46.2005 H   0  0  0  0  0  0  0  0  0  0  0  0
   64.1445   32.8913   48.0833 H   0  0  0  0  0  0  0  0  0  0  0  0
   62.4357   31.4739   49.2116 H   0  0  0  0  0  0  0  0  0  0  0  0
   60.5044   32.9923   50.9072 H   0  0  0  0  0  0  0  0  0  0  0  0
   59.4034   33.8927   49.8565 H   0  0  0  0  0  0  0  0  0  0  0  0
   59.0047   33.4349   52.6046 H   0  0  0  0  0  0  0  0  0  0  0  0
   57.7065   33.8784   51.4832 H   0  0  0  0  0  0  0  0  0  0  0  0
   58.3785   31.2060   52.6842 H   0  0  0  0  0  0  0  0  0  0  0  0
   56.8127   31.7845   52.0907 H   0  0  0  0  0  0  0  0  0  0  0  0
   58.5022   29.9866   50.7300 H   0  0  0  0  0  0  0  0  0  0  0  0
   57.2134   30.9114   49.9470 H   0  0  0  0  0  0  0  0  0  0  0  0
  1  2  1  0
  2  3  1  0
  3  4  2  0
  4  5  1  0
  4  6  1  0
  6  7  2  0
  6  8  1  0
  8  9  1  0
  9 10  2  0
  9 11  1  0
 11 12  1  0
 12 13  1  0
 13 14  2  0
 14 15  1  0
 15 16  2  0
 16 17  1  0
 17 18  2  0
 18 19  1  0
 19 20  2  0
 19 21  1  0
 21 22  1  0
 22 23  1  0
 23 24  1  0
 24 25  1  0
  8 26  2  0
 26  2  1  0
 18 13  1  0
 25 21  1  0
  1 27  1  0
  1 28  1  0
  1 29  1  0
  3 30  1  0
  5 31  1  0
 12 32  1  0
 12 33  1  0
 14 34  1  0
 15 35  1  0
 16 36  1  0
 17 37  1  0
 22 38  1  0
 22 39  1  0
 23 40  1  0
 23 41  1  0
 24 42  1  0
 24 43  1  0
 25 44  1  0
 25 45  1  0
M  CHG  1  11  -1
M  END
>  <UniqueID>  (70) 
67

>  <SMILES>  (70) 
Cn1cc(O)c(=O)c(C(=O)[N-]Cc2ccccc2C(=O)N2CCCC2)n1

>  <Energy>  (70) 
51.75100127669598

>  <Genealogy>  (70) 
Cn1cc(O)c(=O)c(C(=O)[N-]Cc2ccccc2C(=O)N2CCCC2)n1 (protonated)
Cn1cc(O)c(=O)c(C(=O)[N-]Cc2ccccc2C(=O)N2CCCC2)n1 (3D coordinates assigned)
Cn1cc(O)c(=O)c(C(=O)[N-]Cc2ccccc2C(=O)N2CCCC2)n1 (nonaromatic ring conformer: 51.75100127669598 kcal/mol)

>  <smiles>  (70) 
Cn1cc(O)c(=O)c(C(=O)NCc2ccccc2C(=O)N2CCCC2)n1

>  <score_type>  (70) 
oracle

>  <origin>  (70) 
adg

>  <m_score__min__energy>  (70) 
-9.9299999999999997

>  <m_primary>  (70) 
energy

$$$$
70:0
     RDKit          3D

 72 76  0  0  0  0  0  0  0  0999 V2000
   56.2310   29.5710   42.6810 C   0  0  0  0  0  0  0  0  0  0  0  0
   56.7900   30.6910   43.4910 C   0  0  0  0  0  0  0  0  0  0  0  0
   57.2560   31.7110   42.9150 O   0  0  0  0  0  0  0  0  0  0  0  0
   56.7080   30.6350   44.9210 N   0  0  0  0  0  0  0  0  0  0  0  0
   57.5590   29.8350   45.7650 C   0  0  0  0  0  0  0  0  0  0  0  0
   58.4950   30.5660   46.5250 C   0  0  0  0  0  0  0  0  0  0  0  0
   58.4290   31.9950   46.3690 N   0  0  0  0  0  0  0  0  0  0  0  0
   57.8190   32.8730   47.3510 C   0  0  0  0  0  0  0  0  0  0  0  0
   57.7220   34.2310   46.6700 C   0  0  0  0  0  0  0  0  0  0  0  0
   58.6550   34.1630   45.4590 C   0  0  0  0  0  0  0  0  0  0  0  0
   58.8560   32.6830   45.1660 C   0  0  0  0  0  0  0  0  0  0  0  0
   59.4720   30.0840   47.4250 C   0  0  0  0  0  0  0  0  0  0  0  0
   60.2430   31.0370   48.1120 O   0  0  0  0  0  0  0  0  0  0  0  0
   59.8010   28.7430   47.7060 C   0  0  0  0  0  0  0  0  0  0  0  0
   60.9350   28.4930   48.6990 C   0  0  0  0  0  0  0  0  0  0  0  0
   60.4210   28.5080   50.1160 C   0  0  0  0  0  0  0  0  0  0  0  0
   60.7860   27.4880   51.0130 C   0  0  0  0  0  0  0  0  0  0  0  0
   60.2930   27.4880   52.3220 C   0  0  0  0  0  0  0  0  0  0  0  0
   59.4300   28.5020   52.7450 C   0  0  0  0  0  0  0  0  0  0  0  0
   59.0630   29.5210   51.8620 C   0  0  0  0  0  0  0  0  0  0  0  0
   59.5570   29.5270   50.5540 C   0  0  0  0  0  0  0  0  0  0  0  0
   59.1940   27.5940   47.1910 C   0  0  0  0  0  0  0  0  0  0  0  0
   58.0710   27.4350   46.3760 C   0  0  0  0  0  0  0  0  0  0  0  0
   57.6870   26.0190   46.0990 C   0  0  0  0  0  0  0  0  0  0  0  0
   58.0020   25.4840   45.0010 O   0  0  0  0  0  0  0  0  0  0  0  0
   56.9720   25.2620   47.0860 N   0  0  0  0  0  0  0  0  0  0  0  0
   55.7950   24.4700   46.8660 C   0  0  0  0  0  0  0  0  0  0  0  0
   55.0270   24.7120   45.7270 C   0  0  0  0  0  0  0  0  0  0  0  0
   53.8980   23.9380   45.4490 C   0  0  0  0  0  0  0  0  0  0  0  0
   53.5130   22.8750   46.3020 C   0  0  0  0  0  0  0  0  0  0  0  0
   52.3430   22.0510   46.0060 N   0  0  0  0  0  0  0  0  0  0  0  0
   52.3590   20.6130   46.3570 C   0  0  0  0  0  0  0  0  0  0  0  0
   51.0950   19.8580   45.9320 C   0  0  0  0  0  0  0  0  0  0  0  0
   49.9460   20.6590   46.0660 O   0  0  0  0  0  0  0  0  0  0  0  0
   50.0180   21.6990   45.1220 C   0  0  0  0  0  0  0  0  0  0  0  0
   51.1120   22.6960   45.5020 C   0  0  0  0  0  0  0  0  0  0  0  0
   54.3070   22.6390   47.4500 C   0  0  0  0  0  0  0  0  0  0  0  0
   55.4360   23.4190   47.7210 C   0  0  0  0  0  0  0  0  0  0  0  0
   57.2930   28.4530   45.7980 C   0  0  0  0  0  0  0  0  0  0  0  0
   56.2210   28.0890   45.2340 O   0  0  0  0  0  0  0  0  0  0  0  0
   55.8419   28.7914   43.3525 H   0  0  0  0  0  0  0  0  0  0  0  0
   55.4157   29.9487   42.0465 H   0  0  0  0  0  0  0  0  0  0  0  0
   57.0229   29.1465   42.0465 H   0  0  0  0  0  0  0  0  0  0  0  0
   56.8186   32.5075   47.6260 H   0  0  0  0  0  0  0  0  0  0  0  0
   58.4066   32.9208   48.2796 H   0  0  0  0  0  0  0  0  0  0  0  0
   56.6885   34.4232   46.3460 H   0  0  0  0  0  0  0  0  0  0  0  0
   58.0064   35.0453   47.3526 H   0  0  0  0  0  0  0  0  0  0  0  0
   58.1960   34.6648   44.5944 H   0  0  0  0  0  0  0  0  0  0  0  0
   59.6118   34.6674   45.6591 H   0  0  0  0  0  0  0  0  0  0  0  0
   58.2432   32.3734   44.3066 H   0  0  0  0  0  0  0  0  0  0  0  0
   59.9008   32.4531   44.9102 H   0  0  0  0  0  0  0  0  0  0  0  0
   60.1450   32.0410   48.0290 H   0  0  0  0  0  0  0  0  0  0  0  0
   61.3872   27.5122   48.4901 H   0  0  0  0  0  0  0  0  0  0  0  0
   61.6828   29.2919   48.5875 H   0  0  0  0  0  0  0  0  0  0  0  0
   61.4628   26.6860   50.6833 H   0  0  0  0  0  0  0  0  0  0  0  0
   60.5851   26.6888   53.0191 H   0  0  0  0  0  0  0  0  0  0  0  0
   59.0394   28.4982   53.7733 H   0  0  0  0  0  0  0  0  0  0  0  0
   58.3845   30.3196   52.1965 H   0  0  0  0  0  0  0  0  0  0  0  0
   59.2681   30.3334   49.8639 H   0  0  0  0  0  0  0  0  0  0  0  0
   59.6857   26.6525   47.4770 H   0  0  0  0  0  0  0  0  0  0  0  0
   55.3138   25.5217   45.0398 H   0  0  0  0  0  0  0  0  0  0  0  0
   53.2984   24.1576   44.5533 H   0  0  0  0  0  0  0  0  0  0  0  0
   53.2243   20.1455   45.8643 H   0  0  0  0  0  0  0  0  0  0  0  0
   52.4149   20.5518   47.4539 H   0  0  0  0  0  0  0  0  0  0  0  0
   51.1975   19.5532   44.8800 H   0  0  0  0  0  0  0  0  0  0  0  0
   50.9816   18.9801   46.5850 H   0  0  0  0  0  0  0  0  0  0  0  0
   50.2438   21.2742   44.1328 H   0  0  0  0  0  0  0  0  0  0  0  0
   49.0519   22.2245   45.0991 H   0  0  0  0  0  0  0  0  0  0  0  0
   51.3682   23.2890   44.6117 H   0  0  0  0  0  0  0  0  0  0  0  0
   50.7149   23.3200   46.3162 H   0  0  0  0  0  0  0  0  0  0  0  0
   54.0314   21.8284   48.1407 H   0  0  0  0  0  0  0  0  0  0  0  0
   56.0462   23.2061   48.6111 H   0  0  0  0  0  0  0  0  0  0  0  0
  1  2  1  0
  2  3  2  0
  2  4  1  0
  4  5  1  0
  5  6  2  0
  6  7  1  0
  7  8  1  0
  8  9  1  0
  9 10  1  0
 10 11  1  0
  6 12  1  0
 12 13  1  0
 12 14  2  0
 14 15  1  0
 15 16  1  0
 16 17  2  0
 17 18  1  0
 18 19  2  0
 19 20  1  0
 20 21  2  0
 14 22  1  0
 22 23  2  0
 23 24  1  0
 24 25  2  0
 24 26  1  0
 26 27  1  0
 27 28  2  0
 28 29  1  0
 29 30  2  0
 30 31  1  0
 31 32  1  0
 32 33  1  0
 33 34  1  0
 34 35  1  0
 35 36  1  0
 30 37  1  0
 37 38  2  0
 23 39  1  0
 39 40  2  0
 39  5  1  0
 11  7  1  0
 21 16  1  0
 38 27  1  0
 36 31  1  0
  1 41  1  0
  1 42  1  0
  1 43  1  0
  8 44  1  0
  8 45  1  0
  9 46  1  0
  9 47  1  0
 10 48  1  0
 10 49  1  0
 11 50  1  0
 11 51  1  0
 13 52  1  0
 15 53  1  0
 15 54  1  0
 17 55  1  0
 18 56  1  0
 19 57  1  0
 20 58  1  0
 21 59  1  0
 22 60  1  0
 28 61  1  0
 29 62  1  0
 32 63  1  0
 32 64  1  0
 33 65  1  0
 33 66  1  0
 35 67  1  0
 35 68  1  0
 36 69  1  0
 36 70  1  0
 37 71  1  0
 38 72  1  0
M  CHG  2   4  -1  26  -1
M  END
>  <UniqueID>  (71) 
68

>  <SMILES>  (71) 
CC(=O)[N-]c1c(N2CCCC2)c(O)c(Cc2ccccc2)cc(C(=O)[N-]c2ccc(N3CCOCC3)cc2)c1=O

>  <Energy>  (71) 
136.13449146417608

>  <Genealogy>  (71) 
CC(=O)[N-]c1c(N2CCCC2)c(O)c(Cc2ccccc2)cc(C(=O)[N-]c2ccc(N3CCOCC3)cc2)c1=O (protonated)
CC(=O)[N-]c1c(N2CCCC2)c(O)c(Cc2ccccc2)cc(C(=O)[N-]c2ccc(N3CCOCC3)cc2)c1=O (3D coordinates assigned)
CC(=O)[N-]c1c(N2CCCC2)c(O)c(Cc2ccccc2)cc(C(=O)[N-]c2ccc(N3CCOCC3)cc2)c1=O (nonaromatic ring conformer: 136.13449146417608 kcal/mol)

>  <smiles>  (71) 
CC(=O)Nc1c(N2CCCC2)c(O)c(Cc2ccccc2)cc(C(=O)Nc2ccc(N3CCOCC3)cc2)c1=O

>  <score_type>  (71) 
oracle

>  <origin>  (71) 
adg

>  <m_score__min__energy>  (71) 
-11.82

>  <m_primary>  (71) 
energy

$$$$
71:0
     RDKit          3D

 51 54  0  0  0  0  0  0  0  0999 V2000
   57.9940   32.8890   45.8770 C   0  0  0  0  0  0  0  0  0  0  0  0
   58.5290   31.5540   46.3120 C   0  0  0  0  0  0  0  0  0  0  0  0
   58.0490   30.3160   45.9090 C   0  0  0  0  0  0  0  0  0  0  0  0
   57.0200   29.9450   45.0490 C   0  0  0  0  0  0  0  0  0  0  0  0
   56.3250   30.8060   44.4460 O   0  0  0  0  0  0  0  0  0  0  0  0
   56.7780   28.6130   44.8700 N   0  0  0  0  0  0  0  0  0  0  0  0
   57.5070   27.6630   45.4890 N   0  0  0  0  0  0  0  0  0  0  0  0
   57.1680   26.2480   45.2730 C   0  0  0  0  0  0  0  0  0  0  0  0
   56.1050   25.7910   46.2390 C   0  0  0  0  0  0  0  0  0  0  0  0
   56.4310   25.4200   47.3980 O   0  0  0  0  0  0  0  0  0  0  0  0
   54.7170   25.8230   45.8920 N   0  0  0  0  0  0  0  0  0  0  0  0
   53.9990   24.7140   45.2770 C   0  0  0  0  0  0  0  0  0  0  0  0
   54.9850   23.6910   44.7930 C   0  0  0  0  0  0  0  0  0  0  0  0
   55.4210   23.7050   43.4580 C   0  0  0  0  0  0  0  0  0  0  0  0
   56.3130   22.7310   42.9990 C   0  0  0  0  0  0  0  0  0  0  0  0
   56.7660   21.7320   43.8650 C   0  0  0  0  0  0  0  0  0  0  0  0
   56.3240   21.7020   45.1920 C   0  0  0  0  0  0  0  0  0  0  0  0
   56.9340   20.3280   46.3700 Br  0  0  0  0  0  0  0  0  0  0  0  0
   55.4320   22.6760   45.6540 C   0  0  0  0  0  0  0  0  0  0  0  0
   58.5240   28.0100   46.3510 C   0  0  0  0  0  0  0  0  0  0  0  0
   59.1900   27.1270   46.9590 O   0  0  0  0  0  0  0  0  0  0  0  0
   58.7940   29.3640   46.5430 C   0  0  0  0  0  0  0  0  0  0  0  0
   59.7400   30.0260   47.3120 C   0  0  0  0  0  0  0  0  0  0  0  0
   60.7870   29.3760   48.1720 C   0  0  0  0  0  0  0  0  0  0  0  0
   59.5670   31.3670   47.1680 N   0  0  0  0  0  0  0  0  0  0  0  0
   60.3400   32.3980   47.8050 C   0  0  0  0  0  0  0  0  0  0  0  0
   61.6770   32.6110   47.4350 C   0  0  0  0  0  0  0  0  0  0  0  0
   62.4280   33.6140   48.0560 C   0  0  0  0  0  0  0  0  0  0  0  0
   61.8480   34.4090   49.0500 C   0  0  0  0  0  0  0  0  0  0  0  0
   60.5160   34.2010   49.4230 C   0  0  0  0  0  0  0  0  0  0  0  0
   59.7630   33.1990   48.8030 C   0  0  0  0  0  0  0  0  0  0  0  0
   57.7518   33.4935   46.7635 H   0  0  0  0  0  0  0  0  0  0  0  0
   58.7530   33.4095   45.2745 H   0  0  0  0  0  0  0  0  0  0  0  0
   57.0856   32.7413   45.2745 H   0  0  0  0  0  0  0  0  0  0  0  0
   55.9970   28.3340   44.2320 H   0  0  0  0  0  0  0  0  0  0  0  0
   56.7982   26.1201   44.2450 H   0  0  0  0  0  0  0  0  0  0  0  0
   58.0721   25.6432   45.4367 H   0  0  0  0  0  0  0  0  0  0  0  0
   53.3276   24.2553   46.0178 H   0  0  0  0  0  0  0  0  0  0  0  0
   53.4065   25.0849   44.4276 H   0  0  0  0  0  0  0  0  0  0  0  0
   55.0596   24.4847   42.7713 H   0  0  0  0  0  0  0  0  0  0  0  0
   56.6587   22.7511   41.9549 H   0  0  0  0  0  0  0  0  0  0  0  0
   57.4706   20.9688   43.5030 H   0  0  0  0  0  0  0  0  0  0  0  0
   55.0796   22.6464   46.6956 H   0  0  0  0  0  0  0  0  0  0  0  0
   60.5382   29.5304   49.2323 H   0  0  0  0  0  0  0  0  0  0  0  0
   60.8209   28.2978   47.9566 H   0  0  0  0  0  0  0  0  0  0  0  0
   61.7683   29.8239   47.9566 H   0  0  0  0  0  0  0  0  0  0  0  0
   62.1357   31.9869   46.6539 H   0  0  0  0  0  0  0  0  0  0  0  0
   63.4754   33.7778   47.7626 H   0  0  0  0  0  0  0  0  0  0  0  0
   62.4393   35.1977   49.5383 H   0  0  0  0  0  0  0  0  0  0  0  0
   60.0604   34.8263   50.2049 H   0  0  0  0  0  0  0  0  0  0  0  0
   58.7156   33.0380   49.0981 H   0  0  0  0  0  0  0  0  0  0  0  0
  1  2  1  0
  2  3  2  0
  3  4  1  0
  4  5  2  0
  4  6  1  0
  6  7  1  0
  7  8  1  0
  8  9  1  0
  9 10  2  0
  9 11  1  0
 11 12  1  0
 12 13  1  0
 13 14  2  0
 14 15  1  0
 15 16  2  0
 16 17  1  0
 17 18  1  0
 17 19  2  0
  7 20  1  0
 20 21  2  0
 20 22  1  0
 22 23  2  0
 23 24  1  0
 23 25  1  0
 25 26  1  0
 26 27  2  0
 27 28  1  0
 28 29  2  0
 29 30  1  0
 30 31  2  0
 25  2  1  0
 31 26  1  0
 22  3  1  0
 19 13  1  0
  1 32  1  0
  1 33  1  0
  1 34  1  0
  6 35  1  0
  8 36  1  0
  8 37  1  0
 12 38  1  0
 12 39  1  0
 14 40  1  0
 15 41  1  0
 16 42  1  0
 19 43  1  0
 24 44  1  0
 24 45  1  0
 24 46  1  0
 27 47  1  0
 28 48  1  0
 29 49  1  0
 30 50  1  0
 31 51  1  0
M  CHG  1  11  -1
M  END
>  <UniqueID>  (72) 
69

>  <SMILES>  (72) 
Cc1c2c(=O)[nH]n(CC(=O)[N-]Cc3cccc(Br)c3)c(=O)c2c(C)n1-c1ccccc1

>  <Energy>  (72) 
97.17057000846272

>  <Genealogy>  (72) 
Cc1c2c(=O)[nH]n(CC(=O)[N-]Cc3cccc(Br)c3)c(=O)c2c(C)n1-c1ccccc1 (protonated)
Cc1c2c(=O)[nH]n(CC(=O)[N-]Cc3cccc(Br)c3)c(=O)c2c(C)n1-c1ccccc1 (3D coordinates assigned)
Cc1c2c(=O)[nH]n(CC(=O)[N-]Cc3cccc(Br)c3)c(=O)c2c(C)n1-c1ccccc1 (optimized conformer: 97.17057000846272 kcal/mol)

>  <smiles>  (72) 
Cc1c2c(=O)[nH]n(CC(=O)NCc3cccc(Br)c3)c(=O)c2c(C)n1-c1ccccc1

>  <score_type>  (72) 
oracle

>  <origin>  (72) 
adg

>  <m_score__min__energy>  (72) 
-11.529999999999999

>  <m_primary>  (72) 
energy

$$$$
72:0
     RDKit          3D

 49 52  0  0  0  0  0  0  0  0999 V2000
   56.6580   33.5410   45.2050 O   0  0  0  0  0  0  0  0  0  0  0  0
   57.7820   32.9870   45.0360 C   0  0  0  0  0  0  0  0  0  0  0  0
   57.9160   31.9640   43.9410 C   0  0  0  0  0  0  0  0  0  0  0  0
   57.2560   30.6650   44.3050 C   0  0  0  0  0  0  0  0  0  0  0  0
   55.9220   30.3150   44.0890 C   0  0  0  0  0  0  0  0  0  0  0  0
   55.6810   29.0650   44.5510 N   0  0  0  0  0  0  0  0  0  0  0  0
   56.8490   28.6210   45.0500 C   0  0  0  0  0  0  0  0  0  0  0  0
   57.0900   27.3910   45.6630 C   0  0  0  0  0  0  0  0  0  0  0  0
   58.3860   27.1370   46.1440 C   0  0  0  0  0  0  0  0  0  0  0  0
   59.4070   28.1050   45.9990 C   0  0  0  0  0  0  0  0  0  0  0  0
   59.1370   29.3370   45.3750 C   0  0  0  0  0  0  0  0  0  0  0  0
   57.8380   29.5640   44.9140 C   0  0  0  0  0  0  0  0  0  0  0  0
   58.8990   33.3560   45.8740 N   0  0  0  0  0  0  0  0  0  0  0  0
   60.0110   32.4120   46.0940 C   0  0  0  0  0  0  0  0  0  0  0  0
   60.9860   32.9170   47.1670 C   0  0  0  0  0  0  0  0  0  0  0  0
   60.1850   33.4680   48.3750 C   0  0  0  0  0  0  0  0  0  0  0  0
   61.0330   33.8460   49.5360 N   0  0  0  0  0  0  0  0  0  0  0  0
   62.4140   34.2900   49.2070 C   0  0  0  0  0  0  0  0  0  0  0  0
   63.4850   33.2470   49.5440 C   0  0  0  0  0  0  0  0  0  0  0  0
   63.6330   32.9800   51.3490 S   0  0  0  0  0  0  0  0  0  0  0  0
   61.8750   33.2270   51.7950 C   0  0  0  0  0  0  0  0  0  0  0  0
   60.9330   32.8710   50.6450 C   0  0  0  0  0  0  0  0  0  0  0  0
   59.2500   34.6420   47.9710 C   0  0  0  0  0  0  0  0  0  0  0  0
   58.9720   34.7050   46.4600 C   0  0  0  0  0  0  0  0  0  0  0  0
   57.4469   32.3575   43.0272 H   0  0  0  0  0  0  0  0  0  0  0  0
   58.9874   31.7702   43.7845 H   0  0  0  0  0  0  0  0  0  0  0  0
   55.1725   30.9629   43.6111 H   0  0  0  0  0  0  0  0  0  0  0  0
   54.7670   28.5590   44.5340 H   0  0  0  0  0  0  0  0  0  0  0  0
   56.2902   26.6430   45.7667 H   0  0  0  0  0  0  0  0  0  0  0  0
   58.6078   26.1788   46.6366 H   0  0  0  0  0  0  0  0  0  0  0  0
   60.4184   27.8935   46.3764 H   0  0  0  0  0  0  0  0  0  0  0  0
   59.9233   30.0967   45.2541 H   0  0  0  0  0  0  0  0  0  0  0  0
   59.5980   31.4445   46.4156 H   0  0  0  0  0  0  0  0  0  0  0  0
   60.5654   32.3118   45.1492 H   0  0  0  0  0  0  0  0  0  0  0  0
   61.6269   32.0873   47.4998 H   0  0  0  0  0  0  0  0  0  0  0  0
   61.6119   33.7177   46.7461 H   0  0  0  0  0  0  0  0  0  0  0  0
   59.5602   32.6258   48.7071 H   0  0  0  0  0  0  0  0  0  0  0  0
   62.4637   34.5052   48.1294 H   0  0  0  0  0  0  0  0  0  0  0  0
   62.6234   35.1799   49.8187 H   0  0  0  0  0  0  0  0  0  0  0  0
   63.2169   32.2941   49.0643 H   0  0  0  0  0  0  0  0  0  0  0  0
   64.4518   33.6189   49.1738 H   0  0  0  0  0  0  0  0  0  0  0  0
   61.6357   32.5900   52.6593 H   0  0  0  0  0  0  0  0  0  0  0  0
   61.7326   34.2918   52.0314 H   0  0  0  0  0  0  0  0  0  0  0  0
   61.1940   31.8718   50.2663 H   0  0  0  0  0  0  0  0  0  0  0  0
   59.9017   32.8897   51.0271 H   0  0  0  0  0  0  0  0  0  0  0  0
   58.2917   34.5225   48.4977 H   0  0  0  0  0  0  0  0  0  0  0  0
   59.7610   35.5759   48.2477 H   0  0  0  0  0  0  0  0  0  0  0  0
   58.0150   35.2209   46.2927 H   0  0  0  0  0  0  0  0  0  0  0  0
   59.7966   35.2498   45.9771 H   0  0  0  0  0  0  0  0  0  0  0  0
  1  2  2  0
  2  3  1  0
  3  4  1  0
  4  5  2  0
  5  6  1  0
  6  7  1  0
  7  8  2  0
  8  9  1  0
  9 10  2  0
 10 11  1  0
 11 12  2  0
  2 13  1  0
 13 14  1  0
 14 15  1  0
 15 16  1  0
 16 17  1  0
 17 18  1  0
 18 19  1  0
 19 20  1  0
 20 21  1  0
 21 22  1  0
 16 23  1  0
 23 24  1  0
 12  4  1  0
 24 13  1  0
 12  7  1  0
 22 17  1  0
  3 25  1  0
  3 26  1  0
  5 27  1  0
  6 28  1  0
  8 29  1  0
  9 30  1  0
 10 31  1  0
 11 32  1  0
 14 33  1  0
 14 34  1  0
 15 35  1  0
 15 36  1  0
 16 37  1  0
 18 38  1  0
 18 39  1  0
 19 40  1  0
 19 41  1  0
 21 42  1  0
 21 43  1  0
 22 44  1  0
 22 45  1  0
 23 46  1  0
 23 47  1  0
 24 48  1  0
 24 49  1  0
M  END
>  <UniqueID>  (73) 
70

>  <SMILES>  (73) 
O=C(Cc1c[nH]c2ccccc12)N1CCC(N2CCSCC2)CC1

>  <Energy>  (73) 
96.24391263363236

>  <Genealogy>  (73) 
O=C(Cc1c[nH]c2ccccc12)N1CCC(N2CCSCC2)CC1 (3D coordinates assigned)
O=C(Cc1c[nH]c2ccccc12)N1CCC(N2CCSCC2)CC1 (nonaromatic ring conformer: 96.24391263363236 kcal/mol)

>  <smiles>  (73) 
O=C(Cc1c[nH]c2ccccc12)N1CCC(N2CCSCC2)CC1

>  <score_type>  (73) 
oracle

>  <origin>  (73) 
adg

>  <m_score__min__energy>  (73) 
-8.6600000000000001

>  <m_primary>  (73) 
energy

$$$$
73:0
     RDKit          3D

 64 67  0  0  0  0  0  0  0  0999 V2000
   59.6530   22.0640   45.3520 N   0  0  0  0  0  0  0  0  0  0  0  0
   58.5350   22.0230   44.4110 C   0  0  0  0  0  0  0  0  0  0  0  0
   57.6170   23.2320   44.6130 C   0  0  0  0  0  0  0  0  0  0  0  0
   57.8510   23.9810   46.2200 S   0  0  0  0  0  0  0  0  0  0  0  0
   59.2850   24.4070   46.3510 O   0  0  0  0  0  0  0  0  0  0  0  0
   57.5140   22.9930   47.3010 O   0  0  0  0  0  0  0  0  0  0  0  0
   56.8210   25.3720   46.3460 N   0  0  0  0  0  0  0  0  0  0  0  0
   57.2580   26.7370   46.2660 C   0  0  0  0  0  0  0  0  0  0  0  0
   56.6590   27.5750   45.3180 C   0  0  0  0  0  0  0  0  0  0  0  0
   57.0570   28.9170   45.1870 C   0  0  0  0  0  0  0  0  0  0  0  0
   56.4230   29.8170   44.1920 C   0  0  0  0  0  0  0  0  0  0  0  0
   56.0610   29.3560   42.8870 N   0  0  0  0  0  0  0  0  0  0  0  0
   56.1700   31.0120   44.5050 O   0  0  0  0  0  0  0  0  0  0  0  0
   58.0780   29.4080   46.0210 C   0  0  0  0  0  0  0  0  0  0  0  0
   58.6790   28.5840   46.9890 C   0  0  0  0  0  0  0  0  0  0  0  0
   59.7240   29.1250   47.8880 C   0  0  0  0  0  0  0  0  0  0  0  0
   60.3620   30.2860   47.5800 N   0  0  0  0  0  0  0  0  0  0  0  0
   61.3420   30.7750   48.3850 C   0  0  0  0  0  0  0  0  0  0  0  0
   62.0340   31.9920   48.0360 N   0  0  0  0  0  0  0  0  0  0  0  0
   61.4390   32.9240   47.0680 C   0  0  0  0  0  0  0  0  0  0  0  0
   62.5220   33.7940   46.4190 C   0  0  0  0  0  0  0  0  0  0  0  0
   63.3660   34.3730   47.3920 O   0  0  0  0  0  0  0  0  0  0  0  0
   64.0810   33.3560   48.0630 C   0  0  0  0  0  0  0  0  0  0  0  0
   63.1350   32.4760   48.8810 C   0  0  0  0  0  0  0  0  0  0  0  0
   61.6720   30.0950   49.5150 N   0  0  0  0  0  0  0  0  0  0  0  0
   61.0380   28.9380   49.8400 C   0  0  0  0  0  0  0  0  0  0  0  0
   61.3920   28.2290   51.0450 N   0  0  0  0  0  0  0  0  0  0  0  0
   61.1480   26.7820   51.1480 C   0  0  0  0  0  0  0  0  0  0  0  0
   60.8560   26.3880   52.5980 C   0  0  0  0  0  0  0  0  0  0  0  0
   61.9960   26.8030   53.5580 C   0  0  0  0  0  0  0  0  0  0  0  0
   61.4830   27.0330   54.8480 O   0  0  0  0  0  0  0  0  0  0  0  0
   62.8130   28.0200   53.0620 C   0  0  0  0  0  0  0  0  0  0  0  0
   61.9850   28.9580   52.1770 C   0  0  0  0  0  0  0  0  0  0  0  0
   60.0700   28.4560   49.0190 N   0  0  0  0  0  0  0  0  0  0  0  0
   58.2630   27.2470   47.1040 C   0  0  0  0  0  0  0  0  0  0  0  0
   60.2360   22.9030   45.1230 H   0  0  0  0  0  0  0  0  0  0  0  0
   59.2690   22.2200   46.3120 H   0  0  0  0  0  0  0  0  0  0  0  0
   58.9268   22.0341   43.3832 H   0  0  0  0  0  0  0  0  0  0  0  0
   57.9562   21.1044   44.5872 H   0  0  0  0  0  0  0  0  0  0  0  0
   57.8362   23.9794   43.8363 H   0  0  0  0  0  0  0  0  0  0  0  0
   56.5751   22.8858   44.5451 H   0  0  0  0  0  0  0  0  0  0  0  0
   55.8662   27.1781   44.6668 H   0  0  0  0  0  0  0  0  0  0  0  0
   56.1160   28.3490   42.6250 H   0  0  0  0  0  0  0  0  0  0  0  0
   55.6210   30.0140   42.2060 H   0  0  0  0  0  0  0  0  0  0  0  0
   58.4108   30.4510   45.9144 H   0  0  0  0  0  0  0  0  0  0  0  0
   60.9198   32.3502   46.2862 H   0  0  0  0  0  0  0  0  0  0  0  0
   60.7290   33.5775   47.5960 H   0  0  0  0  0  0  0  0  0  0  0  0
   63.1273   33.1696   45.7454 H   0  0  0  0  0  0  0  0  0  0  0  0
   62.0289   34.6035   45.8609 H   0  0  0  0  0  0  0  0  0  0  0  0
   64.6027   32.7328   47.3217 H   0  0  0  0  0  0  0  0  0  0  0  0
   64.8045   33.8255   48.7458 H   0  0  0  0  0  0  0  0  0  0  0  0
   63.6926   31.6155   49.2794 H   0  0  0  0  0  0  0  0  0  0  0  0
   62.7184   33.0692   49.7084 H   0  0  0  0  0  0  0  0  0  0  0  0
   60.2853   26.5150   50.5199 H   0  0  0  0  0  0  0  0  0  0  0  0
   62.0460   26.2453   50.8081 H   0  0  0  0  0  0  0  0  0  0  0  0
   59.9262   26.8807   52.9185 H   0  0  0  0  0  0  0  0  0  0  0  0
   60.7633   25.2926   52.6379 H   0  0  0  0  0  0  0  0  0  0  0  0
   62.7039   25.9616   53.5880 H   0  0  0  0  0  0  0  0  0  0  0  0
   62.2420   27.3060   55.4280 H   0  0  0  0  0  0  0  0  0  0  0  0
   63.1722   28.5840   53.9354 H   0  0  0  0  0  0  0  0  0  0  0  0
   63.6487   27.6388   52.4568 H   0  0  0  0  0  0  0  0  0  0  0  0
   61.1796   29.4031   52.7796 H   0  0  0  0  0  0  0  0  0  0  0  0
   62.6479   29.7411   51.7805 H   0  0  0  0  0  0  0  0  0  0  0  0
   58.7285   26.5940   47.8569 H   0  0  0  0  0  0  0  0  0  0  0  0
  1  2  1  0
  2  3  1  0
  3  4  1  0
  4  5  2  0
  4  6  2  0
  4  7  1  0
  7  8  1  0
  8  9  2  0
  9 10  1  0
 10 11  1  0
 11 12  1  0
 11 13  2  0
 10 14  2  0
 14 15  1  0
 15 16  1  0
 16 17  2  0
 17 18  1  0
 18 19  1  0
 19 20  1  0
 20 21  1  0
 21 22  1  0
 22 23  1  0
 23 24  1  0
 18 25  2  0
 25 26  1  0
 26 27  1  0
 27 28  1  0
 28 29  1  0
 29 30  1  0
 30 31  1  0
 30 32  1  0
 32 33  1  0
 26 34  2  0
 15 35  2  0
 35  8  1  0
 34 16  1  0
 24 19  1  0
 33 27  1  0
  1 36  1  0
  1 37  1  0
  2 38  1  0
  2 39  1  0
  3 40  1  0
  3 41  1  0
  9 42  1  0
 12 43  1  0
 12 44  1  0
 14 45  1  0
 20 46  1  0
 20 47  1  0
 21 48  1  0
 21 49  1  0
 23 50  1  0
 23 51  1  0
 24 52  1  0
 24 53  1  0
 28 54  1  0
 28 55  1  0
 29 56  1  0
 29 57  1  0
 30 58  1  0
 31 59  1  0
 32 60  1  0
 32 61  1  0
 33 62  1  0
 33 63  1  0
 35 64  1  0
M  CHG  1   7  -1
M  END
>  <UniqueID>  (74) 
71

>  <SMILES>  (74) 
NCCS(=O)(=O)[N-]c1cc(C(N)=O)cc(-c2nc(N3CCOCC3)nc(N3CCC(O)CC3)n2)c1

>  <Energy>  (74) 
69.68119628093156

>  <Genealogy>  (74) 
NCCS(=O)(=O)[N-]c1cc(C(N)=O)cc(-c2nc(N3CCOCC3)nc(N3CCC(O)CC3)n2)c1 (protonated)
NCCS(=O)(=O)[N-]c1cc(C(N)=O)cc(-c2nc(N3CCOCC3)nc(N3CCC(O)CC3)n2)c1 (3D coordinates assigned)
NCCS(=O)(=O)[N-]c1cc(C(N)=O)cc(-c2nc(N3CCOCC3)nc(N3CCC(O)CC3)n2)c1 (nonaromatic ring conformer: 69.68119628093156 kcal/mol)

>  <smiles>  (74) 
NCCS(=O)(=O)Nc1cc(C(N)=O)cc(-c2nc(N3CCOCC3)nc(N3CCC(O)CC3)n2)c1

>  <score_type>  (74) 
oracle

>  <origin>  (74) 
adg

>  <m_score__min__energy>  (74) 
-9.5999999999999996

>  <m_primary>  (74) 
energy

$$$$
74:0
     RDKit          3D

 44 46  0  0  0  0  0  0  0  0999 V2000
   56.9230   29.3960   43.2650 C   0  0  0  0  0  0  0  0  0  0  0  0
   57.6040   30.4260   44.1300 C   0  0  0  0  0  0  0  0  0  0  0  0
   57.4050   31.7820   43.8500 C   0  0  0  0  0  0  0  0  0  0  0  0
   58.0520   32.7530   44.6010 C   0  0  0  0  0  0  0  0  0  0  0  0
   58.8910   32.3730   45.6410 C   0  0  0  0  0  0  0  0  0  0  0  0
   59.0800   31.0500   45.9500 N   0  0  0  0  0  0  0  0  0  0  0  0
   59.9010   30.6980   46.9930 C   0  0  0  0  0  0  0  0  0  0  0  0
   60.5060   31.5760   47.6700 O   0  0  0  0  0  0  0  0  0  0  0  0
   60.0820   29.3600   47.3270 C   0  0  0  0  0  0  0  0  0  0  0  0
   59.4180   28.3820   46.5930 C   0  0  0  0  0  0  0  0  0  0  0  0
   59.6140   26.9290   46.9300 C   0  0  0  0  0  0  0  0  0  0  0  0
   58.6170   25.8600   45.8290 S   0  0  0  0  0  0  0  0  0  0  0  0
   57.0500   25.9500   46.7770 C   0  0  0  0  0  0  0  0  0  0  0  0
   55.9550   26.5980   45.9860 C   0  0  0  0  0  0  0  0  0  0  0  0
   56.0700   27.7860   45.5780 O   0  0  0  0  0  0  0  0  0  0  0  0
   54.7500   25.8690   45.7400 N   0  0  0  0  0  0  0  0  0  0  0  0
   54.6070   24.4400   45.9970 C   0  0  0  0  0  0  0  0  0  0  0  0
   55.5710   23.6550   45.1490 C   0  0  0  0  0  0  0  0  0  0  0  0
   56.5590   22.8640   45.7590 C   0  0  0  0  0  0  0  0  0  0  0  0
   57.4670   22.1460   44.9750 C   0  0  0  0  0  0  0  0  0  0  0  0
   57.3950   22.2100   43.5820 C   0  0  0  0  0  0  0  0  0  0  0  0
   56.4020   22.9800   42.9680 C   0  0  0  0  0  0  0  0  0  0  0  0
   55.4900   23.6970   43.7480 C   0  0  0  0  0  0  0  0  0  0  0  0
   58.6220   28.7480   45.5520 N   0  0  0  0  0  0  0  0  0  0  0  0
   58.4420   30.0650   45.2170 C   0  0  0  0  0  0  0  0  0  0  0  0
   56.4292   28.6491   43.9040 H   0  0  0  0  0  0  0  0  0  0  0  0
   56.1723   29.8890   42.6299 H   0  0  0  0  0  0  0  0  0  0  0  0
   57.6707   28.8983   42.6299 H   0  0  0  0  0  0  0  0  0  0  0  0
   56.7331   32.0797   43.0315 H   0  0  0  0  0  0  0  0  0  0  0  0
   57.9013   33.8187   44.3739 H   0  0  0  0  0  0  0  0  0  0  0  0
   59.4120   33.1453   46.2259 H   0  0  0  0  0  0  0  0  0  0  0  0
   60.7418   29.0785   48.1609 H   0  0  0  0  0  0  0  0  0  0  0  0
   60.6774   26.6730   46.8135 H   0  0  0  0  0  0  0  0  0  0  0  0
   59.2891   26.7631   47.9677 H   0  0  0  0  0  0  0  0  0  0  0  0
   56.7383   24.9301   47.0465 H   0  0  0  0  0  0  0  0  0  0  0  0
   57.2291   26.5601   47.6746 H   0  0  0  0  0  0  0  0  0  0  0  0
   54.8130   24.2404   47.0590 H   0  0  0  0  0  0  0  0  0  0  0  0
   53.5806   24.1336   45.7467 H   0  0  0  0  0  0  0  0  0  0  0  0
   56.6183   22.8095   46.8560 H   0  0  0  0  0  0  0  0  0  0  0  0
   58.2400   21.5292   45.4567 H   0  0  0  0  0  0  0  0  0  0  0  0
   58.1192   21.6549   42.9677 H   0  0  0  0  0  0  0  0  0  0  0  0
   56.3386   23.0215   41.8706 H   0  0  0  0  0  0  0  0  0  0  0  0
   54.7059   24.2964   43.2622 H   0  0  0  0  0  0  0  0  0  0  0  0
   58.1410   27.9930   45.0170 H   0  0  0  0  0  0  0  0  0  0  0  0
  1  2  1  0
  2  3  2  0
  3  4  1  0
  4  5  2  0
  5  6  1  0
  6  7  1  0
  7  8  2  0
  7  9  1  0
  9 10  2  0
 10 11  1  0
 11 12  1  0
 12 13  1  0
 13 14  1  0
 14 15  2  0
 14 16  1  0
 16 17  1  0
 17 18  1  0
 18 19  2  0
 19 20  1  0
 20 21  2  0
 21 22  1  0
 22 23  2  0
 10 24  1  0
 24 25  2  0
 25  2  1  0
 25  6  1  0
 23 18  1  0
  1 26  1  0
  1 27  1  0
  1 28  1  0
  3 29  1  0
  4 30  1  0
  5 31  1  0
  9 32  1  0
 11 33  1  0
 11 34  1  0
 13 35  1  0
 13 36  1  0
 17 37  1  0
 17 38  1  0
 19 39  1  0
 20 40  1  0
 21 41  1  0
 22 42  1  0
 23 43  1  0
 24 44  1  0
M  CHG  2  16  -1  24   1
M  END
>  <UniqueID>  (75) 
72

>  <SMILES>  (75) 
Cc1cccn2c(=O)cc(CSCC(=O)[N-]Cc3ccccc3)[nH+]c12

>  <Energy>  (75) 
42.49093748540278

>  <Genealogy>  (75) 
Cc1cccn2c(=O)cc(CSCC(=O)[N-]Cc3ccccc3)[nH+]c12 (protonated)
Cc1cccn2c(=O)cc(CSCC(=O)[N-]Cc3ccccc3)[nH+]c12 (3D coordinates assigned)
Cc1cccn2c(=O)cc(CSCC(=O)[N-]Cc3ccccc3)[nH+]c12 (optimized conformer: 42.49093748540278 kcal/mol)

>  <smiles>  (75) 
Cc1cccn2c(=O)cc(CSCC(=O)NCc3ccccc3)nc12

>  <score_type>  (75) 
oracle

>  <origin>  (75) 
adg

>  <m_score__min__energy>  (75) 
-8.4399999999999995

>  <m_primary>  (75) 
energy

$$$$
75:0
     RDKit          3D

 51 53  0  0  0  0  0  0  0  0999 V2000
   55.1810   23.8520   45.1000 C   0  0  0  0  0  0  0  0  0  0  0  0
   55.4030   25.2400   45.6260 C   0  0  0  0  0  0  0  0  0  0  0  0
   54.4000   25.9550   45.8960 O   0  0  0  0  0  0  0  0  0  0  0  0
   56.7520   25.8040   45.8330 C   0  0  0  0  0  0  0  0  0  0  0  0
   56.9770   27.0950   46.1110 C   0  0  0  0  0  0  0  0  0  0  0  0
   58.2080   27.7740   45.6630 C   0  0  0  0  0  0  0  0  0  0  0  0
   59.4370   27.2010   46.0220 C   0  0  0  0  0  0  0  0  0  0  0  0
   60.6380   27.7970   45.6350 C   0  0  0  0  0  0  0  0  0  0  0  0
   60.6240   28.9750   44.8890 C   0  0  0  0  0  0  0  0  0  0  0  0
   59.4090   29.5510   44.5110 C   0  0  0  0  0  0  0  0  0  0  0  0
   58.1910   28.9530   44.8740 C   0  0  0  0  0  0  0  0  0  0  0  0
   56.6860   29.6640   44.2610 S   0  0  0  0  0  0  0  0  0  0  0  0
   55.5190   29.1120   45.0320 O   0  0  0  0  0  0  0  0  0  0  0  0
   56.5260   29.3310   42.8040 O   0  0  0  0  0  0  0  0  0  0  0  0
   56.7290   31.3840   44.4790 N   0  0  0  0  0  0  0  0  0  0  0  0
   57.5580   32.0750   45.4220 C   0  0  0  0  0  0  0  0  0  0  0  0
   58.0860   31.4410   46.5560 C   0  0  0  0  0  0  0  0  0  0  0  0
   58.9220   32.1420   47.4320 C   0  0  0  0  0  0  0  0  0  0  0  0
   59.2540   33.4920   47.2000 C   0  0  0  0  0  0  0  0  0  0  0  0
   60.2160   34.1690   48.1370 C   0  0  0  0  0  0  0  0  0  0  0  0
   59.7360   34.9330   49.0210 O   0  0  0  0  0  0  0  0  0  0  0  0
   61.6590   33.9940   48.1070 N   0  0  0  0  0  0  0  0  0  0  0  0
   62.1390   33.1020   49.1920 C   0  0  0  0  0  0  0  0  0  0  0  0
   63.4580   32.4130   48.8150 C   0  0  0  0  0  0  0  0  0  0  0  0
   64.2540   33.2970   48.0560 O   0  0  0  0  0  0  0  0  0  0  0  0
   63.6990   33.4760   46.7640 C   0  0  0  0  0  0  0  0  0  0  0  0
   62.1570   33.6340   46.7600 C   0  0  0  0  0  0  0  0  0  0  0  0
   58.6950   34.1230   46.0650 C   0  0  0  0  0  0  0  0  0  0  0  0
   57.8600   33.4190   45.1920 C   0  0  0  0  0  0  0  0  0  0  0  0
   55.0694   23.1540   45.9428 H   0  0  0  0  0  0  0  0  0  0  0  0
   54.2686   23.8342   44.4858 H   0  0  0  0  0  0  0  0  0  0  0  0
   56.0423   23.5505   44.4858 H   0  0  0  0  0  0  0  0  0  0  0  0
   57.6170   25.1290   45.7549 H   0  0  0  0  0  0  0  0  0  0  0  0
   56.2285   27.6606   46.6852 H   0  0  0  0  0  0  0  0  0  0  0  0
   59.4542   26.2739   46.6137 H   0  0  0  0  0  0  0  0  0  0  0  0
   61.5962   27.3373   45.9186 H   0  0  0  0  0  0  0  0  0  0  0  0
   61.5716   29.4516   44.5976 H   0  0  0  0  0  0  0  0  0  0  0  0
   59.4060   30.4812   43.9238 H   0  0  0  0  0  0  0  0  0  0  0  0
   57.8417   30.3876   46.7577 H   0  0  0  0  0  0  0  0  0  0  0  0
   59.3273   31.6304   48.3174 H   0  0  0  0  0  0  0  0  0  0  0  0
   62.0790   34.9350   48.3050 H   0  0  0  0  0  0  0  0  0  0  0  0
   62.2958   33.6994   50.1022 H   0  0  0  0  0  0  0  0  0  0  0  0
   61.3797   32.3238   49.3589 H   0  0  0  0  0  0  0  0  0  0  0  0
   63.9975   32.1291   49.7306 H   0  0  0  0  0  0  0  0  0  0  0  0
   63.2429   31.5130   48.2202 H   0  0  0  0  0  0  0  0  0  0  0  0
   64.1411   34.3797   46.3192 H   0  0  0  0  0  0  0  0  0  0  0  0
   63.9286   32.5670   46.1887 H   0  0  0  0  0  0  0  0  0  0  0  0
   61.8780   34.4260   46.0494 H   0  0  0  0  0  0  0  0  0  0  0  0
   61.7064   32.6753   46.4635 H   0  0  0  0  0  0  0  0  0  0  0  0
   58.9199   35.1813   45.8662 H   0  0  0  0  0  0  0  0  0  0  0  0
   57.4363   33.9293   44.3145 H   0  0  0  0  0  0  0  0  0  0  0  0
  1  2  1  0
  2  3  2  0
  2  4  1  0
  4  5  2  3
  5  6  1  0
  6  7  2  0
  7  8  1  0
  8  9  2  0
  9 10  1  0
 10 11  2  0
 11 12  1  0
 12 13  2  0
 12 14  2  0
 12 15  1  0
 15 16  1  0
 16 17  2  0
 17 18  1  0
 18 19  2  0
 19 20  1  0
 20 21  2  0
 20 22  1  0
 22 23  1  0
 23 24  1  0
 24 25  1  0
 25 26  1  0
 26 27  1  0
 19 28  1  0
 28 29  2  0
 11  6  1  0
 29 16  1  0
 27 22  1  0
  1 30  1  0
  1 31  1  0
  1 32  1  0
  4 33  1  0
  5 34  1  0
  7 35  1  0
  8 36  1  0
  9 37  1  0
 10 38  1  0
 17 39  1  0
 18 40  1  0
 22 41  1  0
 23 42  1  0
 23 43  1  0
 24 44  1  0
 24 45  1  0
 26 46  1  0
 26 47  1  0
 27 48  1  0
 27 49  1  0
 28 50  1  0
 29 51  1  0
M  CHG  2  15  -1  22   1
M  END
>  <UniqueID>  (76) 
73

>  <SMILES>  (76) 
CC(=O)C=Cc1ccccc1S(=O)(=O)[N-]c1ccc(C(=O)[NH+]2CCOCC2)cc1

>  <Energy>  (76) 
80.83195543757479

>  <Genealogy>  (76) 
CC(=O)C=Cc1ccccc1S(=O)(=O)[N-]c1ccc(C(=O)[NH+]2CCOCC2)cc1 (protonated)
CC(=O)C=Cc1ccccc1S(=O)(=O)[N-]c1ccc(C(=O)[NH+]2CCOCC2)cc1 (3D coordinates assigned)
CC(=O)C=Cc1ccccc1S(=O)(=O)[N-]c1ccc(C(=O)[NH+]2CCOCC2)cc1 (nonaromatic ring conformer: 80.83195543757479 kcal/mol)

>  <smiles>  (76) 
CC(=O)C=Cc1ccccc1S(=O)(=O)Nc1ccc(C(=O)N2CCOCC2)cc1

>  <score_type>  (76) 
oracle

>  <origin>  (76) 
adg

>  <m_score__min__energy>  (76) 
-10.25

>  <m_primary>  (76) 
energy

$$$$
76:0
     RDKit          3D

 58 61  0  0  0  0  0  0  0  0999 V2000
   61.7330   33.4160   47.5000 O   0  0  0  0  0  0  0  0  0  0  0  0
   60.8520   33.3870   48.3500 C   0  0  0  0  0  0  0  0  0  0  0  0
   61.1440   32.7470   49.6850 C   0  0  0  0  0  0  0  0  0  0  0  0
   59.9170   32.1750   50.2660 N   0  0  0  0  0  0  0  0  0  0  0  0
   59.6790   30.8370   50.1390 C   0  0  0  0  0  0  0  0  0  0  0  0
   58.5400   30.2690   50.7090 C   0  0  0  0  0  0  0  0  0  0  0  0
   57.6620   31.0450   51.4090 N   0  0  0  0  0  0  0  0  0  0  0  0
   56.5040   30.4250   52.0050 C   0  0  0  0  0  0  0  0  0  0  0  0
   56.6580   29.4040   52.9580 C   0  0  0  0  0  0  0  0  0  0  0  0
   55.5360   28.8080   53.5430 C   0  0  0  0  0  0  0  0  0  0  0  0
   54.2520   29.2310   53.1850 C   0  0  0  0  0  0  0  0  0  0  0  0
   52.8450   28.4830   53.9210 Cl  0  0  0  0  0  0  0  0  0  0  0  0
   54.0890   30.2520   52.2430 C   0  0  0  0  0  0  0  0  0  0  0  0
   55.2100   30.8480   51.6550 C   0  0  0  0  0  0  0  0  0  0  0  0
   57.8920   32.3890   51.5410 C   0  0  0  0  0  0  0  0  0  0  0  0
   57.0760   33.1230   52.1660 O   0  0  0  0  0  0  0  0  0  0  0  0
   59.0380   32.9610   50.9650 C   0  0  0  0  0  0  0  0  0  0  0  0
   59.2510   34.1990   51.0990 O   0  0  0  0  0  0  0  0  0  0  0  0
   59.5390   33.9350   48.0570 N   0  0  0  0  0  0  0  0  0  0  0  0
   58.6190   32.8550   47.6180 C   0  0  0  0  0  0  0  0  0  0  0  0
   57.4840   33.4090   46.7460 C   0  0  0  0  0  0  0  0  0  0  0  0
   57.9970   34.0230   45.4940 N   0  0  0  0  0  0  0  0  0  0  0  0
   57.9470   33.0650   44.3660 C   0  0  0  0  0  0  0  0  0  0  0  0
   56.9560   31.9240   44.6420 C   0  0  0  0  0  0  0  0  0  0  0  0
   57.6600   30.5940   44.6130 C   0  0  0  0  0  0  0  0  0  0  0  0
   58.9010   30.4330   45.2520 C   0  0  0  0  0  0  0  0  0  0  0  0
   59.5700   29.2060   45.1910 C   0  0  0  0  0  0  0  0  0  0  0  0
   59.0090   28.1370   44.4870 C   0  0  0  0  0  0  0  0  0  0  0  0
   57.7810   28.2940   43.8390 C   0  0  0  0  0  0  0  0  0  0  0  0
   57.1100   29.5190   43.8970 C   0  0  0  0  0  0  0  0  0  0  0  0
   59.3550   34.6120   45.6460 C   0  0  0  0  0  0  0  0  0  0  0  0
   59.6380   35.0600   47.0900 C   0  0  0  0  0  0  0  0  0  0  0  0
   61.8859   31.9466   49.5475 H   0  0  0  0  0  0  0  0  0  0  0  0
   61.5348   33.5153   50.3684 H   0  0  0  0  0  0  0  0  0  0  0  0
   60.3882   30.2044   49.5850 H   0  0  0  0  0  0  0  0  0  0  0  0
   58.3485   29.1919   50.5941 H   0  0  0  0  0  0  0  0  0  0  0  0
   57.6664   29.0716   53.2455 H   0  0  0  0  0  0  0  0  0  0  0  0
   55.6636   28.0061   54.2851 H   0  0  0  0  0  0  0  0  0  0  0  0
   53.0789   30.5866   51.9643 H   0  0  0  0  0  0  0  0  0  0  0  0
   55.0781   31.6514   50.9153 H   0  0  0  0  0  0  0  0  0  0  0  0
   59.1410   34.3320   48.9410 H   0  0  0  0  0  0  0  0  0  0  0  0
   59.1878   32.1139   47.0373 H   0  0  0  0  0  0  0  0  0  0  0  0
   58.1756   32.3922   48.5119 H   0  0  0  0  0  0  0  0  0  0  0  0
   56.8018   32.5864   46.4852 H   0  0  0  0  0  0  0  0  0  0  0  0
   56.9627   34.1893   47.3199 H   0  0  0  0  0  0  0  0  0  0  0  0
   57.6336   33.5990   43.4568 H   0  0  0  0  0  0  0  0  0  0  0  0
   58.9489   32.6294   44.2376 H   0  0  0  0  0  0  0  0  0  0  0  0
   56.5016   32.0713   45.6329 H   0  0  0  0  0  0  0  0  0  0  0  0
   56.1794   31.9319   43.8630 H   0  0  0  0  0  0  0  0  0  0  0  0
   59.3478   31.2744   45.8019 H   0  0  0  0  0  0  0  0  0  0  0  0
   60.5385   29.0824   45.6976 H   0  0  0  0  0  0  0  0  0  0  0  0
   59.5344   27.1716   44.4430 H   0  0  0  0  0  0  0  0  0  0  0  0
   57.3418   27.4528   43.2827 H   0  0  0  0  0  0  0  0  0  0  0  0
   56.1471   29.6411   43.3795 H   0  0  0  0  0  0  0  0  0  0  0  0
   60.1021   33.8583   45.3565 H   0  0  0  0  0  0  0  0  0  0  0  0
   59.4107   35.5010   45.0005 H   0  0  0  0  0  0  0  0  0  0  0  0
   60.6536   35.4799   47.1380 H   0  0  0  0  0  0  0  0  0  0  0  0
   58.8813   35.8094   47.3654 H   0  0  0  0  0  0  0  0  0  0  0  0
  1  2  2  0
  2  3  1  0
  3  4  1  0
  4  5  1  0
  5  6  2  0
  6  7  1  0
  7  8  1  0
  8  9  2  0
  9 10  1  0
 10 11  2  0
 11 12  1  0
 11 13  1  0
 13 14  2  0
  7 15  1  0
 15 16  2  0
 15 17  1  0
 17 18  2  0
  2 19  1  0
 19 20  1  0
 20 21  1  0
 21 22  1  0
 22 23  1  0
 23 24  1  0
 24 25  1  0
 25 26  2  0
 26 27  1  0
 27 28  2  0
 28 29  1  0
 29 30  2  0
 22 31  1  0
 31 32  1  0
 17  4  1  0
 32 19  1  0
 14  8  1  0
 30 25  1  0
  3 33  1  0
  3 34  1  0
  5 35  1  0
  6 36  1  0
  9 37  1  0
 10 38  1  0
 13 39  1  0
 14 40  1  0
 19 41  1  0
 20 42  1  0
 20 43  1  0
 21 44  1  0
 21 45  1  0
 23 46  1  0
 23 47  1  0
 24 48  1  0
 24 49  1  0
 26 50  1  0
 27 51  1  0
 28 52  1  0
 29 53  1  0
 30 54  1  0
 31 55  1  0
 31 56  1  0
 32 57  1  0
 32 58  1  0
M  CHG  1  19   1
M  END
>  <UniqueID>  (77) 
74

>  <SMILES>  (77) 
O=C(Cn1ccn(-c2ccc(Cl)cc2)c(=O)c1=O)[NH+]1CCN(CCc2ccccc2)CC1

>  <Energy>  (77) 
84.79463637885942

>  <Genealogy>  (77) 
O=C(Cn1ccn(-c2ccc(Cl)cc2)c(=O)c1=O)[NH+]1CCN(CCc2ccccc2)CC1 (protonated)
O=C(Cn1ccn(-c2ccc(Cl)cc2)c(=O)c1=O)[NH+]1CCN(CCc2ccccc2)CC1 (3D coordinates assigned)
O=C(Cn1ccn(-c2ccc(Cl)cc2)c(=O)c1=O)[NH+]1CCN(CCc2ccccc2)CC1 (nonaromatic ring conformer: 84.79463637885942 kcal/mol)

>  <smiles>  (77) 
O=C(Cn1ccn(-c2ccc(Cl)cc2)c(=O)c1=O)N1CCN(CCc2ccccc2)CC1

>  <score_type>  (77) 
oracle

>  <origin>  (77) 
adg

>  <m_score__min__energy>  (77) 
-7.8399999999999999

>  <m_primary>  (77) 
energy

$$$$
77:0
     RDKit          3D

 62 66  0  0  0  0  0  0  0  0999 V2000
   54.9840   21.0180   47.0850 C   0  0  0  0  0  0  0  0  0  0  0  0
   55.5400   22.4660   47.9540 S   0  0  0  0  0  0  0  0  0  0  0  0
   54.9700   22.5000   49.3430 O   0  0  0  0  0  0  0  0  0  0  0  0
   57.0370   22.4230   48.0480 O   0  0  0  0  0  0  0  0  0  0  0  0
   55.0780   23.8950   47.0830 N   0  0  0  0  0  0  0  0  0  0  0  0
   55.8750   24.5740   46.1040 C   0  0  0  0  0  0  0  0  0  0  0  0
   56.3070   23.8560   44.9830 C   0  0  0  0  0  0  0  0  0  0  0  0
   57.0820   24.4780   44.0000 C   0  0  0  0  0  0  0  0  0  0  0  0
   57.4390   25.8200   44.1340 C   0  0  0  0  0  0  0  0  0  0  0  0
   57.0270   26.5530   45.2600 C   0  0  0  0  0  0  0  0  0  0  0  0
   57.4150   27.9310   45.4130 N   0  0  0  0  0  0  0  0  0  0  0  0
   56.6300   29.0190   45.2540 C   0  0  0  0  0  0  0  0  0  0  0  0
   55.2860   28.9660   44.9040 O   0  0  0  0  0  0  0  0  0  0  0  0
   57.3280   30.1850   45.5030 C   0  0  0  0  0  0  0  0  0  0  0  0
   58.6090   29.7800   45.8270 C   0  0  0  0  0  0  0  0  0  0  0  0
   59.7180   30.6530   46.0730 N   0  0  0  0  0  0  0  0  0  0  0  0
   59.4680   32.0660   46.3880 C   0  0  0  0  0  0  0  0  0  0  0  0
   60.6790   32.6910   47.0780 C   0  0  0  0  0  0  0  0  0  0  0  0
   61.2210   31.7140   48.0420 N   0  0  0  0  0  0  0  0  0  0  0  0
   62.0810   32.2820   49.1140 C   0  0  2  0  0  0  0  0  0  0  0  0
   61.6640   33.7270   49.4280 C   0  0  0  0  0  0  0  0  0  0  0  0
   62.3580   34.2150   50.7040 C   0  0  0  0  0  0  0  0  0  0  0  0
   63.8410   33.9240   50.7100 C   0  0  0  0  0  0  0  0  0  0  0  0
   64.6540   34.5880   51.6430 C   0  0  0  0  0  0  0  0  0  0  0  0
   66.0210   34.3140   51.7130 C   0  0  0  0  0  0  0  0  0  0  0  0
   66.5890   33.3670   50.8610 C   0  0  0  0  0  0  0  0  0  0  0  0
   65.7900   32.6830   49.9410 C   0  0  0  0  0  0  0  0  0  0  0  0
   64.4120   32.9360   49.8680 C   0  0  0  0  0  0  0  0  0  0  0  0
   63.5960   32.2290   48.8090 C   0  0  0  0  0  0  0  0  0  0  0  0
   61.8570   30.5660   47.3570 C   0  0  0  0  0  0  0  0  0  0  0  0
   61.0810   30.1070   46.1010 C   0  0  0  0  0  0  0  0  0  0  0  0
   58.6320   28.3970   45.7670 C   0  0  0  0  0  0  0  0  0  0  0  0
   59.7290   27.5820   46.0380 O   0  0  0  0  0  0  0  0  0  0  0  0
   56.2400   25.9260   46.2390 C   0  0  0  0  0  0  0  0  0  0  0  0
   54.6876   20.2462   47.8106 H   0  0  0  0  0  0  0  0  0  0  0  0
   54.1217   21.2779   46.4534 H   0  0  0  0  0  0  0  0  0  0  0  0
   55.7986   20.6340   46.4534 H   0  0  0  0  0  0  0  0  0  0  0  0
   56.0350   22.7957   44.8749 H   0  0  0  0  0  0  0  0  0  0  0  0
   57.4112   23.9080   43.1187 H   0  0  0  0  0  0  0  0  0  0  0  0
   58.0452   26.3062   43.3554 H   0  0  0  0  0  0  0  0  0  0  0  0
   56.9459   31.2153   45.4539 H   0  0  0  0  0  0  0  0  0  0  0  0
   59.2625   32.6123   45.4556 H   0  0  0  0  0  0  0  0  0  0  0  0
   58.6047   32.1283   47.0668 H   0  0  0  0  0  0  0  0  0  0  0  0
   61.4460   32.9393   46.3296 H   0  0  0  0  0  0  0  0  0  0  0  0
   60.3827   33.6128   47.6000 H   0  0  0  0  0  0  0  0  0  0  0  0
   61.9212   31.6377   49.9911 H   0  0  0  0  0  0  0  0  0  0  0  0
   61.9492   34.3777   48.5882 H   0  0  0  0  0  0  0  0  0  0  0  0
   60.5747   33.7608   49.5776 H   0  0  0  0  0  0  0  0  0  0  0  0
   62.2125   35.3019   50.7899 H   0  0  0  0  0  0  0  0  0  0  0  0
   61.9106   33.6760   51.5521 H   0  0  0  0  0  0  0  0  0  0  0  0
   64.2103   35.3295   52.3237 H   0  0  0  0  0  0  0  0  0  0  0  0
   66.6511   34.8457   52.4412 H   0  0  0  0  0  0  0  0  0  0  0  0
   67.6677   33.1582   50.9134 H   0  0  0  0  0  0  0  0  0  0  0  0
   66.2450   31.9405   49.2689 H   0  0  0  0  0  0  0  0  0  0  0  0
   63.7799   32.7117   47.8378 H   0  0  0  0  0  0  0  0  0  0  0  0
   63.9026   31.1727   48.7926 H   0  0  0  0  0  0  0  0  0  0  0  0
   62.8734   30.8578   47.0540 H   0  0  0  0  0  0  0  0  0  0  0  0
   61.8655   29.7239   48.0647 H   0  0  0  0  0  0  0  0  0  0  0  0
   61.6199   30.4483   45.2049 H   0  0  0  0  0  0  0  0  0  0  0  0
   61.0096   29.0096   46.1249 H   0  0  0  0  0  0  0  0  0  0  0  0
   60.0300   26.8660   45.3930 H   0  0  0  0  0  0  0  0  0  0  0  0
   55.9062   26.4962   47.1184 H   0  0  0  0  0  0  0  0  0  0  0  0
  1  2  1  0
  2  3  2  0
  2  4  2  0
  2  5  1  0
  5  6  1  0
  6  7  2  0
  7  8  1  0
  8  9  2  0
  9 10  1  0
 10 11  1  0
 11 12  1  0
 12 13  1  0
 12 14  2  0
 14 15  1  0
 15 16  1  0
 16 17  1  0
 17 18  1  0
 18 19  1  0
 19 20  1  0
 20 21  1  0
 21 22  1  0
 22 23  1  0
 23 24  2  0
 24 25  1  0
 25 26  2  0
 26 27  1  0
 27 28  2  0
 28 29  1  0
 19 30  1  0
 30 31  1  0
 15 32  2  0
 32 33  1  0
 10 34  2  0
 34  6  1  0
 32 11  1  0
 31 16  1  0
 29 20  1  0
 28 23  1  0
  1 35  1  0
  1 36  1  0
  1 37  1  0
  7 38  1  0
  8 39  1  0
  9 40  1  0
 14 41  1  0
 17 42  1  0
 17 43  1  0
 18 44  1  0
 18 45  1  0
 20 46  1  1
 21 47  1  0
 21 48  1  0
 22 49  1  0
 22 50  1  0
 24 51  1  0
 25 52  1  0
 26 53  1  0
 27 54  1  0
 29 55  1  0
 29 56  1  0
 30 57  1  0
 30 58  1  0
 31 59  1  0
 31 60  1  0
 33 61  1  0
 34 62  1  0
M  CHG  2   5  -1  13  -1
M  END
>  <UniqueID>  (78) 
75

>  <SMILES>  (78) 
CS(=O)(=O)[N-]c1cccc(-n2c([O-])cc(N3CCN([C@@H]4CCc5ccccc5C4)CC3)c2O)c1

>  <Energy>  (78) 
115.71089506364336

>  <Genealogy>  (78) 
CS(=O)(=O)[N-]c1cccc(-n2c([O-])cc(N3CCN(C4CCc5ccccc5C4)CC3)c2O)c1 (protonated)
CS(=O)(=O)[N-]c1cccc(-n2c([O-])cc(N3CCN([C@@H]4CCc5ccccc5C4)CC3)c2O)c1 (chirality)
CS(=O)(=O)[N-]c1cccc(-n2c([O-])cc(N3CCN([C@@H]4CCc5ccccc5C4)CC3)c2O)c1 (3D coordinates assigned)
CS(=O)(=O)[N-]c1cccc(-n2c([O-])cc(N3CCN([C@@H]4CCc5ccccc5C4)CC3)c2O)c1 (nonaromatic ring conformer: 115.71089506364336 kcal/mol)

>  <smiles>  (78) 
CS(=O)(=O)Nc1cccc(-n2c(O)cc(N3CCN(C4CCc5ccccc5C4)CC3)c2O)c1

>  <score_type>  (78) 
oracle

>  <origin>  (78) 
adg

>  <m_score__min__energy>  (78) 
-13.369999999999999

>  <m_primary>  (78) 
energy

$$$$
78:0
     RDKit          3D

 51 53  0  0  0  0  0  0  0  0999 V2000
   54.9610   23.8350   45.1210 C   0  0  0  0  0  0  0  0  0  0  0  0
   55.7910   25.1550   45.9810 S   0  0  0  0  0  0  0  0  0  0  0  0
   56.1030   24.7480   47.3930 O   0  0  0  0  0  0  0  0  0  0  0  0
   54.8730   26.3440   46.0050 O   0  0  0  0  0  0  0  0  0  0  0  0
   57.2510   25.6000   45.1540 N   0  0  0  0  0  0  0  0  0  0  0  0
   58.1650   26.6220   45.5720 C   0  0  0  0  0  0  0  0  0  0  0  0
   58.4160   27.6830   44.6960 C   0  0  0  0  0  0  0  0  0  0  0  0
   59.3430   28.6710   45.0280 C   0  0  0  0  0  0  0  0  0  0  0  0
   60.0330   28.6060   46.2390 C   0  0  0  0  0  0  0  0  0  0  0  0
   59.7790   27.5640   47.1440 C   0  0  0  0  0  0  0  0  0  0  0  0
   60.5640   27.4660   48.4300 C   0  0  0  0  0  0  0  0  0  0  0  0
   60.1150   28.4790   49.3880 N   0  0  0  0  0  0  0  0  0  0  0  0
   60.1300   29.7610   49.1750 C   0  0  0  0  0  0  0  0  0  0  0  0
   61.2210   30.3290   48.6100 N   0  0  0  0  0  0  0  0  0  0  0  0
   61.2380   31.6520   48.3160 C   0  0  0  0  0  0  0  0  0  0  0  0
   62.2600   32.1440   47.7670 O   0  0  0  0  0  0  0  0  0  0  0  0
   60.1470   32.4360   48.5970 N   0  0  0  0  0  0  0  0  0  0  0  0
   60.1240   33.8510   48.1790 C   0  0  0  0  0  0  0  0  0  0  0  0
   59.4270   33.9860   46.8550 C   0  0  0  0  0  0  0  0  0  0  0  0
   59.8030   34.8720   46.0420 O   0  0  0  0  0  0  0  0  0  0  0  0
   58.3000   33.1530   46.5510 N   0  0  0  0  0  0  0  0  0  0  0  0
   57.9640   32.6770   45.2350 C   0  0  0  0  0  0  0  0  0  0  0  0
   58.4770   33.2840   44.0730 C   0  0  0  0  0  0  0  0  0  0  0  0
   58.1830   32.7580   42.8150 C   0  0  0  0  0  0  0  0  0  0  0  0
   57.3980   31.6100   42.6980 C   0  0  0  0  0  0  0  0  0  0  0  0
   56.8920   30.9740   43.8450 C   0  0  0  0  0  0  0  0  0  0  0  0
   56.0850   29.7360   43.7270 C   0  0  0  0  0  0  0  0  0  0  0  0
   55.4690   29.1600   44.8780 N   0  0  0  0  0  0  0  0  0  0  0  0
   55.9330   29.1800   42.6070 O   0  0  0  0  0  0  0  0  0  0  0  0
   57.1770   31.5200   45.1090 C   0  0  0  0  0  0  0  0  0  0  0  0
   59.0550   31.8580   49.1930 C   0  0  0  0  0  0  0  0  0  0  0  0
   58.0350   32.5400   49.4780 O   0  0  0  0  0  0  0  0  0  0  0  0
   59.0540   30.5310   49.4700 N   0  0  0  0  0  0  0  0  0  0  0  0
   58.8120   26.5920   46.8240 C   0  0  0  0  0  0  0  0  0  0  0  0
   58.4910   25.6500   47.7460 F   0  0  0  0  0  0  0  0  0  0  0  0
   54.5235   23.1392   45.8520 H   0  0  0  0  0  0  0  0  0  0  0  0
   54.1631   24.2533   44.4899 H   0  0  0  0  0  0  0  0  0  0  0  0
   55.6837   23.2971   44.4899 H   0  0  0  0  0  0  0  0  0  0  0  0
   57.8783   27.7388   43.7380 H   0  0  0  0  0  0  0  0  0  0  0  0
   59.5305   29.5032   44.3336 H   0  0  0  0  0  0  0  0  0  0  0  0
   60.7797   29.3752   46.4855 H   0  0  0  0  0  0  0  0  0  0  0  0
   60.4192   26.4667   48.8664 H   0  0  0  0  0  0  0  0  0  0  0  0
   61.6283   27.6348   48.2089 H   0  0  0  0  0  0  0  0  0  0  0  0
   59.5887   34.4450   48.9344 H   0  0  0  0  0  0  0  0  0  0  0  0
   61.1575   34.2147   48.0810 H   0  0  0  0  0  0  0  0  0  0  0  0
   57.7170   32.8230   47.3530 H   0  0  0  0  0  0  0  0  0  0  0  0
   59.1129   34.1776   44.1575 H   0  0  0  0  0  0  0  0  0  0  0  0
   58.5716   33.2502   41.9112 H   0  0  0  0  0  0  0  0  0  0  0  0
   57.1738   31.2003   41.7021 H   0  0  0  0  0  0  0  0  0  0  0  0
   55.5430   28.1380   45.0720 H   0  0  0  0  0  0  0  0  0  0  0  0
   56.7782   31.0345   46.0119 H   0  0  0  0  0  0  0  0  0  0  0  0
  1  2  1  0
  2  3  2  0
  2  4  2  0
  2  5  1  0
  5  6  1  0
  6  7  2  0
  7  8  1  0
  8  9  2  0
  9 10  1  0
 10 11  1  0
 11 12  1  0
 12 13  2  3
 13 14  1  0
 14 15  1  0
 15 16  2  0
 15 17  1  0
 17 18  1  0
 18 19  1  0
 19 20  2  0
 19 21  1  0
 21 22  1  0
 22 23  2  0
 23 24  1  0
 24 25  2  0
 25 26  1  0
 26 27  1  0
 27 28  1  0
 27 29  2  0
 26 30  2  0
 17 31  1  0
 31 32  2  0
 31 33  1  0
 10 34  2  0
 34 35  1  0
 34  6  1  0
 33 13  1  0
 30 22  1  0
  1 36  1  0
  1 37  1  0
  1 38  1  0
  7 39  1  0
  8 40  1  0
  9 41  1  0
 11 42  1  0
 11 43  1  0
 18 44  1  0
 18 45  1  0
 21 46  1  0
 23 47  1  0
 24 48  1  0
 25 49  1  0
 28 50  1  0
 30 51  1  0
M  CHG  4   5  -1  14  -1  28  -1  33  -1
M  END
>  <UniqueID>  (79) 
76

>  <SMILES>  (79) 
CS(=O)(=O)[N-]c1cccc(CN=c2[n-]c(=O)n(CC(=O)Nc3cccc(C([NH-])=O)c3)c(=O)[n-]2)c1F

>  <Energy>  (79) 
58.39984946715807

>  <Genealogy>  (79) 
CS(=O)(=O)[N-]c1cccc(CN=c2[n-]c(=O)n(CC(=O)Nc3cccc(C([NH-])=O)c3)c(=O)[n-]2)c1F (protonated)
CS(=O)(=O)[N-]c1cccc(CN=c2[n-]c(=O)n(CC(=O)Nc3cccc(C([NH-])=O)c3)c(=O)[n-]2)c1F (3D coordinates assigned)
CS(=O)(=O)[N-]c1cccc(CN=c2[n-]c(=O)n(CC(=O)Nc3cccc(C([NH-])=O)c3)c(=O)[n-]2)c1F (optimized conformer: 58.39984946715807 kcal/mol)

>  <smiles>  (79) 
CS(=O)(=O)Nc1cccc(CN=c2[nH]c(=O)n(CC(=O)Nc3cccc(C(N)=O)c3)c(=O)[nH]2)c1F

>  <score_type>  (79) 
oracle

>  <origin>  (79) 
adg

>  <m_score__min__energy>  (79) 
-17.420000000000002

>  <m_primary>  (79) 
energy

$$$$
79:0
     RDKit          3D

 35 37  0  0  0  0  0  0  0  0999 V2000
   58.1104   33.5126   46.0946 H   0  0  0  0  0  0  0  0  0  0  0  0
   57.6000   32.6540   45.6340 C   0  0  0  0  0  0  0  0  0  0  0  0
   56.7175   32.8155   44.9975 H   0  0  0  0  0  0  0  0  0  0  0  0
   58.0570   31.4010   45.8500 C   0  0  0  0  0  0  0  0  0  0  0  0
   57.3920   30.3040   45.2520 C   0  0  0  0  0  0  0  0  0  0  0  0
   56.3730   30.4860   44.5240 O   0  0  0  0  0  0  0  0  0  0  0  0
   57.8810   29.0030   45.4750 C   0  0  0  0  0  0  0  0  0  0  0  0
   57.2750   27.9220   44.9430 C   0  0  0  0  0  0  0  0  0  0  0  0
   56.7616   28.0366   43.9769 H   0  0  0  0  0  0  0  0  0  0  0  0
   57.2630   26.5900   45.5880 C   0  0  0  0  0  0  0  0  0  0  0  0
   58.4790   25.9090   45.7560 C   0  0  0  0  0  0  0  0  0  0  0  0
   59.4147   26.3654   45.4009 H   0  0  0  0  0  0  0  0  0  0  0  0
   58.5080   24.6560   46.3710 C   0  0  0  0  0  0  0  0  0  0  0  0
   59.4636   24.1235   46.4864 H   0  0  0  0  0  0  0  0  0  0  0  0
   57.3270   24.0770   46.8400 C   0  0  0  0  0  0  0  0  0  0  0  0
   57.3570   22.8270   47.4480 O   0  0  0  0  0  0  0  0  0  0  0  0
   56.1140   24.7580   46.7040 C   0  0  0  0  0  0  0  0  0  0  0  0
   55.1850   24.3027   47.0778 H   0  0  0  0  0  0  0  0  0  0  0  0
   56.0770   26.0170   46.0940 C   0  0  0  0  0  0  0  0  0  0  0  0
   54.8660   26.6980   46.0200 O   0  0  0  0  0  0  0  0  0  0  0  0
   58.9700   28.8420   46.2690 N   0  0  0  0  0  0  0  0  0  0  0  0
   59.6080   29.8880   46.8430 C   0  0  0  0  0  0  0  0  0  0  0  0
   60.6170   29.6630   47.5660 O   0  0  0  0  0  0  0  0  0  0  0  0
   59.1620   31.1680   46.6430 N   0  0  0  0  0  0  0  0  0  0  0  0
   59.8790   32.2460   47.2810 C   0  0  0  0  0  0  0  0  0  0  0  0
   61.1070   32.6770   46.7580 C   0  0  0  0  0  0  0  0  0  0  0  0
   61.5231   32.1935   45.8618 H   0  0  0  0  0  0  0  0  0  0  0  0
   61.8030   33.7220   47.3760 C   0  0  0  0  0  0  0  0  0  0  0  0
   62.7660   34.0592   46.9650 H   0  0  0  0  0  0  0  0  0  0  0  0
   61.2760   34.3380   48.5150 C   0  0  0  0  0  0  0  0  0  0  0  0
   61.8236   35.1602   48.9988 H   0  0  0  0  0  0  0  0  0  0  0  0
   60.0530   33.9090   49.0390 C   0  0  0  0  0  0  0  0  0  0  0  0
   59.6398   34.3940   49.9357 H   0  0  0  0  0  0  0  0  0  0  0  0
   59.3540   32.8650   48.4260 C   0  0  0  0  0  0  0  0  0  0  0  0
   58.1680   32.4550   48.9420 F   0  0  0  0  0  0  0  0  0  0  0  0
  1  2  1  0
  2  3  1  0
  2  4  2  0
  4  5  1  0
  5  6  2  0
  5  7  1  0
  7  8  2  0
  8  9  1  0
  8 10  1  0
 10 11  2  0
 11 12  1  0
 11 13  1  0
 13 14  1  0
 13 15  2  0
 15 16  1  0
 15 17  1  0
 17 18  1  0
 17 19  2  0
 19 20  1  0
  7 21  1  0
 21 22  1  0
 22 23  2  0
 22 24  1  0
 24 25  1  0
 25 26  2  0
 26 27  1  0
 26 28  1  0
 28 29  1  0
 28 30  2  0
 30 31  1  0
 30 32  1  0
 32 33  1  0
 32 34  2  0
 34 35  1  0
 24  4  1  0
 34 25  1  0
 19 10  1  0
M  CHG  3  16  -1  20  -1  21  -1
M  END
>  <UniqueID>  (80) 
77

>  <SMILES>  (80) 
C=c1c(=O)/c(=C/c2ccc([O-])cc2[O-])[n-]c(=O)n1-c1ccccc1F

>  <Energy>  (80) 
63.685220997261425

>  <Genealogy>  (80) 
C=c1c(=O)c(=Cc2ccc([O-])cc2[O-])[n-]c(=O)n1-c1ccccc1F (protonated)
C=c1c(=O)/c(=C/c2ccc([O-])cc2[O-])[n-]c(=O)n1-c1ccccc1F (cis-trans isomerization)
C=c1c(=O)/c(=C/c2ccc([O-])cc2[O-])[n-]c(=O)n1-c1ccccc1F (3D coordinates assigned)
C=c1c(=O)/c(=C/c2ccc([O-])cc2[O-])[n-]c(=O)n1-c1ccccc1F (optimized conformer: 63.685220997261425 kcal/mol)

>  <smiles>  (80) 
C=c1c(=O)c(=Cc2ccc(O)cc2O)[nH]c(=O)n1-c1ccccc1F

>  <score_type>  (80) 
oracle

>  <origin>  (80) 
adg

>  <m_score__min__energy>  (80) 
-15.289999999999999

>  <m_primary>  (80) 
energy

$$$$
80:0
     RDKit          3D

 48 51  0  0  0  0  0  0  0  0999 V2000
   58.1190   28.6400   52.5780 O   0  0  0  0  0  0  0  0  0  0  0  0
   57.9660   29.8410   52.2320 C   0  0  0  0  0  0  0  0  0  0  0  0
   57.2230   30.7190   53.0900 N   0  0  0  0  0  0  0  0  0  0  0  0
   55.9420   31.3420   52.7620 C   0  0  0  0  0  0  0  0  0  0  0  0
   54.8920   30.2650   52.4870 C   0  0  0  0  0  0  0  0  0  0  0  0
   53.5400   30.6920   53.0000 C   0  0  0  0  0  0  0  0  0  0  0  0
   53.1910   30.4780   54.3510 C   0  0  0  0  0  0  0  0  0  0  0  0
   51.9410   30.9020   54.8490 C   0  0  0  0  0  0  0  0  0  0  0  0
   51.0200   31.5470   54.0080 C   0  0  0  0  0  0  0  0  0  0  0  0
   51.3800   31.7560   52.6790 C   0  0  0  0  0  0  0  0  0  0  0  0
   50.6280   32.3480   51.7340 N   0  0  0  0  0  0  0  0  0  0  0  0
   51.4080   32.3130   50.6300 C   0  0  0  0  0  0  0  0  0  0  0  0
   51.0100   32.8320   49.4060 O   0  0  0  0  0  0  0  0  0  0  0  0
   52.6340   31.7100   50.8600 C   0  0  0  0  0  0  0  0  0  0  0  0
   52.6000   31.3510   52.1900 C   0  0  0  0  0  0  0  0  0  0  0  0
   58.5590   30.3040   50.9620 C   0  0  0  0  0  0  0  0  0  0  0  0
   58.4170   31.6410   50.5590 C   0  0  0  0  0  0  0  0  0  0  0  0
   58.9160   32.0620   49.3220 C   0  0  0  0  0  0  0  0  0  0  0  0
   59.5570   31.1490   48.4690 C   0  0  0  0  0  0  0  0  0  0  0  0
   59.9990   31.5710   47.1230 C   0  0  0  0  0  0  0  0  0  0  0  0
   60.5050   32.7140   46.9680 O   0  0  0  0  0  0  0  0  0  0  0  0
   59.8990   30.6980   45.9880 N   0  0  0  0  0  0  0  0  0  0  0  0
   58.7110   30.4280   45.2260 C   0  0  0  0  0  0  0  0  0  0  0  0
   58.1070   29.1550   45.2290 C   0  0  0  0  0  0  0  0  0  0  0  0
   56.9400   28.9260   44.4970 C   0  0  0  0  0  0  0  0  0  0  0  0
   56.3490   29.9670   43.7790 C   0  0  0  0  0  0  0  0  0  0  0  0
   56.9280   31.2390   43.7870 C   0  0  0  0  0  0  0  0  0  0  0  0
   58.1070   31.4730   44.5100 C   0  0  0  0  0  0  0  0  0  0  0  0
   58.6850   32.7420   44.5160 O   0  0  0  0  0  0  0  0  0  0  0  0
   59.7570   29.8290   48.9040 C   0  0  0  0  0  0  0  0  0  0  0  0
   59.2730   29.4150   50.1460 C   0  0  0  0  0  0  0  0  0  0  0  0
   55.6127   31.9645   53.6070 H   0  0  0  0  0  0  0  0  0  0  0  0
   56.0632   31.9658   51.8641 H   0  0  0  0  0  0  0  0  0  0  0  0
   54.8281   30.0922   51.4025 H   0  0  0  0  0  0  0  0  0  0  0  0
   55.1901   29.3415   53.0050 H   0  0  0  0  0  0  0  0  0  0  0  0
   53.9018   29.9749   55.0231 H   0  0  0  0  0  0  0  0  0  0  0  0
   51.6859   30.7259   55.9044 H   0  0  0  0  0  0  0  0  0  0  0  0
   50.0421   31.8777   54.3880 H   0  0  0  0  0  0  0  0  0  0  0  0
   53.4519   31.5529   50.1414 H   0  0  0  0  0  0  0  0  0  0  0  0
   57.9110   32.3610   51.2190 H   0  0  0  0  0  0  0  0  0  0  0  0
   58.8059   33.1128   49.0160 H   0  0  0  0  0  0  0  0  0  0  0  0
   58.5571   28.3373   45.8110 H   0  0  0  0  0  0  0  0  0  0  0  0
   56.4860   27.9241   44.4862 H   0  0  0  0  0  0  0  0  0  0  0  0
   55.4272   29.7861   43.2067 H   0  0  0  0  0  0  0  0  0  0  0  0
   56.4577   32.0591   43.2246 H   0  0  0  0  0  0  0  0  0  0  0  0
   59.4960   32.9520   45.0840 H   0  0  0  0  0  0  0  0  0  0  0  0
   60.2979   29.1175   48.2627 H   0  0  0  0  0  0  0  0  0  0  0  0
   59.4529   28.3847   50.4868 H   0  0  0  0  0  0  0  0  0  0  0  0
  1  2  2  0
  2  3  1  0
  3  4  1  0
  4  5  1  0
  5  6  1  0
  6  7  2  0
  7  8  1  0
  8  9  2  0
  9 10  1  0
 10 11  1  0
 11 12  1  0
 12 13  1  0
 12 14  2  0
 14 15  1  0
  2 16  1  0
 16 17  2  0
 17 18  1  0
 18 19  2  0
 19 20  1  0
 20 21  2  0
 20 22  1  0
 22 23  1  0
 23 24  2  0
 24 25  1  0
 25 26  2  0
 26 27  1  0
 27 28  2  0
 28 29  1  0
 19 30  1  0
 30 31  2  0
 15  6  1  0
 31 16  1  0
 15 10  2  0
 28 23  1  0
  4 32  1  0
  4 33  1  0
  5 34  1  0
  5 35  1  0
  7 36  1  0
  8 37  1  0
  9 38  1  0
 14 39  1  0
 17 40  1  0
 18 41  1  0
 24 42  1  0
 25 43  1  0
 26 44  1  0
 27 45  1  0
 29 46  1  0
 30 47  1  0
 31 48  1  0
M  CHG  4   3  -1  11  -1  13  -1  22  -1
M  END
>  <UniqueID>  (81) 
78

>  <SMILES>  (81) 
O=C([N-]CCc1cccc2[n-]c([O-])cc12)c1ccc(C(=O)[N-]c2ccccc2O)cc1

>  <Energy>  (81) 
90.6525125246623

>  <Genealogy>  (81) 
O=C([N-]CCc1cccc2[n-]c([O-])cc12)c1ccc(C(=O)[N-]c2ccccc2O)cc1 (protonated)
O=C([N-]CCc1cccc2[n-]c([O-])cc12)c1ccc(C(=O)[N-]c2ccccc2O)cc1 (3D coordinates assigned)
O=C([N-]CCc1cccc2[n-]c([O-])cc12)c1ccc(C(=O)[N-]c2ccccc2O)cc1 (optimized conformer: 90.6525125246623 kcal/mol)

>  <smiles>  (81) 
O=C(NCCc1cccc2[nH]c(O)cc12)c1ccc(C(=O)Nc2ccccc2O)cc1

>  <score_type>  (81) 
oracle

>  <origin>  (81) 
adg

>  <m_score__min__energy>  (81) 
-18.190000000000001

>  <m_primary>  (81) 
energy

$$$$
81:0
     RDKit          3D

 46 48  0  0  0  0  0  0  0  0999 V2000
   52.3374   27.6430   52.9159 H   0  0  0  0  0  0  0  0  0  0  0  0
   52.9710   28.5270   52.7510 C   0  0  0  0  0  0  0  0  0  0  0  0
   54.2620   28.3940   52.7150 N   0  0  0  0  0  0  0  0  0  0  0  0
   55.1040   28.3830   53.8740 C   0  0  0  0  0  0  0  0  0  0  0  0
   55.0680   27.4230   54.6920 O   0  0  0  0  0  0  0  0  0  0  0  0
   56.0220   29.5390   54.1280 C   0  0  0  0  0  0  0  0  0  0  0  0
   56.5844   29.3590   55.0561 H   0  0  0  0  0  0  0  0  0  0  0  0
   55.4241   30.4575   54.2226 H   0  0  0  0  0  0  0  0  0  0  0  0
   56.9690   29.6950   53.0070 N   0  0  0  0  0  0  0  0  0  0  0  0
   56.6230   30.4080   51.8880 C   0  0  0  0  0  0  0  0  0  0  0  0
   55.4960   30.9670   51.8000 O   0  0  0  0  0  0  0  0  0  0  0  0
   57.4900   30.5150   50.8520 N   0  0  0  0  0  0  0  0  0  0  0  0
   58.7100   29.9220   50.9050 C   0  0  0  0  0  0  0  0  0  0  0  0
   59.5430   29.9970   49.9080 N   0  0  0  0  0  0  0  0  0  0  0  0
   59.2190   29.9740   48.5080 C   0  0  0  0  0  0  0  0  0  0  0  0
   59.1870   31.1840   47.8060 C   0  0  0  0  0  0  0  0  0  0  0  0
   59.4324   32.1220   48.3256 H   0  0  0  0  0  0  0  0  0  0  0  0
   58.8460   31.2120   46.4500 C   0  0  0  0  0  0  0  0  0  0  0  0
   58.8509   32.1670   45.9042 H   0  0  0  0  0  0  0  0  0  0  0  0
   58.4970   30.0260   45.7810 C   0  0  0  0  0  0  0  0  0  0  0  0
   58.1650   30.0200   44.3820 N   0  0  0  0  0  0  0  0  0  0  0  0
   58.9190   29.7830   43.6990 H   0  0  0  0  0  0  0  0  0  0  0  0
   56.8360   30.2070   43.8680 C   0  0  0  0  0  0  0  0  0  0  0  0
   55.8360   30.1430   44.6320 O   0  0  0  0  0  0  0  0  0  0  0  0
   56.6260   30.3790   42.3990 C   0  0  0  0  0  0  0  0  0  0  0  0
   55.7855   31.0674   42.2269 H   0  0  0  0  0  0  0  0  0  0  0  0
   57.5380   30.7929   41.9442 H   0  0  0  0  0  0  0  0  0  0  0  0
   56.3998   29.4033   41.9442 H   0  0  0  0  0  0  0  0  0  0  0  0
   58.5200   28.8140   46.4870 C   0  0  0  0  0  0  0  0  0  0  0  0
   58.2683   27.8766   45.9693 H   0  0  0  0  0  0  0  0  0  0  0  0
   58.8600   28.7870   47.8430 C   0  0  0  0  0  0  0  0  0  0  0  0
   58.8468   27.8340   48.3922 H   0  0  0  0  0  0  0  0  0  0  0  0
   59.0470   29.1950   51.9950 N   0  0  0  0  0  0  0  0  0  0  0  0
   58.1920   29.0750   53.0410 C   0  0  0  0  0  0  0  0  0  0  0  0
   58.5360   28.3830   54.0360 O   0  0  0  0  0  0  0  0  0  0  0  0
   52.3440   29.8520   52.5730 C   0  0  0  0  0  0  0  0  0  0  0  0
   52.4480   30.5030   51.3330 C   0  0  0  0  0  0  0  0  0  0  0  0
   52.9908   30.0214   50.5063 H   0  0  0  0  0  0  0  0  0  0  0  0
   51.8650   31.7610   51.1430 C   0  0  0  0  0  0  0  0  0  0  0  0
   51.9488   32.2636   50.1681 H   0  0  0  0  0  0  0  0  0  0  0  0
   51.1760   32.3800   52.1910 C   0  0  0  0  0  0  0  0  0  0  0  0
   50.5990   33.6290   52.0010 O   0  0  0  0  0  0  0  0  0  0  0  0
   51.0680   31.7410   53.4290 C   0  0  0  0  0  0  0  0  0  0  0  0
   50.5252   32.2279   54.2526 H   0  0  0  0  0  0  0  0  0  0  0  0
   51.6490   30.4830   53.6230 C   0  0  0  0  0  0  0  0  0  0  0  0
   51.5626   29.9847   54.5998 H   0  0  0  0  0  0  0  0  0  0  0  0
  1  2  1  0
  2  3  2  0
  3  4  1  0
  4  5  2  0
  4  6  1  0
  6  7  1  0
  6  8  1  0
  6  9  1  0
  9 10  1  0
 10 11  2  0
 10 12  1  0
 12 13  1  0
 13 14  2  3
 14 15  1  0
 15 16  2  0
 16 17  1  0
 16 18  1  0
 18 19  1  0
 18 20  2  0
 20 21  1  0
 21 22  1  0
 21 23  1  0
 23 24  2  0
 23 25  1  0
 25 26  1  0
 25 27  1  0
 25 28  1  0
 20 29  1  0
 29 30  1  0
 29 31  2  0
 31 32  1  0
 13 33  1  0
 33 34  1  0
 34 35  2  0
  2 36  1  0
 36 37  2  0
 37 38  1  0
 37 39  1  0
 39 40  1  0
 39 41  2  0
 41 42  1  0
 41 43  1  0
 43 44  1  0
 43 45  2  0
 45 46  1  0
 34  9  1  0
 45 36  1  0
 31 15  1  0
M  CHG  3  12  -1  33  -1  42  -1
M  END
>  <UniqueID>  (82) 
79

>  <SMILES>  (82) 
CC(=O)Nc1ccc(N=c2[n-]c(=O)n(CC(=O)/N=C/c3ccc([O-])cc3)c(=O)[n-]2)cc1

>  <Energy>  (82) 
58.79781297332035

>  <Genealogy>  (82) 
CC(=O)Nc1ccc(N=c2[n-]c(=O)n(CC(=O)N=Cc3ccc([O-])cc3)c(=O)[n-]2)cc1 (protonated)
CC(=O)Nc1ccc(N=c2[n-]c(=O)n(CC(=O)/N=C/c3ccc([O-])cc3)c(=O)[n-]2)cc1 (cis-trans isomerization)
CC(=O)Nc1ccc(N=c2[n-]c(=O)n(CC(=O)/N=C/c3ccc([O-])cc3)c(=O)[n-]2)cc1 (3D coordinates assigned)
CC(=O)Nc1ccc(N=c2[n-]c(=O)n(CC(=O)/N=C/c3ccc([O-])cc3)c(=O)[n-]2)cc1 (optimized conformer: 58.79781297332035 kcal/mol)

>  <smiles>  (82) 
CC(=O)Nc1ccc(N=c2[nH]c(=O)n(CC(=O)N=Cc3ccc(O)cc3)c(=O)[nH]2)cc1

>  <score_type>  (82) 
oracle

>  <origin>  (82) 
adg

>  <m_score__min__energy>  (82) 
-14.27

>  <m_primary>  (82) 
energy

$$$$
82:0
     RDKit          3D

 25 26  0  0  0  0  0  0  0  0999 V2000
   54.7920   26.3100   45.9830 O   0  0  0  0  0  0  0  0  0  0  0  0
   55.8500   25.6570   45.7800 C   0  0  0  0  0  0  0  0  0  0  0  0
   57.0850   26.3680   45.2840 C   0  0  0  0  0  0  0  0  0  0  0  0
   57.3950   27.6600   46.0540 C   0  0  0  0  0  0  0  0  0  0  0  0
   56.8400   28.8650   45.3530 C   0  0  0  0  0  0  0  0  0  0  0  0
   57.4910   30.0560   45.1440 C   0  0  0  0  0  0  0  0  0  0  0  0
   56.6560   30.9050   44.5220 N   0  0  0  0  0  0  0  0  0  0  0  0
   55.5150   30.1980   44.3770 C   0  0  0  0  0  0  0  0  0  0  0  0
   55.5850   28.9460   44.8770 N   0  0  0  0  0  0  0  0  0  0  0  0
   55.8470   24.2510   46.0590 N   0  0  0  0  0  0  0  0  0  0  0  0
   56.4020   23.2200   45.2350 C   0  0  0  0  0  0  0  0  0  0  0  0
   57.7560   23.0550   45.0210 C   0  0  0  0  0  0  0  0  0  0  0  0
   57.8730   22.0040   44.1390 C   0  0  0  0  0  0  0  0  0  0  0  0
   56.5850   21.6020   43.8620 C   0  0  0  0  0  0  0  0  0  0  0  0
   56.2520   20.5600   43.0040 O   0  0  0  0  0  0  0  0  0  0  0  0
   55.6710   22.3410   44.5200 N   0  0  0  0  0  0  0  0  0  0  0  0
   57.9433   25.6875   45.3847 H   0  0  0  0  0  0  0  0  0  0  0  0
   56.8991   26.6503   44.2372 H   0  0  0  0  0  0  0  0  0  0  0  0
   56.9494   27.5936   47.0575 H   0  0  0  0  0  0  0  0  0  0  0  0
   58.4876   27.7703   46.1170 H   0  0  0  0  0  0  0  0  0  0  0  0
   58.5274   30.2786   45.4380 H   0  0  0  0  0  0  0  0  0  0  0  0
   54.6127   30.6041   43.8964 H   0  0  0  0  0  0  0  0  0  0  0  0
   58.5735   23.6426   45.4642 H   0  0  0  0  0  0  0  0  0  0  0  0
   58.8030   21.5742   43.7384 H   0  0  0  0  0  0  0  0  0  0  0  0
   56.7630   19.6860   43.0320 H   0  0  0  0  0  0  0  0  0  0  0  0
  1  2  2  0
  2  3  1  0
  3  4  1  0
  4  5  1  0
  5  6  2  0
  6  7  1  0
  7  8  1  0
  8  9  2  0
  2 10  1  0
 10 11  1  0
 11 12  2  0
 12 13  1  0
 13 14  2  0
 14 15  1  0
 14 16  1  0
  9  5  1  0
 16 11  1  0
  3 17  1  0
  3 18  1  0
  4 19  1  0
  4 20  1  0
  6 21  1  0
  8 22  1  0
 12 23  1  0
 13 24  1  0
 15 25  1  0
M  CHG  3   7  -1  10  -1  16  -1
M  END
>  <UniqueID>  (83) 
80

>  <SMILES>  (83) 
O=C(CCc1c[n-]cn1)[N-]c1ccc(O)[n-]1

>  <Energy>  (83) 
76.47581124108522

>  <Genealogy>  (83) 
O=C(CCc1c[n-]cn1)[N-]c1ccc(O)[n-]1 (protonated)
O=C(CCc1c[n-]cn1)[N-]c1ccc(O)[n-]1 (3D coordinates assigned)
O=C(CCc1c[n-]cn1)[N-]c1ccc(O)[n-]1 (optimized conformer: 76.47581124108522 kcal/mol)

>  <smiles>  (83) 
O=C(CCc1c[nH]cn1)Nc1ccc(O)[nH]1

>  <score_type>  (83) 
oracle

>  <origin>  (83) 
adg

>  <m_score__min__energy>  (83) 
-11.359999999999999

>  <m_primary>  (83) 
energy

$$$$
83:0
     RDKit          3D

 37 39  0  0  0  0  0  0  0  0999 V2000
   62.9170   32.3920   48.1310 C   0  0  0  0  0  0  0  0  0  0  0  0
   61.7950   31.4100   48.1250 C   0  0  0  0  0  0  0  0  0  0  0  0
   61.2670   30.7760   49.2430 C   0  0  0  0  0  0  0  0  0  0  0  0
   60.2740   29.8390   48.9280 C   0  0  0  0  0  0  0  0  0  0  0  0
   60.0320   29.7230   47.5610 C   0  0  0  0  0  0  0  0  0  0  0  0
   59.0510   28.8110   46.9400 C   0  0  0  0  0  0  0  0  0  0  0  0
   59.2370   27.4220   46.9470 C   0  0  0  0  0  0  0  0  0  0  0  0
   58.2720   26.6160   46.3470 C   0  0  0  0  0  0  0  0  0  0  0  0
   57.1810   27.1800   45.7690 N   0  0  0  0  0  0  0  0  0  0  0  0
   57.0090   28.5290   45.7570 C   0  0  0  0  0  0  0  0  0  0  0  0
   55.9580   29.0790   45.2210 N   0  0  0  0  0  0  0  0  0  0  0  0
   55.8900   29.9290   44.0620 C   0  0  0  0  0  0  0  0  0  0  0  0
   54.9790   29.7170   43.2190 O   0  0  0  0  0  0  0  0  0  0  0  0
   56.8610   31.0580   43.8270 C   0  0  0  0  0  0  0  0  0  0  0  0
   57.3360   31.6180   45.0930 N   0  0  0  0  0  0  0  0  0  0  0  0
   58.1450   32.8030   45.1480 C   0  0  0  0  0  0  0  0  0  0  0  0
   58.4520   33.4040   44.0830 O   0  0  0  0  0  0  0  0  0  0  0  0
   58.6330   33.3400   46.4300 C   0  0  0  0  0  0  0  0  0  0  0  0
   59.3430   34.5110   46.6270 C   0  0  0  0  0  0  0  0  0  0  0  0
   59.5690   34.5860   47.9840 C   0  0  0  0  0  0  0  0  0  0  0  0
   58.9870   33.4620   48.5330 C   0  0  0  0  0  0  0  0  0  0  0  0
   58.4370   32.7420   47.5840 O   0  0  0  0  0  0  0  0  0  0  0  0
   57.9390   29.3260   46.3460 N   0  0  0  0  0  0  0  0  0  0  0  0
   61.0600   30.7860   46.7480 S   0  0  0  0  0  0  0  0  0  0  0  0
   63.1898   32.6307   49.1696 H   0  0  0  0  0  0  0  0  0  0  0  0
   63.7860   31.9590   47.6139 H   0  0  0  0  0  0  0  0  0  0  0  0
   62.6030   33.3107   47.6139 H   0  0  0  0  0  0  0  0  0  0  0  0
   61.5953   30.9882   50.2712 H   0  0  0  0  0  0  0  0  0  0  0  0
   59.7371   29.2514   49.6872 H   0  0  0  0  0  0  0  0  0  0  0  0
   60.1267   26.9772   47.4166 H   0  0  0  0  0  0  0  0  0  0  0  0
   58.3942   25.5228   46.3417 H   0  0  0  0  0  0  0  0  0  0  0  0
   57.7218   30.6785   43.2569 H   0  0  0  0  0  0  0  0  0  0  0  0
   56.3447   31.8513   43.2665 H   0  0  0  0  0  0  0  0  0  0  0  0
   57.0440   31.1420   45.9750 H   0  0  0  0  0  0  0  0  0  0  0  0
   59.6610   35.2322   45.8597 H   0  0  0  0  0  0  0  0  0  0  0  0
   60.1055   35.3818   48.5215 H   0  0  0  0  0  0  0  0  0  0  0  0
   58.9845   33.2081   49.6033 H   0  0  0  0  0  0  0  0  0  0  0  0
  1  2  1  0
  2  3  2  0
  3  4  1  0
  4  5  2  0
  5  6  1  0
  6  7  1  0
  7  8  2  0
  8  9  1  0
  9 10  1  0
 10 11  2  3
 11 12  1  0
 12 13  2  0
 12 14  1  0
 14 15  1  0
 15 16  1  0
 16 17  2  0
 16 18  1  0
 18 19  2  0
 19 20  1  0
 20 21  2  0
 21 22  1  0
 10 23  1  0
  5 24  1  0
 24  2  1  0
 23  6  2  0
 22 18  1  0
  1 25  1  0
  1 26  1  0
  1 27  1  0
  3 28  1  0
  4 29  1  0
  7 30  1  0
  8 31  1  0
 14 32  1  0
 14 33  1  0
 15 34  1  0
 19 35  1  0
 20 36  1  0
 21 37  1  0
M  CHG  1   9  -1
M  END
>  <UniqueID>  (84) 
81

>  <SMILES>  (84) 
Cc1ccc(-c2cc[n-]c(=NC(=O)CNC(=O)c3ccco3)n2)s1

>  <Energy>  (84) 
93.43933671621001

>  <Genealogy>  (84) 
Cc1ccc(-c2cc[n-]c(=NC(=O)CNC(=O)c3ccco3)n2)s1 (protonated)
Cc1ccc(-c2cc[n-]c(=NC(=O)CNC(=O)c3ccco3)n2)s1 (3D coordinates assigned)
Cc1ccc(-c2cc[n-]c(=NC(=O)CNC(=O)c3ccco3)n2)s1 (optimized conformer: 93.43933671621001 kcal/mol)

>  <smiles>  (84) 
Cc1ccc(-c2cc[nH]c(=NC(=O)CNC(=O)c3ccco3)n2)s1

>  <score_type>  (84) 
oracle

>  <origin>  (84) 
adg

>  <m_score__min__energy>  (84) 
-8.9199999999999999

>  <m_primary>  (84) 
energy

$$$$
84:0
     RDKit          3D

 40 42  0  0  0  0  0  0  0  0999 V2000
   57.4750   32.3480   41.0930 C   0  0  0  0  0  0  0  0  0  0  0  0
   57.8110   32.0940   42.5190 C   0  0  0  0  0  0  0  0  0  0  0  0
   58.2100   33.0490   43.3530 N   0  0  0  0  0  0  0  0  0  0  0  0
   58.5220   32.8540   44.6570 C   0  0  0  0  0  0  0  0  0  0  0  0
   58.8830   33.8430   45.3050 O   0  0  0  0  0  0  0  0  0  0  0  0
   58.4210   31.5740   45.1680 C   0  0  0  0  0  0  0  0  0  0  0  0
   58.7460   31.3280   46.4870 C   0  0  0  0  0  0  0  0  0  0  0  0
   59.0710   32.3520   47.4520 C   0  0  0  0  0  0  0  0  0  0  0  0
   58.1720   32.9870   48.1260 O   0  0  0  0  0  0  0  0  0  0  0  0
   60.4300   32.7930   47.7750 C   0  0  0  0  0  0  0  0  0  0  0  0
   61.5250   32.0960   47.2600 C   0  0  0  0  0  0  0  0  0  0  0  0
   62.8240   32.4490   47.5260 C   0  0  0  0  0  0  0  0  0  0  0  0
   63.0250   33.5430   48.3410 C   0  0  0  0  0  0  0  0  0  0  0  0
   61.9720   34.2690   48.8780 C   0  0  0  0  0  0  0  0  0  0  0  0
   60.6610   33.8990   48.5990 C   0  0  0  0  0  0  0  0  0  0  0  0
   59.6170   34.5920   49.1100 F   0  0  0  0  0  0  0  0  0  0  0  0
   58.6310   29.9870   46.8890 C   0  0  0  0  0  0  0  0  0  0  0  0
   58.8890   29.5340   48.2580 C   0  0  0  0  0  0  0  0  0  0  0  0
   58.2130   29.0120   45.9810 C   0  0  0  0  0  0  0  0  0  0  0  0
   58.0800   27.5810   46.3510 C   0  0  0  0  0  0  0  0  0  0  0  0
   56.7100   27.0670   46.1290 C   0  0  0  0  0  0  0  0  0  0  0  0
   56.2720   26.0180   46.7130 O   0  0  0  0  0  0  0  0  0  0  0  0
   55.8670   27.7410   45.2590 O   0  0  0  0  0  0  0  0  0  0  0  0
   57.9140   29.3480   44.7110 N   0  0  0  0  0  0  0  0  0  0  0  0
   58.0060   30.6070   44.2770 C   0  0  0  0  0  0  0  0  0  0  0  0
   57.7070   30.8460   42.9930 N   0  0  0  0  0  0  0  0  0  0  0  0
   56.5987   33.0104   41.0351 H   0  0  0  0  0  0  0  0  0  0  0  0
   58.3305   32.8272   40.5945 H   0  0  0  0  0  0  0  0  0  0  0  0
   57.2472   31.3943   40.5945 H   0  0  0  0  0  0  0  0  0  0  0  0
   61.3381   31.2262   46.6130 H   0  0  0  0  0  0  0  0  0  0  0  0
   63.6692   31.8833   47.1069 H   0  0  0  0  0  0  0  0  0  0  0  0
   64.0553   33.8504   48.5732 H   0  0  0  0  0  0  0  0  0  0  0  0
   62.1739   35.1363   49.5237 H   0  0  0  0  0  0  0  0  0  0  0  0
   58.4739   30.2628   48.9697 H   0  0  0  0  0  0  0  0  0  0  0  0
   58.4130   28.5550   48.4161 H   0  0  0  0  0  0  0  0  0  0  0  0
   59.9738   29.4440   48.4161 H   0  0  0  0  0  0  0  0  0  0  0  0
   58.7816   26.9918   45.7422 H   0  0  0  0  0  0  0  0  0  0  0  0
   58.3033   27.4894   47.4242 H   0  0  0  0  0  0  0  0  0  0  0  0
   56.2000   28.0740   44.3400 H   0  0  0  0  0  0  0  0  0  0  0  0
   57.3970   30.1010   42.3480 H   0  0  0  0  0  0  0  0  0  0  0  0
  1  2  1  0
  2  3  2  0
  3  4  1  0
  4  5  2  0
  4  6  1  0
  6  7  2  0
  7  8  1  0
  8  9  2  0
  8 10  1  0
 10 11  2  0
 11 12  1  0
 12 13  2  0
 13 14  1  0
 14 15  2  0
 15 16  1  0
  7 17  1  0
 17 18  1  0
 17 19  2  0
 19 20  1  0
 20 21  1  0
 21 22  2  0
 21 23  1  0
 19 24  1  0
 24 25  2  0
 25 26  1  0
 26  2  1  0
 25  6  1  0
 15 10  1  0
  1 27  1  0
  1 28  1  0
  1 29  1  0
 11 30  1  0
 12 31  1  0
 13 32  1  0
 14 33  1  0
 18 34  1  0
 18 35  1  0
 18 36  1  0
 20 37  1  0
 20 38  1  0
 23 39  1  0
 26 40  1  0
M  END
>  <smiles>  (85) 
Cc1nc(=O)c2c(C(=O)c3ccccc3F)c(C)c(CC(=O)O)nc2[nH]1

>  <score_type>  (85) 
oracle

>  <origin>  (85) 
adg

>  <m_score__min__energy>  (85) 
-8.3499999999999996

>  <m_primary>  (85) 
energy

$$$$
85:0
     RDKit          3D

 40 43  0  0  0  0  0  0  0  0999 V2000
   54.5840   28.5750   44.4980 H   0  0  0  0  0  0  0  0  0  0  0  0
   55.4340   29.0850   44.7070 O   0  0  0  0  0  0  0  0  0  0  0  0
   56.4400   28.5350   45.5040 C   0  0  0  0  0  0  0  0  0  0  0  0
   57.6010   29.2680   45.7890 C   0  0  0  0  0  0  0  0  0  0  0  0
   57.7188   30.2835   45.3829 H   0  0  0  0  0  0  0  0  0  0  0  0
   58.6170   28.7140   46.5910 C   0  0  0  0  0  0  0  0  0  0  0  0
   59.8480   29.4760   46.8930 C   0  0  0  0  0  0  0  0  0  0  0  0
   60.7650   29.8210   45.9560 N   0  0  0  0  0  0  0  0  0  0  0  0
   61.7990   30.5050   46.4430 N   0  0  0  0  0  0  0  0  0  0  0  0
   61.7120   30.7130   47.7760 C   0  0  0  0  0  0  0  0  0  0  0  0
   62.5950   31.3530   48.4810 N   0  0  0  0  0  0  0  0  0  0  0  0
   63.0040   32.7170   48.2870 C   0  0  0  0  0  0  0  0  0  0  0  0
   63.9650   33.0090   47.5250 O   0  0  0  0  0  0  0  0  0  0  0  0
   62.2580   33.8100   48.9830 C   0  0  0  0  0  0  0  0  0  0  0  0
   62.5372   33.8211   50.0469 H   0  0  0  0  0  0  0  0  0  0  0  0
   62.5148   34.7738   48.5192 H   0  0  0  0  0  0  0  0  0  0  0  0
   60.8180   33.5890   48.8630 N   0  0  0  0  0  0  0  0  0  0  0  0
   60.0520   33.6920   47.6730 C   0  0  0  0  0  0  0  0  0  0  0  0
   60.4630   34.2090   46.4400 C   0  0  0  0  0  0  0  0  0  0  0  0
   61.4813   34.6025   46.3048 H   0  0  0  0  0  0  0  0  0  0  0  0
   59.5430   34.2130   45.3790 C   0  0  0  0  0  0  0  0  0  0  0  0
   59.8389   34.6166   44.3994 H   0  0  0  0  0  0  0  0  0  0  0  0
   58.2440   33.7030   45.5630 C   0  0  0  0  0  0  0  0  0  0  0  0
   57.5290   33.7080   44.7271 H   0  0  0  0  0  0  0  0  0  0  0  0
   57.8590   33.1880   46.8110 C   0  0  0  0  0  0  0  0  0  0  0  0
   56.8464   32.7870   46.9655 H   0  0  0  0  0  0  0  0  0  0  0  0
   58.7900   33.1960   47.8520 C   0  0  0  0  0  0  0  0  0  0  0  0
   58.6130   32.7030   49.2460 C   0  0  0  0  0  0  0  0  0  0  0  0
   58.3367   31.6383   49.2550 H   0  0  0  0  0  0  0  0  0  0  0  0
   57.8088   33.2233   49.7870 H   0  0  0  0  0  0  0  0  0  0  0  0
   60.0080   32.9190   49.8820 C   0  0  0  0  0  0  0  0  0  0  0  0
   60.4580   31.9526   50.1531 H   0  0  0  0  0  0  0  0  0  0  0  0
   59.9424   33.5183   50.8021 H   0  0  0  0  0  0  0  0  0  0  0  0
   60.3140   30.0400   48.4200 S   0  0  0  0  0  0  0  0  0  0  0  0
   58.4460   27.4150   47.1060 C   0  0  0  0  0  0  0  0  0  0  0  0
   59.2294   26.9703   47.7374 H   0  0  0  0  0  0  0  0  0  0  0  0
   57.2890   26.6870   46.8210 C   0  0  0  0  0  0  0  0  0  0  0  0
   57.1660   25.6721   47.2270 H   0  0  0  0  0  0  0  0  0  0  0  0
   56.2860   27.2440   46.0210 C   0  0  0  0  0  0  0  0  0  0  0  0
   55.1380   26.5110   45.7420 O   0  0  0  0  0  0  0  0  0  0  0  0
  1  2  1  0
  2  3  1  0
  3  4  2  0
  4  5  1  0
  4  6  1  0
  6  7  1  0
  7  8  2  0
  8  9  1  0
  9 10  1  0
 10 11  2  0
 11 12  1  0
 12 13  2  0
 12 14  1  0
 14 15  1  0
 14 16  1  0
 14 17  1  0
 17 18  1  0
 18 19  2  0
 19 20  1  0
 19 21  1  0
 21 22  1  0
 21 23  2  0
 23 24  1  0
 23 25  1  0
 25 26  1  0
 25 27  2  0
 27 28  1  0
 28 29  1  0
 28 30  1  0
 28 31  1  0
 31 32  1  0
 31 33  1  0
 10 34  1  0
  6 35  2  0
 35 36  1  0
 35 37  1  0
 37 38  1  0
 37 39  2  0
 39 40  1  0
 39  3  1  0
 34  7  1  0
 31 17  1  0
 27 18  1  0
M  CHG  2   9  -1  40  -1
M  END
>  <UniqueID>  (86) 
82

>  <SMILES>  (86) 
O=C(CN1CCc2ccccc21)/N=c1\[n-]nc(-c2ccc([O-])c(O)c2)s1

>  <Energy>  (86) 
93.20672341641159

>  <Genealogy>  (86) 
O=C(CN1CCc2ccccc21)N=c1[n-]nc(-c2ccc([O-])c(O)c2)s1 (protonated)
O=C(CN1CCc2ccccc21)/N=c1\[n-]nc(-c2ccc([O-])c(O)c2)s1 (cis-trans isomerization)
O=C(CN1CCc2ccccc21)/N=c1\[n-]nc(-c2ccc([O-])c(O)c2)s1 (3D coordinates assigned)
O=C(CN1CCc2ccccc21)/N=c1\[n-]nc(-c2ccc([O-])c(O)c2)s1 (nonaromatic ring conformer: 93.20672341641159 kcal/mol)

>  <smiles>  (86) 
O=C(CN1CCc2ccccc21)N=c1[nH]nc(-c2ccc(O)c(O)c2)s1

>  <score_type>  (86) 
oracle

>  <origin>  (86) 
adg

>  <m_score__min__energy>  (86) 
-12.02

>  <m_primary>  (86) 
energy

$$$$
86:0
     RDKit          3D

 75 79  0  0  0  0  0  0  0  0999 V2000
   56.2220   29.6340   42.6770 N   0  0  0  0  0  0  0  0  0  0  0  0
   56.9400   30.8560   42.8490 C   0  0  0  0  0  0  0  0  0  0  0  0
   57.1310   31.6060   41.8520 O   0  0  0  0  0  0  0  0  0  0  0  0
   57.3620   31.2960   44.2340 C   0  0  1  0  0  0  0  0  0  0  0  0
   57.0280   32.7690   44.5460 C   0  0  0  0  0  0  0  0  0  0  0  0
   58.1380   33.4480   45.2980 C   0  0  0  0  0  0  0  0  0  0  0  0
   59.1040   34.2970   44.7660 C   0  0  0  0  0  0  0  0  0  0  0  0
   59.9720   34.6850   45.7280 N   0  0  0  0  0  0  0  0  0  0  0  0
   59.5650   34.0870   46.8600 C   0  0  0  0  0  0  0  0  0  0  0  0
   60.1500   34.1750   48.1220 C   0  0  0  0  0  0  0  0  0  0  0  0
   59.5600   33.4520   49.1740 C   0  0  0  0  0  0  0  0  0  0  0  0
   58.4100   32.6650   48.9440 C   0  0  0  0  0  0  0  0  0  0  0  0
   57.8400   32.5950   47.6600 C   0  0  0  0  0  0  0  0  0  0  0  0
   58.4490   33.3220   46.6370 C   0  0  0  0  0  0  0  0  0  0  0  0
   56.7740   30.4200   45.2480 N   0  0  0  0  0  0  0  0  0  0  0  0
   57.1610   29.0640   45.5150 C   0  0  0  0  0  0  0  0  0  0  0  0
   56.3050   28.1410   45.4630 O   0  0  0  0  0  0  0  0  0  0  0  0
   58.5760   28.7580   45.9320 C   0  0  2  0  0  0  0  0  0  0  0  0
   59.2350   27.6830   45.0480 C   0  0  0  0  0  0  0  0  0  0  0  0
   58.4650   26.3820   45.0260 C   0  0  0  0  0  0  0  0  0  0  0  0
   58.4110   25.5710   46.1710 C   0  0  0  0  0  0  0  0  0  0  0  0
   57.6840   24.3780   46.1560 C   0  0  0  0  0  0  0  0  0  0  0  0
   57.0110   23.9810   44.9980 C   0  0  0  0  0  0  0  0  0  0  0  0
   57.0690   24.7760   43.8510 C   0  0  0  0  0  0  0  0  0  0  0  0
   57.7910   25.9730   43.8630 C   0  0  0  0  0  0  0  0  0  0  0  0
   58.6280   28.3330   47.3300 N   0  0  0  0  0  0  0  0  0  0  0  0
   59.8590   28.1970   48.0430 C   0  0  0  0  0  0  0  0  0  0  0  0
   60.3960   27.0600   48.1580 O   0  0  0  0  0  0  0  0  0  0  0  0
   60.4990   29.4050   48.6620 C   0  0  1  0  0  0  0  0  0  0  0  0
   60.9920   30.3500   47.5490 C   0  0  0  0  0  0  0  0  0  0  0  0
   62.0570   31.3030   48.0210 C   0  0  0  0  0  0  0  0  0  0  0  0
   62.5020   31.2710   49.3530 C   0  0  0  0  0  0  0  0  0  0  0  0
   63.5170   32.1340   49.7770 C   0  0  0  0  0  0  0  0  0  0  0  0
   64.0890   33.0380   48.8770 C   0  0  0  0  0  0  0  0  0  0  0  0
   63.6400   33.0860   47.5550 C   0  0  0  0  0  0  0  0  0  0  0  0
   62.6300   32.2210   47.1240 C   0  0  0  0  0  0  0  0  0  0  0  0
   59.4880   30.0590   49.4940 N   0  0  0  0  0  0  0  0  0  0  0  0
   59.4630   30.2480   50.9180 C   0  0  0  0  0  0  0  0  0  0  0  0
   60.5500   30.1430   51.5460 O   0  0  0  0  0  0  0  0  0  0  0  0
   58.2420   30.5620   51.6840 C   0  0  0  0  0  0  0  0  0  0  0  0
   57.0040   30.1460   51.3470 N   0  0  0  0  0  0  0  0  0  0  0  0
   56.2190   30.6540   52.3130 C   0  0  0  0  0  0  0  0  0  0  0  0
   54.7740   30.4280   52.3990 C   0  0  0  0  0  0  0  0  0  0  0  0
   53.9720   31.3120   51.9970 O   0  0  0  0  0  0  0  0  0  0  0  0
   54.2830   29.2330   52.9070 O   0  0  0  0  0  0  0  0  0  0  0  0
   56.9850   31.3670   53.2030 C   0  0  0  0  0  0  0  0  0  0  0  0
   58.2690   31.3180   52.8050 N   0  0  0  0  0  0  0  0  0  0  0  0
   55.8850   29.3460   41.7320 H   0  0  0  0  0  0  0  0  0  0  0  0
   56.0170   29.0160   43.4940 H   0  0  0  0  0  0  0  0  0  0  0  0
   58.4588   31.2157   44.2585 H   0  0  0  0  0  0  0  0  0  0  0  0
   56.8605   33.3039   43.5995 H   0  0  0  0  0  0  0  0  0  0  0  0
   56.1272   32.7881   45.1770 H   0  0  0  0  0  0  0  0  0  0  0  0
   59.1544   34.6084   43.7122 H   0  0  0  0  0  0  0  0  0  0  0  0
   60.7940   35.3180   45.6090 H   0  0  0  0  0  0  0  0  0  0  0  0
   61.0457   34.7911   48.2899 H   0  0  0  0  0  0  0  0  0  0  0  0
   59.9969   33.4997   50.1824 H   0  0  0  0  0  0  0  0  0  0  0  0
   57.9572   32.1032   49.7743 H   0  0  0  0  0  0  0  0  0  0  0  0
   56.9435   31.9870   47.4688 H   0  0  0  0  0  0  0  0  0  0  0  0
   59.1420   29.6928   45.8067 H   0  0  0  0  0  0  0  0  0  0  0  0
   59.3022   28.0678   44.0197 H   0  0  0  0  0  0  0  0  0  0  0  0
   60.2271   27.4707   45.4730 H   0  0  0  0  0  0  0  0  0  0  0  0
   58.9434   25.8763   47.0838 H   0  0  0  0  0  0  0  0  0  0  0  0
   57.6415   23.7499   47.0581 H   0  0  0  0  0  0  0  0  0  0  0  0
   56.4360   23.0433   44.9895 H   0  0  0  0  0  0  0  0  0  0  0  0
   56.5456   24.4596   42.9367 H   0  0  0  0  0  0  0  0  0  0  0  0
   57.8316   26.5973   42.9582 H   0  0  0  0  0  0  0  0  0  0  0  0
   61.3668   29.1274   49.2783 H   0  0  0  0  0  0  0  0  0  0  0  0
   61.4025   29.7427   46.7288 H   0  0  0  0  0  0  0  0  0  0  0  0
   60.1316   30.9517   47.2208 H   0  0  0  0  0  0  0  0  0  0  0  0
   62.0503   30.5645   50.0649 H   0  0  0  0  0  0  0  0  0  0  0  0
   63.8658   32.1016   50.8197 H   0  0  0  0  0  0  0  0  0  0  0  0
   64.8926   33.7115   49.2098 H   0  0  0  0  0  0  0  0  0  0  0  0
   64.0824   33.8064   46.8513 H   0  0  0  0  0  0  0  0  0  0  0  0
   62.2830   32.2588   46.0809 H   0  0  0  0  0  0  0  0  0  0  0  0
   56.6101   31.8916   54.0942 H   0  0  0  0  0  0  0  0  0  0  0  0
  1  2  1  0
  2  3  2  0
  2  4  1  0
  4  5  1  0
  5  6  1  0
  6  7  2  0
  7  8  1  0
  8  9  1  0
  9 10  2  0
 10 11  1  0
 11 12  2  0
 12 13  1  0
 13 14  2  0
  4 15  1  0
 15 16  1  0
 16 17  2  0
 16 18  1  0
 18 19  1  0
 19 20  1  0
 20 21  2  0
 21 22  1  0
 22 23  2  0
 23 24  1  0
 24 25  2  0
 18 26  1  0
 26 27  1  0
 27 28  2  0
 27 29  1  0
 29 30  1  0
 30 31  1  0
 31 32  2  0
 32 33  1  0
 33 34  2  0
 34 35  1  0
 35 36  2  0
 29 37  1  0
 37 38  1  0
 38 39  2  0
 38 40  1  0
 40 41  2  0
 41 42  1  0
 42 43  1  0
 43 44  2  0
 43 45  1  0
 42 46  2  0
 46 47  1  0
 14  6  1  0
 25 20  1  0
 36 31  1  0
 47 40  1  0
 14  9  1  0
  1 48  1  0
  1 49  1  0
  4 50  1  6
  5 51  1  0
  5 52  1  0
  7 53  1  0
  8 54  1  0
 10 55  1  0
 11 56  1  0
 12 57  1  0
 13 58  1  0
 18 59  1  1
 19 60  1  0
 19 61  1  0
 21 62  1  0
 22 63  1  0
 23 64  1  0
 24 65  1  0
 25 66  1  0
 29 67  1  1
 30 68  1  0
 30 69  1  0
 32 70  1  0
 33 71  1  0
 34 72  1  0
 35 73  1  0
 36 74  1  0
 46 75  1  0
M  CHG  5  15  -1  26  -1  37  -1  45  -1  47  -1
M  END
>  <UniqueID>  (87) 
83

>  <SMILES>  (87) 
NC(=O)[C@@H](Cc1c[nH]c2ccccc12)[N-]C(=O)[C@H](Cc1ccccc1)[N-]C(=O)C(Cc1ccccc1)[N-]C(=O)c1nc(C(=O)[O-])c[n-]1

>  <Energy>  (87) 
137.7348380242844

>  <Genealogy>  (87) 
NC(=O)C(Cc1c[nH]c2ccccc12)[N-]C(=O)C(Cc1ccccc1)[N-]C(=O)C(Cc1ccccc1)[N-]C(=O)c1nc(C(=O)[O-])c[n-]1 (protonated)
NC(=O)[C@@H](Cc1c[nH]c2ccccc12)[N-]C(=O)[C@H](Cc1ccccc1)[N-]C(=O)C(Cc1ccccc1)[N-]C(=O)c1nc(C(=O)[O-])c[n-]1 (chirality)
NC(=O)[C@@H](Cc1c[nH]c2ccccc12)[N-]C(=O)[C@H](Cc1ccccc1)[N-]C(=O)C(Cc1ccccc1)[N-]C(=O)c1nc(C(=O)[O-])c[n-]1 (3D coordinates assigned)
NC(=O)[C@@H](Cc1c[nH]c2ccccc12)[N-]C(=O)[C@H](Cc1ccccc1)[N-]C(=O)C(Cc1ccccc1)[N-]C(=O)c1nc(C(=O)[O-])c[n-]1 (optimized conformer: 137.7348380242844 kcal/mol)

>  <smiles>  (87) 
NC(=O)C(Cc1c[nH]c2ccccc12)NC(=O)C(Cc1ccccc1)NC(=O)C(Cc1ccccc1)NC(=O)c1nc(C(=O)O)c[nH]1

>  <score_type>  (87) 
oracle

>  <origin>  (87) 
adg

>  <m_score__min__energy>  (87) 
-19.289999999999999

>  <m_primary>  (87) 
energy

$$$$
87:0
     RDKit          3D

 41 42  0  0  0  0  0  0  0  0999 V2000
   57.9805   28.4289   43.6628 H   0  0  0  0  0  0  0  0  0  0  0  0
   57.3400   28.8400   44.4570 C   0  0  0  0  0  0  0  0  0  0  0  0
   56.6350   30.1130   44.1730 C   0  0  0  0  0  0  0  0  0  0  0  0
   55.4280   30.2720   44.4950 O   0  0  0  0  0  0  0  0  0  0  0  0
   57.3560   31.2210   43.4650 C   0  0  0  0  0  0  0  0  0  0  0  0
   58.2330   30.8103   42.9432 H   0  0  0  0  0  0  0  0  0  0  0  0
   56.6757   31.6889   42.7381 H   0  0  0  0  0  0  0  0  0  0  0  0
   57.8060   32.2550   44.4570 C   0  0  0  0  0  0  0  0  0  0  0  0
   57.5080   33.4640   44.2550 O   0  0  0  0  0  0  0  0  0  0  0  0
   58.5660   31.8740   45.6680 C   0  0  0  0  0  0  0  0  0  0  0  0
   59.3580   30.8980   45.6170 O   0  0  0  0  0  0  0  0  0  0  0  0
   58.4540   32.6130   46.9400 C   0  0  0  0  0  0  0  0  0  0  0  0
   57.9852   32.1138   47.8008 H   0  0  0  0  0  0  0  0  0  0  0  0
   58.9000   33.8670   47.0890 C   0  0  0  0  0  0  0  0  0  0  0  0
   58.4894   34.6501   46.4347 H   0  0  0  0  0  0  0  0  0  0  0  0
   59.9180   34.2490   48.0910 C   0  0  0  0  0  0  0  0  0  0  0  0
   59.5470   34.9500   49.0710 O   0  0  0  0  0  0  0  0  0  0  0  0
   61.3390   33.8340   48.0060 C   0  0  0  0  0  0  0  0  0  0  0  0
   62.0700   33.4990   49.1640 C   0  0  0  0  0  0  0  0  0  0  0  0
   61.5819   33.5353   50.1491 H   0  0  0  0  0  0  0  0  0  0  0  0
   63.4120   33.1210   49.0660 C   0  0  0  0  0  0  0  0  0  0  0  0
   63.9730   32.8509   49.9728 H   0  0  0  0  0  0  0  0  0  0  0  0
   64.0430   33.0850   47.8210 C   0  0  0  0  0  0  0  0  0  0  0  0
   65.0964   32.7771   47.7462 H   0  0  0  0  0  0  0  0  0  0  0  0
   63.3340   33.4410   46.6690 C   0  0  0  0  0  0  0  0  0  0  0  0
   63.8339   33.4226   45.6893 H   0  0  0  0  0  0  0  0  0  0  0  0
   61.9920   33.8200   46.7600 C   0  0  0  0  0  0  0  0  0  0  0  0
   61.4429   34.1092   45.8518 H   0  0  0  0  0  0  0  0  0  0  0  0
   57.2600   28.1490   45.6040 C   0  0  0  0  0  0  0  0  0  0  0  0
   57.2389   28.7233   46.5420 H   0  0  0  0  0  0  0  0  0  0  0  0
   57.1980   26.6760   45.7050 C   0  0  0  0  0  0  0  0  0  0  0  0
   58.3950   25.9430   45.6950 C   0  0  0  0  0  0  0  0  0  0  0  0
   59.3563   26.4675   45.5913 H   0  0  0  0  0  0  0  0  0  0  0  0
   58.3730   24.5510   45.8160 C   0  0  0  0  0  0  0  0  0  0  0  0
   59.3141   23.9821   45.7900 H   0  0  0  0  0  0  0  0  0  0  0  0
   57.1560   23.8810   45.9700 C   0  0  0  0  0  0  0  0  0  0  0  0
   57.1389   22.7845   46.0558 H   0  0  0  0  0  0  0  0  0  0  0  0
   55.9610   24.6040   46.0150 C   0  0  0  0  0  0  0  0  0  0  0  0
   55.0050   24.0750   46.1422 H   0  0  0  0  0  0  0  0  0  0  0  0
   55.9760   25.9970   45.8990 C   0  0  0  0  0  0  0  0  0  0  0  0
   54.7780   26.7000   45.9930 O   0  0  0  0  0  0  0  0  0  0  0  0
  1  2  1  0
  2  3  1  0
  3  4  2  0
  3  5  1  0
  5  6  1  0
  5  7  1  0
  5  8  1  0
  8  9  2  0
  8 10  1  0
 10 11  2  0
 10 12  1  0
 12 13  1  0
 12 14  2  0
 14 15  1  0
 14 16  1  0
 16 17  2  0
 16 18  1  0
 18 19  2  0
 19 20  1  0
 19 21  1  0
 21 22  1  0
 21 23  2  0
 23 24  1  0
 23 25  1  0
 25 26  1  0
 25 27  2  0
 27 28  1  0
  2 29  2  3
 29 30  1  0
 29 31  1  0
 31 32  2  0
 32 33  1  0
 32 34  1  0
 34 35  1  0
 34 36  2  0
 36 37  1  0
 36 38  1  0
 38 39  1  0
 38 40  2  0
 40 41  1  0
 27 18  1  0
 40 31  1  0
M  CHG  1  41  -1
M  END
>  <UniqueID>  (88) 
84

>  <SMILES>  (88) 
O=C(C=Cc1ccccc1[O-])CC(=O)C(=O)/C=C/C(=O)c1ccccc1

>  <Energy>  (88) 
55.022416558206665

>  <Genealogy>  (88) 
O=C(C=Cc1ccccc1[O-])CC(=O)C(=O)C=CC(=O)c1ccccc1 (protonated)
O=C(C=Cc1ccccc1[O-])CC(=O)C(=O)/C=C/C(=O)c1ccccc1 (cis-trans isomerization)
O=C(C=Cc1ccccc1[O-])CC(=O)C(=O)/C=C/C(=O)c1ccccc1 (3D coordinates assigned)
O=C(C=Cc1ccccc1[O-])CC(=O)C(=O)/C=C/C(=O)c1ccccc1 (optimized conformer: 55.022416558206665 kcal/mol)

>  <smiles>  (88) 
O=C(C=Cc1ccccc1O)CC(=O)C(=O)C=CC(=O)c1ccccc1

>  <score_type>  (88) 
oracle

>  <origin>  (88) 
adg

>  <m_score__min__energy>  (88) 
-13.449999999999999

>  <m_primary>  (88) 
energy

$$$$
88:0
     RDKit          3D

 54 56  0  0  0  0  0  0  0  0999 V2000
   57.0220   34.2760   45.1460 C   0  0  0  0  0  0  0  0  0  0  0  0
   58.0680   33.4680   44.3740 C   0  0  0  0  0  0  0  0  0  0  0  0
   58.9200   32.5660   45.2760 C   0  0  0  0  0  0  0  0  0  0  0  0
   58.3600   30.8640   45.3110 S   0  0  0  0  0  0  0  0  0  0  0  0
   56.8630   30.8560   45.1880 O   0  0  0  0  0  0  0  0  0  0  0  0
   58.9250   30.1760   44.1050 O   0  0  0  0  0  0  0  0  0  0  0  0
   58.8060   30.0680   46.8420 C   0  0  0  0  0  0  0  0  0  0  0  0
   59.1510   28.7140   46.8710 C   0  0  0  0  0  0  0  0  0  0  0  0
   59.3840   27.6260   45.4630 S   0  0  0  0  0  0  0  0  0  0  0  0
   59.0360   26.0870   46.3910 C   0  0  0  0  0  0  0  0  0  0  0  0
   57.6780   26.1550   47.0820 C   0  0  0  0  0  0  0  0  0  0  0  0
   56.7430   25.1830   46.5140 N   0  0  0  0  0  0  0  0  0  0  0  0
   56.9370   23.8600   46.3540 C   0  0  0  0  0  0  0  0  0  0  0  0
   58.0880   23.1890   46.7340 O   0  0  0  0  0  0  0  0  0  0  0  0
   55.8380   23.2710   45.7620 C   0  0  0  0  0  0  0  0  0  0  0  0
   54.9270   24.2860   45.5470 C   0  0  0  0  0  0  0  0  0  0  0  0
   55.5190   25.4380   46.0190 C   0  0  0  0  0  0  0  0  0  0  0  0
   54.9390   26.6970   45.9960 O   0  0  0  0  0  0  0  0  0  0  0  0
   59.4120   28.2330   48.4420 S   0  0  0  0  0  0  0  0  0  0  0  0
   59.1410   29.7260   49.1460 C   0  0  0  0  0  0  0  0  0  0  0  0
   59.2620   29.9670   50.8880 S   0  0  0  0  0  0  0  0  0  0  0  0
   57.6960   30.2560   51.5690 N   0  0  0  0  0  0  0  0  0  0  0  0
   60.1300   31.1640   51.1640 O   0  0  0  0  0  0  0  0  0  0  0  0
   59.8870   28.7550   51.5280 O   0  0  0  0  0  0  0  0  0  0  0  0
   58.8330   30.6630   48.1380 C   0  0  0  0  0  0  0  0  0  0  0  0
   58.5610   32.3960   48.4480 S   0  0  0  0  0  0  0  0  0  0  0  0
   58.2960   32.6580   49.9020 O   0  0  0  0  0  0  0  0  0  0  0  0
   57.3510   32.8430   47.6710 O   0  0  0  0  0  0  0  0  0  0  0  0
   59.9310   33.3650   47.9800 N   0  0  0  0  0  0  0  0  0  0  0  0
   61.2990   33.0420   48.2460 C   0  0  0  0  0  0  0  0  0  0  0  0
   62.0230   32.3320   47.2720 C   0  0  0  0  0  0  0  0  0  0  0  0
   63.3590   31.9870   47.5020 C   0  0  0  0  0  0  0  0  0  0  0  0
   63.9850   32.3630   48.6990 C   0  0  0  0  0  0  0  0  0  0  0  0
   63.2830   33.1190   49.6530 C   0  0  0  0  0  0  0  0  0  0  0  0
   61.9450   33.4630   49.4260 C   0  0  0  0  0  0  0  0  0  0  0  0
   61.3060   34.2450   50.3310 F   0  0  0  0  0  0  0  0  0  0  0  0
   57.1854   34.1498   46.2265 H   0  0  0  0  0  0  0  0  0  0  0  0
   57.1135   35.3402   44.8832 H   0  0  0  0  0  0  0  0  0  0  0  0
   56.0154   33.9187   44.8832 H   0  0  0  0  0  0  0  0  0  0  0  0
   57.5488   32.8365   43.6380 H   0  0  0  0  0  0  0  0  0  0  0  0
   58.7482   34.1871   43.8941 H   0  0  0  0  0  0  0  0  0  0  0  0
   59.9567   32.5847   44.9088 H   0  0  0  0  0  0  0  0  0  0  0  0
   58.8353   32.9574   46.3005 H   0  0  0  0  0  0  0  0  0  0  0  0
   59.0408   25.2376   45.6920 H   0  0  0  0  0  0  0  0  0  0  0  0
   59.8123   25.9607   47.1600 H   0  0  0  0  0  0  0  0  0  0  0  0
   57.8099   25.9417   48.1530 H   0  0  0  0  0  0  0  0  0  0  0  0
   57.2633   27.1630   46.9341 H   0  0  0  0  0  0  0  0  0  0  0  0
   55.7131   22.2071   45.5119 H   0  0  0  0  0  0  0  0  0  0  0  0
   53.9301   24.1940   45.0911 H   0  0  0  0  0  0  0  0  0  0  0  0
   57.3200   31.1320   51.1270 H   0  0  0  0  0  0  0  0  0  0  0  0
   61.5377   32.0471   46.3268 H   0  0  0  0  0  0  0  0  0  0  0  0
   63.9188   31.4204   46.7433 H   0  0  0  0  0  0  0  0  0  0  0  0
   65.0265   32.0659   48.8914 H   0  0  0  0  0  0  0  0  0  0  0  0
   63.7845   33.4404   50.5778 H   0  0  0  0  0  0  0  0  0  0  0  0
  1  2  1  0
  2  3  1  0
  3  4  1  0
  4  5  2  0
  4  6  2  0
  4  7  1  0
  7  8  2  0
  8  9  1  0
  9 10  1  0
 10 11  1  0
 11 12  1  0
 12 13  1  0
 13 14  1  0
 13 15  2  0
 15 16  1  0
 16 17  2  0
 17 18  1  0
  8 19  1  0
 19 20  1  0
 20 21  1  0
 21 22  1  0
 21 23  2  0
 21 24  2  0
 20 25  2  0
 25 26  1  0
 26 27  2  0
 26 28  2  0
 26 29  1  0
 29 30  1  0
 30 31  2  0
 31 32  1  0
 32 33  2  0
 33 34  1  0
 34 35  2  0
 35 36  1  0
 25  7  1  0
 35 30  1  0
 17 12  1  0
  1 37  1  0
  1 38  1  0
  1 39  1  0
  2 40  1  0
  2 41  1  0
  3 42  1  0
  3 43  1  0
 10 44  1  0
 10 45  1  0
 11 46  1  0
 11 47  1  0
 15 48  1  0
 16 49  1  0
 22 50  1  0
 31 51  1  0
 32 52  1  0
 33 53  1  0
 34 54  1  0
M  CHG  4  14  -1  18  -1  22  -1  29  -1
M  END
>  <UniqueID>  (89) 
85

>  <SMILES>  (89) 
CCCS(=O)(=O)c1c(SCCn2c([O-])ccc2[O-])sc(S([NH-])(=O)=O)c1S(=O)(=O)[N-]c1ccccc1F

>  <Energy>  (89) 
109.17512868619983

>  <Genealogy>  (89) 
CCCS(=O)(=O)c1c(SCCn2c([O-])ccc2[O-])sc(S([NH-])(=O)=O)c1S(=O)(=O)[N-]c1ccccc1F (protonated)
CCCS(=O)(=O)c1c(SCCn2c([O-])ccc2[O-])sc(S([NH-])(=O)=O)c1S(=O)(=O)[N-]c1ccccc1F (3D coordinates assigned)
CCCS(=O)(=O)c1c(SCCn2c([O-])ccc2[O-])sc(S([NH-])(=O)=O)c1S(=O)(=O)[N-]c1ccccc1F (optimized conformer: 109.17512868619983 kcal/mol)

>  <smiles>  (89) 
CCCS(=O)(=O)c1c(SCCn2c(O)ccc2O)sc(S(N)(=O)=O)c1S(=O)(=O)Nc1ccccc1F

>  <score_type>  (89) 
oracle

>  <origin>  (89) 
adg

>  <m_score__min__energy>  (89) 
-17.260000000000002

>  <m_primary>  (89) 
energy

$$$$
89:0
     RDKit          3D

 35 37  0  0  0  0  0  0  0  0999 V2000
   57.0140   34.2540   44.8400 C   0  0  0  0  0  0  0  0  0  0  0  0
   58.0520   33.7130   45.7830 C   0  0  0  0  0  0  0  0  0  0  0  0
   58.9950   34.5830   46.3510 C   0  0  0  0  0  0  0  0  0  0  0  0
   59.9470   34.1020   47.2530 C   0  0  0  0  0  0  0  0  0  0  0  0
   59.9660   32.7500   47.5950 C   0  0  0  0  0  0  0  0  0  0  0  0
   59.0330   31.8610   47.0390 C   0  0  0  0  0  0  0  0  0  0  0  0
   59.0500   30.4150   47.4450 C   0  0  0  0  0  0  0  0  0  0  0  0
   58.0530   32.3520   46.1510 C   0  0  0  0  0  0  0  0  0  0  0  0
   57.0910   31.4860   45.6260 O   0  0  0  0  0  0  0  0  0  0  0  0
   57.3780   30.6450   44.5160 C   0  0  0  0  0  0  0  0  0  0  0  0
   57.3150   29.2220   44.9520 C   0  0  0  0  0  0  0  0  0  0  0  0
   56.1660   28.5740   45.2220 N   0  0  0  0  0  0  0  0  0  0  0  0
   56.6090   27.3690   45.6320 C   0  0  0  0  0  0  0  0  0  0  0  0
   55.7420   26.4020   45.9990 N   0  0  0  0  0  0  0  0  0  0  0  0
   55.9280   25.1390   46.4410 C   0  0  0  0  0  0  0  0  0  0  0  0
   54.8990   24.4610   46.7080 O   0  0  0  0  0  0  0  0  0  0  0  0
   57.1620   24.5240   46.6240 C   0  0  0  0  0  0  0  0  0  0  0  0
   58.4360   25.0340   46.4100 C   0  0  0  0  0  0  0  0  0  0  0  0
   58.8160   26.2960   45.9560 C   0  0  0  0  0  0  0  0  0  0  0  0
   60.0550   26.5100   45.8500 O   0  0  0  0  0  0  0  0  0  0  0  0
   57.9590   27.2950   45.6230 N   0  0  0  0  0  0  0  0  0  0  0  0
   58.4010   28.4700   45.1990 N   0  0  0  0  0  0  0  0  0  0  0  0
   56.1838   34.6867   45.4176 H   0  0  0  0  0  0  0  0  0  0  0  0
   57.4644   35.0321   44.2062 H   0  0  0  0  0  0  0  0  0  0  0  0
   56.6342   33.4392   44.2062 H   0  0  0  0  0  0  0  0  0  0  0  0
   58.9845   35.6502   46.0844 H   0  0  0  0  0  0  0  0  0  0  0  0
   60.6827   34.7905   47.6942 H   0  0  0  0  0  0  0  0  0  0  0  0
   60.7181   32.3775   48.3061 H   0  0  0  0  0  0  0  0  0  0  0  0
   59.0509   30.3423   48.5426 H   0  0  0  0  0  0  0  0  0  0  0  0
   58.1577   29.9113   47.0449 H   0  0  0  0  0  0  0  0  0  0  0  0
   59.9539   29.9324   47.0449 H   0  0  0  0  0  0  0  0  0  0  0  0
   56.6381   30.8195   43.7209 H   0  0  0  0  0  0  0  0  0  0  0  0
   58.3837   30.8701   44.1314 H   0  0  0  0  0  0  0  0  0  0  0  0
   57.1235   23.4873   46.9899 H   0  0  0  0  0  0  0  0  0  0  0  0
   59.2634   24.3434   46.6302 H   0  0  0  0  0  0  0  0  0  0  0  0
  1  2  1  0
  2  3  2  0
  3  4  1  0
  4  5  2  0
  5  6  1  0
  6  7  1  0
  6  8  2  0
  8  9  1  0
  9 10  1  0
 10 11  1  0
 11 12  1  0
 12 13  2  0
 13 14  1  0
 14 15  1  0
 15 16  2  0
 15 17  1  0
 17 18  2  0
 18 19  1  0
 19 20  2  0
 19 21  1  0
 21 22  1  0
  8  2  1  0
 22 11  2  0
 21 13  1  0
  1 23  1  0
  1 24  1  0
  1 25  1  0
  3 26  1  0
  4 27  1  0
  5 28  1  0
  7 29  1  0
  7 30  1  0
  7 31  1  0
 10 32  1  0
 10 33  1  0
 17 34  1  0
 18 35  1  0
M  CHG  1  14  -1
M  END
>  <UniqueID>  (90) 
86

>  <SMILES>  (90) 
Cc1cccc(C)c1OCc1nc2[n-]c(=O)ccc(=O)n2n1

>  <Energy>  (90) 
92.31785068967865

>  <Genealogy>  (90) 
Cc1cccc(C)c1OCc1nc2[n-]c(=O)ccc(=O)n2n1 (protonated)
Cc1cccc(C)c1OCc1nc2[n-]c(=O)ccc(=O)n2n1 (3D coordinates assigned)
Cc1cccc(C)c1OCc1nc2[n-]c(=O)ccc(=O)n2n1 (optimized conformer: 92.31785068967865 kcal/mol)

>  <smiles>  (90) 
Cc1cccc(C)c1OCc1nc2[nH]c(=O)ccc(=O)n2n1

>  <score_type>  (90) 
oracle

>  <origin>  (90) 
adg

>  <m_score__min__energy>  (90) 
-9.2599999999999998

>  <m_primary>  (90) 
energy

$$$$
90:0
     RDKit          3D

 61 64  0  0  0  0  0  0  0  0999 V2000
   63.3920   32.1530   47.1610 C   0  0  0  0  0  0  0  0  0  0  0  0
   63.0420   32.4250   48.6170 C   0  0  0  0  0  0  0  0  0  0  0  0
   61.9360   33.8200   48.7660 S   0  0  0  0  0  0  0  0  0  0  0  0
   61.4450   34.2060   47.4000 O   0  0  0  0  0  0  0  0  0  0  0  0
   62.6780   34.9840   49.3580 O   0  0  0  0  0  0  0  0  0  0  0  0
   60.5790   33.4120   49.8120 C   0  0  0  0  0  0  0  0  0  0  0  0
   60.7080   33.4700   51.2050 C   0  0  0  0  0  0  0  0  0  0  0  0
   59.6380   33.1070   52.0220 C   0  0  0  0  0  0  0  0  0  0  0  0
   58.4270   32.6730   51.4580 C   0  0  0  0  0  0  0  0  0  0  0  0
   57.3030   32.1870   52.3390 C   0  0  0  0  0  0  0  0  0  0  0  0
   56.6920   30.9010   51.8310 C   0  0  0  0  0  0  0  0  0  0  0  0
   55.4560   30.8550   51.6220 O   0  0  0  0  0  0  0  0  0  0  0  0
   57.4600   29.7010   51.6440 N   0  0  0  0  0  0  0  0  0  0  0  0
   58.7310   29.6110   50.9910 C   0  0  0  0  0  0  0  0  0  0  0  0
   59.8930   29.5150   51.7580 C   0  0  0  0  0  0  0  0  0  0  0  0
   61.1110   29.5100   51.1590 N   0  0  0  0  0  0  0  0  0  0  0  0
   61.2390   29.5550   49.8040 C   0  0  0  0  0  0  0  0  0  0  0  0
   60.0980   29.5620   48.9850 C   0  0  0  0  0  0  0  0  0  0  0  0
   60.2090   29.5880   47.5080 C   0  0  0  0  0  0  0  0  0  0  0  0
   61.1150   28.9150   46.9560 O   0  0  0  0  0  0  0  0  0  0  0  0
   59.3020   30.4040   46.6710 C   0  0  0  0  0  0  0  0  0  0  0  0
   59.4720   31.7440   46.3160 C   0  0  0  0  0  0  0  0  0  0  0  0
   58.4810   32.1440   45.4770 N   0  0  0  0  0  0  0  0  0  0  0  0
   58.3240   33.4670   44.8680 C   0  0  0  0  0  0  0  0  0  0  0  0
   59.5230   34.3590   45.2000 C   0  0  0  0  0  0  0  0  0  0  0  0
   57.0170   34.1140   45.3260 C   0  0  0  0  0  0  0  0  0  0  0  0
   57.6980   31.0650   45.2970 C   0  0  0  0  0  0  0  0  0  0  0  0
   56.6060   30.9840   44.4980 N   0  0  0  0  0  0  0  0  0  0  0  0
   55.9500   29.7900   44.4070 C   0  0  0  0  0  0  0  0  0  0  0  0
   54.9100   29.6860   43.6480 N   0  0  0  0  0  0  0  0  0  0  0  0
   56.3960   28.7010   45.1110 N   0  0  0  0  0  0  0  0  0  0  0  0
   57.4970   28.7720   45.9120 C   0  0  0  0  0  0  0  0  0  0  0  0
   58.1620   29.9910   45.9980 C   0  0  0  0  0  0  0  0  0  0  0  0
   58.8340   29.6030   49.5960 C   0  0  0  0  0  0  0  0  0  0  0  0
   58.2830   32.6750   50.0630 C   0  0  0  0  0  0  0  0  0  0  0  0
   59.3560   33.0290   49.2450 C   0  0  0  0  0  0  0  0  0  0  0  0
   64.2597   31.4787   47.1123 H   0  0  0  0  0  0  0  0  0  0  0  0
   62.5335   31.6827   46.6592 H   0  0  0  0  0  0  0  0  0  0  0  0
   63.6358   33.1010   46.6592 H   0  0  0  0  0  0  0  0  0  0  0  0
   62.5554   31.5344   49.0414 H   0  0  0  0  0  0  0  0  0  0  0  0
   63.9697   32.6565   49.1608 H   0  0  0  0  0  0  0  0  0  0  0  0
   61.6549   33.8024   51.6555 H   0  0  0  0  0  0  0  0  0  0  0  0
   59.7429   33.1609   53.1157 H   0  0  0  0  0  0  0  0  0  0  0  0
   57.6960   32.0161   53.3521 H   0  0  0  0  0  0  0  0  0  0  0  0
   56.5172   32.9568   52.3379 H   0  0  0  0  0  0  0  0  0  0  0  0
   59.8214   29.4430   52.8533 H   0  0  0  0  0  0  0  0  0  0  0  0
   61.9720   29.4810   51.7520 H   0  0  0  0  0  0  0  0  0  0  0  0
   62.2400   29.5860   49.3491 H   0  0  0  0  0  0  0  0  0  0  0  0
   60.2935   32.3859   46.6667 H   0  0  0  0  0  0  0  0  0  0  0  0
   58.2825   33.3465   43.7754 H   0  0  0  0  0  0  0  0  0  0  0  0
   59.6297   34.4384   46.2919 H   0  0  0  0  0  0  0  0  0  0  0  0
   60.4365   33.9192   44.7733 H   0  0  0  0  0  0  0  0  0  0  0  0
   59.3643   35.3604   44.7733 H   0  0  0  0  0  0  0  0  0  0  0  0
   56.9820   34.1313   46.4253 H   0  0  0  0  0  0  0  0  0  0  0  0
   56.9627   35.1430   44.9411 H   0  0  0  0  0  0  0  0  0  0  0  0
   56.1658   33.5332   44.9411 H   0  0  0  0  0  0  0  0  0  0  0  0
   54.9970   29.4120   42.6430 H   0  0  0  0  0  0  0  0  0  0  0  0
   57.8484   27.8932   46.4726 H   0  0  0  0  0  0  0  0  0  0  0  0
   57.9248   29.6288   48.9774 H   0  0  0  0  0  0  0  0  0  0  0  0
   57.3194   32.3961   49.6118 H   0  0  0  0  0  0  0  0  0  0  0  0
   59.2418   33.0075   48.1512 H   0  0  0  0  0  0  0  0  0  0  0  0
  1  2  1  0
  2  3  1  0
  3  4  2  0
  3  5  2  0
  3  6  1  0
  6  7  2  0
  7  8  1  0
  8  9  2  0
  9 10  1  0
 10 11  1  0
 11 12  2  0
 11 13  1  0
 13 14  1  0
 14 15  2  0
 15 16  1  0
 16 17  2  0
 17 18  1  0
 18 19  1  0
 19 20  2  0
 19 21  1  0
 21 22  2  0
 22 23  1  0
 23 24  1  0
 24 25  1  0
 24 26  1  0
 23 27  1  0
 27 28  1  0
 28 29  1  0
 29 30  2  3
 29 31  1  0
 31 32  2  0
 32 33  1  0
 18 34  2  0
  9 35  1  0
 35 36  2  0
 36  6  1  0
 34 14  1  0
 33 21  1  0
 33 27  2  0
  1 37  1  0
  1 38  1  0
  1 39  1  0
  2 40  1  0
  2 41  1  0
  7 42  1  0
  8 43  1  0
 10 44  1  0
 10 45  1  0
 15 46  1  0
 16 47  1  0
 17 48  1  0
 22 49  1  0
 24 50  1  0
 25 51  1  0
 25 52  1  0
 25 53  1  0
 26 54  1  0
 26 55  1  0
 26 56  1  0
 30 57  1  0
 32 58  1  0
 34 59  1  0
 35 60  1  0
 36 61  1  0
M  CHG  3  13  -1  16   1  28  -1
M  END
>  <UniqueID>  (91) 
87

>  <SMILES>  (91) 
CCS(=O)(=O)c1ccc(CC(=O)[N-]c2c[nH+]cc(C(=O)c3cn(C(C)C)c4[n-]c(=N)ncc34)c2)cc1

>  <Energy>  (91) 
98.91989010221337

>  <Genealogy>  (91) 
CCS(=O)(=O)c1ccc(CC(=O)[N-]c2c[nH+]cc(C(=O)c3cn(C(C)C)c4[n-]c(=N)ncc34)c2)cc1 (protonated)
CCS(=O)(=O)c1ccc(CC(=O)[N-]c2c[nH+]cc(C(=O)c3cn(C(C)C)c4[n-]c(=N)ncc34)c2)cc1 (3D coordinates assigned)
CCS(=O)(=O)c1ccc(CC(=O)[N-]c2c[nH+]cc(C(=O)c3cn(C(C)C)c4[n-]c(=N)ncc34)c2)cc1 (optimized conformer: 98.91989010221337 kcal/mol)

>  <smiles>  (91) 
CCS(=O)(=O)c1ccc(CC(=O)Nc2cncc(C(=O)c3cn(C(C)C)c4[nH]c(=N)ncc34)c2)cc1

>  <score_type>  (91) 
oracle

>  <origin>  (91) 
adg

>  <m_score__min__energy>  (91) 
-10.94

>  <m_primary>  (91) 
energy

$$$$
