0:0
     RDKit          3D

 59 63  0  0  0  0  0  0  0  0999 V2000
   58.2680   34.1530   52.5650 C   0  0  0  0  0  0  0  0  0  0  0  0
   58.0120   32.8830   52.2350 C   0  0  0  0  0  0  0  0  0  0  0  0
   57.4500   32.0330   53.1190 N   0  0  0  0  0  0  0  0  0  0  0  0
   57.2420   30.8770   52.5130 N   0  0  0  0  0  0  0  0  0  0  0  0
   56.6890   29.7260   53.1800 C   0  0  0  0  0  0  0  0  0  0  0  0
   55.3260   29.3940   53.0490 C   0  0  0  0  0  0  0  0  0  0  0  0
   54.8030   28.2800   53.7140 C   0  0  0  0  0  0  0  0  0  0  0  0
   55.6290   27.4920   54.5190 C   0  0  0  0  0  0  0  0  0  0  0  0
   56.9770   27.8210   54.6680 C   0  0  0  0  0  0  0  0  0  0  0  0
   57.5050   28.9340   54.0070 C   0  0  0  0  0  0  0  0  0  0  0  0
   57.6880   30.9600   51.2430 C   0  0  0  0  0  0  0  0  0  0  0  0
   57.7850   29.9620   50.4800 O   0  0  0  0  0  0  0  0  0  0  0  0
   58.1780   32.2460   50.9880 C   0  0  0  0  0  0  0  0  0  0  0  0
   58.7810   32.7260   49.8600 C   0  0  0  0  0  0  0  0  0  0  0  0
   58.0880   32.6820   48.6960 N   0  0  0  0  0  0  0  0  0  0  0  0
   58.5290   33.2210   47.5360 C   0  0  0  0  0  0  0  0  0  0  0  0
   57.6940   33.1790   46.4130 C   0  0  0  0  0  0  0  0  0  0  0  0
   58.0560   33.8420   45.2430 C   0  0  0  0  0  0  0  0  0  0  0  0
   59.2370   34.5780   45.2020 C   0  0  0  0  0  0  0  0  0  0  0  0
   60.0820   34.6160   46.3140 C   0  0  0  0  0  0  0  0  0  0  0  0
   59.7800   33.8780   47.4840 C   0  0  0  0  0  0  0  0  0  0  0  0
   60.6270   33.8200   48.6340 C   0  0  0  0  0  0  0  0  0  0  0  0
   61.9300   34.2220   48.6360 C   0  0  0  0  0  0  0  0  0  0  0  0
   63.0660   33.3360   48.6790 N   0  0  0  0  0  0  0  0  0  0  0  0
   63.7930   33.2160   49.9510 C   0  0  0  0  0  0  0  0  0  0  0  0
   65.0180   32.3210   49.7970 C   0  0  0  0  0  0  0  0  0  0  0  0
   63.1720   32.2450   47.6980 C   0  0  0  0  0  0  0  0  0  0  0  0
   62.0780   31.2350   47.9180 C   0  0  0  0  0  0  0  0  0  0  0  0
   61.8830   30.6580   49.1850 C   0  0  0  0  0  0  0  0  0  0  0  0
   60.8420   29.7480   49.3910 C   0  0  0  0  0  0  0  0  0  0  0  0
   59.9870   29.4110   48.3390 C   0  0  0  0  0  0  0  0  0  0  0  0
   60.1700   29.9860   47.0780 C   0  0  0  0  0  0  0  0  0  0  0  0
   61.2090   30.8970   46.8670 C   0  0  0  0  0  0  0  0  0  0  0  0
   60.0930   33.2690   49.8350 C   0  0  0  0  0  0  0  0  0  0  0  0
   60.8390   33.1560   50.8490 O   0  0  0  0  0  0  0  0  0  0  0  0
   58.7268   34.8305   51.8298 H   0  0  0  0  0  0  0  0  0  0  0  0
   58.0199   34.5204   53.5717 H   0  0  0  0  0  0  0  0  0  0  0  0
   54.6698   30.0140   52.4206 H   0  0  0  0  0  0  0  0  0  0  0  0
   53.7390   28.0240   53.6028 H   0  0  0  0  0  0  0  0  0  0  0  0
   55.2170   26.6124   55.0353 H   0  0  0  0  0  0  0  0  0  0  0  0
   57.6254   27.2033   55.3068 H   0  0  0  0  0  0  0  0  0  0  0  0
   58.5666   29.1920   54.1348 H   0  0  0  0  0  0  0  0  0  0  0  0
   56.7477   32.6198   46.4550 H   0  0  0  0  0  0  0  0  0  0  0  0
   57.4108   33.7843   44.3540 H   0  0  0  0  0  0  0  0  0  0  0  0
   59.5059   35.1318   44.2904 H   0  0  0  0  0  0  0  0  0  0  0  0
   60.9953   35.2282   46.2800 H   0  0  0  0  0  0  0  0  0  0  0  0
   62.1290   35.3033   48.6023 H   0  0  0  0  0  0  0  0  0  0  0  0
   64.1164   34.2158   50.2764 H   0  0  0  0  0  0  0  0  0  0  0  0
   63.1218   32.7666   50.6976 H   0  0  0  0  0  0  0  0  0  0  0  0
   65.3971   32.0440   50.7918 H   0  0  0  0  0  0  0  0  0  0  0  0
   64.7404   31.4115   49.2441 H   0  0  0  0  0  0  0  0  0  0  0  0
   65.8001   32.8619   49.2441 H   0  0  0  0  0  0  0  0  0  0  0  0
   63.0837   32.6600   46.6831 H   0  0  0  0  0  0  0  0  0  0  0  0
   64.1462   31.7487   47.8194 H   0  0  0  0  0  0  0  0  0  0  0  0
   62.5518   30.9234   50.0170 H   0  0  0  0  0  0  0  0  0  0  0  0
   60.6959   29.2965   50.3834 H   0  0  0  0  0  0  0  0  0  0  0  0
   59.1697   28.6932   48.5028 H   0  0  0  0  0  0  0  0  0  0  0  0
   59.4953   29.7212   46.2505 H   0  0  0  0  0  0  0  0  0  0  0  0
   61.3468   31.3509   45.8745 H   0  0  0  0  0  0  0  0  0  0  0  0
  1  2  2  0
  2  3  1  0
  3  4  1  0
  4  5  1  0
  5  6  2  0
  6  7  1  0
  7  8  2  0
  8  9  1  0
  9 10  2  0
  4 11  1  0
 11 12  2  0
 11 13  1  0
 13 14  2  3
 14 15  1  0
 15 16  1  0
 16 17  2  0
 17 18  1  0
 18 19  2  0
 19 20  1  0
 20 21  2  0
 21 22  1  0
 22 23  2  3
 23 24  1  0
 24 25  1  0
 25 26  1  0
 24 27  1  0
 27 28  1  0
 28 29  2  0
 29 30  1  0
 30 31  2  0
 31 32  1  0
 32 33  2  0
 22 34  1  0
 34 35  2  0
 13  2  1  0
 34 14  1  0
 10  5  1  0
 21 16  1  0
 33 28  1  0
  1 36  1  0
  1 37  1  0
  6 38  1  0
  7 39  1  0
  8 40  1  0
  9 41  1  0
 10 42  1  0
 17 43  1  0
 18 44  1  0
 19 45  1  0
 20 46  1  0
 23 47  1  0
 25 48  1  0
 25 49  1  0
 26 50  1  0
 26 51  1  0
 26 52  1  0
 27 53  1  0
 27 54  1  0
 29 55  1  0
 30 56  1  0
 31 57  1  0
 32 58  1  0
 33 59  1  0
M  CHG  2   3  -1  15  -1
M  END
>  <UniqueID>  (1) 
1

>  <SMILES>  (1) 
C=c1[n-]n(-c2ccccc2)c(=O)c1=c1[n-]c2ccccc2c(=CN(CC)Cc2ccccc2)c1=O

>  <Energy>  (1) 
138.62821970477017

>  <Genealogy>  (1) 
C=c1[n-]n(-c2ccccc2)c(=O)c1=c1[n-]c2ccccc2c(=CN(CC)Cc2ccccc2)c1=O (protonated)
C=c1[n-]n(-c2ccccc2)c(=O)c1=c1[n-]c2ccccc2c(=CN(CC)Cc2ccccc2)c1=O (3D coordinates assigned)
C=c1[n-]n(-c2ccccc2)c(=O)c1=c1[n-]c2ccccc2c(=CN(CC)Cc2ccccc2)c1=O (optimized conformer: 138.62821970477017 kcal/mol)

>  <smiles>  (1) 
C=c1[nH]n(-c2ccccc2)c(=O)c1=c1[nH]c2ccccc2c(=CN(CC)Cc2ccccc2)c1=O

>  <score_type>  (1) 
oracle

>  <origin>  (1) 
adg

>  <m_score__min__energy>  (1) 
-11.789999999999999

>  <m_primary>  (1) 
energy

$$$$
1:0
     RDKit          3D

 45 47  0  0  0  0  0  0  0  0999 V2000
   57.2266   29.7316   42.5575 H   0  0  0  0  0  0  0  0  0  0  0  0
   56.9370   30.2490   43.4840 C   0  0  0  0  0  0  0  0  0  0  0  0
   56.0300   29.5320   44.4030 C   0  0  0  0  0  0  0  0  0  0  0  0
   54.8260   29.3790   44.0640 O   0  0  0  0  0  0  0  0  0  0  0  0
   56.5330   28.9140   45.5960 N   0  0  0  0  0  0  0  0  0  0  0  0
   57.7080   28.1020   45.7490 C   0  0  0  0  0  0  0  0  0  0  0  0
   58.9840   28.6030   45.4210 C   0  0  0  0  0  0  0  0  0  0  0  0
   59.0889   29.6391   45.0669 H   0  0  0  0  0  0  0  0  0  0  0  0
   60.1150   27.7950   45.5420 C   0  0  0  0  0  0  0  0  0  0  0  0
   61.1075   28.2005   45.2961 H   0  0  0  0  0  0  0  0  0  0  0  0
   59.9910   26.4770   45.9730 C   0  0  0  0  0  0  0  0  0  0  0  0
   60.8865   25.8470   46.0789 H   0  0  0  0  0  0  0  0  0  0  0  0
   58.7310   25.9540   46.2710 C   0  0  0  0  0  0  0  0  0  0  0  0
   58.6399   24.9081   46.5993 H   0  0  0  0  0  0  0  0  0  0  0  0
   57.5770   26.7500   46.1560 C   0  0  0  0  0  0  0  0  0  0  0  0
   56.2570   26.1390   46.4490 C   0  0  0  0  0  0  0  0  0  0  0  0
   55.1970   26.6420   45.9830 O   0  0  0  0  0  0  0  0  0  0  0  0
   56.1890   24.9950   47.2510 O   0  0  0  0  0  0  0  0  0  0  0  0
   55.9820   23.6940   46.7160 C   0  0  0  0  0  0  0  0  0  0  0  0
   55.8673   22.9731   47.5389 H   0  0  0  0  0  0  0  0  0  0  0  0
   55.0723   23.6923   46.0976 H   0  0  0  0  0  0  0  0  0  0  0  0
   56.8463   23.4101   46.0976 H   0  0  0  0  0  0  0  0  0  0  0  0
   57.4380   31.4780   43.6830 C   0  0  0  0  0  0  0  0  0  0  0  0
   57.4970   32.1514   42.8152 H   0  0  0  0  0  0  0  0  0  0  0  0
   57.9150   31.9910   44.9800 C   0  0  0  0  0  0  0  0  0  0  0  0
   57.2090   32.9950   45.6570 C   0  0  0  0  0  0  0  0  0  0  0  0
   56.2725   33.3861   45.2326 H   0  0  0  0  0  0  0  0  0  0  0  0
   57.6880   33.5020   46.8680 C   0  0  0  0  0  0  0  0  0  0  0  0
   57.1310   34.2971   47.3853 H   0  0  0  0  0  0  0  0  0  0  0  0
   58.8780   33.0030   47.4310 C   0  0  0  0  0  0  0  0  0  0  0  0
   59.4110   33.5460   48.7090 C   0  0  0  0  0  0  0  0  0  0  0  0
   58.8670   33.2150   49.7970 O   0  0  0  0  0  0  0  0  0  0  0  0
   60.5840   34.3690   48.7590 N   0  0  0  0  0  0  0  0  0  0  0  0
   61.8100   33.9590   48.6080 C   0  0  0  0  0  0  0  0  0  0  0  0
   62.8730   33.7410   49.8920 S   0  0  0  0  0  0  0  0  0  0  0  0
   64.1300   33.2680   48.8770 C   0  0  0  0  0  0  0  0  0  0  0  0
   65.3760   32.9220   49.2800 F   0  0  0  0  0  0  0  0  0  0  0  0
   63.6900   33.3010   47.5620 C   0  0  0  0  0  0  0  0  0  0  0  0
   64.3331   33.0344   46.7103 H   0  0  0  0  0  0  0  0  0  0  0  0
   62.3960   33.6910   47.4160 N   0  0  0  0  0  0  0  0  0  0  0  0
   61.9350   33.7870   46.4860 H   0  0  0  0  0  0  0  0  0  0  0  0
   59.5910   32.0100   46.7350 C   0  0  0  0  0  0  0  0  0  0  0  0
   60.5276   31.6158   47.1562 H   0  0  0  0  0  0  0  0  0  0  0  0
   59.1210   31.5190   45.5130 C   0  0  0  0  0  0  0  0  0  0  0  0
   59.7007   30.7592   44.9683 H   0  0  0  0  0  0  0  0  0  0  0  0
  1  2  1  0
  2  3  1  0
  3  4  2  0
  3  5  1  0
  5  6  1  0
  6  7  2  0
  7  8  1  0
  7  9  1  0
  9 10  1  0
  9 11  2  0
 11 12  1  0
 11 13  1  0
 13 14  1  0
 13 15  2  0
 15 16  1  0
 16 17  2  0
 16 18  1  0
 18 19  1  0
 19 20  1  0
 19 21  1  0
 19 22  1  0
  2 23  2  3
 23 24  1  0
 23 25  1  0
 25 26  2  0
 26 27  1  0
 26 28  1  0
 28 29  1  0
 28 30  2  0
 30 31  1  0
 31 32  2  0
 31 33  1  0
 33 34  2  0
 34 35  1  0
 35 36  1  0
 36 37  1  0
 36 38  2  0
 38 39  1  0
 38 40  1  0
 40 41  1  0
 30 42  1  0
 42 43  1  0
 42 44  2  0
 44 45  1  0
 15  6  1  0
 44 25  1  0
 40 34  1  0
M  CHG  1   5  -1
M  END
>  <UniqueID>  (2) 
2

>  <SMILES>  (2) 
COC(=O)c1ccccc1[N-]C(=O)C=Cc1ccc(C(=O)/N=c2\[nH]cc(F)s2)cc1

>  <Energy>  (2) 
93.66805534958236

>  <Genealogy>  (2) 
COC(=O)c1ccccc1[N-]C(=O)C=Cc1ccc(C(=O)N=c2[nH]cc(F)s2)cc1 (protonated)
COC(=O)c1ccccc1[N-]C(=O)C=Cc1ccc(C(=O)/N=c2\[nH]cc(F)s2)cc1 (cis-trans isomerization)
COC(=O)c1ccccc1[N-]C(=O)C=Cc1ccc(C(=O)/N=c2\[nH]cc(F)s2)cc1 (3D coordinates assigned)
COC(=O)c1ccccc1[N-]C(=O)C=Cc1ccc(C(=O)/N=c2\[nH]cc(F)s2)cc1 (optimized conformer: 93.66805534958236 kcal/mol)

>  <smiles>  (2) 
COC(=O)c1ccccc1NC(=O)C=Cc1ccc(C(=O)N=c2[nH]cc(F)s2)cc1

>  <score_type>  (2) 
oracle

>  <origin>  (2) 
adg

>  <m_score__min__energy>  (2) 
-10.970000000000001

>  <m_primary>  (2) 
energy

$$$$
2:0
     RDKit          3D

 52 55  0  0  0  0  0  0  0  0999 V2000
   57.9720   25.0380   45.7160 O   0  0  0  0  0  0  0  0  0  0  0  0
   58.4270   26.1760   46.0080 C   0  0  0  0  0  0  0  0  0  0  0  0
   59.6260   26.2690   46.7850 N   0  0  0  0  0  0  0  0  0  0  0  0
   59.6080   26.4940   48.2280 C   0  0  0  0  0  0  0  0  0  0  0  0
   59.7910   27.9530   48.5460 C   0  0  0  0  0  0  0  0  0  0  0  0
   60.8990   28.3810   49.2950 C   0  0  0  0  0  0  0  0  0  0  0  0
   61.0060   29.7150   49.6970 C   0  0  0  0  0  0  0  0  0  0  0  0
   60.0100   30.6470   49.3550 C   0  0  0  0  0  0  0  0  0  0  0  0
   60.0940   32.0440   49.8390 C   0  0  0  0  0  0  0  0  0  0  0  0
   59.7650   32.3170   51.0270 O   0  0  0  0  0  0  0  0  0  0  0  0
   60.5030   33.1110   48.9660 N   0  0  0  0  0  0  0  0  0  0  0  0
   61.5690   34.0210   49.3940 C   0  0  0  0  0  0  0  0  0  0  0  0
   62.8980   33.6520   48.7280 C   0  0  0  0  0  0  0  0  0  0  0  0
   62.7250   33.0020   47.3470 C   0  0  0  0  0  0  0  0  0  0  0  0
   61.9090   33.8730   46.3770 C   0  0  0  0  0  0  0  0  0  0  0  0
   60.4050   33.7090   46.5240 C   0  0  0  0  0  0  0  0  0  0  0  0
   59.6150   33.8830   45.3710 C   0  0  0  0  0  0  0  0  0  0  0  0
   58.2260   33.7620   45.4250 C   0  0  0  0  0  0  0  0  0  0  0  0
   57.5990   33.4480   46.6290 C   0  0  0  0  0  0  0  0  0  0  0  0
   58.3610   33.2430   47.7800 C   0  0  0  0  0  0  0  0  0  0  0  0
   59.7630   33.3570   47.7490 C   0  0  0  0  0  0  0  0  0  0  0  0
   58.9050   30.2150   48.5990 C   0  0  0  0  0  0  0  0  0  0  0  0
   58.7980   28.8800   48.1950 C   0  0  0  0  0  0  0  0  0  0  0  0
   57.7360   27.3980   45.5380 C   0  0  0  0  0  0  0  0  0  0  0  0
   58.4820   28.4720   45.0270 C   0  0  0  0  0  0  0  0  0  0  0  0
   57.8430   29.6470   44.6310 C   0  0  0  0  0  0  0  0  0  0  0  0
   56.4550   29.7420   44.7440 C   0  0  0  0  0  0  0  0  0  0  0  0
   55.8620   30.7960   44.3960 O   0  0  0  0  0  0  0  0  0  0  0  0
   55.7400   28.6920   45.2290 N   0  0  0  0  0  0  0  0  0  0  0  0
   56.3360   27.5320   45.6220 C   0  0  0  0  0  0  0  0  0  0  0  0
   55.5510   26.4960   46.1190 O   0  0  0  0  0  0  0  0  0  0  0  0
   58.6431   26.1553   48.6333 H   0  0  0  0  0  0  0  0  0  0  0  0
   60.4352   25.9288   48.6822 H   0  0  0  0  0  0  0  0  0  0  0  0
   61.6865   27.6627   49.5666 H   0  0  0  0  0  0  0  0  0  0  0  0
   61.8767   30.0389   50.2860 H   0  0  0  0  0  0  0  0  0  0  0  0
   61.2988   35.0500   49.1144 H   0  0  0  0  0  0  0  0  0  0  0  0
   61.6861   33.9392   50.4847 H   0  0  0  0  0  0  0  0  0  0  0  0
   63.4959   34.5678   48.6105 H   0  0  0  0  0  0  0  0  0  0  0  0
   63.3936   32.9141   49.3759 H   0  0  0  0  0  0  0  0  0  0  0  0
   63.7207   32.8299   46.9123 H   0  0  0  0  0  0  0  0  0  0  0  0
   62.1744   32.0606   47.4904 H   0  0  0  0  0  0  0  0  0  0  0  0
   62.1626   34.9275   46.5603 H   0  0  0  0  0  0  0  0  0  0  0  0
   62.1691   33.5490   45.3585 H   0  0  0  0  0  0  0  0  0  0  0  0
   60.1009   34.1181   44.4125 H   0  0  0  0  0  0  0  0  0  0  0  0
   57.6254   33.9147   44.5162 H   0  0  0  0  0  0  0  0  0  0  0  0
   56.5032   33.3617   46.6723 H   0  0  0  0  0  0  0  0  0  0  0  0
   57.8584   32.9887   48.7248 H   0  0  0  0  0  0  0  0  0  0  0  0
   58.1186   30.9330   48.3233 H   0  0  0  0  0  0  0  0  0  0  0  0
   57.9318   28.5557   47.5997 H   0  0  0  0  0  0  0  0  0  0  0  0
   59.5751   28.3865   44.9385 H   0  0  0  0  0  0  0  0  0  0  0  0
   58.4270   30.4902   44.2337 H   0  0  0  0  0  0  0  0  0  0  0  0
   55.9260   25.5580   46.2120 H   0  0  0  0  0  0  0  0  0  0  0  0
  1  2  2  0
  2  3  1  0
  3  4  1  0
  4  5  1  0
  5  6  2  0
  6  7  1  0
  7  8  2  0
  8  9  1  0
  9 10  2  0
  9 11  1  0
 11 12  1  0
 12 13  1  0
 13 14  1  0
 14 15  1  0
 15 16  1  0
 16 17  2  0
 17 18  1  0
 18 19  2  0
 19 20  1  0
 20 21  2  0
  8 22  1  0
 22 23  2  0
  2 24  1  0
 24 25  1  0
 25 26  2  0
 26 27  1  0
 27 28  2  0
 27 29  1  0
 29 30  1  0
 30 31  1  0
 23  5  1  0
 30 24  2  0
 21 11  1  0
 21 16  1  0
  4 32  1  0
  4 33  1  0
  6 34  1  0
  7 35  1  0
 12 36  1  0
 12 37  1  0
 13 38  1  0
 13 39  1  0
 14 40  1  0
 14 41  1  0
 15 42  1  0
 15 43  1  0
 17 44  1  0
 18 45  1  0
 19 46  1  0
 20 47  1  0
 22 48  1  0
 23 49  1  0
 25 50  1  0
 26 51  1  0
 31 52  1  0
M  CHG  2   3  -1  29  -1
M  END
>  <UniqueID>  (3) 
3

>  <SMILES>  (3) 
O=C([N-]Cc1ccc(C(=O)N2CCCCc3ccccc32)cc1)c1ccc(=O)[n-]c1O

>  <Energy>  (3) 
74.96398621340617

>  <Genealogy>  (3) 
O=C([N-]Cc1ccc(C(=O)N2CCCCc3ccccc32)cc1)c1ccc(=O)[n-]c1O (protonated)
O=C([N-]Cc1ccc(C(=O)N2CCCCc3ccccc32)cc1)c1ccc(=O)[n-]c1O (3D coordinates assigned)
O=C([N-]Cc1ccc(C(=O)N2CCCCc3ccccc32)cc1)c1ccc(=O)[n-]c1O (nonaromatic ring conformer: 74.96398621340617 kcal/mol)

>  <smiles>  (3) 
O=C(NCc1ccc(C(=O)N2CCCCc3ccccc32)cc1)c1ccc(=O)[nH]c1O

>  <score_type>  (3) 
oracle

>  <origin>  (3) 
adg

>  <m_score__min__energy>  (3) 
-11.4

>  <m_primary>  (3) 
energy

$$$$
3:0
     RDKit          3D

 47 49  0  0  0  0  0  0  0  0999 V2000
   58.2190   21.5760   44.7920 C   0  0  0  0  0  0  0  0  0  0  0  0
   57.1380   22.2300   43.9370 C   0  0  0  0  0  0  0  0  0  0  0  0
   55.9060   21.5180   44.0500 O   0  0  0  0  0  0  0  0  0  0  0  0
   55.4250   20.8860   45.2100 C   0  0  0  0  0  0  0  0  0  0  0  0
   55.1660   19.5020   45.2650 C   0  0  0  0  0  0  0  0  0  0  0  0
   54.6970   18.9170   46.4440 C   0  0  0  0  0  0  0  0  0  0  0  0
   54.4810   19.7010   47.5780 C   0  0  0  0  0  0  0  0  0  0  0  0
   54.7300   21.0740   47.5360 C   0  0  0  0  0  0  0  0  0  0  0  0
   55.1950   21.6720   46.3560 C   0  0  0  0  0  0  0  0  0  0  0  0
   55.4410   23.0920   46.3260 N   0  0  0  0  0  0  0  0  0  0  0  0
   54.5980   23.9280   45.6460 C   0  0  0  0  0  0  0  0  0  0  0  0
   53.5900   23.4730   45.0390 O   0  0  0  0  0  0  0  0  0  0  0  0
   54.8350   25.2620   45.6240 N   0  0  0  0  0  0  0  0  0  0  0  0
   55.9080   25.7840   46.2740 C   0  0  0  0  0  0  0  0  0  0  0  0
   56.1420   27.0620   46.2640 N   0  0  0  0  0  0  0  0  0  0  0  0
   56.8840   27.7670   45.2200 C   0  0  0  0  0  0  0  0  0  0  0  0
   56.2870   29.1160   44.9700 C   0  0  0  0  0  0  0  0  0  0  0  0
   55.1230   29.2120   44.4960 O   0  0  0  0  0  0  0  0  0  0  0  0
   57.0460   30.2910   45.2690 N   0  0  0  0  0  0  0  0  0  0  0  0
   57.1390   31.4240   44.3600 C   0  0  0  0  0  0  0  0  0  0  0  0
   57.8460   32.5550   45.0500 C   0  0  0  0  0  0  0  0  0  0  0  0
   57.8580   32.6370   46.4530 C   0  0  0  0  0  0  0  0  0  0  0  0
   58.4840   33.7130   47.0900 C   0  0  0  0  0  0  0  0  0  0  0  0
   59.0900   34.7190   46.3310 C   0  0  0  0  0  0  0  0  0  0  0  0
   59.0710   34.6520   44.9360 C   0  0  0  0  0  0  0  0  0  0  0  0
   58.4470   33.5770   44.2950 C   0  0  0  0  0  0  0  0  0  0  0  0
   56.7460   24.9590   46.9470 N   0  0  0  0  0  0  0  0  0  0  0  0
   56.5200   23.6220   46.9800 C   0  0  0  0  0  0  0  0  0  0  0  0
   57.3210   22.8780   47.6100 O   0  0  0  0  0  0  0  0  0  0  0  0
   57.9815   21.7197   45.8564 H   0  0  0  0  0  0  0  0  0  0  0  0
   58.2626   20.4999   44.5680 H   0  0  0  0  0  0  0  0  0  0  0  0
   59.1924   22.0368   44.5680 H   0  0  0  0  0  0  0  0  0  0  0  0
   56.9885   23.2662   44.2744 H   0  0  0  0  0  0  0  0  0  0  0  0
   57.4607   22.2138   42.8855 H   0  0  0  0  0  0  0  0  0  0  0  0
   55.3340   18.8785   44.3745 H   0  0  0  0  0  0  0  0  0  0  0  0
   54.4975   17.8358   46.4784 H   0  0  0  0  0  0  0  0  0  0  0  0
   54.1143   19.2369   48.5055 H   0  0  0  0  0  0  0  0  0  0  0  0
   54.5608   21.6891   48.4321 H   0  0  0  0  0  0  0  0  0  0  0  0
   57.9299   27.8878   45.5385 H   0  0  0  0  0  0  0  0  0  0  0  0
   56.8348   27.1795   44.2913 H   0  0  0  0  0  0  0  0  0  0  0  0
   57.7035   31.1302   43.4627 H   0  0  0  0  0  0  0  0  0  0  0  0
   56.1289   31.7449   44.0655 H   0  0  0  0  0  0  0  0  0  0  0  0
   57.3733   31.8520   47.0521 H   0  0  0  0  0  0  0  0  0  0  0  0
   58.4997   33.7681   48.1885 H   0  0  0  0  0  0  0  0  0  0  0  0
   59.5825   35.5646   46.8334 H   0  0  0  0  0  0  0  0  0  0  0  0
   59.5472   35.4453   44.3411 H   0  0  0  0  0  0  0  0  0  0  0  0
   58.4265   33.5311   43.1961 H   0  0  0  0  0  0  0  0  0  0  0  0
  1  2  1  0
  2  3  1  0
  3  4  1  0
  4  5  2  0
  5  6  1  0
  6  7  2  0
  7  8  1  0
  8  9  2  0
  9 10  1  0
 10 11  1  0
 11 12  2  0
 11 13  1  0
 13 14  1  0
 14 15  2  3
 15 16  1  0
 16 17  1  0
 17 18  2  0
 17 19  1  0
 19 20  1  0
 20 21  1  0
 21 22  2  0
 22 23  1  0
 23 24  2  0
 24 25  1  0
 25 26  2  0
 14 27  1  0
 27 28  1  0
 28 29  2  0
  9  4  1  0
 28 10  1  0
 26 21  1  0
  1 30  1  0
  1 31  1  0
  1 32  1  0
  2 33  1  0
  2 34  1  0
  5 35  1  0
  6 36  1  0
  7 37  1  0
  8 38  1  0
 16 39  1  0
 16 40  1  0
 20 41  1  0
 20 42  1  0
 22 43  1  0
 23 44  1  0
 24 45  1  0
 25 46  1  0
 26 47  1  0
M  CHG  3  13  -1  19  -1  27  -1
M  END
>  <UniqueID>  (4) 
4

>  <SMILES>  (4) 
CCOc1ccccc1-n1c(=O)[n-]c(=NCC(=O)[N-]Cc2ccccc2)[n-]c1=O

>  <Energy>  (4) 
53.54343726007913

>  <Genealogy>  (4) 
CCOc1ccccc1-n1c(=O)[n-]c(=NCC(=O)[N-]Cc2ccccc2)[n-]c1=O (protonated)
CCOc1ccccc1-n1c(=O)[n-]c(=NCC(=O)[N-]Cc2ccccc2)[n-]c1=O (3D coordinates assigned)
CCOc1ccccc1-n1c(=O)[n-]c(=NCC(=O)[N-]Cc2ccccc2)[n-]c1=O (optimized conformer: 53.54343726007913 kcal/mol)

>  <smiles>  (4) 
CCOc1ccccc1-n1c(=O)[nH]c(=NCC(=O)NCc2ccccc2)[nH]c1=O

>  <score_type>  (4) 
oracle

>  <origin>  (4) 
adg

>  <m_score__min__energy>  (4) 
-13.17

>  <m_primary>  (4) 
energy

$$$$
4:0
     RDKit          3D

 31 34  0  0  0  0  0  0  0  0999 V2000
   56.4150   28.4970   44.4190 H   0  0  0  0  0  0  0  0  0  0  0  0
   55.8810   28.2560   45.2450 O   0  0  0  0  0  0  0  0  0  0  0  0
   56.1360   27.0740   45.9340 C   0  0  0  0  0  0  0  0  0  0  0  0
   55.2740   26.0460   45.9970 N   0  0  0  0  0  0  0  0  0  0  0  0
   55.9660   25.1200   46.6930 C   0  0  0  0  0  0  0  0  0  0  0  0
   55.4940   23.9850   46.9640 O   0  0  0  0  0  0  0  0  0  0  0  0
   57.2060   25.5000   47.0650 N   0  0  0  0  0  0  0  0  0  0  0  0
   57.3000   26.7580   46.6000 C   0  0  0  0  0  0  0  0  0  0  0  0
   58.5260   27.5690   46.7080 C   0  0  0  0  0  0  0  0  0  0  0  0
   59.4846   27.0934   46.4532 H   0  0  0  0  0  0  0  0  0  0  0  0
   58.5430   28.8510   47.0980 C   0  0  0  0  0  0  0  0  0  0  0  0
   58.8870   29.3950   48.3360 C   0  0  0  0  0  0  0  0  0  0  0  0
   59.1776   28.8144   49.2240 H   0  0  0  0  0  0  0  0  0  0  0  0
   58.8090   30.7470   48.2790 N   0  0  0  0  0  0  0  0  0  0  0  0
   58.4320   31.0660   47.0510 N   0  0  0  0  0  0  0  0  0  0  0  0
   58.2250   32.3010   46.5080 C   0  0  0  0  0  0  0  0  0  0  0  0
   58.3720   33.4100   47.1780 N   0  0  0  0  0  0  0  0  0  0  0  0
   59.4910   34.3420   47.0780 C   0  0  0  0  0  0  0  0  0  0  0  0
   59.4711   34.7104   48.1143 H   0  0  0  0  0  0  0  0  0  0  0  0
   60.5870   33.8930   46.1290 C   0  0  0  0  0  0  0  0  0  0  0  0
   61.6350   34.1567   46.3345 H   0  0  0  0  0  0  0  0  0  0  0  0
   60.9115   32.9264   45.7163 H   0  0  0  0  0  0  0  0  0  0  0  0
   59.6010   34.9700   45.7010 C   0  0  0  0  0  0  0  0  0  0  0  0
   59.9359   36.0126   45.5969 H   0  0  0  0  0  0  0  0  0  0  0  0
   58.9168   35.1052   44.8503 H   0  0  0  0  0  0  0  0  0  0  0  0
   57.8530   32.3650   45.2000 N   0  0  0  0  0  0  0  0  0  0  0  0
   57.6920   31.2280   44.4600 C   0  0  0  0  0  0  0  0  0  0  0  0
   57.2980   31.3220   43.0830 C   0  0  0  0  0  0  0  0  0  0  0  0
   56.9810   31.3970   41.9730 N   0  0  0  0  0  0  0  0  0  0  0  0
   57.9030   30.0040   45.0220 N   0  0  0  0  0  0  0  0  0  0  0  0
   58.2730   29.9560   46.3230 C   0  0  0  0  0  0  0  0  0  0  0  0
  1  2  1  0
  2  3  1  0
  3  4  1  0
  4  5  1  0
  5  6  2  0
  5  7  1  0
  7  8  1  0
  8  9  1  0
  9 10  1  0
  9 11  2  0
 11 12  1  0
 12 13  1  0
 12 14  2  0
 14 15  1  0
 15 16  1  0
 16 17  2  3
 17 18  1  0
 18 19  1  0
 18 20  1  0
 20 21  1  0
 20 22  1  0
 20 23  1  0
 23 24  1  0
 23 25  1  0
 16 26  1  0
 26 27  2  0
 27 28  1  0
 28 29  3  0
 27 30  1  0
 30 31  2  0
  8  3  2  0
 31 11  1  0
 31 15  1  0
 23 18  1  0
M  CHG  2   4  -1   7  -1
M  END
>  <UniqueID>  (5) 
5

>  <SMILES>  (5) 
N#Cc1nc(=NC2CC2)n2nc/c(=C\c3[n-]c(=O)[n-]c3O)c2n1

>  <Energy>  (5) 
373.25732580424534

>  <Genealogy>  (5) 
N#Cc1nc(=NC2CC2)n2ncc(=Cc3[n-]c(=O)[n-]c3O)c2n1 (protonated)
N#Cc1nc(=NC2CC2)n2nc/c(=C\c3[n-]c(=O)[n-]c3O)c2n1 (cis-trans isomerization)
N#Cc1nc(=NC2CC2)n2nc/c(=C\c3[n-]c(=O)[n-]c3O)c2n1 (3D coordinates assigned)
N#Cc1nc(=NC2CC2)n2nc/c(=C\c3[n-]c(=O)[n-]c3O)c2n1 (nonaromatic ring conformer: 373.25732580424534 kcal/mol)

>  <smiles>  (5) 
N#Cc1nc(=NC2CC2)n2ncc(=Cc3[nH]c(=O)[nH]c3O)c2n1

>  <score_type>  (5) 
oracle

>  <origin>  (5) 
adg

>  <m_score__min__energy>  (5) 
-11.699999999999999

>  <m_primary>  (5) 
energy

$$$$
5:0
     RDKit          3D

 48 50  0  0  0  0  0  0  0  0999 V2000
   58.3345   30.7767   42.5060 H   0  0  0  0  0  0  0  0  0  0  0  0
   57.8850   31.1810   43.4250 C   0  0  0  0  0  0  0  0  0  0  0  0
   57.4280   30.2450   44.4660 C   0  0  0  0  0  0  0  0  0  0  0  0
   56.2170   30.2170   44.8230 O   0  0  0  0  0  0  0  0  0  0  0  0
   58.3640   29.3950   45.0660 O   0  0  0  0  0  0  0  0  0  0  0  0
   58.5230   29.2720   46.4770 C   0  0  0  0  0  0  0  0  0  0  0  0
   58.9268   28.2760   46.7115 H   0  0  0  0  0  0  0  0  0  0  0  0
   57.5441   29.4045   46.9609 H   0  0  0  0  0  0  0  0  0  0  0  0
   59.4650   30.3200   46.9860 C   0  0  0  0  0  0  0  0  0  0  0  0
   59.9380   31.1780   46.1920 O   0  0  0  0  0  0  0  0  0  0  0  0
   59.8790   30.2970   48.3570 N   0  0  0  0  0  0  0  0  0  0  0  0
   59.6800   31.3610   49.2940 C   0  0  0  0  0  0  0  0  0  0  0  0
   58.5390   31.3270   50.1050 C   0  0  0  0  0  0  0  0  0  0  0  0
   57.8245   30.4966   50.0058 H   0  0  0  0  0  0  0  0  0  0  0  0
   58.3000   32.3370   51.0380 C   0  0  0  0  0  0  0  0  0  0  0  0
   57.4080   32.2928   51.6802 H   0  0  0  0  0  0  0  0  0  0  0  0
   59.1920   33.4020   51.1560 C   0  0  0  0  0  0  0  0  0  0  0  0
   59.0079   34.1925   51.8984 H   0  0  0  0  0  0  0  0  0  0  0  0
   60.3180   33.4670   50.3340 C   0  0  0  0  0  0  0  0  0  0  0  0
   61.0126   34.3150   50.4256 H   0  0  0  0  0  0  0  0  0  0  0  0
   60.5710   32.4570   49.3900 C   0  0  0  0  0  0  0  0  0  0  0  0
   61.6770   32.5990   48.4800 N   0  0  0  0  0  0  0  0  0  0  0  0
   62.0120   33.9380   47.9830 C   0  0  0  0  0  0  0  0  0  0  0  0
   61.0846   34.4838   47.7551 H   0  0  0  0  0  0  0  0  0  0  0  0
   62.5833   34.4752   48.7544 H   0  0  0  0  0  0  0  0  0  0  0  0
   62.8630   33.8320   46.7120 C   0  0  0  0  0  0  0  0  0  0  0  0
   62.2399   33.4425   45.8935 H   0  0  0  0  0  0  0  0  0  0  0  0
   63.2460   34.8325   46.4625 H   0  0  0  0  0  0  0  0  0  0  0  0
   63.9640   32.9640   46.9090 O   0  0  0  0  0  0  0  0  0  0  0  0
   63.4960   31.6480   47.1400 C   0  0  0  0  0  0  0  0  0  0  0  0
   62.8303   31.3513   46.3161 H   0  0  0  0  0  0  0  0  0  0  0  0
   64.3597   30.9691   47.1949 H   0  0  0  0  0  0  0  0  0  0  0  0
   62.7260   31.5740   48.4600 C   0  0  0  0  0  0  0  0  0  0  0  0
   62.2670   30.5794   48.5600 H   0  0  0  0  0  0  0  0  0  0  0  0
   63.4197   31.7471   49.2959 H   0  0  0  0  0  0  0  0  0  0  0  0
   57.7710   32.5100   43.5610 C   0  0  0  0  0  0  0  0  0  0  0  0
   57.3209   33.0768   42.7327 H   0  0  0  0  0  0  0  0  0  0  0  0
   58.2150   33.2640   44.7610 C   0  0  0  0  0  0  0  0  0  0  0  0
   57.5620   33.0220   45.9830 C   0  0  0  0  0  0  0  0  0  0  0  0
   56.7444   32.2875   46.0275 H   0  0  0  0  0  0  0  0  0  0  0  0
   57.9420   33.7060   47.1420 C   0  0  0  0  0  0  0  0  0  0  0  0
   57.4277   33.5036   48.0931 H   0  0  0  0  0  0  0  0  0  0  0  0
   58.9740   34.6460   47.0930 C   0  0  0  0  0  0  0  0  0  0  0  0
   59.3400   35.3090   48.2180 F   0  0  0  0  0  0  0  0  0  0  0  0
   59.6230   34.9070   45.8840 C   0  0  0  0  0  0  0  0  0  0  0  0
   60.4330   35.6502   45.8459 H   0  0  0  0  0  0  0  0  0  0  0  0
   59.2460   34.2260   44.7210 C   0  0  0  0  0  0  0  0  0  0  0  0
   59.7563   34.4420   43.7707 H   0  0  0  0  0  0  0  0  0  0  0  0
  1  2  1  0
  2  3  1  0
  3  4  2  0
  3  5  1  0
  5  6  1  0
  6  7  1  0
  6  8  1  0
  6  9  1  0
  9 10  2  0
  9 11  1  0
 11 12  1  0
 12 13  2  0
 13 14  1  0
 13 15  1  0
 15 16  1  0
 15 17  2  0
 17 18  1  0
 17 19  1  0
 19 20  1  0
 19 21  2  0
 21 22  1  0
 22 23  1  0
 23 24  1  0
 23 25  1  0
 23 26  1  0
 26 27  1  0
 26 28  1  0
 26 29  1  0
 29 30  1  0
 30 31  1  0
 30 32  1  0
 30 33  1  0
 33 34  1  0
 33 35  1  0
  2 36  2  0
 36 37  1  0
 36 38  1  0
 38 39  2  0
 39 40  1  0
 39 41  1  0
 41 42  1  0
 41 43  2  0
 43 44  1  0
 43 45  1  0
 45 46  1  0
 45 47  2  0
 47 48  1  0
 21 12  1  0
 33 22  1  0
 47 38  1  0
M  CHG  1  11  -1
M  END
>  <UniqueID>  (6) 
6

>  <SMILES>  (6) 
O=C(COC(=O)/C=C/c1ccc(F)cc1)[N-]c1ccccc1N1CCOCC1

>  <Energy>  (6) 
57.72919408139626

>  <Genealogy>  (6) 
O=C(COC(=O)C=Cc1ccc(F)cc1)[N-]c1ccccc1N1CCOCC1 (protonated)
O=C(COC(=O)/C=C/c1ccc(F)cc1)[N-]c1ccccc1N1CCOCC1 (cis-trans isomerization)
O=C(COC(=O)/C=C/c1ccc(F)cc1)[N-]c1ccccc1N1CCOCC1 (3D coordinates assigned)
O=C(COC(=O)/C=C/c1ccc(F)cc1)[N-]c1ccccc1N1CCOCC1 (nonaromatic ring conformer: 57.72919408139626 kcal/mol)

>  <smiles>  (6) 
O=C(COC(=O)C=Cc1ccc(F)cc1)Nc1ccccc1N1CCOCC1

>  <score_type>  (6) 
oracle

>  <origin>  (6) 
adg

>  <m_score__min__energy>  (6) 
-10.09

>  <m_primary>  (6) 
energy

$$$$
6:0
     RDKit          3D

 58 62  0  0  1  0  0  0  0  0999 V2000
   55.7480   18.9750   45.0500 C   0  0  0  0  0  0  0  0  0  0  0  0
   56.5260   20.2450   45.0980 C   0  0  0  0  0  0  0  0  0  0  0  0
   56.7000   20.9120   43.9230 C   0  0  0  0  0  0  0  0  0  0  0  0
   57.4030   22.1130   43.9060 C   0  0  0  0  0  0  0  0  0  0  0  0
   57.9160   22.6250   45.0660 C   0  0  0  0  0  0  0  0  0  0  0  0
   58.5480   23.7340   44.9900 N   0  0  0  0  0  0  0  0  0  0  0  0
   58.3450   24.7480   45.9520 C   0  0  0  0  0  0  0  0  0  0  0  0
   58.1020   24.5540   47.1610 O   0  0  0  0  0  0  0  0  0  0  0  0
   58.4190   26.1480   45.4880 C   0  0  0  0  0  0  0  0  0  0  0  0
   58.9920   27.1410   46.2910 C   0  0  0  0  0  0  0  0  0  0  0  0
   59.0680   28.4500   45.8660 C   0  0  0  0  0  0  0  0  0  0  0  0
   58.5650   28.7990   44.6040 C   0  0  0  0  0  0  0  0  0  0  0  0
   58.6440   30.1660   44.2200 N   0  0  0  0  0  0  0  0  0  0  0  0
   57.4310   30.9300   44.2530 C   0  0  0  0  0  0  0  0  0  0  0  0
   56.3140   30.3820   44.6000 O   0  0  0  0  0  0  0  0  0  0  0  0
   57.4170   32.3860   43.8780 C   0  0  0  0  0  0  0  0  0  0  0  0
   58.0770   33.1130   45.0010 C   0  0  0  0  0  0  0  0  0  0  0  0
   57.9960   32.4580   46.2340 C   0  0  0  0  0  0  0  0  0  0  0  0
   58.5940   33.0160   47.3330 C   0  0  0  0  0  0  0  0  0  0  0  0
   59.2690   34.2280   47.2060 C   0  0  0  0  0  0  0  0  0  0  0  0
   59.8750   34.7040   48.4200 N   0  0  0  0  0  0  0  0  0  0  0  0
   60.9850   34.1710   48.8580 C   0  0  0  0  0  0  0  0  0  0  0  0
   61.1280   33.8950   50.1570 N   0  0  0  0  0  0  0  0  0  0  0  0
   62.2420   33.3590   50.6790 C   0  0  0  0  0  0  0  0  0  0  0  0
   63.3250   33.0500   49.9000 N   0  0  0  0  0  0  0  0  0  0  0  0
   63.2120   33.3170   48.5490 C   0  0  0  0  0  0  0  0  0  0  0  0
   64.0240   33.1530   47.5030 N   0  0  0  0  0  0  0  0  0  0  0  0
   63.3990   33.5910   46.3870 C   0  0  0  0  0  0  0  0  0  0  0  0
   62.1670   34.0460   46.6980 N   0  0  0  0  0  0  0  0  0  0  0  0
   62.0570   33.8730   48.0440 C   0  0  0  0  0  0  0  0  0  0  0  0
   59.3600   34.8940   46.0030 C   0  0  0  0  0  0  0  0  0  0  0  0
   58.7370   34.2920   44.9030 C   0  0  0  0  0  0  0  0  0  0  0  0
   57.9900   27.8180   43.7880 C   0  0  0  0  0  0  0  0  0  0  0  0
   57.9190   26.5060   44.2280 C   0  0  0  0  0  0  0  0  0  0  0  0
   57.7370   21.9470   46.2420 N   0  0  0  0  0  0  0  0  0  0  0  0
   57.0530   20.7650   46.2770 C   0  0  0  0  0  0  0  0  0  0  0  0
   55.5391   18.6340   46.0747 H   0  0  0  0  0  0  0  0  0  0  0  0
   54.7994   19.1459   44.5199 H   0  0  0  0  0  0  0  0  0  0  0  0
   56.3312   18.2076   44.5199 H   0  0  0  0  0  0  0  0  0  0  0  0
   56.2859   20.5023   42.9899 H   0  0  0  0  0  0  0  0  0  0  0  0
   57.5464   22.6516   42.9577 H   0  0  0  0  0  0  0  0  0  0  0  0
   59.3894   26.8714   47.2806 H   0  0  0  0  0  0  0  0  0  0  0  0
   59.5204   29.2163   46.5126 H   0  0  0  0  0  0  0  0  0  0  0  0
   59.5660   30.6140   43.9060 H   0  0  0  0  0  0  0  0  0  0  0  0
   57.9737   32.5439   42.9425 H   0  0  0  0  0  0  0  0  0  0  0  0
   56.3909   32.7475   43.7154 H   0  0  0  0  0  0  0  0  0  0  0  0
   57.4568   31.5031   46.3206 H   0  0  0  0  0  0  0  0  0  0  0  0
   58.5416   32.5107   48.3087 H   0  0  0  0  0  0  0  0  0  0  0  0
   60.3360   34.1270   50.7930 H   0  0  0  0  0  0  0  0  0  0  0  0
   62.2864   33.1628   51.7605 H   0  0  0  0  0  0  0  0  0  0  0  0
   65.0100   32.7290   47.5500 H   0  0  0  0  0  0  0  0  0  0  0  0
   63.8307   33.5784   45.3753 H   0  0  0  0  0  0  0  0  0  0  0  0
   59.8953   35.8506   45.9115 H   0  0  0  0  0  0  0  0  0  0  0  0
   58.7851   34.7938   43.9253 H   0  0  0  0  0  0  0  0  0  0  0  0
   57.5946   28.0884   42.7978 H   0  0  0  0  0  0  0  0  0  0  0  0
   57.4663   25.7385   43.5830 H   0  0  0  0  0  0  0  0  0  0  0  0
   58.1500   22.3610   47.1280 H   0  0  0  0  0  0  0  0  0  0  0  0
   56.9198   20.2289   47.2282 H   0  0  0  0  0  0  0  0  0  0  0  0
  1  2  1  0
  2  3  1  0
  3  4  2  0
  4  5  1  0
  5  6  2  0
  6  7  1  0
  7  8  2  0
  7  9  1  0
  9 10  2  0
 10 11  1  0
 11 12  2  0
 12 13  1  0
 13 14  1  0
 14 15  2  0
 14 16  1  0
 16 17  1  0
 17 18  2  0
 18 19  1  0
 19 20  2  0
 20 21  1  0
 21 22  2  0
 22 23  1  0
 23 24  1  0
 24 25  2  0
 25 26  1  0
 26 27  1  0
 27 28  1  0
 28 29  2  0
 29 30  1  0
 20 31  1  0
 31 32  2  0
 12 33  1  0
 33 34  2  0
  5 35  1  0
 35 36  1  0
 36  2  2  0
 34  9  1  0
 32 17  1  0
 30 22  1  0
 30 26  2  0
  1 37  1  0
  1 38  1  0
  1 39  1  0
  3 40  1  0
  4 41  1  0
 10 42  1  0
 11 43  1  0
 13 44  1  0
 16 45  1  0
 16 46  1  0
 18 47  1  0
 19 48  1  0
 23 49  1  0
 24 50  1  0
 27 51  1  0
 28 52  1  0
 31 53  1  0
 32 54  1  0
 33 55  1  0
 34 56  1  0
 35 57  1  0
 36 58  1  0
M  END
>  <smiles>  (7) 
Cc1ccc(=NC(=O)c2ccc(NC(=O)Cc3ccc(N=c4[nH]cnc5[nH]cnc45)cc3)cc2)[nH]c1

>  <score_type>  (7) 
oracle

>  <origin>  (7) 
adg

>  <m_score__min__energy>  (7) 
-10.390000000000001

>  <m_primary>  (7) 
energy

$$$$
7:0
     RDKit          3D

 42 44  0  0  1  0  0  0  0  0999 V2000
   55.6580   22.4340   42.5990 O   0  0  0  0  0  0  0  0  0  0  0  0
   56.3630   22.3560   43.6150 C   0  0  0  0  0  0  0  0  0  0  0  0
   56.0980   23.1350   44.7320 C   0  0  0  0  0  0  0  0  0  0  0  0
   56.8910   23.0370   45.8570 C   0  0  0  0  0  0  0  0  0  0  0  0
   56.5280   23.9160   47.0100 C   0  0  0  0  0  0  0  0  0  0  0  0
   56.7000   25.3350   46.5960 C   0  0  0  0  0  0  0  0  0  0  0  0
   57.9320   25.9070   46.8540 C   0  0  0  0  0  0  0  0  0  0  0  0
   58.1140   27.2150   46.4800 C   0  0  0  0  0  0  0  0  0  0  0  0
   57.0830   27.9220   45.8640 C   0  0  0  0  0  0  0  0  0  0  0  0
   57.3150   29.1250   45.5400 N   0  0  0  0  0  0  0  0  0  0  0  0
   56.6350   29.8130   44.1500 S   0  0  0  0  0  0  0  0  0  0  0  0
   56.6150   28.9590   42.9250 O   0  0  0  0  0  0  0  0  0  0  0  0
   55.1370   29.8780   44.5010 O   0  0  0  0  0  0  0  0  0  0  0  0
   57.0560   31.4860   43.8460 C   0  0  0  0  0  0  0  0  0  0  0  0
   57.7590   32.1740   44.9520 C   0  0  0  0  0  0  0  0  0  0  0  0
   57.2170   33.4040   45.3500 C   0  0  0  0  0  0  0  0  0  0  0  0
   57.7980   34.1360   46.3690 C   0  0  0  0  0  0  0  0  0  0  0  0
   58.9330   33.6380   47.0000 C   0  0  0  0  0  0  0  0  0  0  0  0
   59.4710   32.4120   46.6020 C   0  0  0  0  0  0  0  0  0  0  0  0
   58.8830   31.6730   45.5730 C   0  0  0  0  0  0  0  0  0  0  0  0
   59.3900   30.4800   45.1820 F   0  0  0  0  0  0  0  0  0  0  0  0
   55.9170   27.3020   45.6460 N   0  0  0  0  0  0  0  0  0  0  0  0
   55.6700   26.0260   45.9860 C   0  0  0  0  0  0  0  0  0  0  0  0
   57.9460   22.1850   45.9100 N   0  0  0  0  0  0  0  0  0  0  0  0
   58.1960   21.4430   44.8450 N   0  0  0  0  0  0  0  0  0  0  0  0
   57.4530   21.4980   43.7170 C   0  0  0  0  0  0  0  0  0  0  0  0
   57.7070   20.7800   42.7040 O   0  0  0  0  0  0  0  0  0  0  0  0
   55.2500   23.8355   44.7207 H   0  0  0  0  0  0  0  0  0  0  0  0
   55.4812   23.7377   47.2970 H   0  0  0  0  0  0  0  0  0  0  0  0
   57.1756   23.6940   47.8710 H   0  0  0  0  0  0  0  0  0  0  0  0
   58.7360   25.3354   47.3406 H   0  0  0  0  0  0  0  0  0  0  0  0
   59.0792   27.7081   46.6676 H   0  0  0  0  0  0  0  0  0  0  0  0
   57.7062   31.5168   42.9592 H   0  0  0  0  0  0  0  0  0  0  0  0
   56.1032   32.0195   43.7137 H   0  0  0  0  0  0  0  0  0  0  0  0
   56.3193   33.7912   44.8459 H   0  0  0  0  0  0  0  0  0  0  0  0
   57.3678   35.1004   46.6769 H   0  0  0  0  0  0  0  0  0  0  0  0
   59.4067   34.2093   47.8120 H   0  0  0  0  0  0  0  0  0  0  0  0
   60.3688   32.0237   47.1052 H   0  0  0  0  0  0  0  0  0  0  0  0
   55.1590   27.8420   45.1850 H   0  0  0  0  0  0  0  0  0  0  0  0
   54.6960   25.5544   45.7887 H   0  0  0  0  0  0  0  0  0  0  0  0
   58.5340   22.1300   46.7780 H   0  0  0  0  0  0  0  0  0  0  0  0
   59.0210   20.7770   44.8870 H   0  0  0  0  0  0  0  0  0  0  0  0
  1  2  2  0
  2  3  1  0
  3  4  2  0
  4  5  1  0
  5  6  1  0
  6  7  1  0
  7  8  2  0
  8  9  1  0
  9 10  2  0
 10 11  1  0
 11 12  2  0
 11 13  2  0
 11 14  1  0
 14 15  1  0
 15 16  2  0
 16 17  1  0
 17 18  2  0
 18 19  1  0
 19 20  2  0
 20 21  1  0
  9 22  1  0
 22 23  1  0
  4 24  1  0
 24 25  1  0
 25 26  1  0
 26 27  2  0
 26  2  1  0
 23  6  2  0
 20 15  1  0
  3 28  1  0
  5 29  1  0
  5 30  1  0
  7 31  1  0
  8 32  1  0
 14 33  1  0
 14 34  1  0
 16 35  1  0
 17 36  1  0
 18 37  1  0
 19 38  1  0
 22 39  1  0
 23 40  1  0
 24 41  1  0
 25 42  1  0
M  END
>  <smiles>  (8) 
O=c1cc(Cc2ccc(=NS(=O)(=O)Cc3ccccc3F)[nH]c2)[nH][nH]c1=O

>  <score_type>  (8) 
oracle

>  <origin>  (8) 
adg

>  <m_score__min__energy>  (8) 
-9.5099999999999998

>  <m_primary>  (8) 
energy

$$$$
8:0
     RDKit          3D

 65 68  0  0  0  0  0  0  0  0999 V2000
   57.1110   24.1930   47.5710 H   0  0  0  0  0  0  0  0  0  0  0  0
   57.7950   24.9240   47.4190 O   0  0  0  0  0  0  0  0  0  0  0  0
   57.4730   26.1130   46.7590 C   0  0  0  0  0  0  0  0  0  0  0  0
   58.4410   27.1160   46.5880 C   0  0  0  0  0  0  0  0  0  0  0  0
   59.8330   26.9710   47.1330 C   0  0  0  0  0  0  0  0  0  0  0  0
   60.5593   27.1294   46.3222 H   0  0  0  0  0  0  0  0  0  0  0  0
   59.9521   25.9604   47.5508 H   0  0  0  0  0  0  0  0  0  0  0  0
   60.0720   27.9830   48.2190 C   0  0  0  0  0  0  0  0  0  0  0  0
   60.6710   27.5990   49.4290 C   0  0  0  0  0  0  0  0  0  0  0  0
   60.9975   26.5583   49.5716 H   0  0  0  0  0  0  0  0  0  0  0  0
   60.8550   28.5320   50.4540 C   0  0  0  0  0  0  0  0  0  0  0  0
   61.3297   28.2232   51.3970 H   0  0  0  0  0  0  0  0  0  0  0  0
   60.4350   29.8660   50.2840 C   0  0  0  0  0  0  0  0  0  0  0  0
   60.5950   30.8390   51.2830 O   0  0  0  0  0  0  0  0  0  0  0  0
   59.6330   31.8460   51.5840 C   0  0  0  0  0  0  0  0  0  0  0  0
   59.5368   31.9467   52.6751 H   0  0  0  0  0  0  0  0  0  0  0  0
   59.9592   32.8048   51.1546 H   0  0  0  0  0  0  0  0  0  0  0  0
   58.6603   31.5639   51.1546 H   0  0  0  0  0  0  0  0  0  0  0  0
   59.8310   30.2440   49.0790 C   0  0  0  0  0  0  0  0  0  0  0  0
   59.4993   31.2832   48.9373 H   0  0  0  0  0  0  0  0  0  0  0  0
   59.6460   29.3110   48.0540 C   0  0  0  0  0  0  0  0  0  0  0  0
   59.1645   29.6187   47.1140 H   0  0  0  0  0  0  0  0  0  0  0  0
   58.0980   28.2720   45.9610 N   0  0  0  0  0  0  0  0  0  0  0  0
   56.8410   28.4820   45.4850 C   0  0  0  0  0  0  0  0  0  0  0  0
   56.5300   29.5790   44.8610 N   0  0  0  0  0  0  0  0  0  0  0  0
   57.2280   30.8340   44.9360 C   0  0  0  0  0  0  0  0  0  0  0  0
   57.3020   31.6330   43.7890 C   0  0  0  0  0  0  0  0  0  0  0  0
   56.8425   31.2864   42.8516 H   0  0  0  0  0  0  0  0  0  0  0  0
   57.9560   32.8690   43.8260 C   0  0  0  0  0  0  0  0  0  0  0  0
   58.0238   33.4804   42.9141 H   0  0  0  0  0  0  0  0  0  0  0  0
   58.5260   33.3320   45.0220 C   0  0  0  0  0  0  0  0  0  0  0  0
   59.2110   34.6750   45.0630 C   0  0  0  0  0  0  0  0  0  0  0  0
   59.8952   34.7502   44.2049 H   0  0  0  0  0  0  0  0  0  0  0  0
   58.4336   35.4523   45.0240 H   0  0  0  0  0  0  0  0  0  0  0  0
   60.0150   34.8760   46.3560 C   0  0  0  0  0  0  0  0  0  0  0  0
   60.3380   35.9260   46.4127 H   0  0  0  0  0  0  0  0  0  0  0  0
   59.3647   34.6109   47.2027 H   0  0  0  0  0  0  0  0  0  0  0  0
   61.2600   33.9700   46.4140 C   0  0  0  0  0  0  0  0  0  0  0  0
   61.3359   33.4223   45.4631 H   0  0  0  0  0  0  0  0  0  0  0  0
   62.1265   34.6242   46.5909 H   0  0  0  0  0  0  0  0  0  0  0  0
   61.2270   32.9870   47.5180 N   0  0  0  0  0  0  0  0  0  0  0  0
   62.0950   31.8020   47.3400 C   0  0  0  0  0  0  0  0  0  0  0  0
   61.6109   30.9412   47.8244 H   0  0  0  0  0  0  0  0  0  0  0  0
   62.2230   31.6574   46.2571 H   0  0  0  0  0  0  0  0  0  0  0  0
   63.5080   31.9700   47.9430 C   0  0  0  0  0  0  0  0  0  0  0  0
   63.7532   31.0682   48.5232 H   0  0  0  0  0  0  0  0  0  0  0  0
   64.2108   32.1192   47.1100 H   0  0  0  0  0  0  0  0  0  0  0  0
   63.6090   33.1450   48.8300 N   0  0  0  0  0  0  0  0  0  0  0  0
   64.8480   33.0810   49.6220 C   0  0  0  0  0  0  0  0  0  0  0  0
   64.5993   33.0938   50.6935 H   0  0  0  0  0  0  0  0  0  0  0  0
   65.3890   32.1537   49.3822 H   0  0  0  0  0  0  0  0  0  0  0  0
   65.4816   33.9476   49.3822 H   0  0  0  0  0  0  0  0  0  0  0  0
   62.4360   33.2150   49.7120 C   0  0  0  0  0  0  0  0  0  0  0  0
   62.2874   32.2419   50.2030 H   0  0  0  0  0  0  0  0  0  0  0  0
   62.5966   33.9896   50.4763 H   0  0  0  0  0  0  0  0  0  0  0  0
   61.1950   33.5640   48.8820 C   0  0  0  0  0  0  0  0  0  0  0  0
   60.3057   33.1804   49.4036 H   0  0  0  0  0  0  0  0  0  0  0  0
   61.1694   34.6584   48.7746 H   0  0  0  0  0  0  0  0  0  0  0  0
   58.4170   32.5510   46.1830 C   0  0  0  0  0  0  0  0  0  0  0  0
   58.8451   32.9140   47.1290 H   0  0  0  0  0  0  0  0  0  0  0  0
   57.7670   31.3140   46.1430 C   0  0  0  0  0  0  0  0  0  0  0  0
   57.6767   30.7132   47.0600 H   0  0  0  0  0  0  0  0  0  0  0  0
   55.9020   27.5110   45.6250 N   0  0  0  0  0  0  0  0  0  0  0  0
   56.1860   26.3390   46.2510 C   0  0  0  0  0  0  0  0  0  0  0  0
   55.2870   25.4660   46.3700 O   0  0  0  0  0  0  0  0  0  0  0  0
  1  2  1  0
  2  3  1  0
  3  4  2  0
  4  5  1  0
  5  6  1  0
  5  7  1  0
  5  8  1  0
  8  9  2  0
  9 10  1  0
  9 11  1  0
 11 12  1  0
 11 13  2  0
 13 14  1  0
 14 15  1  0
 15 16  1  0
 15 17  1  0
 15 18  1  0
 13 19  1  0
 19 20  1  0
 19 21  2  0
 21 22  1  0
  4 23  1  0
 23 24  1  0
 24 25  2  0
 25 26  1  0
 26 27  2  0
 27 28  1  0
 27 29  1  0
 29 30  1  0
 29 31  2  0
 31 32  1  0
 32 33  1  0
 32 34  1  0
 32 35  1  0
 35 36  1  0
 35 37  1  0
 35 38  1  0
 38 39  1  0
 38 40  1  0
 38 41  1  0
 41 42  1  0
 42 43  1  0
 42 44  1  0
 42 45  1  0
 45 46  1  0
 45 47  1  0
 45 48  1  0
 48 49  1  0
 49 50  1  0
 49 51  1  0
 49 52  1  0
 48 53  1  0
 53 54  1  0
 53 55  1  0
 53 56  1  0
 56 57  1  0
 56 58  1  0
 31 59  1  0
 59 60  1  0
 59 61  2  0
 61 62  1  0
 24 63  1  0
 63 64  1  0
 64 65  2  0
 64  3  1  0
 21  8  1  0
 61 26  1  0
 56 41  1  0
M  CHG  2  23  -1  63  -1
M  END
>  <UniqueID>  (9) 
7

>  <SMILES>  (9) 
COc1ccc(Cc2[n-]/c(=N\c3ccc(CCCN4CCN(C)CC4)cc3)[n-]c(=O)c2O)cc1

>  <Energy>  (9) 
83.24969584726799

>  <Genealogy>  (9) 
COc1ccc(Cc2[n-]c(=Nc3ccc(CCCN4CCN(C)CC4)cc3)[n-]c(=O)c2O)cc1 (protonated)
COc1ccc(Cc2[n-]/c(=N\c3ccc(CCCN4CCN(C)CC4)cc3)[n-]c(=O)c2O)cc1 (cis-trans isomerization)
COc1ccc(Cc2[n-]/c(=N\c3ccc(CCCN4CCN(C)CC4)cc3)[n-]c(=O)c2O)cc1 (3D coordinates assigned)
COc1ccc(Cc2[n-]/c(=N\c3ccc(CCCN4CCN(C)CC4)cc3)[n-]c(=O)c2O)cc1 (nonaromatic ring conformer: 83.24969584726799 kcal/mol)

>  <smiles>  (9) 
COc1ccc(Cc2[nH]c(=Nc3ccc(CCCN4CCN(C)CC4)cc3)[nH]c(=O)c2O)cc1

>  <score_type>  (9) 
oracle

>  <origin>  (9) 
adg

>  <m_score__min__energy>  (9) 
-12.32

>  <m_primary>  (9) 
energy

$$$$
9:0
     RDKit          3D

 38 40  0  0  0  0  0  0  0  0999 V2000
   61.5289   33.7161   47.4212 H   0  0  0  0  0  0  0  0  0  0  0  0
   60.6000   33.3520   46.9580 C   0  0  0  0  0  0  0  0  0  0  0  0
   59.9570   32.2250   47.4750 C   0  0  0  0  0  0  0  0  0  0  0  0
   60.3832   31.6986   48.3418 H   0  0  0  0  0  0  0  0  0  0  0  0
   58.7720   31.7650   46.8920 C   0  0  0  0  0  0  0  0  0  0  0  0
   58.1540   30.6770   47.4200 F   0  0  0  0  0  0  0  0  0  0  0  0
   58.2130   32.4380   45.7910 C   0  0  0  0  0  0  0  0  0  0  0  0
   56.9810   31.9620   45.2250 N   0  0  0  0  0  0  0  0  0  0  0  0
   56.1980   32.6390   45.0800 H   0  0  0  0  0  0  0  0  0  0  0  0
   56.8550   30.4400   44.4010 S   0  0  0  0  0  0  0  0  0  0  0  0
   56.9180   30.6730   42.9180 O   0  0  0  0  0  0  0  0  0  0  0  0
   55.5370   29.8030   44.7410 O   0  0  0  0  0  0  0  0  0  0  0  0
   58.1930   29.3880   44.8560 C   0  0  0  0  0  0  0  0  0  0  0  0
   59.5160   29.7560   44.5800 C   0  0  0  0  0  0  0  0  0  0  0  0
   59.7278   30.7178   44.0899 H   0  0  0  0  0  0  0  0  0  0  0  0
   60.5660   28.9040   44.9260 C   0  0  0  0  0  0  0  0  0  0  0  0
   61.6035   29.1945   44.7040 H   0  0  0  0  0  0  0  0  0  0  0  0
   60.3040   27.6840   45.5530 C   0  0  0  0  0  0  0  0  0  0  0  0
   61.1362   27.0137   45.8139 H   0  0  0  0  0  0  0  0  0  0  0  0
   58.9820   27.3070   45.8530 C   0  0  0  0  0  0  0  0  0  0  0  0
   58.7070   26.0050   46.5070 C   0  0  0  0  0  0  0  0  0  0  0  0
   59.5480   25.0740   46.4110 O   0  0  0  0  0  0  0  0  0  0  0  0
   57.4710   25.7440   47.1910 N   0  0  0  0  0  0  0  0  0  0  0  0
   56.3450   25.4260   46.6250 C   0  0  0  0  0  0  0  0  0  0  0  0
   55.4220   26.3510   46.2890 N   0  0  0  0  0  0  0  0  0  0  0  0
   54.3530   25.8310   45.6890 N   0  0  0  0  0  0  0  0  0  0  0  0
   54.4170   24.4870   45.5500 C   0  0  0  0  0  0  0  0  0  0  0  0
   53.3800   23.6800   44.8490 C   0  0  0  0  0  0  0  0  0  0  0  0
   52.7395   23.1815   45.5914 H   0  0  0  0  0  0  0  0  0  0  0  0
   52.7657   24.3400   44.2189 H   0  0  0  0  0  0  0  0  0  0  0  0
   53.8689   22.9224   44.2189 H   0  0  0  0  0  0  0  0  0  0  0  0
   55.8650   23.8740   46.1540 S   0  0  0  0  0  0  0  0  0  0  0  0
   57.9310   28.1670   45.4910 C   0  0  0  0  0  0  0  0  0  0  0  0
   56.8920   27.8784   45.7085 H   0  0  0  0  0  0  0  0  0  0  0  0
   58.8790   33.5630   45.2650 C   0  0  0  0  0  0  0  0  0  0  0  0
   58.4100   34.2040   44.1660 F   0  0  0  0  0  0  0  0  0  0  0  0
   60.0640   34.0160   45.8540 C   0  0  0  0  0  0  0  0  0  0  0  0
   60.5757   34.8997   45.4451 H   0  0  0  0  0  0  0  0  0  0  0  0
  1  2  1  0
  2  3  2  0
  3  4  1  0
  3  5  1  0
  5  6  1  0
  5  7  2  0
  7  8  1  0
  8  9  1  0
  8 10  1  0
 10 11  2  0
 10 12  2  0
 10 13  1  0
 13 14  2  0
 14 15  1  0
 14 16  1  0
 16 17  1  0
 16 18  2  0
 18 19  1  0
 18 20  1  0
 20 21  1  0
 21 22  2  0
 21 23  1  0
 23 24  2  0
 24 25  1  0
 25 26  1  0
 26 27  2  0
 27 28  1  0
 28 29  1  0
 28 30  1  0
 28 31  1  0
 27 32  1  0
 20 33  2  0
 33 34  1  0
  7 35  1  0
 35 36  1  0
 35 37  2  0
 37 38  1  0
 37  2  1  0
 33 13  1  0
 32 24  1  0
M  CHG  1  25  -1
M  END
>  <UniqueID>  (10) 
8

>  <SMILES>  (10) 
Cc1n[n-]/c(=N/C(=O)c2cccc(S(=O)(=O)Nc3c(F)cccc3F)c2)s1

>  <Energy>  (10) 
86.27702351481514

>  <Genealogy>  (10) 
Cc1n[n-]c(=NC(=O)c2cccc(S(=O)(=O)Nc3c(F)cccc3F)c2)s1 (protonated)
Cc1n[n-]/c(=N/C(=O)c2cccc(S(=O)(=O)Nc3c(F)cccc3F)c2)s1 (cis-trans isomerization)
Cc1n[n-]/c(=N/C(=O)c2cccc(S(=O)(=O)Nc3c(F)cccc3F)c2)s1 (3D coordinates assigned)
Cc1n[n-]/c(=N/C(=O)c2cccc(S(=O)(=O)Nc3c(F)cccc3F)c2)s1 (optimized conformer: 86.27702351481514 kcal/mol)

>  <smiles>  (10) 
Cc1n[nH]c(=NC(=O)c2cccc(S(=O)(=O)Nc3c(F)cccc3F)c2)s1

>  <score_type>  (10) 
oracle

>  <origin>  (10) 
adg

>  <m_score__min__energy>  (10) 
-11.359999999999999

>  <m_primary>  (10) 
energy

$$$$
10:0
     RDKit          3D

 64 66  0  0  0  0  0  0  0  0999 V2000
   54.4910   29.3440   45.6580 H   0  0  0  0  0  0  0  0  0  0  0  0
   55.1500   29.2960   44.8520 N   0  0  0  0  0  0  0  0  0  0  0  0
   56.5070   29.7170   44.9800 C   0  0  0  0  0  0  0  0  0  0  0  0
   56.7720   30.9460   44.8730 O   0  0  0  0  0  0  0  0  0  0  0  0
   57.6010   28.7410   45.2400 C   0  0  0  0  0  0  0  0  0  0  0  0
   57.4140   27.3910   44.8860 C   0  0  0  0  0  0  0  0  0  0  0  0
   56.4601   27.0750   44.4386 H   0  0  0  0  0  0  0  0  0  0  0  0
   58.4230   26.4470   45.0950 C   0  0  0  0  0  0  0  0  0  0  0  0
   58.2636   25.3982   44.8040 H   0  0  0  0  0  0  0  0  0  0  0  0
   59.6310   26.8340   45.6720 C   0  0  0  0  0  0  0  0  0  0  0  0
   60.4257   26.0910   45.8345 H   0  0  0  0  0  0  0  0  0  0  0  0
   59.8330   28.1650   46.0440 C   0  0  0  0  0  0  0  0  0  0  0  0
   60.7871   28.4657   46.5015 H   0  0  0  0  0  0  0  0  0  0  0  0
   58.8270   29.1210   45.8380 C   0  0  0  0  0  0  0  0  0  0  0  0
   59.0670   30.4680   46.2660 N   0  0  0  0  0  0  0  0  0  0  0  0
   58.8510   30.8920   47.4760 C   0  0  0  0  0  0  0  0  0  0  0  0
   58.9530   30.1510   48.6390 C   0  0  0  0  0  0  0  0  0  0  0  0
   59.3032   29.1147   48.7547 H   0  0  0  0  0  0  0  0  0  0  0  0
   58.5100   31.0210   49.6270 C   0  0  0  0  0  0  0  0  0  0  0  0
   58.2630   30.6460   51.0370 C   0  0  0  0  0  0  0  0  0  0  0  0
   57.0750   30.4530   51.4100 O   0  0  0  0  0  0  0  0  0  0  0  0
   59.2950   30.5870   52.0280 N   0  0  0  0  0  0  0  0  0  0  0  0
   59.7760   31.6610   52.8910 C   0  0  0  0  0  0  0  0  0  0  0  0
   59.9524   31.2655   53.9022 H   0  0  0  0  0  0  0  0  0  0  0  0
   59.0208   32.4597   52.9317 H   0  0  0  0  0  0  0  0  0  0  0  0
   61.0610   32.2200   52.3420 C   0  0  0  0  0  0  0  0  0  0  0  0
   61.0510   33.3040   51.4470 C   0  0  0  0  0  0  0  0  0  0  0  0
   60.0941   33.7469   51.1336 H   0  0  0  0  0  0  0  0  0  0  0  0
   62.2540   33.8220   50.9530 C   0  0  0  0  0  0  0  0  0  0  0  0
   62.2384   34.6754   50.2591 H   0  0  0  0  0  0  0  0  0  0  0  0
   63.4840   33.2560   51.3400 C   0  0  0  0  0  0  0  0  0  0  0  0
   64.7880   33.8350   50.8390 C   0  0  0  0  0  0  0  0  0  0  0  0
   65.5250   33.8206   51.6555 H   0  0  0  0  0  0  0  0  0  0  0  0
   64.6062   34.8659   50.5012 H   0  0  0  0  0  0  0  0  0  0  0  0
   65.3140   33.0520   49.6990 N   0  0  0  0  0  0  0  0  0  0  0  0
   66.2560   32.0300   50.1920 C   0  0  0  0  0  0  0  0  0  0  0  0
   66.2552   32.0308   51.2920 H   0  0  0  0  0  0  0  0  0  0  0  0
   65.9473   31.0397   49.8259 H   0  0  0  0  0  0  0  0  0  0  0  0
   67.2681   32.2571   49.8259 H   0  0  0  0  0  0  0  0  0  0  0  0
   64.2170   32.4180   48.9310 C   0  0  0  0  0  0  0  0  0  0  0  0
   63.3678   32.2257   49.6033 H   0  0  0  0  0  0  0  0  0  0  0  0
   64.5812   31.4726   48.5025 H   0  0  0  0  0  0  0  0  0  0  0  0
   63.7600   33.3410   47.7880 C   0  0  0  0  0  0  0  0  0  0  0  0
   64.5453   33.3771   47.0185 H   0  0  0  0  0  0  0  0  0  0  0  0
   63.5778   34.3450   48.1989 H   0  0  0  0  0  0  0  0  0  0  0  0
   62.5070   32.8460   47.1780 N   0  0  0  0  0  0  0  0  0  0  0  0
   61.3750   33.7370   47.4900 C   0  0  0  0  0  0  0  0  0  0  0  0
   61.2659   33.8229   48.5812 H   0  0  0  0  0  0  0  0  0  0  0  0
   61.5627   34.7323   47.0608 H   0  0  0  0  0  0  0  0  0  0  0  0
   60.4517   33.3208   47.0608 H   0  0  0  0  0  0  0  0  0  0  0  0
   62.2080   31.4880   47.6530 C   0  0  0  0  0  0  0  0  0  0  0  0
   62.2055   31.4765   48.7529 H   0  0  0  0  0  0  0  0  0  0  0  0
   61.2202   31.1786   47.2808 H   0  0  0  0  0  0  0  0  0  0  0  0
   62.9745   30.7923   47.2808 H   0  0  0  0  0  0  0  0  0  0  0  0
   63.4910   32.1570   52.2140 C   0  0  0  0  0  0  0  0  0  0  0  0
   64.4460   31.6980   52.5094 H   0  0  0  0  0  0  0  0  0  0  0  0
   62.2870   31.6430   52.7110 C   0  0  0  0  0  0  0  0  0  0  0  0
   62.3016   30.7816   53.3949 H   0  0  0  0  0  0  0  0  0  0  0  0
   58.1610   32.2020   49.0710 N   0  0  0  0  0  0  0  0  0  0  0  0
   58.3960   32.1240   47.7700 N   0  0  0  0  0  0  0  0  0  0  0  0
   58.0220   33.1570   46.8140 C   0  0  0  0  0  0  0  0  0  0  0  0
   57.6961   34.0572   47.3557 H   0  0  0  0  0  0  0  0  0  0  0  0
   58.8882   33.4028   46.1821 H   0  0  0  0  0  0  0  0  0  0  0  0
   57.1992   32.7913   46.1821 H   0  0  0  0  0  0  0  0  0  0  0  0
  1  2  1  0
  2  3  1  0
  3  4  2  0
  3  5  1  0
  5  6  2  0
  6  7  1  0
  6  8  1  0
  8  9  1  0
  8 10  2  0
 10 11  1  0
 10 12  1  0
 12 13  1  0
 12 14  2  0
 14 15  1  0
 15 16  2  0
 16 17  1  0
 17 18  1  0
 17 19  2  0
 19 20  1  0
 20 21  2  0
 20 22  1  0
 22 23  1  0
 23 24  1  0
 23 25  1  0
 23 26  1  0
 26 27  2  0
 27 28  1  0
 27 29  1  0
 29 30  1  0
 29 31  2  0
 31 32  1  0
 32 33  1  0
 32 34  1  0
 32 35  1  0
 35 36  1  0
 36 37  1  0
 36 38  1  0
 36 39  1  0
 35 40  1  0
 40 41  1  0
 40 42  1  0
 40 43  1  0
 43 44  1  0
 43 45  1  0
 43 46  1  0
 46 47  1  0
 47 48  1  0
 47 49  1  0
 47 50  1  0
 46 51  1  0
 51 52  1  0
 51 53  1  0
 51 54  1  0
 31 55  1  0
 55 56  1  0
 55 57  2  0
 57 58  1  0
 19 59  1  0
 59 60  1  0
 60 61  1  0
 61 62  1  0
 61 63  1  0
 61 64  1  0
 14  5  1  0
 60 16  1  0
 57 26  1  0
M  CHG  3   2  -1  22  -1  59  -1
M  END
>  <UniqueID>  (11) 
9

>  <SMILES>  (11) 
CN(C)CCN(C)Cc1ccc(C[N-]C(=O)c2c/c(=N\c3ccccc3C([NH-])=O)n(C)[n-]2)cc1

>  <Energy>  (11) 
110.22824829834028

>  <Genealogy>  (11) 
CN(C)CCN(C)Cc1ccc(C[N-]C(=O)c2cc(=Nc3ccccc3C([NH-])=O)n(C)[n-]2)cc1 (protonated)
CN(C)CCN(C)Cc1ccc(C[N-]C(=O)c2c/c(=N\c3ccccc3C([NH-])=O)n(C)[n-]2)cc1 (cis-trans isomerization)
CN(C)CCN(C)Cc1ccc(C[N-]C(=O)c2c/c(=N\c3ccccc3C([NH-])=O)n(C)[n-]2)cc1 (3D coordinates assigned)
CN(C)CCN(C)Cc1ccc(C[N-]C(=O)c2c/c(=N\c3ccccc3C([NH-])=O)n(C)[n-]2)cc1 (optimized conformer: 110.22824829834028 kcal/mol)

>  <smiles>  (11) 
CN(C)CCN(C)Cc1ccc(CNC(=O)c2cc(=Nc3ccccc3C(N)=O)n(C)[nH]2)cc1

>  <score_type>  (11) 
oracle

>  <origin>  (11) 
adg

>  <m_score__min__energy>  (11) 
-13.539999999999999

>  <m_primary>  (11) 
energy

$$$$
11:0
     RDKit          3D

 41 44  0  0  0  0  0  0  0  0999 V2000
   59.6470   34.5450   48.9190 C   0  0  0  0  0  0  0  0  0  0  0  0
   59.2980   34.2530   47.5220 N   0  0  0  0  0  0  0  0  0  0  0  0
   59.4180   35.2380   46.5820 C   0  0  0  0  0  0  0  0  0  0  0  0
   59.0930   34.9920   45.2510 C   0  0  0  0  0  0  0  0  0  0  0  0
   58.6420   33.7310   44.8760 C   0  0  0  0  0  0  0  0  0  0  0  0
   58.5150   32.7110   45.8300 C   0  0  0  0  0  0  0  0  0  0  0  0
   58.0290   31.3720   45.4080 C   0  0  0  0  0  0  0  0  0  0  0  0
   56.7300   31.0820   45.1960 N   0  0  0  0  0  0  0  0  0  0  0  0
   56.6750   29.8130   44.8360 N   0  0  0  0  0  0  0  0  0  0  0  0
   57.9400   29.3540   44.8480 C   0  0  0  0  0  0  0  0  0  0  0  0
   58.3450   27.9540   44.4450 C   0  0  2  0  0  0  0  0  0  0  0  0
   57.7480   27.4720   43.1280 C   0  0  0  0  0  0  0  0  0  0  0  0
   57.7900   25.9580   43.2310 C   0  0  0  0  0  0  0  0  0  0  0  0
   58.0630   25.6430   44.7030 C   0  0  0  0  0  0  0  0  0  0  0  0
   58.0670   26.9110   45.4530 N   0  0  0  0  0  0  0  0  0  0  0  0
   56.8450   27.0840   46.2840 C   0  0  0  0  0  0  0  0  0  0  0  0
   55.8910   25.9190   46.2380 C   0  0  0  0  0  0  0  0  0  0  0  0
   54.6940   25.9730   45.6170 N   0  0  0  0  0  0  0  0  0  0  0  0
   54.1720   24.7520   45.8180 C   0  0  0  0  0  0  0  0  0  0  0  0
   55.0530   23.9970   46.5540 C   0  0  0  0  0  0  0  0  0  0  0  0
   56.1440   24.7310   46.8280 N   0  0  0  0  0  0  0  0  0  0  0  0
   58.8280   30.3080   45.1870 N   0  0  0  0  0  0  0  0  0  0  0  0
   58.8540   33.0010   47.1730 C   0  0  0  0  0  0  0  0  0  0  0  0
   58.7470   32.1070   48.0580 O   0  0  0  0  0  0  0  0  0  0  0  0
   58.9778   33.9851   49.5888 H   0  0  0  0  0  0  0  0  0  0  0  0
   60.6886   34.2454   49.1070 H   0  0  0  0  0  0  0  0  0  0  0  0
   59.5359   35.6231   49.1070 H   0  0  0  0  0  0  0  0  0  0  0  0
   59.7749   36.2348   46.8802 H   0  0  0  0  0  0  0  0  0  0  0  0
   59.1923   35.7900   44.5005 H   0  0  0  0  0  0  0  0  0  0  0  0
   58.3835   33.5326   43.8254 H   0  0  0  0  0  0  0  0  0  0  0  0
   59.4326   28.0779   44.3360 H   0  0  0  0  0  0  0  0  0  0  0  0
   56.7128   27.8267   43.0161 H   0  0  0  0  0  0  0  0  0  0  0  0
   58.2977   27.8498   42.2533 H   0  0  0  0  0  0  0  0  0  0  0  0
   56.8269   25.5269   42.9201 H   0  0  0  0  0  0  0  0  0  0  0  0
   58.5647   25.5310   42.5772 H   0  0  0  0  0  0  0  0  0  0  0  0
   57.2759   24.9816   45.0943 H   0  0  0  0  0  0  0  0  0  0  0  0
   59.0335   25.1362   44.8090 H   0  0  0  0  0  0  0  0  0  0  0  0
   57.1572   27.2319   47.3283 H   0  0  0  0  0  0  0  0  0  0  0  0
   56.3046   27.9487   45.8714 H   0  0  0  0  0  0  0  0  0  0  0  0
   53.1930   24.4101   45.4511 H   0  0  0  0  0  0  0  0  0  0  0  0
   54.8905   22.9557   46.8691 H   0  0  0  0  0  0  0  0  0  0  0  0
  1  2  1  0
  2  3  1  0
  3  4  2  0
  4  5  1  0
  5  6  2  0
  6  7  1  0
  7  8  2  0
  8  9  1  0
  9 10  1  0
 10 11  1  0
 11 12  1  0
 12 13  1  0
 13 14  1  0
 14 15  1  0
 15 16  1  0
 16 17  1  0
 17 18  2  0
 18 19  1  0
 19 20  2  0
 20 21  1  0
 10 22  2  0
  6 23  1  0
 23 24  2  0
 23  2  1  0
 22  7  1  0
 15 11  1  0
 21 17  1  0
  1 25  1  0
  1 26  1  0
  1 27  1  0
  3 28  1  0
  4 29  1  0
  5 30  1  0
 11 31  1  6
 12 32  1  0
 12 33  1  0
 13 34  1  0
 13 35  1  0
 14 36  1  0
 14 37  1  0
 16 38  1  0
 16 39  1  0
 19 40  1  0
 20 41  1  0
M  CHG  2   9  -1  21  -1
M  END
>  <UniqueID>  (12) 
10

>  <SMILES>  (12) 
Cn1cccc(-c2n[n-]c([C@@H]3CCCN3Cc3ncc[n-]3)n2)c1=O

>  <Energy>  (12) 
117.09308458411803

>  <Genealogy>  (12) 
Cn1cccc(-c2n[n-]c(C3CCCN3Cc3ncc[n-]3)n2)c1=O (protonated)
Cn1cccc(-c2n[n-]c([C@@H]3CCCN3Cc3ncc[n-]3)n2)c1=O (chirality)
Cn1cccc(-c2n[n-]c([C@@H]3CCCN3Cc3ncc[n-]3)n2)c1=O (3D coordinates assigned)
Cn1cccc(-c2n[n-]c([C@@H]3CCCN3Cc3ncc[n-]3)n2)c1=O (nonaromatic ring conformer: 117.09308458411803 kcal/mol)

>  <smiles>  (12) 
Cn1cccc(-c2n[nH]c(C3CCCN3Cc3ncc[nH]3)n2)c1=O

>  <score_type>  (12) 
oracle

>  <origin>  (12) 
adg

>  <m_score__min__energy>  (12) 
-11.19

>  <m_primary>  (12) 
energy

$$$$
12:0
     RDKit          3D

 54 56  0  0  0  0  0  0  0  0999 V2000
   56.6210   29.7470   42.6090 C   0  0  0  0  0  0  0  0  0  0  0  0
   57.2020   30.2830   44.2050 S   0  0  0  0  0  0  0  0  0  0  0  0
   56.2980   29.7740   45.2940 O   0  0  0  0  0  0  0  0  0  0  0  0
   58.5800   29.7240   44.4250 O   0  0  0  0  0  0  0  0  0  0  0  0
   57.2870   32.0170   44.2630 N   0  0  0  0  0  0  0  0  0  0  0  0
   58.1450   32.7650   45.1450 C   0  0  0  0  0  0  0  0  0  0  0  0
   58.8370   33.9160   44.7200 C   0  0  0  0  0  0  0  0  0  0  0  0
   59.6610   34.6120   45.6080 C   0  0  0  0  0  0  0  0  0  0  0  0
   59.8020   34.1760   46.9260 C   0  0  0  0  0  0  0  0  0  0  0  0
   59.1150   33.0400   47.3680 C   0  0  0  0  0  0  0  0  0  0  0  0
   59.3100   32.4980   49.0310 S   0  0  0  0  0  0  0  0  0  0  0  0
   60.4110   33.2890   49.6790 O   0  0  0  0  0  0  0  0  0  0  0  0
   58.0440   32.7030   49.8160 O   0  0  0  0  0  0  0  0  0  0  0  0
   59.7270   30.8190   49.0490 N   0  0  0  0  0  0  0  0  0  0  0  0
   59.9870   30.0750   47.8560 C   0  0  0  0  0  0  0  0  0  0  0  0
   60.7200   30.5650   46.9560 O   0  0  0  0  0  0  0  0  0  0  0  0
   59.4680   28.7040   47.6860 C   0  0  0  0  0  0  0  0  0  0  0  0
   59.4700   28.0080   46.5380 C   0  0  0  0  0  0  0  0  0  0  0  0
   58.4490   27.0180   46.1390 C   0  0  0  0  0  0  0  0  0  0  0  0
   58.8550   25.8010   45.5730 C   0  0  0  0  0  0  0  0  0  0  0  0
   57.9030   24.8640   45.1590 C   0  0  0  0  0  0  0  0  0  0  0  0
   56.5380   25.1460   45.2760 C   0  0  0  0  0  0  0  0  0  0  0  0
   55.6110   24.2010   44.8340 O   0  0  0  0  0  0  0  0  0  0  0  0
   54.6950   23.2730   45.9360 S   0  0  0  0  0  0  0  0  0  0  0  0
   54.9470   23.7310   47.3440 O   0  0  0  0  0  0  0  0  0  0  0  0
   55.1030   21.8310   45.8230 O   0  0  0  0  0  0  0  0  0  0  0  0
   52.9840   23.4430   45.5530 C   0  0  0  0  0  0  0  0  0  0  0  0
   52.0100   22.8760   46.3870 C   0  0  0  0  0  0  0  0  0  0  0  0
   50.6540   22.9880   46.0600 C   0  0  0  0  0  0  0  0  0  0  0  0
   50.2670   23.6590   44.8960 C   0  0  0  0  0  0  0  0  0  0  0  0
   51.2360   24.2170   44.0560 C   0  0  0  0  0  0  0  0  0  0  0  0
   52.5920   24.1100   44.3820 C   0  0  0  0  0  0  0  0  0  0  0  0
   56.1250   26.3670   45.8340 C   0  0  0  0  0  0  0  0  0  0  0  0
   54.7740   26.6490   45.9940 O   0  0  0  0  0  0  0  0  0  0  0  0
   57.0770   27.3040   46.2450 C   0  0  0  0  0  0  0  0  0  0  0  0
   58.2900   32.3370   46.4770 C   0  0  0  0  0  0  0  0  0  0  0  0
   55.8183   29.0065   42.7407 H   0  0  0  0  0  0  0  0  0  0  0  0
   56.2339   30.6119   42.0503 H   0  0  0  0  0  0  0  0  0  0  0  0
   57.4519   29.2916   42.0503 H   0  0  0  0  0  0  0  0  0  0  0  0
   56.6240   32.5380   43.6450 H   0  0  0  0  0  0  0  0  0  0  0  0
   58.7281   34.2686   43.6838 H   0  0  0  0  0  0  0  0  0  0  0  0
   60.2009   35.5075   45.2667 H   0  0  0  0  0  0  0  0  0  0  0  0
   60.4548   34.7267   47.6192 H   0  0  0  0  0  0  0  0  0  0  0  0
   59.0443   28.2115   48.5736 H   0  0  0  0  0  0  0  0  0  0  0  0
   60.2989   28.1897   45.8380 H   0  0  0  0  0  0  0  0  0  0  0  0
   59.9265   25.5825   45.4542 H   0  0  0  0  0  0  0  0  0  0  0  0
   58.2291   23.9009   44.7395 H   0  0  0  0  0  0  0  0  0  0  0  0
   52.3123   22.3421   47.3000 H   0  0  0  0  0  0  0  0  0  0  0  0
   49.8917   22.5476   46.7195 H   0  0  0  0  0  0  0  0  0  0  0  0
   49.2007   23.7480   44.6410 H   0  0  0  0  0  0  0  0  0  0  0  0
   50.9314   24.7407   43.1378 H   0  0  0  0  0  0  0  0  0  0  0  0
   53.3524   24.5493   43.7195 H   0  0  0  0  0  0  0  0  0  0  0  0
   56.7504   28.2715   46.6541 H   0  0  0  0  0  0  0  0  0  0  0  0
   57.7515   31.4426   46.8235 H   0  0  0  0  0  0  0  0  0  0  0  0
  1  2  1  0
  2  3  2  0
  2  4  2  0
  2  5  1  0
  5  6  1  0
  6  7  2  0
  7  8  1  0
  8  9  2  0
  9 10  1  0
 10 11  1  0
 11 12  2  0
 11 13  2  0
 11 14  1  0
 14 15  1  0
 15 16  2  0
 15 17  1  0
 17 18  2  3
 18 19  1  0
 19 20  2  0
 20 21  1  0
 21 22  2  0
 22 23  1  0
 23 24  1  0
 24 25  2  0
 24 26  2  0
 24 27  1  0
 27 28  2  0
 28 29  1  0
 29 30  2  0
 30 31  1  0
 31 32  2  0
 22 33  1  0
 33 34  1  0
 33 35  2  0
 10 36  2  0
 36  6  1  0
 35 19  1  0
 32 27  1  0
  1 37  1  0
  1 38  1  0
  1 39  1  0
  5 40  1  0
  7 41  1  0
  8 42  1  0
  9 43  1  0
 17 44  1  0
 18 45  1  0
 20 46  1  0
 21 47  1  0
 28 48  1  0
 29 49  1  0
 30 50  1  0
 31 51  1  0
 32 52  1  0
 35 53  1  0
 36 54  1  0
M  CHG  2  14  -1  34  -1
M  END
>  <UniqueID>  (13) 
11

>  <SMILES>  (13) 
CS(=O)(=O)Nc1cccc(S(=O)(=O)[N-]C(=O)C=Cc2ccc(OS(=O)(=O)c3ccccc3)c([O-])c2)c1

>  <Energy>  (13) 
69.87654637653645

>  <Genealogy>  (13) 
CS(=O)(=O)Nc1cccc(S(=O)(=O)[N-]C(=O)C=Cc2ccc(OS(=O)(=O)c3ccccc3)c([O-])c2)c1 (protonated)
CS(=O)(=O)Nc1cccc(S(=O)(=O)[N-]C(=O)C=Cc2ccc(OS(=O)(=O)c3ccccc3)c([O-])c2)c1 (3D coordinates assigned)
CS(=O)(=O)Nc1cccc(S(=O)(=O)[N-]C(=O)C=Cc2ccc(OS(=O)(=O)c3ccccc3)c([O-])c2)c1 (optimized conformer: 69.87654637653645 kcal/mol)

>  <smiles>  (13) 
CS(=O)(=O)Nc1cccc(S(=O)(=O)NC(=O)C=Cc2ccc(OS(=O)(=O)c3ccccc3)c(O)c2)c1

>  <score_type>  (13) 
oracle

>  <origin>  (13) 
adg

>  <m_score__min__energy>  (13) 
-14.869999999999999

>  <m_primary>  (13) 
energy

$$$$
13:0
     RDKit          3D

 54 57  0  0  0  0  0  0  0  0999 V2000
   62.0030   34.6260   49.6860 N   0  0  0  0  0  0  0  0  0  0  0  0
   61.3250   34.2000   48.6650 C   0  0  0  0  0  0  0  0  0  0  0  0
   60.0580   34.6590   48.4940 N   0  0  0  0  0  0  0  0  0  0  0  0
   59.2560   34.2130   47.4930 C   0  0  0  0  0  0  0  0  0  0  0  0
   59.7340   33.2350   46.6080 C   0  0  0  0  0  0  0  0  0  0  0  0
   58.9030   32.6650   45.5130 C   0  0  0  0  0  0  0  0  0  0  0  0
   58.5930   33.4060   44.3560 C   0  0  0  0  0  0  0  0  0  0  0  0
   57.7780   32.8580   43.3610 C   0  0  0  0  0  0  0  0  0  0  0  0
   57.2540   31.5730   43.5090 C   0  0  0  0  0  0  0  0  0  0  0  0
   57.5450   30.8240   44.6560 C   0  0  0  0  0  0  0  0  0  0  0  0
   56.8700   29.2120   44.8760 S   0  0  0  0  0  0  0  0  0  0  0  0
   55.1440   29.2960   44.8080 N   0  0  0  0  0  0  0  0  0  0  0  0
   57.3600   28.2900   43.7960 O   0  0  0  0  0  0  0  0  0  0  0  0
   57.2970   28.6680   46.2110 O   0  0  0  0  0  0  0  0  0  0  0  0
   58.3640   31.3710   45.6520 C   0  0  0  0  0  0  0  0  0  0  0  0
   61.0130   32.8010   46.7610 N   0  0  0  0  0  0  0  0  0  0  0  0
   61.8320   33.2460   47.7510 C   0  0  0  0  0  0  0  0  0  0  0  0
   63.2190   32.7220   47.7790 C   0  0  0  0  0  0  0  0  0  0  0  0
   63.9490   32.8250   46.7590 O   0  0  0  0  0  0  0  0  0  0  0  0
   63.7050   31.9520   48.8910 N   0  0  0  0  0  0  0  0  0  0  0  0
   63.7180   32.3130   50.1430 C   0  0  0  0  0  0  0  0  0  0  0  0
   64.7140   33.1070   50.6320 N   0  0  0  0  0  0  0  0  0  0  0  0
   64.7450   33.5160   51.9270 C   0  0  0  0  0  0  0  0  0  0  0  0
   63.7380   33.1230   52.8070 C   0  0  0  0  0  0  0  0  0  0  0  0
   62.7100   32.3020   52.3440 C   0  0  0  0  0  0  0  0  0  0  0  0
   62.6960   31.8760   51.0080 C   0  0  0  0  0  0  0  0  0  0  0  0
   61.6280   31.0410   50.5340 N   0  0  0  0  0  0  0  0  0  0  0  0
   61.8770   29.6060   50.3340 C   0  0  0  0  0  0  0  0  0  0  0  0
   60.6000   28.8660   49.9180 C   0  0  0  0  0  0  0  0  0  0  0  0
   59.8750   29.6460   48.8110 C   0  0  0  0  0  0  0  0  0  0  0  0
   58.6870   28.9070   48.3790 N   0  0  0  0  0  0  0  0  0  0  0  0
   59.5130   31.0950   49.2450 C   0  0  0  0  0  0  0  0  0  0  0  0
   60.2580   31.5670   50.5050 C   0  0  0  0  0  0  0  0  0  0  0  0
   62.9480   34.2800   49.9590 H   0  0  0  0  0  0  0  0  0  0  0  0
   58.2389   34.6156   47.3769 H   0  0  0  0  0  0  0  0  0  0  0  0
   58.9949   34.4227   44.2345 H   0  0  0  0  0  0  0  0  0  0  0  0
   57.5488   33.4422   42.4576 H   0  0  0  0  0  0  0  0  0  0  0  0
   56.6116   31.1479   42.7237 H   0  0  0  0  0  0  0  0  0  0  0  0
   54.8030   29.3640   45.7920 H   0  0  0  0  0  0  0  0  0  0  0  0
   58.5891   30.7828   46.5539 H   0  0  0  0  0  0  0  0  0  0  0  0
   65.5652   34.1576   52.2814 H   0  0  0  0  0  0  0  0  0  0  0  0
   63.7539   33.4567   53.8550 H   0  0  0  0  0  0  0  0  0  0  0  0
   61.9082   31.9879   53.0285 H   0  0  0  0  0  0  0  0  0  0  0  0
   62.6349   29.4812   49.5466 H   0  0  0  0  0  0  0  0  0  0  0  0
   62.2273   29.1808   51.2861 H   0  0  0  0  0  0  0  0  0  0  0  0
   60.8644   27.8656   49.5448 H   0  0  0  0  0  0  0  0  0  0  0  0
   59.9354   28.7766   50.7899 H   0  0  0  0  0  0  0  0  0  0  0  0
   60.5656   29.7436   47.9604 H   0  0  0  0  0  0  0  0  0  0  0  0
   58.9530   28.2770   47.5870 H   0  0  0  0  0  0  0  0  0  0  0  0
   57.9720   29.5800   48.0190 H   0  0  0  0  0  0  0  0  0  0  0  0
   59.7612   31.7773   48.4187 H   0  0  0  0  0  0  0  0  0  0  0  0
   58.4396   31.1001   49.4852 H   0  0  0  0  0  0  0  0  0  0  0  0
   60.2946   32.6664   50.5106 H   0  0  0  0  0  0  0  0  0  0  0  0
   59.7209   31.1948   51.3898 H   0  0  0  0  0  0  0  0  0  0  0  0
  1  2  2  3
  2  3  1  0
  3  4  1  0
  4  5  2  0
  5  6  1  0
  6  7  2  0
  7  8  1  0
  8  9  2  0
  9 10  1  0
 10 11  1  0
 11 12  1  0
 11 13  2  0
 11 14  2  0
 10 15  2  0
  5 16  1  0
 16 17  2  0
 17 18  1  0
 18 19  2  0
 18 20  1  0
 20 21  2  3
 21 22  1  0
 22 23  1  0
 23 24  2  0
 24 25  1  0
 25 26  2  0
 26 27  1  0
 27 28  1  0
 28 29  1  0
 29 30  1  0
 30 31  1  0
 30 32  1  0
 32 33  1  0
 17  2  1  0
 26 21  1  0
 33 27  1  0
 15  6  1  0
  1 34  1  0
  4 35  1  0
  7 36  1  0
  8 37  1  0
  9 38  1  0
 12 39  1  0
 15 40  1  0
 23 41  1  0
 24 42  1  0
 25 43  1  0
 28 44  1  0
 28 45  1  0
 29 46  1  0
 29 47  1  0
 30 48  1  0
 31 49  1  0
 31 50  1  0
 32 51  1  0
 32 52  1  0
 33 53  1  0
 33 54  1  0
M  CHG  3   3  -1  12  -1  22  -1
M  END
>  <UniqueID>  (14) 
12

>  <SMILES>  (14) 
N=c1[n-]cc(-c2cccc(S([NH-])(=O)=O)c2)nc1C(=O)N=c1[n-]cccc1N1CCC(N)CC1

>  <Energy>  (14) 
79.82576548685714

>  <Genealogy>  (14) 
N=c1[n-]cc(-c2cccc(S([NH-])(=O)=O)c2)nc1C(=O)N=c1[n-]cccc1N1CCC(N)CC1 (protonated)
N=c1[n-]cc(-c2cccc(S([NH-])(=O)=O)c2)nc1C(=O)N=c1[n-]cccc1N1CCC(N)CC1 (3D coordinates assigned)
N=c1[n-]cc(-c2cccc(S([NH-])(=O)=O)c2)nc1C(=O)N=c1[n-]cccc1N1CCC(N)CC1 (nonaromatic ring conformer: 79.82576548685714 kcal/mol)

>  <smiles>  (14) 
N=c1[nH]cc(-c2cccc(S(N)(=O)=O)c2)nc1C(=O)N=c1[nH]cccc1N1CCC(N)CC1

>  <score_type>  (14) 
oracle

>  <origin>  (14) 
adg

>  <m_score__min__energy>  (14) 
-13.74

>  <m_primary>  (14) 
energy

$$$$
14:0
     RDKit          3D

 34 36  0  0  0  0  0  0  0  0999 V2000
   54.2830   25.6660   45.6870 N   0  0  0  0  0  0  0  0  0  0  0  0
   55.5450   26.2240   46.0390 C   0  0  0  0  0  0  0  0  0  0  0  0
   56.3050   25.5970   46.8260 O   0  0  0  0  0  0  0  0  0  0  0  0
   55.9160   27.5120   45.5290 N   0  0  0  0  0  0  0  0  0  0  0  0
   57.2230   28.0960   45.6720 C   0  0  0  0  0  0  0  0  0  0  0  0
   57.7720   28.2450   46.9530 C   0  0  0  0  0  0  0  0  0  0  0  0
   59.0310   28.8310   47.1220 C   0  0  0  0  0  0  0  0  0  0  0  0
   59.7560   29.2850   46.0110 C   0  0  0  0  0  0  0  0  0  0  0  0
   61.0910   29.9570   46.1920 C   0  0  0  0  0  0  0  0  0  0  0  0
   60.9210   31.2570   46.8390 N   0  0  0  0  0  0  0  0  0  0  0  0
   61.8930   31.9140   47.6590 C   0  0  0  0  0  0  0  0  0  0  0  0
   62.8880   31.3420   48.1770 O   0  0  0  0  0  0  0  0  0  0  0  0
   61.5680   33.3260   47.7870 C   0  0  0  0  0  0  0  0  0  0  0  0
   62.2030   34.1970   48.4370 O   0  0  0  0  0  0  0  0  0  0  0  0
   60.3640   33.5220   46.9970 C   0  0  0  0  0  0  0  0  0  0  0  0
   59.6250   34.6770   46.7540 C   0  0  0  0  0  0  0  0  0  0  0  0
   58.4910   34.5740   45.9310 C   0  0  0  0  0  0  0  0  0  0  0  0
   58.1230   33.3310   45.3750 C   0  0  0  0  0  0  0  0  0  0  0  0
   58.8860   32.1790   45.6350 C   0  0  0  0  0  0  0  0  0  0  0  0
   60.0140   32.2990   46.4500 C   0  0  0  0  0  0  0  0  0  0  0  0
   59.1960   29.1640   44.7300 C   0  0  0  0  0  0  0  0  0  0  0  0
   57.9370   28.5780   44.5610 C   0  0  0  0  0  0  0  0  0  0  0  0
   54.0190   24.7030   45.9910 H   0  0  0  0  0  0  0  0  0  0  0  0
   55.1600   28.0960   45.1030 H   0  0  0  0  0  0  0  0  0  0  0  0
   57.2087   27.8986   47.8320 H   0  0  0  0  0  0  0  0  0  0  0  0
   59.4544   28.9362   48.1318 H   0  0  0  0  0  0  0  0  0  0  0  0
   61.7352   29.3217   46.8177 H   0  0  0  0  0  0  0  0  0  0  0  0
   61.5533   30.1062   45.2051 H   0  0  0  0  0  0  0  0  0  0  0  0
   59.9203   35.6413   47.1933 H   0  0  0  0  0  0  0  0  0  0  0  0
   57.8864   35.4682   45.7189 H   0  0  0  0  0  0  0  0  0  0  0  0
   57.2323   33.2624   44.7331 H   0  0  0  0  0  0  0  0  0  0  0  0
   58.6014   31.2065   45.2068 H   0  0  0  0  0  0  0  0  0  0  0  0
   59.7501   29.5320   43.8539 H   0  0  0  0  0  0  0  0  0  0  0  0
   57.5034   28.4939   43.5536 H   0  0  0  0  0  0  0  0  0  0  0  0
  1  2  1  0
  2  3  2  0
  2  4  1  0
  4  5  1  0
  5  6  2  0
  6  7  1  0
  7  8  2  0
  8  9  1  0
  9 10  1  0
 10 11  1  0
 11 12  2  0
 11 13  1  0
 13 14  2  0
 13 15  1  0
 15 16  2  0
 16 17  1  0
 17 18  2  0
 18 19  1  0
 19 20  2  0
  8 21  1  0
 21 22  2  0
 22  5  1  0
 20 10  1  0
 20 15  1  0
  1 23  1  0
  4 24  1  0
  6 25  1  0
  7 26  1  0
  9 27  1  0
  9 28  1  0
 16 29  1  0
 17 30  1  0
 18 31  1  0
 19 32  1  0
 21 33  1  0
 22 34  1  0
M  CHG  1   1  -1
M  END
>  <UniqueID>  (15) 
13

>  <SMILES>  (15) 
[NH-]C(=O)Nc1ccc(CN2C(=O)C(=O)c3ccccc32)cc1

>  <Energy>  (15) 
69.0824791527567

>  <Genealogy>  (15) 
[NH-]C(=O)Nc1ccc(CN2C(=O)C(=O)c3ccccc32)cc1 (protonated)
[NH-]C(=O)Nc1ccc(CN2C(=O)C(=O)c3ccccc32)cc1 (3D coordinates assigned)
[NH-]C(=O)Nc1ccc(CN2C(=O)C(=O)c3ccccc32)cc1 (nonaromatic ring conformer: 69.0824791527567 kcal/mol)

>  <smiles>  (15) 
NC(=O)Nc1ccc(CN2C(=O)C(=O)c3ccccc32)cc1

>  <score_type>  (15) 
oracle

>  <origin>  (15) 
adg

>  <m_score__min__energy>  (15) 
-9.7200000000000006

>  <m_primary>  (15) 
energy

$$$$
15:0
     RDKit          3D

 48 52  0  0  0  0  0  0  0  0999 V2000
   51.4810   31.7510   53.4630 C   0  0  0  0  0  0  0  0  0  0  0  0
   51.4390   31.5780   52.1400 C   0  0  0  0  0  0  0  0  0  0  0  0
   51.0170   32.5370   51.2950 N   0  0  0  0  0  0  0  0  0  0  0  0
   51.1320   31.9590   50.0830 C   0  0  0  0  0  0  0  0  0  0  0  0
   50.8280   32.5530   49.0160 O   0  0  0  0  0  0  0  0  0  0  0  0
   51.6030   30.6950   50.1030 N   0  0  0  0  0  0  0  0  0  0  0  0
   51.7930   30.4460   51.4130 C   0  0  0  0  0  0  0  0  0  0  0  0
   52.2930   29.2940   51.8930 C   0  0  0  0  0  0  0  0  0  0  0  0
   53.3770   29.2260   52.8950 C   0  0  0  0  0  0  0  0  0  0  0  0
   53.3580   28.6720   54.1740 C   0  0  0  0  0  0  0  0  0  0  0  0
   52.2680   28.0390   54.7570 O   0  0  0  0  0  0  0  0  0  0  0  0
   54.5260   28.8600   54.8320 N   0  0  0  0  0  0  0  0  0  0  0  0
   55.2850   29.5550   53.9630 C   0  0  0  0  0  0  0  0  0  0  0  0
   56.5790   30.0180   54.1800 C   0  0  0  0  0  0  0  0  0  0  0  0
   57.2030   30.7480   53.1530 C   0  0  0  0  0  0  0  0  0  0  0  0
   56.5350   30.9940   51.9280 C   0  0  0  0  0  0  0  0  0  0  0  0
   57.1980   31.7630   50.9110 N   0  0  0  0  0  0  0  0  0  0  0  0
   58.5300   31.4970   50.4410 C   0  0  0  0  0  0  0  0  0  0  0  0
   59.2450   30.6230   51.0030 O   0  0  0  0  0  0  0  0  0  0  0  0
   59.0880   32.2640   49.2760 C   0  0  0  0  0  0  0  0  0  0  0  0
   58.8430   31.5310   47.9750 C   0  0  0  0  0  0  0  0  0  0  0  0
   59.0320   30.1370   47.9540 C   0  0  0  0  0  0  0  0  0  0  0  0
   58.8390   29.4050   46.7830 C   0  0  0  0  0  0  0  0  0  0  0  0
   58.4620   30.0470   45.6060 C   0  0  0  0  0  0  0  0  0  0  0  0
   58.2780   31.4360   45.5870 C   0  0  0  0  0  0  0  0  0  0  0  0
   57.9090   32.0750   44.3930 C   0  0  0  0  0  0  0  0  0  0  0  0
   57.7320   33.4580   44.3610 C   0  0  0  0  0  0  0  0  0  0  0  0
   57.9220   34.2150   45.5160 C   0  0  0  0  0  0  0  0  0  0  0  0
   58.2880   33.5950   46.7130 C   0  0  0  0  0  0  0  0  0  0  0  0
   58.4710   32.1970   46.7740 C   0  0  0  0  0  0  0  0  0  0  0  0
   55.2110   30.5270   51.7500 C   0  0  0  0  0  0  0  0  0  0  0  0
   54.6220   29.8060   52.7890 C   0  0  0  0  0  0  0  0  0  0  0  0
   51.8339   30.9369   54.1132 H   0  0  0  0  0  0  0  0  0  0  0  0
   51.1628   32.7076   53.9030 H   0  0  0  0  0  0  0  0  0  0  0  0
   51.8716   28.3493   51.5190 H   0  0  0  0  0  0  0  0  0  0  0  0
   57.0993   29.8185   55.1284 H   0  0  0  0  0  0  0  0  0  0  0  0
   58.2226   31.1329   53.3025 H   0  0  0  0  0  0  0  0  0  0  0  0
   56.7150   32.6220   50.5620 H   0  0  0  0  0  0  0  0  0  0  0  0
   58.6033   33.2503   49.2297 H   0  0  0  0  0  0  0  0  0  0  0  0
   60.1734   32.3735   49.4168 H   0  0  0  0  0  0  0  0  0  0  0  0
   59.3363   29.6172   48.8744 H   0  0  0  0  0  0  0  0  0  0  0  0
   58.9853   28.3148   46.7889 H   0  0  0  0  0  0  0  0  0  0  0  0
   58.3081   29.4614   44.6877 H   0  0  0  0  0  0  0  0  0  0  0  0
   57.7588   31.4824   43.4785 H   0  0  0  0  0  0  0  0  0  0  0  0
   57.4418   33.9525   43.4223 H   0  0  0  0  0  0  0  0  0  0  0  0
   57.7831   35.3057   45.4846 H   0  0  0  0  0  0  0  0  0  0  0  0
   58.4352   34.2030   47.6178 H   0  0  0  0  0  0  0  0  0  0  0  0
   54.6615   30.7270   50.8183 H   0  0  0  0  0  0  0  0  0  0  0  0
  1  2  2  0
  2  3  1  0
  3  4  1  0
  4  5  2  0
  4  6  1  0
  6  7  1  0
  7  8  2  3
  8  9  1  0
  9 10  2  0
 10 11  1  0
 10 12  1  0
 12 13  1  0
 13 14  2  0
 14 15  1  0
 15 16  2  0
 16 17  1  0
 17 18  1  0
 18 19  2  0
 18 20  1  0
 20 21  1  0
 21 22  2  0
 22 23  1  0
 23 24  2  0
 24 25  1  0
 25 26  2  0
 26 27  1  0
 27 28  2  0
 28 29  1  0
 29 30  2  0
 16 31  1  0
 31 32  2  0
  7  2  1  0
 32  9  1  0
 32 13  1  0
 30 21  1  0
 30 25  1  0
  1 33  1  0
  1 34  1  0
  8 35  1  0
 14 36  1  0
 15 37  1  0
 17 38  1  0
 20 39  1  0
 20 40  1  0
 22 41  1  0
 23 42  1  0
 24 43  1  0
 26 44  1  0
 27 45  1  0
 28 46  1  0
 29 47  1  0
 31 48  1  0
M  CHG  4   3  -1   6  -1  11  -1  12  -1
M  END
>  <UniqueID>  (16) 
14

>  <SMILES>  (16) 
C=c1[n-]c(=O)[n-]c1=Cc1c([O-])[n-]c2ccc(NC(=O)Cc3cccc4ccccc34)cc12

>  <Energy>  (16) 
129.8317628605585

>  <Genealogy>  (16) 
C=c1[n-]c(=O)[n-]c1=Cc1c([O-])[n-]c2ccc(NC(=O)Cc3cccc4ccccc34)cc12 (protonated)
C=c1[n-]c(=O)[n-]c1=Cc1c([O-])[n-]c2ccc(NC(=O)Cc3cccc4ccccc34)cc12 (3D coordinates assigned)
C=c1[n-]c(=O)[n-]c1=Cc1c([O-])[n-]c2ccc(NC(=O)Cc3cccc4ccccc34)cc12 (optimized conformer: 129.8317628605585 kcal/mol)

>  <smiles>  (16) 
C=c1[nH]c(=O)[nH]c1=Cc1c(O)[nH]c2ccc(NC(=O)Cc3cccc4ccccc34)cc12

>  <score_type>  (16) 
oracle

>  <origin>  (16) 
adg

>  <m_score__min__energy>  (16) 
-17.870000000000001

>  <m_primary>  (16) 
energy

$$$$
16:0
     RDKit          3D

 26 27  0  0  0  0  0  0  0  0999 V2000
   60.3330   28.9690   45.7070 C   0  0  0  0  0  0  0  0  0  0  0  0
   59.4920   28.4850   44.5300 C   0  0  0  0  0  0  0  0  0  0  0  0
   58.0560   28.3150   44.9300 C   0  0  0  0  0  0  0  0  0  0  0  0
   57.5860   27.1910   45.5010 N   0  0  0  0  0  0  0  0  0  0  0  0
   56.2670   27.4310   45.6330 C   0  0  0  0  0  0  0  0  0  0  0  0
   55.4720   26.5990   46.1410 O   0  0  0  0  0  0  0  0  0  0  0  0
   55.8670   28.6320   45.1720 N   0  0  0  0  0  0  0  0  0  0  0  0
   57.0020   29.1930   44.7140 C   0  0  0  0  0  0  0  0  0  0  0  0
   57.0600   30.5480   44.1180 C   0  0  0  0  0  0  0  0  0  0  0  0
   56.6090   30.7320   42.9560 O   0  0  0  0  0  0  0  0  0  0  0  0
   57.6660   31.6920   44.8400 C   0  0  0  0  0  0  0  0  0  0  0  0
   57.7490   32.9500   44.2170 C   0  0  0  0  0  0  0  0  0  0  0  0
   58.3070   34.0410   44.8910 C   0  0  0  0  0  0  0  0  0  0  0  0
   58.7780   33.8900   46.1970 C   0  0  0  0  0  0  0  0  0  0  0  0
   58.6860   32.6490   46.8330 C   0  0  0  0  0  0  0  0  0  0  0  0
   58.1300   31.5560   46.1620 C   0  0  0  0  0  0  0  0  0  0  0  0
   59.8416   28.6862   46.6496 H   0  0  0  0  0  0  0  0  0  0  0  0
   61.3299   28.5065   45.6601 H   0  0  0  0  0  0  0  0  0  0  0  0
   60.4339   30.0634   45.6601 H   0  0  0  0  0  0  0  0  0  0  0  0
   59.5540   29.2224   43.7161 H   0  0  0  0  0  0  0  0  0  0  0  0
   59.8812   27.5113   44.1978 H   0  0  0  0  0  0  0  0  0  0  0  0
   57.3721   33.0769   43.1914 H   0  0  0  0  0  0  0  0  0  0  0  0
   58.3750   35.0189   44.3920 H   0  0  0  0  0  0  0  0  0  0  0  0
   59.2211   34.7474   46.7248 H   0  0  0  0  0  0  0  0  0  0  0  0
   59.0519   32.5320   47.8638 H   0  0  0  0  0  0  0  0  0  0  0  0
   58.0546   30.5834   46.6703 H   0  0  0  0  0  0  0  0  0  0  0  0
  1  2  1  0
  2  3  1  0
  3  4  1  0
  4  5  1  0
  5  6  2  0
  5  7  1  0
  7  8  1  0
  8  9  1  0
  9 10  2  0
  9 11  1  0
 11 12  2  0
 12 13  1  0
 13 14  2  0
 14 15  1  0
 15 16  2  0
  8  3  2  0
 16 11  1  0
  1 17  1  0
  1 18  1  0
  1 19  1  0
  2 20  1  0
  2 21  1  0
 12 22  1  0
 13 23  1  0
 14 24  1  0
 15 25  1  0
 16 26  1  0
M  CHG  2   4  -1   7  -1
M  END
>  <UniqueID>  (17) 
15

>  <SMILES>  (17) 
CCc1[n-]c(=O)[n-]c1C(=O)c1ccccc1

>  <Energy>  (17) 
55.969713861242994

>  <Genealogy>  (17) 
CCc1[n-]c(=O)[n-]c1C(=O)c1ccccc1 (protonated)
CCc1[n-]c(=O)[n-]c1C(=O)c1ccccc1 (3D coordinates assigned)
CCc1[n-]c(=O)[n-]c1C(=O)c1ccccc1 (optimized conformer: 55.969713861242994 kcal/mol)

>  <smiles>  (17) 
CCc1[nH]c(=O)[nH]c1C(=O)c1ccccc1

>  <score_type>  (17) 
oracle

>  <origin>  (17) 
adg

>  <m_score__min__energy>  (17) 
-10.52

>  <m_primary>  (17) 
energy

$$$$
17:0
     RDKit          3D

 63 65  0  0  0  0  0  0  0  0999 V2000
   62.0390   33.3310   46.8120 C   0  0  0  0  0  0  0  0  0  0  0  0
   60.9420   34.2310   46.9360 O   0  0  0  0  0  0  0  0  0  0  0  0
   59.6660   34.0140   46.3870 C   0  0  0  0  0  0  0  0  0  0  0  0
   59.3700   34.3450   45.0480 C   0  0  0  0  0  0  0  0  0  0  0  0
   58.0840   34.1520   44.5390 C   0  0  0  0  0  0  0  0  0  0  0  0
   57.0810   33.6310   45.3530 C   0  0  0  0  0  0  0  0  0  0  0  0
   57.3610   33.2860   46.6760 C   0  0  0  0  0  0  0  0  0  0  0  0
   58.6530   33.4600   47.2000 C   0  0  0  0  0  0  0  0  0  0  0  0
   58.9130   33.1090   48.6470 C   0  0  0  0  0  0  0  0  0  0  0  0
   59.7140   34.2090   49.3480 C   0  0  0  0  0  0  0  0  0  0  0  0
   60.5810   33.6290   50.3750 N   0  0  0  0  0  0  0  0  0  0  0  0
   59.7510   33.5880   51.9000 S   0  0  0  0  0  0  0  0  0  0  0  0
   58.8290   34.7700   52.0040 O   0  0  0  0  0  0  0  0  0  0  0  0
   60.7510   33.6830   53.0190 O   0  0  0  0  0  0  0  0  0  0  0  0
   58.8250   32.0800   52.0340 C   0  0  0  0  0  0  0  0  0  0  0  0
   57.5250   32.1490   52.5610 C   0  0  0  0  0  0  0  0  0  0  0  0
   56.7230   31.0020   52.6780 C   0  0  0  0  0  0  0  0  0  0  0  0
   55.4230   31.0490   53.2050 O   0  0  0  0  0  0  0  0  0  0  0  0
   54.2410   30.8150   52.4510 C   0  0  0  0  0  0  0  0  0  0  0  0
   57.2230   29.7650   52.2620 C   0  0  0  0  0  0  0  0  0  0  0  0
   56.3940   28.6360   52.3620 O   0  0  0  0  0  0  0  0  0  0  0  0
   55.9580   28.0640   53.5910 C   0  0  0  0  0  0  0  0  0  0  0  0
   58.5360   29.6800   51.7690 C   0  0  0  0  0  0  0  0  0  0  0  0
   59.3490   30.8180   51.6550 C   0  0  0  0  0  0  0  0  0  0  0  0
   61.0020   30.5890   51.0470 S   0  0  0  0  0  0  0  0  0  0  0  0
   61.9120   31.6210   51.6480 O   0  0  0  0  0  0  0  0  0  0  0  0
   61.5200   29.2380   51.4600 O   0  0  0  0  0  0  0  0  0  0  0  0
   61.0870   30.6990   49.3180 N   0  0  0  0  0  0  0  0  0  0  0  0
   60.1590   30.0610   48.4340 C   0  0  0  0  0  0  0  0  0  0  0  0
   59.9770   30.5830   47.1480 C   0  0  0  0  0  0  0  0  0  0  0  0
   59.0950   29.9650   46.2530 C   0  0  0  0  0  0  0  0  0  0  0  0
   58.3870   28.8180   46.6400 C   0  0  0  0  0  0  0  0  0  0  0  0
   57.3240   27.9890   45.5080 S   0  0  0  0  0  0  0  0  0  0  0  0
   55.9720   29.0010   45.1360 N   0  0  0  0  0  0  0  0  0  0  0  0
   58.0800   27.6770   44.2490 O   0  0  0  0  0  0  0  0  0  0  0  0
   56.8190   26.7070   46.1100 O   0  0  0  0  0  0  0  0  0  0  0  0
   58.5380   28.3200   47.9410 C   0  0  0  0  0  0  0  0  0  0  0  0
   59.4200   28.9370   48.8330 C   0  0  0  0  0  0  0  0  0  0  0  0
   62.3912   33.0421   47.8132 H   0  0  0  0  0  0  0  0  0  0  0  0
   61.7168   32.4336   46.2635 H   0  0  0  0  0  0  0  0  0  0  0  0
   62.8562   33.8223   46.2635 H   0  0  0  0  0  0  0  0  0  0  0  0
   60.1575   34.7579   44.4005 H   0  0  0  0  0  0  0  0  0  0  0  0
   57.8627   34.4119   43.4933 H   0  0  0  0  0  0  0  0  0  0  0  0
   56.0662   33.4912   44.9523 H   0  0  0  0  0  0  0  0  0  0  0  0
   56.5643   32.8748   47.3133 H   0  0  0  0  0  0  0  0  0  0  0  0
   57.9504   32.9813   49.1638 H   0  0  0  0  0  0  0  0  0  0  0  0
   59.4974   32.1777   48.6800 H   0  0  0  0  0  0  0  0  0  0  0  0
   60.3321   34.7365   48.6066 H   0  0  0  0  0  0  0  0  0  0  0  0
   59.0154   34.9125   49.8245 H   0  0  0  0  0  0  0  0  0  0  0  0
   60.7940   32.6410   50.1090 H   0  0  0  0  0  0  0  0  0  0  0  0
   57.1270   33.1207   52.8886 H   0  0  0  0  0  0  0  0  0  0  0  0
   53.3964   30.6478   53.1357 H   0  0  0  0  0  0  0  0  0  0  0  0
   54.0315   31.6891   51.8169 H   0  0  0  0  0  0  0  0  0  0  0  0
   54.3803   29.9270   51.8169 H   0  0  0  0  0  0  0  0  0  0  0  0
   56.3883   28.6286   54.4313 H   0  0  0  0  0  0  0  0  0  0  0  0
   54.8601   28.1052   53.6456 H   0  0  0  0  0  0  0  0  0  0  0  0
   56.2887   27.0163   53.6456 H   0  0  0  0  0  0  0  0  0  0  0  0
   58.9350   28.7007   51.4660 H   0  0  0  0  0  0  0  0  0  0  0  0
   60.5293   31.4827   46.8391 H   0  0  0  0  0  0  0  0  0  0  0  0
   58.9571   30.3803   45.2438 H   0  0  0  0  0  0  0  0  0  0  0  0
   55.1480   28.6240   45.6590 H   0  0  0  0  0  0  0  0  0  0  0  0
   57.9605   27.4404   48.2616 H   0  0  0  0  0  0  0  0  0  0  0  0
   59.5352   28.5395   49.8522 H   0  0  0  0  0  0  0  0  0  0  0  0
  1  2  1  0
  2  3  1  0
  3  4  2  0
  4  5  1  0
  5  6  2  0
  6  7  1  0
  7  8  2  0
  8  9  1  0
  9 10  1  0
 10 11  1  0
 11 12  1  0
 12 13  2  0
 12 14  2  0
 12 15  1  0
 15 16  2  0
 16 17  1  0
 17 18  1  0
 18 19  1  0
 17 20  2  0
 20 21  1  0
 21 22  1  0
 20 23  1  0
 23 24  2  0
 24 25  1  0
 25 26  2  0
 25 27  2  0
 25 28  1  0
 28 29  1  0
 29 30  2  0
 30 31  1  0
 31 32  2  0
 32 33  1  0
 33 34  1  0
 33 35  2  0
 33 36  2  0
 32 37  1  0
 37 38  2  0
  8  3  1  0
 24 15  1  0
 38 29  1  0
  1 39  1  0
  1 40  1  0
  1 41  1  0
  4 42  1  0
  5 43  1  0
  6 44  1  0
  7 45  1  0
  9 46  1  0
  9 47  1  0
 10 48  1  0
 10 49  1  0
 11 50  1  0
 16 51  1  0
 19 52  1  0
 19 53  1  0
 19 54  1  0
 22 55  1  0
 22 56  1  0
 22 57  1  0
 23 58  1  0
 30 59  1  0
 31 60  1  0
 34 61  1  0
 37 62  1  0
 38 63  1  0
M  CHG  2  28  -1  34  -1
M  END
>  <UniqueID>  (18) 
16

>  <SMILES>  (18) 
COc1ccccc1CCNS(=O)(=O)c1cc(OC)c(OC)cc1S(=O)(=O)[N-]c1ccc(S([NH-])(=O)=O)cc1

>  <Energy>  (18) 
67.11311571065981

>  <Genealogy>  (18) 
COc1ccccc1CCNS(=O)(=O)c1cc(OC)c(OC)cc1S(=O)(=O)[N-]c1ccc(S([NH-])(=O)=O)cc1 (protonated)
COc1ccccc1CCNS(=O)(=O)c1cc(OC)c(OC)cc1S(=O)(=O)[N-]c1ccc(S([NH-])(=O)=O)cc1 (3D coordinates assigned)
COc1ccccc1CCNS(=O)(=O)c1cc(OC)c(OC)cc1S(=O)(=O)[N-]c1ccc(S([NH-])(=O)=O)cc1 (optimized conformer: 67.11311571065981 kcal/mol)

>  <smiles>  (18) 
COc1ccccc1CCNS(=O)(=O)c1cc(OC)c(OC)cc1S(=O)(=O)Nc1ccc(S(N)(=O)=O)cc1

>  <score_type>  (18) 
oracle

>  <origin>  (18) 
adg

>  <m_score__min__energy>  (18) 
-11.880000000000001

>  <m_primary>  (18) 
energy

$$$$
18:0
     RDKit          3D

 63 65  0  0  0  0  0  0  0  0999 V2000
   64.1080   33.0720   49.8430 C   0  0  0  0  0  0  0  0  0  0  0  0
   62.7560   33.7850   49.8630 C   0  0  0  0  0  0  0  0  0  0  0  0
   62.1430   33.8310   48.5190 N   0  0  0  0  0  0  0  0  0  0  0  0
   62.8760   32.9760   47.5590 C   0  0  0  0  0  0  0  0  0  0  0  0
   63.3740   33.8160   46.3880 C   0  0  0  0  0  0  0  0  0  0  0  0
   60.4440   33.3800   48.5630 S   0  0  0  0  0  0  0  0  0  0  0  0
   60.3130   31.9330   48.9490 O   0  0  0  0  0  0  0  0  0  0  0  0
   59.7310   34.1890   49.6110 O   0  0  0  0  0  0  0  0  0  0  0  0
   59.6440   33.6430   47.0090 C   0  0  0  0  0  0  0  0  0  0  0  0
   59.8650   34.8260   46.2920 C   0  0  0  0  0  0  0  0  0  0  0  0
   59.2220   35.0360   45.0710 C   0  0  0  0  0  0  0  0  0  0  0  0
   58.3490   34.0710   44.5610 C   0  0  0  0  0  0  0  0  0  0  0  0
   58.1110   32.8820   45.2660 C   0  0  0  0  0  0  0  0  0  0  0  0
   57.2020   31.9080   44.7150 N   0  0  0  0  0  0  0  0  0  0  0  0
   57.5030   30.4840   44.5620 C   0  0  0  0  0  0  0  0  0  0  0  0
   56.2470   29.7010   44.3370 C   0  0  0  0  0  0  0  0  0  0  0  0
   55.4910   30.0040   43.3750 O   0  0  0  0  0  0  0  0  0  0  0  0
   55.8940   28.6570   45.2520 N   0  0  0  0  0  0  0  0  0  0  0  0
   56.7350   27.5870   45.7090 C   0  0  0  0  0  0  0  0  0  0  0  0
   58.1060   27.8330   45.8600 C   0  0  0  0  0  0  0  0  0  0  0  0
   58.9630   26.8160   46.2840 C   0  0  0  0  0  0  0  0  0  0  0  0
   58.4610   25.5390   46.5470 C   0  0  0  0  0  0  0  0  0  0  0  0
   57.0970   25.2710   46.3750 C   0  0  0  0  0  0  0  0  0  0  0  0
   56.4690   23.6470   46.6710 S   0  0  0  0  0  0  0  0  0  0  0  0
   55.1230   23.7510   47.3320 O   0  0  0  0  0  0  0  0  0  0  0  0
   57.3940   22.9260   47.6120 O   0  0  0  0  0  0  0  0  0  0  0  0
   56.3200   22.7260   45.1950 N   0  0  0  0  0  0  0  0  0  0  0  0
   57.5380   21.9400   44.9520 C   0  0  0  0  0  0  0  0  0  0  0  0
   57.3890   21.1300   43.6460 C   0  0  0  0  0  0  0  0  0  0  0  0
   56.1940   21.4450   42.9540 O   0  0  0  0  0  0  0  0  0  0  0  0
   56.1250   22.8390   42.7250 C   0  0  0  0  0  0  0  0  0  0  0  0
   56.0560   23.6200   44.0540 C   0  0  0  0  0  0  0  0  0  0  0  0
   56.2360   26.2950   45.9520 C   0  0  0  0  0  0  0  0  0  0  0  0
   58.7690   32.6750   46.4940 C   0  0  0  0  0  0  0  0  0  0  0  0
   64.4443   32.8946   50.8752 H   0  0  0  0  0  0  0  0  0  0  0  0
   64.0073   32.1097   49.3197 H   0  0  0  0  0  0  0  0  0  0  0  0
   64.8453   33.6986   49.3197 H   0  0  0  0  0  0  0  0  0  0  0  0
   62.0800   33.2485   50.5451 H   0  0  0  0  0  0  0  0  0  0  0  0
   62.9183   34.8189   50.2017 H   0  0  0  0  0  0  0  0  0  0  0  0
   63.7350   32.5123   48.0661 H   0  0  0  0  0  0  0  0  0  0  0  0
   62.1998   32.1948   47.1815 H   0  0  0  0  0  0  0  0  0  0  0  0
   63.8999   34.7031   46.7706 H   0  0  0  0  0  0  0  0  0  0  0  0
   64.0632   33.2174   45.7743 H   0  0  0  0  0  0  0  0  0  0  0  0
   62.5181   34.1335   45.7743 H   0  0  0  0  0  0  0  0  0  0  0  0
   60.5467   35.5910   46.6920 H   0  0  0  0  0  0  0  0  0  0  0  0
   59.4029   35.9638   44.5085 H   0  0  0  0  0  0  0  0  0  0  0  0
   57.8446   34.2453   43.5991 H   0  0  0  0  0  0  0  0  0  0  0  0
   56.2620   32.2320   44.3910 H   0  0  0  0  0  0  0  0  0  0  0  0
   58.1737   30.3468   43.7010 H   0  0  0  0  0  0  0  0  0  0  0  0
   57.9860   30.1228   45.4820 H   0  0  0  0  0  0  0  0  0  0  0  0
   58.5093   28.8332   45.6432 H   0  0  0  0  0  0  0  0  0  0  0  0
   60.0363   27.0205   46.4114 H   0  0  0  0  0  0  0  0  0  0  0  0
   59.1381   24.7427   46.8897 H   0  0  0  0  0  0  0  0  0  0  0  0
   58.3988   22.6192   44.8637 H   0  0  0  0  0  0  0  0  0  0  0  0
   57.6955   21.2472   45.7918 H   0  0  0  0  0  0  0  0  0  0  0  0
   58.2456   21.3512   42.9923 H   0  0  0  0  0  0  0  0  0  0  0  0
   57.3535   20.0634   43.9126 H   0  0  0  0  0  0  0  0  0  0  0  0
   57.0194   23.1559   42.1686 H   0  0  0  0  0  0  0  0  0  0  0  0
   55.2133   23.0525   42.1478 H   0  0  0  0  0  0  0  0  0  0  0  0
   56.8086   24.4221   44.0415 H   0  0  0  0  0  0  0  0  0  0  0  0
   55.0477   24.0460   44.1631 H   0  0  0  0  0  0  0  0  0  0  0  0
   55.1654   26.0861   45.8098 H   0  0  0  0  0  0  0  0  0  0  0  0
   58.5950   31.7449   47.0549 H   0  0  0  0  0  0  0  0  0  0  0  0
  1  2  1  0
  2  3  1  0
  3  4  1  0
  4  5  1  0
  3  6  1  0
  6  7  2  0
  6  8  2  0
  6  9  1  0
  9 10  2  0
 10 11  1  0
 11 12  2  0
 12 13  1  0
 13 14  1  0
 14 15  1  0
 15 16  1  0
 16 17  2  0
 16 18  1  0
 18 19  1  0
 19 20  2  0
 20 21  1  0
 21 22  2  0
 22 23  1  0
 23 24  1  0
 24 25  2  0
 24 26  2  0
 24 27  1  0
 27 28  1  0
 28 29  1  0
 29 30  1  0
 30 31  1  0
 31 32  1  0
 23 33  2  0
 13 34  2  0
 34  9  1  0
 33 19  1  0
 32 27  1  0
  1 35  1  0
  1 36  1  0
  1 37  1  0
  2 38  1  0
  2 39  1  0
  4 40  1  0
  4 41  1  0
  5 42  1  0
  5 43  1  0
  5 44  1  0
 10 45  1  0
 11 46  1  0
 12 47  1  0
 14 48  1  0
 15 49  1  0
 15 50  1  0
 20 51  1  0
 21 52  1  0
 22 53  1  0
 28 54  1  0
 28 55  1  0
 29 56  1  0
 29 57  1  0
 31 58  1  0
 31 59  1  0
 32 60  1  0
 32 61  1  0
 33 62  1  0
 34 63  1  0
M  CHG  1  18  -1
M  END
>  <UniqueID>  (19) 
17

>  <SMILES>  (19) 
CCN(CC)S(=O)(=O)c1cccc(NCC(=O)[N-]c2cccc(S(=O)(=O)N3CCOCC3)c2)c1

>  <Energy>  (19) 
69.80462164342629

>  <Genealogy>  (19) 
CCN(CC)S(=O)(=O)c1cccc(NCC(=O)[N-]c2cccc(S(=O)(=O)N3CCOCC3)c2)c1 (protonated)
CCN(CC)S(=O)(=O)c1cccc(NCC(=O)[N-]c2cccc(S(=O)(=O)N3CCOCC3)c2)c1 (3D coordinates assigned)
CCN(CC)S(=O)(=O)c1cccc(NCC(=O)[N-]c2cccc(S(=O)(=O)N3CCOCC3)c2)c1 (nonaromatic ring conformer: 69.80462164342629 kcal/mol)

>  <smiles>  (19) 
CCN(CC)S(=O)(=O)c1cccc(NCC(=O)Nc2cccc(S(=O)(=O)N3CCOCC3)c2)c1

>  <score_type>  (19) 
oracle

>  <origin>  (19) 
adg

>  <m_score__min__energy>  (19) 
-12.720000000000001

>  <m_primary>  (19) 
energy

$$$$
19:0
     RDKit          3D

 40 42  0  0  0  0  0  0  0  0999 V2000
   59.7000   30.1730   46.2550 C   0  0  0  0  0  0  0  0  0  0  0  0
   59.1480   29.6460   44.9350 C   0  0  0  0  0  0  0  0  0  0  0  0
   57.6850   29.7660   44.9060 N   0  0  0  0  0  0  0  0  0  0  0  0
   56.9210   30.7900   44.4560 C   0  0  0  0  0  0  0  0  0  0  0  0
   57.4130   32.1020   43.9830 C   0  0  0  0  0  0  0  0  0  0  0  0
   57.3990   32.3710   42.7520 O   0  0  0  0  0  0  0  0  0  0  0  0
   57.9690   33.0570   44.9040 N   0  0  0  0  0  0  0  0  0  0  0  0
   59.1470   33.8380   44.4980 C   0  0  0  0  0  0  0  0  0  0  0  0
   59.6070   34.7820   45.6140 C   0  0  0  0  0  0  0  0  0  0  0  0
   59.5710   34.0790   46.9050 N   0  0  0  0  0  0  0  0  0  0  0  0
   60.7420   34.0190   47.7420 C   0  0  0  0  0  0  0  0  0  0  0  0
   62.0060   33.7650   47.1820 C   0  0  0  0  0  0  0  0  0  0  0  0
   63.1390   33.6940   47.9980 C   0  0  0  0  0  0  0  0  0  0  0  0
   63.0220   33.8710   49.3790 C   0  0  0  0  0  0  0  0  0  0  0  0
   64.1490   33.8010   50.1880 O   0  0  0  0  0  0  0  0  0  0  0  0
   61.7680   34.1180   49.9450 C   0  0  0  0  0  0  0  0  0  0  0  0
   60.6320   34.1890   49.1330 C   0  0  0  0  0  0  0  0  0  0  0  0
   58.3480   33.3680   47.3130 C   0  0  0  0  0  0  0  0  0  0  0  0
   57.3090   33.3460   46.1860 C   0  0  0  0  0  0  0  0  0  0  0  0
   55.6110   30.4710   44.4850 N   0  0  0  0  0  0  0  0  0  0  0  0
   55.5170   29.2300   44.9370 N   0  0  0  0  0  0  0  0  0  0  0  0
   56.7700   28.8100   45.1810 C   0  0  0  0  0  0  0  0  0  0  0  0
   57.1160   27.2980   45.7080 S   0  0  0  0  0  0  0  0  0  0  0  0
   59.1833   29.6797   47.0915 H   0  0  0  0  0  0  0  0  0  0  0  0
   60.7776   29.9601   46.3129 H   0  0  0  0  0  0  0  0  0  0  0  0
   59.5372   31.2594   46.3129 H   0  0  0  0  0  0  0  0  0  0  0  0
   59.5756   30.2281   44.1054 H   0  0  0  0  0  0  0  0  0  0  0  0
   59.4204   28.5851   44.8332 H   0  0  0  0  0  0  0  0  0  0  0  0
   59.9672   33.1469   44.2538 H   0  0  0  0  0  0  0  0  0  0  0  0
   58.8732   34.4457   43.6230 H   0  0  0  0  0  0  0  0  0  0  0  0
   60.6344   35.1172   45.4089 H   0  0  0  0  0  0  0  0  0  0  0  0
   58.9353   35.6522   45.6546 H   0  0  0  0  0  0  0  0  0  0  0  0
   62.1042   33.6213   46.0959 H   0  0  0  0  0  0  0  0  0  0  0  0
   64.1251   33.4983   47.5516 H   0  0  0  0  0  0  0  0  0  0  0  0
   61.6747   34.2569   51.0322 H   0  0  0  0  0  0  0  0  0  0  0  0
   59.6473   34.3788   49.5849 H   0  0  0  0  0  0  0  0  0  0  0  0
   58.6082   32.3330   47.5796 H   0  0  0  0  0  0  0  0  0  0  0  0
   57.9124   33.8962   48.1740 H   0  0  0  0  0  0  0  0  0  0  0  0
   56.5605   32.5675   46.3948 H   0  0  0  0  0  0  0  0  0  0  0  0
   56.8168   34.3280   46.1273 H   0  0  0  0  0  0  0  0  0  0  0  0
  1  2  1  0
  2  3  1  0
  3  4  1  0
  4  5  1  0
  5  6  2  0
  5  7  1  0
  7  8  1  0
  8  9  1  0
  9 10  1  0
 10 11  1  0
 11 12  2  0
 12 13  1  0
 13 14  2  0
 14 15  1  0
 14 16  1  0
 16 17  2  0
 10 18  1  0
 18 19  1  0
  4 20  2  0
 20 21  1  0
 21 22  1  0
 22 23  2  0
 22  3  1  0
 19  7  1  0
 17 11  1  0
  1 24  1  0
  1 25  1  0
  1 26  1  0
  2 27  1  0
  2 28  1  0
  8 29  1  0
  8 30  1  0
  9 31  1  0
  9 32  1  0
 12 33  1  0
 13 34  1  0
 16 35  1  0
 17 36  1  0
 18 37  1  0
 18 38  1  0
 19 39  1  0
 19 40  1  0
M  CHG  2  15  -1  21  -1
M  END
>  <UniqueID>  (20) 
18

>  <SMILES>  (20) 
CCn1c(C(=O)N2CCN(c3ccc([O-])cc3)CC2)n[n-]c1=S

>  <Energy>  (20) 
83.2613764371978

>  <Genealogy>  (20) 
CCn1c(C(=O)N2CCN(c3ccc([O-])cc3)CC2)n[n-]c1=S (protonated)
CCn1c(C(=O)N2CCN(c3ccc([O-])cc3)CC2)n[n-]c1=S (3D coordinates assigned)
CCn1c(C(=O)N2CCN(c3ccc([O-])cc3)CC2)n[n-]c1=S (nonaromatic ring conformer: 83.2613764371978 kcal/mol)

>  <smiles>  (20) 
CCn1c(C(=O)N2CCN(c3ccc(O)cc3)CC2)n[nH]c1=S

>  <score_type>  (20) 
oracle

>  <origin>  (20) 
adg

>  <m_score__min__energy>  (20) 
-10.710000000000001

>  <m_primary>  (20) 
energy

$$$$
20:0
     RDKit          3D

 39 41  0  0  0  0  0  0  0  0999 V2000
   57.3708   22.0393   45.8847 H   0  0  0  0  0  0  0  0  0  0  0  0
   56.8520   23.0090   45.9070 C   0  0  0  0  0  0  0  0  0  0  0  0
   57.4650   24.0960   46.4430 N   0  0  0  0  0  0  0  0  0  0  0  0
   56.8640   25.3190   46.4950 C   0  0  0  0  0  0  0  0  0  0  0  0
   57.4830   26.3590   46.9770 N   0  0  0  0  0  0  0  0  0  0  0  0
   58.8670   26.7160   46.8260 C   0  0  0  0  0  0  0  0  0  0  0  0
   59.6690   26.4200   47.7510 O   0  0  0  0  0  0  0  0  0  0  0  0
   59.4120   27.3700   45.5850 C   0  0  0  0  0  0  0  0  0  0  0  0
   60.3370   27.9081   45.8395 H   0  0  0  0  0  0  0  0  0  0  0  0
   59.6118   26.5879   44.8378 H   0  0  0  0  0  0  0  0  0  0  0  0
   58.4270   28.3380   45.0070 C   0  0  0  0  0  0  0  0  0  0  0  0
   58.7270   29.5300   44.5510 O   0  0  0  0  0  0  0  0  0  0  0  0
   57.5900   30.0220   44.1160 C   0  0  0  0  0  0  0  0  0  0  0  0
   57.4130   31.6480   43.3920 S   0  0  0  0  0  0  0  0  0  0  0  0
   57.1220   32.4980   44.9840 C   0  0  0  0  0  0  0  0  0  0  0  0
   56.5535   33.4212   44.7980 H   0  0  0  0  0  0  0  0  0  0  0  0
   56.5595   31.8185   45.6412 H   0  0  0  0  0  0  0  0  0  0  0  0
   58.4190   32.8500   45.6650 C   0  0  0  0  0  0  0  0  0  0  0  0
   59.1110   31.8900   46.4190 C   0  0  0  0  0  0  0  0  0  0  0  0
   58.6900   30.8809   46.5393 H   0  0  0  0  0  0  0  0  0  0  0  0
   60.3330   32.2100   47.0180 C   0  0  0  0  0  0  0  0  0  0  0  0
   60.8617   31.4545   47.6178 H   0  0  0  0  0  0  0  0  0  0  0  0
   60.8910   33.4910   46.8590 C   0  0  0  0  0  0  0  0  0  0  0  0
   62.2030   33.8200   47.4580 C   0  0  0  0  0  0  0  0  0  0  0  0
   62.2850   34.1820   48.6620 O   0  0  0  0  0  0  0  0  0  0  0  0
   63.3670   33.7240   46.7040 O   0  0  0  0  0  0  0  0  0  0  0  0
   60.1890   34.4530   46.1120 C   0  0  0  0  0  0  0  0  0  0  0  0
   60.6087   35.4623   45.9887 H   0  0  0  0  0  0  0  0  0  0  0  0
   58.9610   34.1350   45.5250 C   0  0  0  0  0  0  0  0  0  0  0  0
   58.4165   34.8981   44.9495 H   0  0  0  0  0  0  0  0  0  0  0  0
   56.5730   29.1520   44.2830 N   0  0  0  0  0  0  0  0  0  0  0  0
   57.1160   28.0880   44.8480 N   0  0  0  0  0  0  0  0  0  0  0  0
   56.5990   27.2200   45.1110 H   0  0  0  0  0  0  0  0  0  0  0  0
   55.5740   25.4710   45.9680 C   0  0  0  0  0  0  0  0  0  0  0  0
   54.9380   26.7090   45.9890 O   0  0  0  0  0  0  0  0  0  0  0  0
   54.9240   24.3630   45.4160 C   0  0  0  0  0  0  0  0  0  0  0  0
   53.9085   24.4683   45.0064 H   0  0  0  0  0  0  0  0  0  0  0  0
   55.5640   23.1240   45.3850 C   0  0  0  0  0  0  0  0  0  0  0  0
   55.0584   22.2475   44.9536 H   0  0  0  0  0  0  0  0  0  0  0  0
  1  2  1  0
  2  3  1  0
  3  4  1  0
  4  5  2  0
  5  6  1  0
  6  7  2  0
  6  8  1  0
  8  9  1  0
  8 10  1  0
  8 11  1  0
 11 12  1  0
 12 13  1  0
 13 14  1  0
 14 15  1  0
 15 16  1  0
 15 17  1  0
 15 18  1  0
 18 19  2  0
 19 20  1  0
 19 21  1  0
 21 22  1  0
 21 23  2  0
 23 24  1  0
 24 25  2  0
 24 26  1  0
 23 27  1  0
 27 28  1  0
 27 29  2  0
 29 30  1  0
 13 31  2  0
 31 32  1  0
 32 33  1  0
  4 34  1  0
 34 35  1  0
 34 36  2  0
 36 37  1  0
 36 38  1  0
 38 39  1  0
 38  2  2  0
 32 11  2  0
 29 18  1  0
M  CHG  4   3  -1  26  -1  32   1  35  -1
M  END
>  <UniqueID>  (21) 
19

>  <SMILES>  (21) 
O=C(Cc1[nH+]nc(SCc2ccc(C(=O)[O-])cc2)o1)/N=c1\[n-]cccc1[O-]

>  <Energy>  (21) 
73.16575068064823

>  <Genealogy>  (21) 
O=C(Cc1[nH+]nc(SCc2ccc(C(=O)[O-])cc2)o1)N=c1[n-]cccc1[O-] (protonated)
O=C(Cc1[nH+]nc(SCc2ccc(C(=O)[O-])cc2)o1)/N=c1\[n-]cccc1[O-] (cis-trans isomerization)
O=C(Cc1[nH+]nc(SCc2ccc(C(=O)[O-])cc2)o1)/N=c1\[n-]cccc1[O-] (3D coordinates assigned)
O=C(Cc1[nH+]nc(SCc2ccc(C(=O)[O-])cc2)o1)/N=c1\[n-]cccc1[O-] (optimized conformer: 73.16575068064823 kcal/mol)

>  <smiles>  (21) 
O=C(Cc1nnc(SCc2ccc(C(=O)O)cc2)o1)N=c1[nH]cccc1O

>  <score_type>  (21) 
oracle

>  <origin>  (21) 
adg

>  <m_score__min__energy>  (21) 
-13.6

>  <m_primary>  (21) 
energy

$$$$
21:0
     RDKit          3D

 45 47  0  0  0  0  0  0  0  0999 V2000
   60.6699   27.2449   47.5928 H   0  0  0  0  0  0  0  0  0  0  0  0
   60.0110   27.6620   46.8170 C   0  0  0  0  0  0  0  0  0  0  0  0
   58.6240   27.5140   46.9230 C   0  0  0  0  0  0  0  0  0  0  0  0
   58.1929   26.9682   47.7752 H   0  0  0  0  0  0  0  0  0  0  0  0
   57.7860   28.0590   45.9470 C   0  0  0  0  0  0  0  0  0  0  0  0
   56.6959   27.9403   46.0338 H   0  0  0  0  0  0  0  0  0  0  0  0
   58.3280   28.7580   44.8550 C   0  0  0  0  0  0  0  0  0  0  0  0
   57.4230   29.3160   43.7880 C   0  0  0  0  0  0  0  0  0  0  0  0
   57.0605   28.4907   43.1576 H   0  0  0  0  0  0  0  0  0  0  0  0
   57.9959   30.0393   43.1892 H   0  0  0  0  0  0  0  0  0  0  0  0
   56.2460   30.0250   44.3900 C   0  0  0  0  0  0  0  0  0  0  0  0
   55.3090   29.3430   44.8880 O   0  0  0  0  0  0  0  0  0  0  0  0
   56.2570   31.4570   44.4950 N   0  0  0  0  0  0  0  0  0  0  0  0
   57.1770   32.2000   45.0350 C   0  0  0  0  0  0  0  0  0  0  0  0
   58.1480   31.6650   46.2930 S   0  0  0  0  0  0  0  0  0  0  0  0
   59.0980   33.0580   46.2940 C   0  0  0  0  0  0  0  0  0  0  0  0
   60.2980   33.2590   47.1290 C   0  0  0  0  0  0  0  0  0  0  0  0
   61.3490   33.7040   46.6050 O   0  0  0  0  0  0  0  0  0  0  0  0
   60.2840   33.0010   48.5400 N   0  0  0  0  0  0  0  0  0  0  0  0
   59.9520   31.7540   49.1710 C   0  0  0  0  0  0  0  0  0  0  0  0
   60.8270   30.6700   49.0330 C   0  0  0  0  0  0  0  0  0  0  0  0
   61.7541   30.7864   48.4526 H   0  0  0  0  0  0  0  0  0  0  0  0
   60.5300   29.4410   49.6280 C   0  0  0  0  0  0  0  0  0  0  0  0
   61.2284   28.5975   49.5244 H   0  0  0  0  0  0  0  0  0  0  0  0
   59.3460   29.2820   50.3550 C   0  0  0  0  0  0  0  0  0  0  0  0
   59.1165   28.3119   50.8199 H   0  0  0  0  0  0  0  0  0  0  0  0
   58.4510   30.3490   50.4950 C   0  0  0  0  0  0  0  0  0  0  0  0
   57.2860   30.1470   51.2530 O   0  0  0  0  0  0  0  0  0  0  0  0
   56.6220   31.1660   51.9950 C   0  0  0  0  0  0  0  0  0  0  0  0
   56.7460   30.9757   53.0713 H   0  0  0  0  0  0  0  0  0  0  0  0
   57.0562   32.1449   51.7433 H   0  0  0  0  0  0  0  0  0  0  0  0
   55.5512   31.1642   51.7433 H   0  0  0  0  0  0  0  0  0  0  0  0
   58.7480   31.5790   49.8790 C   0  0  0  0  0  0  0  0  0  0  0  0
   58.0326   32.4114   49.9515 H   0  0  0  0  0  0  0  0  0  0  0  0
   58.6160   33.9160   45.2990 C   0  0  0  0  0  0  0  0  0  0  0  0
   59.2490   35.2320   44.9560 C   0  0  0  0  0  0  0  0  0  0  0  0
   59.5065   35.7674   45.8818 H   0  0  0  0  0  0  0  0  0  0  0  0
   60.1617   35.0575   44.3674 H   0  0  0  0  0  0  0  0  0  0  0  0
   58.5430   35.8361   44.3674 H   0  0  0  0  0  0  0  0  0  0  0  0
   57.5550   33.4250   44.5970 N   0  0  0  0  0  0  0  0  0  0  0  0
   57.1380   33.9310   43.7880 H   0  0  0  0  0  0  0  0  0  0  0  0
   59.7240   28.8850   44.7440 C   0  0  0  0  0  0  0  0  0  0  0  0
   60.1603   29.4140   43.8839 H   0  0  0  0  0  0  0  0  0  0  0  0
   60.5590   28.3400   45.7250 C   0  0  0  0  0  0  0  0  0  0  0  0
   61.6503   28.4455   45.6365 H   0  0  0  0  0  0  0  0  0  0  0  0
  1  2  1  0
  2  3  2  0
  3  4  1  0
  3  5  1  0
  5  6  1  0
  5  7  2  0
  7  8  1  0
  8  9  1  0
  8 10  1  0
  8 11  1  0
 11 12  2  0
 11 13  1  0
 13 14  2  0
 14 15  1  0
 15 16  1  0
 16 17  1  0
 17 18  2  0
 17 19  1  0
 19 20  1  0
 20 21  2  0
 21 22  1  0
 21 23  1  0
 23 24  1  0
 23 25  2  0
 25 26  1  0
 25 27  1  0
 27 28  1  0
 28 29  1  0
 29 30  1  0
 29 31  1  0
 29 32  1  0
 27 33  2  0
 33 34  1  0
 16 35  2  0
 35 36  1  0
 36 37  1  0
 36 38  1  0
 36 39  1  0
 35 40  1  0
 40 41  1  0
  7 42  1  0
 42 43  1  0
 42 44  2  0
 44 45  1  0
 44  2  1  0
 40 14  1  0
 33 20  1  0
M  CHG  1  19  -1
M  END
>  <UniqueID>  (22) 
20

>  <SMILES>  (22) 
COc1cccc([N-]C(=O)c2s/c(=N/C(=O)Cc3ccccc3)[nH]c2C)c1

>  <Energy>  (22) 
83.96922805184488

>  <Genealogy>  (22) 
COc1cccc([N-]C(=O)c2sc(=NC(=O)Cc3ccccc3)[nH]c2C)c1 (protonated)
COc1cccc([N-]C(=O)c2s/c(=N/C(=O)Cc3ccccc3)[nH]c2C)c1 (cis-trans isomerization)
COc1cccc([N-]C(=O)c2s/c(=N/C(=O)Cc3ccccc3)[nH]c2C)c1 (3D coordinates assigned)
COc1cccc([N-]C(=O)c2s/c(=N/C(=O)Cc3ccccc3)[nH]c2C)c1 (optimized conformer: 83.96922805184488 kcal/mol)

>  <smiles>  (22) 
COc1cccc(NC(=O)c2sc(=NC(=O)Cc3ccccc3)[nH]c2C)c1

>  <score_type>  (22) 
oracle

>  <origin>  (22) 
adg

>  <m_score__min__energy>  (22) 
-9.8900000000000006

>  <m_primary>  (22) 
energy

$$$$
22:0
     RDKit          3D

 28 29  0  0  0  0  0  0  0  0999 V2000
   54.9530   23.6660   46.4210 C   0  0  0  0  0  0  0  0  0  0  0  0
   55.8600   24.4620   47.1780 O   0  0  0  0  0  0  0  0  0  0  0  0
   56.7170   25.4280   46.6290 C   0  0  0  0  0  0  0  0  0  0  0  0
   58.1180   25.2950   46.6590 C   0  0  0  0  0  0  0  0  0  0  0  0
   58.9340   26.2820   46.0990 C   0  0  0  0  0  0  0  0  0  0  0  0
   58.3660   27.4210   45.5070 C   0  0  0  0  0  0  0  0  0  0  0  0
   59.2440   28.4680   44.8740 C   0  0  0  0  0  0  0  0  0  0  0  0
   58.7380   29.8550   45.2040 C   0  0  0  0  0  0  0  0  0  0  0  0
   57.7080   30.4480   44.4510 C   0  0  0  0  0  0  0  0  0  0  0  0
   57.1540   29.7850   43.3600 O   0  0  0  0  0  0  0  0  0  0  0  0
   57.2460   31.6820   44.7880 N   0  0  0  0  0  0  0  0  0  0  0  0
   57.7590   32.3590   45.8450 C   0  0  0  0  0  0  0  0  0  0  0  0
   57.1810   33.8380   46.2230 S   0  0  0  0  0  0  0  0  0  0  0  0
   58.7480   31.8070   46.5910 N   0  0  0  0  0  0  0  0  0  0  0  0
   59.2460   30.5790   46.2990 C   0  0  0  0  0  0  0  0  0  0  0  0
   60.1640   30.1020   47.0180 O   0  0  0  0  0  0  0  0  0  0  0  0
   56.9690   27.5520   45.4740 C   0  0  0  0  0  0  0  0  0  0  0  0
   56.1520   26.5640   46.0330 C   0  0  0  0  0  0  0  0  0  0  0  0
   54.7710   26.7140   45.9940 O   0  0  0  0  0  0  0  0  0  0  0  0
   54.3053   23.0976   47.1047 H   0  0  0  0  0  0  0  0  0  0  0  0
   54.3342   24.3179   45.7869 H   0  0  0  0  0  0  0  0  0  0  0  0
   55.5191   22.9678   45.7869 H   0  0  0  0  0  0  0  0  0  0  0  0
   58.5733   24.4091   47.1259 H   0  0  0  0  0  0  0  0  0  0  0  0
   60.0276   26.1655   46.1223 H   0  0  0  0  0  0  0  0  0  0  0  0
   60.2704   28.3574   45.2538 H   0  0  0  0  0  0  0  0  0  0  0  0
   59.2267   28.3337   43.7824 H   0  0  0  0  0  0  0  0  0  0  0  0
   57.7340   29.4710   42.5910 H   0  0  0  0  0  0  0  0  0  0  0  0
   56.5139   28.4371   45.0056 H   0  0  0  0  0  0  0  0  0  0  0  0
  1  2  1  0
  2  3  1  0
  3  4  2  0
  4  5  1  0
  5  6  2  0
  6  7  1  0
  7  8  1  0
  8  9  2  0
  9 10  1  0
  9 11  1  0
 11 12  1  0
 12 13  2  0
 12 14  1  0
 14 15  1  0
 15 16  2  0
  6 17  1  0
 17 18  2  0
 18 19  1  0
 18  3  1  0
 15  8  1  0
  1 20  1  0
  1 21  1  0
  1 22  1  0
  4 23  1  0
  5 24  1  0
  7 25  1  0
  7 26  1  0
 10 27  1  0
 17 28  1  0
M  CHG  3  11  -1  14  -1  19  -1
M  END
>  <UniqueID>  (23) 
21

>  <SMILES>  (23) 
COc1ccc(Cc2c(O)[n-]c(=S)[n-]c2=O)cc1[O-]

>  <Energy>  (23) 
28.85661059853157

>  <Genealogy>  (23) 
COc1ccc(Cc2c(O)[n-]c(=S)[n-]c2=O)cc1[O-] (protonated)
COc1ccc(Cc2c(O)[n-]c(=S)[n-]c2=O)cc1[O-] (3D coordinates assigned)
COc1ccc(Cc2c(O)[n-]c(=S)[n-]c2=O)cc1[O-] (optimized conformer: 28.85661059853157 kcal/mol)

>  <smiles>  (23) 
COc1ccc(Cc2c(O)[nH]c(=S)[nH]c2=O)cc1O

>  <score_type>  (23) 
oracle

>  <origin>  (23) 
adg

>  <m_score__min__energy>  (23) 
-11.98

>  <m_primary>  (23) 
energy

$$$$
23:0
     RDKit          3D

 48 51  0  0  0  0  0  0  0  0999 V2000
   59.9950   30.2120   48.2120 C   0  0  0  0  0  0  0  0  0  0  0  0
   59.4660   29.6570   46.9140 C   0  0  0  0  0  0  0  0  0  0  0  0
   59.6060   28.3490   46.6520 C   0  0  0  0  0  0  0  0  0  0  0  0
   59.0850   27.7210   45.3830 C   0  0  1  0  0  0  0  0  0  0  0  0
   58.0600   26.6660   45.7230 C   0  0  0  0  0  0  0  0  0  0  0  0
   58.4660   25.3810   46.1200 C   0  0  0  0  0  0  0  0  0  0  0  0
   57.5160   24.4100   46.4450 C   0  0  0  0  0  0  0  0  0  0  0  0
   56.1460   24.7020   46.3740 C   0  0  0  0  0  0  0  0  0  0  0  0
   55.1840   23.6890   46.7080 N   0  0  0  0  0  0  0  0  0  0  0  0
   54.0210   23.4630   46.0670 C   0  0  0  0  0  0  0  0  0  0  0  0
   53.3690   22.4260   46.7030 C   0  0  0  0  0  0  0  0  0  0  0  0
   54.1200   22.0190   47.7440 N   0  0  0  0  0  0  0  0  0  0  0  0
   55.2110   22.8100   47.7360 C   0  0  0  0  0  0  0  0  0  0  0  0
   56.2990   22.7150   48.7630 C   0  0  0  0  0  0  0  0  0  0  0  0
   55.7360   25.9960   46.0080 C   0  0  0  0  0  0  0  0  0  0  0  0
   54.3870   26.3310   45.9930 O   0  0  0  0  0  0  0  0  0  0  0  0
   56.6860   26.9660   45.6790 C   0  0  0  0  0  0  0  0  0  0  0  0
   58.4920   28.6990   44.4640 N   0  0  0  0  0  0  0  0  0  0  0  0
   58.3530   29.9700   44.7030 C   0  0  0  0  0  0  0  0  0  0  0  0
   57.7350   30.7740   43.7480 C   0  0  0  0  0  0  0  0  0  0  0  0
   57.5570   32.1400   43.9720 C   0  0  0  0  0  0  0  0  0  0  0  0
   58.0130   32.7540   45.1630 C   0  0  0  0  0  0  0  0  0  0  0  0
   57.8450   34.0950   45.3830 C   0  0  0  0  0  0  0  0  0  0  0  0
   58.8330   34.8800   46.0710 N   0  0  0  0  0  0  0  0  0  0  0  0
   56.6710   34.7930   44.9360 N   0  0  0  0  0  0  0  0  0  0  0  0
   58.6130   31.9140   46.1360 C   0  0  0  0  0  0  0  0  0  0  0  0
   58.7990   30.5340   45.9100 C   0  0  0  0  0  0  0  0  0  0  0  0
   59.5076   29.7006   49.0552 H   0  0  0  0  0  0  0  0  0  0  0  0
   61.0818   30.0505   48.2640 H   0  0  0  0  0  0  0  0  0  0  0  0
   59.7816   31.2898   48.2640 H   0  0  0  0  0  0  0  0  0  0  0  0
   60.1185   27.7120   47.3880 H   0  0  0  0  0  0  0  0  0  0  0  0
   59.9475   27.2721   44.8687 H   0  0  0  0  0  0  0  0  0  0  0  0
   59.5375   25.1383   46.1752 H   0  0  0  0  0  0  0  0  0  0  0  0
   57.8449   23.4084   46.7591 H   0  0  0  0  0  0  0  0  0  0  0  0
   53.6537   24.0113   45.1870 H   0  0  0  0  0  0  0  0  0  0  0  0
   52.3975   22.0024   46.4085 H   0  0  0  0  0  0  0  0  0  0  0  0
   53.8910   21.2600   48.4240 H   0  0  0  0  0  0  0  0  0  0  0  0
   55.8573   22.7536   49.7697 H   0  0  0  0  0  0  0  0  0  0  0  0
   56.8409   21.7661   48.6364 H   0  0  0  0  0  0  0  0  0  0  0  0
   56.9971   23.5556   48.6364 H   0  0  0  0  0  0  0  0  0  0  0  0
   56.3570   27.9730   45.3830 H   0  0  0  0  0  0  0  0  0  0  0  0
   57.3832   30.3271   42.8064 H   0  0  0  0  0  0  0  0  0  0  0  0
   57.0529   32.7509   43.2087 H   0  0  0  0  0  0  0  0  0  0  0  0
   58.6830   35.2890   47.0180 H   0  0  0  0  0  0  0  0  0  0  0  0
   59.6550   35.2470   45.5420 H   0  0  0  0  0  0  0  0  0  0  0  0
   56.3190   34.7340   43.9550 H   0  0  0  0  0  0  0  0  0  0  0  0
   56.0050   35.1800   45.6380 H   0  0  0  0  0  0  0  0  0  0  0  0
   58.9416   32.3498   47.0910 H   0  0  0  0  0  0  0  0  0  0  0  0
  1  2  1  0
  2  3  2  0
  3  4  1  0
  4  5  1  0
  5  6  2  0
  6  7  1  0
  7  8  2  0
  8  9  1  0
  9 10  1  0
 10 11  2  0
 11 12  1  0
 12 13  2  0
 13 14  1  0
  8 15  1  0
 15 16  1  0
 15 17  2  0
  4 18  1  0
 18 19  2  0
 19 20  1  0
 20 21  2  0
 21 22  1  0
 22 23  2  3
 23 24  1  0
 23 25  1  0
 22 26  1  0
 26 27  2  0
 27  2  1  0
 17  5  1  0
 27 19  1  0
 13  9  1  0
  1 28  1  0
  1 29  1  0
  1 30  1  0
  3 31  1  0
  4 32  1  6
  6 33  1  0
  7 34  1  0
 10 35  1  0
 11 36  1  0
 12 37  1  0
 14 38  1  0
 14 39  1  0
 14 40  1  0
 17 41  1  0
 20 42  1  0
 21 43  1  0
 24 44  1  0
 24 45  1  0
 25 46  1  0
 25 47  1  0
 26 48  1  0
M  CHG  2  12   1  16  -1
M  END
>  <UniqueID>  (24) 
22

>  <SMILES>  (24) 
CC1=C[C@@H](c2ccc(-n3cc[nH+]c3C)c([O-])c2)N=c2ccc(=C(N)N)cc21

>  <Energy>  (24) 
103.67071323736569

>  <Genealogy>  (24) 
CC1=CC(c2ccc(-n3cc[nH+]c3C)c([O-])c2)N=c2ccc(=C(N)N)cc21 (protonated)
CC1=C[C@@H](c2ccc(-n3cc[nH+]c3C)c([O-])c2)N=c2ccc(=C(N)N)cc21 (chirality)
CC1=C[C@@H](c2ccc(-n3cc[nH+]c3C)c([O-])c2)N=c2ccc(=C(N)N)cc21 (3D coordinates assigned)
CC1=C[C@@H](c2ccc(-n3cc[nH+]c3C)c([O-])c2)N=c2ccc(=C(N)N)cc21 (nonaromatic ring conformer: 103.67071323736569 kcal/mol)

>  <smiles>  (24) 
CC1=CC(c2ccc(-n3ccnc3C)c(O)c2)N=c2ccc(=C(N)N)cc21

>  <score_type>  (24) 
oracle

>  <origin>  (24) 
adg

>  <m_score__min__energy>  (24) 
-9.5999999999999996

>  <m_primary>  (24) 
energy

$$$$
24:0
     RDKit          3D

 61 63  0  0  0  0  0  0  0  0999 V2000
   56.6900   21.7100   42.6400 C   0  0  0  0  0  0  0  0  0  0  0  0
   55.7470   22.5710   43.3430 N   0  0  0  0  0  0  0  0  0  0  0  0
   56.1320   22.6160   45.0380 S   0  0  0  0  0  0  0  0  0  0  0  0
   54.8570   22.7990   45.8160 O   0  0  0  0  0  0  0  0  0  0  0  0
   56.7100   21.2900   45.4480 O   0  0  0  0  0  0  0  0  0  0  0  0
   57.2280   23.9930   45.3880 C   0  0  0  0  0  0  0  0  0  0  0  0
   58.6430   23.8490   45.3390 C   0  0  0  0  0  0  0  0  0  0  0  0
   59.3210   22.5530   44.9690 C   0  0  0  0  0  0  0  0  0  0  0  0
   59.4650   24.9370   45.6570 C   0  0  0  0  0  0  0  0  0  0  0  0
   58.9260   26.1720   46.0190 C   0  0  0  0  0  0  0  0  0  0  0  0
   59.8440   27.3020   46.3970 C   0  0  0  0  0  0  0  0  0  0  0  0
   57.5330   26.3310   46.0830 C   0  0  0  0  0  0  0  0  0  0  0  0
   57.0110   27.5980   46.5110 N   0  0  0  0  0  0  0  0  0  0  0  0
   56.6810   28.6720   45.6240 C   0  0  0  0  0  0  0  0  0  0  0  0
   55.6580   28.5970   44.8950 O   0  0  0  0  0  0  0  0  0  0  0  0
   57.4560   29.8750   45.6170 N   0  0  0  0  0  0  0  0  0  0  0  0
   57.5510   30.8250   44.5430 C   0  0  0  0  0  0  0  0  0  0  0  0
   57.2570   30.4550   43.2170 C   0  0  0  0  0  0  0  0  0  0  0  0
   57.3820   31.3820   42.1800 C   0  0  0  0  0  0  0  0  0  0  0  0
   57.7930   32.6880   42.4530 C   0  0  0  0  0  0  0  0  0  0  0  0
   58.0620   33.0750   43.7650 C   0  0  0  0  0  0  0  0  0  0  0  0
   57.9220   32.1570   44.8210 C   0  0  0  0  0  0  0  0  0  0  0  0
   58.1920   32.6060   46.2030 C   0  0  0  0  0  0  0  0  0  0  0  0
   57.2440   33.0890   46.8860 O   0  0  0  0  0  0  0  0  0  0  0  0
   59.4980   32.4790   46.7930 N   0  0  0  0  0  0  0  0  0  0  0  0
   59.9570   33.4930   47.7450 C   0  0  0  0  0  0  0  0  0  0  0  0
   61.4270   33.2720   48.0990 C   0  0  0  0  0  0  0  0  0  0  0  0
   61.6300   31.8950   48.5840 N   0  0  0  0  0  0  0  0  0  0  0  0
   63.0460   31.6740   48.9110 C   0  0  0  0  0  0  0  0  0  0  0  0
   61.1150   30.8360   47.6710 C   0  0  0  0  0  0  0  0  0  0  0  0
   60.3890   31.3720   46.4260 C   0  0  0  0  0  0  0  0  0  0  0  0
   56.6760   25.2690   45.7030 C   0  0  0  0  0  0  0  0  0  0  0  0
   55.1830   25.5120   45.6300 C   0  0  0  0  0  0  0  0  0  0  0  0
   57.2966   21.1562   43.3717 H   0  0  0  0  0  0  0  0  0  0  0  0
   56.1369   20.9988   42.0089 H   0  0  0  0  0  0  0  0  0  0  0  0
   57.3481   22.3253   42.0089 H   0  0  0  0  0  0  0  0  0  0  0  0
   59.6037   22.0127   45.8845 H   0  0  0  0  0  0  0  0  0  0  0  0
   58.6310   21.9344   44.3764 H   0  0  0  0  0  0  0  0  0  0  0  0
   60.2226   22.7670   44.3764 H   0  0  0  0  0  0  0  0  0  0  0  0
   60.5577   24.8157   45.6207 H   0  0  0  0  0  0  0  0  0  0  0  0
   59.9034   27.3752   47.4930 H   0  0  0  0  0  0  0  0  0  0  0  0
   60.8470   27.1123   45.9872 H   0  0  0  0  0  0  0  0  0  0  0  0
   59.4528   28.2449   45.9872 H   0  0  0  0  0  0  0  0  0  0  0  0
   56.9267   29.4292   42.9962 H   0  0  0  0  0  0  0  0  0  0  0  0
   57.1562   31.0825   41.1459 H   0  0  0  0  0  0  0  0  0  0  0  0
   57.9046   33.4120   41.6324 H   0  0  0  0  0  0  0  0  0  0  0  0
   58.3858   34.1050   43.9755 H   0  0  0  0  0  0  0  0  0  0  0  0
   59.8393   34.4902   47.2958 H   0  0  0  0  0  0  0  0  0  0  0  0
   59.3557   33.4157   48.6628 H   0  0  0  0  0  0  0  0  0  0  0  0
   62.0454   33.4375   47.2045 H   0  0  0  0  0  0  0  0  0  0  0  0
   61.7168   33.9788   48.8905 H   0  0  0  0  0  0  0  0  0  0  0  0
   63.1713   31.6545   50.0037 H   0  0  0  0  0  0  0  0  0  0  0  0
   63.3747   30.7137   48.4870 H   0  0  0  0  0  0  0  0  0  0  0  0
   63.6517   32.4885   48.4870 H   0  0  0  0  0  0  0  0  0  0  0  0
   61.9666   30.2252   47.3369 H   0  0  0  0  0  0  0  0  0  0  0  0
   60.3739   30.2593   48.2439 H   0  0  0  0  0  0  0  0  0  0  0  0
   61.1323   31.7303   45.6986 H   0  0  0  0  0  0  0  0  0  0  0  0
   59.7900   30.5618   45.9846 H   0  0  0  0  0  0  0  0  0  0  0  0
   54.7722   25.5789   46.6482 H   0  0  0  0  0  0  0  0  0  0  0  0
   54.9905   26.4533   45.0944 H   0  0  0  0  0  0  0  0  0  0  0  0
   54.7019   24.6803   45.0944 H   0  0  0  0  0  0  0  0  0  0  0  0
  1  2  1  0
  2  3  1  0
  3  4  2  0
  3  5  2  0
  3  6  1  0
  6  7  2  0
  7  8  1  0
  7  9  1  0
  9 10  2  0
 10 11  1  0
 10 12  1  0
 12 13  1  0
 13 14  1  0
 14 15  2  0
 14 16  1  0
 16 17  1  0
 17 18  2  0
 18 19  1  0
 19 20  2  0
 20 21  1  0
 21 22  2  0
 22 23  1  0
 23 24  2  0
 23 25  1  0
 25 26  1  0
 26 27  1  0
 27 28  1  0
 28 29  1  0
 28 30  1  0
 30 31  1  0
 12 32  2  0
 32 33  1  0
 32  6  1  0
 22 17  1  0
 31 25  1  0
  1 34  1  0
  1 35  1  0
  1 36  1  0
  8 37  1  0
  8 38  1  0
  8 39  1  0
  9 40  1  0
 11 41  1  0
 11 42  1  0
 11 43  1  0
 18 44  1  0
 19 45  1  0
 20 46  1  0
 21 47  1  0
 26 48  1  0
 26 49  1  0
 27 50  1  0
 27 51  1  0
 29 52  1  0
 29 53  1  0
 29 54  1  0
 30 55  1  0
 30 56  1  0
 31 57  1  0
 31 58  1  0
 33 59  1  0
 33 60  1  0
 33 61  1  0
M  CHG  3   2  -1  13  -1  16  -1
M  END
>  <UniqueID>  (25) 
23

>  <SMILES>  (25) 
C[N-]S(=O)(=O)c1c(C)cc(C)c([N-]C(=O)[N-]c2ccccc2C(=O)N2CCN(C)CC2)c1C

>  <Energy>  (25) 
89.03467388876105

>  <Genealogy>  (25) 
C[N-]S(=O)(=O)c1c(C)cc(C)c([N-]C(=O)[N-]c2ccccc2C(=O)N2CCN(C)CC2)c1C (protonated)
C[N-]S(=O)(=O)c1c(C)cc(C)c([N-]C(=O)[N-]c2ccccc2C(=O)N2CCN(C)CC2)c1C (3D coordinates assigned)
C[N-]S(=O)(=O)c1c(C)cc(C)c([N-]C(=O)[N-]c2ccccc2C(=O)N2CCN(C)CC2)c1C (nonaromatic ring conformer: 89.03467388876105 kcal/mol)

>  <smiles>  (25) 
CNS(=O)(=O)c1c(C)cc(C)c(NC(=O)Nc2ccccc2C(=O)N2CCN(C)CC2)c1C

>  <score_type>  (25) 
oracle

>  <origin>  (25) 
adg

>  <m_score__min__energy>  (25) 
-13.789999999999999

>  <m_primary>  (25) 
energy

$$$$
25:0
     RDKit          3D

 44 45  0  0  0  0  0  0  0  0999 V2000
   62.8090   33.5360   46.7270 C   0  0  0  0  0  0  0  0  0  0  0  0
   61.9080   33.8650   47.9100 C   0  0  0  0  0  0  0  0  0  0  0  0
   60.5940   33.2360   47.7400 N   0  0  0  0  0  0  0  0  0  0  0  0
   59.4130   34.0550   47.4470 C   0  0  0  0  0  0  0  0  0  0  0  0
   58.7800   33.5870   46.1750 C   0  0  0  0  0  0  0  0  0  0  0  0
   58.0250   34.3640   45.5290 O   0  0  0  0  0  0  0  0  0  0  0  0
   59.0390   32.2590   45.6990 N   0  0  0  0  0  0  0  0  0  0  0  0
   58.1380   31.5140   44.8620 C   0  0  0  0  0  0  0  0  0  0  0  0
   57.9260   31.8620   43.5150 C   0  0  0  0  0  0  0  0  0  0  0  0
   57.0300   31.1310   42.7320 C   0  0  0  0  0  0  0  0  0  0  0  0
   56.3190   30.0650   43.2870 C   0  0  0  0  0  0  0  0  0  0  0  0
   56.4770   29.7380   44.6380 C   0  0  0  0  0  0  0  0  0  0  0  0
   55.7420   28.6290   45.1730 N   0  0  0  0  0  0  0  0  0  0  0  0
   56.2830   27.3800   45.6230 C   0  0  0  0  0  0  0  0  0  0  0  0
   57.7580   27.1150   45.6520 C   0  0  0  0  0  0  0  0  0  0  0  0
   55.4960   26.4880   46.0370 O   0  0  0  0  0  0  0  0  0  0  0  0
   57.4030   30.4550   45.4170 C   0  0  0  0  0  0  0  0  0  0  0  0
   60.4220   31.8430   48.0510 C   0  0  0  0  0  0  0  0  0  0  0  0
   61.0930   30.9870   47.4150 O   0  0  0  0  0  0  0  0  0  0  0  0
   59.4910   31.4030   49.1180 C   0  0  0  0  0  0  0  0  0  0  0  0
   58.9840   32.3260   50.0480 C   0  0  0  0  0  0  0  0  0  0  0  0
   58.0910   31.9080   51.0360 C   0  0  0  0  0  0  0  0  0  0  0  0
   57.6980   30.5690   51.0820 C   0  0  0  0  0  0  0  0  0  0  0  0
   56.8900   30.1770   51.9650 O   0  0  0  0  0  0  0  0  0  0  0  0
   58.1880   29.6870   50.1740 N   0  0  0  0  0  0  0  0  0  0  0  0
   59.0640   30.0660   49.2050 C   0  0  0  0  0  0  0  0  0  0  0  0
   63.7826   33.1805   47.0954 H   0  0  0  0  0  0  0  0  0  0  0  0
   62.3395   32.7513   46.1156 H   0  0  0  0  0  0  0  0  0  0  0  0
   62.9556   34.4386   46.1156 H   0  0  0  0  0  0  0  0  0  0  0  0
   62.3722   33.4913   48.8346 H   0  0  0  0  0  0  0  0  0  0  0  0
   61.7776   34.9557   47.9678 H   0  0  0  0  0  0  0  0  0  0  0  0
   58.6901   33.9628   48.2710 H   0  0  0  0  0  0  0  0  0  0  0  0
   59.7160   35.1069   47.3385 H   0  0  0  0  0  0  0  0  0  0  0  0
   59.9380   31.8090   45.9810 H   0  0  0  0  0  0  0  0  0  0  0  0
   58.4681   32.7131   43.0772 H   0  0  0  0  0  0  0  0  0  0  0  0
   56.8838   31.3959   41.6744 H   0  0  0  0  0  0  0  0  0  0  0  0
   55.6314   29.4796   42.6589 H   0  0  0  0  0  0  0  0  0  0  0  0
   58.0991   27.0537   46.6960 H   0  0  0  0  0  0  0  0  0  0  0  0
   57.9699   26.1644   45.1406 H   0  0  0  0  0  0  0  0  0  0  0  0
   58.2875   27.9324   45.1406 H   0  0  0  0  0  0  0  0  0  0  0  0
   57.5527   30.1829   46.4722 H   0  0  0  0  0  0  0  0  0  0  0  0
   59.2916   33.3809   49.9974 H   0  0  0  0  0  0  0  0  0  0  0  0
   57.7005   32.6268   51.7715 H   0  0  0  0  0  0  0  0  0  0  0  0
   59.4402   29.3233   48.4861 H   0  0  0  0  0  0  0  0  0  0  0  0
  1  2  1  0
  2  3  1  0
  3  4  1  0
  4  5  1  0
  5  6  2  0
  5  7  1  0
  7  8  1  0
  8  9  2  0
  9 10  1  0
 10 11  2  0
 11 12  1  0
 12 13  1  0
 13 14  1  0
 14 15  1  0
 14 16  2  0
 12 17  2  0
  3 18  1  0
 18 19  2  0
 18 20  1  0
 20 21  1  0
 21 22  2  0
 22 23  1  0
 23 24  2  0
 23 25  1  0
 25 26  1  0
 17  8  1  0
 26 20  2  0
  1 27  1  0
  1 28  1  0
  1 29  1  0
  2 30  1  0
  2 31  1  0
  4 32  1  0
  4 33  1  0
  7 34  1  0
  9 35  1  0
 10 36  1  0
 11 37  1  0
 15 38  1  0
 15 39  1  0
 15 40  1  0
 17 41  1  0
 21 42  1  0
 22 43  1  0
 26 44  1  0
M  CHG  2  13  -1  25  -1
M  END
>  <UniqueID>  (26) 
24

>  <SMILES>  (26) 
CCN(CC(=O)Nc1cccc([N-]C(C)=O)c1)C(=O)c1ccc(=O)[n-]c1

>  <Energy>  (26) 
49.89730713847241

>  <Genealogy>  (26) 
CCN(CC(=O)Nc1cccc([N-]C(C)=O)c1)C(=O)c1ccc(=O)[n-]c1 (protonated)
CCN(CC(=O)Nc1cccc([N-]C(C)=O)c1)C(=O)c1ccc(=O)[n-]c1 (3D coordinates assigned)
CCN(CC(=O)Nc1cccc([N-]C(C)=O)c1)C(=O)c1ccc(=O)[n-]c1 (optimized conformer: 49.89730713847241 kcal/mol)

>  <smiles>  (26) 
CCN(CC(=O)Nc1cccc(NC(C)=O)c1)C(=O)c1ccc(=O)[nH]c1

>  <score_type>  (26) 
oracle

>  <origin>  (26) 
adg

>  <m_score__min__energy>  (26) 
-11.050000000000001

>  <m_primary>  (26) 
energy

$$$$
26:0
     RDKit          3D

 46 48  0  0  0  0  0  0  0  0999 V2000
   56.5720   29.0030   51.6160 H   0  0  0  0  0  0  0  0  0  0  0  0
   56.6000   29.9440   51.9900 O   0  0  0  0  0  0  0  0  0  0  0  0
   57.5940   30.8470   51.6190 C   0  0  0  0  0  0  0  0  0  0  0  0
   58.7020   30.3950   50.8970 C   0  0  0  0  0  0  0  0  0  0  0  0
   58.7834   29.3318   50.6268 H   0  0  0  0  0  0  0  0  0  0  0  0
   59.7070   31.2890   50.5170 C   0  0  0  0  0  0  0  0  0  0  0  0
   60.5753   30.9249   49.9482 H   0  0  0  0  0  0  0  0  0  0  0  0
   59.6160   32.6520   50.8570 C   0  0  0  0  0  0  0  0  0  0  0  0
   60.6750   33.6040   50.4570 C   0  0  0  0  0  0  0  0  0  0  0  0
   61.5890   33.9080   51.2710 O   0  0  0  0  0  0  0  0  0  0  0  0
   60.6220   34.2060   49.1910 O   0  0  0  0  0  0  0  0  0  0  0  0
   60.0380   33.6430   48.0460 C   0  0  0  0  0  0  0  0  0  0  0  0
   58.9860   34.2710   47.3570 C   0  0  0  0  0  0  0  0  0  0  0  0
   58.5896   35.2300   47.7219 H   0  0  0  0  0  0  0  0  0  0  0  0
   58.4400   33.6850   46.2110 C   0  0  0  0  0  0  0  0  0  0  0  0
   57.6058   34.1776   45.6901 H   0  0  0  0  0  0  0  0  0  0  0  0
   58.9510   32.4680   45.7190 C   0  0  0  0  0  0  0  0  0  0  0  0
   58.4040   31.7960   44.5140 C   0  0  0  0  0  0  0  0  0  0  0  0
   59.1061   31.5173   43.7144 H   0  0  0  0  0  0  0  0  0  0  0  0
   57.1060   31.5080   44.3410 C   0  0  0  0  0  0  0  0  0  0  0  0
   56.4429   32.2826   43.9283 H   0  0  0  0  0  0  0  0  0  0  0  0
   56.5310   30.1880   44.6840 C   0  0  0  0  0  0  0  0  0  0  0  0
   55.2960   30.0150   44.5060 O   0  0  0  0  0  0  0  0  0  0  0  0
   57.3230   29.0620   45.2230 C   0  0  0  0  0  0  0  0  0  0  0  0
   57.9539   29.2358   46.1072 H   0  0  0  0  0  0  0  0  0  0  0  0
   57.3030   27.8370   44.6770 C   0  0  0  0  0  0  0  0  0  0  0  0
   57.2004   27.7553   43.5849 H   0  0  0  0  0  0  0  0  0  0  0  0
   57.4120   26.5860   45.4680 C   0  0  0  0  0  0  0  0  0  0  0  0
   58.6400   25.9080   45.6200 C   0  0  0  0  0  0  0  0  0  0  0  0
   59.5448   26.3015   45.1337 H   0  0  0  0  0  0  0  0  0  0  0  0
   58.7150   24.7400   46.3840 C   0  0  0  0  0  0  0  0  0  0  0  0
   59.6760   24.2156   46.4917 H   0  0  0  0  0  0  0  0  0  0  0  0
   57.5730   24.2370   47.0110 C   0  0  0  0  0  0  0  0  0  0  0  0
   57.6520   23.0760   47.7700 O   0  0  0  0  0  0  0  0  0  0  0  0
   56.3540   24.9060   46.8810 C   0  0  0  0  0  0  0  0  0  0  0  0
   55.4567   24.5120   47.3806 H   0  0  0  0  0  0  0  0  0  0  0  0
   56.2700   26.0750   46.1180 C   0  0  0  0  0  0  0  0  0  0  0  0
   55.0400   26.7180   46.0020 O   0  0  0  0  0  0  0  0  0  0  0  0
   60.0060   31.8490   46.4100 C   0  0  0  0  0  0  0  0  0  0  0  0
   60.4074   30.8918   46.0457 H   0  0  0  0  0  0  0  0  0  0  0  0
   60.5510   32.4360   47.5550 C   0  0  0  0  0  0  0  0  0  0  0  0
   61.6050   31.8110   48.2120 O   0  0  0  0  0  0  0  0  0  0  0  0
   58.4960   33.0990   51.5830 C   0  0  0  0  0  0  0  0  0  0  0  0
   58.4089   34.1613   51.8547 H   0  0  0  0  0  0  0  0  0  0  0  0
   57.4930   32.2000   51.9610 C   0  0  0  0  0  0  0  0  0  0  0  0
   56.6218   32.5581   52.5291 H   0  0  0  0  0  0  0  0  0  0  0  0
  1  2  1  0
  2  3  1  0
  3  4  2  0
  4  5  1  0
  4  6  1  0
  6  7  1  0
  6  8  2  0
  8  9  1  0
  9 10  2  0
  9 11  1  0
 11 12  1  0
 12 13  2  0
 13 14  1  0
 13 15  1  0
 15 16  1  0
 15 17  2  0
 17 18  1  0
 18 19  1  0
 18 20  2  0
 20 21  1  0
 20 22  1  0
 22 23  2  0
 22 24  1  0
 24 25  1  0
 24 26  2  3
 26 27  1  0
 26 28  1  0
 28 29  2  0
 29 30  1  0
 29 31  1  0
 31 32  1  0
 31 33  2  0
 33 34  1  0
 33 35  1  0
 35 36  1  0
 35 37  2  0
 37 38  1  0
 17 39  1  0
 39 40  1  0
 39 41  2  0
 41 42  1  0
  8 43  1  0
 43 44  1  0
 43 45  2  0
 45 46  1  0
 45  3  1  0
 41 12  1  0
 37 28  1  0
M  CHG  3  34  -1  38  -1  42  -1
M  END
>  <UniqueID>  (27) 
25

>  <SMILES>  (27) 
O=C(C=Cc1ccc([O-])cc1[O-])/C=C/c1ccc(OC(=O)c2ccc(O)cc2)c([O-])c1

>  <Energy>  (27) 
63.29446930384175

>  <Genealogy>  (27) 
O=C(C=Cc1ccc(OC(=O)c2ccc(O)cc2)c([O-])c1)C=Cc1ccc([O-])cc1[O-] (protonated)
O=C(C=Cc1ccc([O-])cc1[O-])/C=C/c1ccc(OC(=O)c2ccc(O)cc2)c([O-])c1 (cis-trans isomerization)
O=C(C=Cc1ccc([O-])cc1[O-])/C=C/c1ccc(OC(=O)c2ccc(O)cc2)c([O-])c1 (3D coordinates assigned)
O=C(C=Cc1ccc([O-])cc1[O-])/C=C/c1ccc(OC(=O)c2ccc(O)cc2)c([O-])c1 (optimized conformer: 63.29446930384175 kcal/mol)

>  <smiles>  (27) 
O=C(C=Cc1ccc(OC(=O)c2ccc(O)cc2)c(O)c1)C=Cc1ccc(O)cc1O

>  <score_type>  (27) 
oracle

>  <origin>  (27) 
adg

>  <m_score__min__energy>  (27) 
-17.359999999999999

>  <m_primary>  (27) 
energy

$$$$
27:0
     RDKit          3D

 45 47  0  0  0  0  0  0  0  0999 V2000
   55.3380   30.5250   44.2690 O   0  0  0  0  0  0  0  0  0  0  0  0
   56.4660   30.4260   43.7200 C   0  0  0  0  0  0  0  0  0  0  0  0
   56.8500   29.1400   43.0360 C   0  0  0  0  0  0  0  0  0  0  0  0
   57.5040   28.2550   43.9460 O   0  0  0  0  0  0  0  0  0  0  0  0
   57.1890   28.1730   45.3090 C   0  0  0  0  0  0  0  0  0  0  0  0
   56.8870   29.2210   45.9420 O   0  0  0  0  0  0  0  0  0  0  0  0
   57.2070   26.8550   46.0040 C   0  0  0  0  0  0  0  0  0  0  0  0
   56.0120   26.1650   46.3050 C   0  0  0  0  0  0  0  0  0  0  0  0
   54.7690   26.7000   45.9840 O   0  0  0  0  0  0  0  0  0  0  0  0
   56.0590   24.9590   46.9270 N   0  0  0  0  0  0  0  0  0  0  0  0
   57.2410   24.3920   47.2750 C   0  0  0  0  0  0  0  0  0  0  0  0
   57.2560   23.2730   47.8490 O   0  0  0  0  0  0  0  0  0  0  0  0
   58.4040   25.0300   47.0050 N   0  0  0  0  0  0  0  0  0  0  0  0
   58.4200   26.2380   46.3840 C   0  0  0  0  0  0  0  0  0  0  0  0
   59.5290   26.7840   46.1490 O   0  0  0  0  0  0  0  0  0  0  0  0
   57.3410   31.5620   43.7370 N   0  0  0  0  0  0  0  0  0  0  0  0
   57.8560   32.2330   44.8960 C   0  0  0  0  0  0  0  0  0  0  0  0
   57.5310   33.5670   45.1800 C   0  0  0  0  0  0  0  0  0  0  0  0
   58.0830   34.2040   46.2910 C   0  0  0  0  0  0  0  0  0  0  0  0
   58.9850   33.5320   47.1220 C   0  0  0  0  0  0  0  0  0  0  0  0
   59.6460   34.4220   48.4900 Cl  0  0  0  0  0  0  0  0  0  0  0  0
   59.3480   32.1970   46.8270 C   0  0  0  0  0  0  0  0  0  0  0  0
   60.5250   31.2880   47.7970 S   0  0  0  0  0  0  0  0  0  0  0  0
   60.0580   31.1730   49.2200 O   0  0  0  0  0  0  0  0  0  0  0  0
   60.6290   29.8940   47.2450 O   0  0  0  0  0  0  0  0  0  0  0  0
   62.1080   32.0290   47.7670 N   0  0  0  0  0  0  0  0  0  0  0  0
   62.4580   32.5590   49.0940 C   0  0  0  0  0  0  0  0  0  0  0  0
   63.7960   33.3260   49.0330 C   0  0  0  0  0  0  0  0  0  0  0  0
   64.3960   33.2220   47.7560 O   0  0  0  0  0  0  0  0  0  0  0  0
   63.5410   33.7870   46.7790 C   0  0  0  0  0  0  0  0  0  0  0  0
   62.1550   33.1070   46.7660 C   0  0  0  0  0  0  0  0  0  0  0  0
   58.7760   31.5660   45.7100 C   0  0  0  0  0  0  0  0  0  0  0  0
   55.9428   28.6529   42.6490 H   0  0  0  0  0  0  0  0  0  0  0  0
   57.5418   29.3724   42.2130 H   0  0  0  0  0  0  0  0  0  0  0  0
   56.8377   34.1134   44.5237 H   0  0  0  0  0  0  0  0  0  0  0  0
   57.8064   35.2446   46.5158 H   0  0  0  0  0  0  0  0  0  0  0  0
   61.6644   33.2415   49.4322 H   0  0  0  0  0  0  0  0  0  0  0  0
   62.5605   31.7193   49.7972 H   0  0  0  0  0  0  0  0  0  0  0  0
   63.6100   34.3872   49.2551 H   0  0  0  0  0  0  0  0  0  0  0  0
   64.4804   32.8850   49.7726 H   0  0  0  0  0  0  0  0  0  0  0  0
   63.4102   34.8573   46.9967 H   0  0  0  0  0  0  0  0  0  0  0  0
   64.0040   33.6373   45.7925 H   0  0  0  0  0  0  0  0  0  0  0  0
   61.3818   33.8537   46.9996 H   0  0  0  0  0  0  0  0  0  0  0  0
   61.9747   32.6789   45.7689 H   0  0  0  0  0  0  0  0  0  0  0  0
   59.0568   30.5295   45.4718 H   0  0  0  0  0  0  0  0  0  0  0  0
  1  2  2  0
  2  3  1  0
  3  4  1  0
  4  5  1  0
  5  6  2  0
  5  7  1  0
  7  8  2  0
  8  9  1  0
  8 10  1  0
 10 11  1  0
 11 12  2  0
 11 13  1  0
 13 14  1  0
 14 15  2  0
  2 16  1  0
 16 17  1  0
 17 18  2  0
 18 19  1  0
 19 20  2  0
 20 21  1  0
 20 22  1  0
 22 23  1  0
 23 24  2  0
 23 25  2  0
 23 26  1  0
 26 27  1  0
 27 28  1  0
 28 29  1  0
 29 30  1  0
 30 31  1  0
 22 32  2  0
 14  7  1  0
 32 17  1  0
 31 26  1  0
  3 33  1  0
  3 34  1  0
 18 35  1  0
 19 36  1  0
 27 37  1  0
 27 38  1  0
 28 39  1  0
 28 40  1  0
 30 41  1  0
 30 42  1  0
 31 43  1  0
 31 44  1  0
 32 45  1  0
M  CHG  4   9  -1  10  -1  13  -1  16  -1
M  END
>  <UniqueID>  (28) 
26

>  <SMILES>  (28) 
O=C(COC(=O)c1c([O-])[n-]c(=O)[n-]c1=O)[N-]c1ccc(Cl)c(S(=O)(=O)N2CCOCC2)c1

>  <Energy>  (28) 
65.39050087531345

>  <Genealogy>  (28) 
O=C(COC(=O)c1c([O-])[n-]c(=O)[n-]c1=O)[N-]c1ccc(Cl)c(S(=O)(=O)N2CCOCC2)c1 (protonated)
O=C(COC(=O)c1c([O-])[n-]c(=O)[n-]c1=O)[N-]c1ccc(Cl)c(S(=O)(=O)N2CCOCC2)c1 (3D coordinates assigned)
O=C(COC(=O)c1c([O-])[n-]c(=O)[n-]c1=O)[N-]c1ccc(Cl)c(S(=O)(=O)N2CCOCC2)c1 (nonaromatic ring conformer: 65.39050087531345 kcal/mol)

>  <smiles>  (28) 
O=C(COC(=O)c1c(O)[nH]c(=O)[nH]c1=O)Nc1ccc(Cl)c(S(=O)(=O)N2CCOCC2)c1

>  <score_type>  (28) 
oracle

>  <origin>  (28) 
adg

>  <m_score__min__energy>  (28) 
-17.989999999999998

>  <m_primary>  (28) 
energy

$$$$
28:0
     RDKit          3D

 42 45  0  0  0  0  0  0  0  0999 V2000
   60.9350   30.6240   47.2570 C   0  0  0  0  0  0  0  0  0  0  0  0
   59.8030   31.2840   46.5800 C   0  0  0  0  0  0  0  0  0  0  0  0
   59.4870   32.6210   46.8390 C   0  0  0  0  0  0  0  0  0  0  0  0
   60.1730   33.5400   47.7680 C   0  0  0  0  0  0  0  0  0  0  0  0
   59.4330   34.1460   48.6140 O   0  0  0  0  0  0  0  0  0  0  0  0
   61.5810   33.7430   47.7250 N   0  0  0  0  0  0  0  0  0  0  0  0
   62.3140   33.8510   46.4850 C   0  0  0  0  0  0  0  0  0  0  0  0
   63.7690   33.4710   46.6480 C   0  0  0  0  0  0  0  0  0  0  0  0
   63.8760   32.4430   47.6650 N   0  0  0  0  0  0  0  0  0  0  0  0
   63.3310   32.7800   48.9570 C   0  0  0  0  0  0  0  0  0  0  0  0
   63.7280   32.1940   49.9920 O   0  0  0  0  0  0  0  0  0  0  0  0
   62.2920   33.8440   48.9580 C   0  0  0  0  0  0  0  0  0  0  0  0
   58.4340   33.0170   46.1210 N   0  0  0  0  0  0  0  0  0  0  0  0
   58.0700   31.9380   45.3970 C   0  0  0  0  0  0  0  0  0  0  0  0
   57.0110   31.8870   44.4980 C   0  0  0  0  0  0  0  0  0  0  0  0
   56.7850   30.7030   43.8460 C   0  0  0  0  0  0  0  0  0  0  0  0
   57.6190   29.6410   44.1230 C   0  0  0  0  0  0  0  0  0  0  0  0
   57.3510   28.4980   43.4550 N   0  0  0  0  0  0  0  0  0  0  0  0
   58.1510   27.4550   43.7130 C   0  0  0  0  0  0  0  0  0  0  0  0
   57.9110   26.3630   43.0850 N   0  0  0  0  0  0  0  0  0  0  0  0
   59.1660   27.4780   44.5650 N   0  0  0  0  0  0  0  0  0  0  0  0
   59.4560   28.6240   45.2550 C   0  0  0  0  0  0  0  0  0  0  0  0
   60.4390   28.5060   46.0310 N   0  0  0  0  0  0  0  0  0  0  0  0
   58.6680   29.6990   45.0180 C   0  0  0  0  0  0  0  0  0  0  0  0
   58.8930   30.8710   45.6640 C   0  0  0  0  0  0  0  0  0  0  0  0
   60.8052   30.6997   48.3467 H   0  0  0  0  0  0  0  0  0  0  0  0
   60.9697   29.5641   46.9646 H   0  0  0  0  0  0  0  0  0  0  0  0
   61.8744   31.1159   46.9646 H   0  0  0  0  0  0  0  0  0  0  0  0
   61.8542   33.1828   45.7420 H   0  0  0  0  0  0  0  0  0  0  0  0
   62.2730   34.9005   46.1581 H   0  0  0  0  0  0  0  0  0  0  0  0
   64.1596   33.0880   45.6936 H   0  0  0  0  0  0  0  0  0  0  0  0
   64.3529   34.3536   46.9481 H   0  0  0  0  0  0  0  0  0  0  0  0
   64.3130   31.5100   47.5090 H   0  0  0  0  0  0  0  0  0  0  0  0
   61.6032   33.6969   49.8030 H   0  0  0  0  0  0  0  0  0  0  0  0
   62.7519   34.8378   49.0624 H   0  0  0  0  0  0  0  0  0  0  0  0
   57.9860   33.9770   46.1250 H   0  0  0  0  0  0  0  0  0  0  0  0
   56.3762   32.7668   44.3162 H   0  0  0  0  0  0  0  0  0  0  0  0
   55.9622   30.6030   43.1228 H   0  0  0  0  0  0  0  0  0  0  0  0
   56.5610   28.4500   42.7790 H   0  0  0  0  0  0  0  0  0  0  0  0
   57.0050   26.1900   42.6320 H   0  0  0  0  0  0  0  0  0  0  0  0
   59.7340   26.6020   44.6960 H   0  0  0  0  0  0  0  0  0  0  0  0
   61.4220   28.6390   45.8230 H   0  0  0  0  0  0  0  0  0  0  0  0
  1  2  1  0
  2  3  2  0
  3  4  1  0
  4  5  2  0
  4  6  1  0
  6  7  1  0
  7  8  1  0
  8  9  1  0
  9 10  1  0
 10 11  2  0
 10 12  1  0
  3 13  1  0
 13 14  1  0
 14 15  2  0
 15 16  1  0
 16 17  2  0
 17 18  1  0
 18 19  1  0
 19 20  2  3
 19 21  1  0
 21 22  1  0
 22 23  2  3
 22 24  1  0
 24 25  2  0
 25  2  1  0
 12  6  1  0
 25 14  1  0
 24 17  1  0
  1 26  1  0
  1 27  1  0
  1 28  1  0
  7 29  1  0
  7 30  1  0
  8 31  1  0
  8 32  1  0
  9 33  1  0
 12 34  1  0
 12 35  1  0
 13 36  1  0
 15 37  1  0
 16 38  1  0
 18 39  1  0
 20 40  1  0
 21 41  1  0
 23 42  1  0
M  END
>  <smiles>  (29) 
Cc1c(C(=O)N2CCNC(=O)C2)[nH]c2ccc3[nH]c(=N)[nH]c(=N)c3c12

>  <score_type>  (29) 
oracle

>  <origin>  (29) 
adg

>  <m_score__min__energy>  (29) 
-7.7400000000000002

>  <m_primary>  (29) 
energy

$$$$
29:0
     RDKit          3D

 41 43  0  0  0  0  0  0  0  0999 V2000
   59.3920   34.4380   49.0100 O   0  0  0  0  0  0  0  0  0  0  0  0
   59.2690   33.3700   48.3550 C   0  0  0  0  0  0  0  0  0  0  0  0
   59.6140   32.1270   48.9850 N   0  0  0  0  0  0  0  0  0  0  0  0
   58.8910   31.4450   49.8310 C   0  0  0  0  0  0  0  0  0  0  0  0
   57.7800   31.9950   50.5050 C   0  0  0  0  0  0  0  0  0  0  0  0
   57.0560   31.2030   51.4000 C   0  0  0  0  0  0  0  0  0  0  0  0
   57.4270   29.9150   51.6270 N   0  0  0  0  0  0  0  0  0  0  0  0
   58.5020   29.3650   51.0060 C   0  0  0  0  0  0  0  0  0  0  0  0
   59.2560   30.1210   50.1070 C   0  0  0  0  0  0  0  0  0  0  0  0
   58.9220   33.4300   46.9170 C   0  0  0  0  0  0  0  0  0  0  0  0
   58.3860   32.2840   46.3030 C   0  0  0  0  0  0  0  0  0  0  0  0
   58.0750   32.2810   44.9360 C   0  0  0  0  0  0  0  0  0  0  0  0
   57.4300   30.8260   44.1700 S   0  0  0  0  0  0  0  0  0  0  0  0
   57.1120   31.1300   42.7320 O   0  0  0  0  0  0  0  0  0  0  0  0
   56.1420   30.4590   44.8540 O   0  0  0  0  0  0  0  0  0  0  0  0
   58.5210   29.4570   44.2600 N   0  0  0  0  0  0  0  0  0  0  0  0
   59.1350   29.2990   45.5910 C   0  0  0  0  0  0  0  0  0  0  0  0
   58.1960   28.6070   46.6030 C   0  0  0  0  0  0  0  0  0  0  0  0
   57.0380   28.0550   46.0060 O   0  0  0  0  0  0  0  0  0  0  0  0
   57.3990   27.2960   44.8750 C   0  0  0  0  0  0  0  0  0  0  0  0
   57.9160   28.2100   43.7500 C   0  0  0  0  0  0  0  0  0  0  0  0
   58.3130   33.4310   44.1740 C   0  0  0  0  0  0  0  0  0  0  0  0
   58.8370   34.5770   44.7740 C   0  0  0  0  0  0  0  0  0  0  0  0
   59.1340   34.5940   46.1400 C   0  0  0  0  0  0  0  0  0  0  0  0
   59.6060   35.7850   46.6960 O   0  0  0  0  0  0  0  0  0  0  0  0
   57.4859   33.0399   50.3271 H   0  0  0  0  0  0  0  0  0  0  0  0
   56.1836   31.6228   51.9222 H   0  0  0  0  0  0  0  0  0  0  0  0
   58.7794   28.3207   51.2120 H   0  0  0  0  0  0  0  0  0  0  0  0
   60.1351   29.6780   49.6162 H   0  0  0  0  0  0  0  0  0  0  0  0
   58.2086   31.3790   46.9026 H   0  0  0  0  0  0  0  0  0  0  0  0
   60.0479   28.6941   45.4877 H   0  0  0  0  0  0  0  0  0  0  0  0
   59.3548   30.3054   45.9767 H   0  0  0  0  0  0  0  0  0  0  0  0
   58.7525   27.7980   47.0988 H   0  0  0  0  0  0  0  0  0  0  0  0
   57.8604   29.3761   47.3143 H   0  0  0  0  0  0  0  0  0  0  0  0
   58.1900   26.5847   45.1548 H   0  0  0  0  0  0  0  0  0  0  0  0
   56.5116   26.7562   44.5129 H   0  0  0  0  0  0  0  0  0  0  0  0
   58.6746   27.6618   43.1721 H   0  0  0  0  0  0  0  0  0  0  0  0
   57.0535   28.4902   43.1274 H   0  0  0  0  0  0  0  0  0  0  0  0
   58.0860   33.4314   43.0977 H   0  0  0  0  0  0  0  0  0  0  0  0
   59.0181   35.4757   44.1661 H   0  0  0  0  0  0  0  0  0  0  0  0
   59.3540   36.1010   47.6240 H   0  0  0  0  0  0  0  0  0  0  0  0
  1  2  2  0
  2  3  1  0
  3  4  2  3
  4  5  1  0
  5  6  2  0
  6  7  1  0
  7  8  1  0
  8  9  2  0
  2 10  1  0
 10 11  2  0
 11 12  1  0
 12 13  1  0
 13 14  2  0
 13 15  2  0
 13 16  1  0
 16 17  1  0
 17 18  1  0
 18 19  1  0
 19 20  1  0
 20 21  1  0
 12 22  2  0
 22 23  1  0
 23 24  2  0
 24 25  1  0
  9  4  1  0
 24 10  1  0
 21 16  1  0
  5 26  1  0
  6 27  1  0
  8 28  1  0
  9 29  1  0
 11 30  1  0
 17 31  1  0
 17 32  1  0
 18 33  1  0
 18 34  1  0
 20 35  1  0
 20 36  1  0
 21 37  1  0
 21 38  1  0
 22 39  1  0
 23 40  1  0
 25 41  1  0
M  CHG  1   7  -1
M  END
>  <UniqueID>  (30) 
27

>  <SMILES>  (30) 
O=C(N=c1cc[n-]cc1)c1cc(S(=O)(=O)N2CCOCC2)ccc1O

>  <Energy>  (30) 
65.58571614635171

>  <Genealogy>  (30) 
O=C(N=c1cc[n-]cc1)c1cc(S(=O)(=O)N2CCOCC2)ccc1O (protonated)
O=C(N=c1cc[n-]cc1)c1cc(S(=O)(=O)N2CCOCC2)ccc1O (3D coordinates assigned)
O=C(N=c1cc[n-]cc1)c1cc(S(=O)(=O)N2CCOCC2)ccc1O (nonaromatic ring conformer: 65.58571614635171 kcal/mol)

>  <smiles>  (30) 
O=C(N=c1cc[nH]cc1)c1cc(S(=O)(=O)N2CCOCC2)ccc1O

>  <score_type>  (30) 
oracle

>  <origin>  (30) 
adg

>  <m_score__min__energy>  (30) 
-9.7300000000000004

>  <m_primary>  (30) 
energy

$$$$
30:0
     RDKit          3D

 39 41  0  0  0  0  0  0  0  0999 V2000
   55.5690   29.9200   44.7360 O   0  0  0  0  0  0  0  0  0  0  0  0
   56.6410   30.5830   44.6830 C   0  0  0  0  0  0  0  0  0  0  0  0
   57.9440   29.8800   44.4600 C   0  0  0  0  0  0  0  0  0  0  0  0
   58.4400   29.2440   45.7380 C   0  0  0  0  0  0  0  0  0  0  0  0
   59.5680   29.7760   46.3850 C   0  0  0  0  0  0  0  0  0  0  0  0
   60.0480   29.2060   47.5670 C   0  0  0  0  0  0  0  0  0  0  0  0
   61.1670   29.7510   48.1890 O   0  0  0  0  0  0  0  0  0  0  0  0
   59.4030   28.0900   48.1120 C   0  0  0  0  0  0  0  0  0  0  0  0
   58.2780   27.5530   47.4840 C   0  0  0  0  0  0  0  0  0  0  0  0
   57.7770   28.1300   46.3040 C   0  0  0  0  0  0  0  0  0  0  0  0
   56.6180   27.5900   45.6520 N   0  0  0  0  0  0  0  0  0  0  0  0
   55.9400   26.3760   46.0010 C   0  0  0  0  0  0  0  0  0  0  0  0
   54.6800   26.3210   46.0030 O   0  0  0  0  0  0  0  0  0  0  0  0
   56.7170   25.1620   46.2760 C   0  0  0  0  0  0  0  0  0  0  0  0
   57.8060   24.7260   45.5420 C   0  0  0  0  0  0  0  0  0  0  0  0
   58.1950   23.5310   46.1040 C   0  0  0  0  0  0  0  0  0  0  0  0
   57.3220   23.3090   47.1450 C   0  0  0  0  0  0  0  0  0  0  0  0
   57.3570   22.2020   47.9810 O   0  0  0  0  0  0  0  0  0  0  0  0
   56.4120   24.2950   47.2630 N   0  0  0  0  0  0  0  0  0  0  0  0
   56.6280   32.0060   44.8490 N   0  0  0  0  0  0  0  0  0  0  0  0
   57.6500   32.7940   45.4730 C   0  0  0  0  0  0  0  0  0  0  0  0
   57.8980   32.7290   46.8570 C   0  0  0  0  0  0  0  0  0  0  0  0
   58.8460   33.5750   47.4430 C   0  0  0  0  0  0  0  0  0  0  0  0
   59.5430   34.4970   46.6560 C   0  0  0  0  0  0  0  0  0  0  0  0
   59.2910   34.5770   45.2850 C   0  0  0  0  0  0  0  0  0  0  0  0
   58.3430   33.7330   44.6970 C   0  0  0  0  0  0  0  0  0  0  0  0
   57.8055   29.0980   43.6989 H   0  0  0  0  0  0  0  0  0  0  0  0
   58.6876   30.6172   44.1230 H   0  0  0  0  0  0  0  0  0  0  0  0
   60.0789   30.6508   45.9563 H   0  0  0  0  0  0  0  0  0  0  0  0
   61.6480   30.5580   47.8060 H   0  0  0  0  0  0  0  0  0  0  0  0
   59.7837   27.6346   49.0381 H   0  0  0  0  0  0  0  0  0  0  0  0
   57.7800   26.6722   47.9154 H   0  0  0  0  0  0  0  0  0  0  0  0
   58.2682   25.2326   44.6819 H   0  0  0  0  0  0  0  0  0  0  0  0
   59.0293   22.8878   45.7873 H   0  0  0  0  0  0  0  0  0  0  0  0
   57.3447   32.0108   47.4799 H   0  0  0  0  0  0  0  0  0  0  0  0
   59.0431   33.5147   48.5235 H   0  0  0  0  0  0  0  0  0  0  0  0
   60.2902   35.1596   47.1172 H   0  0  0  0  0  0  0  0  0  0  0  0
   59.8382   35.3041   44.6670 H   0  0  0  0  0  0  0  0  0  0  0  0
   58.1401   33.8068   43.6184 H   0  0  0  0  0  0  0  0  0  0  0  0
  1  2  2  0
  2  3  1  0
  3  4  1  0
  4  5  2  0
  5  6  1  0
  6  7  1  0
  6  8  2  0
  8  9  1  0
  9 10  2  0
 10 11  1  0
 11 12  1  0
 12 13  2  0
 12 14  1  0
 14 15  2  0
 15 16  1  0
 16 17  2  0
 17 18  1  0
 17 19  1  0
  2 20  1  0
 20 21  1  0
 21 22  2  0
 22 23  1  0
 23 24  2  0
 24 25  1  0
 25 26  2  0
 10  4  1  0
 19 14  1  0
 26 21  1  0
  3 27  1  0
  3 28  1  0
  5 29  1  0
  7 30  1  0
  8 31  1  0
  9 32  1  0
 15 33  1  0
 16 34  1  0
 22 35  1  0
 23 36  1  0
 24 37  1  0
 25 38  1  0
 26 39  1  0
M  CHG  4  11  -1  18  -1  19  -1  20  -1
M  END
>  <UniqueID>  (31) 
28

>  <SMILES>  (31) 
O=C(Cc1cc(O)ccc1[N-]C(=O)c1ccc([O-])[n-]1)[N-]c1ccccc1

>  <Energy>  (31) 
68.2654391852036

>  <Genealogy>  (31) 
O=C(Cc1cc(O)ccc1[N-]C(=O)c1ccc([O-])[n-]1)[N-]c1ccccc1 (protonated)
O=C(Cc1cc(O)ccc1[N-]C(=O)c1ccc([O-])[n-]1)[N-]c1ccccc1 (3D coordinates assigned)
O=C(Cc1cc(O)ccc1[N-]C(=O)c1ccc([O-])[n-]1)[N-]c1ccccc1 (optimized conformer: 68.2654391852036 kcal/mol)

>  <smiles>  (31) 
O=C(Cc1cc(O)ccc1NC(=O)c1ccc(O)[nH]1)Nc1ccccc1

>  <score_type>  (31) 
oracle

>  <origin>  (31) 
adg

>  <m_score__min__energy>  (31) 
-15.369999999999999

>  <m_primary>  (31) 
energy

$$$$
31:0
     RDKit          3D

 61 65  0  0  0  0  0  0  0  0999 V2000
   60.0660   22.6180   45.2320 O   0  0  0  0  0  0  0  0  0  0  0  0
   58.8080   22.6700   45.2630 C   0  0  0  0  0  0  0  0  0  0  0  0
   58.0390   21.4720   45.1170 N   0  0  0  0  0  0  0  0  0  0  0  0
   56.5960   21.5460   44.9070 C   0  0  0  0  0  0  0  0  0  0  0  0
   55.9770   22.6220   45.8080 C   0  0  0  0  0  0  0  0  0  0  0  0
   56.7090   23.9380   45.6700 C   0  0  0  0  0  0  0  0  0  0  0  0
   56.0240   25.1470   45.8530 C   0  0  0  0  0  0  0  0  0  0  0  0
   56.7070   26.3630   45.7810 C   0  0  0  0  0  0  0  0  0  0  0  0
   58.0920   26.3900   45.5460 C   0  0  0  0  0  0  0  0  0  0  0  0
   58.8180   27.7050   45.4250 C   0  0  0  0  0  0  0  0  0  0  0  0
   59.1220   28.3290   46.7870 C   0  0  0  0  0  0  0  0  0  0  0  0
   58.8790   29.7020   47.0560 C   0  0  0  0  0  0  0  0  0  0  0  0
   58.2130   30.5170   46.0160 C   0  0  0  0  0  0  0  0  0  0  0  0
   57.0870   30.1430   45.5880 O   0  0  0  0  0  0  0  0  0  0  0  0
   58.7730   31.7320   45.4980 N   0  0  0  0  0  0  0  0  0  0  0  0
   58.1810   33.3660   45.6180 S   0  0  0  0  0  0  0  0  0  0  0  0
   57.3910   33.6930   44.3820 O   0  0  0  0  0  0  0  0  0  0  0  0
   57.2550   33.4240   46.8000 O   0  0  0  0  0  0  0  0  0  0  0  0
   59.4220   34.6290   45.8610 C   0  0  0  0  0  0  0  0  0  0  0  0
   59.2660   35.6060   44.8980 F   0  0  0  0  0  0  0  0  0  0  0  0
   59.2830   35.2070   47.1020 F   0  0  0  0  0  0  0  0  0  0  0  0
   60.6840   34.0870   45.7360 F   0  0  0  0  0  0  0  0  0  0  0  0
   59.3500   30.2910   48.2170 N   0  0  0  0  0  0  0  0  0  0  0  0
   59.1650   31.7530   48.4110 C   0  0  0  0  0  0  0  0  0  0  0  0
   60.4630   32.5460   48.4700 C   0  0  0  0  0  0  0  0  0  0  0  0
   60.6640   33.6750   49.3020 C   0  0  0  0  0  0  0  0  0  0  0  0
   59.7040   34.1340   50.1410 F   0  0  0  0  0  0  0  0  0  0  0  0
   61.8850   34.3560   49.2810 C   0  0  0  0  0  0  0  0  0  0  0  0
   62.9180   33.9310   48.4470 C   0  0  0  0  0  0  0  0  0  0  0  0
   62.7340   32.8230   47.6210 C   0  0  0  0  0  0  0  0  0  0  0  0
   61.5180   32.1360   47.6260 C   0  0  0  0  0  0  0  0  0  0  0  0
   61.3660   31.0690   46.8010 F   0  0  0  0  0  0  0  0  0  0  0  0
   59.9950   29.5240   49.1760 C   0  0  0  0  0  0  0  0  0  0  0  0
   60.5770   30.0950   50.3400 C   0  0  0  0  0  0  0  0  0  0  0  0
   61.1810   29.2950   51.3120 C   0  0  0  0  0  0  0  0  0  0  0  0
   61.2450   27.9180   51.1460 C   0  0  0  0  0  0  0  0  0  0  0  0
   60.7330   27.3320   49.9910 C   0  0  0  0  0  0  0  0  0  0  0  0
   60.1270   28.1220   48.9920 C   0  0  0  0  0  0  0  0  0  0  0  0
   59.7020   27.5400   47.7910 C   0  0  0  0  0  0  0  0  0  0  0  0
   59.8710   26.3030   47.5980 O   0  0  0  0  0  0  0  0  0  0  0  0
   58.7890   25.1780   45.4170 C   0  0  0  0  0  0  0  0  0  0  0  0
   58.1030   23.9540   45.4600 C   0  0  0  0  0  0  0  0  0  0  0  0
   58.5180   20.5440   45.0940 H   0  0  0  0  0  0  0  0  0  0  0  0
   56.3956   21.7958   43.8546 H   0  0  0  0  0  0  0  0  0  0  0  0
   56.1495   20.5723   45.1571 H   0  0  0  0  0  0  0  0  0  0  0  0
   54.9240   22.7656   45.5240 H   0  0  0  0  0  0  0  0  0  0  0  0
   56.0547   22.2881   46.8532 H   0  0  0  0  0  0  0  0  0  0  0  0
   54.9426   25.1380   46.0544 H   0  0  0  0  0  0  0  0  0  0  0  0
   56.1566   27.3067   45.9092 H   0  0  0  0  0  0  0  0  0  0  0  0
   59.7663   27.5376   44.8933 H   0  0  0  0  0  0  0  0  0  0  0  0
   58.1656   28.3995   44.8754 H   0  0  0  0  0  0  0  0  0  0  0  0
   58.5636   32.1382   47.5744 H   0  0  0  0  0  0  0  0  0  0  0  0
   58.6725   31.8817   49.3861 H   0  0  0  0  0  0  0  0  0  0  0  0
   62.0316   35.2338   49.9275 H   0  0  0  0  0  0  0  0  0  0  0  0
   63.8773   34.4693   48.4406 H   0  0  0  0  0  0  0  0  0  0  0  0
   63.5496   32.4886   46.9629 H   0  0  0  0  0  0  0  0  0  0  0  0
   60.5512   31.1861   50.4776 H   0  0  0  0  0  0  0  0  0  0  0  0
   61.6082   29.7580   52.2137 H   0  0  0  0  0  0  0  0  0  0  0  0
   61.6999   27.2902   51.9264 H   0  0  0  0  0  0  0  0  0  0  0  0
   60.8019   26.2424   49.8565 H   0  0  0  0  0  0  0  0  0  0  0  0
   59.8806   25.1877   45.2813 H   0  0  0  0  0  0  0  0  0  0  0  0
  1  2  2  0
  2  3  1  0
  3  4  1  0
  4  5  1  0
  5  6  1  0
  6  7  2  0
  7  8  1  0
  8  9  2  0
  9 10  1  0
 10 11  1  0
 11 12  2  0
 12 13  1  0
 13 14  2  0
 13 15  1  0
 15 16  1  0
 16 17  2  0
 16 18  2  0
 16 19  1  0
 19 20  1  0
 19 21  1  0
 19 22  1  0
 12 23  1  0
 23 24  1  0
 24 25  1  0
 25 26  2  0
 26 27  1  0
 26 28  1  0
 28 29  2  0
 29 30  1  0
 30 31  2  0
 31 32  1  0
 23 33  1  0
 33 34  2  0
 34 35  1  0
 35 36  2  0
 36 37  1  0
 37 38  2  0
 38 39  1  0
 39 40  2  0
  9 41  1  0
 41 42  2  0
 42  2  1  0
 42  6  1  0
 39 11  1  0
 31 25  1  0
 38 33  1  0
  3 43  1  0
  4 44  1  0
  4 45  1  0
  5 46  1  0
  5 47  1  0
  7 48  1  0
  8 49  1  0
 10 50  1  0
 10 51  1  0
 24 52  1  0
 24 53  1  0
 28 54  1  0
 29 55  1  0
 30 56  1  0
 34 57  1  0
 35 58  1  0
 36 59  1  0
 37 60  1  0
 41 61  1  0
M  CHG  1  15  -1
M  END
>  <UniqueID>  (32) 
29

>  <SMILES>  (32) 
O=C1NCCc2ccc(Cc3c(C(=O)[N-]S(=O)(=O)C(F)(F)F)n(Cc4c(F)cccc4F)c4ccccc4c3=O)cc21

>  <Energy>  (32) 
95.53236350664352

>  <Genealogy>  (32) 
O=C1NCCc2ccc(Cc3c(C(=O)[N-]S(=O)(=O)C(F)(F)F)n(Cc4c(F)cccc4F)c4ccccc4c3=O)cc21 (protonated)
O=C1NCCc2ccc(Cc3c(C(=O)[N-]S(=O)(=O)C(F)(F)F)n(Cc4c(F)cccc4F)c4ccccc4c3=O)cc21 (3D coordinates assigned)
O=C1NCCc2ccc(Cc3c(C(=O)[N-]S(=O)(=O)C(F)(F)F)n(Cc4c(F)cccc4F)c4ccccc4c3=O)cc21 (nonaromatic ring conformer: 95.53236350664352 kcal/mol)

>  <smiles>  (32) 
O=C1NCCc2ccc(Cc3c(C(=O)NS(=O)(=O)C(F)(F)F)n(Cc4c(F)cccc4F)c4ccccc4c3=O)cc21

>  <score_type>  (32) 
oracle

>  <origin>  (32) 
adg

>  <m_score__min__energy>  (32) 
-11.19

>  <m_primary>  (32) 
energy

$$$$
32:0
     RDKit          3D

 46 48  0  0  0  0  0  0  0  0999 V2000
   59.8870   27.1480   45.7440 C   0  0  0  0  0  0  0  0  0  0  0  0
   59.7330   27.8330   47.0780 C   0  0  0  0  0  0  0  0  0  0  0  0
   60.4590   27.3400   48.1750 C   0  0  0  0  0  0  0  0  0  0  0  0
   60.3950   27.9780   49.4160 C   0  0  0  0  0  0  0  0  0  0  0  0
   59.6040   29.1150   49.5760 C   0  0  0  0  0  0  0  0  0  0  0  0
   58.8560   29.6020   48.5040 C   0  0  0  0  0  0  0  0  0  0  0  0
   58.8880   28.9560   47.2600 C   0  0  0  0  0  0  0  0  0  0  0  0
   58.0910   29.4870   46.1920 N   0  0  0  0  0  0  0  0  0  0  0  0
   57.0280   28.7460   45.5750 C   0  0  0  0  0  0  0  0  0  0  0  0
   56.8160   27.5460   45.8940 O   0  0  0  0  0  0  0  0  0  0  0  0
   56.1110   29.4200   44.6020 C   0  0  0  0  0  0  0  0  0  0  0  0
   56.7710   30.6450   44.0550 C   0  0  0  0  0  0  0  0  0  0  0  0
   57.0400   30.8200   42.6990 C   0  0  0  0  0  0  0  0  0  0  0  0
   57.6990   32.3540   42.5000 S   0  0  0  0  0  0  0  0  0  0  0  0
   57.5910   32.7360   44.1330 C   0  0  0  0  0  0  0  0  0  0  0  0
   58.0580   34.0250   44.7360 C   0  0  0  0  0  0  0  0  0  0  0  0
   57.7240   34.0990   46.1200 O   0  0  0  0  0  0  0  0  0  0  0  0
   58.4210   33.4030   47.1170 C   0  0  0  0  0  0  0  0  0  0  0  0
   58.1410   32.2010   47.3770 O   0  0  0  0  0  0  0  0  0  0  0  0
   59.4780   34.1080   47.9110 C   0  0  0  0  0  0  0  0  0  0  0  0
   60.8330   33.4900   47.6980 C   0  0  0  0  0  0  0  0  0  0  0  0
   61.0980   32.1850   48.1390 C   0  0  0  0  0  0  0  0  0  0  0  0
   62.3540   31.6210   47.8990 C   0  0  0  0  0  0  0  0  0  0  0  0
   63.3260   32.3540   47.2170 C   0  0  0  0  0  0  0  0  0  0  0  0
   63.0230   33.6450   46.7770 C   0  0  0  0  0  0  0  0  0  0  0  0
   61.7950   34.1760   47.0180 N   0  0  0  0  0  0  0  0  0  0  0  0
   57.0780   31.7090   44.8470 N   0  0  0  0  0  0  0  0  0  0  0  0
   60.1258   26.0860   45.9025 H   0  0  0  0  0  0  0  0  0  0  0  0
   58.9475   27.2321   45.1780 H   0  0  0  0  0  0  0  0  0  0  0  0
   60.7001   27.6261   45.1780 H   0  0  0  0  0  0  0  0  0  0  0  0
   61.0840   26.4427   48.0555 H   0  0  0  0  0  0  0  0  0  0  0  0
   60.9689   27.5832   50.2674 H   0  0  0  0  0  0  0  0  0  0  0  0
   59.5698   29.6284   50.5483 H   0  0  0  0  0  0  0  0  0  0  0  0
   58.2356   30.5007   48.6358 H   0  0  0  0  0  0  0  0  0  0  0  0
   58.1330   30.5160   46.0200 H   0  0  0  0  0  0  0  0  0  0  0  0
   55.8808   28.7293   43.7774 H   0  0  0  0  0  0  0  0  0  0  0  0
   55.1806   29.7050   45.1149 H   0  0  0  0  0  0  0  0  0  0  0  0
   56.8544   30.0857   41.9013 H   0  0  0  0  0  0  0  0  0  0  0  0
   59.1501   34.0973   44.6263 H   0  0  0  0  0  0  0  0  0  0  0  0
   57.5593   34.8544   44.2131 H   0  0  0  0  0  0  0  0  0  0  0  0
   59.5137   35.1628   47.6010 H   0  0  0  0  0  0  0  0  0  0  0  0
   59.2233   34.0212   48.9776 H   0  0  0  0  0  0  0  0  0  0  0  0
   60.3240   31.6106   48.6691 H   0  0  0  0  0  0  0  0  0  0  0  0
   62.5759   30.6014   48.2470 H   0  0  0  0  0  0  0  0  0  0  0  0
   64.3191   31.9205   47.0280 H   0  0  0  0  0  0  0  0  0  0  0  0
   63.7789   34.2323   46.2350 H   0  0  0  0  0  0  0  0  0  0  0  0
  1  2  1  0
  2  3  2  0
  3  4  1  0
  4  5  2  0
  5  6  1  0
  6  7  2  0
  7  8  1  0
  8  9  1  0
  9 10  2  0
  9 11  1  0
 11 12  1  0
 12 13  2  0
 13 14  1  0
 14 15  1  0
 15 16  1  0
 16 17  1  0
 17 18  1  0
 18 19  2  0
 18 20  1  0
 20 21  1  0
 21 22  2  0
 22 23  1  0
 23 24  2  0
 24 25  1  0
 25 26  2  0
 15 27  2  0
  7  2  1  0
 27 12  1  0
 26 21  1  0
  1 28  1  0
  1 29  1  0
  1 30  1  0
  3 31  1  0
  4 32  1  0
  5 33  1  0
  6 34  1  0
  8 35  1  0
 11 36  1  0
 11 37  1  0
 13 38  1  0
 16 39  1  0
 16 40  1  0
 20 41  1  0
 20 42  1  0
 22 43  1  0
 23 44  1  0
 24 45  1  0
 25 46  1  0
M  END
>  <UniqueID>  (33) 
30

>  <SMILES>  (33) 
Cc1ccccc1NC(=O)Cc1csc(COC(=O)Cc2ccccn2)n1

>  <Energy>  (33) 
75.04258828987882

>  <Genealogy>  (33) 
Cc1ccccc1NC(=O)Cc1csc(COC(=O)Cc2ccccn2)n1 (3D coordinates assigned)
Cc1ccccc1NC(=O)Cc1csc(COC(=O)Cc2ccccn2)n1 (optimized conformer: 75.04258828987882 kcal/mol)

>  <smiles>  (33) 
Cc1ccccc1NC(=O)Cc1csc(COC(=O)Cc2ccccn2)n1

>  <score_type>  (33) 
oracle

>  <origin>  (33) 
adg

>  <m_score__min__energy>  (33) 
-8.8000000000000007

>  <m_primary>  (33) 
energy

$$$$
33:0
     RDKit          3D

 48 51  0  0  0  0  0  0  0  0999 V2000
   55.5090   29.0290   44.9770 O   0  0  0  0  0  0  0  0  0  0  0  0
   56.7150   29.1960   45.2960 C   0  0  0  0  0  0  0  0  0  0  0  0
   57.3840   28.1950   46.2030 C   0  0  0  0  0  0  0  0  0  0  0  0
   57.1790   26.8290   45.7170 N   0  0  0  0  0  0  0  0  0  0  0  0
   56.0050   26.1640   45.6500 C   0  0  0  0  0  0  0  0  0  0  0  0
   54.7750   26.7070   46.0040 O   0  0  0  0  0  0  0  0  0  0  0  0
   56.2060   24.8770   45.1910 C   0  0  0  0  0  0  0  0  0  0  0  0
   57.5560   24.7450   44.9780 C   0  0  0  0  0  0  0  0  0  0  0  0
   58.1300   25.9580   45.3140 C   0  0  0  0  0  0  0  0  0  0  0  0
   59.4880   26.2590   45.2550 O   0  0  0  0  0  0  0  0  0  0  0  0
   58.2080   23.4890   44.4960 C   0  0  0  0  0  0  0  0  0  0  0  0
   57.1930   22.3950   44.2310 C   0  0  0  0  0  0  0  0  0  0  0  0
   55.8640   22.5260   44.4420 C   0  0  0  0  0  0  0  0  0  0  0  0
   55.2100   23.7860   44.9750 C   0  0  0  0  0  0  0  0  0  0  0  0
   57.4600   30.2320   44.6440 N   0  0  0  0  0  0  0  0  0  0  0  0
   57.8850   31.4660   45.2350 C   0  0  0  0  0  0  0  0  0  0  0  0
   57.0860   32.6170   45.1700 C   0  0  0  0  0  0  0  0  0  0  0  0
   57.5400   33.8200   45.7130 C   0  0  0  0  0  0  0  0  0  0  0  0
   58.8030   33.8880   46.3090 C   0  0  0  0  0  0  0  0  0  0  0  0
   59.6270   32.7500   46.3590 C   0  0  0  0  0  0  0  0  0  0  0  0
   60.9360   32.8160   46.9550 N   0  0  0  0  0  0  0  0  0  0  0  0
   61.2130   32.0840   48.1950 C   0  0  0  0  0  0  0  0  0  0  0  0
   62.7020   31.7270   48.2600 C   0  0  0  0  0  0  0  0  0  0  0  0
   63.5040   32.8770   48.0660 O   0  0  0  0  0  0  0  0  0  0  0  0
   63.3130   33.3790   46.7570 C   0  0  0  0  0  0  0  0  0  0  0  0
   61.8750   33.8720   46.5650 C   0  0  0  0  0  0  0  0  0  0  0  0
   59.1630   31.5450   45.8040 C   0  0  0  0  0  0  0  0  0  0  0  0
   58.4629   28.4063   46.2385 H   0  0  0  0  0  0  0  0  0  0  0  0
   56.9419   28.2805   47.2066 H   0  0  0  0  0  0  0  0  0  0  0  0
   59.8170   27.1180   44.8310 H   0  0  0  0  0  0  0  0  0  0  0  0
   58.7510   23.7045   43.5640 H   0  0  0  0  0  0  0  0  0  0  0  0
   58.8941   23.1367   45.2803 H   0  0  0  0  0  0  0  0  0  0  0  0
   57.5608   21.4339   43.8425 H   0  0  0  0  0  0  0  0  0  0  0  0
   55.2176   21.6659   44.2130 H   0  0  0  0  0  0  0  0  0  0  0  0
   54.4563   24.1297   44.2513 H   0  0  0  0  0  0  0  0  0  0  0  0
   54.7470   23.5481   45.9440 H   0  0  0  0  0  0  0  0  0  0  0  0
   56.0977   32.5714   44.6892 H   0  0  0  0  0  0  0  0  0  0  0  0
   56.9032   34.7160   45.6720 H   0  0  0  0  0  0  0  0  0  0  0  0
   59.1537   34.8369   46.7410 H   0  0  0  0  0  0  0  0  0  0  0  0
   60.9494   32.7130   49.0580 H   0  0  0  0  0  0  0  0  0  0  0  0
   60.6150   31.1610   48.2155 H   0  0  0  0  0  0  0  0  0  0  0  0
   62.9261   31.2933   49.2457 H   0  0  0  0  0  0  0  0  0  0  0  0
   62.9258   31.0028   47.4629 H   0  0  0  0  0  0  0  0  0  0  0  0
   64.0063   34.2160   46.5875 H   0  0  0  0  0  0  0  0  0  0  0  0
   63.5058   32.5689   46.0383 H   0  0  0  0  0  0  0  0  0  0  0  0
   61.7063   34.7610   47.1905 H   0  0  0  0  0  0  0  0  0  0  0  0
   61.7157   34.1297   45.5075 H   0  0  0  0  0  0  0  0  0  0  0  0
   59.8095   30.6551   45.8164 H   0  0  0  0  0  0  0  0  0  0  0  0
  1  2  2  0
  2  3  1  0
  3  4  1  0
  4  5  1  0
  5  6  1  0
  5  7  2  0
  7  8  1  0
  8  9  2  0
  9 10  1  0
  8 11  1  0
 11 12  1  0
 12 13  2  0
 13 14  1  0
  2 15  1  0
 15 16  1  0
 16 17  2  0
 17 18  1  0
 18 19  2  0
 19 20  1  0
 20 21  1  0
 21 22  1  0
 22 23  1  0
 23 24  1  0
 24 25  1  0
 25 26  1  0
 20 27  2  0
  9  4  1  0
 27 16  1  0
 14  7  1  0
 26 21  1  0
  3 28  1  0
  3 29  1  0
 10 30  1  0
 11 31  1  0
 11 32  1  0
 12 33  1  0
 13 34  1  0
 14 35  1  0
 14 36  1  0
 17 37  1  0
 18 38  1  0
 19 39  1  0
 22 40  1  0
 22 41  1  0
 23 42  1  0
 23 43  1  0
 25 44  1  0
 25 45  1  0
 26 46  1  0
 26 47  1  0
 27 48  1  0
M  CHG  2   6  -1  15  -1
M  END
>  <UniqueID>  (34) 
31

>  <SMILES>  (34) 
O=C(Cn1c([O-])c2c(c1O)CC=CC2)[N-]c1cccc(N2CCOCC2)c1

>  <Energy>  (34) 
92.57918011608007

>  <Genealogy>  (34) 
O=C(Cn1c([O-])c2c(c1O)CC=CC2)[N-]c1cccc(N2CCOCC2)c1 (protonated)
O=C(Cn1c([O-])c2c(c1O)CC=CC2)[N-]c1cccc(N2CCOCC2)c1 (3D coordinates assigned)
O=C(Cn1c([O-])c2c(c1O)CC=CC2)[N-]c1cccc(N2CCOCC2)c1 (nonaromatic ring conformer: 92.57918011608007 kcal/mol)

>  <smiles>  (34) 
O=C(Cn1c(O)c2c(c1O)CC=CC2)Nc1cccc(N2CCOCC2)c1

>  <score_type>  (34) 
oracle

>  <origin>  (34) 
adg

>  <m_score__min__energy>  (34) 
-13.07

>  <m_primary>  (34) 
energy

$$$$
34:0
     RDKit          3D

 40 42  0  0  0  0  0  0  0  0999 V2000
   60.4930   34.5790   48.4490 C   0  0  0  0  0  0  0  0  0  0  0  0
   59.7070   34.7740   47.2780 O   0  0  0  0  0  0  0  0  0  0  0  0
   58.9990   33.7570   46.6210 C   0  0  0  0  0  0  0  0  0  0  0  0
   58.4110   34.0470   45.3850 C   0  0  0  0  0  0  0  0  0  0  0  0
   57.6980   33.0660   44.6890 C   0  0  0  0  0  0  0  0  0  0  0  0
   57.5700   31.7700   45.2160 C   0  0  0  0  0  0  0  0  0  0  0  0
   56.8110   30.7370   44.4730 C   0  0  0  0  0  0  0  0  0  0  0  0
   55.5530   30.8080   44.4290 O   0  0  0  0  0  0  0  0  0  0  0  0
   57.4580   29.6230   43.8430 N   0  0  0  0  0  0  0  0  0  0  0  0
   58.2250   28.6050   44.5020 C   0  0  0  0  0  0  0  0  0  0  0  0
   59.4540   28.8920   45.1220 C   0  0  0  0  0  0  0  0  0  0  0  0
   60.1740   27.8770   45.7560 C   0  0  0  0  0  0  0  0  0  0  0  0
   59.6900   26.5670   45.7550 C   0  0  0  0  0  0  0  0  0  0  0  0
   58.4920   26.2580   45.0900 C   0  0  0  0  0  0  0  0  0  0  0  0
   57.9410   24.8890   45.1180 C   0  0  0  0  0  0  0  0  0  0  0  0
   56.6400   24.5630   44.9330 C   0  0  0  0  0  0  0  0  0  0  0  0
   55.6080   25.1210   45.8450 C   0  0  0  0  0  0  0  0  0  0  0  0
   55.9130   25.9650   46.7300 O   0  0  0  0  0  0  0  0  0  0  0  0
   54.2500   24.6910   45.7420 N   0  0  0  0  0  0  0  0  0  0  0  0
   53.8460   23.7440   44.7550 C   0  0  0  0  0  0  0  0  0  0  0  0
   52.6490   23.3580   44.7130 O   0  0  0  0  0  0  0  0  0  0  0  0
   54.7940   23.2450   43.8100 N   0  0  0  0  0  0  0  0  0  0  0  0
   56.1560   23.6880   43.8280 C   0  0  0  0  0  0  0  0  0  0  0  0
   56.9080   23.3700   42.8690 O   0  0  0  0  0  0  0  0  0  0  0  0
   57.7560   27.2860   44.4830 C   0  0  0  0  0  0  0  0  0  0  0  0
   58.1460   31.4830   46.4650 C   0  0  0  0  0  0  0  0  0  0  0  0
   58.8590   32.4640   47.1600 C   0  0  0  0  0  0  0  0  0  0  0  0
   59.8675   34.7342   49.3405 H   0  0  0  0  0  0  0  0  0  0  0  0
   60.8931   33.5544   48.4556 H   0  0  0  0  0  0  0  0  0  0  0  0
   61.3256   35.2978   48.4556 H   0  0  0  0  0  0  0  0  0  0  0  0
   58.5105   35.0555   44.9571 H   0  0  0  0  0  0  0  0  0  0  0  0
   57.2341   33.3107   43.7221 H   0  0  0  0  0  0  0  0  0  0  0  0
   59.8493   29.9184   45.1076 H   0  0  0  0  0  0  0  0  0  0  0  0
   61.1249   28.1100   46.2575 H   0  0  0  0  0  0  0  0  0  0  0  0
   60.2483   25.7754   46.2762 H   0  0  0  0  0  0  0  0  0  0  0  0
   58.6458   24.0653   45.3046 H   0  0  0  0  0  0  0  0  0  0  0  0
   54.4770   22.5850   43.0640 H   0  0  0  0  0  0  0  0  0  0  0  0
   56.8017   27.0539   43.9876 H   0  0  0  0  0  0  0  0  0  0  0  0
   58.0350   30.4785   46.8993 H   0  0  0  0  0  0  0  0  0  0  0  0
   59.3130   32.2245   48.1329 H   0  0  0  0  0  0  0  0  0  0  0  0
  1  2  1  0
  2  3  1  0
  3  4  2  0
  4  5  1  0
  5  6  2  0
  6  7  1  0
  7  8  2  0
  7  9  1  0
  9 10  1  0
 10 11  2  0
 11 12  1  0
 12 13  2  0
 13 14  1  0
 14 15  1  0
 15 16  2  3
 16 17  1  0
 17 18  2  0
 17 19  1  0
 19 20  1  0
 20 21  2  0
 20 22  1  0
 22 23  1  0
 23 24  2  0
 14 25  2  0
  6 26  1  0
 26 27  2  0
 27  3  1  0
 25 10  1  0
 23 16  1  0
  1 28  1  0
  1 29  1  0
  1 30  1  0
  4 31  1  0
  5 32  1  0
 11 33  1  0
 12 34  1  0
 13 35  1  0
 15 36  1  0
 22 37  1  0
 25 38  1  0
 26 39  1  0
 27 40  1  0
M  CHG  2   9  -1  19  -1
M  END
>  <UniqueID>  (35) 
32

>  <SMILES>  (35) 
COc1ccc(C(=O)[N-]c2cccc(C=C3C(=O)[N-]C(=O)NC3=O)c2)cc1

>  <Energy>  (35) 
56.58326388915291

>  <Genealogy>  (35) 
COc1ccc(C(=O)[N-]c2cccc(C=C3C(=O)[N-]C(=O)NC3=O)c2)cc1 (protonated)
COc1ccc(C(=O)[N-]c2cccc(C=C3C(=O)[N-]C(=O)NC3=O)c2)cc1 (3D coordinates assigned)
COc1ccc(C(=O)[N-]c2cccc(C=C3C(=O)[N-]C(=O)NC3=O)c2)cc1 (nonaromatic ring conformer: 56.58326388915291 kcal/mol)

>  <smiles>  (35) 
COc1ccc(C(=O)Nc2cccc(C=C3C(=O)NC(=O)NC3=O)c2)cc1

>  <score_type>  (35) 
oracle

>  <origin>  (35) 
adg

>  <m_score__min__energy>  (35) 
-11.609999999999999

>  <m_primary>  (35) 
energy

$$$$
35:0
     RDKit          3D

 49 51  0  0  0  0  0  0  0  0999 V2000
   60.7120   31.2350   47.6770 O   0  0  0  0  0  0  0  0  0  0  0  0
   59.4960   31.5750   47.6640 C   0  0  0  0  0  0  0  0  0  0  0  0
   58.5240   30.7530   47.0070 N   0  0  0  0  0  0  0  0  0  0  0  0
   58.7210   29.3570   46.7240 C   0  0  0  0  0  0  0  0  0  0  0  0
   58.5680   28.4150   47.7510 C   0  0  0  0  0  0  0  0  0  0  0  0
   58.7750   27.0550   47.5010 C   0  0  0  0  0  0  0  0  0  0  0  0
   59.1650   26.6190   46.2290 C   0  0  0  0  0  0  0  0  0  0  0  0
   59.3440   25.2440   46.0140 O   0  0  0  0  0  0  0  0  0  0  0  0
   58.5060   24.4260   45.2410 C   0  0  0  0  0  0  0  0  0  0  0  0
   57.4220   25.0120   44.5740 C   0  0  0  0  0  0  0  0  0  0  0  0
   56.5570   24.2280   43.8060 C   0  0  0  0  0  0  0  0  0  0  0  0
   56.7620   22.8480   43.7100 C   0  0  0  0  0  0  0  0  0  0  0  0
   57.8270   22.2520   44.3890 C   0  0  0  0  0  0  0  0  0  0  0  0
   58.6940   23.0340   45.1580 C   0  0  0  0  0  0  0  0  0  0  0  0
   59.3220   27.5610   45.1980 C   0  0  0  0  0  0  0  0  0  0  0  0
   59.1180   28.9200   45.4480 C   0  0  0  0  0  0  0  0  0  0  0  0
   59.0880   32.7700   48.2650 O   0  0  0  0  0  0  0  0  0  0  0  0
   58.9640   34.0070   47.5630 C   0  0  0  0  0  0  0  0  0  0  0  0
   60.2130   34.2890   46.7140 C   0  0  0  0  0  0  0  0  0  0  0  0
   59.9430   34.4020   45.2040 C   0  0  0  0  0  0  0  0  0  0  0  0
   58.4530   34.5590   44.8740 C   0  0  0  0  0  0  0  0  0  0  0  0
   57.8810   33.2620   44.4780 N   0  0  0  0  0  0  0  0  0  0  0  0
   58.2180   32.7230   43.2680 C   0  0  0  0  0  0  0  0  0  0  0  0
   57.6540   31.5220   42.8430 C   0  0  0  0  0  0  0  0  0  0  0  0
   56.7430   30.8840   43.6780 C   0  0  0  0  0  0  0  0  0  0  0  0
   56.2140   29.7970   43.3280 O   0  0  0  0  0  0  0  0  0  0  0  0
   56.4200   31.4390   44.8730 N   0  0  0  0  0  0  0  0  0  0  0  0
   56.9720   32.6140   45.2780 C   0  0  0  0  0  0  0  0  0  0  0  0
   56.6360   33.0950   46.3940 O   0  0  0  0  0  0  0  0  0  0  0  0
   57.6350   31.2060   46.6970 H   0  0  0  0  0  0  0  0  0  0  0  0
   58.2833   28.7480   48.7600 H   0  0  0  0  0  0  0  0  0  0  0  0
   58.6305   26.3228   48.3090 H   0  0  0  0  0  0  0  0  0  0  0  0
   57.2509   26.0956   44.6554 H   0  0  0  0  0  0  0  0  0  0  0  0
   55.7143   24.6966   43.2766 H   0  0  0  0  0  0  0  0  0  0  0  0
   56.0847   22.2322   43.1000 H   0  0  0  0  0  0  0  0  0  0  0  0
   57.9839   21.1655   44.3186 H   0  0  0  0  0  0  0  0  0  0  0  0
   59.5256   22.5597   45.6998 H   0  0  0  0  0  0  0  0  0  0  0  0
   59.6068   27.2266   44.1895 H   0  0  0  0  0  0  0  0  0  0  0  0
   59.2689   29.6528   44.6416 H   0  0  0  0  0  0  0  0  0  0  0  0
   58.0848   33.9593   46.9037 H   0  0  0  0  0  0  0  0  0  0  0  0
   58.8519   34.8167   48.2991 H   0  0  0  0  0  0  0  0  0  0  0  0
   60.6549   35.2364   47.0563 H   0  0  0  0  0  0  0  0  0  0  0  0
   60.8850   33.4287   46.8491 H   0  0  0  0  0  0  0  0  0  0  0  0
   60.4827   35.2782   44.8156 H   0  0  0  0  0  0  0  0  0  0  0  0
   60.2881   33.4681   44.7362 H   0  0  0  0  0  0  0  0  0  0  0  0
   57.9220   34.9348   45.7610 H   0  0  0  0  0  0  0  0  0  0  0  0
   58.3425   35.2694   44.0414 H   0  0  0  0  0  0  0  0  0  0  0  0
   58.9419   33.2428   42.6232 H   0  0  0  0  0  0  0  0  0  0  0  0
   57.9233   31.0881   41.8687 H   0  0  0  0  0  0  0  0  0  0  0  0
  1  2  2  0
  2  3  1  0
  3  4  1  0
  4  5  2  0
  5  6  1  0
  6  7  2  0
  7  8  1  0
  8  9  1  0
  9 10  2  0
 10 11  1  0
 11 12  2  0
 12 13  1  0
 13 14  2  0
  7 15  1  0
 15 16  2  0
  2 17  1  0
 17 18  1  0
 18 19  1  0
 19 20  1  0
 20 21  1  0
 21 22  1  0
 22 23  1  0
 23 24  2  0
 24 25  1  0
 25 26  2  0
 25 27  1  0
 27 28  1  0
 28 29  2  0
 16  4  1  0
 28 22  1  0
 14  9  1  0
  3 30  1  0
  5 31  1  0
  6 32  1  0
 10 33  1  0
 11 34  1  0
 12 35  1  0
 13 36  1  0
 14 37  1  0
 15 38  1  0
 16 39  1  0
 18 40  1  0
 18 41  1  0
 19 42  1  0
 19 43  1  0
 20 44  1  0
 20 45  1  0
 21 46  1  0
 21 47  1  0
 23 48  1  0
 24 49  1  0
M  CHG  1  27  -1
M  END
>  <UniqueID>  (36) 
33

>  <SMILES>  (36) 
O=C(Nc1ccc(Oc2ccccc2)cc1)OCCCCn1ccc(=O)[n-]c1=O

>  <Energy>  (36) 
57.04062006966549

>  <Genealogy>  (36) 
O=C(Nc1ccc(Oc2ccccc2)cc1)OCCCCn1ccc(=O)[n-]c1=O (protonated)
O=C(Nc1ccc(Oc2ccccc2)cc1)OCCCCn1ccc(=O)[n-]c1=O (3D coordinates assigned)
O=C(Nc1ccc(Oc2ccccc2)cc1)OCCCCn1ccc(=O)[n-]c1=O (optimized conformer: 57.04062006966549 kcal/mol)

>  <smiles>  (36) 
O=C(Nc1ccc(Oc2ccccc2)cc1)OCCCCn1ccc(=O)[nH]c1=O

>  <score_type>  (36) 
oracle

>  <origin>  (36) 
adg

>  <m_score__min__energy>  (36) 
-10.710000000000001

>  <m_primary>  (36) 
energy

$$$$
36:0
     RDKit          3D

 60 62  0  0  0  0  0  0  0  0999 V2000
   63.0710   33.8330   47.3560 C   0  0  0  0  0  0  0  0  0  0  0  0
   64.2110   33.0940   47.7830 O   0  0  0  0  0  0  0  0  0  0  0  0
   64.4840   32.7490   49.1180 C   0  0  0  0  0  0  0  0  0  0  0  0
   65.6340   33.2170   49.7850 C   0  0  0  0  0  0  0  0  0  0  0  0
   65.8560   32.8920   51.1270 C   0  0  0  0  0  0  0  0  0  0  0  0
   64.9330   32.1070   51.8180 C   0  0  0  0  0  0  0  0  0  0  0  0
   63.7900   31.6370   51.1700 C   0  0  0  0  0  0  0  0  0  0  0  0
   63.5690   31.9310   49.8160 C   0  0  0  0  0  0  0  0  0  0  0  0
   62.3730   31.4500   49.1860 N   0  0  0  0  0  0  0  0  0  0  0  0
   61.0760   32.0060   49.4300 C   0  0  0  0  0  0  0  0  0  0  0  0
   60.9510   33.0570   50.1160 O   0  0  0  0  0  0  0  0  0  0  0  0
   59.9250   31.3420   48.9010 N   0  0  0  0  0  0  0  0  0  0  0  0
   59.8950   30.0790   48.2220 C   0  0  0  0  0  0  0  0  0  0  0  0
   60.2180   30.0430   46.8600 C   0  0  0  0  0  0  0  0  0  0  0  0
   60.1370   28.8460   46.1440 C   0  0  0  0  0  0  0  0  0  0  0  0
   59.7100   27.6690   46.7780 C   0  0  0  0  0  0  0  0  0  0  0  0
   59.5370   26.4050   45.9800 C   0  0  0  0  0  0  0  0  0  0  0  0
   58.1200   26.2010   45.6290 N   0  0  0  0  0  0  0  0  0  0  0  0
   57.7660   26.7850   44.3260 C   0  0  0  0  0  0  0  0  0  0  0  0
   57.1520   28.1480   44.4810 C   0  0  0  0  0  0  0  0  0  0  0  0
   56.1650   28.2910   45.2510 O   0  0  0  0  0  0  0  0  0  0  0  0
   57.6740   29.2670   43.7450 N   0  0  0  0  0  0  0  0  0  0  0  0
   57.3210   30.6320   44.0140 C   0  0  0  0  0  0  0  0  0  0  0  0
   56.3460   30.9060   44.7670 O   0  0  0  0  0  0  0  0  0  0  0  0
   58.0940   31.6900   43.4330 N   0  0  0  0  0  0  0  0  0  0  0  0
   57.7990   33.0960   43.7090 C   0  0  0  0  0  0  0  0  0  0  0  0
   58.3450   33.4970   45.0520 C   0  0  0  0  0  0  0  0  0  0  0  0
   57.7240   33.0480   46.2290 C   0  0  0  0  0  0  0  0  0  0  0  0
   58.1970   33.4640   47.4780 C   0  0  0  0  0  0  0  0  0  0  0  0
   59.2870   34.3370   47.5600 C   0  0  0  0  0  0  0  0  0  0  0  0
   59.9020   34.7960   46.3930 C   0  0  0  0  0  0  0  0  0  0  0  0
   59.4300   34.3840   45.1420 C   0  0  0  0  0  0  0  0  0  0  0  0
   59.3810   27.7040   48.1420 C   0  0  0  0  0  0  0  0  0  0  0  0
   59.4670   28.9010   48.8590 C   0  0  0  0  0  0  0  0  0  0  0  0
   62.5165   34.1924   48.2354 H   0  0  0  0  0  0  0  0  0  0  0  0
   63.3965   34.6923   46.7514 H   0  0  0  0  0  0  0  0  0  0  0  0
   62.4194   33.1851   46.7514 H   0  0  0  0  0  0  0  0  0  0  0  0
   66.3617   33.8419   49.2465 H   0  0  0  0  0  0  0  0  0  0  0  0
   66.7595   33.2558   51.6382 H   0  0  0  0  0  0  0  0  0  0  0  0
   65.1064   31.8581   52.8753 H   0  0  0  0  0  0  0  0  0  0  0  0
   63.0574   31.0320   51.7244 H   0  0  0  0  0  0  0  0  0  0  0  0
   62.4660   30.7550   48.4100 H   0  0  0  0  0  0  0  0  0  0  0  0
   60.5378   30.9637   46.3501 H   0  0  0  0  0  0  0  0  0  0  0  0
   60.4092   28.8260   45.0784 H   0  0  0  0  0  0  0  0  0  0  0  0
   60.1311   26.4764   45.0570 H   0  0  0  0  0  0  0  0  0  0  0  0
   59.8772   25.5535   46.5876 H   0  0  0  0  0  0  0  0  0  0  0  0
   57.5470   26.6970   46.3520 H   0  0  0  0  0  0  0  0  0  0  0  0
   58.6759   26.8705   43.7137 H   0  0  0  0  0  0  0  0  0  0  0  0
   57.0285   26.1276   43.8424 H   0  0  0  0  0  0  0  0  0  0  0  0
   58.4300   29.0860   43.0470 H   0  0  0  0  0  0  0  0  0  0  0  0
   58.9060   31.4380   42.8230 H   0  0  0  0  0  0  0  0  0  0  0  0
   58.2591   33.7217   42.9301 H   0  0  0  0  0  0  0  0  0  0  0  0
   56.7079   33.2355   43.7134 H   0  0  0  0  0  0  0  0  0  0  0  0
   56.8625   32.3667   46.1684 H   0  0  0  0  0  0  0  0  0  0  0  0
   57.7112   33.1042   48.3970 H   0  0  0  0  0  0  0  0  0  0  0  0
   59.6594   34.6617   48.5428 H   0  0  0  0  0  0  0  0  0  0  0  0
   60.7590   35.4826   46.4576 H   0  0  0  0  0  0  0  0  0  0  0  0
   59.9107   34.7563   44.2253 H   0  0  0  0  0  0  0  0  0  0  0  0
   59.0537   26.7846   48.6496 H   0  0  0  0  0  0  0  0  0  0  0  0
   59.1988   28.9213   49.9256 H   0  0  0  0  0  0  0  0  0  0  0  0
  1  2  1  0
  2  3  1  0
  3  4  2  0
  4  5  1  0
  5  6  2  0
  6  7  1  0
  7  8  2  0
  8  9  1  0
  9 10  1  0
 10 11  2  0
 10 12  1  0
 12 13  1  0
 13 14  2  0
 14 15  1  0
 15 16  2  0
 16 17  1  0
 17 18  1  0
 18 19  1  0
 19 20  1  0
 20 21  2  0
 20 22  1  0
 22 23  1  0
 23 24  2  0
 23 25  1  0
 25 26  1  0
 26 27  1  0
 27 28  2  0
 28 29  1  0
 29 30  2  0
 30 31  1  0
 31 32  2  0
 16 33  1  0
 33 34  2  0
  8  3  1  0
 34 13  1  0
 32 27  1  0
  1 35  1  0
  1 36  1  0
  1 37  1  0
  4 38  1  0
  5 39  1  0
  6 40  1  0
  7 41  1  0
  9 42  1  0
 14 43  1  0
 15 44  1  0
 17 45  1  0
 17 46  1  0
 18 47  1  0
 19 48  1  0
 19 49  1  0
 22 50  1  0
 25 51  1  0
 26 52  1  0
 26 53  1  0
 28 54  1  0
 29 55  1  0
 30 56  1  0
 31 57  1  0
 32 58  1  0
 33 59  1  0
 34 60  1  0
M  CHG  1  12  -1
M  END
>  <UniqueID>  (37) 
34

>  <SMILES>  (37) 
COc1ccccc1NC(=O)[N-]c1ccc(CNCC(=O)NC(=O)NCc2ccccc2)cc1

>  <Energy>  (37) 
61.24970068155724

>  <Genealogy>  (37) 
COc1ccccc1NC(=O)[N-]c1ccc(CNCC(=O)NC(=O)NCc2ccccc2)cc1 (protonated)
COc1ccccc1NC(=O)[N-]c1ccc(CNCC(=O)NC(=O)NCc2ccccc2)cc1 (3D coordinates assigned)
COc1ccccc1NC(=O)[N-]c1ccc(CNCC(=O)NC(=O)NCc2ccccc2)cc1 (optimized conformer: 61.24970068155724 kcal/mol)

>  <smiles>  (37) 
COc1ccccc1NC(=O)Nc1ccc(CNCC(=O)NC(=O)NCc2ccccc2)cc1

>  <score_type>  (37) 
oracle

>  <origin>  (37) 
adg

>  <m_score__min__energy>  (37) 
-10.75

>  <m_primary>  (37) 
energy

$$$$
37:0
     RDKit          3D

 44 45  0  0  0  0  0  0  0  0999 V2000
   58.8680   34.8780   45.5290 C   0  0  0  0  0  0  0  0  0  0  0  0
   59.1900   33.8410   44.4600 C   0  0  0  0  0  0  0  0  0  0  0  0
   58.3720   32.5990   44.6600 C   0  0  0  0  0  0  0  0  0  0  0  0
   57.6080   31.7500   43.4230 S   0  0  0  0  0  0  0  0  0  0  0  0
   57.0450   30.5490   44.4560 C   0  0  0  0  0  0  0  0  0  0  0  0
   56.2810   29.3440   44.0240 C   0  0  0  0  0  0  0  0  0  0  0  0
   55.8250   28.6170   45.2010 N   0  0  0  0  0  0  0  0  0  0  0  0
   56.2860   27.3310   45.6390 C   0  0  0  0  0  0  0  0  0  0  0  0
   55.4230   26.4760   45.9730 O   0  0  0  0  0  0  0  0  0  0  0  0
   57.7220   26.9640   45.7090 C   0  0  0  0  0  0  0  0  0  0  0  0
   58.6100   27.8000   45.3960 O   0  0  0  0  0  0  0  0  0  0  0  0
   58.1080   25.6500   46.1440 N   0  0  0  0  0  0  0  0  0  0  0  0
   59.4980   25.1940   46.1330 C   0  0  0  0  0  0  0  0  0  0  0  0
   59.6060   23.7510   45.6280 C   0  0  0  0  0  0  0  0  0  0  0  0
   58.2590   23.0990   45.5560 C   0  0  0  0  0  0  0  0  0  0  0  0
   57.5230   22.9270   46.6860 N   0  0  0  0  0  0  0  0  0  0  0  0
   56.2810   22.3750   46.6400 C   0  0  0  0  0  0  0  0  0  0  0  0
   55.5010   22.1850   47.9010 C   0  0  0  0  0  0  0  0  0  0  0  0
   55.7470   21.9780   45.4100 C   0  0  0  0  0  0  0  0  0  0  0  0
   56.5120   22.1720   44.2590 C   0  0  0  0  0  0  0  0  0  0  0  0
   56.0590   21.8340   43.1340 O   0  0  0  0  0  0  0  0  0  0  0  0
   57.7460   22.7300   44.3510 N   0  0  0  0  0  0  0  0  0  0  0  0
   57.4510   30.7550   45.7290 N   0  0  0  0  0  0  0  0  0  0  0  0
   58.1880   31.8920   45.8510 C   0  0  0  0  0  0  0  0  0  0  0  0
   58.7450   32.3230   47.1710 C   0  0  0  0  0  0  0  0  0  0  0  0
   59.0063   34.4327   46.5253 H   0  0  0  0  0  0  0  0  0  0  0  0
   59.5404   35.7413   45.4167 H   0  0  0  0  0  0  0  0  0  0  0  0
   57.8249   35.2086   45.4167 H   0  0  0  0  0  0  0  0  0  0  0  0
   58.9679   34.2635   43.4690 H   0  0  0  0  0  0  0  0  0  0  0  0
   60.2554   33.5775   44.5335 H   0  0  0  0  0  0  0  0  0  0  0  0
   55.4126   29.6546   43.4244 H   0  0  0  0  0  0  0  0  0  0  0  0
   56.9288   28.6944   43.4171 H   0  0  0  0  0  0  0  0  0  0  0  0
   57.3820   24.9920   46.5060 H   0  0  0  0  0  0  0  0  0  0  0  0
   60.0851   25.8496   45.4731 H   0  0  0  0  0  0  0  0  0  0  0  0
   59.8842   25.2318   47.1623 H   0  0  0  0  0  0  0  0  0  0  0  0
   60.0566   23.7550   44.6245 H   0  0  0  0  0  0  0  0  0  0  0  0
   60.2309   23.1818   46.3320 H   0  0  0  0  0  0  0  0  0  0  0  0
   56.1597   22.3454   48.7673 H   0  0  0  0  0  0  0  0  0  0  0  0
   54.6721   22.9075   47.9318 H   0  0  0  0  0  0  0  0  0  0  0  0
   55.0972   21.1622   47.9318 H   0  0  0  0  0  0  0  0  0  0  0  0
   54.7471   21.5233   45.3511 H   0  0  0  0  0  0  0  0  0  0  0  0
   58.1579   31.8687   47.9827 H   0  0  0  0  0  0  0  0  0  0  0  0
   59.7930   31.9983   47.2504 H   0  0  0  0  0  0  0  0  0  0  0  0
   58.6937   33.4189   47.2504 H   0  0  0  0  0  0  0  0  0  0  0  0
  1  2  1  0
  2  3  1  0
  3  4  1  0
  4  5  1  0
  5  6  1  0
  6  7  1  0
  7  8  1  0
  8  9  2  0
  8 10  1  0
 10 11  2  0
 10 12  1  0
 12 13  1  0
 13 14  1  0
 14 15  1  0
 15 16  2  0
 16 17  1  0
 17 18  1  0
 17 19  2  0
 19 20  1  0
 20 21  2  0
 20 22  1  0
  5 23  2  0
 23 24  1  0
 24 25  1  0
 24  3  2  0
 22 15  1  0
  1 26  1  0
  1 27  1  0
  1 28  1  0
  2 29  1  0
  2 30  1  0
  6 31  1  0
  6 32  1  0
 12 33  1  0
 13 34  1  0
 13 35  1  0
 14 36  1  0
 14 37  1  0
 18 38  1  0
 18 39  1  0
 18 40  1  0
 19 41  1  0
 25 42  1  0
 25 43  1  0
 25 44  1  0
M  CHG  2   7  -1  22  -1
M  END
>  <UniqueID>  (38) 
35

>  <SMILES>  (38) 
CCc1sc(C[N-]C(=O)C(=O)NCCc2nc(C)cc(=O)[n-]2)nc1C

>  <Energy>  (38) 
60.41750439874892

>  <Genealogy>  (38) 
CCc1sc(C[N-]C(=O)C(=O)NCCc2nc(C)cc(=O)[n-]2)nc1C (protonated)
CCc1sc(C[N-]C(=O)C(=O)NCCc2nc(C)cc(=O)[n-]2)nc1C (3D coordinates assigned)
CCc1sc(C[N-]C(=O)C(=O)NCCc2nc(C)cc(=O)[n-]2)nc1C (optimized conformer: 60.41750439874892 kcal/mol)

>  <smiles>  (38) 
CCc1sc(CNC(=O)C(=O)NCCc2nc(C)cc(=O)[nH]2)nc1C

>  <score_type>  (38) 
oracle

>  <origin>  (38) 
adg

>  <m_score__min__energy>  (38) 
-10.99

>  <m_primary>  (38) 
energy

$$$$
38:0
     RDKit          3D

 68 71  0  0  0  0  0  0  0  0999 V2000
   56.3410   24.8400   45.0390 C   0  0  0  0  0  0  0  0  0  0  0  0
   57.7490   25.0190   44.4700 C   0  0  0  0  0  0  0  0  0  0  0  0
   58.1840   26.5020   44.4490 C   0  0  0  0  0  0  0  0  0  0  0  0
   57.1970   27.4230   45.2040 C   0  0  1  0  0  0  0  0  0  0  0  0
   57.3690   27.2550   46.6470 N   0  0  0  0  0  0  0  0  0  0  0  0
   58.6250   27.0320   47.2930 C   0  0  0  0  0  0  0  0  0  0  0  0
   59.2430   25.9460   47.1270 O   0  0  0  0  0  0  0  0  0  0  0  0
   59.1720   28.0590   48.1880 C   0  0  0  0  0  0  0  0  0  0  0  0
   60.3880   28.0050   48.8480 C   0  0  0  0  0  0  0  0  0  0  0  0
   60.5020   29.2100   49.5090 C   0  0  0  0  0  0  0  0  0  0  0  0
   61.5930   29.5710   50.2990 O   0  0  0  0  0  0  0  0  0  0  0  0
   59.4220   29.9880   49.2830 N   0  0  0  0  0  0  0  0  0  0  0  0
   59.1530   31.3230   49.8220 C   0  0  0  0  0  0  0  0  0  0  0  0
   59.2760   32.3950   48.7290 C   0  0  0  0  0  0  0  0  0  0  0  0
   60.7080   32.8180   48.4960 C   0  0  0  0  0  0  0  0  0  0  0  0
   61.5390   32.0230   47.7880 C   0  0  0  0  0  0  0  0  0  0  0  0
   62.9910   32.3530   47.5420 C   0  0  0  0  0  0  0  0  0  0  0  0
   63.3160   33.8320   47.7840 C   0  0  0  0  0  0  0  0  0  0  0  0
   62.6760   34.3080   49.0870 C   0  0  0  0  0  0  0  0  0  0  0  0
   61.1530   34.1780   49.0010 C   0  0  0  0  0  0  0  0  0  0  0  0
   58.6000   29.2840   48.4800 C   0  0  0  0  0  0  0  0  0  0  0  0
   57.3370   28.9280   44.7920 C   0  0  1  0  0  0  0  0  0  0  0  0
   56.0290   29.5930   44.9860 N   0  0  0  0  0  0  0  0  0  0  0  0
   55.9840   30.9150   44.3370 C   0  0  0  0  0  0  0  0  0  0  0  0
   57.1620   31.7400   44.7390 C   0  0  0  0  0  0  0  0  0  0  0  0
   57.3370   33.4030   44.5940 S   0  0  0  0  0  0  0  0  0  0  0  0
   58.9010   33.3730   45.2250 C   0  0  0  0  0  0  0  0  0  0  0  0
   59.7280   34.5840   45.4990 C   0  0  0  0  0  0  0  0  0  0  0  0
   59.2900   32.1200   45.5520 N   0  0  0  0  0  0  0  0  0  0  0  0
   58.3330   31.2020   45.2490 C   0  0  0  0  0  0  0  0  0  0  0  0
   58.4650   29.7250   45.5430 C   0  0  2  0  0  0  0  0  0  0  0  0
   59.8830   29.2270   45.2030 C   0  0  0  0  0  0  0  0  0  0  0  0
   60.8170   29.7310   46.1200 O   0  0  0  0  0  0  0  0  0  0  0  0
   56.3862   24.8457   46.1381 H   0  0  0  0  0  0  0  0  0  0  0  0
   55.6987   25.6637   44.6941 H   0  0  0  0  0  0  0  0  0  0  0  0
   55.9252   23.8818   44.6941 H   0  0  0  0  0  0  0  0  0  0  0  0
   58.4572   24.4505   45.0907 H   0  0  0  0  0  0  0  0  0  0  0  0
   57.7440   24.6530   43.4327 H   0  0  0  0  0  0  0  0  0  0  0  0
   59.1743   26.5852   44.9206 H   0  0  0  0  0  0  0  0  0  0  0  0
   58.2058   26.8276   43.3985 H   0  0  0  0  0  0  0  0  0  0  0  0
   56.1780   27.1211   44.9203 H   0  0  0  0  0  0  0  0  0  0  0  0
   61.1108   27.1758   48.8456 H   0  0  0  0  0  0  0  0  0  0  0  0
   62.5100   29.1690   50.1630 H   0  0  0  0  0  0  0  0  0  0  0  0
   58.1334   31.3454   50.2342 H   0  0  0  0  0  0  0  0  0  0  0  0
   59.8921   31.5383   50.6077 H   0  0  0  0  0  0  0  0  0  0  0  0
   58.8698   31.9906   47.7901 H   0  0  0  0  0  0  0  0  0  0  0  0
   58.7147   33.2802   49.0625 H   0  0  0  0  0  0  0  0  0  0  0  0
   61.1375   31.0882   47.3697 H   0  0  0  0  0  0  0  0  0  0  0  0
   63.6089   31.7428   48.2172 H   0  0  0  0  0  0  0  0  0  0  0  0
   63.2042   32.1368   46.4847 H   0  0  0  0  0  0  0  0  0  0  0  0
   64.4069   33.9583   47.8480 H   0  0  0  0  0  0  0  0  0  0  0  0
   62.9165   34.4277   46.9500 H   0  0  0  0  0  0  0  0  0  0  0  0
   63.0474   33.6940   49.9207 H   0  0  0  0  0  0  0  0  0  0  0  0
   62.9393   35.3629   49.2540 H   0  0  0  0  0  0  0  0  0  0  0  0
   60.7293   34.3368   50.0036 H   0  0  0  0  0  0  0  0  0  0  0  0
   60.7956   34.9315   48.2837 H   0  0  0  0  0  0  0  0  0  0  0  0
   57.6229   29.6308   48.1127 H   0  0  0  0  0  0  0  0  0  0  0  0
   57.6465   28.9333   43.7364 H   0  0  0  0  0  0  0  0  0  0  0  0
   55.8520   29.7120   46.0120 H   0  0  0  0  0  0  0  0  0  0  0  0
   55.9920   30.7818   43.2451 H   0  0  0  0  0  0  0  0  0  0  0  0
   55.0656   31.4325   44.6513 H   0  0  0  0  0  0  0  0  0  0  0  0
   59.8238   34.7243   46.5858 H   0  0  0  0  0  0  0  0  0  0  0  0
   60.7267   34.4538   45.0566 H   0  0  0  0  0  0  0  0  0  0  0  0
   59.2433   35.4668   45.0566 H   0  0  0  0  0  0  0  0  0  0  0  0
   58.3258   29.5479   46.6197 H   0  0  0  0  0  0  0  0  0  0  0  0
   59.8982   28.1277   45.2389 H   0  0  0  0  0  0  0  0  0  0  0  0
   60.1501   29.5789   44.1956 H   0  0  0  0  0  0  0  0  0  0  0  0
   60.4210   30.5570   46.5030 H   0  0  0  0  0  0  0  0  0  0  0  0
  1  2  1  0
  2  3  1  0
  3  4  1  0
  4  5  1  0
  5  6  1  0
  6  7  2  0
  6  8  1  0
  8  9  1  0
  9 10  2  0
 10 11  1  0
 10 12  1  0
 12 13  1  0
 13 14  1  0
 14 15  1  0
 15 16  2  0
 16 17  1  0
 17 18  1  0
 18 19  1  0
 19 20  1  0
 12 21  1  0
  4 22  1  0
 22 23  1  0
 23 24  1  0
 24 25  1  0
 25 26  1  0
 26 27  1  0
 27 28  1  0
 27 29  2  0
 29 30  1  0
 30 31  1  0
 31 32  1  0
 32 33  1  0
 21  8  2  0
 31 22  1  0
 20 15  1  0
 30 25  2  0
  1 34  1  0
  1 35  1  0
  1 36  1  0
  2 37  1  0
  2 38  1  0
  3 39  1  0
  3 40  1  0
  4 41  1  6
  9 42  1  0
 11 43  1  0
 13 44  1  0
 13 45  1  0
 14 46  1  0
 14 47  1  0
 16 48  1  0
 17 49  1  0
 17 50  1  0
 18 51  1  0
 18 52  1  0
 19 53  1  0
 19 54  1  0
 20 55  1  0
 20 56  1  0
 21 57  1  0
 22 58  1  6
 23 59  1  0
 24 60  1  0
 24 61  1  0
 28 62  1  0
 28 63  1  0
 28 64  1  0
 31 65  1  1
 32 66  1  0
 32 67  1  0
 33 68  1  0
M  CHG  1   5  -1
M  END
>  <UniqueID>  (39) 
36

>  <SMILES>  (39) 
CCC[C@@H]([N-]C(=O)c1cc(O)n(CCC2=CCCCC2)c1)[C@H]1NCc2sc(C)nc2C1CO

>  <Energy>  (39) 
119.03353618706467

>  <Genealogy>  (39) 
CCCC([N-]C(=O)c1cc(O)n(CCC2=CCCCC2)c1)C1NCc2sc(C)nc2C1CO (protonated)
CCC[C@@H]([N-]C(=O)c1cc(O)n(CCC2=CCCCC2)c1)[C@H]1NCc2sc(C)nc2C1CO (chirality)
CCC[C@@H]([N-]C(=O)c1cc(O)n(CCC2=CCCCC2)c1)[C@H]1NCc2sc(C)nc2C1CO (3D coordinates assigned)
CCC[C@@H]([N-]C(=O)c1cc(O)n(CCC2=CCCCC2)c1)[C@H]1NCc2sc(C)nc2C1CO (nonaromatic ring conformer: 119.03353618706467 kcal/mol)

>  <smiles>  (39) 
CCCC(NC(=O)c1cc(O)n(CCC2=CCCCC2)c1)C1NCc2sc(C)nc2C1CO

>  <score_type>  (39) 
oracle

>  <origin>  (39) 
adg

>  <m_score__min__energy>  (39) 
-10.34

>  <m_primary>  (39) 
energy

$$$$
39:0
     RDKit          3D

 39 41  0  0  0  0  0  0  0  0999 V2000
   54.7730   29.6450   43.3980 O   0  0  0  0  0  0  0  0  0  0  0  0
   55.7080   29.8030   44.2280 C   0  0  0  0  0  0  0  0  0  0  0  0
   55.9000   28.8090   45.2440 N   0  0  0  0  0  0  0  0  0  0  0  0
   57.1490   28.1950   45.6040 C   0  0  0  0  0  0  0  0  0  0  0  0
   58.3520   28.9090   45.4510 C   0  0  0  0  0  0  0  0  0  0  0  0
   59.5700   28.3350   45.8110 C   0  0  0  0  0  0  0  0  0  0  0  0
   59.6070   27.0480   46.3440 C   0  0  0  0  0  0  0  0  0  0  0  0
   61.1420   26.3300   46.7950 Cl  0  0  0  0  0  0  0  0  0  0  0  0
   58.4200   26.3340   46.5270 C   0  0  0  0  0  0  0  0  0  0  0  0
   57.1750   26.8930   46.1700 C   0  0  0  0  0  0  0  0  0  0  0  0
   55.9360   26.0900   46.3750 C   0  0  0  0  0  0  0  0  0  0  0  0
   54.8030   26.6410   46.3600 O   0  0  0  0  0  0  0  0  0  0  0  0
   56.0310   24.6820   46.6360 N   0  0  0  0  0  0  0  0  0  0  0  0
   56.5080   23.6940   45.7140 C   0  0  0  0  0  0  0  0  0  0  0  0
   56.2440   23.8670   44.3490 C   0  0  0  0  0  0  0  0  0  0  0  0
   56.6830   22.9220   43.4160 C   0  0  0  0  0  0  0  0  0  0  0  0
   57.3720   21.7850   43.8440 C   0  0  0  0  0  0  0  0  0  0  0  0
   57.6110   21.5850   45.2060 C   0  0  0  0  0  0  0  0  0  0  0  0
   57.1690   22.5240   46.1460 C   0  0  0  0  0  0  0  0  0  0  0  0
   57.3600   22.2670   47.4980 O   0  0  0  0  0  0  0  0  0  0  0  0
   56.6400   30.9400   44.0680 C   0  0  0  0  0  0  0  0  0  0  0  0
   57.1030   31.6060   45.2170 C   0  0  0  0  0  0  0  0  0  0  0  0
   58.0170   32.6570   45.1110 C   0  0  0  0  0  0  0  0  0  0  0  0
   58.4860   33.0500   43.8570 C   0  0  0  0  0  0  0  0  0  0  0  0
   58.0330   32.4030   42.7070 C   0  0  0  0  0  0  0  0  0  0  0  0
   57.1050   31.3580   42.7970 C   0  0  0  0  0  0  0  0  0  0  0  0
   56.6470   30.7810   41.6100 O   0  0  0  0  0  0  0  0  0  0  0  0
   58.3308   29.9304   45.0432 H   0  0  0  0  0  0  0  0  0  0  0  0
   60.5043   28.8992   45.6741 H   0  0  0  0  0  0  0  0  0  0  0  0
   58.4569   25.3216   46.9556 H   0  0  0  0  0  0  0  0  0  0  0  0
   55.6874   24.7526   44.0085 H   0  0  0  0  0  0  0  0  0  0  0  0
   56.4855   23.0743   42.3446 H   0  0  0  0  0  0  0  0  0  0  0  0
   57.7264   21.0472   43.1091 H   0  0  0  0  0  0  0  0  0  0  0  0
   58.1488   20.6859   45.5413 H   0  0  0  0  0  0  0  0  0  0  0  0
   56.7418   31.2962   46.2088 H   0  0  0  0  0  0  0  0  0  0  0  0
   58.3670   33.1748   46.0162 H   0  0  0  0  0  0  0  0  0  0  0  0
   59.2137   33.8708   43.7751 H   0  0  0  0  0  0  0  0  0  0  0  0
   58.4078   32.7162   41.7214 H   0  0  0  0  0  0  0  0  0  0  0  0
   55.9140   30.0850   41.5790 H   0  0  0  0  0  0  0  0  0  0  0  0
  1  2  2  0
  2  3  1  0
  3  4  1  0
  4  5  2  0
  5  6  1  0
  6  7  2  0
  7  8  1  0
  7  9  1  0
  9 10  2  0
 10 11  1  0
 11 12  2  0
 11 13  1  0
 13 14  1  0
 14 15  2  0
 15 16  1  0
 16 17  2  0
 17 18  1  0
 18 19  2  0
 19 20  1  0
  2 21  1  0
 21 22  2  0
 22 23  1  0
 23 24  2  0
 24 25  1  0
 25 26  2  0
 26 27  1  0
 10  4  1  0
 19 14  1  0
 26 21  1  0
  5 28  1  0
  6 29  1  0
  9 30  1  0
 15 31  1  0
 16 32  1  0
 17 33  1  0
 18 34  1  0
 22 35  1  0
 23 36  1  0
 24 37  1  0
 25 38  1  0
 27 39  1  0
M  CHG  3   3  -1  13  -1  20  -1
M  END
>  <UniqueID>  (40) 
37

>  <SMILES>  (40) 
O=C([N-]c1ccc(Cl)cc1C(=O)[N-]c1ccccc1[O-])c1ccccc1O

>  <Energy>  (40) 
60.37736598331712

>  <Genealogy>  (40) 
O=C([N-]c1ccc(Cl)cc1C(=O)[N-]c1ccccc1[O-])c1ccccc1O (protonated)
O=C([N-]c1ccc(Cl)cc1C(=O)[N-]c1ccccc1[O-])c1ccccc1O (3D coordinates assigned)
O=C([N-]c1ccc(Cl)cc1C(=O)[N-]c1ccccc1[O-])c1ccccc1O (optimized conformer: 60.37736598331712 kcal/mol)

>  <smiles>  (40) 
O=C(Nc1ccc(Cl)cc1C(=O)Nc1ccccc1O)c1ccccc1O

>  <score_type>  (40) 
oracle

>  <origin>  (40) 
adg

>  <m_score__min__energy>  (40) 
-14.49

>  <m_primary>  (40) 
energy

$$$$
40:0
     RDKit          3D

 38 39  0  0  0  0  0  0  0  0999 V2000
   56.2440   24.4050   44.5750 C   0  0  0  0  0  0  0  0  0  0  0  0
   55.2660   24.9550   45.9530 S   0  0  0  0  0  0  0  0  0  0  0  0
   53.8600   24.4460   45.7920 O   0  0  0  0  0  0  0  0  0  0  0  0
   55.8520   24.4120   47.2260 O   0  0  0  0  0  0  0  0  0  0  0  0
   55.2790   26.6910   45.9940 N   0  0  0  0  0  0  0  0  0  0  0  0
   56.6500   27.1700   46.1440 C   0  0  0  0  0  0  0  0  0  0  0  0
   56.9340   28.2270   45.1190 C   0  0  0  0  0  0  0  0  0  0  0  0
   57.5910   27.9160   44.0910 O   0  0  0  0  0  0  0  0  0  0  0  0
   56.4900   29.5840   45.2640 N   0  0  0  0  0  0  0  0  0  0  0  0
   56.7800   30.7040   44.3730 C   0  0  0  0  0  0  0  0  0  0  0  0
   57.5630   31.7920   45.0740 C   0  0  0  0  0  0  0  0  0  0  0  0
   57.0540   33.1050   45.0540 C   0  0  0  0  0  0  0  0  0  0  0  0
   57.7360   34.1460   45.6810 C   0  0  0  0  0  0  0  0  0  0  0  0
   58.9480   33.9000   46.3220 C   0  0  0  0  0  0  0  0  0  0  0  0
   59.4860   32.6120   46.3320 C   0  0  0  0  0  0  0  0  0  0  0  0
   58.8060   31.5440   45.7180 C   0  0  0  0  0  0  0  0  0  0  0  0
   59.4730   30.1860   45.6990 C   0  0  0  0  0  0  0  0  0  0  0  0
   59.7620   29.7420   47.0590 N   0  0  0  0  0  0  0  0  0  0  0  0
   58.9420   29.0270   47.8510 C   0  0  0  0  0  0  0  0  0  0  0  0
   59.5610   28.8490   49.0690 C   0  0  0  0  0  0  0  0  0  0  0  0
   60.7720   29.5050   48.9460 C   0  0  0  0  0  0  0  0  0  0  0  0
   60.8700   30.0460   47.7170 N   0  0  0  0  0  0  0  0  0  0  0  0
   57.1468   23.8973   44.9455 H   0  0  0  0  0  0  0  0  0  0  0  0
   55.6551   23.7058   43.9633 H   0  0  0  0  0  0  0  0  0  0  0  0
   56.5356   25.2715   43.9633 H   0  0  0  0  0  0  0  0  0  0  0  0
   56.7808   27.5932   47.1509 H   0  0  0  0  0  0  0  0  0  0  0  0
   57.3457   26.3299   46.0017 H   0  0  0  0  0  0  0  0  0  0  0  0
   57.3677   30.3365   43.5189 H   0  0  0  0  0  0  0  0  0  0  0  0
   55.8231   31.1322   44.0398 H   0  0  0  0  0  0  0  0  0  0  0  0
   56.1055   33.3115   44.5366 H   0  0  0  0  0  0  0  0  0  0  0  0
   57.3168   35.1629   45.6697 H   0  0  0  0  0  0  0  0  0  0  0  0
   59.4820   34.7220   46.8211 H   0  0  0  0  0  0  0  0  0  0  0  0
   60.4522   32.4299   46.8253 H   0  0  0  0  0  0  0  0  0  0  0  0
   58.8031   29.4599   45.2153 H   0  0  0  0  0  0  0  0  0  0  0  0
   60.4172   30.2601   45.1396 H   0  0  0  0  0  0  0  0  0  0  0  0
   57.9470   28.6490   47.5733 H   0  0  0  0  0  0  0  0  0  0  0  0
   59.1770   28.3056   49.9449 H   0  0  0  0  0  0  0  0  0  0  0  0
   61.5383   29.5743   49.7322 H   0  0  0  0  0  0  0  0  0  0  0  0
  1  2  1  0
  2  3  2  0
  2  4  2  0
  2  5  1  0
  5  6  1  0
  6  7  1  0
  7  8  2  0
  7  9  1  0
  9 10  1  0
 10 11  1  0
 11 12  2  0
 12 13  1  0
 13 14  2  0
 14 15  1  0
 15 16  2  0
 16 17  1  0
 17 18  1  0
 18 19  1  0
 19 20  2  0
 20 21  1  0
 21 22  2  0
 16 11  1  0
 22 18  1  0
  1 23  1  0
  1 24  1  0
  1 25  1  0
  6 26  1  0
  6 27  1  0
 10 28  1  0
 10 29  1  0
 12 30  1  0
 13 31  1  0
 14 32  1  0
 15 33  1  0
 17 34  1  0
 17 35  1  0
 19 36  1  0
 20 37  1  0
 21 38  1  0
M  CHG  2   5  -1   9  -1
M  END
>  <UniqueID>  (41) 
38

>  <SMILES>  (41) 
CS(=O)(=O)[N-]CC(=O)[N-]Cc1ccccc1Cn1cccn1

>  <Energy>  (41) 
58.28815900406446

>  <Genealogy>  (41) 
CS(=O)(=O)[N-]CC(=O)[N-]Cc1ccccc1Cn1cccn1 (protonated)
CS(=O)(=O)[N-]CC(=O)[N-]Cc1ccccc1Cn1cccn1 (3D coordinates assigned)
CS(=O)(=O)[N-]CC(=O)[N-]Cc1ccccc1Cn1cccn1 (optimized conformer: 58.28815900406446 kcal/mol)

>  <smiles>  (41) 
CS(=O)(=O)NCC(=O)NCc1ccccc1Cn1cccn1

>  <score_type>  (41) 
oracle

>  <origin>  (41) 
adg

>  <m_score__min__energy>  (41) 
-11.529999999999999

>  <m_primary>  (41) 
energy

$$$$
41:0
     RDKit          3D

 72 76  0  0  0  0  0  0  0  0999 V2000
   58.3600   32.7350   50.9160 O   0  0  0  0  0  0  0  0  0  0  0  0
   59.0250   32.3210   49.9280 C   0  0  0  0  0  0  0  0  0  0  0  0
   59.9480   33.2780   49.2150 C   0  0  0  0  0  0  0  0  0  0  0  0
   59.4530   33.5990   47.8330 C   0  0  0  0  0  0  0  0  0  0  0  0
   59.5190   35.1350   47.1340 S   0  0  0  0  0  0  0  0  0  0  0  0
   58.8970   34.5970   45.6730 C   0  0  0  0  0  0  0  0  0  0  0  0
   58.7080   35.3340   44.6690 O   0  0  0  0  0  0  0  0  0  0  0  0
   58.6370   33.2770   45.6770 N   0  0  0  0  0  0  0  0  0  0  0  0
   58.9410   32.7140   46.8780 C   0  0  0  0  0  0  0  0  0  0  0  0
   58.7230   31.3560   47.1000 O   0  0  0  0  0  0  0  0  0  0  0  0
   58.8820   30.9440   49.5460 N   0  0  0  0  0  0  0  0  0  0  0  0
   59.6820   29.8090   49.9260 C   0  0  0  0  0  0  0  0  0  0  0  0
   60.4690   29.8220   51.0880 C   0  0  0  0  0  0  0  0  0  0  0  0
   61.1680   28.6750   51.4950 C   0  0  0  0  0  0  0  0  0  0  0  0
   61.8030   28.6270   52.8570 C   0  0  0  0  0  0  0  0  0  0  0  0
   63.2940   28.6750   52.7220 C   0  0  0  0  0  0  0  0  0  0  0  0
   63.9150   27.6730   52.2730 O   0  0  0  0  0  0  0  0  0  0  0  0
   63.9980   29.8700   53.0710 N   0  0  0  0  0  0  0  0  0  0  0  0
   65.0530   30.4570   52.2910 C   0  0  0  0  0  0  0  0  0  0  0  0
   66.3660   30.0330   52.5400 C   0  0  0  0  0  0  0  0  0  0  0  0
   67.4440   30.6170   51.8700 C   0  0  0  0  0  0  0  0  0  0  0  0
   67.2180   31.6160   50.9230 C   0  0  0  0  0  0  0  0  0  0  0  0
   65.9130   32.0250   50.6340 C   0  0  0  0  0  0  0  0  0  0  0  0
   64.8180   31.4510   51.3060 C   0  0  0  0  0  0  0  0  0  0  0  0
   63.4470   31.8360   50.9040 C   0  0  0  0  0  0  0  0  0  0  0  0
   62.5310   31.8170   51.7740 O   0  0  0  0  0  0  0  0  0  0  0  0
   63.1230   32.2320   49.5100 C   0  0  0  0  0  0  0  0  0  0  0  0
   63.4650   33.5150   49.0420 C   0  0  0  0  0  0  0  0  0  0  0  0
   63.1840   33.8880   47.7230 C   0  0  0  0  0  0  0  0  0  0  0  0
   62.5650   32.9870   46.8580 C   0  0  0  0  0  0  0  0  0  0  0  0
   62.2310   31.7060   47.3050 C   0  0  0  0  0  0  0  0  0  0  0  0
   62.5090   31.3280   48.6230 C   0  0  0  0  0  0  0  0  0  0  0  0
   61.1420   27.5310   50.6880 C   0  0  0  0  0  0  0  0  0  0  0  0
   60.4320   27.5330   49.4860 C   0  0  0  0  0  0  0  0  0  0  0  0
   59.7020   28.6670   49.0920 C   0  0  0  0  0  0  0  0  0  0  0  0
   58.9050   28.6260   47.8170 C   0  0  0  0  0  0  0  0  0  0  0  0
   58.0050   27.5250   47.8570 O   0  0  0  0  0  0  0  0  0  0  0  0
   57.8950   26.5990   46.8160 C   0  0  0  0  0  0  0  0  0  0  0  0
   58.5360   25.5120   46.8520 O   0  0  0  0  0  0  0  0  0  0  0  0
   57.0460   26.9210   45.6270 C   0  0  0  0  0  0  0  0  0  0  0  0
   57.4440   28.2470   45.0280 C   0  0  0  0  0  0  0  0  0  0  0  0
   58.8070   28.5380   44.8500 C   0  0  0  0  0  0  0  0  0  0  0  0
   59.2050   29.7830   44.3630 C   0  0  0  0  0  0  0  0  0  0  0  0
   58.2490   30.7480   44.0440 C   0  0  0  0  0  0  0  0  0  0  0  0
   56.8900   30.4700   44.2160 C   0  0  0  0  0  0  0  0  0  0  0  0
   56.4830   29.2250   44.7040 C   0  0  0  0  0  0  0  0  0  0  0  0
   55.1270   28.9690   44.8640 O   0  0  0  0  0  0  0  0  0  0  0  0
   60.0138   34.2098   49.7958 H   0  0  0  0  0  0  0  0  0  0  0  0
   60.9348   32.8006   49.1244 H   0  0  0  0  0  0  0  0  0  0  0  0
   58.4190   31.0000   47.9960 H   0  0  0  0  0  0  0  0  0  0  0  0
   60.5388   30.7421   51.6868 H   0  0  0  0  0  0  0  0  0  0  0  0
   61.4618   29.4885   53.4499 H   0  0  0  0  0  0  0  0  0  0  0  0
   61.5132   27.6931   53.3609 H   0  0  0  0  0  0  0  0  0  0  0  0
   66.5494   29.2317   53.2709 H   0  0  0  0  0  0  0  0  0  0  0  0
   68.4708   30.2891   52.0892 H   0  0  0  0  0  0  0  0  0  0  0  0
   68.0678   32.0824   50.4031 H   0  0  0  0  0  0  0  0  0  0  0  0
   65.7406   32.8021   49.8748 H   0  0  0  0  0  0  0  0  0  0  0  0
   63.9568   34.2296   49.7184 H   0  0  0  0  0  0  0  0  0  0  0  0
   63.4520   34.8940   47.3680 H   0  0  0  0  0  0  0  0  0  0  0  0
   62.3394   33.2846   45.8233 H   0  0  0  0  0  0  0  0  0  0  0  0
   61.7487   30.9936   46.6195 H   0  0  0  0  0  0  0  0  0  0  0  0
   62.2459   30.3173   48.9684 H   0  0  0  0  0  0  0  0  0  0  0  0
   61.6835   26.6266   51.0026 H   0  0  0  0  0  0  0  0  0  0  0  0
   60.4442   26.6406   48.8429 H   0  0  0  0  0  0  0  0  0  0  0  0
   58.3360   29.5613   47.7097 H   0  0  0  0  0  0  0  0  0  0  0  0
   59.5867   28.5121   46.9613 H   0  0  0  0  0  0  0  0  0  0  0  0
   57.1702   26.1319   44.8708 H   0  0  0  0  0  0  0  0  0  0  0  0
   55.9960   26.9806   45.9492 H   0  0  0  0  0  0  0  0  0  0  0  0
   59.5647   27.7795   45.0962 H   0  0  0  0  0  0  0  0  0  0  0  0
   60.2743   30.0044   44.2302 H   0  0  0  0  0  0  0  0  0  0  0  0
   58.5650   31.7280   43.6570 H   0  0  0  0  0  0  0  0  0  0  0  0
   56.1384   31.2334   43.9665 H   0  0  0  0  0  0  0  0  0  0  0  0
  1  2  2  0
  2  3  1  0
  3  4  1  0
  4  5  1  0
  5  6  1  0
  6  7  2  0
  6  8  1  0
  8  9  1  0
  9 10  1  0
  2 11  1  0
 11 12  1  0
 12 13  2  0
 13 14  1  0
 14 15  1  0
 15 16  1  0
 16 17  2  0
 16 18  1  0
 18 19  1  0
 19 20  2  0
 20 21  1  0
 21 22  2  0
 22 23  1  0
 23 24  2  0
 24 25  1  0
 25 26  2  0
 25 27  1  0
 27 28  2  0
 28 29  1  0
 29 30  2  0
 30 31  1  0
 31 32  2  0
 14 33  2  0
 33 34  1  0
 34 35  2  0
 35 36  1  0
 36 37  1  0
 37 38  1  0
 38 39  2  0
 38 40  1  0
 40 41  1  0
 41 42  2  0
 42 43  1  0
 43 44  2  0
 44 45  1  0
 45 46  2  0
 46 47  1  0
  9  4  2  0
 35 12  1  0
 46 41  1  0
 24 19  1  0
 32 27  1  0
  3 48  1  0
  3 49  1  0
 10 50  1  0
 13 51  1  0
 15 52  1  0
 15 53  1  0
 20 54  1  0
 21 55  1  0
 22 56  1  0
 23 57  1  0
 28 58  1  0
 29 59  1  0
 30 60  1  0
 31 61  1  0
 32 62  1  0
 33 63  1  0
 34 64  1  0
 36 65  1  0
 36 66  1  0
 40 67  1  0
 40 68  1  0
 42 69  1  0
 43 70  1  0
 44 71  1  0
 45 72  1  0
M  CHG  4   8  -1  11  -1  18  -1  47  -1
M  END
>  <UniqueID>  (42) 
39

>  <SMILES>  (42) 
O=C(Cc1sc(=O)[n-]c1O)[N-]c1cc(CC(=O)[N-]c2ccccc2C(=O)c2ccccc2)ccc1COC(=O)Cc1ccccc1[O-]

>  <Energy>  (42) 
120.71445997935695

>  <Genealogy>  (42) 
O=C(Cc1sc(=O)[n-]c1O)[N-]c1cc(CC(=O)[N-]c2ccccc2C(=O)c2ccccc2)ccc1COC(=O)Cc1ccccc1[O-] (protonated)
O=C(Cc1sc(=O)[n-]c1O)[N-]c1cc(CC(=O)[N-]c2ccccc2C(=O)c2ccccc2)ccc1COC(=O)Cc1ccccc1[O-] (3D coordinates assigned)
O=C(Cc1sc(=O)[n-]c1O)[N-]c1cc(CC(=O)[N-]c2ccccc2C(=O)c2ccccc2)ccc1COC(=O)Cc1ccccc1[O-] (optimized conformer: 120.71445997935695 kcal/mol)

>  <smiles>  (42) 
O=C(Cc1sc(=O)[nH]c1O)Nc1cc(CC(=O)Nc2ccccc2C(=O)c2ccccc2)ccc1COC(=O)Cc1ccccc1O

>  <score_type>  (42) 
oracle

>  <origin>  (42) 
adg

>  <m_score__min__energy>  (42) 
-18.260000000000002

>  <m_primary>  (42) 
energy

$$$$
42:0
     RDKit          3D

 48 50  0  0  0  0  0  0  0  0999 V2000
   56.2756   23.6722   47.7668 H   0  0  0  0  0  0  0  0  0  0  0  0
   56.5950   24.2850   46.9110 C   0  0  0  0  0  0  0  0  0  0  0  0
   56.0790   25.5310   46.7360 N   0  0  0  0  0  0  0  0  0  0  0  0
   56.4350   26.3300   45.6930 C   0  0  0  0  0  0  0  0  0  0  0  0
   55.8940   27.5150   45.6140 N   0  0  0  0  0  0  0  0  0  0  0  0
   56.3620   28.6700   44.8990 C   0  0  0  0  0  0  0  0  0  0  0  0
   55.5650   29.5730   44.5280 O   0  0  0  0  0  0  0  0  0  0  0  0
   57.8330   28.8580   44.6930 C   0  0  0  0  0  0  0  0  0  0  0  0
   57.9981   29.4418   43.7754 H   0  0  0  0  0  0  0  0  0  0  0  0
   58.3085   27.8700   44.6053 H   0  0  0  0  0  0  0  0  0  0  0  0
   58.4310   29.5760   45.8410 N   0  0  0  0  0  0  0  0  0  0  0  0
   59.3350   28.9470   46.6730 C   0  0  0  0  0  0  0  0  0  0  0  0
   59.7410   27.5060   46.4720 C   0  0  0  0  0  0  0  0  0  0  0  0
   59.8770   27.0234   47.4511 H   0  0  0  0  0  0  0  0  0  0  0  0
   58.9564   26.9791   45.9093 H   0  0  0  0  0  0  0  0  0  0  0  0
   60.6853   27.4662   45.9093 H   0  0  0  0  0  0  0  0  0  0  0  0
   59.8870   29.6410   47.7580 C   0  0  0  0  0  0  0  0  0  0  0  0
   60.5958   29.1352   48.4301 H   0  0  0  0  0  0  0  0  0  0  0  0
   59.5410   30.9650   47.9860 C   0  0  0  0  0  0  0  0  0  0  0  0
   59.9757   31.5069   48.8388 H   0  0  0  0  0  0  0  0  0  0  0  0
   58.6420   31.6110   47.1350 C   0  0  0  0  0  0  0  0  0  0  0  0
   58.2580   32.9780   47.3670 N   0  0  0  0  0  0  0  0  0  0  0  0
   57.7480   33.2260   48.2440 H   0  0  0  0  0  0  0  0  0  0  0  0
   58.8650   34.3010   46.4210 S   0  0  0  0  0  0  0  0  0  0  0  0
   58.9220   35.5290   47.2850 O   0  0  0  0  0  0  0  0  0  0  0  0
   57.9420   34.5660   45.2650 O   0  0  0  0  0  0  0  0  0  0  0  0
   60.5130   33.9490   45.8180 C   0  0  0  0  0  0  0  0  0  0  0  0
   60.4952   33.0072   45.2499 H   0  0  0  0  0  0  0  0  0  0  0  0
   60.8367   34.7798   45.1739 H   0  0  0  0  0  0  0  0  0  0  0  0
   61.4850   33.8180   46.9590 C   0  0  0  0  0  0  0  0  0  0  0  0
   62.8370   33.5220   46.7150 C   0  0  0  0  0  0  0  0  0  0  0  0
   63.1971   33.4211   45.6805 H   0  0  0  0  0  0  0  0  0  0  0  0
   63.7270   33.3550   47.7810 C   0  0  0  0  0  0  0  0  0  0  0  0
   64.7824   33.1163   47.5834 H   0  0  0  0  0  0  0  0  0  0  0  0
   63.2770   33.4910   49.0960 C   0  0  0  0  0  0  0  0  0  0  0  0
   63.9779   33.3597   49.9335 H   0  0  0  0  0  0  0  0  0  0  0  0
   61.9360   33.7940   49.3480 C   0  0  0  0  0  0  0  0  0  0  0  0
   61.5835   33.9059   50.3839 H   0  0  0  0  0  0  0  0  0  0  0  0
   61.0420   33.9550   48.2850 C   0  0  0  0  0  0  0  0  0  0  0  0
   59.9868   34.1901   48.4881 H   0  0  0  0  0  0  0  0  0  0  0  0
   58.1050   30.8990   46.0490 C   0  0  0  0  0  0  0  0  0  0  0  0
   57.3030   31.4860   45.2690 O   0  0  0  0  0  0  0  0  0  0  0  0
   57.3940   25.8590   44.7700 C   0  0  0  0  0  0  0  0  0  0  0  0
   57.7140   26.4931   43.9301 H   0  0  0  0  0  0  0  0  0  0  0  0
   57.9330   24.5800   44.9330 C   0  0  0  0  0  0  0  0  0  0  0  0
   58.6757   24.2005   44.2159 H   0  0  0  0  0  0  0  0  0  0  0  0
   57.5290   23.7850   46.0050 C   0  0  0  0  0  0  0  0  0  0  0  0
   58.0510   22.5450   46.1720 F   0  0  0  0  0  0  0  0  0  0  0  0
  1  2  1  0
  2  3  1  0
  3  4  1  0
  4  5  2  0
  5  6  1  0
  6  7  2  0
  6  8  1  0
  8  9  1  0
  8 10  1  0
  8 11  1  0
 11 12  1  0
 12 13  1  0
 13 14  1  0
 13 15  1  0
 13 16  1  0
 12 17  2  0
 17 18  1  0
 17 19  1  0
 19 20  1  0
 19 21  2  0
 21 22  1  0
 22 23  1  0
 22 24  1  0
 24 25  2  0
 24 26  2  0
 24 27  1  0
 27 28  1  0
 27 29  1  0
 27 30  1  0
 30 31  2  0
 31 32  1  0
 31 33  1  0
 33 34  1  0
 33 35  2  0
 35 36  1  0
 35 37  1  0
 37 38  1  0
 37 39  2  0
 39 40  1  0
 21 41  1  0
 41 42  2  0
  4 43  1  0
 43 44  1  0
 43 45  2  0
 45 46  1  0
 45 47  1  0
 47 48  1  0
 47  2  2  0
 41 11  1  0
 39 30  1  0
M  CHG  1   3  -1
M  END
>  <UniqueID>  (43) 
40

>  <SMILES>  (43) 
Cc1ccc(NS(=O)(=O)Cc2ccccc2)c(=O)n1CC(=O)/N=c1\ccc(F)c[n-]1

>  <Energy>  (43) 
59.67288480133243

>  <Genealogy>  (43) 
Cc1ccc(NS(=O)(=O)Cc2ccccc2)c(=O)n1CC(=O)N=c1ccc(F)c[n-]1 (protonated)
Cc1ccc(NS(=O)(=O)Cc2ccccc2)c(=O)n1CC(=O)/N=c1\ccc(F)c[n-]1 (cis-trans isomerization)
Cc1ccc(NS(=O)(=O)Cc2ccccc2)c(=O)n1CC(=O)/N=c1\ccc(F)c[n-]1 (3D coordinates assigned)
Cc1ccc(NS(=O)(=O)Cc2ccccc2)c(=O)n1CC(=O)/N=c1\ccc(F)c[n-]1 (optimized conformer: 59.67288480133243 kcal/mol)

>  <smiles>  (43) 
Cc1ccc(NS(=O)(=O)Cc2ccccc2)c(=O)n1CC(=O)N=c1ccc(F)c[nH]1

>  <score_type>  (43) 
oracle

>  <origin>  (43) 
adg

>  <m_score__min__energy>  (43) 
-11.17

>  <m_primary>  (43) 
energy

$$$$
43:0
     RDKit          3D

 52 55  0  0  0  0  0  0  0  0999 V2000
   56.4889   23.2235   43.2194 H   0  0  0  0  0  0  0  0  0  0  0  0
   56.7090   24.0820   43.8710 C   0  0  0  0  0  0  0  0  0  0  0  0
   57.6216   24.6747   43.7104 H   0  0  0  0  0  0  0  0  0  0  0  0
   55.8700   24.4040   44.8550 C   0  0  0  0  0  0  0  0  0  0  0  0
   54.9638   23.7968   44.9964 H   0  0  0  0  0  0  0  0  0  0  0  0
   56.1080   25.5400   45.7600 C   0  0  0  0  0  0  0  0  0  0  0  0
   55.1630   26.3370   45.9970 O   0  0  0  0  0  0  0  0  0  0  0  0
   57.4100   25.7640   46.3210 N   0  0  0  0  0  0  0  0  0  0  0  0
   58.1500   26.9930   46.3090 C   0  0  0  0  0  0  0  0  0  0  0  0
   59.0250   27.2380   45.2430 C   0  0  0  0  0  0  0  0  0  0  0  0
   59.0929   26.5168   44.4152 H   0  0  0  0  0  0  0  0  0  0  0  0
   59.8120   28.3920   45.2240 C   0  0  0  0  0  0  0  0  0  0  0  0
   60.4839   28.5838   44.3744 H   0  0  0  0  0  0  0  0  0  0  0  0
   59.7480   29.3030   46.2810 C   0  0  0  0  0  0  0  0  0  0  0  0
   60.3741   30.2073   46.2641 H   0  0  0  0  0  0  0  0  0  0  0  0
   58.8870   29.0680   47.3650 C   0  0  0  0  0  0  0  0  0  0  0  0
   58.8910   30.0000   48.5470 C   0  0  0  0  0  0  0  0  0  0  0  0
   58.5237   30.9880   48.2325 H   0  0  0  0  0  0  0  0  0  0  0  0
   58.2375   29.5899   49.3311 H   0  0  0  0  0  0  0  0  0  0  0  0
   60.2850   30.1380   49.0910 C   0  0  0  0  0  0  0  0  0  0  0  0
   60.7640   29.3260   50.0600 N   0  0  0  0  0  0  0  0  0  0  0  0
   61.9540   29.8680   50.3930 C   0  0  0  0  0  0  0  0  0  0  0  0
   62.6461   29.4635   51.1462 H   0  0  0  0  0  0  0  0  0  0  0  0
   62.1700   31.0050   49.6460 C   0  0  0  0  0  0  0  0  0  0  0  0
   63.0465   31.6662   49.7140 H   0  0  0  0  0  0  0  0  0  0  0  0
   61.1230   31.1650   48.8200 N   0  0  0  0  0  0  0  0  0  0  0  0
   60.9240   32.2650   47.9260 C   0  0  0  0  0  0  0  0  0  0  0  0
   59.6700   32.7520   47.7240 N   0  0  0  0  0  0  0  0  0  0  0  0
   59.4410   33.7740   46.8600 C   0  0  0  0  0  0  0  0  0  0  0  0
   58.2250   34.1970   46.6800 N   0  0  0  0  0  0  0  0  0  0  0  0
   57.1660   33.4440   46.0060 C   0  0  0  0  0  0  0  0  0  0  0  0
   56.4823   33.0311   46.7624 H   0  0  0  0  0  0  0  0  0  0  0  0
   56.6300   34.1262   45.3297 H   0  0  0  0  0  0  0  0  0  0  0  0
   57.7470   32.2920   45.1740 C   0  0  1  0  0  0  0  0  0  0  0  0
   58.7273   32.0438   45.6069 H   0  0  0  0  0  0  0  0  0  0  0  0
   56.8770   31.1830   45.2260 O   0  0  0  0  0  0  0  0  0  0  0  0
   56.8170   30.6230   43.9330 C   0  0  0  0  0  0  0  0  0  0  0  0
   55.7875   30.6924   43.5517 H   0  0  0  0  0  0  0  0  0  0  0  0
   57.1234   29.5675   43.9782 H   0  0  0  0  0  0  0  0  0  0  0  0
   57.7500   31.3780   43.0060 C   0  0  0  0  0  0  0  0  0  0  0  0
   57.2858   31.5360   42.0214 H   0  0  0  0  0  0  0  0  0  0  0  0
   58.6888   30.8409   42.8059 H   0  0  0  0  0  0  0  0  0  0  0  0
   57.9560   32.6770   43.7170 C   0  0  0  0  0  0  0  0  0  0  0  0
   57.2194   33.4277   43.3947 H   0  0  0  0  0  0  0  0  0  0  0  0
   58.9374   33.1334   43.5206 H   0  0  0  0  0  0  0  0  0  0  0  0
   60.4860   34.3330   46.1850 N   0  0  0  0  0  0  0  0  0  0  0  0
   61.7550   33.8890   46.3670 C   0  0  0  0  0  0  0  0  0  0  0  0
   62.5858   34.3560   45.8178 H   0  0  0  0  0  0  0  0  0  0  0  0
   62.0050   32.8400   47.2510 C   0  0  0  0  0  0  0  0  0  0  0  0
   63.0292   32.4733   47.4136 H   0  0  0  0  0  0  0  0  0  0  0  0
   58.0890   27.9110   47.3720 C   0  0  0  0  0  0  0  0  0  0  0  0
   57.4105   27.7221   48.2170 H   0  0  0  0  0  0  0  0  0  0  0  0
  1  2  1  0
  2  3  1  0
  2  4  2  0
  4  5  1  0
  4  6  1  0
  6  7  2  0
  6  8  1  0
  8  9  1  0
  9 10  2  0
 10 11  1  0
 10 12  1  0
 12 13  1  0
 12 14  2  0
 14 15  1  0
 14 16  1  0
 16 17  1  0
 17 18  1  0
 17 19  1  0
 17 20  1  0
 20 21  2  0
 21 22  1  0
 22 23  1  0
 22 24  2  0
 24 25  1  0
 24 26  1  0
 26 27  1  0
 27 28  2  0
 28 29  1  0
 29 30  2  0
 30 31  1  0
 31 32  1  0
 31 33  1  0
 31 34  1  0
 34 35  1  1
 34 36  1  0
 36 37  1  0
 37 38  1  0
 37 39  1  0
 37 40  1  0
 40 41  1  0
 40 42  1  0
 40 43  1  0
 43 44  1  0
 43 45  1  0
 29 46  1  0
 46 47  1  0
 47 48  1  0
 47 49  2  0
 49 50  1  0
 16 51  2  0
 51 52  1  0
 51  9  1  0
 26 20  1  0
 49 27  1  0
 43 34  1  0
M  CHG  2   8  -1  46  -1
M  END
>  <UniqueID>  (44) 
41

>  <SMILES>  (44) 
C=CC(=O)[N-]c1cccc(Cc2nccn2-c2cc[n-]/c(=N\C[C@@H]3CCCO3)n2)c1

>  <Energy>  (44) 
85.42791185913387

>  <Genealogy>  (44) 
C=CC(=O)[N-]c1cccc(Cc2nccn2-c2cc[n-]c(=NCC3CCCO3)n2)c1 (protonated)
C=CC(=O)[N-]c1cccc(Cc2nccn2-c2cc[n-]c(=NC[C@@H]3CCCO3)n2)c1 (chirality)
C=CC(=O)[N-]c1cccc(Cc2nccn2-c2cc[n-]/c(=N\C[C@@H]3CCCO3)n2)c1 (cis-trans isomerization)
C=CC(=O)[N-]c1cccc(Cc2nccn2-c2cc[n-]/c(=N\C[C@@H]3CCCO3)n2)c1 (3D coordinates assigned)
C=CC(=O)[N-]c1cccc(Cc2nccn2-c2cc[n-]/c(=N\C[C@@H]3CCCO3)n2)c1 (nonaromatic ring conformer: 85.42791185913387 kcal/mol)

>  <smiles>  (44) 
C=CC(=O)Nc1cccc(Cc2nccn2-c2cc[nH]c(=NCC3CCCO3)n2)c1

>  <score_type>  (44) 
oracle

>  <origin>  (44) 
adg

>  <m_score__min__energy>  (44) 
-11.699999999999999

>  <m_primary>  (44) 
energy

$$$$
44:0
     RDKit          3D

 47 49  0  0  0  0  0  0  0  0999 V2000
   58.9300   31.5640   47.9940 C   0  0  0  0  0  0  0  0  0  0  0  0
   58.5280   32.0750   46.6370 C   0  0  0  0  0  0  0  0  0  0  0  0
   58.6870   33.4350   46.3260 C   0  0  0  0  0  0  0  0  0  0  0  0
   58.3180   33.9210   45.0710 C   0  0  0  0  0  0  0  0  0  0  0  0
   57.7940   33.0540   44.1130 C   0  0  0  0  0  0  0  0  0  0  0  0
   57.6340   31.6980   44.4070 C   0  0  0  0  0  0  0  0  0  0  0  0
   57.9860   31.1970   45.6740 C   0  0  0  0  0  0  0  0  0  0  0  0
   57.8010   29.8130   46.0160 N   0  0  0  0  0  0  0  0  0  0  0  0
   57.0890   28.6020   44.9990 S   0  0  0  0  0  0  0  0  0  0  0  0
   57.6090   28.7550   43.5960 O   0  0  0  0  0  0  0  0  0  0  0  0
   55.6000   28.8000   44.9620 O   0  0  0  0  0  0  0  0  0  0  0  0
   57.4450   26.9940   45.6430 C   0  0  0  0  0  0  0  0  0  0  0  0
   58.7700   26.5330   45.6280 C   0  0  0  0  0  0  0  0  0  0  0  0
   59.0760   25.2430   46.0570 C   0  0  0  0  0  0  0  0  0  0  0  0
   58.0650   24.4010   46.5180 C   0  0  0  0  0  0  0  0  0  0  0  0
   56.7440   24.8560   46.5930 C   0  0  0  0  0  0  0  0  0  0  0  0
   55.7400   23.9530   47.0700 N   0  0  0  0  0  0  0  0  0  0  0  0
   56.0740   22.4490   47.8730 S   0  0  0  0  0  0  0  0  0  0  0  0
   57.3890   22.5060   48.5980 O   0  0  0  0  0  0  0  0  0  0  0  0
   54.9880   22.2000   48.8800 O   0  0  0  0  0  0  0  0  0  0  0  0
   56.0760   21.0930   46.7100 C   0  0  0  0  0  0  0  0  0  0  0  0
   56.2650   21.5810   45.2990 C   0  0  0  0  0  0  0  0  0  0  0  0
   57.3150   21.0820   44.5110 C   0  0  0  0  0  0  0  0  0  0  0  0
   57.4960   21.5450   43.2060 C   0  0  0  0  0  0  0  0  0  0  0  0
   56.6350   22.5100   42.6780 C   0  0  0  0  0  0  0  0  0  0  0  0
   55.5870   23.0110   43.4540 C   0  0  0  0  0  0  0  0  0  0  0  0
   55.3990   22.5460   44.7590 C   0  0  0  0  0  0  0  0  0  0  0  0
   56.4190   26.1450   46.1290 C   0  0  0  0  0  0  0  0  0  0  0  0
   55.0800   26.5430   46.1250 O   0  0  0  0  0  0  0  0  0  0  0  0
   58.4497   32.1746   48.7728 H   0  0  0  0  0  0  0  0  0  0  0  0
   58.6112   30.5166   48.1006 H   0  0  0  0  0  0  0  0  0  0  0  0
   60.0230   31.6273   48.1006 H   0  0  0  0  0  0  0  0  0  0  0  0
   59.1052   34.1219   47.0766 H   0  0  0  0  0  0  0  0  0  0  0  0
   58.4406   34.9889   44.8374 H   0  0  0  0  0  0  0  0  0  0  0  0
   57.5060   33.4388   43.1235 H   0  0  0  0  0  0  0  0  0  0  0  0
   57.2302   31.0172   43.6431 H   0  0  0  0  0  0  0  0  0  0  0  0
   59.5740   27.1954   45.2746 H   0  0  0  0  0  0  0  0  0  0  0  0
   60.1170   24.8884   46.0319 H   0  0  0  0  0  0  0  0  0  0  0  0
   58.3073   23.3728   46.8246 H   0  0  0  0  0  0  0  0  0  0  0  0
   56.8959   20.4049   46.9637 H   0  0  0  0  0  0  0  0  0  0  0  0
   55.1042   20.5815   46.7725 H   0  0  0  0  0  0  0  0  0  0  0  0
   57.9972   20.3239   44.9232 H   0  0  0  0  0  0  0  0  0  0  0  0
   58.3185   21.1489   42.5924 H   0  0  0  0  0  0  0  0  0  0  0  0
   56.7822   22.8755   41.6510 H   0  0  0  0  0  0  0  0  0  0  0  0
   54.9096   23.7715   43.0382 H   0  0  0  0  0  0  0  0  0  0  0  0
   54.5691   22.9376   45.3656 H   0  0  0  0  0  0  0  0  0  0  0  0
   54.7670   27.4650   46.3920 H   0  0  0  0  0  0  0  0  0  0  0  0
  1  2  1  0
  2  3  2  0
  3  4  1  0
  4  5  2  0
  5  6  1  0
  6  7  2  0
  7  8  1  0
  8  9  1  0
  9 10  2  0
  9 11  2  0
  9 12  1  0
 12 13  2  0
 13 14  1  0
 14 15  2  0
 15 16  1  0
 16 17  1  0
 17 18  1  0
 18 19  2  0
 18 20  2  0
 18 21  1  0
 21 22  1  0
 22 23  2  0
 23 24  1  0
 24 25  2  0
 25 26  1  0
 26 27  2  0
 16 28  2  0
 28 29  1  0
  7  2  1  0
 28 12  1  0
 27 22  1  0
  1 30  1  0
  1 31  1  0
  1 32  1  0
  3 33  1  0
  4 34  1  0
  5 35  1  0
  6 36  1  0
 13 37  1  0
 14 38  1  0
 15 39  1  0
 21 40  1  0
 21 41  1  0
 23 42  1  0
 24 43  1  0
 25 44  1  0
 26 45  1  0
 27 46  1  0
 29 47  1  0
M  CHG  2   8  -1  17  -1
M  END
>  <UniqueID>  (45) 
42

>  <SMILES>  (45) 
Cc1ccccc1[N-]S(=O)(=O)c1cccc([N-]S(=O)(=O)Cc2ccccc2)c1O

>  <Energy>  (45) 
54.01581221508929

>  <Genealogy>  (45) 
Cc1ccccc1[N-]S(=O)(=O)c1cccc([N-]S(=O)(=O)Cc2ccccc2)c1O (protonated)
Cc1ccccc1[N-]S(=O)(=O)c1cccc([N-]S(=O)(=O)Cc2ccccc2)c1O (3D coordinates assigned)
Cc1ccccc1[N-]S(=O)(=O)c1cccc([N-]S(=O)(=O)Cc2ccccc2)c1O (optimized conformer: 54.01581221508929 kcal/mol)

>  <smiles>  (45) 
Cc1ccccc1NS(=O)(=O)c1cccc(NS(=O)(=O)Cc2ccccc2)c1O

>  <score_type>  (45) 
oracle

>  <origin>  (45) 
adg

>  <m_score__min__energy>  (45) 
-13.800000000000001

>  <m_primary>  (45) 
energy

$$$$
45:0
     RDKit          3D

 55 57  0  0  0  0  0  0  0  0999 V2000
   60.6240   27.6620   49.1360 C   0  0  0  0  0  0  0  0  0  0  0  0
   59.3550   28.2470   48.8640 O   0  0  0  0  0  0  0  0  0  0  0  0
   59.0140   29.5860   49.1170 C   0  0  0  0  0  0  0  0  0  0  0  0
   58.5210   29.9790   50.3780 C   0  0  0  0  0  0  0  0  0  0  0  0
   58.1820   31.3060   50.6290 C   0  0  0  0  0  0  0  0  0  0  0  0
   58.3180   32.2640   49.6270 C   0  0  0  0  0  0  0  0  0  0  0  0
   58.7940   31.8980   48.3630 C   0  0  0  0  0  0  0  0  0  0  0  0
   58.9390   32.9360   47.3210 C   0  0  0  0  0  0  0  0  0  0  0  0
   59.7180   34.0740   47.5760 C   0  0  0  0  0  0  0  0  0  0  0  0
   59.8190   35.0870   46.6200 C   0  0  0  0  0  0  0  0  0  0  0  0
   59.1390   34.9730   45.4070 C   0  0  0  0  0  0  0  0  0  0  0  0
   59.2410   35.9570   44.4790 F   0  0  0  0  0  0  0  0  0  0  0  0
   58.3520   33.8470   45.1460 C   0  0  0  0  0  0  0  0  0  0  0  0
   58.2440   32.8200   46.1030 C   0  0  0  0  0  0  0  0  0  0  0  0
   57.4520   31.6840   45.8800 O   0  0  0  0  0  0  0  0  0  0  0  0
   57.1460   31.1480   44.5930 C   0  0  0  0  0  0  0  0  0  0  0  0
   57.5610   29.6790   44.5260 C   0  0  0  0  0  0  0  0  0  0  0  0
   57.3550   29.0390   45.8320 N   0  0  0  0  0  0  0  0  0  0  0  0
   58.2290   27.8660   46.0050 C   0  0  0  0  0  0  0  0  0  0  0  0
   57.5380   26.8040   46.8690 C   0  0  0  0  0  0  0  0  0  0  0  0
   57.0020   25.6610   46.0420 C   0  0  0  0  0  0  0  0  0  0  0  0
   57.8480   24.5910   45.7000 C   0  0  0  0  0  0  0  0  0  0  0  0
   57.3530   23.4970   44.9880 C   0  0  0  0  0  0  0  0  0  0  0  0
   56.0110   23.4620   44.6020 C   0  0  0  0  0  0  0  0  0  0  0  0
   55.1600   24.5170   44.9380 C   0  0  0  0  0  0  0  0  0  0  0  0
   55.6450   25.6100   45.6640 C   0  0  0  0  0  0  0  0  0  0  0  0
   54.7740   26.6380   46.0120 O   0  0  0  0  0  0  0  0  0  0  0  0
   59.1620   30.5630   48.0970 C   0  0  0  0  0  0  0  0  0  0  0  0
   59.6730   30.2780   46.8150 O   0  0  0  0  0  0  0  0  0  0  0  0
   61.0410   30.0980   46.4640 C   0  0  0  0  0  0  0  0  0  0  0  0
   60.7709   27.5943   50.2240 H   0  0  0  0  0  0  0  0  0  0  0  0
   60.6648   26.6542   48.6971 H   0  0  0  0  0  0  0  0  0  0  0  0
   61.4168   28.2855   48.6971 H   0  0  0  0  0  0  0  0  0  0  0  0
   58.4027   29.2282   51.1732 H   0  0  0  0  0  0  0  0  0  0  0  0
   57.8060   31.5984   51.6206 H   0  0  0  0  0  0  0  0  0  0  0  0
   58.0504   33.3115   49.8299 H   0  0  0  0  0  0  0  0  0  0  0  0
   60.2517   34.1691   48.5331 H   0  0  0  0  0  0  0  0  0  0  0  0
   60.4350   35.9753   46.8234 H   0  0  0  0  0  0  0  0  0  0  0  0
   57.8153   33.7633   44.1895 H   0  0  0  0  0  0  0  0  0  0  0  0
   56.0640   31.2294   44.4125 H   0  0  0  0  0  0  0  0  0  0  0  0
   57.6959   31.7137   43.8264 H   0  0  0  0  0  0  0  0  0  0  0  0
   56.9538   29.1631   43.7676 H   0  0  0  0  0  0  0  0  0  0  0  0
   58.6258   29.6164   44.2570 H   0  0  0  0  0  0  0  0  0  0  0  0
   57.5900   29.7430   46.5710 H   0  0  0  0  0  0  0  0  0  0  0  0
   58.4584   27.4369   45.0185 H   0  0  0  0  0  0  0  0  0  0  0  0
   59.1558   28.1836   46.5052 H   0  0  0  0  0  0  0  0  0  0  0  0
   58.2651   26.4076   47.5931 H   0  0  0  0  0  0  0  0  0  0  0  0
   56.6880   27.2818   47.3782 H   0  0  0  0  0  0  0  0  0  0  0  0
   58.9072   24.6162   45.9956 H   0  0  0  0  0  0  0  0  0  0  0  0
   58.0206   22.6615   44.7306 H   0  0  0  0  0  0  0  0  0  0  0  0
   55.6245   22.6034   44.0333 H   0  0  0  0  0  0  0  0  0  0  0  0
   54.1042   24.4885   44.6306 H   0  0  0  0  0  0  0  0  0  0  0  0
   61.6468   30.0183   47.3787 H   0  0  0  0  0  0  0  0  0  0  0  0
   61.1494   29.1778   45.8711 H   0  0  0  0  0  0  0  0  0  0  0  0
   61.3837   30.9588   45.8711 H   0  0  0  0  0  0  0  0  0  0  0  0
  1  2  1  0
  2  3  1  0
  3  4  2  0
  4  5  1  0
  5  6  2  0
  6  7  1  0
  7  8  1  0
  8  9  2  0
  9 10  1  0
 10 11  2  0
 11 12  1  0
 11 13  1  0
 13 14  2  0
 14 15  1  0
 15 16  1  0
 16 17  1  0
 17 18  1  0
 18 19  1  0
 19 20  1  0
 20 21  1  0
 21 22  2  0
 22 23  1  0
 23 24  2  0
 24 25  1  0
 25 26  2  0
 26 27  1  0
  7 28  2  0
 28 29  1  0
 29 30  1  0
 28  3  1  0
 14  8  1  0
 26 21  1  0
  1 31  1  0
  1 32  1  0
  1 33  1  0
  4 34  1  0
  5 35  1  0
  6 36  1  0
  9 37  1  0
 10 38  1  0
 13 39  1  0
 16 40  1  0
 16 41  1  0
 17 42  1  0
 17 43  1  0
 18 44  1  0
 19 45  1  0
 19 46  1  0
 20 47  1  0
 20 48  1  0
 22 49  1  0
 23 50  1  0
 24 51  1  0
 25 52  1  0
 30 53  1  0
 30 54  1  0
 30 55  1  0
M  CHG  1  27  -1
M  END
>  <UniqueID>  (46) 
43

>  <SMILES>  (46) 
COc1cccc(-c2ccc(F)cc2OCCNCCc2ccccc2[O-])c1OC

>  <Energy>  (46) 
59.78091523623604

>  <Genealogy>  (46) 
COc1cccc(-c2ccc(F)cc2OCCNCCc2ccccc2[O-])c1OC (protonated)
COc1cccc(-c2ccc(F)cc2OCCNCCc2ccccc2[O-])c1OC (3D coordinates assigned)
COc1cccc(-c2ccc(F)cc2OCCNCCc2ccccc2[O-])c1OC (optimized conformer: 59.78091523623604 kcal/mol)

>  <smiles>  (46) 
COc1cccc(-c2ccc(F)cc2OCCNCCc2ccccc2O)c1OC

>  <score_type>  (46) 
oracle

>  <origin>  (46) 
adg

>  <m_score__min__energy>  (46) 
-12.199999999999999

>  <m_primary>  (46) 
energy

$$$$
46:0
     RDKit          3D

 61 63  0  0  0  0  0  0  0  0999 V2000
   58.7870   31.6750   45.4690 C   0  0  0  0  0  0  0  0  0  0  0  0
   58.9730   30.1830   45.3140 C   0  0  0  0  0  0  0  0  0  0  0  0
   60.1380   29.5550   45.8180 C   0  0  0  0  0  0  0  0  0  0  0  0
   61.1650   30.3010   46.4880 N   0  0  0  0  0  0  0  0  0  0  0  0
   61.2410   30.6170   47.7580 C   0  0  0  0  0  0  0  0  0  0  0  0
   61.6010   31.9390   48.1010 C   0  0  0  0  0  0  0  0  0  0  0  0
   61.9060   32.9680   47.0400 C   0  0  0  0  0  0  0  0  0  0  0  0
   61.6050   32.3130   49.4500 C   0  0  0  0  0  0  0  0  0  0  0  0
   61.9580   33.6160   49.8220 O   0  0  0  0  0  0  0  0  0  0  0  0
   63.2380   34.1920   49.5690 C   0  0  0  0  0  0  0  0  0  0  0  0
   64.2560   33.0840   49.2670 C   0  0  0  0  0  0  0  0  0  0  0  0
   65.0630   32.6320   50.5120 C   0  0  2  0  0  0  0  0  0  0  0  0
   64.6750   31.1940   50.9580 C   0  0  0  0  0  0  0  0  0  0  0  0
   63.8630   31.1530   52.2660 C   0  0  0  0  0  0  0  0  0  0  0  0
   62.8990   32.2700   52.3250 N   0  0  1  0  0  0  0  0  0  0  0  0
   62.0120   32.1150   53.4920 C   0  0  0  0  0  0  0  0  0  0  0  0
   63.5690   33.5990   52.3580 C   0  0  0  0  0  0  0  0  0  0  0  0
   64.9610   33.6110   51.6940 C   0  0  0  0  0  0  0  0  0  0  0  0
   61.2950   31.3930   50.3980 N   0  0  0  0  0  0  0  0  0  0  0  0
   61.0060   30.1240   50.1030 N   0  0  0  0  0  0  0  0  0  0  0  0
   60.7390   29.1930   51.2030 C   0  0  0  0  0  0  0  0  0  0  0  0
   60.9790   29.6960   48.8030 C   0  0  0  0  0  0  0  0  0  0  0  0
   60.7370   28.4840   48.5570 O   0  0  0  0  0  0  0  0  0  0  0  0
   60.3430   28.1880   45.6080 C   0  0  0  0  0  0  0  0  0  0  0  0
   59.3750   27.4170   44.9680 C   0  0  0  0  0  0  0  0  0  0  0  0
   58.1930   28.0060   44.5290 C   0  0  0  0  0  0  0  0  0  0  0  0
   57.9710   29.3830   44.7010 C   0  0  0  0  0  0  0  0  0  0  0  0
   56.4280   30.0590   44.1540 S   0  0  0  0  0  0  0  0  0  0  0  0
   55.1410   28.9720   44.5450 N   0  0  0  0  0  0  0  0  0  0  0  0
   56.1880   31.3890   44.8130 O   0  0  0  0  0  0  0  0  0  0  0  0
   56.4450   30.2550   42.6640 O   0  0  0  0  0  0  0  0  0  0  0  0
   58.7550   31.9314   46.5382 H   0  0  0  0  0  0  0  0  0  0  0  0
   59.6265   32.2008   44.9908 H   0  0  0  0  0  0  0  0  0  0  0  0
   57.8441   31.9786   44.9908 H   0  0  0  0  0  0  0  0  0  0  0  0
   62.1873   33.9171   47.5198 H   0  0  0  0  0  0  0  0  0  0  0  0
   62.7376   32.6132   46.4135 H   0  0  0  0  0  0  0  0  0  0  0  0
   61.0154   33.1237   46.4135 H   0  0  0  0  0  0  0  0  0  0  0  0
   63.1692   34.8700   48.7055 H   0  0  0  0  0  0  0  0  0  0  0  0
   63.5652   34.7540   50.4562 H   0  0  0  0  0  0  0  0  0  0  0  0
   63.7153   32.2135   48.8672 H   0  0  0  0  0  0  0  0  0  0  0  0
   64.9769   33.4940   48.5444 H   0  0  0  0  0  0  0  0  0  0  0  0
   66.1160   32.6282   50.1939 H   0  0  0  0  0  0  0  0  0  0  0  0
   64.0737   30.7328   50.1606 H   0  0  0  0  0  0  0  0  0  0  0  0
   65.6126   30.6492   51.1427 H   0  0  0  0  0  0  0  0  0  0  0  0
   63.3144   30.2011   52.3193 H   0  0  0  0  0  0  0  0  0  0  0  0
   64.5583   31.2447   53.1134 H   0  0  0  0  0  0  0  0  0  0  0  0
   62.2910   32.2170   51.4740 H   0  0  0  0  0  0  0  0  0  0  0  0
   62.6002   32.2178   54.4158 H   0  0  0  0  0  0  0  0  0  0  0  0
   61.2323   32.8905   53.4655 H   0  0  0  0  0  0  0  0  0  0  0  0
   61.5415   31.1210   53.4655 H   0  0  0  0  0  0  0  0  0  0  0  0
   62.9284   34.3234   51.8337 H   0  0  0  0  0  0  0  0  0  0  0  0
   63.7170   33.8570   53.4170 H   0  0  0  0  0  0  0  0  0  0  0  0
   65.1676   34.6275   51.3279 H   0  0  0  0  0  0  0  0  0  0  0  0
   65.6933   33.2949   52.4515 H   0  0  0  0  0  0  0  0  0  0  0  0
   60.8868   29.7083   52.1635 H   0  0  0  0  0  0  0  0  0  0  0  0
   59.7016   28.8336   51.1355 H   0  0  0  0  0  0  0  0  0  0  0  0
   61.4283   28.3384   51.1355 H   0  0  0  0  0  0  0  0  0  0  0  0
   61.2762   27.7174   45.9509 H   0  0  0  0  0  0  0  0  0  0  0  0
   59.5451   26.3418   44.8096 H   0  0  0  0  0  0  0  0  0  0  0  0
   57.4246   27.3874   44.0424 H   0  0  0  0  0  0  0  0  0  0  0  0
   54.6530   29.3660   45.3790 H   0  0  0  0  0  0  0  0  0  0  0  0
  1  2  1  0
  2  3  2  0
  3  4  1  0
  4  5  2  3
  5  6  1  0
  6  7  1  0
  6  8  2  0
  8  9  1  0
  9 10  1  0
 10 11  1  0
 11 12  1  0
 12 13  1  0
 13 14  1  0
 14 15  1  0
 15 16  1  0
 15 17  1  0
 17 18  1  0
  8 19  1  0
 19 20  1  0
 20 21  1  0
 20 22  1  0
 22 23  2  0
  3 24  1  0
 24 25  2  0
 25 26  1  0
 26 27  2  0
 27 28  1  0
 28 29  1  0
 28 30  2  0
 28 31  2  0
 27  2  1  0
 22  5  1  0
 18 12  1  0
  1 32  1  0
  1 33  1  0
  1 34  1  0
  7 35  1  0
  7 36  1  0
  7 37  1  0
 10 38  1  0
 10 39  1  0
 11 40  1  0
 11 41  1  0
 12 42  1  6
 13 43  1  0
 13 44  1  0
 14 45  1  0
 14 46  1  0
 15 47  1  6
 16 48  1  0
 16 49  1  0
 16 50  1  0
 17 51  1  0
 17 52  1  0
 18 53  1  0
 18 54  1  0
 21 55  1  0
 21 56  1  0
 21 57  1  0
 24 58  1  0
 25 59  1  0
 26 60  1  0
 29 61  1  0
M  CHG  3  15   1  19  -1  29  -1
M  END
>  <UniqueID>  (47) 
44

>  <SMILES>  (47) 
Cc1c(N=c2c(C)c(OCCC3CC[NH+](C)CC3)[n-]n(C)c2=O)cccc1S([NH-])(=O)=O

>  <Energy>  (47) 
84.93366988639472

>  <Genealogy>  (47) 
Cc1c(N=c2c(C)c(OCCC3CC[NH+](C)CC3)[n-]n(C)c2=O)cccc1S([NH-])(=O)=O (protonated)
Cc1c(N=c2c(C)c(OCCC3CC[NH+](C)CC3)[n-]n(C)c2=O)cccc1S([NH-])(=O)=O (3D coordinates assigned)
Cc1c(N=c2c(C)c(OCCC3CC[NH+](C)CC3)[n-]n(C)c2=O)cccc1S([NH-])(=O)=O (nonaromatic ring conformer: 84.93366988639472 kcal/mol)

>  <smiles>  (47) 
Cc1c(N=c2c(C)c(OCCC3CCN(C)CC3)[nH]n(C)c2=O)cccc1S(N)(=O)=O

>  <score_type>  (47) 
oracle

>  <origin>  (47) 
adg

>  <m_score__min__energy>  (47) 
-10.73

>  <m_primary>  (47) 
energy

$$$$
47:0
     RDKit          3D

 55 58  0  0  0  0  0  0  0  0999 V2000
   61.2700   32.7290   49.7160 O   0  0  0  0  0  0  0  0  0  0  0  0
   60.0260   32.9170   49.6310 C   0  0  0  0  0  0  0  0  0  0  0  0
   59.3130   33.6710   50.7090 C   0  0  0  0  0  0  0  0  0  0  0  0
   58.4370   32.7390   51.5000 C   0  0  0  0  0  0  0  0  0  0  0  0
   57.4920   31.9340   50.8440 C   0  0  0  0  0  0  0  0  0  0  0  0
   56.7010   31.0380   51.5730 C   0  0  0  0  0  0  0  0  0  0  0  0
   56.8440   30.9280   52.9650 C   0  0  0  0  0  0  0  0  0  0  0  0
   56.0130   29.9930   53.6830 N   0  0  0  0  0  0  0  0  0  0  0  0
   54.7560   30.3440   54.3460 C   0  0  0  0  0  0  0  0  0  0  0  0
   53.5880   30.1250   53.4210 C   0  0  0  0  0  0  0  0  0  0  0  0
   53.1200   28.8230   53.1800 C   0  0  0  0  0  0  0  0  0  0  0  0
   52.0300   28.6120   52.3330 C   0  0  0  0  0  0  0  0  0  0  0  0
   51.3930   29.6970   51.7260 C   0  0  0  0  0  0  0  0  0  0  0  0
   51.8370   31.0100   51.9650 C   0  0  0  0  0  0  0  0  0  0  0  0
   51.1580   32.1640   51.3330 C   0  0  0  0  0  0  0  0  0  0  0  0
   50.6790   33.0920   52.0400 O   0  0  0  0  0  0  0  0  0  0  0  0
   51.0380   32.2420   49.9490 O   0  0  0  0  0  0  0  0  0  0  0  0
   52.9360   31.2150   52.8200 C   0  0  0  0  0  0  0  0  0  0  0  0
   57.8050   31.7250   53.6170 C   0  0  0  0  0  0  0  0  0  0  0  0
   58.5960   32.6190   52.8880 C   0  0  0  0  0  0  0  0  0  0  0  0
   59.2870   32.3920   48.5250 N   0  0  0  0  0  0  0  0  0  0  0  0
   58.7490   33.2180   47.4460 C   0  0  1  0  0  0  0  0  0  0  0  0
   59.7910   34.2870   47.0470 C   0  0  0  0  0  0  0  0  0  0  0  0
   59.4820   35.0260   45.7180 C   0  0  0  0  0  0  0  0  0  0  0  0
   58.2040   34.5530   45.0050 C   0  0  0  0  0  0  0  0  0  0  0  0
   58.0990   33.0530   45.0350 C   0  0  0  0  0  0  0  0  0  0  0  0
   57.6880   32.3320   43.9040 C   0  0  0  0  0  0  0  0  0  0  0  0
   57.5610   30.9430   43.9670 C   0  0  0  0  0  0  0  0  0  0  0  0
   57.8280   30.2680   45.1600 C   0  0  0  0  0  0  0  0  0  0  0  0
   58.2180   30.9810   46.2990 C   0  0  0  0  0  0  0  0  0  0  0  0
   58.3730   32.3810   46.2410 C   0  0  0  0  0  0  0  0  0  0  0  0
   60.0524   34.1324   51.3801 H   0  0  0  0  0  0  0  0  0  0  0  0
   58.6868   34.4498   50.2493 H   0  0  0  0  0  0  0  0  0  0  0  0
   57.3727   32.0076   49.7530 H   0  0  0  0  0  0  0  0  0  0  0  0
   55.9607   30.4146   51.0502 H   0  0  0  0  0  0  0  0  0  0  0  0
   56.2860   28.9840   53.6870 H   0  0  0  0  0  0  0  0  0  0  0  0
   54.6315   29.7155   55.2402 H   0  0  0  0  0  0  0  0  0  0  0  0
   54.7895   31.4066   54.6285 H   0  0  0  0  0  0  0  0  0  0  0  0
   53.6142   27.9657   53.6605 H   0  0  0  0  0  0  0  0  0  0  0  0
   51.6722   27.5892   52.1434 H   0  0  0  0  0  0  0  0  0  0  0  0
   50.5379   29.5232   51.0562 H   0  0  0  0  0  0  0  0  0  0  0  0
   53.2878   32.2379   53.0196 H   0  0  0  0  0  0  0  0  0  0  0  0
   57.9343   31.6439   54.7064 H   0  0  0  0  0  0  0  0  0  0  0  0
   59.3477   33.2319   53.4069 H   0  0  0  0  0  0  0  0  0  0  0  0
   57.8341   33.7087   47.8095 H   0  0  0  0  0  0  0  0  0  0  0  0
   59.8406   35.0350   47.8520 H   0  0  0  0  0  0  0  0  0  0  0  0
   60.7411   33.7543   46.8938 H   0  0  0  0  0  0  0  0  0  0  0  0
   59.3751   36.0984   45.9385 H   0  0  0  0  0  0  0  0  0  0  0  0
   60.3181   34.8069   45.0376 H   0  0  0  0  0  0  0  0  0  0  0  0
   57.3280   34.9859   45.5103 H   0  0  0  0  0  0  0  0  0  0  0  0
   58.2431   34.8825   43.9563 H   0  0  0  0  0  0  0  0  0  0  0  0
   57.4654   32.8618   42.9660 H   0  0  0  0  0  0  0  0  0  0  0  0
   57.2500   30.3792   43.0751 H   0  0  0  0  0  0  0  0  0  0  0  0
   57.7315   29.1731   45.2044 H   0  0  0  0  0  0  0  0  0  0  0  0
   58.4043   30.4474   47.2427 H   0  0  0  0  0  0  0  0  0  0  0  0
  1  2  2  0
  2  3  1  0
  3  4  1  0
  4  5  2  0
  5  6  1  0
  6  7  2  0
  7  8  1  0
  8  9  1  0
  9 10  1  0
 10 11  2  0
 11 12  1  0
 12 13  2  0
 13 14  1  0
 14 15  1  0
 15 16  2  0
 15 17  1  0
 14 18  2  0
  7 19  1  0
 19 20  2  0
  2 21  1  0
 21 22  1  0
 22 23  1  0
 23 24  1  0
 24 25  1  0
 25 26  1  0
 26 27  2  0
 27 28  1  0
 28 29  2  0
 29 30  1  0
 30 31  2  0
 20  4  1  0
 31 22  1  0
 18 10  1  0
 31 26  1  0
  3 32  1  0
  3 33  1  0
  5 34  1  0
  6 35  1  0
  8 36  1  0
  9 37  1  0
  9 38  1  0
 11 39  1  0
 12 40  1  0
 13 41  1  0
 18 42  1  0
 19 43  1  0
 20 44  1  0
 22 45  1  1
 23 46  1  0
 23 47  1  0
 24 48  1  0
 24 49  1  0
 25 50  1  0
 25 51  1  0
 27 52  1  0
 28 53  1  0
 29 54  1  0
 30 55  1  0
M  CHG  2  17  -1  21  -1
M  END
>  <UniqueID>  (48) 
45

>  <SMILES>  (48) 
O=C(Cc1ccc(NCc2cccc(C(=O)[O-])c2)cc1)[N-][C@H]1CCCc2ccccc21

>  <Energy>  (48) 
61.44257921806506

>  <Genealogy>  (48) 
O=C(Cc1ccc(NCc2cccc(C(=O)[O-])c2)cc1)[N-]C1CCCc2ccccc21 (protonated)
O=C(Cc1ccc(NCc2cccc(C(=O)[O-])c2)cc1)[N-][C@H]1CCCc2ccccc21 (chirality)
O=C(Cc1ccc(NCc2cccc(C(=O)[O-])c2)cc1)[N-][C@H]1CCCc2ccccc21 (3D coordinates assigned)
O=C(Cc1ccc(NCc2cccc(C(=O)[O-])c2)cc1)[N-][C@H]1CCCc2ccccc21 (nonaromatic ring conformer: 61.44257921806506 kcal/mol)

>  <smiles>  (48) 
O=C(Cc1ccc(NCc2cccc(C(=O)O)c2)cc1)NC1CCCc2ccccc21

>  <score_type>  (48) 
oracle

>  <origin>  (48) 
adg

>  <m_score__min__energy>  (48) 
-14.25

>  <m_primary>  (48) 
energy

$$$$
48:0
     RDKit          3D

 25 26  0  0  0  0  0  0  0  0999 V2000
   55.5240   28.9630   45.1000 N   0  0  0  0  0  0  0  0  0  0  0  0
   56.6880   29.8710   44.2020 S   0  0  0  0  0  0  0  0  0  0  0  0
   56.1690   30.0910   42.8090 O   0  0  0  0  0  0  0  0  0  0  0  0
   56.9140   31.2040   44.8560 O   0  0  0  0  0  0  0  0  0  0  0  0
   58.1840   28.9950   44.1190 N   0  0  0  0  0  0  0  0  0  0  0  0
   58.3640   27.6570   44.6170 C   0  0  0  0  0  0  0  0  0  0  0  0
   59.2740   27.3620   45.6510 C   0  0  0  0  0  0  0  0  0  0  0  0
   59.4250   26.0510   46.1120 C   0  0  0  0  0  0  0  0  0  0  0  0
   58.6740   25.0180   45.5480 C   0  0  0  0  0  0  0  0  0  0  0  0
   58.8210   23.7440   45.9980 N   0  0  0  0  0  0  0  0  0  0  0  0
   58.1120   22.7070   45.4790 C   0  0  0  0  0  0  0  0  0  0  0  0
   58.3000   21.5510   45.9440 O   0  0  0  0  0  0  0  0  0  0  0  0
   57.1820   22.9310   44.4380 C   0  0  0  0  0  0  0  0  0  0  0  0
   56.3820   21.8310   43.8380 C   0  0  0  0  0  0  0  0  0  0  0  0
   55.8400   20.9540   44.5610 O   0  0  0  0  0  0  0  0  0  0  0  0
   56.2200   21.7540   42.4590 O   0  0  0  0  0  0  0  0  0  0  0  0
   57.0190   24.2440   43.9630 C   0  0  0  0  0  0  0  0  0  0  0  0
   57.7610   25.2960   44.5130 C   0  0  0  0  0  0  0  0  0  0  0  0
   57.6110   26.6120   44.0530 C   0  0  0  0  0  0  0  0  0  0  0  0
   54.5860   29.3680   44.8780 H   0  0  0  0  0  0  0  0  0  0  0  0
   58.9880   29.4780   43.6590 H   0  0  0  0  0  0  0  0  0  0  0  0
   59.8707   28.1700   46.0994 H   0  0  0  0  0  0  0  0  0  0  0  0
   60.1374   25.8327   46.9212 H   0  0  0  0  0  0  0  0  0  0  0  0
   56.3029   24.4464   43.1529 H   0  0  0  0  0  0  0  0  0  0  0  0
   56.8980   26.8288   43.2439 H   0  0  0  0  0  0  0  0  0  0  0  0
  1  2  1  0
  2  3  2  0
  2  4  2  0
  2  5  1  0
  5  6  1  0
  6  7  2  0
  7  8  1  0
  8  9  2  0
  9 10  1  0
 10 11  1  0
 11 12  2  0
 11 13  1  0
 13 14  1  0
 14 15  2  0
 14 16  1  0
 13 17  2  0
 17 18  1  0
 18 19  2  0
 19  6  1  0
 18  9  1  0
  1 20  1  0
  5 21  1  0
  7 22  1  0
  8 23  1  0
 17 24  1  0
 19 25  1  0
M  CHG  3   1  -1  10  -1  16  -1
M  END
>  <UniqueID>  (49) 
46

>  <SMILES>  (49) 
[NH-]S(=O)(=O)Nc1ccc2[n-]c(=O)c(C(=O)[O-])cc2c1

>  <Energy>  (49) 
32.272048479752925

>  <Genealogy>  (49) 
[NH-]S(=O)(=O)Nc1ccc2[n-]c(=O)c(C(=O)[O-])cc2c1 (protonated)
[NH-]S(=O)(=O)Nc1ccc2[n-]c(=O)c(C(=O)[O-])cc2c1 (3D coordinates assigned)
[NH-]S(=O)(=O)Nc1ccc2[n-]c(=O)c(C(=O)[O-])cc2c1 (optimized conformer: 32.272048479752925 kcal/mol)

>  <smiles>  (49) 
NS(=O)(=O)Nc1ccc2[nH]c(=O)c(C(=O)O)cc2c1

>  <score_type>  (49) 
oracle

>  <origin>  (49) 
adg

>  <m_score__min__energy>  (49) 
-12.49

>  <m_primary>  (49) 
energy

$$$$
49:0
     RDKit          3D

 30 32  0  0  0  0  0  0  0  0999 V2000
   56.6620   19.3140   45.4090 O   0  0  0  0  0  0  0  0  0  0  0  0
   56.1730   20.4700   45.4980 C   0  0  0  0  0  0  0  0  0  0  0  0
   57.0110   21.5810   45.5600 C   0  0  0  0  0  0  0  0  0  0  0  0
   56.4520   22.8610   45.6600 C   0  0  0  0  0  0  0  0  0  0  0  0
   57.2880   23.9860   45.7220 C   0  0  0  0  0  0  0  0  0  0  0  0
   56.7480   25.2770   45.8160 C   0  0  0  0  0  0  0  0  0  0  0  0
   57.6530   26.4510   45.8710 C   0  0  0  0  0  0  0  0  0  0  0  0
   58.8730   26.3780   46.5620 C   0  0  0  0  0  0  0  0  0  0  0  0
   59.7160   27.4890   46.6220 C   0  0  0  0  0  0  0  0  0  0  0  0
   59.3520   28.6820   45.9960 C   0  0  0  0  0  0  0  0  0  0  0  0
   58.1340   28.7810   45.3030 C   0  0  0  0  0  0  0  0  0  0  0  0
   57.7600   30.0140   44.6600 N   0  0  0  0  0  0  0  0  0  0  0  0
   56.6280   30.5100   44.8400 O   0  0  0  0  0  0  0  0  0  0  0  0
   58.6460   30.6690   43.8350 O   0  0  0  0  0  0  0  0  0  0  0  0
   57.2870   27.6580   45.2490 C   0  0  0  0  0  0  0  0  0  0  0  0
   55.3500   25.4330   45.8650 C   0  0  0  0  0  0  0  0  0  0  0  0
   54.7820   26.6960   45.9990 O   0  0  0  0  0  0  0  0  0  0  0  0
   54.5090   24.3170   45.8000 C   0  0  0  0  0  0  0  0  0  0  0  0
   55.0430   23.0170   45.6960 C   0  0  0  0  0  0  0  0  0  0  0  0
   54.2340   21.8520   45.6280 C   0  0  0  0  0  0  0  0  0  0  0  0
   52.8380   21.8910   45.6520 O   0  0  0  0  0  0  0  0  0  0  0  0
   54.8260   20.6320   45.5330 N   0  0  0  0  0  0  0  0  0  0  0  0
   58.1032   21.4538   45.5306 H   0  0  0  0  0  0  0  0  0  0  0  0
   58.3798   23.8540   45.6966 H   0  0  0  0  0  0  0  0  0  0  0  0
   59.1659   25.4411   47.0584 H   0  0  0  0  0  0  0  0  0  0  0  0
   60.6706   27.4239   47.1646 H   0  0  0  0  0  0  0  0  0  0  0  0
   60.0240   29.5515   46.0456 H   0  0  0  0  0  0  0  0  0  0  0  0
   56.3281   27.7253   44.7143 H   0  0  0  0  0  0  0  0  0  0  0  0
   53.4182   24.4558   45.8304 H   0  0  0  0  0  0  0  0  0  0  0  0
   52.2430   21.6550   44.8720 H   0  0  0  0  0  0  0  0  0  0  0  0
  1  2  2  0
  2  3  1  0
  3  4  2  0
  4  5  1  0
  5  6  2  0
  6  7  1  0
  7  8  2  0
  8  9  1  0
  9 10  2  0
 10 11  1  0
 11 12  1  0
 12 13  2  0
 12 14  1  0
 11 15  2  0
  6 16  1  0
 16 17  1  0
 16 18  2  0
 18 19  1  0
 19 20  2  0
 20 21  1  0
 20 22  1  0
 22  2  1  0
 19  4  1  0
 15  7  1  0
  3 23  1  0
  5 24  1  0
  8 25  1  0
  9 26  1  0
 10 27  1  0
 15 28  1  0
 18 29  1  0
 21 30  1  0
M  CHG  4  12   1  14  -1  17  -1  22  -1
M  END
>  <UniqueID>  (50) 
47

>  <SMILES>  (50) 
O=c1cc2cc(-c3cccc([N+](=O)[O-])c3)c([O-])cc2c(O)[n-]1

>  <Energy>  (50) 
48.037302388446285

>  <Genealogy>  (50) 
O=c1cc2cc(-c3cccc([N+](=O)[O-])c3)c([O-])cc2c(O)[n-]1 (protonated)
O=c1cc2cc(-c3cccc([N+](=O)[O-])c3)c([O-])cc2c(O)[n-]1 (3D coordinates assigned)
O=c1cc2cc(-c3cccc([N+](=O)[O-])c3)c([O-])cc2c(O)[n-]1 (optimized conformer: 48.037302388446285 kcal/mol)

>  <smiles>  (50) 
O=c1cc2cc(-c3cccc([N+](=O)[O-])c3)c(O)cc2c(O)[nH]1

>  <score_type>  (50) 
oracle

>  <origin>  (50) 
adg

>  <m_score__min__energy>  (50) 
-11.949999999999999

>  <m_primary>  (50) 
energy

$$$$
50:0
     RDKit          3D

 47 49  0  0  0  0  0  0  0  0999 V2000
   58.3560   29.0890   45.3300 C   0  0  0  0  0  0  0  0  0  0  0  0
   57.5850   30.1140   45.9480 O   0  0  0  0  0  0  0  0  0  0  0  0
   57.4500   31.3950   45.4010 C   0  0  0  0  0  0  0  0  0  0  0  0
   56.6140   31.6060   44.4790 O   0  0  0  0  0  0  0  0  0  0  0  0
   58.2730   32.5030   45.9330 C   0  0  0  0  0  0  0  0  0  0  0  0
   58.1570   33.7750   45.3420 C   0  0  0  0  0  0  0  0  0  0  0  0
   58.9490   34.8410   45.7770 C   0  0  0  0  0  0  0  0  0  0  0  0
   59.8560   34.6570   46.8190 C   0  0  0  0  0  0  0  0  0  0  0  0
   59.9750   33.4080   47.4320 C   0  0  0  0  0  0  0  0  0  0  0  0
   59.1940   32.3180   46.9970 C   0  0  0  0  0  0  0  0  0  0  0  0
   59.2560   31.0710   47.7100 N   0  0  0  0  0  0  0  0  0  0  0  0
   60.4920   30.4350   48.0770 C   0  0  0  0  0  0  0  0  0  0  0  0
   61.5870   30.8340   47.5930 O   0  0  0  0  0  0  0  0  0  0  0  0
   60.4820   29.2460   48.9860 C   0  0  0  0  0  0  0  0  0  0  0  0
   59.6440   29.5220   50.1930 C   0  0  0  0  0  0  0  0  0  0  0  0
   59.9470   29.0320   51.4620 C   0  0  0  0  0  0  0  0  0  0  0  0
   58.7750   29.6000   52.5280 S   0  0  0  0  0  0  0  0  0  0  0  0
   57.9480   30.4430   51.3350 C   0  0  0  0  0  0  0  0  0  0  0  0
   56.4710   31.4180   51.6100 S   0  0  0  0  0  0  0  0  0  0  0  0
   55.6700   30.1870   52.6990 C   0  0  0  0  0  0  0  0  0  0  0  0
   54.1860   30.1100   52.4460 C   0  0  0  0  0  0  0  0  0  0  0  0
   53.4720   28.9430   52.7640 C   0  0  0  0  0  0  0  0  0  0  0  0
   52.0980   28.8760   52.5340 C   0  0  0  0  0  0  0  0  0  0  0  0
   51.4190   29.9780   52.0060 C   0  0  0  0  0  0  0  0  0  0  0  0
   52.1140   31.1640   51.6990 C   0  0  0  0  0  0  0  0  0  0  0  0
   51.3940   32.3490   51.1780 C   0  0  0  0  0  0  0  0  0  0  0  0
   51.3910   32.6080   49.9440 O   0  0  0  0  0  0  0  0  0  0  0  0
   50.6850   33.1820   52.0380 O   0  0  0  0  0  0  0  0  0  0  0  0
   53.5030   31.2160   51.9160 C   0  0  0  0  0  0  0  0  0  0  0  0
   58.5360   30.3110   50.1280 N   0  0  0  0  0  0  0  0  0  0  0  0
   58.8252   28.4653   46.1051 H   0  0  0  0  0  0  0  0  0  0  0  0
   57.7015   28.4650   44.7037 H   0  0  0  0  0  0  0  0  0  0  0  0
   59.1370   29.5448   44.7037 H   0  0  0  0  0  0  0  0  0  0  0  0
   57.4342   33.9320   44.5278 H   0  0  0  0  0  0  0  0  0  0  0  0
   58.8565   35.8262   45.2965 H   0  0  0  0  0  0  0  0  0  0  0  0
   60.4792   35.4971   47.1592 H   0  0  0  0  0  0  0  0  0  0  0  0
   60.6845   33.2734   48.2617 H   0  0  0  0  0  0  0  0  0  0  0  0
   58.3610   30.5880   47.9510 H   0  0  0  0  0  0  0  0  0  0  0  0
   60.0682   28.3809   48.4472 H   0  0  0  0  0  0  0  0  0  0  0  0
   61.5122   29.0327   49.3071 H   0  0  0  0  0  0  0  0  0  0  0  0
   60.8006   28.3883   51.7209 H   0  0  0  0  0  0  0  0  0  0  0  0
   56.1165   29.1993   52.5115 H   0  0  0  0  0  0  0  0  0  0  0  0
   55.8271   30.4952   53.7432 H   0  0  0  0  0  0  0  0  0  0  0  0
   53.9983   28.0790   53.1959 H   0  0  0  0  0  0  0  0  0  0  0  0
   51.5470   27.9533   52.7688 H   0  0  0  0  0  0  0  0  0  0  0  0
   50.3349   29.9185   51.8291 H   0  0  0  0  0  0  0  0  0  0  0  0
   54.0592   32.1321   51.6680 H   0  0  0  0  0  0  0  0  0  0  0  0
  1  2  1  0
  2  3  1  0
  3  4  2  0
  3  5  1  0
  5  6  2  0
  6  7  1  0
  7  8  2  0
  8  9  1  0
  9 10  2  0
 10 11  1  0
 11 12  1  0
 12 13  2  0
 12 14  1  0
 14 15  1  0
 15 16  2  0
 16 17  1  0
 17 18  1  0
 18 19  1  0
 19 20  1  0
 20 21  1  0
 21 22  2  0
 22 23  1  0
 23 24  2  0
 24 25  1  0
 25 26  1  0
 26 27  2  0
 26 28  1  0
 25 29  2  0
 18 30  2  0
 10  5  1  0
 30 15  1  0
 29 21  1  0
  1 31  1  0
  1 32  1  0
  1 33  1  0
  6 34  1  0
  7 35  1  0
  8 36  1  0
  9 37  1  0
 11 38  1  0
 14 39  1  0
 14 40  1  0
 16 41  1  0
 20 42  1  0
 20 43  1  0
 22 44  1  0
 23 45  1  0
 24 46  1  0
 29 47  1  0
M  CHG  1  28  -1
M  END
>  <UniqueID>  (51) 
48

>  <SMILES>  (51) 
COC(=O)c1ccccc1NC(=O)Cc1csc(SCc2cccc(C(=O)[O-])c2)n1

>  <Energy>  (51) 
76.15882303025434

>  <Genealogy>  (51) 
COC(=O)c1ccccc1NC(=O)Cc1csc(SCc2cccc(C(=O)[O-])c2)n1 (protonated)
COC(=O)c1ccccc1NC(=O)Cc1csc(SCc2cccc(C(=O)[O-])c2)n1 (3D coordinates assigned)
COC(=O)c1ccccc1NC(=O)Cc1csc(SCc2cccc(C(=O)[O-])c2)n1 (optimized conformer: 76.15882303025434 kcal/mol)

>  <smiles>  (51) 
COC(=O)c1ccccc1NC(=O)Cc1csc(SCc2cccc(C(=O)O)c2)n1

>  <score_type>  (51) 
oracle

>  <origin>  (51) 
adg

>  <m_score__min__energy>  (51) 
-12.76

>  <m_primary>  (51) 
energy

$$$$
51:0
     RDKit          3D

 92 96  0  0  0  0  0  0  0  0999 V2000
   65.1062   25.0613   54.0503 H   0  0  0  0  0  0  0  0  0  0  0  0
   64.5930   25.8560   53.4890 C   0  0  0  0  0  0  0  0  0  0  0  0
   63.5380   25.5500   52.6900 N   0  0  0  0  0  0  0  0  0  0  0  0
   62.8880   26.4980   51.9560 C   0  0  0  0  0  0  0  0  0  0  0  0
   61.8360   26.2000   51.2520 N   0  0  0  0  0  0  0  0  0  0  0  0
   60.9220   27.1320   50.6470 C   0  0  0  0  0  0  0  0  0  0  0  0
   60.2230   27.9000   51.3610 O   0  0  0  0  0  0  0  0  0  0  0  0
   60.8000   27.2330   49.1460 C   0  0  1  0  0  0  0  0  0  0  0  0
   61.7156   26.8013   48.7155 H   0  0  0  0  0  0  0  0  0  0  0  0
   59.6760   26.4390   48.6440 N   0  0  0  0  0  0  0  0  0  0  0  0
   59.1640   26.4450   47.3060 C   0  0  0  0  0  0  0  0  0  0  0  0
   57.9220   26.4200   47.0940 O   0  0  0  0  0  0  0  0  0  0  0  0
   60.0660   26.5020   46.2390 O   0  0  0  0  0  0  0  0  0  0  0  0
   60.3570   27.7090   45.5380 C   0  0  0  0  0  0  0  0  0  0  0  0
   60.8751   28.4068   46.2122 H   0  0  0  0  0  0  0  0  0  0  0  0
   60.9994   27.4812   44.6746 H   0  0  0  0  0  0  0  0  0  0  0  0
   59.0810   28.3380   45.0540 C   0  0  0  0  0  0  0  0  0  0  0  0
   58.4870   29.3930   45.7670 C   0  0  0  0  0  0  0  0  0  0  0  0
   58.9219   29.7231   46.7219 H   0  0  0  0  0  0  0  0  0  0  0  0
   57.3450   30.0240   45.2660 C   0  0  0  0  0  0  0  0  0  0  0  0
   56.8829   30.8495   45.8273 H   0  0  0  0  0  0  0  0  0  0  0  0
   56.7890   29.6080   44.0530 C   0  0  0  0  0  0  0  0  0  0  0  0
   55.8893   30.1052   43.6614 H   0  0  0  0  0  0  0  0  0  0  0  0
   57.3760   28.5600   43.3370 C   0  0  0  0  0  0  0  0  0  0  0  0
   56.9367   28.2322   42.3833 H   0  0  0  0  0  0  0  0  0  0  0  0
   58.5200   27.9290   43.8320 C   0  0  0  0  0  0  0  0  0  0  0  0
   58.9832   27.1092   43.2633 H   0  0  0  0  0  0  0  0  0  0  0  0
   60.7450   28.7100   48.6600 C   0  0  0  0  0  0  0  0  0  0  0  0
   61.5891   29.2546   49.1082 H   0  0  0  0  0  0  0  0  0  0  0  0
   60.7947   28.6887   47.5613 H   0  0  0  0  0  0  0  0  0  0  0  0
   59.4350   29.4420   49.0390 C   0  0  0  0  0  0  0  0  0  0  0  0
   58.9525   29.7847   48.1118 H   0  0  0  0  0  0  0  0  0  0  0  0
   58.8245   28.7195   49.6005 H   0  0  0  0  0  0  0  0  0  0  0  0
   59.6270   30.6600   49.9590 C   0  0  0  0  0  0  0  0  0  0  0  0
   59.5335   30.3263   51.0030 H   0  0  0  0  0  0  0  0  0  0  0  0
   60.6219   31.0762   49.7423 H   0  0  0  0  0  0  0  0  0  0  0  0
   58.6060   31.7780   49.7130 C   0  0  0  0  0  0  0  0  0  0  0  0
   58.1320   31.6251   48.7322 H   0  0  0  0  0  0  0  0  0  0  0  0
   57.8492   31.7483   50.5107 H   0  0  0  0  0  0  0  0  0  0  0  0
   59.2570   33.0820   49.7320 N   0  0  0  0  0  0  0  0  0  0  0  0
   59.7300   33.6940   50.9330 C   0  0  0  0  0  0  0  0  0  0  0  0
   60.9700   33.7460   51.1530 O   0  0  0  0  0  0  0  0  0  0  0  0
   58.8180   34.2120   51.8590 O   0  0  0  0  0  0  0  0  0  0  0  0
   58.5670   33.5890   53.1160 C   0  0  0  0  0  0  0  0  0  0  0  0
   59.5076   33.5072   53.6805 H   0  0  0  0  0  0  0  0  0  0  0  0
   57.8496   34.1927   53.6912 H   0  0  0  0  0  0  0  0  0  0  0  0
   58.0010   32.2200   52.8830 C   0  0  0  0  0  0  0  0  0  0  0  0
   56.7080   32.0640   52.3560 C   0  0  0  0  0  0  0  0  0  0  0  0
   56.1128   32.9502   52.0907 H   0  0  0  0  0  0  0  0  0  0  0  0
   56.1760   30.7840   52.1680 C   0  0  0  0  0  0  0  0  0  0  0  0
   55.1620   30.6655   51.7583 H   0  0  0  0  0  0  0  0  0  0  0  0
   56.9310   29.6550   52.5000 C   0  0  0  0  0  0  0  0  0  0  0  0
   56.5144   28.6492   52.3425 H   0  0  0  0  0  0  0  0  0  0  0  0
   58.2150   29.8040   53.0320 C   0  0  0  0  0  0  0  0  0  0  0  0
   58.8098   28.9155   53.2904 H   0  0  0  0  0  0  0  0  0  0  0  0
   58.7440   31.0840   53.2360 C   0  0  0  0  0  0  0  0  0  0  0  0
   59.7461   31.1992   53.6748 H   0  0  0  0  0  0  0  0  0  0  0  0
   63.3220   27.8310   52.0110 C   0  0  0  0  0  0  0  0  0  0  0  0
   62.8383   28.5977   51.3879 H   0  0  0  0  0  0  0  0  0  0  0  0
   64.3740   28.1770   52.8640 C   0  0  0  0  0  0  0  0  0  0  0  0
   64.7560   29.5170   52.9780 O   0  0  0  0  0  0  0  0  0  0  0  0
   64.5840   30.4680   51.9600 C   0  0  0  0  0  0  0  0  0  0  0  0
   65.7160   31.0010   51.3300 C   0  0  0  0  0  0  0  0  0  0  0  0
   66.7195   30.6784   51.6447 H   0  0  0  0  0  0  0  0  0  0  0  0
   65.5780   31.9420   50.3020 C   0  0  0  0  0  0  0  0  0  0  0  0
   66.4727   32.3618   49.8191 H   0  0  0  0  0  0  0  0  0  0  0  0
   64.2980   32.3520   49.8850 C   0  0  0  0  0  0  0  0  0  0  0  0
   64.1180   33.2840   48.8120 N   0  0  0  0  0  0  0  0  0  0  0  0
   63.0740   33.2500   47.8330 C   0  0  0  0  0  0  0  0  0  0  0  0
   63.3850   33.0980   46.6210 O   0  0  0  0  0  0  0  0  0  0  0  0
   61.6930   33.2760   48.2270 N   0  0  0  0  0  0  0  0  0  0  0  0
   61.4620   32.9970   49.2060 H   0  0  0  0  0  0  0  0  0  0  0  0
   60.6100   33.4660   47.3020 C   0  0  0  0  0  0  0  0  0  0  0  0
   60.0960   34.7550   47.0970 C   0  0  0  0  0  0  0  0  0  0  0  0
   60.5232   35.6069   47.6463 H   0  0  0  0  0  0  0  0  0  0  0  0
   59.0440   34.9650   46.1990 C   0  0  0  0  0  0  0  0  0  0  0  0
   58.6450   35.9791   46.0496 H   0  0  0  0  0  0  0  0  0  0  0  0
   58.4960   33.8860   45.4880 C   0  0  0  0  0  0  0  0  0  0  0  0
   57.3570   34.0940   44.5330 C   0  0  0  0  0  0  0  0  0  0  0  0
   56.4296   34.2634   45.0998 H   0  0  0  0  0  0  0  0  0  0  0  0
   57.5647   34.9691   43.8997 H   0  0  0  0  0  0  0  0  0  0  0  0
   57.2420   33.2020   43.8997 H   0  0  0  0  0  0  0  0  0  0  0  0
   59.0240   32.6000   45.6740 C   0  0  0  0  0  0  0  0  0  0  0  0
   58.6085   31.7516   45.1105 H   0  0  0  0  0  0  0  0  0  0  0  0
   60.0760   32.3900   46.5720 C   0  0  0  0  0  0  0  0  0  0  0  0
   60.4870   31.3787   46.7074 H   0  0  0  0  0  0  0  0  0  0  0  0
   63.1670   31.7860   50.4860 C   0  0  0  0  0  0  0  0  0  0  0  0
   62.1630   32.0675   50.1355 H   0  0  0  0  0  0  0  0  0  0  0  0
   63.3060   30.8660   51.5280 C   0  0  0  0  0  0  0  0  0  0  0  0
   62.4107   30.4504   52.0135 H   0  0  0  0  0  0  0  0  0  0  0  0
   65.0260   27.1780   53.5980 C   0  0  0  0  0  0  0  0  0  0  0  0
   65.8713   27.4332   54.2541 H   0  0  0  0  0  0  0  0  0  0  0  0
  1  2  1  0
  2  3  1  0
  3  4  1  0
  4  5  2  0
  5  6  1  0
  6  7  2  0
  6  8  1  0
  8  9  1  6
  8 10  1  0
 10 11  1  0
 11 12  2  0
 11 13  1  0
 13 14  1  0
 14 15  1  0
 14 16  1  0
 14 17  1  0
 17 18  2  0
 18 19  1  0
 18 20  1  0
 20 21  1  0
 20 22  2  0
 22 23  1  0
 22 24  1  0
 24 25  1  0
 24 26  2  0
 26 27  1  0
  8 28  1  0
 28 29  1  0
 28 30  1  0
 28 31  1  0
 31 32  1  0
 31 33  1  0
 31 34  1  0
 34 35  1  0
 34 36  1  0
 34 37  1  0
 37 38  1  0
 37 39  1  0
 37 40  1  0
 40 41  1  0
 41 42  2  0
 41 43  1  0
 43 44  1  0
 44 45  1  0
 44 46  1  0
 44 47  1  0
 47 48  2  0
 48 49  1  0
 48 50  1  0
 50 51  1  0
 50 52  2  0
 52 53  1  0
 52 54  1  0
 54 55  1  0
 54 56  2  0
 56 57  1  0
  4 58  1  0
 58 59  1  0
 58 60  2  0
 60 61  1  0
 61 62  1  0
 62 63  2  0
 63 64  1  0
 63 65  1  0
 65 66  1  0
 65 67  2  0
 67 68  1  0
 68 69  1  0
 69 70  2  0
 69 71  1  0
 71 72  1  0
 71 73  1  0
 73 74  2  0
 74 75  1  0
 74 76  1  0
 76 77  1  0
 76 78  2  0
 78 79  1  0
 79 80  1  0
 79 81  1  0
 79 82  1  0
 78 83  1  0
 83 84  1  0
 83 85  2  0
 85 86  1  0
 67 87  1  0
 87 88  1  0
 87 89  2  0
 89 90  1  0
 60 91  1  0
 91 92  1  0
 91  2  2  0
 26 17  1  0
 56 47  1  0
 89 62  1  0
 85 73  1  0
M  CHG  4   3  -1  10  -1  40  -1  68  -1
M  END
>  <UniqueID>  (52) 
49

>  <SMILES>  (52) 
Cc1ccc(NC(=O)[N-]c2ccc(Oc3cc[n-]/c(=N\C(=O)[C@H](CCCC[N-]C(=O)OCc4ccccc4)[N-]C(=O)OCc4ccccc4)c3)cc2)cc1

>  <Energy>  (52) 
107.61668111548065

>  <Genealogy>  (52) 
Cc1ccc(NC(=O)[N-]c2ccc(Oc3cc[n-]c(=NC(=O)C(CCCC[N-]C(=O)OCc4ccccc4)[N-]C(=O)OCc4ccccc4)c3)cc2)cc1 (protonated)
Cc1ccc(NC(=O)[N-]c2ccc(Oc3cc[n-]c(=NC(=O)[C@H](CCCC[N-]C(=O)OCc4ccccc4)[N-]C(=O)OCc4ccccc4)c3)cc2)cc1 (chirality)
Cc1ccc(NC(=O)[N-]c2ccc(Oc3cc[n-]/c(=N\C(=O)[C@H](CCCC[N-]C(=O)OCc4ccccc4)[N-]C(=O)OCc4ccccc4)c3)cc2)cc1 (cis-trans isomerization)
Cc1ccc(NC(=O)[N-]c2ccc(Oc3cc[n-]/c(=N\C(=O)[C@H](CCCC[N-]C(=O)OCc4ccccc4)[N-]C(=O)OCc4ccccc4)c3)cc2)cc1 (3D coordinates assigned)
Cc1ccc(NC(=O)[N-]c2ccc(Oc3cc[n-]/c(=N\C(=O)[C@H](CCCC[N-]C(=O)OCc4ccccc4)[N-]C(=O)OCc4ccccc4)c3)cc2)cc1 (optimized conformer: 107.61668111548065 kcal/mol)

>  <smiles>  (52) 
Cc1ccc(NC(=O)Nc2ccc(Oc3cc[nH]c(=NC(=O)C(CCCCNC(=O)OCc4ccccc4)NC(=O)OCc4ccccc4)c3)cc2)cc1

>  <score_type>  (52) 
oracle

>  <origin>  (52) 
adg

>  <m_score__min__energy>  (52) 
-16.41

>  <m_primary>  (52) 
energy

$$$$
52:0
     RDKit          3D

 56 59  0  0  0  0  0  0  0  0999 V2000
   58.3780   30.8230   43.4920 O   0  0  0  0  0  0  0  0  0  0  0  0
   57.5800   30.5910   44.4380 C   0  0  0  0  0  0  0  0  0  0  0  0
   56.7030   31.6370   44.8740 N   0  0  0  0  0  0  0  0  0  0  0  0
   57.0880   33.0340   45.0240 C   0  0  0  0  0  0  0  0  0  0  0  0
   58.2960   33.1240   45.9100 C   0  0  0  0  0  0  0  0  0  0  0  0
   59.2190   34.1690   45.7480 C   0  0  0  0  0  0  0  0  0  0  0  0
   60.3620   34.2300   46.5510 C   0  0  0  0  0  0  0  0  0  0  0  0
   60.6040   33.2410   47.5140 C   0  0  0  0  0  0  0  0  0  0  0  0
   62.0560   33.3160   48.5150 S   0  0  0  0  0  0  0  0  0  0  0  0
   62.0110   34.5560   49.3650 O   0  0  0  0  0  0  0  0  0  0  0  0
   63.2630   33.4050   47.6240 O   0  0  0  0  0  0  0  0  0  0  0  0
   62.2000   31.9110   49.5430 N   0  0  0  0  0  0  0  0  0  0  0  0
   61.3660   32.0660   50.7450 C   0  0  0  0  0  0  0  0  0  0  0  0
   61.2730   30.7160   51.4610 C   0  0  0  0  0  0  0  0  0  0  0  0
   62.5530   29.9970   51.3850 N   0  0  0  0  0  0  0  0  0  0  0  0
   62.6020   28.5810   51.6470 C   0  0  0  0  0  0  0  0  0  0  0  0
   61.5940   27.7280   51.1630 C   0  0  0  0  0  0  0  0  0  0  0  0
   61.6520   26.3530   51.4090 C   0  0  0  0  0  0  0  0  0  0  0  0
   62.7180   25.8150   52.1330 C   0  0  0  0  0  0  0  0  0  0  0  0
   63.7310   26.6510   52.6100 C   0  0  0  0  0  0  0  0  0  0  0  0
   63.6770   28.0280   52.3670 C   0  0  0  0  0  0  0  0  0  0  0  0
   63.7820   30.7580   51.1260 C   0  0  0  0  0  0  0  0  0  0  0  0
   63.6170   31.6700   49.8910 C   0  0  0  0  0  0  0  0  0  0  0  0
   59.6910   32.1880   47.6670 C   0  0  0  0  0  0  0  0  0  0  0  0
   58.5470   32.1270   46.8670 C   0  0  0  0  0  0  0  0  0  0  0  0
   57.5560   29.2440   45.0450 C   0  0  0  0  0  0  0  0  0  0  0  0
   58.7550   28.6240   45.4310 C   0  0  0  0  0  0  0  0  0  0  0  0
   58.7400   27.3440   45.9890 C   0  0  0  0  0  0  0  0  0  0  0  0
   57.5300   26.6680   46.1600 C   0  0  0  0  0  0  0  0  0  0  0  0
   56.3270   27.2640   45.7660 C   0  0  0  0  0  0  0  0  0  0  0  0
   55.1360   26.5620   45.9410 O   0  0  0  0  0  0  0  0  0  0  0  0
   56.3380   28.5530   45.2040 C   0  0  0  0  0  0  0  0  0  0  0  0
   55.1410   29.1490   44.8150 O   0  0  0  0  0  0  0  0  0  0  0  0
   57.3241   33.4580   44.0368 H   0  0  0  0  0  0  0  0  0  0  0  0
   56.2581   33.5983   45.4745 H   0  0  0  0  0  0  0  0  0  0  0  0
   59.0424   34.9429   44.9864 H   0  0  0  0  0  0  0  0  0  0  0  0
   61.0749   35.0584   46.4262 H   0  0  0  0  0  0  0  0  0  0  0  0
   61.8203   32.8096   51.4163 H   0  0  0  0  0  0  0  0  0  0  0  0
   60.3598   32.4066   50.4593 H   0  0  0  0  0  0  0  0  0  0  0  0
   61.0160   30.8846   52.5172 H   0  0  0  0  0  0  0  0  0  0  0  0
   60.4974   30.1091   50.9710 H   0  0  0  0  0  0  0  0  0  0  0  0
   60.7547   28.1453   50.5873 H   0  0  0  0  0  0  0  0  0  0  0  0
   60.8565   25.6937   51.0316 H   0  0  0  0  0  0  0  0  0  0  0  0
   62.7603   24.7332   52.3278 H   0  0  0  0  0  0  0  0  0  0  0  0
   64.5721   26.2260   53.1774 H   0  0  0  0  0  0  0  0  0  0  0  0
   64.4790   28.6815   52.7408 H   0  0  0  0  0  0  0  0  0  0  0  0
   64.0124   31.3793   52.0040 H   0  0  0  0  0  0  0  0  0  0  0  0
   64.5997   30.0484   50.9314 H   0  0  0  0  0  0  0  0  0  0  0  0
   64.0968   32.6372   50.1015 H   0  0  0  0  0  0  0  0  0  0  0  0
   64.0861   31.1597   49.0369 H   0  0  0  0  0  0  0  0  0  0  0  0
   59.8759   31.4072   48.4194 H   0  0  0  0  0  0  0  0  0  0  0  0
   57.8391   31.2937   46.9873 H   0  0  0  0  0  0  0  0  0  0  0  0
   59.7115   29.1494   45.2931 H   0  0  0  0  0  0  0  0  0  0  0  0
   59.6831   26.8672   46.2944 H   0  0  0  0  0  0  0  0  0  0  0  0
   57.5227   25.6627   46.6064 H   0  0  0  0  0  0  0  0  0  0  0  0
   54.3320   26.7090   45.3420 H   0  0  0  0  0  0  0  0  0  0  0  0
  1  2  2  0
  2  3  1  0
  3  4  1  0
  4  5  1  0
  5  6  2  0
  6  7  1  0
  7  8  2  0
  8  9  1  0
  9 10  2  0
  9 11  2  0
  9 12  1  0
 12 13  1  0
 13 14  1  0
 14 15  1  0
 15 16  1  0
 16 17  2  0
 17 18  1  0
 18 19  2  0
 19 20  1  0
 20 21  2  0
 15 22  1  0
 22 23  1  0
  8 24  1  0
 24 25  2  0
  2 26  1  0
 26 27  2  0
 27 28  1  0
 28 29  2  0
 29 30  1  0
 30 31  1  0
 30 32  2  0
 32 33  1  0
 25  5  1  0
 32 26  1  0
 23 12  1  0
 21 16  1  0
  4 34  1  0
  4 35  1  0
  6 36  1  0
  7 37  1  0
 13 38  1  0
 13 39  1  0
 14 40  1  0
 14 41  1  0
 17 42  1  0
 18 43  1  0
 19 44  1  0
 20 45  1  0
 21 46  1  0
 22 47  1  0
 22 48  1  0
 23 49  1  0
 23 50  1  0
 24 51  1  0
 25 52  1  0
 27 53  1  0
 28 54  1  0
 29 55  1  0
 31 56  1  0
M  CHG  2   3  -1  33  -1
M  END
>  <UniqueID>  (53) 
50

>  <SMILES>  (53) 
O=C([N-]Cc1ccc(S(=O)(=O)N2CCN(c3ccccc3)CC2)cc1)c1cccc(O)c1[O-]

>  <Energy>  (53) 
71.72296596736557

>  <Genealogy>  (53) 
O=C([N-]Cc1ccc(S(=O)(=O)N2CCN(c3ccccc3)CC2)cc1)c1cccc(O)c1[O-] (protonated)
O=C([N-]Cc1ccc(S(=O)(=O)N2CCN(c3ccccc3)CC2)cc1)c1cccc(O)c1[O-] (3D coordinates assigned)
O=C([N-]Cc1ccc(S(=O)(=O)N2CCN(c3ccccc3)CC2)cc1)c1cccc(O)c1[O-] (nonaromatic ring conformer: 71.72296596736557 kcal/mol)

>  <smiles>  (53) 
O=C(NCc1ccc(S(=O)(=O)N2CCN(c3ccccc3)CC2)cc1)c1cccc(O)c1O

>  <score_type>  (53) 
oracle

>  <origin>  (53) 
adg

>  <m_score__min__energy>  (53) 
-15.98

>  <m_primary>  (53) 
energy

$$$$
53:0
     RDKit          3D

 48 50  0  0  0  0  0  0  0  0999 V2000
   56.8280   24.6940   47.0850 C   0  0  0  0  0  0  0  0  0  0  0  0
   57.6450   25.8280   47.3590 O   0  0  0  0  0  0  0  0  0  0  0  0
   58.0240   26.7970   46.4150 C   0  0  0  0  0  0  0  0  0  0  0  0
   57.0440   27.7040   46.0040 C   0  0  0  0  0  0  0  0  0  0  0  0
   57.3480   28.7360   45.1100 C   0  0  0  0  0  0  0  0  0  0  0  0
   56.3020   29.7020   44.6940 C   0  0  0  0  0  0  0  0  0  0  0  0
   55.1330   29.2890   44.4730 O   0  0  0  0  0  0  0  0  0  0  0  0
   56.5900   31.0900   44.4830 N   0  0  0  0  0  0  0  0  0  0  0  0
   57.5500   31.8730   45.2070 C   0  0  0  0  0  0  0  0  0  0  0  0
   58.0670   33.0730   44.6890 C   0  0  0  0  0  0  0  0  0  0  0  0
   59.0130   33.8040   45.4140 C   0  0  0  0  0  0  0  0  0  0  0  0
   59.4650   33.3410   46.6580 C   0  0  0  0  0  0  0  0  0  0  0  0
   60.4950   34.1270   47.4240 C   0  0  0  0  0  0  0  0  0  0  0  0
   61.1680   33.2540   48.4120 N   0  0  0  0  0  0  0  0  0  0  0  0
   61.9170   34.0280   49.4340 C   0  0  0  0  0  0  0  0  0  0  0  0
   63.4010   34.2200   49.0610 C   0  0  0  0  0  0  0  0  0  0  0  0
   63.5660   34.2020   47.6600 O   0  0  0  0  0  0  0  0  0  0  0  0
   63.3050   32.9040   47.1550 C   0  0  0  0  0  0  0  0  0  0  0  0
   62.0390   32.2550   47.7630 C   0  0  0  0  0  0  0  0  0  0  0  0
   58.9660   32.1290   47.1630 C   0  0  0  0  0  0  0  0  0  0  0  0
   58.0210   31.3990   46.4380 C   0  0  0  0  0  0  0  0  0  0  0  0
   58.6510   28.8190   44.6040 C   0  0  0  0  0  0  0  0  0  0  0  0
   59.5940   27.9160   44.9800 N   0  0  0  0  0  0  0  0  0  0  0  0
   59.3220   26.8990   45.8520 C   0  0  0  0  0  0  0  0  0  0  0  0
   60.4000   25.8900   46.1370 C   0  0  0  0  0  0  0  0  0  0  0  0
   56.5010   24.2402   48.0322 H   0  0  0  0  0  0  0  0  0  0  0  0
   55.9473   25.0080   46.5056 H   0  0  0  0  0  0  0  0  0  0  0  0
   57.4047   23.9580   46.5056 H   0  0  0  0  0  0  0  0  0  0  0  0
   56.0184   27.6051   46.3891 H   0  0  0  0  0  0  0  0  0  0  0  0
   57.7259   33.4385   43.7092 H   0  0  0  0  0  0  0  0  0  0  0  0
   59.4048   34.7475   45.0063 H   0  0  0  0  0  0  0  0  0  0  0  0
   61.2424   34.5275   46.7233 H   0  0  0  0  0  0  0  0  0  0  0  0
   59.9979   34.9536   47.9528 H   0  0  0  0  0  0  0  0  0  0  0  0
   61.4491   35.0179   49.5393 H   0  0  0  0  0  0  0  0  0  0  0  0
   61.8804   33.4603   50.3755 H   0  0  0  0  0  0  0  0  0  0  0  0
   63.7507   35.1860   49.4540 H   0  0  0  0  0  0  0  0  0  0  0  0
   63.9864   33.3976   49.4982 H   0  0  0  0  0  0  0  0  0  0  0  0
   63.1730   32.9732   46.0651 H   0  0  0  0  0  0  0  0  0  0  0  0
   64.1606   32.2692   47.4289 H   0  0  0  0  0  0  0  0  0  0  0  0
   61.4739   31.7575   46.9610 H   0  0  0  0  0  0  0  0  0  0  0  0
   62.3593   31.5326   48.5282 H   0  0  0  0  0  0  0  0  0  0  0  0
   59.3210   31.7529   48.1339 H   0  0  0  0  0  0  0  0  0  0  0  0
   57.6442   30.4455   46.8366 H   0  0  0  0  0  0  0  0  0  0  0  0
   58.9128   29.6205   43.8975 H   0  0  0  0  0  0  0  0  0  0  0  0
   60.5480   28.0060   44.5640 H   0  0  0  0  0  0  0  0  0  0  0  0
   60.5193   25.7783   47.2248 H   0  0  0  0  0  0  0  0  0  0  0  0
   60.1208   24.9211   45.6973 H   0  0  0  0  0  0  0  0  0  0  0  0
   61.3484   26.2325   45.6973 H   0  0  0  0  0  0  0  0  0  0  0  0
  1  2  1  0
  2  3  1  0
  3  4  2  0
  4  5  1  0
  5  6  1  0
  6  7  2  0
  6  8  1  0
  8  9  1  0
  9 10  2  0
 10 11  1  0
 11 12  2  0
 12 13  1  0
 13 14  1  0
 14 15  1  0
 15 16  1  0
 16 17  1  0
 17 18  1  0
 18 19  1  0
 12 20  1  0
 20 21  2  0
  5 22  2  0
 22 23  1  0
 23 24  2  0
 24 25  1  0
 24  3  1  0
 21  9  1  0
 19 14  1  0
  1 26  1  0
  1 27  1  0
  1 28  1  0
  4 29  1  0
 10 30  1  0
 11 31  1  0
 13 32  1  0
 13 33  1  0
 15 34  1  0
 15 35  1  0
 16 36  1  0
 16 37  1  0
 18 38  1  0
 18 39  1  0
 19 40  1  0
 19 41  1  0
 20 42  1  0
 21 43  1  0
 22 44  1  0
 23 45  1  0
 25 46  1  0
 25 47  1  0
 25 48  1  0
M  CHG  2   8  -1  23   1
M  END
>  <UniqueID>  (54) 
51

>  <SMILES>  (54) 
COc1cc(C(=O)[N-]c2ccc(CN3CCOCC3)cc2)c[nH+]c1C

>  <Energy>  (54) 
73.5023466865745

>  <Genealogy>  (54) 
COc1cc(C(=O)[N-]c2ccc(CN3CCOCC3)cc2)c[nH+]c1C (protonated)
COc1cc(C(=O)[N-]c2ccc(CN3CCOCC3)cc2)c[nH+]c1C (3D coordinates assigned)
COc1cc(C(=O)[N-]c2ccc(CN3CCOCC3)cc2)c[nH+]c1C (nonaromatic ring conformer: 73.5023466865745 kcal/mol)

>  <smiles>  (54) 
COc1cc(C(=O)Nc2ccc(CN3CCOCC3)cc2)cnc1C

>  <score_type>  (54) 
oracle

>  <origin>  (54) 
adg

>  <m_score__min__energy>  (54) 
-7.9000000000000004

>  <m_primary>  (54) 
energy

$$$$
54:0
     RDKit          3D

 31 32  0  0  0  0  0  0  0  0999 V2000
   55.5920   29.4630   44.8710 O   0  0  0  0  0  0  0  0  0  0  0  0
   56.7210   29.5360   44.3150 C   0  0  0  0  0  0  0  0  0  0  0  0
   56.8470   30.0000   42.9580 N   0  0  0  0  0  0  0  0  0  0  0  0
   57.0240   31.2170   42.5220 C   0  0  0  0  0  0  0  0  0  0  0  0
   57.9420   32.2210   43.1550 C   0  0  0  0  0  0  0  0  0  0  0  0
   57.4690   32.5430   44.5000 N   0  0  0  0  0  0  0  0  0  0  0  0
   58.1400   33.1780   45.4200 C   0  0  0  0  0  0  0  0  0  0  0  0
   58.8820   34.3060   45.0510 C   0  0  0  0  0  0  0  0  0  0  0  0
   59.6070   35.0060   46.0180 C   0  0  0  0  0  0  0  0  0  0  0  0
   59.5950   34.5950   47.3150 N   0  0  0  0  0  0  0  0  0  0  0  0
   58.8840   33.5020   47.7050 C   0  0  0  0  0  0  0  0  0  0  0  0
   58.1450   32.7720   46.7700 C   0  0  0  0  0  0  0  0  0  0  0  0
   57.9340   29.1510   45.0740 C   0  0  0  0  0  0  0  0  0  0  0  0
   57.8250   28.6050   46.3680 C   0  0  0  0  0  0  0  0  0  0  0  0
   58.9710   28.2410   47.0830 C   0  0  0  0  0  0  0  0  0  0  0  0
   60.2350   28.4170   46.5180 C   0  0  0  0  0  0  0  0  0  0  0  0
   60.3570   28.9560   45.2360 C   0  0  0  0  0  0  0  0  0  0  0  0
   59.2160   29.3220   44.5160 C   0  0  0  0  0  0  0  0  0  0  0  0
   56.4617   31.5283   41.6293 H   0  0  0  0  0  0  0  0  0  0  0  0
   58.9570   31.8012   43.2152 H   0  0  0  0  0  0  0  0  0  0  0  0
   57.9560   33.1365   42.5453 H   0  0  0  0  0  0  0  0  0  0  0  0
   58.8941   34.6400   44.0030 H   0  0  0  0  0  0  0  0  0  0  0  0
   60.1900   35.8932   45.7299 H   0  0  0  0  0  0  0  0  0  0  0  0
   60.1430   35.1280   48.0260 H   0  0  0  0  0  0  0  0  0  0  0  0
   58.8910   33.1919   48.7604 H   0  0  0  0  0  0  0  0  0  0  0  0
   57.5718   31.8876   47.0850 H   0  0  0  0  0  0  0  0  0  0  0  0
   56.8319   28.4639   46.8194 H   0  0  0  0  0  0  0  0  0  0  0  0
   58.8757   27.8151   48.0927 H   0  0  0  0  0  0  0  0  0  0  0  0
   61.1347   28.1311   47.0826 H   0  0  0  0  0  0  0  0  0  0  0  0
   61.3537   29.0931   44.7912 H   0  0  0  0  0  0  0  0  0  0  0  0
   59.3201   29.7465   43.5066 H   0  0  0  0  0  0  0  0  0  0  0  0
  1  2  2  0
  2  3  1  0
  3  4  2  3
  4  5  1  0
  5  6  1  0
  6  7  2  3
  7  8  1  0
  8  9  2  0
  9 10  1  0
 10 11  1  0
 11 12  2  0
  2 13  1  0
 13 14  2  0
 14 15  1  0
 15 16  2  0
 16 17  1  0
 17 18  2  0
 12  7  1  0
 18 13  1  0
  4 19  1  0
  5 20  1  0
  5 21  1  0
  8 22  1  0
  9 23  1  0
 10 24  1  0
 11 25  1  0
 12 26  1  0
 14 27  1  0
 15 28  1  0
 16 29  1  0
 17 30  1  0
 18 31  1  0
M  END
>  <UniqueID>  (55) 
52

>  <SMILES>  (55) 
O=C(N=CCN=c1cc[nH]cc1)c1ccccc1

>  <Energy>  (55) 
36.04377554174081

>  <Genealogy>  (55) 
O=C(N=CCN=c1cc[nH]cc1)c1ccccc1 (3D coordinates assigned)
O=C(N=CCN=c1cc[nH]cc1)c1ccccc1 (optimized conformer: 36.04377554174081 kcal/mol)

>  <smiles>  (55) 
O=C(N=CCN=c1cc[nH]cc1)c1ccccc1

>  <score_type>  (55) 
oracle

>  <origin>  (55) 
adg

>  <m_score__min__energy>  (55) 
-6.3499999999999996

>  <m_primary>  (55) 
energy

$$$$
55:0
     RDKit          3D

 48 51  0  0  0  0  0  0  0  0999 V2000
   55.1390   26.3590   47.0880 H   0  0  0  0  0  0  0  0  0  0  0  0
   55.0850   26.3410   46.0980 O   0  0  0  0  0  0  0  0  0  0  0  0
   56.3890   26.1850   45.5970 C   0  0  1  0  0  0  0  0  0  0  0  0
   56.3202   26.0448   44.5081 H   0  0  0  0  0  0  0  0  0  0  0  0
   57.2250   27.4200   45.8130 C   0  0  0  0  0  0  0  0  0  0  0  0
   57.1400   28.5970   45.0860 C   0  0  0  0  0  0  0  0  0  0  0  0
   56.5063   28.8076   44.2119 H   0  0  0  0  0  0  0  0  0  0  0  0
   58.0380   29.4490   45.7140 C   0  0  0  0  0  0  0  0  0  0  0  0
   58.2790   30.6970   45.4250 N   0  0  0  0  0  0  0  0  0  0  0  0
   57.3320   31.7580   45.2370 C   0  0  0  0  0  0  0  0  0  0  0  0
   56.3360   31.5590   44.4930 O   0  0  0  0  0  0  0  0  0  0  0  0
   57.4850   33.0160   45.9050 N   0  0  0  0  0  0  0  0  0  0  0  0
   58.3670   33.2500   47.0100 C   0  0  0  0  0  0  0  0  0  0  0  0
   58.1530   32.5410   48.1990 C   0  0  0  0  0  0  0  0  0  0  0  0
   57.3228   31.8224   48.2651 H   0  0  0  0  0  0  0  0  0  0  0  0
   58.9880   32.7410   49.3020 C   0  0  0  0  0  0  0  0  0  0  0  0
   58.8247   32.1679   50.2266 H   0  0  0  0  0  0  0  0  0  0  0  0
   60.0290   33.6680   49.2300 C   0  0  0  0  0  0  0  0  0  0  0  0
   60.6925   33.8166   50.0947 H   0  0  0  0  0  0  0  0  0  0  0  0
   60.2300   34.4080   48.0610 C   0  0  0  0  0  0  0  0  0  0  0  0
   61.0442   35.1461   48.0130 H   0  0  0  0  0  0  0  0  0  0  0  0
   59.3980   34.2130   46.9500 C   0  0  0  0  0  0  0  0  0  0  0  0
   59.6190   35.2540   45.5500 Cl  0  0  0  0  0  0  0  0  0  0  0  0
   58.5960   28.8090   46.7690 N   0  0  0  0  0  0  0  0  0  0  0  0
   59.5590   29.3320   47.7040 C   0  0  0  0  0  0  0  0  0  0  0  0
   59.4610   29.0440   49.0770 C   0  0  0  0  0  0  0  0  0  0  0  0
   58.6449   28.4050   49.4454 H   0  0  0  0  0  0  0  0  0  0  0  0
   60.3960   29.5660   49.9760 C   0  0  0  0  0  0  0  0  0  0  0  0
   60.3155   29.3335   51.0481 H   0  0  0  0  0  0  0  0  0  0  0  0
   61.4320   30.3820   49.5160 C   0  0  0  0  0  0  0  0  0  0  0  0
   62.1690   30.7876   50.2248 H   0  0  0  0  0  0  0  0  0  0  0  0
   61.5320   30.6830   48.1550 C   0  0  0  0  0  0  0  0  0  0  0  0
   62.3457   31.3291   47.7939 H   0  0  0  0  0  0  0  0  0  0  0  0
   60.5990   30.1640   47.2510 C   0  0  0  0  0  0  0  0  0  0  0  0
   60.6789   30.4075   46.1813 H   0  0  0  0  0  0  0  0  0  0  0  0
   58.0930   27.5860   46.8310 N   0  0  0  0  0  0  0  0  0  0  0  0
   58.3410   26.8720   47.5520 H   0  0  0  0  0  0  0  0  0  0  0  0
   57.0190   24.9860   46.1650 N   0  0  0  0  0  0  0  0  0  0  0  0
   57.2560   25.0060   47.1830 H   0  0  0  0  0  0  0  0  0  0  0  0
   57.3340   23.7880   45.4330 C   0  0  0  0  0  0  0  0  0  0  0  0
   56.7390   23.4110   44.2470 C   0  0  0  0  0  0  0  0  0  0  0  0
   55.9380   23.9399   43.7097 H   0  0  0  0  0  0  0  0  0  0  0  0
   57.3550   22.2340   43.8730 C   0  0  0  0  0  0  0  0  0  0  0  0
   57.1142   21.6580   42.9674 H   0  0  0  0  0  0  0  0  0  0  0  0
   58.2940   21.8920   44.7770 N   0  0  0  0  0  0  0  0  0  0  0  0
   58.9140   21.0530   44.7380 H   0  0  0  0  0  0  0  0  0  0  0  0
   58.2920   22.8370   45.7360 C   0  0  0  0  0  0  0  0  0  0  0  0
   58.9474   22.8507   46.6193 H   0  0  0  0  0  0  0  0  0  0  0  0
  1  2  1  0
  2  3  1  0
  3  4  1  6
  3  5  1  0
  5  6  2  0
  6  7  1  0
  6  8  1  0
  8  9  2  0
  9 10  1  0
 10 11  2  0
 10 12  1  0
 12 13  1  0
 13 14  2  0
 14 15  1  0
 14 16  1  0
 16 17  1  0
 16 18  2  0
 18 19  1  0
 18 20  1  0
 20 21  1  0
 20 22  2  0
 22 23  1  0
  8 24  1  0
 24 25  1  0
 25 26  2  0
 26 27  1  0
 26 28  1  0
 28 29  1  0
 28 30  2  0
 30 31  1  0
 30 32  1  0
 32 33  1  0
 32 34  2  0
 34 35  1  0
 24 36  1  0
 36 37  1  0
  3 38  1  0
 38 39  1  0
 38 40  1  0
 40 41  1  0
 41 42  1  0
 41 43  2  0
 43 44  1  0
 43 45  1  0
 45 46  1  0
 45 47  1  0
 47 48  1  0
 36  5  1  0
 47 40  2  0
 22 13  1  0
 34 25  1  0
M  CHG  1  12  -1
M  END
>  <UniqueID>  (56) 
53

>  <SMILES>  (56) 
O=C(/N=c1\cc([C@H](O)Nc2cc[nH]c2)[nH]n1-c1ccccc1)[N-]c1ccccc1Cl

>  <Energy>  (56) 
126.55116774205618

>  <Genealogy>  (56) 
O=C(N=c1cc(C(O)Nc2cc[nH]c2)[nH]n1-c1ccccc1)[N-]c1ccccc1Cl (protonated)
O=C(N=c1cc([C@H](O)Nc2cc[nH]c2)[nH]n1-c1ccccc1)[N-]c1ccccc1Cl (chirality)
O=C(/N=c1\cc([C@H](O)Nc2cc[nH]c2)[nH]n1-c1ccccc1)[N-]c1ccccc1Cl (cis-trans isomerization)
O=C(/N=c1\cc([C@H](O)Nc2cc[nH]c2)[nH]n1-c1ccccc1)[N-]c1ccccc1Cl (3D coordinates assigned)
O=C(/N=c1\cc([C@H](O)Nc2cc[nH]c2)[nH]n1-c1ccccc1)[N-]c1ccccc1Cl (optimized conformer: 126.55116774205618 kcal/mol)

>  <smiles>  (56) 
O=C(N=c1cc(C(O)Nc2cc[nH]c2)[nH]n1-c1ccccc1)Nc1ccccc1Cl

>  <score_type>  (56) 
oracle

>  <origin>  (56) 
adg

>  <m_score__min__energy>  (56) 
-10.26

>  <m_primary>  (56) 
energy

$$$$
56:0
     RDKit          3D

 40 41  0  0  0  0  0  0  0  0999 V2000
   58.4910   34.2130   44.5680 C   0  0  0  0  0  0  0  0  0  0  0  0
   58.8220   33.9730   46.0100 C   0  0  0  0  0  0  0  0  0  0  0  0
   59.7520   34.7860   46.6810 C   0  0  0  0  0  0  0  0  0  0  0  0
   60.0580   34.5470   48.0230 C   0  0  0  0  0  0  0  0  0  0  0  0
   59.4460   33.4880   48.7110 C   0  0  0  0  0  0  0  0  0  0  0  0
   59.7990   33.2040   50.1450 C   0  0  0  0  0  0  0  0  0  0  0  0
   58.5840   33.1080   50.9490 N   0  0  0  0  0  0  0  0  0  0  0  0
   57.9260   31.8610   51.2090 C   0  0  0  0  0  0  0  0  0  0  0  0
   58.4500   30.7820   50.8220 O   0  0  0  0  0  0  0  0  0  0  0  0
   56.6730   31.8510   51.9100 N   0  0  0  0  0  0  0  0  0  0  0  0
   55.9510   30.6560   52.2540 C   0  0  0  0  0  0  0  0  0  0  0  0
   56.4280   29.5160   51.9950 O   0  0  0  0  0  0  0  0  0  0  0  0
   54.5970   30.7530   52.8770 C   0  0  0  0  0  0  0  0  0  0  0  0
   53.9860   29.4690   52.8690 O   0  0  0  0  0  0  0  0  0  0  0  0
   52.6920   29.2460   52.3850 C   0  0  0  0  0  0  0  0  0  0  0  0
   52.0520   28.2220   52.7530 O   0  0  0  0  0  0  0  0  0  0  0  0
   52.0870   30.2120   51.4320 C   0  0  0  0  0  0  0  0  0  0  0  0
   51.9420   29.8630   50.0810 C   0  0  0  0  0  0  0  0  0  0  0  0
   51.3860   30.7370   49.2020 N   0  0  0  0  0  0  0  0  0  0  0  0
   50.9660   31.9620   49.6040 C   0  0  0  0  0  0  0  0  0  0  0  0
   50.4580   32.7570   48.7720 O   0  0  0  0  0  0  0  0  0  0  0  0
   51.0960   32.3300   50.9030 N   0  0  0  0  0  0  0  0  0  0  0  0
   51.6420   31.4930   51.8240 C   0  0  0  0  0  0  0  0  0  0  0  0
   51.7390   31.8790   53.0190 O   0  0  0  0  0  0  0  0  0  0  0  0
   58.5360   32.6610   48.0330 C   0  0  0  0  0  0  0  0  0  0  0  0
   58.2240   32.9030   46.6930 C   0  0  0  0  0  0  0  0  0  0  0  0
   57.6023   34.8574   44.4981 H   0  0  0  0  0  0  0  0  0  0  0  0
   59.3411   34.7060   44.0738 H   0  0  0  0  0  0  0  0  0  0  0  0
   58.2867   33.2517   44.0738 H   0  0  0  0  0  0  0  0  0  0  0  0
   60.2410   35.6141   46.1470 H   0  0  0  0  0  0  0  0  0  0  0  0
   60.7819   35.1918   48.5427 H   0  0  0  0  0  0  0  0  0  0  0  0
   60.3502   32.2539   50.2031 H   0  0  0  0  0  0  0  0  0  0  0  0
   60.4241   34.0223   50.5318 H   0  0  0  0  0  0  0  0  0  0  0  0
   58.1470   33.9900   51.2960 H   0  0  0  0  0  0  0  0  0  0  0  0
   56.2590   32.7720   52.1780 H   0  0  0  0  0  0  0  0  0  0  0  0
   54.6935   31.1082   53.9136 H   0  0  0  0  0  0  0  0  0  0  0  0
   53.9775   31.4608   52.3068 H   0  0  0  0  0  0  0  0  0  0  0  0
   52.2803   28.8764   49.7315 H   0  0  0  0  0  0  0  0  0  0  0  0
   58.0660   31.8176   48.5601 H   0  0  0  0  0  0  0  0  0  0  0  0
   57.5068   32.2523   46.1713 H   0  0  0  0  0  0  0  0  0  0  0  0
  1  2  1  0
  2  3  2  0
  3  4  1  0
  4  5  2  0
  5  6  1  0
  6  7  1  0
  7  8  1  0
  8  9  2  0
  8 10  1  0
 10 11  1  0
 11 12  2  0
 11 13  1  0
 13 14  1  0
 14 15  1  0
 15 16  2  0
 15 17  1  0
 17 18  2  0
 18 19  1  0
 19 20  1  0
 20 21  2  0
 20 22  1  0
 22 23  1  0
 23 24  2  0
  5 25  1  0
 25 26  2  0
 26  2  1  0
 23 17  1  0
  1 27  1  0
  1 28  1  0
  1 29  1  0
  3 30  1  0
  4 31  1  0
  6 32  1  0
  6 33  1  0
  7 34  1  0
 10 35  1  0
 13 36  1  0
 13 37  1  0
 18 38  1  0
 25 39  1  0
 26 40  1  0
M  CHG  2  19  -1  22  -1
M  END
>  <UniqueID>  (57) 
54

>  <SMILES>  (57) 
Cc1ccc(CNC(=O)NC(=O)COC(=O)c2c[n-]c(=O)[n-]c2=O)cc1

>  <Energy>  (57) 
36.96266350544907

>  <Genealogy>  (57) 
Cc1ccc(CNC(=O)NC(=O)COC(=O)c2c[n-]c(=O)[n-]c2=O)cc1 (protonated)
Cc1ccc(CNC(=O)NC(=O)COC(=O)c2c[n-]c(=O)[n-]c2=O)cc1 (3D coordinates assigned)
Cc1ccc(CNC(=O)NC(=O)COC(=O)c2c[n-]c(=O)[n-]c2=O)cc1 (optimized conformer: 36.96266350544907 kcal/mol)

>  <smiles>  (57) 
Cc1ccc(CNC(=O)NC(=O)COC(=O)c2c[nH]c(=O)[nH]c2=O)cc1

>  <score_type>  (57) 
oracle

>  <origin>  (57) 
adg

>  <m_score__min__energy>  (57) 
-13.65

>  <m_primary>  (57) 
energy

$$$$
57:0
     RDKit          3D

 21 22  0  0  0  0  0  0  0  0999 V2000
   58.1490   27.0940   43.0370 C   0  0  0  0  0  0  0  0  0  0  0  0
   58.7710   27.6630   44.0730 C   0  0  0  0  0  0  0  0  0  0  0  0
   58.0230   28.1000   45.3020 C   0  0  0  0  0  0  0  0  0  0  0  0
   57.8220   29.5620   45.2960 N   0  0  0  0  0  0  0  0  0  0  0  0
   56.6170   30.0900   44.8740 C   0  0  0  0  0  0  0  0  0  0  0  0
   55.6780   29.3310   44.5070 O   0  0  0  0  0  0  0  0  0  0  0  0
   56.4220   31.4080   44.8450 O   0  0  0  0  0  0  0  0  0  0  0  0
   57.3840   32.2320   45.2160 C   0  0  0  0  0  0  0  0  0  0  0  0
   57.3370   33.9070   45.2480 S   0  0  0  0  0  0  0  0  0  0  0  0
   58.9220   34.0810   45.8180 C   0  0  0  0  0  0  0  0  0  0  0  0
   59.4920   32.8190   45.9830 C   0  0  0  0  0  0  0  0  0  0  0  0
   58.6110   31.7860   45.6390 C   0  0  0  0  0  0  0  0  0  0  0  0
   58.8360   30.4140   45.6780 C   0  0  0  0  0  0  0  0  0  0  0  0
   59.9540   29.9690   46.0570 O   0  0  0  0  0  0  0  0  0  0  0  0
   58.7246   26.7852   42.1519 H   0  0  0  0  0  0  0  0  0  0  0  0
   57.0611   26.9342   43.0688 H   0  0  0  0  0  0  0  0  0  0  0  0
   59.8593   27.8160   44.0259 H   0  0  0  0  0  0  0  0  0  0  0  0
   57.0432   27.6006   45.3254 H   0  0  0  0  0  0  0  0  0  0  0  0
   58.6110   27.8268   46.1906 H   0  0  0  0  0  0  0  0  0  0  0  0
   59.4228   35.0382   46.0253 H   0  0  0  0  0  0  0  0  0  0  0  0
   60.5182   32.6535   46.3429 H   0  0  0  0  0  0  0  0  0  0  0  0
  1  2  2  0
  2  3  1  0
  3  4  1  0
  4  5  1  0
  5  6  2  0
  5  7  1  0
  7  8  1  0
  8  9  1  0
  9 10  1  0
 10 11  2  0
 11 12  1  0
 12 13  1  0
 13 14  2  0
 13  4  1  0
 12  8  2  0
  1 15  1  0
  1 16  1  0
  2 17  1  0
  3 18  1  0
  3 19  1  0
 10 20  1  0
 11 21  1  0
M  END
>  <UniqueID>  (58) 
55

>  <SMILES>  (58) 
C=CCn1c(=O)oc2sccc2c1=O

>  <Energy>  (58) 
55.81878829327371

>  <Genealogy>  (58) 
C=CCn1c(=O)oc2sccc2c1=O (3D coordinates assigned)
C=CCn1c(=O)oc2sccc2c1=O (optimized conformer: 55.81878829327371 kcal/mol)

>  <smiles>  (58) 
C=CCn1c(=O)oc2sccc2c1=O

>  <score_type>  (58) 
oracle

>  <origin>  (58) 
adg

>  <m_score__min__energy>  (58) 
-5.46

>  <m_primary>  (58) 
energy

$$$$
58:0
     RDKit          3D

 60 64  0  0  0  0  0  0  0  0999 V2000
   57.7960   31.8760   42.4090 O   0  0  0  0  0  0  0  0  0  0  0  0
   57.1120   31.3570   43.3300 C   0  0  0  0  0  0  0  0  0  0  0  0
   56.4370   30.0340   43.0840 C   0  0  0  0  0  0  0  0  0  0  0  0
   56.8240   28.9630   44.0270 N   0  0  0  0  0  0  0  0  0  0  0  0
   57.9460   28.0960   43.6350 C   0  0  0  0  0  0  0  0  0  0  0  0
   59.2960   28.5880   44.1810 C   0  0  0  0  0  0  0  0  0  0  0  0
   59.2470   28.9300   45.6120 N   0  0  0  0  0  0  0  0  0  0  0  0
   59.6800   27.8870   46.5660 C   0  0  0  0  0  0  0  0  0  0  0  0
   58.9240   26.5890   46.4410 C   0  0  0  0  0  0  0  0  0  0  0  0
   59.6000   25.4030   46.0470 C   0  0  0  0  0  0  0  0  0  0  0  0
   58.9040   24.1880   45.9360 C   0  0  0  0  0  0  0  0  0  0  0  0
   57.5350   24.1950   46.1940 C   0  0  0  0  0  0  0  0  0  0  0  0
   56.8770   25.3280   46.5400 C   0  0  0  0  0  0  0  0  0  0  0  0
   57.5290   26.5520   46.6690 C   0  0  0  0  0  0  0  0  0  0  0  0
   55.5420   25.0410   46.7330 O   0  0  0  0  0  0  0  0  0  0  0  0
   55.3510   23.6360   46.5050 C   0  0  0  0  0  0  0  0  0  0  0  0
   56.6440   23.1380   46.1550 O   0  0  0  0  0  0  0  0  0  0  0  0
   58.1110   29.7760   46.0160 C   0  0  0  0  0  0  0  0  0  0  0  0
   56.7690   29.2830   45.4600 C   0  0  0  0  0  0  0  0  0  0  0  0
   56.9740   32.0030   44.6050 N   0  0  0  0  0  0  0  0  0  0  0  0
   57.9270   32.9130   45.1890 C   0  0  0  0  0  0  0  0  0  0  0  0
   58.2400   34.0970   44.4970 C   0  0  0  0  0  0  0  0  0  0  0  0
   59.1300   35.0290   45.0390 C   0  0  0  0  0  0  0  0  0  0  0  0
   59.7060   34.7970   46.2890 C   0  0  0  0  0  0  0  0  0  0  0  0
   59.4160   33.6260   46.9920 C   0  0  0  0  0  0  0  0  0  0  0  0
   60.0010   33.4390   48.2520 O   0  0  0  0  0  0  0  0  0  0  0  0
   61.3810   33.3130   48.4970 C   0  0  0  0  0  0  0  0  0  0  0  0
   62.1990   32.7690   47.4940 C   0  0  0  0  0  0  0  0  0  0  0  0
   63.5770   32.6850   47.6760 C   0  0  0  0  0  0  0  0  0  0  0  0
   64.1570   33.1460   48.8600 C   0  0  0  0  0  0  0  0  0  0  0  0
   63.3530   33.6910   49.8660 C   0  0  0  0  0  0  0  0  0  0  0  0
   61.9720   33.7780   49.6880 C   0  0  0  0  0  0  0  0  0  0  0  0
   58.5680   32.6620   46.4170 C   0  0  0  0  0  0  0  0  0  0  0  0
   55.3499   30.1834   43.1613 H   0  0  0  0  0  0  0  0  0  0  0  0
   56.7558   29.7013   42.0852 H   0  0  0  0  0  0  0  0  0  0  0  0
   57.7589   27.0828   44.0204 H   0  0  0  0  0  0  0  0  0  0  0  0
   58.0076   28.1091   42.5368 H   0  0  0  0  0  0  0  0  0  0  0  0
   60.0433   27.7941   44.0356 H   0  0  0  0  0  0  0  0  0  0  0  0
   59.5588   29.5044   43.6323 H   0  0  0  0  0  0  0  0  0  0  0  0
   60.7473   27.6834   46.3948 H   0  0  0  0  0  0  0  0  0  0  0  0
   59.4792   28.2760   47.5751 H   0  0  0  0  0  0  0  0  0  0  0  0
   60.6773   25.4366   45.8271 H   0  0  0  0  0  0  0  0  0  0  0  0
   59.4235   23.2602   45.6542 H   0  0  0  0  0  0  0  0  0  0  0  0
   56.9751   27.4629   46.9402 H   0  0  0  0  0  0  0  0  0  0  0  0
   54.9808   23.1434   47.4162 H   0  0  0  0  0  0  0  0  0  0  0  0
   54.6073   23.4429   45.7178 H   0  0  0  0  0  0  0  0  0  0  0  0
   58.0535   29.7845   47.1145 H   0  0  0  0  0  0  0  0  0  0  0  0
   58.2875   30.7815   45.6063 H   0  0  0  0  0  0  0  0  0  0  0  0
   56.4729   28.3777   46.0102 H   0  0  0  0  0  0  0  0  0  0  0  0
   56.0408   30.0976   45.5875 H   0  0  0  0  0  0  0  0  0  0  0  0
   56.2670   31.5930   45.2570 H   0  0  0  0  0  0  0  0  0  0  0  0
   57.7789   34.2919   43.5175 H   0  0  0  0  0  0  0  0  0  0  0  0
   59.3761   35.9443   44.4808 H   0  0  0  0  0  0  0  0  0  0  0  0
   60.3916   35.5401   46.7223 H   0  0  0  0  0  0  0  0  0  0  0  0
   61.7484   32.4067   46.5582 H   0  0  0  0  0  0  0  0  0  0  0  0
   64.2099   32.2548   46.8858 H   0  0  0  0  0  0  0  0  0  0  0  0
   65.2459   33.0804   49.0011 H   0  0  0  0  0  0  0  0  0  0  0  0
   63.8102   34.0517   50.7992 H   0  0  0  0  0  0  0  0  0  0  0  0
   61.3430   34.2109   50.4798 H   0  0  0  0  0  0  0  0  0  0  0  0
   58.4043   31.7036   46.9315 H   0  0  0  0  0  0  0  0  0  0  0  0
  1  2  2  0
  2  3  1  0
  3  4  1  0
  4  5  1  0
  5  6  1  0
  6  7  1  0
  7  8  1  0
  8  9  1  0
  9 10  2  0
 10 11  1  0
 11 12  2  0
 12 13  1  0
 13 14  2  0
 13 15  1  0
 15 16  1  0
 16 17  1  0
  7 18  1  0
 18 19  1  0
  2 20  1  0
 20 21  1  0
 21 22  2  0
 22 23  1  0
 23 24  2  0
 24 25  1  0
 25 26  1  0
 26 27  1  0
 27 28  2  0
 28 29  1  0
 29 30  2  0
 30 31  1  0
 31 32  2  0
 25 33  2  0
 19  4  1  0
 33 21  1  0
 14  9  1  0
 32 27  1  0
 17 12  1  0
  3 34  1  0
  3 35  1  0
  5 36  1  0
  5 37  1  0
  6 38  1  0
  6 39  1  0
  8 40  1  0
  8 41  1  0
 10 42  1  0
 11 43  1  0
 14 44  1  0
 16 45  1  0
 16 46  1  0
 18 47  1  0
 18 48  1  0
 19 49  1  0
 19 50  1  0
 20 51  1  0
 22 52  1  0
 23 53  1  0
 24 54  1  0
 28 55  1  0
 29 56  1  0
 30 57  1  0
 31 58  1  0
 32 59  1  0
 33 60  1  0
M  END
>  <UniqueID>  (59) 
56

>  <SMILES>  (59) 
O=C(CN1CCN(Cc2ccc3c(c2)OCO3)CC1)Nc1cccc(Oc2ccccc2)c1

>  <Energy>  (59) 
122.42713279694625

>  <Genealogy>  (59) 
O=C(CN1CCN(Cc2ccc3c(c2)OCO3)CC1)Nc1cccc(Oc2ccccc2)c1 (3D coordinates assigned)
O=C(CN1CCN(Cc2ccc3c(c2)OCO3)CC1)Nc1cccc(Oc2ccccc2)c1 (nonaromatic ring conformer: 122.42713279694625 kcal/mol)

>  <smiles>  (59) 
O=C(CN1CCN(Cc2ccc3c(c2)OCO3)CC1)Nc1cccc(Oc2ccccc2)c1

>  <score_type>  (59) 
oracle

>  <origin>  (59) 
adg

>  <m_score__min__energy>  (59) 
-10.199999999999999

>  <m_primary>  (59) 
energy

$$$$
59:0
     RDKit          3D

 30 31  0  0  0  0  0  0  0  0999 V2000
   57.0732   25.5402   46.6925 H   0  0  0  0  0  0  0  0  0  0  0  0
   57.0760   26.5670   46.2980 C   0  0  0  0  0  0  0  0  0  0  0  0
   58.2000   27.3260   46.3700 N   0  0  0  0  0  0  0  0  0  0  0  0
   58.2350   28.5980   45.8810 C   0  0  0  0  0  0  0  0  0  0  0  0
   59.3110   29.3270   45.9660 N   0  0  0  0  0  0  0  0  0  0  0  0
   59.8660   29.9310   47.1460 C   0  0  0  0  0  0  0  0  0  0  0  0
   59.6340   29.3950   48.2620 O   0  0  0  0  0  0  0  0  0  0  0  0
   60.6530   31.2150   47.1070 C   0  0  0  0  0  0  0  0  0  0  0  0
   61.6641   31.0110   46.7248 H   0  0  0  0  0  0  0  0  0  0  0  0
   60.1422   31.9316   46.4470 H   0  0  0  0  0  0  0  0  0  0  0  0
   60.7490   31.7850   48.4530 N   0  0  0  0  0  0  0  0  0  0  0  0
   60.2200   33.4430   48.4660 S   0  0  0  0  0  0  0  0  0  0  0  0
   61.4210   34.3480   48.4290 O   0  0  0  0  0  0  0  0  0  0  0  0
   59.4670   33.7090   49.7390 O   0  0  0  0  0  0  0  0  0  0  0  0
   59.1670   33.7850   47.0940 C   0  0  0  0  0  0  0  0  0  0  0  0
   59.6370   34.5370   46.0050 C   0  0  0  0  0  0  0  0  0  0  0  0
   60.6585   34.9449   46.0194 H   0  0  0  0  0  0  0  0  0  0  0  0
   58.8090   34.7680   44.9030 C   0  0  0  0  0  0  0  0  0  0  0  0
   59.1787   35.3599   44.0527 H   0  0  0  0  0  0  0  0  0  0  0  0
   57.5120   34.2480   44.8800 C   0  0  0  0  0  0  0  0  0  0  0  0
   56.8624   34.4290   44.0109 H   0  0  0  0  0  0  0  0  0  0  0  0
   57.0400   33.4980   45.9610 C   0  0  0  0  0  0  0  0  0  0  0  0
   56.0184   33.0905   45.9426 H   0  0  0  0  0  0  0  0  0  0  0  0
   57.8650   33.2650   47.0660 C   0  0  0  0  0  0  0  0  0  0  0  0
   57.4919   32.6728   47.9146 H   0  0  0  0  0  0  0  0  0  0  0  0
   57.0700   29.1350   45.3110 C   0  0  0  0  0  0  0  0  0  0  0  0
   57.0530   30.3130   44.8610 O   0  0  0  0  0  0  0  0  0  0  0  0
   55.9460   28.3730   45.2410 N   0  0  0  0  0  0  0  0  0  0  0  0
   55.9250   27.1020   45.7190 C   0  0  0  0  0  0  0  0  0  0  0  0
   54.7630   26.3450   45.6340 O   0  0  0  0  0  0  0  0  0  0  0  0
  1  2  1  0
  2  3  1  0
  3  4  1  0
  4  5  2  0
  5  6  1  0
  6  7  2  0
  6  8  1  0
  8  9  1  0
  8 10  1  0
  8 11  1  0
 11 12  1  0
 12 13  2  0
 12 14  2  0
 12 15  1  0
 15 16  2  0
 16 17  1  0
 16 18  1  0
 18 19  1  0
 18 20  2  0
 20 21  1  0
 20 22  1  0
 22 23  1  0
 22 24  2  0
 24 25  1  0
  4 26  1  0
 26 27  2  0
 26 28  1  0
 28 29  1  0
 29 30  1  0
 29  2  2  0
 24 15  1  0
M  CHG  4   3  -1  11  -1  28  -1  30  -1
M  END
>  <UniqueID>  (60) 
57

>  <SMILES>  (60) 
O=C(C[N-]S(=O)(=O)c1ccccc1)/N=c1\[n-]cc([O-])[n-]c1=O

>  <Energy>  (60) 
35.43861614009032

>  <Genealogy>  (60) 
O=C(C[N-]S(=O)(=O)c1ccccc1)N=c1[n-]cc([O-])[n-]c1=O (protonated)
O=C(C[N-]S(=O)(=O)c1ccccc1)/N=c1\[n-]cc([O-])[n-]c1=O (cis-trans isomerization)
O=C(C[N-]S(=O)(=O)c1ccccc1)/N=c1\[n-]cc([O-])[n-]c1=O (3D coordinates assigned)
O=C(C[N-]S(=O)(=O)c1ccccc1)/N=c1\[n-]cc([O-])[n-]c1=O (optimized conformer: 35.43861614009032 kcal/mol)

>  <smiles>  (60) 
O=C(CNS(=O)(=O)c1ccccc1)N=c1[nH]cc(O)[nH]c1=O

>  <score_type>  (60) 
oracle

>  <origin>  (60) 
adg

>  <m_score__min__energy>  (60) 
-15.57

>  <m_primary>  (60) 
energy

$$$$
60:0
     RDKit          3D

 50 52  0  0  0  0  0  0  0  0999 V2000
   57.8438   32.2392   48.9136 H   0  0  0  0  0  0  0  0  0  0  0  0
   58.2500   31.4040   49.5030 C   0  0  0  0  0  0  0  0  0  0  0  0
   58.7730   30.2390   48.7580 C   0  0  0  0  0  0  0  0  0  0  0  0
   59.5910   29.4720   49.3320 O   0  0  0  0  0  0  0  0  0  0  0  0
   58.4500   30.0360   47.3730 N   0  0  0  0  0  0  0  0  0  0  0  0
   58.1010   30.8570   46.8330 H   0  0  0  0  0  0  0  0  0  0  0  0
   58.4850   28.7490   46.7240 C   0  0  0  0  0  0  0  0  0  0  0  0
   59.4060   27.7740   47.1560 C   0  0  0  0  0  0  0  0  0  0  0  0
   60.1806   28.0455   47.8883 H   0  0  0  0  0  0  0  0  0  0  0  0
   59.3480   26.4690   46.6670 C   0  0  0  0  0  0  0  0  0  0  0  0
   60.0795   25.7212   47.0072 H   0  0  0  0  0  0  0  0  0  0  0  0
   58.3650   26.1130   45.7490 C   0  0  0  0  0  0  0  0  0  0  0  0
   58.3095   25.0790   45.3777 H   0  0  0  0  0  0  0  0  0  0  0  0
   57.4510   27.0630   45.2990 C   0  0  0  0  0  0  0  0  0  0  0  0
   56.6799   26.7718   44.5706 H   0  0  0  0  0  0  0  0  0  0  0  0
   57.5010   28.3910   45.7640 C   0  0  0  0  0  0  0  0  0  0  0  0
   56.5410   29.3760   45.2080 C   0  0  0  0  0  0  0  0  0  0  0  0
   56.8760   30.5840   45.0770 O   0  0  0  0  0  0  0  0  0  0  0  0
   55.2440   29.0030   44.8770 O   0  0  0  0  0  0  0  0  0  0  0  0
   58.2300   31.5270   50.8480 C   0  0  0  0  0  0  0  0  0  0  0  0
   56.9710   31.6210   51.6240 C   0  0  0  0  0  0  0  0  0  0  0  0
   56.8200   32.5550   52.4560 O   0  0  0  0  0  0  0  0  0  0  0  0
   55.9690   30.6060   51.4920 N   0  0  0  0  0  0  0  0  0  0  0  0
   54.6440   30.6520   52.0430 C   0  0  0  0  0  0  0  0  0  0  0  0
   53.6680   31.5250   51.5280 C   0  0  0  0  0  0  0  0  0  0  0  0
   53.9491   32.2669   50.7661 H   0  0  0  0  0  0  0  0  0  0  0  0
   52.3370   31.4590   51.9770 C   0  0  0  0  0  0  0  0  0  0  0  0
   51.3000   32.3380   51.3920 C   0  0  0  0  0  0  0  0  0  0  0  0
   50.3130   32.7090   52.0790 O   0  0  0  0  0  0  0  0  0  0  0  0
   51.4060   32.7690   50.0740 O   0  0  0  0  0  0  0  0  0  0  0  0
   51.9950   30.5220   52.9650 C   0  0  0  0  0  0  0  0  0  0  0  0
   50.9591   30.4669   53.3308 H   0  0  0  0  0  0  0  0  0  0  0  0
   52.9610   29.6600   53.4860 C   0  0  0  0  0  0  0  0  0  0  0  0
   52.6848   28.9363   54.2670 H   0  0  0  0  0  0  0  0  0  0  0  0
   54.2780   29.7120   53.0200 C   0  0  0  0  0  0  0  0  0  0  0  0
   55.4540   28.5660   53.6500 Cl  0  0  0  0  0  0  0  0  0  0  0  0
   59.5310   31.4420   51.6080 C   0  0  0  0  0  0  0  0  0  0  0  0
   59.4272   31.9748   52.5647 H   0  0  0  0  0  0  0  0  0  0  0  0
   59.7700   30.3836   51.7885 H   0  0  0  0  0  0  0  0  0  0  0  0
   60.6460   32.0650   50.8120 C   0  0  0  0  0  0  0  0  0  0  0  0
   61.7570   31.2980   50.4290 C   0  0  0  0  0  0  0  0  0  0  0  0
   61.8049   30.2316   50.6946 H   0  0  0  0  0  0  0  0  0  0  0  0
   62.8030   31.8850   49.7110 C   0  0  0  0  0  0  0  0  0  0  0  0
   63.6702   31.2792   49.4093 H   0  0  0  0  0  0  0  0  0  0  0  0
   62.7480   33.2410   49.3760 C   0  0  0  0  0  0  0  0  0  0  0  0
   63.5680   33.6989   48.8034 H   0  0  0  0  0  0  0  0  0  0  0  0
   61.6540   34.0150   49.7670 C   0  0  0  0  0  0  0  0  0  0  0  0
   61.6157   35.0832   49.5074 H   0  0  0  0  0  0  0  0  0  0  0  0
   60.6060   33.4330   50.4890 C   0  0  0  0  0  0  0  0  0  0  0  0
   59.7494   34.0468   50.8044 H   0  0  0  0  0  0  0  0  0  0  0  0
  1  2  1  0
  2  3  1  0
  3  4  2  0
  3  5  1  0
  5  6  1  0
  5  7  1  0
  7  8  2  0
  8  9  1  0
  8 10  1  0
 10 11  1  0
 10 12  2  0
 12 13  1  0
 12 14  1  0
 14 15  1  0
 14 16  2  0
 16 17  1  0
 17 18  2  0
 17 19  1  0
  2 20  2  0
 20 21  1  0
 21 22  2  0
 21 23  1  0
 23 24  1  0
 24 25  2  0
 25 26  1  0
 25 27  1  0
 27 28  1  0
 28 29  2  0
 28 30  1  0
 27 31  2  0
 31 32  1  0
 31 33  1  0
 33 34  1  0
 33 35  2  0
 35 36  1  0
 20 37  1  0
 37 38  1  0
 37 39  1  0
 37 40  1  0
 40 41  2  0
 41 42  1  0
 41 43  1  0
 43 44  1  0
 43 45  2  0
 45 46  1  0
 45 47  1  0
 47 48  1  0
 47 49  2  0
 49 50  1  0
 16  7  1  0
 35 24  1  0
 49 40  1  0
M  CHG  3  19  -1  23  -1  30  -1
M  END
>  <UniqueID>  (61) 
58

>  <SMILES>  (61) 
O=C(/C=C(/Cc1ccccc1)C(=O)[N-]c1cc(C(=O)[O-])ccc1Cl)Nc1ccccc1C(=O)[O-]

>  <Energy>  (61) 
65.84867725097179

>  <Genealogy>  (61) 
O=C(C=C(Cc1ccccc1)C(=O)[N-]c1cc(C(=O)[O-])ccc1Cl)Nc1ccccc1C(=O)[O-] (protonated)
O=C(/C=C(/Cc1ccccc1)C(=O)[N-]c1cc(C(=O)[O-])ccc1Cl)Nc1ccccc1C(=O)[O-] (cis-trans isomerization)
O=C(/C=C(/Cc1ccccc1)C(=O)[N-]c1cc(C(=O)[O-])ccc1Cl)Nc1ccccc1C(=O)[O-] (3D coordinates assigned)
O=C(/C=C(/Cc1ccccc1)C(=O)[N-]c1cc(C(=O)[O-])ccc1Cl)Nc1ccccc1C(=O)[O-] (optimized conformer: 65.84867725097179 kcal/mol)

>  <smiles>  (61) 
O=C(C=C(Cc1ccccc1)C(=O)Nc1cc(C(=O)O)ccc1Cl)Nc1ccccc1C(=O)O

>  <score_type>  (61) 
oracle

>  <origin>  (61) 
adg

>  <m_score__min__energy>  (61) 
-16.170000000000002

>  <m_primary>  (61) 
energy

$$$$
61:0
     RDKit          3D

 52 55  0  0  1  0  0  0  0  0999 V2000
   50.4650   24.4950   44.1360 C   0  0  0  0  0  0  0  0  0  0  0  0
   51.7640   24.6770   44.7780 N   0  0  0  0  0  0  0  0  0  0  0  0
   52.3620   23.5280   45.3620 C   0  0  0  0  0  0  0  0  0  0  0  0
   51.7910   22.4070   45.3250 O   0  0  0  0  0  0  0  0  0  0  0  0
   53.6850   23.7100   46.0170 C   0  0  0  0  0  0  0  0  0  0  0  0
   54.2860   24.9730   45.6520 N   0  0  0  0  0  0  0  0  0  0  0  0
   55.5690   25.0760   45.6170 C   0  0  0  0  0  0  0  0  0  0  0  0
   56.1220   25.8760   46.5690 N   0  0  0  0  0  0  0  0  0  0  0  0
   57.4700   26.0350   46.5980 C   0  0  0  0  0  0  0  0  0  0  0  0
   57.9690   26.8600   47.5880 O   0  0  0  0  0  0  0  0  0  0  0  0
   58.1990   28.1890   47.3540 C   0  0  0  0  0  0  0  0  0  0  0  0
   58.8450   29.0530   48.1880 C   0  0  0  0  0  0  0  0  0  0  0  0
   59.0380   30.3840   47.8810 C   0  0  0  0  0  0  0  0  0  0  0  0
   58.5740   30.9080   46.6920 C   0  0  0  0  0  0  0  0  0  0  0  0
   57.9200   30.0330   45.8500 C   0  0  0  0  0  0  0  0  0  0  0  0
   57.7240   28.7100   46.1450 C   0  0  0  0  0  0  0  0  0  0  0  0
   57.4440   30.4860   44.6340 C   0  0  0  0  0  0  0  0  0  0  0  0
   56.8440   29.7570   43.8170 O   0  0  0  0  0  0  0  0  0  0  0  0
   57.6620   31.7850   44.3580 N   0  0  0  0  0  0  0  0  0  0  0  0
   58.3030   32.6210   45.1980 C   0  0  0  0  0  0  0  0  0  0  0  0
   58.4320   33.8100   44.8020 O   0  0  0  0  0  0  0  0  0  0  0  0
   58.7850   32.2070   46.4080 N   0  0  0  0  0  0  0  0  0  0  0  0
   59.4650   33.1230   47.2800 C   0  0  0  0  0  0  0  0  0  0  0  0
   60.9360   33.0000   47.2310 C   0  0  0  0  0  0  0  0  0  0  0  0
   61.6800   33.9050   46.4610 C   0  0  0  0  0  0  0  0  0  0  0  0
   63.0480   33.8500   46.3750 C   0  0  0  0  0  0  0  0  0  0  0  0
   63.7680   32.8970   47.0430 C   0  0  0  0  0  0  0  0  0  0  0  0
   63.0700   31.9930   47.8070 C   0  0  0  0  0  0  0  0  0  0  0  0
   61.6720   32.0490   47.8950 C   0  0  0  0  0  0  0  0  0  0  0  0
   58.3090   25.4150   45.6970 C   0  0  0  0  0  0  0  0  0  0  0  0
   57.6850   24.6050   44.7400 C   0  0  0  0  0  0  0  0  0  0  0  0
   56.3470   24.4500   44.7170 N   0  0  0  0  0  0  0  0  0  0  0  0
   49.6873   24.3860   44.9063 H   0  0  0  0  0  0  0  0  0  0  0  0
   50.2400   25.3704   43.5091 H   0  0  0  0  0  0  0  0  0  0  0  0
   50.4892   23.5915   43.5091 H   0  0  0  0  0  0  0  0  0  0  0  0
   52.2460   25.5960   44.8150 H   0  0  0  0  0  0  0  0  0  0  0  0
   53.5510   23.6798   47.1084 H   0  0  0  0  0  0  0  0  0  0  0  0
   54.3507   22.9008   45.6824 H   0  0  0  0  0  0  0  0  0  0  0  0
   59.2285   28.6725   49.1462 H   0  0  0  0  0  0  0  0  0  0  0  0
   59.5678   31.0349   48.5921 H   0  0  0  0  0  0  0  0  0  0  0  0
   57.1948   28.0588   45.4338 H   0  0  0  0  0  0  0  0  0  0  0  0
   57.3030   32.1270   43.4380 H   0  0  0  0  0  0  0  0  0  0  0  0
   59.1913   34.1482   46.9900 H   0  0  0  0  0  0  0  0  0  0  0  0
   59.1540   32.8834   48.3076 H   0  0  0  0  0  0  0  0  0  0  0  0
   61.1463   34.6894   45.9044 H   0  0  0  0  0  0  0  0  0  0  0  0
   63.5780   34.5883   45.7553 H   0  0  0  0  0  0  0  0  0  0  0  0
   64.8649   32.8562   46.9710 H   0  0  0  0  0  0  0  0  0  0  0  0
   63.6165   31.2134   48.3580 H   0  0  0  0  0  0  0  0  0  0  0  0
   61.1476   31.3076   48.5157 H   0  0  0  0  0  0  0  0  0  0  0  0
   59.4005   25.5481   45.7278 H   0  0  0  0  0  0  0  0  0  0  0  0
   58.3003   24.0844   43.9914 H   0  0  0  0  0  0  0  0  0  0  0  0
   55.8850   23.8330   43.9870 H   0  0  0  0  0  0  0  0  0  0  0  0
  1  2  1  0
  2  3  1  0
  3  4  2  0
  3  5  1  0
  5  6  1  0
  6  7  2  0
  7  8  1  0
  8  9  2  0
  9 10  1  0
 10 11  1  0
 11 12  2  0
 12 13  1  0
 13 14  2  0
 14 15  1  0
 15 16  2  0
 15 17  1  0
 17 18  2  0
 17 19  1  0
 19 20  1  0
 20 21  2  0
 20 22  1  0
 22 23  1  0
 23 24  1  0
 24 25  2  0
 25 26  1  0
 26 27  2  0
 27 28  1  0
 28 29  2  0
  9 30  1  0
 30 31  2  0
 31 32  1  0
 32  7  1  0
 16 11  1  0
 29 24  1  0
 22 14  1  0
  1 33  1  0
  1 34  1  0
  1 35  1  0
  2 36  1  0
  5 37  1  0
  5 38  1  0
 12 39  1  0
 13 40  1  0
 16 41  1  0
 19 42  1  0
 23 43  1  0
 23 44  1  0
 25 45  1  0
 26 46  1  0
 27 47  1  0
 28 48  1  0
 29 49  1  0
 30 50  1  0
 31 51  1  0
 32 52  1  0
M  END
>  <smiles>  (62) 
CNC(=O)CN=c1nc(Oc2ccc3c(c2)c(=O)[nH]c(=O)n3Cc2ccccc2)cc[nH]1

>  <score_type>  (62) 
oracle

>  <origin>  (62) 
adg

>  <m_score__min__energy>  (62) 
-8.4199999999999999

>  <m_primary>  (62) 
energy

$$$$
62:0
     RDKit          3D

 51 54  0  0  0  0  0  0  0  0999 V2000
   57.6240   32.2540   44.0560 C   0  0  0  0  0  0  0  0  0  0  0  0
   57.8200   33.6240   44.5560 N   0  0  0  0  0  0  0  0  0  0  0  0
   59.2610   33.9650   44.5770 C   0  0  0  0  0  0  0  0  0  0  0  0
   59.5450   35.1180   45.5480 C   0  0  0  0  0  0  0  0  0  0  0  0
   59.1900   34.7710   46.9490 N   0  0  0  0  0  0  0  0  0  0  0  0
   60.3860   34.3850   47.7330 C   0  0  0  0  0  0  0  0  0  0  0  0
   61.3280   33.4810   46.9280 C   0  0  0  0  0  0  0  0  0  0  0  0
   60.9850   32.0750   47.1220 N   0  0  0  0  0  0  0  0  0  0  0  0
   59.9970   31.3970   46.5110 C   0  0  0  0  0  0  0  0  0  0  0  0
   60.0930   30.0850   46.9450 C   0  0  0  0  0  0  0  0  0  0  0  0
   59.2320   28.9420   46.5530 C   0  0  0  0  0  0  0  0  0  0  0  0
   58.3950   29.0300   45.4280 C   0  0  0  0  0  0  0  0  0  0  0  0
   57.5830   27.9540   45.0580 C   0  0  0  0  0  0  0  0  0  0  0  0
   57.5830   26.7650   45.8070 C   0  0  0  0  0  0  0  0  0  0  0  0
   56.7180   25.6310   45.3930 C   0  0  0  0  0  0  0  0  0  0  0  0
   57.1260   24.7090   44.4090 C   0  0  0  0  0  0  0  0  0  0  0  0
   56.2770   23.6570   44.0570 C   0  0  0  0  0  0  0  0  0  0  0  0
   55.0380   23.5230   44.6820 C   0  0  0  0  0  0  0  0  0  0  0  0
   54.6650   24.4450   45.6600 C   0  0  0  0  0  0  0  0  0  0  0  0
   55.5030   25.4640   45.9900 N   0  0  0  0  0  0  0  0  0  0  0  0
   58.4300   26.6720   46.9250 C   0  0  0  0  0  0  0  0  0  0  0  0
   59.2420   27.7480   47.2950 C   0  0  0  0  0  0  0  0  0  0  0  0
   61.1390   30.0270   47.7980 N   0  0  0  0  0  0  0  0  0  0  0  0
   61.6660   31.2370   47.8870 N   0  0  0  0  0  0  0  0  0  0  0  0
   58.1220   33.7430   47.0430 C   0  0  0  0  0  0  0  0  0  0  0  0
   57.1440   33.8270   45.8610 C   0  0  0  0  0  0  0  0  0  0  0  0
   57.5253   31.5638   44.9068 H   0  0  0  0  0  0  0  0  0  0  0  0
   56.7110   32.2142   43.4437 H   0  0  0  0  0  0  0  0  0  0  0  0
   58.4892   31.9598   43.4437 H   0  0  0  0  0  0  0  0  0  0  0  0
   59.8342   33.0808   44.8927 H   0  0  0  0  0  0  0  0  0  0  0  0
   59.5587   34.2802   43.5660 H   0  0  0  0  0  0  0  0  0  0  0  0
   60.6165   35.3626   45.5041 H   0  0  0  0  0  0  0  0  0  0  0  0
   58.9264   35.9756   45.2449 H   0  0  0  0  0  0  0  0  0  0  0  0
   60.9296   35.2957   48.0246 H   0  0  0  0  0  0  0  0  0  0  0  0
   60.0486   33.8253   48.6178 H   0  0  0  0  0  0  0  0  0  0  0  0
   61.2418   33.7296   45.8599 H   0  0  0  0  0  0  0  0  0  0  0  0
   62.3585   33.6449   47.2761 H   0  0  0  0  0  0  0  0  0  0  0  0
   59.2580   31.8043   45.8053 H   0  0  0  0  0  0  0  0  0  0  0  0
   58.3785   29.9547   44.8325 H   0  0  0  0  0  0  0  0  0  0  0  0
   56.9374   28.0389   44.1714 H   0  0  0  0  0  0  0  0  0  0  0  0
   58.1061   24.8167   43.9214 H   0  0  0  0  0  0  0  0  0  0  0  0
   56.5859   22.9347   43.2870 H   0  0  0  0  0  0  0  0  0  0  0  0
   54.3623   22.6997   44.4070 H   0  0  0  0  0  0  0  0  0  0  0  0
   53.6924   24.3478   46.1646 H   0  0  0  0  0  0  0  0  0  0  0  0
   58.4541   25.7435   47.5144 H   0  0  0  0  0  0  0  0  0  0  0  0
   59.8953   27.6596   48.1755 H   0  0  0  0  0  0  0  0  0  0  0  0
   61.4930   29.1970   48.3220 H   0  0  0  0  0  0  0  0  0  0  0  0
   58.5869   32.7461   47.0504 H   0  0  0  0  0  0  0  0  0  0  0  0
   57.5557   33.9218   47.9689 H   0  0  0  0  0  0  0  0  0  0  0  0
   56.3727   33.0525   45.9842 H   0  0  0  0  0  0  0  0  0  0  0  0
   56.7039   34.8351   45.8591 H   0  0  0  0  0  0  0  0  0  0  0  0
  1  2  1  0
  2  3  1  0
  3  4  1  0
  4  5  1  0
  5  6  1  0
  6  7  1  0
  7  8  1  0
  8  9  1  0
  9 10  2  0
 10 11  1  0
 11 12  2  0
 12 13  1  0
 13 14  2  0
 14 15  1  0
 15 16  2  0
 16 17  1  0
 17 18  2  0
 18 19  1  0
 19 20  2  0
 14 21  1  0
 21 22  2  0
 10 23  1  0
 23 24  2  0
  5 25  1  0
 25 26  1  0
 26  2  1  0
 24  8  1  0
 22 11  1  0
 20 15  1  0
  1 27  1  0
  1 28  1  0
  1 29  1  0
  3 30  1  0
  3 31  1  0
  4 32  1  0
  4 33  1  0
  6 34  1  0
  6 35  1  0
  7 36  1  0
  7 37  1  0
  9 38  1  0
 12 39  1  0
 13 40  1  0
 16 41  1  0
 17 42  1  0
 18 43  1  0
 19 44  1  0
 21 45  1  0
 22 46  1  0
 23 47  1  0
 25 48  1  0
 25 49  1  0
 26 50  1  0
 26 51  1  0
M  CHG  1  23   1
M  END
>  <UniqueID>  (63) 
59

>  <SMILES>  (63) 
CN1CCN(CCn2cc(-c3ccc(-c4ccccn4)cc3)[nH+]n2)CC1

>  <Energy>  (63) 
106.44420678509273

>  <Genealogy>  (63) 
CN1CCN(CCn2cc(-c3ccc(-c4ccccn4)cc3)[nH+]n2)CC1 (protonated)
CN1CCN(CCn2cc(-c3ccc(-c4ccccn4)cc3)[nH+]n2)CC1 (3D coordinates assigned)
CN1CCN(CCn2cc(-c3ccc(-c4ccccn4)cc3)[nH+]n2)CC1 (nonaromatic ring conformer: 106.44420678509273 kcal/mol)

>  <smiles>  (63) 
CN1CCN(CCn2cc(-c3ccc(-c4ccccn4)cc3)nn2)CC1

>  <score_type>  (63) 
oracle

>  <origin>  (63) 
adg

>  <m_score__min__energy>  (63) 
-7.5099999999999998

>  <m_primary>  (63) 
energy

$$$$
63:0
     RDKit          3D

 47 49  0  0  0  0  0  0  0  0999 V2000
   55.1630   29.3610   44.9360 N   0  0  0  0  0  0  0  0  0  0  0  0
   56.5730   29.6210   43.9710 S   0  0  0  0  0  0  0  0  0  0  0  0
   57.4660   28.4140   44.0680 O   0  0  0  0  0  0  0  0  0  0  0  0
   56.1750   29.8150   42.5340 O   0  0  0  0  0  0  0  0  0  0  0  0
   57.4230   31.0520   44.5460 C   0  0  0  0  0  0  0  0  0  0  0  0
   57.7680   31.1580   45.9000 C   0  0  0  0  0  0  0  0  0  0  0  0
   58.4530   32.2840   46.3660 C   0  0  0  0  0  0  0  0  0  0  0  0
   58.8030   33.3170   45.4810 C   0  0  0  0  0  0  0  0  0  0  0  0
   59.5320   34.5320   45.9910 C   0  0  0  0  0  0  0  0  0  0  0  0
   59.8520   34.3810   47.4070 N   0  0  0  0  0  0  0  0  0  0  0  0
   61.1250   33.9410   47.8910 C   0  0  0  0  0  0  0  0  0  0  0  0
   61.6560   34.4950   48.8910 O   0  0  0  0  0  0  0  0  0  0  0  0
   61.8500   32.8480   47.1760 C   0  0  0  0  0  0  0  0  0  0  0  0
   61.2290   31.5250   47.4980 C   0  0  0  0  0  0  0  0  0  0  0  0
   60.6810   31.2250   48.7460 C   0  0  0  0  0  0  0  0  0  0  0  0
   60.0340   29.6750   48.6690 S   0  0  0  0  0  0  0  0  0  0  0  0
   60.4840   29.4550   47.0570 C   0  0  0  0  0  0  0  0  0  0  0  0
   60.2300   28.4140   46.3240 N   0  0  0  0  0  0  0  0  0  0  0  0
   59.5430   27.2320   46.7520 C   0  0  0  0  0  0  0  0  0  0  0  0
   60.2190   26.2320   47.1160 O   0  0  0  0  0  0  0  0  0  0  0  0
   58.0540   27.2210   46.9550 C   0  0  0  0  0  0  0  0  0  0  0  0
   57.4280   26.1740   46.0770 C   0  0  0  0  0  0  0  0  0  0  0  0
   56.1340   25.6970   46.3520 C   0  0  0  0  0  0  0  0  0  0  0  0
   55.5420   24.7470   45.5140 C   0  0  0  0  0  0  0  0  0  0  0  0
   56.2320   24.2730   44.3940 C   0  0  0  0  0  0  0  0  0  0  0  0
   57.5120   24.7520   44.1070 C   0  0  0  0  0  0  0  0  0  0  0  0
   58.1090   25.7020   44.9420 C   0  0  0  0  0  0  0  0  0  0  0  0
   61.1030   30.5470   46.5600 N   0  0  0  0  0  0  0  0  0  0  0  0
   58.4580   33.2080   44.1250 C   0  0  0  0  0  0  0  0  0  0  0  0
   57.7740   32.0800   43.6590 C   0  0  0  0  0  0  0  0  0  0  0  0
   55.3900   28.5930   45.6090 H   0  0  0  0  0  0  0  0  0  0  0  0
   57.4988   30.3522   46.5988 H   0  0  0  0  0  0  0  0  0  0  0  0
   58.7191   32.3614   47.4305 H   0  0  0  0  0  0  0  0  0  0  0  0
   60.4641   34.6602   45.4212 H   0  0  0  0  0  0  0  0  0  0  0  0
   58.8854   35.4130   45.8650 H   0  0  0  0  0  0  0  0  0  0  0  0
   61.7936   33.0224   46.0914 H   0  0  0  0  0  0  0  0  0  0  0  0
   62.9015   32.8411   47.4989 H   0  0  0  0  0  0  0  0  0  0  0  0
   60.6737   31.8861   49.6251 H   0  0  0  0  0  0  0  0  0  0  0  0
   57.8307   26.9954   48.0082 H   0  0  0  0  0  0  0  0  0  0  0  0
   57.6444   28.2075   46.6922 H   0  0  0  0  0  0  0  0  0  0  0  0
   55.5860   26.0723   47.2288 H   0  0  0  0  0  0  0  0  0  0  0  0
   54.5320   24.3720   45.7362 H   0  0  0  0  0  0  0  0  0  0  0  0
   55.7663   23.5223   43.7386 H   0  0  0  0  0  0  0  0  0  0  0  0
   58.0515   24.3816   43.2229 H   0  0  0  0  0  0  0  0  0  0  0  0
   59.1151   26.0810   44.7095 H   0  0  0  0  0  0  0  0  0  0  0  0
   58.7266   34.0132   43.4253 H   0  0  0  0  0  0  0  0  0  0  0  0
   57.5108   31.9992   42.5940 H   0  0  0  0  0  0  0  0  0  0  0  0
  1  2  1  0
  2  3  2  0
  2  4  2  0
  2  5  1  0
  5  6  2  0
  6  7  1  0
  7  8  2  0
  8  9  1  0
  9 10  1  0
 10 11  1  0
 11 12  2  0
 11 13  1  0
 13 14  1  0
 14 15  2  0
 15 16  1  0
 16 17  1  0
 17 18  2  3
 18 19  1  0
 19 20  2  0
 19 21  1  0
 21 22  1  0
 22 23  2  0
 23 24  1  0
 24 25  2  0
 25 26  1  0
 26 27  2  0
 17 28  1  0
  8 29  1  0
 29 30  2  0
 30  5  1  0
 28 14  1  0
 27 22  1  0
  1 31  1  0
  6 32  1  0
  7 33  1  0
  9 34  1  0
  9 35  1  0
 13 36  1  0
 13 37  1  0
 15 38  1  0
 21 39  1  0
 21 40  1  0
 23 41  1  0
 24 42  1  0
 25 43  1  0
 26 44  1  0
 27 45  1  0
 29 46  1  0
 30 47  1  0
M  CHG  3   1  -1  10  -1  28  -1
M  END
>  <UniqueID>  (64) 
60

>  <SMILES>  (64) 
[NH-]S(=O)(=O)c1ccc(C[N-]C(=O)Cc2csc(=NC(=O)Cc3ccccc3)[n-]2)cc1

>  <Energy>  (64) 
80.23805965280332

>  <Genealogy>  (64) 
[NH-]S(=O)(=O)c1ccc(C[N-]C(=O)Cc2csc(=NC(=O)Cc3ccccc3)[n-]2)cc1 (protonated)
[NH-]S(=O)(=O)c1ccc(C[N-]C(=O)Cc2csc(=NC(=O)Cc3ccccc3)[n-]2)cc1 (3D coordinates assigned)
[NH-]S(=O)(=O)c1ccc(C[N-]C(=O)Cc2csc(=NC(=O)Cc3ccccc3)[n-]2)cc1 (optimized conformer: 80.23805965280332 kcal/mol)

>  <smiles>  (64) 
NS(=O)(=O)c1ccc(CNC(=O)Cc2csc(=NC(=O)Cc3ccccc3)[nH]2)cc1

>  <score_type>  (64) 
oracle

>  <origin>  (64) 
adg

>  <m_score__min__energy>  (64) 
-13.859999999999999

>  <m_primary>  (64) 
energy

$$$$
64:0
     RDKit          3D

 40 41  0  0  0  0  0  0  0  0999 V2000
   63.3740   33.8350   46.3920 C   0  0  0  0  0  0  0  0  0  0  0  0
   63.3010   33.0370   47.4600 C   0  0  0  0  0  0  0  0  0  0  0  0
   62.4670   31.7880   47.4500 C   0  0  0  0  0  0  0  0  0  0  0  0
   61.1480   32.0540   47.9280 O   0  0  0  0  0  0  0  0  0  0  0  0
   60.1830   32.8270   47.2610 C   0  0  0  0  0  0  0  0  0  0  0  0
   60.2070   34.2140   47.4440 C   0  0  0  0  0  0  0  0  0  0  0  0
   59.2680   35.0290   46.8080 C   0  0  0  0  0  0  0  0  0  0  0  0
   58.2970   34.4650   45.9790 C   0  0  0  0  0  0  0  0  0  0  0  0
   58.2590   33.0770   45.7780 C   0  0  0  0  0  0  0  0  0  0  0  0
   57.2420   32.4640   44.8560 C   0  0  0  0  0  0  0  0  0  0  0  0
   58.0850   31.5650   43.5090 S   0  0  0  0  0  0  0  0  0  0  0  0
   56.7550   30.3480   43.1990 C   0  0  0  0  0  0  0  0  0  0  0  0
   55.7200   30.3640   44.3280 C   0  0  0  0  0  0  0  0  0  0  0  0
   55.5140   29.0210   44.8710 N   0  0  0  0  0  0  0  0  0  0  0  0
   56.5110   28.1330   45.3940 C   0  0  0  0  0  0  0  0  0  0  0  0
   56.1400   27.0060   45.8170 O   0  0  0  0  0  0  0  0  0  0  0  0
   57.9390   28.4920   45.4990 C   0  0  0  0  0  0  0  0  0  0  0  0
   58.8800   28.3210   44.4900 C   0  0  0  0  0  0  0  0  0  0  0  0
   60.1810   28.6730   44.8700 C   0  0  0  0  0  0  0  0  0  0  0  0
   60.2800   29.1020   46.1860 C   0  0  0  0  0  0  0  0  0  0  0  0
   58.7470   29.0370   46.8720 S   0  0  0  0  0  0  0  0  0  0  0  0
   59.2060   32.2620   46.4180 C   0  0  0  0  0  0  0  0  0  0  0  0
   63.9924   34.7441   46.4259 H   0  0  0  0  0  0  0  0  0  0  0  0
   62.8157   33.5834   45.4782 H   0  0  0  0  0  0  0  0  0  0  0  0
   63.8643   33.3002   48.3674 H   0  0  0  0  0  0  0  0  0  0  0  0
   62.4068   31.4030   46.4213 H   0  0  0  0  0  0  0  0  0  0  0  0
   62.9377   31.0450   48.1105 H   0  0  0  0  0  0  0  0  0  0  0  0
   60.9711   34.6658   48.0936 H   0  0  0  0  0  0  0  0  0  0  0  0
   59.2937   36.1180   46.9608 H   0  0  0  0  0  0  0  0  0  0  0  0
   57.5588   35.1112   45.4814 H   0  0  0  0  0  0  0  0  0  0  0  0
   56.6113   31.7635   45.4230 H   0  0  0  0  0  0  0  0  0  0  0  0
   56.6183   33.2607   44.4243 H   0  0  0  0  0  0  0  0  0  0  0  0
   56.2559   30.5949   42.2503 H   0  0  0  0  0  0  0  0  0  0  0  0
   57.2034   29.3448   43.1498 H   0  0  0  0  0  0  0  0  0  0  0  0
   56.0747   31.0262   45.1316 H   0  0  0  0  0  0  0  0  0  0  0  0
   54.7646   30.7276   43.9218 H   0  0  0  0  0  0  0  0  0  0  0  0
   58.6265   27.9448   43.4879 H   0  0  0  0  0  0  0  0  0  0  0  0
   61.0433   28.6149   44.1895 H   0  0  0  0  0  0  0  0  0  0  0  0
   61.2009   29.4277   46.6918 H   0  0  0  0  0  0  0  0  0  0  0  0
   59.1850   31.1736   46.2600 H   0  0  0  0  0  0  0  0  0  0  0  0
  1  2  2  0
  2  3  1  0
  3  4  1  0
  4  5  1  0
  5  6  2  0
  6  7  1  0
  7  8  2  0
  8  9  1  0
  9 10  1  0
 10 11  1  0
 11 12  1  0
 12 13  1  0
 13 14  1  0
 14 15  1  0
 15 16  2  0
 15 17  1  0
 17 18  2  0
 18 19  1  0
 19 20  2  0
 20 21  1  0
  9 22  2  0
 22  5  1  0
 21 17  1  0
  1 23  1  0
  1 24  1  0
  2 25  1  0
  3 26  1  0
  3 27  1  0
  6 28  1  0
  7 29  1  0
  8 30  1  0
 10 31  1  0
 10 32  1  0
 12 33  1  0
 12 34  1  0
 13 35  1  0
 13 36  1  0
 18 37  1  0
 19 38  1  0
 20 39  1  0
 22 40  1  0
M  CHG  1  14  -1
M  END
>  <UniqueID>  (65) 
61

>  <SMILES>  (65) 
C=CCOc1cccc(CSCC[N-]C(=O)c2cccs2)c1

>  <Energy>  (65) 
58.245590590240994

>  <Genealogy>  (65) 
C=CCOc1cccc(CSCC[N-]C(=O)c2cccs2)c1 (protonated)
C=CCOc1cccc(CSCC[N-]C(=O)c2cccs2)c1 (3D coordinates assigned)
C=CCOc1cccc(CSCC[N-]C(=O)c2cccs2)c1 (optimized conformer: 58.245590590240994 kcal/mol)

>  <smiles>  (65) 
C=CCOc1cccc(CSCCNC(=O)c2cccs2)c1

>  <score_type>  (65) 
oracle

>  <origin>  (65) 
adg

>  <m_score__min__energy>  (65) 
-9.2899999999999991

>  <m_primary>  (65) 
energy

$$$$
65:0
     RDKit          3D

 41 43  0  0  0  0  0  0  0  0999 V2000
   55.1440   27.8400   45.1030 H   0  0  0  0  0  0  0  0  0  0  0  0
   55.6490   27.1190   45.6030 O   0  0  0  0  0  0  0  0  0  0  0  0
   57.0430   27.0390   45.6200 C   0  0  0  0  0  0  0  0  0  0  0  0
   57.7810   28.0000   44.9080 C   0  0  0  0  0  0  0  0  0  0  0  0
   57.0720   28.9970   44.1540 N   0  0  0  0  0  0  0  0  0  0  0  0
   56.1890   29.9970   44.6760 C   0  0  0  0  0  0  0  0  0  0  0  0
   55.1230   29.6280   45.2360 O   0  0  0  0  0  0  0  0  0  0  0  0
   56.4980   31.3930   44.5270 N   0  0  0  0  0  0  0  0  0  0  0  0
   57.3200   32.1310   45.2180 C   0  0  0  0  0  0  0  0  0  0  0  0
   57.8250   31.6160   46.3730 N   0  0  0  0  0  0  0  0  0  0  0  0
   58.6820   32.3100   47.1690 C   0  0  0  0  0  0  0  0  0  0  0  0
   59.0630   31.8543   48.0948 H   0  0  0  0  0  0  0  0  0  0  0  0
   59.0780   33.5980   46.8130 C   0  0  0  0  0  0  0  0  0  0  0  0
   59.7882   34.1563   47.4406 H   0  0  0  0  0  0  0  0  0  0  0  0
   58.5620   34.1690   45.6510 C   0  0  0  0  0  0  0  0  0  0  0  0
   58.8535   35.1906   45.3657 H   0  0  0  0  0  0  0  0  0  0  0  0
   57.6750   33.4470   44.8470 C   0  0  0  0  0  0  0  0  0  0  0  0
   57.2579   33.8990   43.9350 H   0  0  0  0  0  0  0  0  0  0  0  0
   59.1850   27.9410   44.9120 C   0  0  0  0  0  0  0  0  0  0  0  0
   59.7653   28.6572   44.3118 H   0  0  0  0  0  0  0  0  0  0  0  0
   59.8450   26.9780   45.6740 C   0  0  0  0  0  0  0  0  0  0  0  0
   60.9445   26.9571   45.6995 H   0  0  0  0  0  0  0  0  0  0  0  0
   59.1140   26.0410   46.4040 C   0  0  0  0  0  0  0  0  0  0  0  0
   59.6406   25.2960   47.0186 H   0  0  0  0  0  0  0  0  0  0  0  0
   57.7160   26.0420   46.3600 C   0  0  0  0  0  0  0  0  0  0  0  0
   56.9800   25.0000   47.1020 C   0  0  0  0  0  0  0  0  0  0  0  0
   57.2920   24.7880   48.3080 O   0  0  0  0  0  0  0  0  0  0  0  0
   55.9500   24.2080   46.4750 N   0  0  0  0  0  0  0  0  0  0  0  0
   54.9100   23.5760   47.2940 C   0  0  0  0  0  0  0  0  0  0  0  0
   55.3238   23.3344   48.2842 H   0  0  0  0  0  0  0  0  0  0  0  0
   54.0643   24.2713   47.4006 H   0  0  0  0  0  0  0  0  0  0  0  0
   54.4190   22.2900   46.6230 C   0  0  0  0  0  0  0  0  0  0  0  0
   55.2263   21.5430   46.6396 H   0  0  0  0  0  0  0  0  0  0  0  0
   53.5424   21.9164   47.1726 H   0  0  0  0  0  0  0  0  0  0  0  0
   54.0440   22.5380   45.2840 O   0  0  0  0  0  0  0  0  0  0  0  0
   55.1850   22.9010   44.5340 C   0  0  0  0  0  0  0  0  0  0  0  0
   55.9528   22.1213   44.6463 H   0  0  0  0  0  0  0  0  0  0  0  0
   54.8934   23.0041   43.4784 H   0  0  0  0  0  0  0  0  0  0  0  0
   55.7540   24.2380   45.0170 C   0  0  0  0  0  0  0  0  0  0  0  0
   56.7200   24.4215   44.5239 H   0  0  0  0  0  0  0  0  0  0  0  0
   55.0464   25.0418   44.7657 H   0  0  0  0  0  0  0  0  0  0  0  0
  1  2  1  0
  2  3  1  0
  3  4  2  0
  4  5  1  0
  5  6  1  0
  6  7  2  0
  6  8  1  0
  8  9  2  0
  9 10  1  0
 10 11  1  0
 11 12  1  0
 11 13  2  0
 13 14  1  0
 13 15  1  0
 15 16  1  0
 15 17  2  0
 17 18  1  0
  4 19  1  0
 19 20  1  0
 19 21  2  0
 21 22  1  0
 21 23  1  0
 23 24  1  0
 23 25  2  0
 25 26  1  0
 26 27  2  0
 26 28  1  0
 28 29  1  0
 29 30  1  0
 29 31  1  0
 29 32  1  0
 32 33  1  0
 32 34  1  0
 32 35  1  0
 35 36  1  0
 36 37  1  0
 36 38  1  0
 36 39  1  0
 39 40  1  0
 39 41  1  0
 25  3  1  0
 39 28  1  0
 17  9  1  0
M  CHG  2   5  -1  10  -1
M  END
>  <UniqueID>  (66) 
62

>  <SMILES>  (66) 
O=C(/N=c1\cccc[n-]1)[N-]c1cccc(C(=O)N2CCOCC2)c1O

>  <Energy>  (66) 
63.96172455000252

>  <Genealogy>  (66) 
O=C(N=c1cccc[n-]1)[N-]c1cccc(C(=O)N2CCOCC2)c1O (protonated)
O=C(/N=c1\cccc[n-]1)[N-]c1cccc(C(=O)N2CCOCC2)c1O (cis-trans isomerization)
O=C(/N=c1\cccc[n-]1)[N-]c1cccc(C(=O)N2CCOCC2)c1O (3D coordinates assigned)
O=C(/N=c1\cccc[n-]1)[N-]c1cccc(C(=O)N2CCOCC2)c1O (nonaromatic ring conformer: 63.96172455000252 kcal/mol)

>  <smiles>  (66) 
O=C(N=c1cccc[nH]1)Nc1cccc(C(=O)N2CCOCC2)c1O

>  <score_type>  (66) 
oracle

>  <origin>  (66) 
adg

>  <m_score__min__energy>  (66) 
-11.800000000000001

>  <m_primary>  (66) 
energy

$$$$
66:0
     RDKit          3D

 53 56  0  0  0  0  0  0  0  0999 V2000
   63.9763   33.9607   49.4429 H   0  0  0  0  0  0  0  0  0  0  0  0
   63.0680   33.8230   48.8380 C   0  0  0  0  0  0  0  0  0  0  0  0
   61.8100   34.0310   49.4090 C   0  0  0  0  0  0  0  0  0  0  0  0
   61.7290   34.3307   50.4643 H   0  0  0  0  0  0  0  0  0  0  0  0
   60.6540   33.8590   48.6420 C   0  0  0  0  0  0  0  0  0  0  0  0
   59.6653   34.0151   49.0981 H   0  0  0  0  0  0  0  0  0  0  0  0
   60.7510   33.4870   47.2890 C   0  0  0  0  0  0  0  0  0  0  0  0
   59.5310   33.2840   46.4690 C   0  0  0  0  0  0  0  0  0  0  0  0
   58.9580   34.3340   45.7180 C   0  0  0  0  0  0  0  0  0  0  0  0
   59.5540   35.6480   45.6610 C   0  0  0  0  0  0  0  0  0  0  0  0
   60.0290   36.7020   45.6150 N   0  0  0  0  0  0  0  0  0  0  0  0
   57.8130   34.0810   44.9610 C   0  0  0  0  0  0  0  0  0  0  0  0
   57.3582   34.8893   44.3695 H   0  0  0  0  0  0  0  0  0  0  0  0
   57.2440   32.8110   44.9510 C   0  0  0  0  0  0  0  0  0  0  0  0
   56.3438   32.6132   44.3506 H   0  0  0  0  0  0  0  0  0  0  0  0
   57.8270   31.7800   45.7140 C   0  0  0  0  0  0  0  0  0  0  0  0
   57.3430   30.5690   45.7310 N   0  0  0  0  0  0  0  0  0  0  0  0
   56.8420   29.8220   44.6130 C   0  0  0  0  0  0  0  0  0  0  0  0
   55.6690   30.0350   44.2090 O   0  0  0  0  0  0  0  0  0  0  0  0
   57.7400   28.9110   43.8240 C   0  0  0  0  0  0  0  0  0  0  0  0
   57.1907   28.5227   42.9537 H   0  0  0  0  0  0  0  0  0  0  0  0
   58.6216   29.4765   43.4876 H   0  0  0  0  0  0  0  0  0  0  0  0
   58.1900   27.7610   44.6820 C   0  0  0  0  0  0  0  0  0  0  0  0
   57.7780   26.4540   44.3810 C   0  0  0  0  0  0  0  0  0  0  0  0
   57.1551   26.2656   43.4942 H   0  0  0  0  0  0  0  0  0  0  0  0
   58.1570   25.3910   45.2050 C   0  0  0  0  0  0  0  0  0  0  0  0
   57.8312   24.3681   44.9650 H   0  0  0  0  0  0  0  0  0  0  0  0
   58.9480   25.6230   46.3320 C   0  0  0  0  0  0  0  0  0  0  0  0
   59.2369   24.7828   46.9805 H   0  0  0  0  0  0  0  0  0  0  0  0
   59.3760   26.9230   46.6410 C   0  0  0  0  0  0  0  0  0  0  0  0
   60.1900   27.1650   47.8510 C   0  0  0  0  0  0  0  0  0  0  0  0
   61.1750   26.4130   48.0820 O   0  0  0  0  0  0  0  0  0  0  0  0
   59.8890   28.2390   48.7600 N   0  0  0  0  0  0  0  0  0  0  0  0
   60.4050   28.2820   50.1170 C   0  0  0  0  0  0  0  0  0  0  0  0
   59.8495   27.5833   50.7598 H   0  0  0  0  0  0  0  0  0  0  0  0
   61.4642   27.9876   50.1557 H   0  0  0  0  0  0  0  0  0  0  0  0
   60.2050   29.7150   50.5950 C   0  0  0  0  0  0  0  0  0  0  0  0
   59.7795   29.7236   51.6093 H   0  0  0  0  0  0  0  0  0  0  0  0
   61.1582   30.2625   50.6364 H   0  0  0  0  0  0  0  0  0  0  0  0
   59.2340   30.3570   49.6070 C   0  0  0  0  0  0  0  0  0  0  0  0
   58.2162   30.3680   50.0240 H   0  0  0  0  0  0  0  0  0  0  0  0
   59.5096   31.3999   49.3914 H   0  0  0  0  0  0  0  0  0  0  0  0
   59.2820   29.4970   48.3520 C   0  0  0  0  0  0  0  0  0  0  0  0
   58.2665   29.3254   47.9655 H   0  0  0  0  0  0  0  0  0  0  0  0
   59.8552   29.9827   47.5485 H   0  0  0  0  0  0  0  0  0  0  0  0
   58.9730   27.9930   45.8240 C   0  0  0  0  0  0  0  0  0  0  0  0
   59.2731   29.0196   46.0811 H   0  0  0  0  0  0  0  0  0  0  0  0
   58.9590   32.0430   46.4290 N   0  0  0  0  0  0  0  0  0  0  0  0
   59.3870   31.2690   46.9890 H   0  0  0  0  0  0  0  0  0  0  0  0
   62.0190   33.2680   46.7270 C   0  0  0  0  0  0  0  0  0  0  0  0
   62.1053   32.9595   45.6747 H   0  0  0  0  0  0  0  0  0  0  0  0
   63.1720   33.4400   47.4980 C   0  0  0  0  0  0  0  0  0  0  0  0
   64.1626   33.2737   47.0495 H   0  0  0  0  0  0  0  0  0  0  0  0
  1  2  1  0
  2  3  2  0
  3  4  1  0
  3  5  1  0
  5  6  1  0
  5  7  2  0
  7  8  1  0
  8  9  2  0
  9 10  1  0
 10 11  3  0
  9 12  1  0
 12 13  1  0
 12 14  2  0
 14 15  1  0
 14 16  1  0
 16 17  2  0
 17 18  1  0
 18 19  2  0
 18 20  1  0
 20 21  1  0
 20 22  1  0
 20 23  1  0
 23 24  2  0
 24 25  1  0
 24 26  1  0
 26 27  1  0
 26 28  2  0
 28 29  1  0
 28 30  1  0
 30 31  1  0
 31 32  2  0
 31 33  1  0
 33 34  1  0
 34 35  1  0
 34 36  1  0
 34 37  1  0
 37 38  1  0
 37 39  1  0
 37 40  1  0
 40 41  1  0
 40 42  1  0
 40 43  1  0
 43 44  1  0
 43 45  1  0
 30 46  2  0
 46 47  1  0
 16 48  1  0
 48 49  1  0
  7 50  1  0
 50 51  1  0
 50 52  2  0
 52 53  1  0
 52  2  1  0
 48  8  1  0
 46 23  1  0
 43 33  1  0
M  END
>  <UniqueID>  (67) 
63

>  <SMILES>  (67) 
N#Cc1cc/c(=N\C(=O)Cc2cccc(C(=O)N3CCCC3)c2)[nH]c1-c1ccccc1

>  <Energy>  (67) 
76.05024823901287

>  <Genealogy>  (67) 
N#Cc1cc/c(=N\C(=O)Cc2cccc(C(=O)N3CCCC3)c2)[nH]c1-c1ccccc1 (cis-trans isomerization)
N#Cc1cc/c(=N\C(=O)Cc2cccc(C(=O)N3CCCC3)c2)[nH]c1-c1ccccc1 (3D coordinates assigned)
N#Cc1cc/c(=N\C(=O)Cc2cccc(C(=O)N3CCCC3)c2)[nH]c1-c1ccccc1 (nonaromatic ring conformer: 76.05024823901287 kcal/mol)

>  <smiles>  (67) 
N#Cc1ccc(=NC(=O)Cc2cccc(C(=O)N3CCCC3)c2)[nH]c1-c1ccccc1

>  <score_type>  (67) 
oracle

>  <origin>  (67) 
adg

>  <m_score__min__energy>  (67) 
-9.2699999999999996

>  <m_primary>  (67) 
energy

$$$$
67:0
     RDKit          3D

 50 52  0  0  0  0  0  0  0  0999 V2000
   55.6670   23.0810   48.1890 C   0  0  0  0  0  0  0  0  0  0  0  0
   56.1320   24.1940   46.8790 S   0  0  0  0  0  0  0  0  0  0  0  0
   54.8780   24.7630   46.2800 O   0  0  0  0  0  0  0  0  0  0  0  0
   56.8940   23.4600   45.8120 O   0  0  0  0  0  0  0  0  0  0  0  0
   57.0860   25.4990   47.5100 N   0  0  0  0  0  0  0  0  0  0  0  0
   57.8010   26.4670   46.7290 C   0  0  0  0  0  0  0  0  0  0  0  0
   59.1740   26.6000   46.9550 C   0  0  0  0  0  0  0  0  0  0  0  0
   59.9330   27.4940   46.2030 C   0  0  0  0  0  0  0  0  0  0  0  0
   59.3230   28.2840   45.2310 C   0  0  0  0  0  0  0  0  0  0  0  0
   57.9360   28.2090   45.0150 C   0  0  0  0  0  0  0  0  0  0  0  0
   57.3160   29.0930   43.9550 C   0  0  0  0  0  0  0  0  0  0  0  0
   56.1700   29.9080   44.4830 C   0  0  0  0  0  0  0  0  0  0  0  0
   55.1090   29.3510   44.8830 O   0  0  0  0  0  0  0  0  0  0  0  0
   56.2860   31.3330   44.5070 N   0  0  0  0  0  0  0  0  0  0  0  0
   57.5520   32.0370   44.3300 C   0  0  0  0  0  0  0  0  0  0  0  0
   58.1260   32.3930   45.6730 C   0  0  0  0  0  0  0  0  0  0  0  0
   58.6140   31.3820   46.5140 C   0  0  0  0  0  0  0  0  0  0  0  0
   59.2700   31.7110   47.7040 C   0  0  0  0  0  0  0  0  0  0  0  0
   59.4430   33.0520   48.0660 C   0  0  0  0  0  0  0  0  0  0  0  0
   60.4000   33.4600   49.4860 S   0  0  0  0  0  0  0  0  0  0  0  0
   60.6620   32.2150   50.2840 O   0  0  0  0  0  0  0  0  0  0  0  0
   59.6550   34.4360   50.3510 O   0  0  0  0  0  0  0  0  0  0  0  0
   61.9120   34.1540   48.9940 N   0  0  0  0  0  0  0  0  0  0  0  0
   62.2040   33.7230   47.6300 C   0  0  0  0  0  0  0  0  0  0  0  0
   62.7940   32.3250   47.5380 C   0  0  0  0  0  0  0  0  0  0  0  0
   63.6910   33.5430   47.3840 C   0  0  0  0  0  0  0  0  0  0  0  0
   58.9400   34.0640   47.2380 C   0  0  0  0  0  0  0  0  0  0  0  0
   58.2840   33.7370   46.0490 C   0  0  0  0  0  0  0  0  0  0  0  0
   57.1640   27.2900   45.7720 C   0  0  0  0  0  0  0  0  0  0  0  0
   55.7820   27.1980   45.6010 O   0  0  0  0  0  0  0  0  0  0  0  0
   55.8654   23.5558   49.1612 H   0  0  0  0  0  0  0  0  0  0  0  0
   54.5955   22.8461   48.1075 H   0  0  0  0  0  0  0  0  0  0  0  0
   56.2529   22.1536   48.1075 H   0  0  0  0  0  0  0  0  0  0  0  0
   59.6595   25.9933   47.7336 H   0  0  0  0  0  0  0  0  0  0  0  0
   61.0160   27.5763   46.3770 H   0  0  0  0  0  0  0  0  0  0  0  0
   59.9322   28.9726   44.6271 H   0  0  0  0  0  0  0  0  0  0  0  0
   58.0873   29.7766   43.5706 H   0  0  0  0  0  0  0  0  0  0  0  0
   56.9234   28.4390   43.1625 H   0  0  0  0  0  0  0  0  0  0  0  0
   58.2584   31.3889   43.7906 H   0  0  0  0  0  0  0  0  0  0  0  0
   57.3795   32.9570   43.7522 H   0  0  0  0  0  0  0  0  0  0  0  0
   58.4800   30.3261   46.2361 H   0  0  0  0  0  0  0  0  0  0  0  0
   59.6515   30.9132   48.3581 H   0  0  0  0  0  0  0  0  0  0  0  0
   61.3786   34.2481   47.1270 H   0  0  0  0  0  0  0  0  0  0  0  0
   62.8671   31.6982   48.4390 H   0  0  0  0  0  0  0  0  0  0  0  0
   62.5855   31.4303   46.9329 H   0  0  0  0  0  0  0  0  0  0  0  0
   64.4137   33.7970   48.1734 H   0  0  0  0  0  0  0  0  0  0  0  0
   64.4010   33.8943   46.6208 H   0  0  0  0  0  0  0  0  0  0  0  0
   59.0620   35.1189   47.5250 H   0  0  0  0  0  0  0  0  0  0  0  0
   57.8893   34.5359   45.4040 H   0  0  0  0  0  0  0  0  0  0  0  0
   55.1430   27.9660   45.7540 H   0  0  0  0  0  0  0  0  0  0  0  0
  1  2  1  0
  2  3  2  0
  2  4  2  0
  2  5  1  0
  5  6  1  0
  6  7  2  0
  7  8  1  0
  8  9  2  0
  9 10  1  0
 10 11  1  0
 11 12  1  0
 12 13  2  0
 12 14  1  0
 14 15  1  0
 15 16  1  0
 16 17  2  0
 17 18  1  0
 18 19  2  0
 19 20  1  0
 20 21  2  0
 20 22  2  0
 20 23  1  0
 23 24  1  0
 24 25  1  0
 25 26  1  0
 19 27  1  0
 27 28  2  0
 10 29  2  0
 29 30  1  0
 29  6  1  0
 28 16  1  0
 26 24  1  0
  1 31  1  0
  1 32  1  0
  1 33  1  0
  7 34  1  0
  8 35  1  0
  9 36  1  0
 11 37  1  0
 11 38  1  0
 15 39  1  0
 15 40  1  0
 17 41  1  0
 18 42  1  0
 24 43  1  0
 25 44  1  0
 25 45  1  0
 26 46  1  0
 26 47  1  0
 27 48  1  0
 28 49  1  0
 30 50  1  0
M  CHG  3   5  -1  14  -1  23  -1
M  END
>  <UniqueID>  (68) 
64

>  <SMILES>  (68) 
CS(=O)(=O)[N-]c1cccc(CC(=O)[N-]Cc2ccc(S(=O)(=O)[N-]C3CC3)cc2)c1O

>  <Energy>  (68) 
313.5491090169047

>  <Genealogy>  (68) 
CS(=O)(=O)[N-]c1cccc(CC(=O)[N-]Cc2ccc(S(=O)(=O)[N-]C3CC3)cc2)c1O (protonated)
CS(=O)(=O)[N-]c1cccc(CC(=O)[N-]Cc2ccc(S(=O)(=O)[N-]C3CC3)cc2)c1O (3D coordinates assigned)
CS(=O)(=O)[N-]c1cccc(CC(=O)[N-]Cc2ccc(S(=O)(=O)[N-]C3CC3)cc2)c1O (nonaromatic ring conformer: 313.5491090169047 kcal/mol)

>  <smiles>  (68) 
CS(=O)(=O)Nc1cccc(CC(=O)NCc2ccc(S(=O)(=O)NC3CC3)cc2)c1O

>  <score_type>  (68) 
oracle

>  <origin>  (68) 
adg

>  <m_score__min__energy>  (68) 
-14.24

>  <m_primary>  (68) 
energy

$$$$
68:0
     RDKit          3D

106111  0  0  0  0  0  0  0  0999 V2000
   66.0630   27.5590   51.9010 C   0  0  0  0  0  0  0  0  0  0  0  0
   66.6980   28.8280   51.4440 C   0  0  0  0  0  0  0  0  0  0  0  0
   67.5330   28.8020   50.5000 O   0  0  0  0  0  0  0  0  0  0  0  0
   66.3170   30.0360   52.0400 O   0  0  0  0  0  0  0  0  0  0  0  0
   65.0240   30.6380   51.8970 C   0  0  1  0  0  0  0  0  0  0  0  0
   64.3160   30.5470   53.2490 C   0  0  0  0  0  0  0  0  0  0  0  0
   63.0400   31.4030   53.4210 C   0  0  0  0  0  0  0  0  0  0  0  0
   62.6510   32.5040   52.3380 C   0  0  1  0  0  0  0  0  0  0  0  0
   62.5810   33.8410   53.1670 C   0  0  0  0  0  0  0  0  0  0  0  0
   63.7060   32.6980   51.1560 C   0  0  2  0  0  0  0  0  0  0  0  0
   63.0890   32.4040   49.7490 C   0  0  0  0  0  0  0  0  0  0  0  0
   62.2000   31.1560   49.6300 C   0  0  0  0  0  0  0  0  0  0  0  0
   61.0830   30.9780   50.7230 C   0  0  1  0  0  0  0  0  0  0  0  0
   61.3500   29.6230   51.4430 C   0  0  0  0  0  0  0  0  0  0  0  0
   61.1840   32.1960   51.7470 C   0  0  2  0  0  0  0  0  0  0  0  0
   60.4820   33.4910   51.1790 C   0  0  0  0  0  0  0  0  0  0  0  0
   59.7450   33.3800   49.8670 C   0  0  0  0  0  0  0  0  0  0  0  0
   59.3500   32.2170   49.3110 C   0  0  0  0  0  0  0  0  0  0  0  0
   58.5630   32.1360   47.9860 C   0  0  1  0  0  0  0  0  0  0  0  0
   58.1850   33.4920   47.3030 C   0  0  0  0  0  0  0  0  0  0  0  0
   59.2580   34.0780   46.3240 C   0  0  0  0  0  0  0  0  0  0  0  0
   58.7290   34.0390   44.8670 C   0  0  0  0  0  0  0  0  0  0  0  0
   59.5390   35.5590   46.6650 C   0  0  0  0  0  0  0  0  0  0  0  0
   60.5840   33.2890   46.4200 C   0  0  0  0  0  0  0  0  0  0  0  0
   60.4030   31.7840   46.1730 C   0  0  0  0  0  0  0  0  0  0  0  0
   59.2170   31.1150   46.9700 C   0  0  2  0  0  0  0  0  0  0  0  0
   58.1750   30.6480   45.9490 C   0  0  0  0  0  0  0  0  0  0  0  0
   57.2580   31.4160   45.5420 O   0  0  0  0  0  0  0  0  0  0  0  0
   58.2010   29.3160   45.5230 O   0  0  0  0  0  0  0  0  0  0  0  0
   57.0510   28.4770   45.5220 C   0  0  0  0  0  0  0  0  0  0  0  0
   57.3140   27.2510   46.3940 C   0  0  0  0  0  0  0  0  0  0  0  0
   57.5180   26.0620   45.5650 N   0  0  0  0  0  0  0  0  0  0  0  0
   56.5140   25.0440   45.4180 C   0  0  0  0  0  0  0  0  0  0  0  0
   55.4000   25.1780   45.9980 O   0  0  0  0  0  0  0  0  0  0  0  0
   56.7660   23.8260   44.6140 C   0  0  0  0  0  0  0  0  0  0  0  0
   56.0570   23.6190   43.4150 C   0  0  0  0  0  0  0  0  0  0  0  0
   56.2900   22.4770   42.6420 C   0  0  0  0  0  0  0  0  0  0  0  0
   57.2360   21.5360   43.0500 C   0  0  0  0  0  0  0  0  0  0  0  0
   57.9550   21.7350   44.2310 C   0  0  0  0  0  0  0  0  0  0  0  0
   57.7250   22.8730   45.0100 C   0  0  0  0  0  0  0  0  0  0  0  0
   59.7290   29.8150   47.7050 C   0  0  0  0  0  0  0  0  0  0  0  0
   59.2670   29.6990   49.1600 C   0  0  0  0  0  0  0  0  0  0  0  0
   59.5910   30.9330   50.0900 C   0  0  1  0  0  0  0  0  0  0  0  0
   58.4980   30.8800   51.2070 C   0  0  0  0  0  0  0  0  0  0  0  0
   65.1480   32.1000   51.4110 C   0  0  0  0  0  0  0  0  0  0  0  0
   65.9110   32.9630   52.4560 C   0  0  0  0  0  0  0  0  0  0  0  0
   66.0240   32.1390   50.1290 C   0  0  0  0  0  0  0  0  0  0  0  0
   66.0491   27.5312   53.0006 H   0  0  0  0  0  0  0  0  0  0  0  0
   65.0325   27.5066   51.5198 H   0  0  0  0  0  0  0  0  0  0  0  0
   66.6389   26.7028   51.5198 H   0  0  0  0  0  0  0  0  0  0  0  0
   64.4335   30.1076   51.1354 H   0  0  0  0  0  0  0  0  0  0  0  0
   64.0365   29.4953   53.4093 H   0  0  0  0  0  0  0  0  0  0  0  0
   65.0342   30.9467   53.9801 H   0  0  0  0  0  0  0  0  0  0  0  0
   62.1948   30.7010   53.4738 H   0  0  0  0  0  0  0  0  0  0  0  0
   63.2651   32.0044   54.3141 H   0  0  0  0  0  0  0  0  0  0  0  0
   62.5932   33.6071   54.2418 H   0  0  0  0  0  0  0  0  0  0  0  0
   63.4473   34.4719   52.9192 H   0  0  0  0  0  0  0  0  0  0  0  0
   61.6535   34.3780   52.9192 H   0  0  0  0  0  0  0  0  0  0  0  0
   63.9311   33.7747   51.1525 H   0  0  0  0  0  0  0  0  0  0  0  0
   62.4803   33.2747   49.4639 H   0  0  0  0  0  0  0  0  0  0  0  0
   63.9495   32.2085   49.0922 H   0  0  0  0  0  0  0  0  0  0  0  0
   61.7037   31.1925   48.6490 H   0  0  0  0  0  0  0  0  0  0  0  0
   62.8797   30.3024   49.7693 H   0  0  0  0  0  0  0  0  0  0  0  0
   61.3202   29.7744   52.5321 H   0  0  0  0  0  0  0  0  0  0  0  0
   60.5780   28.8952   51.1527 H   0  0  0  0  0  0  0  0  0  0  0  0
   62.3404   29.2424   51.1527 H   0  0  0  0  0  0  0  0  0  0  0  0
   60.6248   31.8521   52.6296 H   0  0  0  0  0  0  0  0  0  0  0  0
   59.7565   33.8276   51.9342 H   0  0  0  0  0  0  0  0  0  0  0  0
   61.3108   34.1836   50.9707 H   0  0  0  0  0  0  0  0  0  0  0  0
   59.5145   34.3107   49.3278 H   0  0  0  0  0  0  0  0  0  0  0  0
   57.5852   31.7434   48.3018 H   0  0  0  0  0  0  0  0  0  0  0  0
   57.2563   33.3373   46.7342 H   0  0  0  0  0  0  0  0  0  0  0  0
   58.0898   34.2239   48.1187 H   0  0  0  0  0  0  0  0  0  0  0  0
   57.6320   33.9581   44.8772 H   0  0  0  0  0  0  0  0  0  0  0  0
   59.0238   34.9613   44.3451 H   0  0  0  0  0  0  0  0  0  0  0  0
   59.1559   33.1699   44.3451 H   0  0  0  0  0  0  0  0  0  0  0  0
   59.5630   35.6855   47.7574 H   0  0  0  0  0  0  0  0  0  0  0  0
   60.5094   35.8553   46.2401 H   0  0  0  0  0  0  0  0  0  0  0  0
   58.7446   36.1902   46.2401 H   0  0  0  0  0  0  0  0  0  0  0  0
   61.2838   33.6861   45.6700 H   0  0  0  0  0  0  0  0  0  0  0  0
   60.9679   33.4118   47.4435 H   0  0  0  0  0  0  0  0  0  0  0  0
   60.2195   31.6342   45.0988 H   0  0  0  0  0  0  0  0  0  0  0  0
   61.3244   31.3010   46.5304 H   0  0  0  0  0  0  0  0  0  0  0  0
   56.1907   29.0337   45.9220 H   0  0  0  0  0  0  0  0  0  0  0  0
   56.8332   28.1550   44.4930 H   0  0  0  0  0  0  0  0  0  0  0  0
   58.2138   27.4263   47.0019 H   0  0  0  0  0  0  0  0  0  0  0  0
   56.4419   27.0846   47.0434 H   0  0  0  0  0  0  0  0  0  0  0  0
   58.4520   25.9460   45.1120 H   0  0  0  0  0  0  0  0  0  0  0  0
   55.3149   24.3605   43.0842 H   0  0  0  0  0  0  0  0  0  0  0  0
   55.7263   22.3203   41.7105 H   0  0  0  0  0  0  0  0  0  0  0  0
   57.4156   20.6373   42.4416 H   0  0  0  0  0  0  0  0  0  0  0  0
   58.7039   20.9946   44.5488 H   0  0  0  0  0  0  0  0  0  0  0  0
   58.2963   23.0251   45.9376 H   0  0  0  0  0  0  0  0  0  0  0  0
   59.3593   28.9378   47.1538 H   0  0  0  0  0  0  0  0  0  0  0  0
   60.8274   29.8718   47.7236 H   0  0  0  0  0  0  0  0  0  0  0  0
   58.1761   29.5577   49.1564 H   0  0  0  0  0  0  0  0  0  0  0  0
   59.8293   28.8535   49.5830 H   0  0  0  0  0  0  0  0  0  0  0  0
   58.9817   30.9035   52.1947 H   0  0  0  0  0  0  0  0  0  0  0  0
   57.8282   31.7467   51.1060 H   0  0  0  0  0  0  0  0  0  0  0  0
   57.9152   29.9525   51.1060 H   0  0  0  0  0  0  0  0  0  0  0  0
   65.6293   32.6444   53.4705 H   0  0  0  0  0  0  0  0  0  0  0  0
   66.9945   32.8326   52.3183 H   0  0  0  0  0  0  0  0  0  0  0  0
   65.6488   34.0224   52.3183 H   0  0  0  0  0  0  0  0  0  0  0  0
   67.0860   32.1863   50.4119 H   0  0  0  0  0  0  0  0  0  0  0  0
   65.8432   31.2319   49.5336 H   0  0  0  0  0  0  0  0  0  0  0  0
   65.7633   33.0264   49.5336 H   0  0  0  0  0  0  0  0  0  0  0  0
  1  2  1  0
  2  3  2  0
  2  4  1  0
  4  5  1  0
  5  6  1  0
  6  7  1  0
  7  8  1  0
  8  9  1  1
  8 10  1  0
 10 11  1  0
 11 12  1  0
 12 13  1  0
 13 14  1  1
 13 15  1  0
 15 16  1  0
 16 17  1  0
 17 18  2  0
 18 19  1  0
 19 20  1  0
 20 21  1  0
 21 22  1  0
 21 23  1  0
 21 24  1  0
 24 25  1  0
 25 26  1  0
 26 27  1  6
 27 28  2  0
 27 29  1  0
 29 30  1  0
 30 31  1  0
 31 32  1  0
 32 33  1  0
 33 34  2  0
 33 35  1  0
 35 36  2  0
 36 37  1  0
 37 38  2  0
 38 39  1  0
 39 40  2  0
 26 41  1  0
 41 42  1  0
 42 43  1  0
 43 44  1  1
 10 45  1  0
 45 46  1  0
 45 47  1  0
 45  5  1  0
 15  8  1  0
 43 18  1  0
 43 13  1  0
 26 19  1  0
 40 35  1  0
  1 48  1  0
  1 49  1  0
  1 50  1  0
  5 51  1  6
  6 52  1  0
  6 53  1  0
  7 54  1  0
  7 55  1  0
  9 56  1  0
  9 57  1  0
  9 58  1  0
 10 59  1  6
 11 60  1  0
 11 61  1  0
 12 62  1  0
 12 63  1  0
 14 64  1  0
 14 65  1  0
 14 66  1  0
 15 67  1  1
 16 68  1  0
 16 69  1  0
 17 70  1  0
 19 71  1  1
 20 72  1  0
 20 73  1  0
 22 74  1  0
 22 75  1  0
 22 76  1  0
 23 77  1  0
 23 78  1  0
 23 79  1  0
 24 80  1  0
 24 81  1  0
 25 82  1  0
 25 83  1  0
 30 84  1  0
 30 85  1  0
 31 86  1  0
 31 87  1  0
 32 88  1  0
 36 89  1  0
 37 90  1  0
 38 91  1  0
 39 92  1  0
 40 93  1  0
 41 94  1  0
 41 95  1  0
 42 96  1  0
 42 97  1  0
 44 98  1  0
 44 99  1  0
 44100  1  0
 46101  1  0
 46102  1  0
 46103  1  0
 47104  1  0
 47105  1  0
 47106  1  0
M  END
>  <UniqueID>  (69) 
65

>  <SMILES>  (69) 
CC(=O)O[C@H]1CC[C@@]2(C)C(CCC3(C)C2CC=C2C4CC(C)(C)CCC4(C(=O)OCCNC(=O)c4ccccc4)CCC23C)C1(C)C

>  <Energy>  (69) 
203.64820581937153

>  <Genealogy>  (69) 
CC(=O)O[C@H]1CC[C@@]2(C)C(CCC3(C)C2CC=C2C4CC(C)(C)CCC4(C(=O)OCCNC(=O)c4ccccc4)CCC23C)C1(C)C (chirality)
CC(=O)O[C@H]1CC[C@@]2(C)C(CCC3(C)C2CC=C2C4CC(C)(C)CCC4(C(=O)OCCNC(=O)c4ccccc4)CCC23C)C1(C)C (3D coordinates assigned)
CC(=O)O[C@H]1CC[C@@]2(C)C(CCC3(C)C2CC=C2C4CC(C)(C)CCC4(C(=O)OCCNC(=O)c4ccccc4)CCC23C)C1(C)C (nonaromatic ring conformer: 203.64820581937153 kcal/mol)

>  <smiles>  (69) 
CC(=O)OC1CCC2(C)C(CCC3(C)C2CC=C2C4CC(C)(C)CCC4(C(=O)OCCNC(=O)c4ccccc4)CCC23C)C1(C)C

>  <score_type>  (69) 
oracle

>  <origin>  (69) 
adg

>  <m_score__min__energy>  (69) 
-11.23

>  <m_primary>  (69) 
energy

$$$$
69:0
     RDKit          3D

 52 55  0  0  0  0  0  0  0  0999 V2000
   57.9920   26.7480   43.4290 C   0  0  0  0  0  0  0  0  0  0  0  0
   57.7340   28.0020   43.8580 C   0  0  0  0  0  0  0  0  0  0  0  0
   57.3960   28.9260   42.9140 N   0  0  0  0  0  0  0  0  0  0  0  0
   57.0330   30.1920   43.2340 C   0  0  0  0  0  0  0  0  0  0  0  0
   56.7030   30.9820   42.3070 O   0  0  0  0  0  0  0  0  0  0  0  0
   57.0250   30.6040   44.5370 N   0  0  0  0  0  0  0  0  0  0  0  0
   56.6610   31.9980   44.8740 C   0  0  0  0  0  0  0  0  0  0  0  0
   57.8790   32.7740   45.3100 C   0  0  0  0  0  0  0  0  0  0  0  0
   58.2670   32.7840   46.6600 C   0  0  0  0  0  0  0  0  0  0  0  0
   59.3820   33.5220   47.0680 C   0  0  0  0  0  0  0  0  0  0  0  0
   60.1150   34.2590   46.1340 C   0  0  0  0  0  0  0  0  0  0  0  0
   59.7360   34.2560   44.7890 C   0  0  0  0  0  0  0  0  0  0  0  0
   58.6220   33.5180   44.3770 C   0  0  0  0  0  0  0  0  0  0  0  0
   57.4080   29.7390   45.5310 C   0  0  0  0  0  0  0  0  0  0  0  0
   57.5090   30.1770   46.7110 O   0  0  0  0  0  0  0  0  0  0  0  0
   57.7470   28.3860   45.2360 C   0  0  0  0  0  0  0  0  0  0  0  0
   58.1260   27.5130   46.2170 C   0  0  0  0  0  0  0  0  0  0  0  0
   57.4830   26.2230   46.5320 C   0  0  0  0  0  0  0  0  0  0  0  0
   58.1690   25.1180   46.8940 N   0  0  0  0  0  0  0  0  0  0  0  0
   57.2170   24.1630   46.9800 C   0  0  0  0  0  0  0  0  0  0  0  0
   57.4750   22.9750   47.3130 O   0  0  0  0  0  0  0  0  0  0  0  0
   55.9760   24.5970   46.6700 N   0  0  0  0  0  0  0  0  0  0  0  0
   54.7310   23.8130   46.6540 C   0  0  0  0  0  0  0  0  0  0  0  0
   55.0110   22.3460   46.2790 C   0  0  0  0  0  0  0  0  0  0  0  0
   53.7350   21.4850   46.3790 C   0  0  0  0  0  0  0  0  0  0  0  0
   52.4390   22.2660   46.0790 C   0  0  0  0  0  0  0  0  0  0  0  0
   52.6880   23.4370   45.1220 C   0  0  0  0  0  0  0  0  0  0  0  0
   53.6820   24.4570   45.7120 C   0  0  0  0  0  0  0  0  0  0  0  0
   56.1530   25.8970   46.3670 C   0  0  0  0  0  0  0  0  0  0  0  0
   55.1490   26.7570   45.9340 O   0  0  0  0  0  0  0  0  0  0  0  0
   58.2691   25.9658   44.1511 H   0  0  0  0  0  0  0  0  0  0  0  0
   57.9251   26.5086   42.3575 H   0  0  0  0  0  0  0  0  0  0  0  0
   57.3830   28.6630   41.9010 H   0  0  0  0  0  0  0  0  0  0  0  0
   56.2223   32.4812   43.9886 H   0  0  0  0  0  0  0  0  0  0  0  0
   55.9343   31.9851   45.6997 H   0  0  0  0  0  0  0  0  0  0  0  0
   57.6909   32.2085   47.3995 H   0  0  0  0  0  0  0  0  0  0  0  0
   59.6829   33.5226   48.1261 H   0  0  0  0  0  0  0  0  0  0  0  0
   60.9903   34.8414   46.4575 H   0  0  0  0  0  0  0  0  0  0  0  0
   60.3144   34.8346   44.0538 H   0  0  0  0  0  0  0  0  0  0  0  0
   58.3257   33.5197   43.3177 H   0  0  0  0  0  0  0  0  0  0  0  0
   58.9931   27.7995   46.8302 H   0  0  0  0  0  0  0  0  0  0  0  0
   54.3068   23.8183   47.6689 H   0  0  0  0  0  0  0  0  0  0  0  0
   55.3891   22.3066   45.2468 H   0  0  0  0  0  0  0  0  0  0  0  0
   55.7547   21.9450   46.9833 H   0  0  0  0  0  0  0  0  0  0  0  0
   53.8167   20.6570   45.6595 H   0  0  0  0  0  0  0  0  0  0  0  0
   53.6652   21.1304   47.4180 H   0  0  0  0  0  0  0  0  0  0  0  0
   51.7089   21.5819   45.6220 H   0  0  0  0  0  0  0  0  0  0  0  0
   52.0590   22.6744   47.0270 H   0  0  0  0  0  0  0  0  0  0  0  0
   53.0973   23.0454   44.1791 H   0  0  0  0  0  0  0  0  0  0  0  0
   51.7301   23.9509   44.9539 H   0  0  0  0  0  0  0  0  0  0  0  0
   54.2119   24.9486   44.8828 H   0  0  0  0  0  0  0  0  0  0  0  0
   53.0994   25.1718   46.3117 H   0  0  0  0  0  0  0  0  0  0  0  0
  1  2  2  0
  2  3  1  0
  3  4  1  0
  4  5  2  0
  4  6  1  0
  6  7  1  0
  7  8  1  0
  8  9  2  0
  9 10  1  0
 10 11  2  0
 11 12  1  0
 12 13  2  0
  6 14  1  0
 14 15  2  0
 14 16  1  0
 16 17  2  3
 17 18  1  0
 18 19  1  0
 19 20  1  0
 20 21  2  0
 20 22  1  0
 22 23  1  0
 23 24  1  0
 24 25  1  0
 25 26  1  0
 26 27  1  0
 27 28  1  0
 22 29  1  0
 29 30  1  0
 16  2  1  0
 29 18  2  0
 13  8  1  0
 28 23  1  0
  1 31  1  0
  1 32  1  0
  3 33  1  0
  7 34  1  0
  7 35  1  0
  9 36  1  0
 10 37  1  0
 11 38  1  0
 12 39  1  0
 13 40  1  0
 17 41  1  0
 23 42  1  0
 24 43  1  0
 24 44  1  0
 25 45  1  0
 25 46  1  0
 26 47  1  0
 26 48  1  0
 27 49  1  0
 27 50  1  0
 28 51  1  0
 28 52  1  0
M  CHG  2  19  -1  30  -1
M  END
>  <UniqueID>  (70) 
66

>  <SMILES>  (70) 
C=c1[nH]c(=O)n(Cc2ccccc2)c(=O)c1=Cc1[n-]c(=O)n(C2CCCCC2)c1[O-]

>  <Energy>  (70) 
115.39925295315045

>  <Genealogy>  (70) 
C=c1[nH]c(=O)n(Cc2ccccc2)c(=O)c1=Cc1[n-]c(=O)n(C2CCCCC2)c1[O-] (protonated)
C=c1[nH]c(=O)n(Cc2ccccc2)c(=O)c1=Cc1[n-]c(=O)n(C2CCCCC2)c1[O-] (3D coordinates assigned)
C=c1[nH]c(=O)n(Cc2ccccc2)c(=O)c1=Cc1[n-]c(=O)n(C2CCCCC2)c1[O-] (nonaromatic ring conformer: 115.39925295315045 kcal/mol)

>  <smiles>  (70) 
C=c1[nH]c(=O)n(Cc2ccccc2)c(=O)c1=Cc1[nH]c(=O)n(C2CCCCC2)c1O

>  <score_type>  (70) 
oracle

>  <origin>  (70) 
adg

>  <m_score__min__energy>  (70) 
-13.57

>  <m_primary>  (70) 
energy

$$$$
70:0
     RDKit          3D

 47 49  0  0  0  0  0  0  0  0999 V2000
   56.8260   23.9100   43.4450 C   0  0  0  0  0  0  0  0  0  0  0  0
   56.8080   23.7190   44.9030 N   0  0  0  0  0  0  0  0  0  0  0  0
   56.1810   24.8780   45.5970 C   0  0  0  0  0  0  0  0  0  0  0  0
   56.9680   25.3540   46.8220 C   0  0  0  0  0  0  0  0  0  0  0  0
   58.3650   25.5710   46.4360 N   0  0  0  0  0  0  0  0  0  0  0  0
   59.0270   26.8180   46.7140 C   0  0  0  0  0  0  0  0  0  0  0  0
   59.9910   27.3220   45.8320 C   0  0  0  0  0  0  0  0  0  0  0  0
   60.6260   28.5380   46.0980 C   0  0  0  0  0  0  0  0  0  0  0  0
   60.3030   29.2750   47.2470 C   0  0  0  0  0  0  0  0  0  0  0  0
   61.1200   30.8130   47.5530 S   0  0  0  0  0  0  0  0  0  0  0  0
   61.4250   30.9200   49.0220 O   0  0  0  0  0  0  0  0  0  0  0  0
   62.3900   30.8640   46.7530 O   0  0  0  0  0  0  0  0  0  0  0  0
   60.1000   32.1360   47.0850 N   0  0  0  0  0  0  0  0  0  0  0  0
   59.1460   32.1070   46.0160 C   0  0  0  0  0  0  0  0  0  0  0  0
   58.8880   33.2930   45.3170 C   0  0  0  0  0  0  0  0  0  0  0  0
   57.9670   33.3080   44.2670 C   0  0  0  0  0  0  0  0  0  0  0  0
   57.2960   32.1380   43.9060 C   0  0  0  0  0  0  0  0  0  0  0  0
   57.5460   30.9420   44.5950 C   0  0  0  0  0  0  0  0  0  0  0  0
   56.7020   29.4590   44.1590 S   0  0  0  0  0  0  0  0  0  0  0  0
   55.1540   29.4300   44.9290 N   0  0  0  0  0  0  0  0  0  0  0  0
   57.5110   28.2730   44.6030 O   0  0  0  0  0  0  0  0  0  0  0  0
   56.5110   29.3870   42.6700 O   0  0  0  0  0  0  0  0  0  0  0  0
   58.4680   30.9300   45.6510 C   0  0  0  0  0  0  0  0  0  0  0  0
   59.3260   28.7750   48.1330 C   0  0  0  0  0  0  0  0  0  0  0  0
   58.8040   29.7160   49.7230 Br  0  0  0  0  0  0  0  0  0  0  0  0
   58.6980   27.5540   47.8620 C   0  0  0  0  0  0  0  0  0  0  0  0
   59.0610   24.5310   45.6700 C   0  0  0  0  0  0  0  0  0  0  0  0
   58.1430   23.3240   45.4150 C   0  0  0  0  0  0  0  0  0  0  0  0
   56.9270   24.9813   43.2168 H   0  0  0  0  0  0  0  0  0  0  0  0
   57.6764   23.3615   43.0138 H   0  0  0  0  0  0  0  0  0  0  0  0
   55.8881   23.5301   43.0138 H   0  0  0  0  0  0  0  0  0  0  0  0
   56.1074   25.7126   44.8843 H   0  0  0  0  0  0  0  0  0  0  0  0
   55.1947   24.5470   45.9541 H   0  0  0  0  0  0  0  0  0  0  0  0
   56.5376   26.2954   47.1941 H   0  0  0  0  0  0  0  0  0  0  0  0
   56.9152   24.5946   47.6161 H   0  0  0  0  0  0  0  0  0  0  0  0
   60.2499   26.7572   44.9243 H   0  0  0  0  0  0  0  0  0  0  0  0
   61.3856   28.9206   45.4004 H   0  0  0  0  0  0  0  0  0  0  0  0
   59.4137   34.2179   45.5965 H   0  0  0  0  0  0  0  0  0  0  0  0
   57.7699   34.2437   43.7233 H   0  0  0  0  0  0  0  0  0  0  0  0
   56.5700   32.1542   43.0798 H   0  0  0  0  0  0  0  0  0  0  0  0
   55.1790   28.6610   45.6350 H   0  0  0  0  0  0  0  0  0  0  0  0
   58.6622   29.9951   46.1970 H   0  0  0  0  0  0  0  0  0  0  0  0
   57.9380   27.1672   48.5569 H   0  0  0  0  0  0  0  0  0  0  0  0
   59.3810   24.9494   44.7043 H   0  0  0  0  0  0  0  0  0  0  0  0
   59.9310   24.1918   46.2515 H   0  0  0  0  0  0  0  0  0  0  0  0
   58.6233   22.6665   44.6754 H   0  0  0  0  0  0  0  0  0  0  0  0
   57.9921   22.8119   46.3768 H   0  0  0  0  0  0  0  0  0  0  0  0
  1  2  1  0
  2  3  1  0
  3  4  1  0
  4  5  1  0
  5  6  1  0
  6  7  2  0
  7  8  1  0
  8  9  2  0
  9 10  1  0
 10 11  2  0
 10 12  2  0
 10 13  1  0
 13 14  1  0
 14 15  2  0
 15 16  1  0
 16 17  2  0
 17 18  1  0
 18 19  1  0
 19 20  1  0
 19 21  2  0
 19 22  2  0
 18 23  2  0
  9 24  1  0
 24 25  1  0
 24 26  2  0
  5 27  1  0
 27 28  1  0
 28  2  1  0
 26  6  1  0
 23 14  1  0
  1 29  1  0
  1 30  1  0
  1 31  1  0
  3 32  1  0
  3 33  1  0
  4 34  1  0
  4 35  1  0
  7 36  1  0
  8 37  1  0
 15 38  1  0
 16 39  1  0
 17 40  1  0
 20 41  1  0
 23 42  1  0
 26 43  1  0
 27 44  1  0
 27 45  1  0
 28 46  1  0
 28 47  1  0
M  CHG  2  13  -1  20  -1
M  END
>  <UniqueID>  (71) 
67

>  <SMILES>  (71) 
CN1CCN(c2ccc(S(=O)(=O)[N-]c3cccc(S([NH-])(=O)=O)c3)c(Br)c2)CC1

>  <Energy>  (71) 
65.44121516196314

>  <Genealogy>  (71) 
CN1CCN(c2ccc(S(=O)(=O)[N-]c3cccc(S([NH-])(=O)=O)c3)c(Br)c2)CC1 (protonated)
CN1CCN(c2ccc(S(=O)(=O)[N-]c3cccc(S([NH-])(=O)=O)c3)c(Br)c2)CC1 (3D coordinates assigned)
CN1CCN(c2ccc(S(=O)(=O)[N-]c3cccc(S([NH-])(=O)=O)c3)c(Br)c2)CC1 (nonaromatic ring conformer: 65.44121516196314 kcal/mol)

>  <smiles>  (71) 
CN1CCN(c2ccc(S(=O)(=O)Nc3cccc(S(N)(=O)=O)c3)c(Br)c2)CC1

>  <score_type>  (71) 
oracle

>  <origin>  (71) 
adg

>  <m_score__min__energy>  (71) 
-13.699999999999999

>  <m_primary>  (71) 
energy

$$$$
71:0
     RDKit          3D

 49 51  0  0  0  0  0  0  0  0999 V2000
   60.6950   28.4190   49.5350 O   0  0  0  0  0  0  0  0  0  0  0  0
   59.5980   29.0030   49.7420 C   0  0  0  0  0  0  0  0  0  0  0  0
   59.1890   29.2560   51.0910 N   0  0  0  0  0  0  0  0  0  0  0  0
   58.3390   30.3330   51.5030 C   0  0  0  0  0  0  0  0  0  0  0  0
   58.7260   31.6730   51.3340 C   0  0  0  0  0  0  0  0  0  0  0  0
   57.8680   32.7050   51.7190 C   0  0  0  0  0  0  0  0  0  0  0  0
   56.6130   32.4120   52.2560 C   0  0  0  0  0  0  0  0  0  0  0  0
   56.2010   31.0730   52.4050 C   0  0  0  0  0  0  0  0  0  0  0  0
   54.9470   30.7250   52.9280 O   0  0  0  0  0  0  0  0  0  0  0  0
   54.0520   29.7940   52.3230 C   0  0  0  0  0  0  0  0  0  0  0  0
   52.9690   30.5400   51.6090 C   0  0  0  0  0  0  0  0  0  0  0  0
   52.5060   30.1040   50.3630 C   0  0  0  0  0  0  0  0  0  0  0  0
   51.4840   30.8240   49.7420 C   0  0  0  0  0  0  0  0  0  0  0  0
   51.0430   30.4600   48.6210 O   0  0  0  0  0  0  0  0  0  0  0  0
   50.9620   31.9210   50.3520 N   0  0  0  0  0  0  0  0  0  0  0  0
   51.4220   32.3310   51.5620 C   0  0  0  0  0  0  0  0  0  0  0  0
   50.9290   33.3530   52.1080 O   0  0  0  0  0  0  0  0  0  0  0  0
   52.4140   31.6420   52.1840 N   0  0  0  0  0  0  0  0  0  0  0  0
   57.0700   30.0430   52.0190 C   0  0  0  0  0  0  0  0  0  0  0  0
   58.8070   29.4630   48.6370 N   0  0  0  0  0  0  0  0  0  0  0  0
   59.1150   29.0710   47.2620 C   0  0  0  0  0  0  0  0  0  0  0  0
   59.4990   30.2660   46.4250 C   0  0  0  0  0  0  0  0  0  0  0  0
   58.6930   31.3290   46.2050 C   0  0  0  0  0  0  0  0  0  0  0  0
   57.8170   31.3620   44.9710 C   0  0  0  0  0  0  0  0  0  0  0  0
   57.8580   32.7590   44.3380 C   0  0  0  0  0  0  0  0  0  0  0  0
   57.5480   33.9030   45.3340 C   0  0  0  0  0  0  0  0  0  0  0  0
   57.4760   33.4530   46.8040 C   0  0  0  0  0  0  0  0  0  0  0  0
   58.6200   32.5000   47.1660 C   0  0  0  0  0  0  0  0  0  0  0  0
   59.7075   31.9097   50.8973 H   0  0  0  0  0  0  0  0  0  0  0  0
   58.1819   33.7524   51.5988 H   0  0  0  0  0  0  0  0  0  0  0  0
   55.9439   33.2291   52.5637 H   0  0  0  0  0  0  0  0  0  0  0  0
   54.6026   29.1690   51.6045 H   0  0  0  0  0  0  0  0  0  0  0  0
   53.6076   29.1532   53.0988 H   0  0  0  0  0  0  0  0  0  0  0  0
   52.9378   29.2133   49.8831 H   0  0  0  0  0  0  0  0  0  0  0  0
   56.7515   28.9952   52.1226 H   0  0  0  0  0  0  0  0  0  0  0  0
   58.0210   30.1260   48.8260 H   0  0  0  0  0  0  0  0  0  0  0  0
   59.9513   28.3565   47.2717 H   0  0  0  0  0  0  0  0  0  0  0  0
   58.2171   28.6126   46.8219 H   0  0  0  0  0  0  0  0  0  0  0  0
   60.4980   30.2729   45.9646 H   0  0  0  0  0  0  0  0  0  0  0  0
   58.1827   30.6216   44.2443 H   0  0  0  0  0  0  0  0  0  0  0  0
   56.7815   31.1240   45.2558 H   0  0  0  0  0  0  0  0  0  0  0  0
   58.8635   32.9228   43.9230 H   0  0  0  0  0  0  0  0  0  0  0  0
   57.0756   32.7848   43.5652 H   0  0  0  0  0  0  0  0  0  0  0  0
   58.3377   34.6634   45.2436 H   0  0  0  0  0  0  0  0  0  0  0  0
   56.5528   34.2914   45.0717 H   0  0  0  0  0  0  0  0  0  0  0  0
   57.5343   34.3407   47.4510 H   0  0  0  0  0  0  0  0  0  0  0  0
   56.5265   32.9174   46.9507 H   0  0  0  0  0  0  0  0  0  0  0  0
   59.5705   33.0524   47.1292 H   0  0  0  0  0  0  0  0  0  0  0  0
   58.4347   32.1063   48.1763 H   0  0  0  0  0  0  0  0  0  0  0  0
  1  2  2  0
  2  3  1  0
  3  4  1  0
  4  5  2  0
  5  6  1  0
  6  7  2  0
  7  8  1  0
  8  9  1  0
  9 10  1  0
 10 11  1  0
 11 12  2  0
 12 13  1  0
 13 14  2  0
 13 15  1  0
 15 16  1  0
 16 17  2  0
 16 18  1  0
  8 19  2  0
  2 20  1  0
 20 21  1  0
 21 22  1  0
 22 23  2  3
 23 24  1  0
 24 25  1  0
 25 26  1  0
 26 27  1  0
 27 28  1  0
 19  4  1  0
 28 23  1  0
 18 11  1  0
  5 29  1  0
  6 30  1  0
  7 31  1  0
 10 32  1  0
 10 33  1  0
 12 34  1  0
 19 35  1  0
 20 36  1  0
 21 37  1  0
 21 38  1  0
 22 39  1  0
 24 40  1  0
 24 41  1  0
 25 42  1  0
 25 43  1  0
 26 44  1  0
 26 45  1  0
 27 46  1  0
 27 47  1  0
 28 48  1  0
 28 49  1  0
M  CHG  3   3  -1  15  -1  18  -1
M  END
>  <UniqueID>  (72) 
68

>  <SMILES>  (72) 
O=C([N-]c1cccc(OCc2cc(=O)[n-]c(=O)[n-]2)c1)NCC=C1CCCCC1

>  <Energy>  (72) 
50.82774076914882

>  <Genealogy>  (72) 
O=C([N-]c1cccc(OCc2cc(=O)[n-]c(=O)[n-]2)c1)NCC=C1CCCCC1 (protonated)
O=C([N-]c1cccc(OCc2cc(=O)[n-]c(=O)[n-]2)c1)NCC=C1CCCCC1 (3D coordinates assigned)
O=C([N-]c1cccc(OCc2cc(=O)[n-]c(=O)[n-]2)c1)NCC=C1CCCCC1 (nonaromatic ring conformer: 50.82774076914882 kcal/mol)

>  <smiles>  (72) 
O=C(NCC=C1CCCCC1)Nc1cccc(OCc2cc(=O)[nH]c(=O)[nH]2)c1

>  <score_type>  (72) 
oracle

>  <origin>  (72) 
adg

>  <m_score__min__energy>  (72) 
-14.460000000000001

>  <m_primary>  (72) 
energy

$$$$
72:0
     RDKit          3D

 70 73  0  0  0  0  0  0  0  0999 V2000
   55.7330   29.5900   52.8250 C   0  0  0  0  0  0  0  0  0  0  0  0
   56.7800   29.9320   51.9210 O   0  0  0  0  0  0  0  0  0  0  0  0
   57.4840   31.1460   51.9450 C   0  0  0  0  0  0  0  0  0  0  0  0
   57.4400   32.0160   53.0520 C   0  0  0  0  0  0  0  0  0  0  0  0
   58.1500   33.2190   53.0320 C   0  0  0  0  0  0  0  0  0  0  0  0
   58.9060   33.5680   51.9090 C   0  0  0  0  0  0  0  0  0  0  0  0
   58.9500   32.7150   50.8040 C   0  0  0  0  0  0  0  0  0  0  0  0
   58.2370   31.5090   50.8170 C   0  0  0  0  0  0  0  0  0  0  0  0
   58.2760   30.6480   49.6790 N   0  0  0  0  0  0  0  0  0  0  0  0
   59.6950   30.5320   48.6960 S   0  0  0  0  0  0  0  0  0  0  0  0
   60.9040   30.5340   49.5870 O   0  0  0  0  0  0  0  0  0  0  0  0
   59.6750   29.2360   47.9400 O   0  0  0  0  0  0  0  0  0  0  0  0
   59.7950   31.9290   47.6130 C   0  0  0  0  0  0  0  0  0  0  0  0
   58.7950   32.0730   46.6380 C   0  0  0  0  0  0  0  0  0  0  0  0
   58.8210   33.1460   45.7310 C   0  0  0  0  0  0  0  0  0  0  0  0
   57.8180   33.3000   44.7160 N   0  0  0  0  0  0  0  0  0  0  0  0
   57.4250   32.2910   43.7780 C   0  0  0  0  0  0  0  0  0  0  0  0
   57.9380   32.2580   42.6270 O   0  0  0  0  0  0  0  0  0  0  0  0
   56.4710   31.2160   44.2090 C   0  0  0  0  0  0  0  0  0  0  0  0
   56.5120   29.9990   43.2790 C   0  0  0  0  0  0  0  0  0  0  0  0
   57.1130   28.8430   43.9480 N   0  0  0  0  0  0  0  0  0  0  0  0
   58.3870   28.9240   44.6030 C   0  0  0  0  0  0  0  0  0  0  0  0
   59.0750   29.9790   44.5080 O   0  0  0  0  0  0  0  0  0  0  0  0
   58.9280   27.7740   45.3620 C   0  0  0  0  0  0  0  0  0  0  0  0
   60.3110   27.7100   45.6060 C   0  0  0  0  0  0  0  0  0  0  0  0
   60.8590   26.6340   46.3070 C   0  0  0  0  0  0  0  0  0  0  0  0
   60.0350   25.6120   46.7760 C   0  0  0  0  0  0  0  0  0  0  0  0
   58.6580   25.6660   46.5550 C   0  0  0  0  0  0  0  0  0  0  0  0
   58.0860   26.7520   45.8580 C   0  0  0  0  0  0  0  0  0  0  0  0
   56.6980   26.8510   45.6690 O   0  0  0  0  0  0  0  0  0  0  0  0
   55.7700   25.8020   45.9240 C   0  0  0  0  0  0  0  0  0  0  0  0
   59.8800   34.0550   45.7770 C   0  0  0  0  0  0  0  0  0  0  0  0
   60.8780   33.9270   46.7420 C   0  0  0  0  0  0  0  0  0  0  0  0
   60.8420   32.8780   47.6730 C   0  0  0  0  0  0  0  0  0  0  0  0
   61.8740   32.8090   48.6650 N   0  0  0  0  0  0  0  0  0  0  0  0
   61.7840   33.6770   49.8430 C   0  0  0  0  0  0  0  0  0  0  0  0
   63.1100   33.6750   50.5970 C   0  0  0  0  0  0  0  0  0  0  0  0
   64.1600   33.8270   49.6660 O   0  0  0  0  0  0  0  0  0  0  0  0
   64.3570   32.6220   48.9460 C   0  0  0  0  0  0  0  0  0  0  0  0
   63.0520   31.9650   48.4300 C   0  0  0  0  0  0  0  0  0  0  0  0
   56.0890   29.7063   53.8593 H   0  0  0  0  0  0  0  0  0  0  0  0
   54.8720   30.2536   52.6568 H   0  0  0  0  0  0  0  0  0  0  0  0
   55.4297   28.5461   52.6568 H   0  0  0  0  0  0  0  0  0  0  0  0
   56.8438   31.7469   53.9364 H   0  0  0  0  0  0  0  0  0  0  0  0
   58.1142   33.8925   53.9010 H   0  0  0  0  0  0  0  0  0  0  0  0
   59.4662   34.5145   51.8957 H   0  0  0  0  0  0  0  0  0  0  0  0
   59.5458   32.9907   49.9214 H   0  0  0  0  0  0  0  0  0  0  0  0
   57.9802   31.3360   46.5834 H   0  0  0  0  0  0  0  0  0  0  0  0
   56.7369   30.8935   45.2265 H   0  0  0  0  0  0  0  0  0  0  0  0
   55.4538   31.6334   44.1744 H   0  0  0  0  0  0  0  0  0  0  0  0
   55.4859   29.7446   42.9751 H   0  0  0  0  0  0  0  0  0  0  0  0
   57.1245   30.2514   42.4008 H   0  0  0  0  0  0  0  0  0  0  0  0
   56.6940   27.8990   43.7870 H   0  0  0  0  0  0  0  0  0  0  0  0
   60.9669   28.5144   45.2416 H   0  0  0  0  0  0  0  0  0  0  0  0
   61.9430   26.5926   46.4895 H   0  0  0  0  0  0  0  0  0  0  0  0
   60.4708   24.7617   47.3211 H   0  0  0  0  0  0  0  0  0  0  0  0
   58.0134   24.8559   46.9269 H   0  0  0  0  0  0  0  0  0  0  0  0
   55.6541   25.6710   47.0100 H   0  0  0  0  0  0  0  0  0  0  0  0
   54.7967   26.0573   45.4795 H   0  0  0  0  0  0  0  0  0  0  0  0
   56.1421   24.8671   45.4795 H   0  0  0  0  0  0  0  0  0  0  0  0
   59.9271   34.8770   45.0475 H   0  0  0  0  0  0  0  0  0  0  0  0
   61.7016   34.6555   46.7738 H   0  0  0  0  0  0  0  0  0  0  0  0
   61.5492   34.7027   49.5223 H   0  0  0  0  0  0  0  0  0  0  0  0
   60.9912   33.3022   50.5071 H   0  0  0  0  0  0  0  0  0  0  0  0
   63.1287   34.5079   51.3153 H   0  0  0  0  0  0  0  0  0  0  0  0
   63.2285   32.7283   51.1445 H   0  0  0  0  0  0  0  0  0  0  0  0
   64.9987   32.8398   48.0795 H   0  0  0  0  0  0  0  0  0  0  0  0
   64.8125   31.9076   49.6475 H   0  0  0  0  0  0  0  0  0  0  0  0
   63.1492   31.7860   47.3490 H   0  0  0  0  0  0  0  0  0  0  0  0
   62.9077   31.0240   48.9810 H   0  0  0  0  0  0  0  0  0  0  0  0
  1  2  1  0
  2  3  1  0
  3  4  2  0
  4  5  1  0
  5  6  2  0
  6  7  1  0
  7  8  2  0
  8  9  1  0
  9 10  1  0
 10 11  2  0
 10 12  2  0
 10 13  1  0
 13 14  2  0
 14 15  1  0
 15 16  1  0
 16 17  1  0
 17 18  2  0
 17 19  1  0
 19 20  1  0
 20 21  1  0
 21 22  1  0
 22 23  2  0
 22 24  1  0
 24 25  2  0
 25 26  1  0
 26 27  2  0
 27 28  1  0
 28 29  2  0
 29 30  1  0
 30 31  1  0
 15 32  2  0
 32 33  1  0
 33 34  2  0
 34 35  1  0
 35 36  1  0
 36 37  1  0
 37 38  1  0
 38 39  1  0
 39 40  1  0
  8  3  1  0
 34 13  1  0
 40 35  1  0
 29 24  1  0
  1 41  1  0
  1 42  1  0
  1 43  1  0
  4 44  1  0
  5 45  1  0
  6 46  1  0
  7 47  1  0
 14 48  1  0
 19 49  1  0
 19 50  1  0
 20 51  1  0
 20 52  1  0
 21 53  1  0
 25 54  1  0
 26 55  1  0
 27 56  1  0
 28 57  1  0
 31 58  1  0
 31 59  1  0
 31 60  1  0
 32 61  1  0
 33 62  1  0
 36 63  1  0
 36 64  1  0
 37 65  1  0
 37 66  1  0
 39 67  1  0
 39 68  1  0
 40 69  1  0
 40 70  1  0
M  CHG  2   9  -1  16  -1
M  END
>  <UniqueID>  (73) 
69

>  <SMILES>  (73) 
COc1ccccc1[N-]S(=O)(=O)c1cc([N-]C(=O)CCNC(=O)c2ccccc2OC)ccc1N1CCOCC1

>  <Energy>  (73) 
96.25497960458824

>  <Genealogy>  (73) 
COc1ccccc1[N-]S(=O)(=O)c1cc([N-]C(=O)CCNC(=O)c2ccccc2OC)ccc1N1CCOCC1 (protonated)
COc1ccccc1[N-]S(=O)(=O)c1cc([N-]C(=O)CCNC(=O)c2ccccc2OC)ccc1N1CCOCC1 (3D coordinates assigned)
COc1ccccc1[N-]S(=O)(=O)c1cc([N-]C(=O)CCNC(=O)c2ccccc2OC)ccc1N1CCOCC1 (nonaromatic ring conformer: 96.25497960458824 kcal/mol)

>  <smiles>  (73) 
COc1ccccc1NS(=O)(=O)c1cc(NC(=O)CCNC(=O)c2ccccc2OC)ccc1N1CCOCC1

>  <score_type>  (73) 
oracle

>  <origin>  (73) 
adg

>  <m_score__min__energy>  (73) 
-11.67

>  <m_primary>  (73) 
energy

$$$$
73:0
     RDKit          3D

 40 41  0  0  0  0  0  0  0  0999 V2000
   54.9500   23.0770   47.2160 C   0  0  0  0  0  0  0  0  0  0  0  0
   55.5430   23.2900   45.8510 C   0  0  0  0  0  0  0  0  0  0  0  0
   55.4540   22.2770   44.8810 C   0  0  0  0  0  0  0  0  0  0  0  0
   55.9890   22.4710   43.6050 C   0  0  0  0  0  0  0  0  0  0  0  0
   55.8970   21.4630   42.6530 O   0  0  0  0  0  0  0  0  0  0  0  0
   56.6210   23.6740   43.2880 C   0  0  0  0  0  0  0  0  0  0  0  0
   56.7130   24.6910   44.2420 C   0  0  0  0  0  0  0  0  0  0  0  0
   56.1580   24.5170   45.5230 C   0  0  0  0  0  0  0  0  0  0  0  0
   56.2480   25.5540   46.5150 N   0  0  0  0  0  0  0  0  0  0  0  0
   57.4420   26.2350   46.9210 C   0  0  0  0  0  0  0  0  0  0  0  0
   57.9920   25.8990   48.0030 O   0  0  0  0  0  0  0  0  0  0  0  0
   58.0270   27.3390   46.1240 C   0  0  0  0  0  0  0  0  0  0  0  0
   57.1740   28.2270   45.4480 C   0  0  0  0  0  0  0  0  0  0  0  0
   57.6980   29.2920   44.7030 C   0  0  0  0  0  0  0  0  0  0  0  0
   56.6280   30.4080   43.8560 S   0  0  0  0  0  0  0  0  0  0  0  0
   55.4760   29.6610   43.2430 O   0  0  0  0  0  0  0  0  0  0  0  0
   56.0800   31.4020   44.8410 O   0  0  0  0  0  0  0  0  0  0  0  0
   57.5160   31.2550   42.6240 N   0  0  0  0  0  0  0  0  0  0  0  0
   57.7520   32.6500   43.0020 C   0  0  0  0  0  0  0  0  0  0  0  0
   58.5590   32.7140   44.2980 C   0  0  0  0  0  0  0  0  0  0  0  0
   57.8710   33.5490   45.2890 C   0  0  0  0  0  0  0  0  0  0  0  0
   57.3270   34.2070   46.0710 N   0  0  0  0  0  0  0  0  0  0  0  0
   59.0830   29.4610   44.6170 C   0  0  0  0  0  0  0  0  0  0  0  0
   59.9410   28.5730   45.2680 C   0  0  0  0  0  0  0  0  0  0  0  0
   59.4230   27.5040   46.0130 C   0  0  0  0  0  0  0  0  0  0  0  0
   60.2940   26.6000   46.6220 O   0  0  0  0  0  0  0  0  0  0  0  0
   55.6916   23.3434   47.9836 H   0  0  0  0  0  0  0  0  0  0  0  0
   54.0587   23.7112   47.3316 H   0  0  0  0  0  0  0  0  0  0  0  0
   54.6659   22.0206   47.3316 H   0  0  0  0  0  0  0  0  0  0  0  0
   54.9601   21.3256   45.1279 H   0  0  0  0  0  0  0  0  0  0  0  0
   57.0477   23.8221   42.2850 H   0  0  0  0  0  0  0  0  0  0  0  0
   57.2222   25.6329   43.9899 H   0  0  0  0  0  0  0  0  0  0  0  0
   56.0846   28.0851   45.5039 H   0  0  0  0  0  0  0  0  0  0  0  0
   58.3110   33.1546   42.2001 H   0  0  0  0  0  0  0  0  0  0  0  0
   56.7842   33.1498   43.1556 H   0  0  0  0  0  0  0  0  0  0  0  0
   58.6784   31.6975   44.7010 H   0  0  0  0  0  0  0  0  0  0  0  0
   59.5440   33.1540   44.0833 H   0  0  0  0  0  0  0  0  0  0  0  0
   59.4981   30.2966   44.0343 H   0  0  0  0  0  0  0  0  0  0  0  0
   61.0297   28.7127   45.1962 H   0  0  0  0  0  0  0  0  0  0  0  0
   60.0140   26.0520   47.4270 H   0  0  0  0  0  0  0  0  0  0  0  0
  1  2  1  0
  2  3  2  0
  3  4  1  0
  4  5  1  0
  4  6  2  0
  6  7  1  0
  7  8  2  0
  8  9  1  0
  9 10  1  0
 10 11  2  0
 10 12  1  0
 12 13  2  0
 13 14  1  0
 14 15  1  0
 15 16  2  0
 15 17  2  0
 15 18  1  0
 18 19  1  0
 19 20  1  0
 20 21  1  0
 21 22  3  0
 14 23  2  0
 23 24  1  0
 24 25  2  0
 25 26  1  0
  8  2  1  0
 25 12  1  0
  1 27  1  0
  1 28  1  0
  1 29  1  0
  3 30  1  0
  6 31  1  0
  7 32  1  0
 13 33  1  0
 19 34  1  0
 19 35  1  0
 20 36  1  0
 20 37  1  0
 23 38  1  0
 24 39  1  0
 26 40  1  0
M  CHG  3   5  -1   9  -1  18  -1
M  END
>  <UniqueID>  (74) 
70

>  <SMILES>  (74) 
Cc1cc([O-])ccc1[N-]C(=O)c1cc(S(=O)(=O)[N-]CCC#N)ccc1O

>  <Energy>  (74) 
44.459589530794204

>  <Genealogy>  (74) 
Cc1cc([O-])ccc1[N-]C(=O)c1cc(S(=O)(=O)[N-]CCC#N)ccc1O (protonated)
Cc1cc([O-])ccc1[N-]C(=O)c1cc(S(=O)(=O)[N-]CCC#N)ccc1O (3D coordinates assigned)
Cc1cc([O-])ccc1[N-]C(=O)c1cc(S(=O)(=O)[N-]CCC#N)ccc1O (optimized conformer: 44.459589530794204 kcal/mol)

>  <smiles>  (74) 
Cc1cc(O)ccc1NC(=O)c1cc(S(=O)(=O)NCCC#N)ccc1O

>  <score_type>  (74) 
oracle

>  <origin>  (74) 
adg

>  <m_score__min__energy>  (74) 
-11.859999999999999

>  <m_primary>  (74) 
energy

$$$$
74:0
     RDKit          3D

 43 46  0  0  0  0  0  0  0  0999 V2000
   60.0040   35.8070   46.2860 C   0  0  0  0  0  0  0  0  0  0  0  0
   59.3400   34.6770   46.0200 C   0  0  0  0  0  0  0  0  0  0  0  0
   58.5380   34.5800   44.8710 C   0  0  0  0  0  0  0  0  0  0  0  0
   57.8430   33.3990   44.5910 C   0  0  0  0  0  0  0  0  0  0  0  0
   57.9320   32.2860   45.4540 C   0  0  0  0  0  0  0  0  0  0  0  0
   57.2590   31.1460   45.1840 C   0  0  0  0  0  0  0  0  0  0  0  0
   56.1120   31.1100   44.4600 N   0  0  0  0  0  0  0  0  0  0  0  0
   55.7980   29.8050   44.4360 C   0  0  0  0  0  0  0  0  0  0  0  0
   54.7890   29.3410   43.8440 O   0  0  0  0  0  0  0  0  0  0  0  0
   56.7330   29.0790   45.1320 C   0  0  0  0  0  0  0  0  0  0  0  0
   56.7590   27.7490   45.2820 C   0  0  0  0  0  0  0  0  0  0  0  0
   57.9930   27.0050   45.6200 C   0  0  0  0  0  0  0  0  0  0  0  0
   58.9550   27.6130   46.4470 C   0  0  0  0  0  0  0  0  0  0  0  0
   60.0840   26.9040   46.8610 C   0  0  0  0  0  0  0  0  0  0  0  0
   60.2610   25.5790   46.4670 C   0  0  0  0  0  0  0  0  0  0  0  0
   59.3160   24.9600   45.6460 C   0  0  0  0  0  0  0  0  0  0  0  0
   58.1820   25.6620   45.2010 C   0  0  0  0  0  0  0  0  0  0  0  0
   57.2450   24.9790   44.2690 C   0  0  0  0  0  0  0  0  0  0  0  0
   57.4490   25.0580   43.0270 O   0  0  0  0  0  0  0  0  0  0  0  0
   56.0370   24.2700   44.7550 C   0  0  0  0  0  0  0  0  0  0  0  0
   55.4580   23.2060   44.0290 C   0  0  0  0  0  0  0  0  0  0  0  0
   56.0070   22.7360   42.8360 O   0  0  0  0  0  0  0  0  0  0  0  0
   54.3480   22.5900   44.5120 N   0  0  0  0  0  0  0  0  0  0  0  0
   53.7840   22.9650   45.6870 C   0  0  0  0  0  0  0  0  0  0  0  0
   52.7590   22.3710   46.1100 O   0  0  0  0  0  0  0  0  0  0  0  0
   54.3260   23.9770   46.4080 N   0  0  0  0  0  0  0  0  0  0  0  0
   55.4300   24.6360   45.9740 C   0  0  0  0  0  0  0  0  0  0  0  0
   55.8940   25.5810   46.6670 O   0  0  0  0  0  0  0  0  0  0  0  0
   57.6670   29.9230   45.6070 N   0  0  0  0  0  0  0  0  0  0  0  0
   58.7410   32.3950   46.6050 C   0  0  0  0  0  0  0  0  0  0  0  0
   59.4350   33.5760   46.8830 C   0  0  0  0  0  0  0  0  0  0  0  0
   60.6307   35.8775   47.1873 H   0  0  0  0  0  0  0  0  0  0  0  0
   59.9235   36.6659   45.6035 H   0  0  0  0  0  0  0  0  0  0  0  0
   58.4560   35.4379   44.1874 H   0  0  0  0  0  0  0  0  0  0  0  0
   57.2194   33.3370   43.6870 H   0  0  0  0  0  0  0  0  0  0  0  0
   55.8239   27.1854   45.1484 H   0  0  0  0  0  0  0  0  0  0  0  0
   58.8165   28.6554   46.7700 H   0  0  0  0  0  0  0  0  0  0  0  0
   60.8352   27.3920   47.4993 H   0  0  0  0  0  0  0  0  0  0  0  0
   61.1466   25.0198   46.8033 H   0  0  0  0  0  0  0  0  0  0  0  0
   59.4604   23.9121   45.3443 H   0  0  0  0  0  0  0  0  0  0  0  0
   56.4540   23.3380   42.1570 H   0  0  0  0  0  0  0  0  0  0  0  0
   58.8265   31.5401   47.2919 H   0  0  0  0  0  0  0  0  0  0  0  0
   60.0603   33.6422   47.7855 H   0  0  0  0  0  0  0  0  0  0  0  0
  1  2  2  0
  2  3  1  0
  3  4  2  0
  4  5  1  0
  5  6  2  3
  6  7  1  0
  7  8  1  0
  8  9  2  0
  8 10  1  0
 10 11  2  3
 11 12  1  0
 12 13  2  0
 13 14  1  0
 14 15  2  0
 15 16  1  0
 16 17  2  0
 17 18  1  0
 18 19  2  0
 18 20  1  0
 20 21  2  0
 21 22  1  0
 21 23  1  0
 23 24  1  0
 24 25  2  0
 24 26  1  0
 26 27  1  0
 27 28  2  0
 10 29  1  0
  5 30  1  0
 30 31  2  0
 31  2  1  0
 29  6  1  0
 17 12  1  0
 27 20  1  0
  1 32  1  0
  1 33  1  0
  3 34  1  0
  4 35  1  0
 11 36  1  0
 13 37  1  0
 14 38  1  0
 15 39  1  0
 16 40  1  0
 22 41  1  0
 30 42  1  0
 31 43  1  0
M  CHG  4   7  -1  23  -1  26  -1  29  -1
M  END
>  <UniqueID>  (75) 
71

>  <SMILES>  (75) 
C=c1ccc(=c2[n-]c(=O)c(=Cc3ccccc3C(=O)c3c(O)[n-]c(=O)[n-]c3=O)[n-]2)cc1

>  <Energy>  (75) 
99.50893911249017

>  <Genealogy>  (75) 
C=c1ccc(=c2[n-]c(=O)c(=Cc3ccccc3C(=O)c3c(O)[n-]c(=O)[n-]c3=O)[n-]2)cc1 (protonated)
C=c1ccc(=c2[n-]c(=O)c(=Cc3ccccc3C(=O)c3c(O)[n-]c(=O)[n-]c3=O)[n-]2)cc1 (3D coordinates assigned)
C=c1ccc(=c2[n-]c(=O)c(=Cc3ccccc3C(=O)c3c(O)[n-]c(=O)[n-]c3=O)[n-]2)cc1 (optimized conformer: 99.50893911249017 kcal/mol)

>  <smiles>  (75) 
C=c1ccc(=c2[nH]c(=O)c(=Cc3ccccc3C(=O)c3c(O)[nH]c(=O)[nH]c3=O)[nH]2)cc1

>  <score_type>  (75) 
oracle

>  <origin>  (75) 
adg

>  <m_score__min__energy>  (75) 
-16.579999999999998

>  <m_primary>  (75) 
energy

$$$$
75:0
     RDKit          3D

 60 65  0  0  0  0  0  0  0  0999 V2000
   60.6510   31.3180   46.0280 O   0  0  0  0  0  0  0  0  0  0  0  0
   60.2140   30.6150   46.9750 C   0  0  0  0  0  0  0  0  0  0  0  0
   59.9150   29.2330   46.7270 N   0  0  0  0  0  0  0  0  0  0  0  0
   58.7490   28.7570   46.3890 C   0  0  0  0  0  0  0  0  0  0  0  0
   58.2870   27.4690   46.6050 C   0  0  0  0  0  0  0  0  0  0  0  0
   57.0090   27.4870   46.0760 C   0  0  0  0  0  0  0  0  0  0  0  0
   56.0450   26.3810   46.0980 C   0  0  0  0  0  0  0  0  0  0  0  0
   54.8430   26.6430   46.3680 O   0  0  0  0  0  0  0  0  0  0  0  0
   56.4320   25.0290   45.7900 N   0  0  0  0  0  0  0  0  0  0  0  0
   55.5480   23.8800   46.0200 C   0  0  0  0  0  0  0  0  0  0  0  0
   56.2210   22.7880   45.2760 C   0  0  0  0  0  0  0  0  0  0  0  0
   55.7900   21.4690   45.1140 C   0  0  0  0  0  0  0  0  0  0  0  0
   56.5490   20.6110   44.2930 C   0  0  0  0  0  0  0  0  0  0  0  0
   57.7210   21.0840   43.6620 C   0  0  0  0  0  0  0  0  0  0  0  0
   58.1290   22.4160   43.8290 C   0  0  0  0  0  0  0  0  0  0  0  0
   57.3600   23.2480   44.6480 C   0  0  0  0  0  0  0  0  0  0  0  0
   57.5620   24.6900   44.9140 C   0  0  0  0  0  0  0  0  0  0  0  0
   56.7250   28.7120   45.5910 N   0  0  0  0  0  0  0  0  0  0  0  0
   57.7850   29.4820   45.7810 N   0  0  0  0  0  0  0  0  0  0  0  0
   57.8430   30.8550   45.3510 C   0  0  0  0  0  0  0  0  0  0  0  0
   57.7530   31.8970   46.2990 C   0  0  0  0  0  0  0  0  0  0  0  0
   57.8540   33.2370   45.9090 C   0  0  0  0  0  0  0  0  0  0  0  0
   58.0560   33.5490   44.5680 C   0  0  0  0  0  0  0  0  0  0  0  0
   58.1560   32.5200   43.6180 C   0  0  0  0  0  0  0  0  0  0  0  0
   58.0500   31.1790   44.0050 C   0  0  0  0  0  0  0  0  0  0  0  0
   60.1290   31.1900   48.3400 C   0  0  0  0  0  0  0  0  0  0  0  0
   59.0800   30.7890   49.1820 C   0  0  0  0  0  0  0  0  0  0  0  0
   58.9400   31.3260   50.4710 C   0  0  0  0  0  0  0  0  0  0  0  0
   57.8370   30.8430   51.3290 C   0  0  0  0  0  0  0  0  0  0  0  0
   58.0530   29.7660   52.2040 C   0  0  0  0  0  0  0  0  0  0  0  0
   57.0250   29.3540   53.0540 C   0  0  0  0  0  0  0  0  0  0  0  0
   55.7930   30.0240   53.0340 C   0  0  0  0  0  0  0  0  0  0  0  0
   54.7860   29.6410   53.8610 F   0  0  0  0  0  0  0  0  0  0  0  0
   55.6150   31.1010   52.1610 C   0  0  0  0  0  0  0  0  0  0  0  0
   56.6270   31.4850   51.3310 N   0  0  0  0  0  0  0  0  0  0  0  0
   59.8600   32.2960   50.9220 C   0  0  0  0  0  0  0  0  0  0  0  0
   59.7080   33.0610   52.5020 Cl  0  0  0  0  0  0  0  0  0  0  0  0
   60.9060   32.7050   50.0880 C   0  0  0  0  0  0  0  0  0  0  0  0
   61.0520   32.1500   48.8030 C   0  0  0  0  0  0  0  0  0  0  0  0
   62.3580   32.7500   47.7910 Cl  0  0  0  0  0  0  0  0  0  0  0  0
   58.8125   26.6298   47.0842 H   0  0  0  0  0  0  0  0  0  0  0  0
   55.4778   23.6434   47.0920 H   0  0  0  0  0  0  0  0  0  0  0  0
   54.5134   24.0559   45.6904 H   0  0  0  0  0  0  0  0  0  0  0  0
   54.8797   21.1086   45.6154 H   0  0  0  0  0  0  0  0  0  0  0  0
   56.2277   19.5697   44.1431 H   0  0  0  0  0  0  0  0  0  0  0  0
   58.3173   20.4040   43.0360 H   0  0  0  0  0  0  0  0  0  0  0  0
   59.0315   22.7962   43.3280 H   0  0  0  0  0  0  0  0  0  0  0  0
   58.5218   24.8673   45.4212 H   0  0  0  0  0  0  0  0  0  0  0  0
   57.5963   25.2979   43.9979 H   0  0  0  0  0  0  0  0  0  0  0  0
   57.6011   31.6518   47.3605 H   0  0  0  0  0  0  0  0  0  0  0  0
   57.7742   34.0388   46.6578 H   0  0  0  0  0  0  0  0  0  0  0  0
   58.1372   34.5998   44.2529 H   0  0  0  0  0  0  0  0  0  0  0  0
   58.3192   32.7701   42.5593 H   0  0  0  0  0  0  0  0  0  0  0  0
   58.1293   30.3807   43.2523 H   0  0  0  0  0  0  0  0  0  0  0  0
   58.3558   30.0416   48.8257 H   0  0  0  0  0  0  0  0  0  0  0  0
   59.0248   29.2509   52.2195 H   0  0  0  0  0  0  0  0  0  0  0  0
   57.1808   28.5063   53.7375 H   0  0  0  0  0  0  0  0  0  0  0  0
   54.6564   31.6402   52.1433 H   0  0  0  0  0  0  0  0  0  0  0  0
   56.4670   32.3080   50.7030 H   0  0  0  0  0  0  0  0  0  0  0  0
   61.6191   33.4655   50.4389 H   0  0  0  0  0  0  0  0  0  0  0  0
  1  2  2  0
  2  3  1  0
  3  4  2  3
  4  5  1  0
  5  6  2  0
  6  7  1  0
  7  8  2  0
  7  9  1  0
  9 10  1  0
 10 11  1  0
 11 12  2  0
 12 13  1  0
 13 14  2  0
 14 15  1  0
 15 16  2  0
 16 17  1  0
  6 18  1  0
 18 19  1  0
 19 20  1  0
 20 21  2  0
 21 22  1  0
 22 23  2  0
 23 24  1  0
 24 25  2  0
  2 26  1  0
 26 27  2  0
 27 28  1  0
 28 29  1  0
 29 30  2  0
 30 31  1  0
 31 32  2  0
 32 33  1  0
 32 34  1  0
 34 35  2  0
 28 36  2  0
 36 37  1  0
 36 38  1  0
 38 39  2  0
 39 40  1  0
 19  4  1  0
 25 20  1  0
 39 26  1  0
 17  9  1  0
 35 29  1  0
 16 11  1  0
  5 41  1  0
 10 42  1  0
 10 43  1  0
 12 44  1  0
 13 45  1  0
 14 46  1  0
 15 47  1  0
 17 48  1  0
 17 49  1  0
 21 50  1  0
 22 51  1  0
 23 52  1  0
 24 53  1  0
 25 54  1  0
 27 55  1  0
 30 56  1  0
 31 57  1  0
 34 58  1  0
 35 59  1  0
 38 60  1  0
M  CHG  2  18  -1  35   1
M  END
>  <UniqueID>  (76) 
72

>  <SMILES>  (76) 
O=C(N=c1cc(C(=O)N2Cc3ccccc3C2)[n-]n1-c1ccccc1)c1cc(-c2ccc(F)c[nH+]2)c(Cl)cc1Cl

>  <Energy>  (76) 
132.26291762963288

>  <Genealogy>  (76) 
O=C(N=c1cc(C(=O)N2Cc3ccccc3C2)[n-]n1-c1ccccc1)c1cc(-c2ccc(F)c[nH+]2)c(Cl)cc1Cl (protonated)
O=C(N=c1cc(C(=O)N2Cc3ccccc3C2)[n-]n1-c1ccccc1)c1cc(-c2ccc(F)c[nH+]2)c(Cl)cc1Cl (3D coordinates assigned)
O=C(N=c1cc(C(=O)N2Cc3ccccc3C2)[n-]n1-c1ccccc1)c1cc(-c2ccc(F)c[nH+]2)c(Cl)cc1Cl (nonaromatic ring conformer: 132.26291762963288 kcal/mol)

>  <smiles>  (76) 
O=C(N=c1cc(C(=O)N2Cc3ccccc3C2)[nH]n1-c1ccccc1)c1cc(-c2ccc(F)cn2)c(Cl)cc1Cl

>  <score_type>  (76) 
oracle

>  <origin>  (76) 
adg

>  <m_score__min__energy>  (76) 
-11.07

>  <m_primary>  (76) 
energy

$$$$
76:0
     RDKit          3D

 41 43  0  0  0  0  0  0  0  0999 V2000
   54.2560   29.4280   51.2490 O   0  0  0  0  0  0  0  0  0  0  0  0
   54.4110   30.4120   52.0200 C   0  0  0  0  0  0  0  0  0  0  0  0
   53.2640   31.3320   52.2850 C   0  0  0  0  0  0  0  0  0  0  0  0
   52.3550   31.3640   51.0980 C   0  0  0  0  0  0  0  0  0  0  0  0
   52.3400   30.4290   50.1310 N   0  0  0  0  0  0  0  0  0  0  0  0
   51.3250   30.8250   49.3320 C   0  0  0  0  0  0  0  0  0  0  0  0
   50.9940   30.1950   48.2940 O   0  0  0  0  0  0  0  0  0  0  0  0
   50.6850   31.9430   49.7370 N   0  0  0  0  0  0  0  0  0  0  0  0
   51.3460   32.2670   50.8610 C   0  0  0  0  0  0  0  0  0  0  0  0
   51.0260   33.3590   51.6580 O   0  0  0  0  0  0  0  0  0  0  0  0
   55.6760   30.6610   52.6460 N   0  0  0  0  0  0  0  0  0  0  0  0
   56.7320   31.4700   52.1090 C   0  0  0  0  0  0  0  0  0  0  0  0
   57.1880   32.5620   52.8520 C   0  0  0  0  0  0  0  0  0  0  0  0
   58.2280   33.3580   52.3710 C   0  0  0  0  0  0  0  0  0  0  0  0
   58.8460   33.0640   51.1510 C   0  0  0  0  0  0  0  0  0  0  0  0
   59.8760   33.9010   50.7180 O   0  0  0  0  0  0  0  0  0  0  0  0
   58.4180   31.9400   50.4050 C   0  0  0  0  0  0  0  0  0  0  0  0
   59.1900   31.4970   48.8780 S   0  0  0  0  0  0  0  0  0  0  0  0
   58.5180   32.2330   47.7530 O   0  0  0  0  0  0  0  0  0  0  0  0
   60.6480   31.8610   48.9430 O   0  0  0  0  0  0  0  0  0  0  0  0
   59.0440   29.7890   48.6070 N   0  0  0  0  0  0  0  0  0  0  0  0
   58.7700   29.1700   47.3440 C   0  0  0  0  0  0  0  0  0  0  0  0
   59.5280   28.0580   46.9690 C   0  0  0  0  0  0  0  0  0  0  0  0
   59.3030   27.4290   45.7450 C   0  0  0  0  0  0  0  0  0  0  0  0
   58.3120   27.8970   44.8760 C   0  0  0  0  0  0  0  0  0  0  0  0
   58.1500   27.0970   43.3170 Cl  0  0  0  0  0  0  0  0  0  0  0  0
   57.5220   29.0120   45.2440 C   0  0  0  0  0  0  0  0  0  0  0  0
   56.4820   29.5190   44.3850 N   0  0  0  0  0  0  0  0  0  0  0  0
   56.7740   30.2210   43.3950 O   0  0  0  0  0  0  0  0  0  0  0  0
   55.1560   29.3710   44.7190 O   0  0  0  0  0  0  0  0  0  0  0  0
   57.7680   29.6430   46.4780 C   0  0  0  0  0  0  0  0  0  0  0  0
   57.3650   31.1510   50.8950 C   0  0  0  0  0  0  0  0  0  0  0  0
   52.7055   30.9756   53.1631 H   0  0  0  0  0  0  0  0  0  0  0  0
   53.6478   32.3451   52.4757 H   0  0  0  0  0  0  0  0  0  0  0  0
   56.7243   32.7954   53.8218 H   0  0  0  0  0  0  0  0  0  0  0  0
   58.5654   34.2256   52.9571 H   0  0  0  0  0  0  0  0  0  0  0  0
   60.5340   33.6460   49.9950 H   0  0  0  0  0  0  0  0  0  0  0  0
   60.3079   27.6759   47.6441 H   0  0  0  0  0  0  0  0  0  0  0  0
   59.9102   26.5571   45.4604 H   0  0  0  0  0  0  0  0  0  0  0  0
   57.1683   30.5180   46.7689 H   0  0  0  0  0  0  0  0  0  0  0  0
   57.0315   30.2731   50.3223 H   0  0  0  0  0  0  0  0  0  0  0  0
  1  2  2  0
  2  3  1  0
  3  4  1  0
  4  5  1  0
  5  6  1  0
  6  7  2  0
  6  8  1  0
  8  9  1  0
  9 10  1  0
  2 11  1  0
 11 12  1  0
 12 13  2  0
 13 14  1  0
 14 15  2  0
 15 16  1  0
 15 17  1  0
 17 18  1  0
 18 19  2  0
 18 20  2  0
 18 21  1  0
 21 22  1  0
 22 23  2  0
 23 24  1  0
 24 25  2  0
 25 26  1  0
 25 27  1  0
 27 28  1  0
 28 29  2  0
 28 30  1  0
 27 31  2  0
 17 32  2  0
  9  4  2  0
 32 12  1  0
 31 22  1  0
  3 33  1  0
  3 34  1  0
 13 35  1  0
 14 36  1  0
 16 37  1  0
 23 38  1  0
 24 39  1  0
 31 40  1  0
 32 41  1  0
M  CHG  7   5  -1   8  -1  10  -1  11  -1  21  -1  28   1  30  -1
M  END
>  <UniqueID>  (77) 
73

>  <SMILES>  (77) 
O=C(Cc1[n-]c(=O)[n-]c1[O-])[N-]c1ccc(O)c(S(=O)(=O)[N-]c2ccc(Cl)c([N+](=O)[O-])c2)c1

>  <Energy>  (77) 
84.8857962306625

>  <Genealogy>  (77) 
O=C(Cc1[n-]c(=O)[n-]c1[O-])[N-]c1ccc(O)c(S(=O)(=O)[N-]c2ccc(Cl)c([N+](=O)[O-])c2)c1 (protonated)
O=C(Cc1[n-]c(=O)[n-]c1[O-])[N-]c1ccc(O)c(S(=O)(=O)[N-]c2ccc(Cl)c([N+](=O)[O-])c2)c1 (3D coordinates assigned)
O=C(Cc1[n-]c(=O)[n-]c1[O-])[N-]c1ccc(O)c(S(=O)(=O)[N-]c2ccc(Cl)c([N+](=O)[O-])c2)c1 (optimized conformer: 84.8857962306625 kcal/mol)

>  <smiles>  (77) 
O=C(Cc1[nH]c(=O)[nH]c1O)Nc1ccc(O)c(S(=O)(=O)Nc2ccc(Cl)c([N+](=O)[O-])c2)c1

>  <score_type>  (77) 
oracle

>  <origin>  (77) 
adg

>  <m_score__min__energy>  (77) 
-19.82

>  <m_primary>  (77) 
energy

$$$$
77:0
     RDKit          3D

 27 27  0  0  0  0  0  0  0  0999 V2000
   56.6760   24.2000   44.1510 C   0  0  0  0  0  0  0  0  0  0  0  0
   55.9700   23.8350   45.4640 C   0  0  2  0  0  0  0  0  0  0  0  0
   54.5240   24.2490   45.3580 C   0  0  0  0  0  0  0  0  0  0  0  0
   54.1700   25.4090   45.6980 O   0  0  0  0  0  0  0  0  0  0  0  0
   53.5690   23.3520   44.8910 O   0  0  0  0  0  0  0  0  0  0  0  0
   56.6340   24.4810   46.7140 C   0  0  1  0  0  0  0  0  0  0  0  0
   56.9840   23.2100   47.9300 S   0  0  0  0  0  0  0  0  0  0  0  0
   57.9600   25.2250   46.4040 C   0  0  0  0  0  0  0  0  0  0  0  0
   57.7760   26.6960   46.1020 C   0  0  0  0  0  0  0  0  0  0  0  0
   56.5450   27.1740   45.6230 C   0  0  0  0  0  0  0  0  0  0  0  0
   56.3820   28.5290   45.3180 C   0  0  0  0  0  0  0  0  0  0  0  0
   55.1510   28.9900   44.8640 O   0  0  0  0  0  0  0  0  0  0  0  0
   57.4530   29.4170   45.4660 C   0  0  0  0  0  0  0  0  0  0  0  0
   57.2800   30.7640   45.1640 O   0  0  0  0  0  0  0  0  0  0  0  0
   58.6980   28.9440   45.9130 C   0  0  0  0  0  0  0  0  0  0  0  0
   59.7870   29.8030   46.0560 O   0  0  0  0  0  0  0  0  0  0  0  0
   58.8560   27.5870   46.2190 C   0  0  0  0  0  0  0  0  0  0  0  0
   57.6328   24.6947   44.3744 H   0  0  0  0  0  0  0  0  0  0  0  0
   56.8631   23.2856   43.5688 H   0  0  0  0  0  0  0  0  0  0  0  0
   56.0381   24.8813   43.5688 H   0  0  0  0  0  0  0  0  0  0  0  0
   56.0547   22.7477   45.6074 H   0  0  0  0  0  0  0  0  0  0  0  0
   55.9153   25.2245   47.0892 H   0  0  0  0  0  0  0  0  0  0  0  0
   58.6236   25.1299   47.2761 H   0  0  0  0  0  0  0  0  0  0  0  0
   58.3846   24.7622   45.5009 H   0  0  0  0  0  0  0  0  0  0  0  0
   55.7040   26.4781   45.4870 H   0  0  0  0  0  0  0  0  0  0  0  0
   59.7300   30.7870   45.8250 H   0  0  0  0  0  0  0  0  0  0  0  0
   59.8353   27.2147   46.5543 H   0  0  0  0  0  0  0  0  0  0  0  0
  1  2  1  0
  2  3  1  0
  3  4  2  0
  3  5  1  0
  2  6  1  0
  6  7  1  0
  6  8  1  0
  8  9  1  0
  9 10  2  0
 10 11  1  0
 11 12  1  0
 11 13  2  0
 13 14  1  0
 13 15  1  0
 15 16  1  0
 15 17  2  0
 17  9  1  0
  1 18  1  0
  1 19  1  0
  1 20  1  0
  2 21  1  1
  6 22  1  1
  8 23  1  0
  8 24  1  0
 10 25  1  0
 16 26  1  0
 17 27  1  0
M  CHG  4   5  -1   7  -1  12  -1  14  -1
M  END
>  <UniqueID>  (78) 
74

>  <SMILES>  (78) 
C[C@H](C(=O)[O-])[C@@H]([S-])Cc1cc([O-])c([O-])c(O)c1

>  <Energy>  (78) 
25.002929264422903

>  <Genealogy>  (78) 
CC(C(=O)[O-])C([S-])Cc1cc([O-])c([O-])c(O)c1 (protonated)
C[C@H](C(=O)[O-])[C@@H]([S-])Cc1cc([O-])c([O-])c(O)c1 (chirality)
C[C@H](C(=O)[O-])[C@@H]([S-])Cc1cc([O-])c([O-])c(O)c1 (3D coordinates assigned)
C[C@H](C(=O)[O-])[C@@H]([S-])Cc1cc([O-])c([O-])c(O)c1 (optimized conformer: 25.002929264422903 kcal/mol)

>  <smiles>  (78) 
CC(C(=O)O)C(S)Cc1cc(O)c(O)c(O)c1

>  <score_type>  (78) 
oracle

>  <origin>  (78) 
adg

>  <m_score__min__energy>  (78) 
-16.559999999999999

>  <m_primary>  (78) 
energy

$$$$
78:0
     RDKit          3D

 47 49  0  0  0  0  0  0  0  0999 V2000
   60.3560   30.6920   47.4980 C   0  0  0  0  0  0  0  0  0  0  0  0
   58.9010   30.7620   47.9470 C   0  0  0  0  0  0  0  0  0  0  0  0
   58.4590   32.1170   48.0150 O   0  0  0  0  0  0  0  0  0  0  0  0
   58.4990   33.0490   46.9630 C   0  0  0  0  0  0  0  0  0  0  0  0
   57.5260   33.0800   45.9440 C   0  0  0  0  0  0  0  0  0  0  0  0
   57.6200   34.0110   44.9050 C   0  0  0  0  0  0  0  0  0  0  0  0
   58.6780   34.9190   44.8710 C   0  0  0  0  0  0  0  0  0  0  0  0
   59.6460   34.9010   45.8760 C   0  0  0  0  0  0  0  0  0  0  0  0
   59.5680   33.9650   46.9200 C   0  0  0  0  0  0  0  0  0  0  0  0
   60.5400   33.9690   47.9760 N   0  0  0  0  0  0  0  0  0  0  0  0
   61.9410   33.7280   47.7530 C   0  0  0  0  0  0  0  0  0  0  0  0
   62.3980   33.7060   46.5790 O   0  0  0  0  0  0  0  0  0  0  0  0
   62.8650   33.5070   48.8900 C   0  0  0  0  0  0  0  0  0  0  0  0
   64.2040   33.1700   48.6340 C   0  0  0  0  0  0  0  0  0  0  0  0
   65.0910   32.9590   49.6900 C   0  0  0  0  0  0  0  0  0  0  0  0
   64.6320   33.0770   51.0000 C   0  0  0  0  0  0  0  0  0  0  0  0
   63.3300   33.3810   51.2390 N   0  0  0  0  0  0  0  0  0  0  0  0
   62.4340   33.5830   50.2320 C   0  0  0  0  0  0  0  0  0  0  0  0
   61.0960   33.8790   50.5240 O   0  0  0  0  0  0  0  0  0  0  0  0
   60.1350   32.9590   50.9630 C   0  0  0  0  0  0  0  0  0  0  0  0
   60.3640   31.5700   50.9400 C   0  0  0  0  0  0  0  0  0  0  0  0
   59.3670   30.6860   51.3630 C   0  0  0  0  0  0  0  0  0  0  0  0
   58.1310   31.1780   51.7990 C   0  0  0  0  0  0  0  0  0  0  0  0
   56.8520   30.0430   52.3400 S   0  0  0  0  0  0  0  0  0  0  0  0
   55.5010   31.2160   52.0040 C   0  0  0  0  0  0  0  0  0  0  0  0
   57.8970   32.5580   51.8140 C   0  0  0  0  0  0  0  0  0  0  0  0
   58.8930   33.4420   51.3910 C   0  0  0  0  0  0  0  0  0  0  0  0
   61.0111   30.6605   48.3811 H   0  0  0  0  0  0  0  0  0  0  0  0
   60.5103   29.7854   46.8945 H   0  0  0  0  0  0  0  0  0  0  0  0
   60.5966   31.5796   46.8945 H   0  0  0  0  0  0  0  0  0  0  0  0
   58.2745   30.2134   47.2283 H   0  0  0  0  0  0  0  0  0  0  0  0
   58.8174   30.3120   48.9473 H   0  0  0  0  0  0  0  0  0  0  0  0
   56.6879   32.3678   45.9661 H   0  0  0  0  0  0  0  0  0  0  0  0
   56.8575   34.0273   44.1124 H   0  0  0  0  0  0  0  0  0  0  0  0
   58.7495   35.6496   44.0518 H   0  0  0  0  0  0  0  0  0  0  0  0
   60.4747   35.6239   45.8503 H   0  0  0  0  0  0  0  0  0  0  0  0
   60.1880   34.0770   48.9530 H   0  0  0  0  0  0  0  0  0  0  0  0
   64.5551   33.0719   47.5962 H   0  0  0  0  0  0  0  0  0  0  0  0
   66.1418   32.7022   49.4903 H   0  0  0  0  0  0  0  0  0  0  0  0
   65.3242   32.9239   51.8411 H   0  0  0  0  0  0  0  0  0  0  0  0
   61.3302   31.1792   50.5882 H   0  0  0  0  0  0  0  0  0  0  0  0
   59.5540   29.6021   51.3532 H   0  0  0  0  0  0  0  0  0  0  0  0
   55.0844   31.5778   52.9556 H   0  0  0  0  0  0  0  0  0  0  0  0
   55.8900   32.0677   51.4267 H   0  0  0  0  0  0  0  0  0  0  0  0
   54.7123   30.7113   51.4267 H   0  0  0  0  0  0  0  0  0  0  0  0
   56.9277   32.9470   52.1592 H   0  0  0  0  0  0  0  0  0  0  0  0
   58.6997   34.5249   51.3944 H   0  0  0  0  0  0  0  0  0  0  0  0
  1  2  1  0
  2  3  1  0
  3  4  1  0
  4  5  2  0
  5  6  1  0
  6  7  2  0
  7  8  1  0
  8  9  2  0
  9 10  1  0
 10 11  1  0
 11 12  2  0
 11 13  1  0
 13 14  2  0
 14 15  1  0
 15 16  2  0
 16 17  1  0
 17 18  2  0
 18 19  1  0
 19 20  1  0
 20 21  2  0
 21 22  1  0
 22 23  2  0
 23 24  1  0
 24 25  1  0
 23 26  1  0
 26 27  2  0
  9  4  1  0
 18 13  1  0
 27 20  1  0
  1 28  1  0
  1 29  1  0
  1 30  1  0
  2 31  1  0
  2 32  1  0
  5 33  1  0
  6 34  1  0
  7 35  1  0
  8 36  1  0
 10 37  1  0
 14 38  1  0
 15 39  1  0
 16 40  1  0
 21 41  1  0
 22 42  1  0
 25 43  1  0
 25 44  1  0
 25 45  1  0
 26 46  1  0
 27 47  1  0
M  END
>  <UniqueID>  (79) 
75

>  <SMILES>  (79) 
CCOc1ccccc1NC(=O)c1cccnc1Oc1ccc(SC)cc1

>  <Energy>  (79) 
56.197759520442546

>  <Genealogy>  (79) 
CCOc1ccccc1NC(=O)c1cccnc1Oc1ccc(SC)cc1 (3D coordinates assigned)
CCOc1ccccc1NC(=O)c1cccnc1Oc1ccc(SC)cc1 (optimized conformer: 56.197759520442546 kcal/mol)

>  <smiles>  (79) 
CCOc1ccccc1NC(=O)c1cccnc1Oc1ccc(SC)cc1

>  <score_type>  (79) 
oracle

>  <origin>  (79) 
adg

>  <m_score__min__energy>  (79) 
-7.29

>  <m_primary>  (79) 
energy

$$$$
79:0
     RDKit          3D

 45 47  0  0  0  0  0  0  0  0999 V2000
   52.8780   24.0940   44.8810 C   0  0  0  0  0  0  0  0  0  0  0  0
   54.1320   24.2960   45.6740 C   0  0  0  0  0  0  0  0  0  0  0  0
   54.6440   23.2580   46.4590 C   0  0  0  0  0  0  0  0  0  0  0  0
   55.8180   23.4850   47.1760 C   0  0  0  0  0  0  0  0  0  0  0  0
   56.4330   24.6930   47.1020 N   0  0  0  0  0  0  0  0  0  0  0  0
   55.9220   25.6990   46.3390 C   0  0  0  0  0  0  0  0  0  0  0  0
   56.5190   26.8490   46.2670 N   0  0  0  0  0  0  0  0  0  0  0  0
   57.8760   27.1660   45.2310 S   0  0  0  0  0  0  0  0  0  0  0  0
   59.1380   26.7430   45.9270 O   0  0  0  0  0  0  0  0  0  0  0  0
   57.7470   26.3750   43.9590 O   0  0  0  0  0  0  0  0  0  0  0  0
   57.9560   28.8900   44.8760 C   0  0  0  0  0  0  0  0  0  0  0  0
   57.2200   29.4300   43.8120 C   0  0  0  0  0  0  0  0  0  0  0  0
   57.2600   30.8030   43.5550 C   0  0  0  0  0  0  0  0  0  0  0  0
   58.0380   31.6520   44.3600 C   0  0  0  0  0  0  0  0  0  0  0  0
   58.0610   33.0710   44.1520 N   0  0  0  0  0  0  0  0  0  0  0  0
   58.1160   34.0790   45.1700 C   0  0  0  0  0  0  0  0  0  0  0  0
   57.1630   34.1710   45.9870 O   0  0  0  0  0  0  0  0  0  0  0  0
   59.3090   34.9800   45.3330 C   0  0  0  0  0  0  0  0  0  0  0  0
   59.6870   35.0720   46.7440 N   0  0  0  0  0  0  0  0  0  0  0  0
   59.9830   33.9290   47.5790 C   0  0  0  0  0  0  0  0  0  0  0  0
   59.0350   33.4320   48.4980 C   0  0  0  0  0  0  0  0  0  0  0  0
   59.3260   32.3190   49.2940 C   0  0  0  0  0  0  0  0  0  0  0  0
   58.1320   31.7190   50.4310 Cl  0  0  0  0  0  0  0  0  0  0  0  0
   60.5650   31.6840   49.1820 C   0  0  0  0  0  0  0  0  0  0  0  0
   61.5170   32.1660   48.2820 C   0  0  0  0  0  0  0  0  0  0  0  0
   61.2370   33.2810   47.4830 C   0  0  0  0  0  0  0  0  0  0  0  0
   62.4970   33.8450   46.3880 Cl  0  0  0  0  0  0  0  0  0  0  0  0
   58.7460   31.1120   45.4410 C   0  0  0  0  0  0  0  0  0  0  0  0
   58.7150   29.7380   45.6930 C   0  0  0  0  0  0  0  0  0  0  0  0
   54.7780   25.4940   45.6350 N   0  0  0  0  0  0  0  0  0  0  0  0
   52.0287   23.9572   45.5665 H   0  0  0  0  0  0  0  0  0  0  0  0
   52.6992   24.9749   44.2470 H   0  0  0  0  0  0  0  0  0  0  0  0
   52.9849   23.2015   44.2470 H   0  0  0  0  0  0  0  0  0  0  0  0
   54.1326   22.2854   46.5096 H   0  0  0  0  0  0  0  0  0  0  0  0
   56.2452   22.6866   47.8006 H   0  0  0  0  0  0  0  0  0  0  0  0
   56.6092   28.7709   43.1775 H   0  0  0  0  0  0  0  0  0  0  0  0
   56.6800   31.2208   42.7190 H   0  0  0  0  0  0  0  0  0  0  0  0
   60.1529   34.5725   44.7571 H   0  0  0  0  0  0  0  0  0  0  0  0
   59.0518   35.9843   44.9652 H   0  0  0  0  0  0  0  0  0  0  0  0
   59.7430   36.0310   47.1470 H   0  0  0  0  0  0  0  0  0  0  0  0
   58.0560   33.9252   48.5897 H   0  0  0  0  0  0  0  0  0  0  0  0
   60.7905   30.8044   49.8028 H   0  0  0  0  0  0  0  0  0  0  0  0
   62.4936   31.6665   48.2000 H   0  0  0  0  0  0  0  0  0  0  0  0
   59.3307   31.7743   46.0964 H   0  0  0  0  0  0  0  0  0  0  0  0
   59.2877   29.3213   46.5346 H   0  0  0  0  0  0  0  0  0  0  0  0
  1  2  1  0
  2  3  1  0
  3  4  2  0
  4  5  1  0
  5  6  1  0
  6  7  2  3
  7  8  1  0
  8  9  2  0
  8 10  2  0
  8 11  1  0
 11 12  2  0
 12 13  1  0
 13 14  2  0
 14 15  1  0
 15 16  1  0
 16 17  2  0
 16 18  1  0
 18 19  1  0
 19 20  1  0
 20 21  2  0
 21 22  1  0
 22 23  1  0
 22 24  2  0
 24 25  1  0
 25 26  2  0
 26 27  1  0
 14 28  1  0
 28 29  2  0
  6 30  1  0
 30  2  2  0
 29 11  1  0
 26 20  1  0
  1 31  1  0
  1 32  1  0
  1 33  1  0
  3 34  1  0
  4 35  1  0
 12 36  1  0
 13 37  1  0
 18 38  1  0
 18 39  1  0
 19 40  1  0
 21 41  1  0
 24 42  1  0
 25 43  1  0
 28 44  1  0
 29 45  1  0
M  CHG  2   5  -1  15  -1
M  END
>  <UniqueID>  (80) 
76

>  <SMILES>  (80) 
Cc1cc[n-]c(=NS(=O)(=O)c2ccc([N-]C(=O)CNc3cc(Cl)ccc3Cl)cc2)n1

>  <Energy>  (80) 
55.29475868306181

>  <Genealogy>  (80) 
Cc1cc[n-]c(=NS(=O)(=O)c2ccc([N-]C(=O)CNc3cc(Cl)ccc3Cl)cc2)n1 (protonated)
Cc1cc[n-]c(=NS(=O)(=O)c2ccc([N-]C(=O)CNc3cc(Cl)ccc3Cl)cc2)n1 (3D coordinates assigned)
Cc1cc[n-]c(=NS(=O)(=O)c2ccc([N-]C(=O)CNc3cc(Cl)ccc3Cl)cc2)n1 (optimized conformer: 55.29475868306181 kcal/mol)

>  <smiles>  (80) 
Cc1cc[nH]c(=NS(=O)(=O)c2ccc(NC(=O)CNc3cc(Cl)ccc3Cl)cc2)n1

>  <score_type>  (80) 
oracle

>  <origin>  (80) 
adg

>  <m_score__min__energy>  (80) 
-11.550000000000001

>  <m_primary>  (80) 
energy

$$$$
80:0
     RDKit          3D

 33 35  0  0  0  0  0  0  0  0999 V2000
   49.9195   29.9427   52.3413 H   0  0  0  0  0  0  0  0  0  0  0  0
   51.0190   29.9660   52.3670 C   0  0  0  0  0  0  0  0  0  0  0  0
   51.7930   28.9550   52.8280 N   0  0  0  0  0  0  0  0  0  0  0  0
   53.0560   29.3970   52.6750 C   0  0  0  0  0  0  0  0  0  0  0  0
   54.2300   28.7270   53.0190 C   0  0  0  0  0  0  0  0  0  0  0  0
   54.2020   27.3600   53.6260 C   0  0  0  0  0  0  0  0  0  0  0  0
   54.2038   27.4457   54.7227 H   0  0  0  0  0  0  0  0  0  0  0  0
   53.2929   26.8330   53.3008 H   0  0  0  0  0  0  0  0  0  0  0  0
   55.0888   26.7962   53.3008 H   0  0  0  0  0  0  0  0  0  0  0  0
   55.4190   29.3570   52.7930 N   0  0  0  0  0  0  0  0  0  0  0  0
   55.5070   30.6080   52.2390 C   0  0  0  0  0  0  0  0  0  0  0  0
   56.6940   31.1200   52.0730 N   0  0  0  0  0  0  0  0  0  0  0  0
   57.5810   30.9850   50.9520 C   0  0  0  0  0  0  0  0  0  0  0  0
   57.9500   29.8320   50.6080 O   0  0  0  0  0  0  0  0  0  0  0  0
   58.0010   32.1360   50.2040 N   0  0  0  0  0  0  0  0  0  0  0  0
   58.6670   32.1460   48.9350 C   0  0  0  0  0  0  0  0  0  0  0  0
   59.8590   31.4320   48.7080 C   0  0  0  0  0  0  0  0  0  0  0  0
   60.3179   30.8563   49.5253 H   0  0  0  0  0  0  0  0  0  0  0  0
   60.4610   31.4530   47.4460 C   0  0  0  0  0  0  0  0  0  0  0  0
   61.3977   30.9020   47.2760 H   0  0  0  0  0  0  0  0  0  0  0  0
   59.8760   32.1720   46.4000 C   0  0  0  0  0  0  0  0  0  0  0  0
   60.3561   32.1930   45.4105 H   0  0  0  0  0  0  0  0  0  0  0  0
   58.6810   32.8640   46.6120 C   0  0  0  0  0  0  0  0  0  0  0  0
   57.8700   33.8340   45.1790 Br  0  0  0  0  0  0  0  0  0  0  0  0
   58.0750   32.8440   47.8740 C   0  0  0  0  0  0  0  0  0  0  0  0
   57.1277   33.3799   48.0337 H   0  0  0  0  0  0  0  0  0  0  0  0
   54.3150   31.3040   51.9090 C   0  0  0  0  0  0  0  0  0  0  0  0
   54.3460   32.3204   51.4895 H   0  0  0  0  0  0  0  0  0  0  0  0
   53.1020   30.6520   52.1360 C   0  0  0  0  0  0  0  0  0  0  0  0
   51.7910   31.0380   51.9300 C   0  0  0  0  0  0  0  0  0  0  0  0
   51.2750   32.2970   51.3640 C   0  0  0  0  0  0  0  0  0  0  0  0
   51.3980   32.5300   50.1320 O   0  0  0  0  0  0  0  0  0  0  0  0
   50.6570   33.2430   52.1720 O   0  0  0  0  0  0  0  0  0  0  0  0
  1  2  1  0
  2  3  1  0
  3  4  1  0
  4  5  2  0
  5  6  1  0
  6  7  1  0
  6  8  1  0
  6  9  1  0
  5 10  1  0
 10 11  1  0
 11 12  2  0
 12 13  1  0
 13 14  2  0
 13 15  1  0
 15 16  1  0
 16 17  2  0
 17 18  1  0
 17 19  1  0
 19 20  1  0
 19 21  2  0
 21 22  1  0
 21 23  1  0
 23 24  1  0
 23 25  2  0
 25 26  1  0
 11 27  1  0
 27 28  1  0
 27 29  2  0
 29 30  1  0
 30 31  1  0
 31 32  2  0
 31 33  1  0
 30  2  2  0
 29  4  1  0
 25 16  1  0
M  CHG  4   3  -1  10  -1  15  -1  33  -1
M  END
>  <UniqueID>  (81) 
77

>  <SMILES>  (81) 
Cc1[n-]/c(=N/C(=O)[N-]c2cccc(Br)c2)cc2c(C(=O)[O-])c[n-]c12

>  <Energy>  (81) 
79.2296931081644

>  <Genealogy>  (81) 
Cc1[n-]c(=NC(=O)[N-]c2cccc(Br)c2)cc2c(C(=O)[O-])c[n-]c12 (protonated)
Cc1[n-]/c(=N/C(=O)[N-]c2cccc(Br)c2)cc2c(C(=O)[O-])c[n-]c12 (cis-trans isomerization)
Cc1[n-]/c(=N/C(=O)[N-]c2cccc(Br)c2)cc2c(C(=O)[O-])c[n-]c12 (3D coordinates assigned)
Cc1[n-]/c(=N/C(=O)[N-]c2cccc(Br)c2)cc2c(C(=O)[O-])c[n-]c12 (optimized conformer: 79.2296931081644 kcal/mol)

>  <smiles>  (81) 
Cc1[nH]c(=NC(=O)Nc2cccc(Br)c2)cc2c(C(=O)O)c[nH]c12

>  <score_type>  (81) 
oracle

>  <origin>  (81) 
adg

>  <m_score__min__energy>  (81) 
-14.039999999999999

>  <m_primary>  (81) 
energy

$$$$
81:0
     RDKit          3D

 43 45  0  0  0  0  0  0  0  0999 V2000
   55.1890   31.3457   44.0711 H   0  0  0  0  0  0  0  0  0  0  0  0
   55.9400   30.6110   44.3970 C   0  0  0  0  0  0  0  0  0  0  0  0
   55.5440   29.3880   44.8380 N   0  0  0  0  0  0  0  0  0  0  0  0
   56.4260   28.4330   45.2390 C   0  0  0  0  0  0  0  0  0  0  0  0
   55.9480   27.2940   45.6580 N   0  0  0  0  0  0  0  0  0  0  0  0
   56.6550   26.1530   46.1780 C   0  0  0  0  0  0  0  0  0  0  0  0
   57.3610   26.2680   47.2160 O   0  0  0  0  0  0  0  0  0  0  0  0
   56.6420   24.8590   45.4420 C   0  0  0  0  0  0  0  0  0  0  0  0
   57.8220   24.3940   44.8330 C   0  0  0  0  0  0  0  0  0  0  0  0
   58.7435   24.9904   44.9042 H   0  0  0  0  0  0  0  0  0  0  0  0
   57.8340   23.1840   44.1400 C   0  0  0  0  0  0  0  0  0  0  0  0
   58.7621   22.8208   43.6744 H   0  0  0  0  0  0  0  0  0  0  0  0
   56.6580   22.4370   44.0420 C   0  0  0  0  0  0  0  0  0  0  0  0
   56.6490   21.1220   43.3300 C   0  0  0  0  0  0  0  0  0  0  0  0
   56.6434   20.3058   44.0674 H   0  0  0  0  0  0  0  0  0  0  0  0
   55.7504   21.0526   42.6994 H   0  0  0  0  0  0  0  0  0  0  0  0
   57.5466   21.0403   42.6994 H   0  0  0  0  0  0  0  0  0  0  0  0
   55.5250   22.8850   44.6450 N   0  0  0  0  0  0  0  0  0  0  0  0
   55.4810   24.0580   45.3330 C   0  0  0  0  0  0  0  0  0  0  0  0
   54.3980   24.4030   45.8720 O   0  0  0  0  0  0  0  0  0  0  0  0
   57.8050   28.7290   45.2190 C   0  0  0  0  0  0  0  0  0  0  0  0
   58.5371   27.9809   45.5572 H   0  0  0  0  0  0  0  0  0  0  0  0
   58.2340   29.9780   44.7670 C   0  0  0  0  0  0  0  0  0  0  0  0
   59.3089   30.2090   44.7332 H   0  0  0  0  0  0  0  0  0  0  0  0
   57.3000   30.9390   44.3560 C   0  0  0  0  0  0  0  0  0  0  0  0
   57.7550   32.2750   43.8370 C   0  0  0  0  0  0  0  0  0  0  0  0
   58.5153   32.1218   43.0569 H   0  0  0  0  0  0  0  0  0  0  0  0
   56.8900   32.8108   43.4189 H   0  0  0  0  0  0  0  0  0  0  0  0
   58.3460   33.0930   44.9530 C   0  0  0  0  0  0  0  0  0  0  0  0
   58.9640   34.3210   44.6750 C   0  0  0  0  0  0  0  0  0  0  0  0
   58.9823   34.7051   43.6444 H   0  0  0  0  0  0  0  0  0  0  0  0
   59.5560   35.0570   45.7030 C   0  0  0  0  0  0  0  0  0  0  0  0
   60.0390   36.0198   45.4800 H   0  0  0  0  0  0  0  0  0  0  0  0
   59.5370   34.5750   47.0130 C   0  0  0  0  0  0  0  0  0  0  0  0
   60.0063   35.1614   47.8167 H   0  0  0  0  0  0  0  0  0  0  0  0
   58.9230   33.3460   47.3140 C   0  0  0  0  0  0  0  0  0  0  0  0
   58.9220   32.8410   48.7090 C   0  0  0  0  0  0  0  0  0  0  0  0
   58.5220   31.6690   48.9480 O   0  0  0  0  0  0  0  0  0  0  0  0
   59.3810   33.6480   49.7970 N   0  0  0  0  0  0  0  0  0  0  0  0
   59.3170   33.2860   50.7750 H   0  0  0  0  0  0  0  0  0  0  0  0
   59.8660   34.5590   49.6420 H   0  0  0  0  0  0  0  0  0  0  0  0
   58.3400   32.6030   46.2690 C   0  0  0  0  0  0  0  0  0  0  0  0
   57.8756   31.6297   46.4858 H   0  0  0  0  0  0  0  0  0  0  0  0
  1  2  1  0
  2  3  1  0
  3  4  1  0
  4  5  2  0
  5  6  1  0
  6  7  2  0
  6  8  1  0
  8  9  2  0
  9 10  1  0
  9 11  1  0
 11 12  1  0
 11 13  2  0
 13 14  1  0
 14 15  1  0
 14 16  1  0
 14 17  1  0
 13 18  1  0
 18 19  1  0
 19 20  2  0
  4 21  1  0
 21 22  1  0
 21 23  2  0
 23 24  1  0
 23 25  1  0
 25 26  1  0
 26 27  1  0
 26 28  1  0
 26 29  1  0
 29 30  2  0
 30 31  1  0
 30 32  1  0
 32 33  1  0
 32 34  2  0
 34 35  1  0
 34 36  1  0
 36 37  1  0
 37 38  2  0
 37 39  1  0
 39 40  1  0
 39 41  1  0
 36 42  2  0
 42 43  1  0
 25  2  2  0
 42 29  1  0
 19  8  1  0
M  CHG  2   3  -1  18  -1
M  END
>  <UniqueID>  (82) 
78

>  <SMILES>  (82) 
Cc1ccc(C(=O)/N=c2\ccc(Cc3cccc(C(N)=O)c3)c[n-]2)c(=O)[n-]1

>  <Energy>  (82) 
56.34517784032714

>  <Genealogy>  (82) 
Cc1ccc(C(=O)N=c2ccc(Cc3cccc(C(N)=O)c3)c[n-]2)c(=O)[n-]1 (protonated)
Cc1ccc(C(=O)/N=c2\ccc(Cc3cccc(C(N)=O)c3)c[n-]2)c(=O)[n-]1 (cis-trans isomerization)
Cc1ccc(C(=O)/N=c2\ccc(Cc3cccc(C(N)=O)c3)c[n-]2)c(=O)[n-]1 (3D coordinates assigned)
Cc1ccc(C(=O)/N=c2\ccc(Cc3cccc(C(N)=O)c3)c[n-]2)c(=O)[n-]1 (optimized conformer: 56.34517784032714 kcal/mol)

>  <smiles>  (82) 
Cc1ccc(C(=O)N=c2ccc(Cc3cccc(C(N)=O)c3)c[nH]2)c(=O)[nH]1

>  <score_type>  (82) 
oracle

>  <origin>  (82) 
adg

>  <m_score__min__energy>  (82) 
-12.77

>  <m_primary>  (82) 
energy

$$$$
82:0
     RDKit          3D

 56 60  0  0  0  0  0  0  0  0999 V2000
   55.5210   28.0600   45.2480 H   0  0  0  0  0  0  0  0  0  0  0  0
   55.5610   27.1080   45.6730 N   0  0  0  0  0  0  0  0  0  0  0  0
   56.7720   26.3540   45.6680 C   0  0  0  0  0  0  0  0  0  0  0  0
   56.7850   25.2000   45.1640 O   0  0  0  0  0  0  0  0  0  0  0  0
   57.9840   26.8880   46.3220 C   0  0  0  0  0  0  0  0  0  0  0  0
   58.5720   26.0860   47.3370 C   0  0  0  0  0  0  0  0  0  0  0  0
   58.2493   25.0410   47.4543 H   0  0  0  0  0  0  0  0  0  0  0  0
   59.5300   26.5890   48.1690 N   0  0  0  0  0  0  0  0  0  0  0  0
   59.9200   27.8750   48.0220 C   0  0  0  0  0  0  0  0  0  0  0  0
   59.4160   28.6830   47.0470 C   0  0  0  0  0  0  0  0  0  0  0  0
   60.0670   29.8960   47.1550 C   0  0  0  0  0  0  0  0  0  0  0  0
   59.9248   30.7875   46.5265 H   0  0  0  0  0  0  0  0  0  0  0  0
   60.9460   29.7500   48.2340 C   0  0  0  0  0  0  0  0  0  0  0  0
   61.8720   30.7960   48.7390 C   0  0  0  0  0  0  0  0  0  0  0  0
   62.1560   30.8940   50.1120 C   0  0  0  0  0  0  0  0  0  0  0  0
   61.6889   30.1904   50.8168 H   0  0  0  0  0  0  0  0  0  0  0  0
   63.0270   31.8780   50.5900 C   0  0  0  0  0  0  0  0  0  0  0  0
   63.2395   31.9442   51.6672 H   0  0  0  0  0  0  0  0  0  0  0  0
   63.6310   32.7810   49.7030 C   0  0  0  0  0  0  0  0  0  0  0  0
   64.5790   33.8380   50.2070 C   0  0  0  0  0  0  0  0  0  0  0  0
   65.2298   34.1633   49.3820 H   0  0  0  0  0  0  0  0  0  0  0  0
   63.9935   34.6882   50.5869 H   0  0  0  0  0  0  0  0  0  0  0  0
   65.4150   33.3050   51.3050 N   0  0  0  0  0  0  0  0  0  0  0  0
   66.4250   32.3690   50.7920 C   0  0  0  0  0  0  0  0  0  0  0  0
   66.6445   31.6030   51.5503 H   0  0  0  0  0  0  0  0  0  0  0  0
   66.0565   31.8653   49.8862 H   0  0  0  0  0  0  0  0  0  0  0  0
   67.6830   33.1650   50.4820 C   0  0  0  0  0  0  0  0  0  0  0  0
   68.5786   32.6058   50.7906 H   0  0  0  0  0  0  0  0  0  0  0  0
   67.7873   33.3641   49.4052 H   0  0  0  0  0  0  0  0  0  0  0  0
   67.5540   34.4460   51.2840 C   0  0  0  0  0  0  0  0  0  0  0  0
   68.3530   34.5096   52.0373 H   0  0  0  0  0  0  0  0  0  0  0  0
   67.6429   35.3371   50.6453 H   0  0  0  0  0  0  0  0  0  0  0  0
   66.1920   34.3700   51.9590 C   0  0  0  0  0  0  0  0  0  0  0  0
   66.3178   34.1374   53.0268 H   0  0  0  0  0  0  0  0  0  0  0  0
   65.6684   35.3332   51.8689 H   0  0  0  0  0  0  0  0  0  0  0  0
   63.3490   32.6890   48.3320 C   0  0  0  0  0  0  0  0  0  0  0  0
   63.8169   33.3939   47.6290 H   0  0  0  0  0  0  0  0  0  0  0  0
   62.4770   31.7070   47.8540 C   0  0  0  0  0  0  0  0  0  0  0  0
   62.2620   31.6459   46.7770 H   0  0  0  0  0  0  0  0  0  0  0  0
   60.8490   28.5020   48.7590 N   0  0  0  0  0  0  0  0  0  0  0  0
   61.3970   28.0900   49.5450 H   0  0  0  0  0  0  0  0  0  0  0  0
   58.4760   28.2220   46.1240 C   0  0  0  0  0  0  0  0  0  0  0  0
   58.1430   29.0140   45.1380 N   0  0  0  0  0  0  0  0  0  0  0  0
   57.2540   30.1380   45.1320 C   0  0  0  0  0  0  0  0  0  0  0  0
   56.0360   29.9690   44.8500 O   0  0  0  0  0  0  0  0  0  0  0  0
   57.7810   31.5140   45.3010 C   0  0  0  0  0  0  0  0  0  0  0  0
   58.0720   31.9740   46.6010 C   0  0  0  0  0  0  0  0  0  0  0  0
   57.9166   31.3059   47.4610 H   0  0  0  0  0  0  0  0  0  0  0  0
   58.5550   33.2670   46.8110 C   0  0  0  0  0  0  0  0  0  0  0  0
   58.7725   33.6128   47.8323 H   0  0  0  0  0  0  0  0  0  0  0  0
   58.7620   34.1200   45.7290 C   0  0  0  0  0  0  0  0  0  0  0  0
   59.1360   35.1407   45.8972 H   0  0  0  0  0  0  0  0  0  0  0  0
   58.4950   33.6800   44.4320 C   0  0  0  0  0  0  0  0  0  0  0  0
   58.6666   34.3552   43.5807 H   0  0  0  0  0  0  0  0  0  0  0  0
   58.0100   32.3850   44.2050 C   0  0  0  0  0  0  0  0  0  0  0  0
   57.7790   31.8930   42.5290 Cl  0  0  0  0  0  0  0  0  0  0  0  0
  1  2  1  0
  2  3  1  0
  3  4  2  0
  3  5  1  0
  5  6  2  0
  6  7  1  0
  6  8  1  0
  8  9  1  0
  9 10  2  0
 10 11  1  0
 11 12  1  0
 11 13  2  0
 13 14  1  0
 14 15  2  0
 15 16  1  0
 15 17  1  0
 17 18  1  0
 17 19  2  0
 19 20  1  0
 20 21  1  0
 20 22  1  0
 20 23  1  0
 23 24  1  0
 24 25  1  0
 24 26  1  0
 24 27  1  0
 27 28  1  0
 27 29  1  0
 27 30  1  0
 30 31  1  0
 30 32  1  0
 30 33  1  0
 33 34  1  0
 33 35  1  0
 19 36  1  0
 36 37  1  0
 36 38  2  0
 38 39  1  0
 13 40  1  0
 40 41  1  0
 10 42  1  0
 42 43  2  0
 43 44  1  0
 44 45  2  0
 44 46  1  0
 46 47  2  0
 47 48  1  0
 47 49  1  0
 49 50  1  0
 49 51  2  0
 51 52  1  0
 51 53  1  0
 53 54  1  0
 53 55  2  0
 55 56  1  0
 42  5  1  0
 55 46  1  0
 40  9  1  0
 38 14  1  0
 33 23  1  0
M  CHG  2   2  -1   8  -1
M  END
>  <UniqueID>  (83) 
79

>  <SMILES>  (83) 
[NH-]C(=O)c1c[n-]c2[nH]c(-c3ccc(CN4CCCC4)cc3)cc2/c1=N/C(=O)c1ccccc1Cl

>  <Energy>  (83) 
124.41306746849015

>  <Genealogy>  (83) 
[NH-]C(=O)c1c[n-]c2[nH]c(-c3ccc(CN4CCCC4)cc3)cc2c1=NC(=O)c1ccccc1Cl (protonated)
[NH-]C(=O)c1c[n-]c2[nH]c(-c3ccc(CN4CCCC4)cc3)cc2/c1=N/C(=O)c1ccccc1Cl (cis-trans isomerization)
[NH-]C(=O)c1c[n-]c2[nH]c(-c3ccc(CN4CCCC4)cc3)cc2/c1=N/C(=O)c1ccccc1Cl (3D coordinates assigned)
[NH-]C(=O)c1c[n-]c2[nH]c(-c3ccc(CN4CCCC4)cc3)cc2/c1=N/C(=O)c1ccccc1Cl (nonaromatic ring conformer: 124.41306746849015 kcal/mol)

>  <smiles>  (83) 
NC(=O)c1c[nH]c2[nH]c(-c3ccc(CN4CCCC4)cc3)cc2c1=NC(=O)c1ccccc1Cl

>  <score_type>  (83) 
oracle

>  <origin>  (83) 
adg

>  <m_score__min__energy>  (83) 
-14.41

>  <m_primary>  (83) 
energy

$$$$
83:0
     RDKit          3D

 50 52  0  0  0  0  0  0  0  0999 V2000
   59.9330   34.7650   47.7810 C   0  0  0  0  0  0  0  0  0  0  0  0
   58.9010   34.8730   46.6630 C   0  0  0  0  0  0  0  0  0  0  0  0
   59.5040   34.4700   45.3140 C   0  0  0  0  0  0  0  0  0  0  0  0
   58.8420   33.2320   44.7920 C   0  0  0  0  0  0  0  0  0  0  0  0
   58.3130   33.1280   43.5570 N   0  0  0  0  0  0  0  0  0  0  0  0
   57.7590   31.9290   43.4530 N   0  0  0  0  0  0  0  0  0  0  0  0
   57.1270   31.4570   42.2260 C   0  0  0  0  0  0  0  0  0  0  0  0
   57.8970   31.2630   44.6240 C   0  0  0  0  0  0  0  0  0  0  0  0
   57.4130   29.8990   44.9160 C   0  0  0  0  0  0  0  0  0  0  0  0
   56.1740   29.6730   44.8770 O   0  0  0  0  0  0  0  0  0  0  0  0
   58.3370   28.8430   45.2320 N   0  0  0  0  0  0  0  0  0  0  0  0
   57.9450   27.4940   45.5340 C   0  0  0  0  0  0  0  0  0  0  0  0
   58.0080   26.5190   44.5280 C   0  0  0  0  0  0  0  0  0  0  0  0
   57.6100   25.2050   44.7880 C   0  0  0  0  0  0  0  0  0  0  0  0
   57.1320   24.8510   46.0570 C   0  0  0  0  0  0  0  0  0  0  0  0
   56.6030   23.2030   46.3820 S   0  0  0  0  0  0  0  0  0  0  0  0
   55.4730   23.2350   47.3720 O   0  0  0  0  0  0  0  0  0  0  0  0
   57.7390   22.4130   46.9760 O   0  0  0  0  0  0  0  0  0  0  0  0
   56.0560   22.4690   44.8960 N   0  0  0  0  0  0  0  0  0  0  0  0
   55.3190   23.4250   44.0710 C   0  0  0  0  0  0  0  0  0  0  0  0
   55.4830   22.9700   42.6300 C   0  0  0  0  0  0  0  0  0  0  0  0
   56.7030   22.0620   42.6310 C   0  0  0  0  0  0  0  0  0  0  0  0
   57.1820   22.0310   44.0740 C   0  0  0  0  0  0  0  0  0  0  0  0
   57.0360   25.8280   47.0560 C   0  0  0  0  0  0  0  0  0  0  0  0
   57.4350   27.1430   46.7970 C   0  0  0  0  0  0  0  0  0  0  0  0
   58.6000   32.0680   45.4990 C   0  0  0  0  0  0  0  0  0  0  0  0
   59.0280   31.7260   47.1690 Cl  0  0  0  0  0  0  0  0  0  0  0  0
   59.4251   34.8182   48.7553 H   0  0  0  0  0  0  0  0  0  0  0  0
   60.4656   33.8062   47.6970 H   0  0  0  0  0  0  0  0  0  0  0  0
   60.6526   35.5927   47.6970 H   0  0  0  0  0  0  0  0  0  0  0  0
   58.0542   34.2088   46.8906 H   0  0  0  0  0  0  0  0  0  0  0  0
   58.5660   35.9187   46.5971 H   0  0  0  0  0  0  0  0  0  0  0  0
   59.3595   35.2888   44.5938 H   0  0  0  0  0  0  0  0  0  0  0  0
   60.5770   34.2692   45.4498 H   0  0  0  0  0  0  0  0  0  0  0  0
   56.2692   30.8163   42.4784 H   0  0  0  0  0  0  0  0  0  0  0  0
   56.7802   32.3190   41.6372 H   0  0  0  0  0  0  0  0  0  0  0  0
   57.8550   30.8797   41.6372 H   0  0  0  0  0  0  0  0  0  0  0  0
   59.3520   29.0720   45.3040 H   0  0  0  0  0  0  0  0  0  0  0  0
   58.3735   26.7907   43.5267 H   0  0  0  0  0  0  0  0  0  0  0  0
   57.6721   24.4461   43.9942 H   0  0  0  0  0  0  0  0  0  0  0  0
   54.2550   23.4264   44.3501 H   0  0  0  0  0  0  0  0  0  0  0  0
   55.7005   24.4472   44.2107 H   0  0  0  0  0  0  0  0  0  0  0  0
   54.5921   22.4175   42.2968 H   0  0  0  0  0  0  0  0  0  0  0  0
   55.6060   23.8205   41.9434 H   0  0  0  0  0  0  0  0  0  0  0  0
   56.4305   21.0509   42.2941 H   0  0  0  0  0  0  0  0  0  0  0  0
   57.4847   22.4263   41.9482 H   0  0  0  0  0  0  0  0  0  0  0  0
   57.4812   21.0099   44.3529 H   0  0  0  0  0  0  0  0  0  0  0  0
   58.0556   22.6841   44.2166 H   0  0  0  0  0  0  0  0  0  0  0  0
   56.6451   25.5597   48.0486 H   0  0  0  0  0  0  0  0  0  0  0  0
   57.3496   27.9063   47.5845 H   0  0  0  0  0  0  0  0  0  0  0  0
  1  2  1  0
  2  3  1  0
  3  4  1  0
  4  5  2  0
  5  6  1  0
  6  7  1  0
  6  8  1  0
  8  9  1  0
  9 10  2  0
  9 11  1  0
 11 12  1  0
 12 13  2  0
 13 14  1  0
 14 15  2  0
 15 16  1  0
 16 17  2  0
 16 18  2  0
 16 19  1  0
 19 20  1  0
 20 21  1  0
 21 22  1  0
 22 23  1  0
 15 24  1  0
 24 25  2  0
  8 26  2  0
 26 27  1  0
 26  4  1  0
 25 12  1  0
 23 19  1  0
  1 28  1  0
  1 29  1  0
  1 30  1  0
  2 31  1  0
  2 32  1  0
  3 33  1  0
  3 34  1  0
  7 35  1  0
  7 36  1  0
  7 37  1  0
 11 38  1  0
 13 39  1  0
 14 40  1  0
 20 41  1  0
 20 42  1  0
 21 43  1  0
 21 44  1  0
 22 45  1  0
 22 46  1  0
 23 47  1  0
 23 48  1  0
 24 49  1  0
 25 50  1  0
M  END
>  <UniqueID>  (84) 
80

>  <SMILES>  (84) 
CCCc1nn(C)c(C(=O)Nc2ccc(S(=O)(=O)N3CCCC3)cc2)c1Cl

>  <Energy>  (84) 
83.12568362224837

>  <Genealogy>  (84) 
CCCc1nn(C)c(C(=O)Nc2ccc(S(=O)(=O)N3CCCC3)cc2)c1Cl (3D coordinates assigned)
CCCc1nn(C)c(C(=O)Nc2ccc(S(=O)(=O)N3CCCC3)cc2)c1Cl (nonaromatic ring conformer: 83.12568362224837 kcal/mol)

>  <smiles>  (84) 
CCCc1nn(C)c(C(=O)Nc2ccc(S(=O)(=O)N3CCCC3)cc2)c1Cl

>  <score_type>  (84) 
oracle

>  <origin>  (84) 
adg

>  <m_score__min__energy>  (84) 
-8.7699999999999996

>  <m_primary>  (84) 
energy

$$$$
84:0
     RDKit          3D

 42 44  0  0  0  0  0  0  0  0999 V2000
   56.3100   23.2150   42.9180 C   0  0  0  0  0  0  0  0  0  0  0  0
   56.0450   22.0140   43.6310 O   0  0  0  0  0  0  0  0  0  0  0  0
   56.2640   21.8380   45.0070 C   0  0  0  0  0  0  0  0  0  0  0  0
   56.9620   20.7190   45.5060 C   0  0  0  0  0  0  0  0  0  0  0  0
   57.1220   20.5420   46.8820 C   0  0  0  0  0  0  0  0  0  0  0  0
   56.5820   21.4660   47.7750 C   0  0  0  0  0  0  0  0  0  0  0  0
   55.8930   22.5820   47.2940 C   0  0  0  0  0  0  0  0  0  0  0  0
   55.7560   22.7920   45.9160 C   0  0  0  0  0  0  0  0  0  0  0  0
   55.0700   23.9740   45.4750 N   0  0  0  0  0  0  0  0  0  0  0  0
   55.2160   25.2950   46.0170 C   0  0  0  0  0  0  0  0  0  0  0  0
   54.4060   26.1900   45.6640 O   0  0  0  0  0  0  0  0  0  0  0  0
   56.2590   25.6290   46.9430 N   0  0  0  0  0  0  0  0  0  0  0  0
   57.6440   25.8190   46.6220 C   0  0  0  0  0  0  0  0  0  0  0  0
   58.5460   24.7390   46.6220 C   0  0  0  0  0  0  0  0  0  0  0  0
   59.8870   24.9430   46.2920 C   0  0  0  0  0  0  0  0  0  0  0  0
   60.3420   26.2220   45.9720 C   0  0  0  0  0  0  0  0  0  0  0  0
   59.4620   27.3060   46.0000 C   0  0  0  0  0  0  0  0  0  0  0  0
   58.1110   27.1140   46.3490 C   0  0  0  0  0  0  0  0  0  0  0  0
   57.2030   28.1840   46.3740 O   0  0  0  0  0  0  0  0  0  0  0  0
   57.3330   29.3820   45.6560 C   0  0  0  0  0  0  0  0  0  0  0  0
   58.4510   30.2230   45.8180 C   0  0  0  0  0  0  0  0  0  0  0  0
   58.5430   31.4180   45.0990 C   0  0  0  0  0  0  0  0  0  0  0  0
   57.5190   31.7910   44.2260 C   0  0  0  0  0  0  0  0  0  0  0  0
   56.3960   30.9730   44.0760 C   0  0  0  0  0  0  0  0  0  0  0  0
   56.2970   29.7720   44.7930 C   0  0  0  0  0  0  0  0  0  0  0  0
   55.1740   28.9590   44.6520 O   0  0  0  0  0  0  0  0  0  0  0  0
   56.4904   24.0327   43.6313 H   0  0  0  0  0  0  0  0  0  0  0  0
   57.1994   23.0773   42.2855 H   0  0  0  0  0  0  0  0  0  0  0  0
   55.4453   23.4643   42.2855 H   0  0  0  0  0  0  0  0  0  0  0  0
   57.3830   19.9811   44.8073 H   0  0  0  0  0  0  0  0  0  0  0  0
   57.6758   19.6709   47.2622 H   0  0  0  0  0  0  0  0  0  0  0  0
   56.6984   21.3164   48.8586 H   0  0  0  0  0  0  0  0  0  0  0  0
   55.4551   23.3007   48.0023 H   0  0  0  0  0  0  0  0  0  0  0  0
   58.1932   23.7303   46.8830 H   0  0  0  0  0  0  0  0  0  0  0  0
   60.5860   24.0936   46.2843 H   0  0  0  0  0  0  0  0  0  0  0  0
   61.3957   26.3771   45.6971 H   0  0  0  0  0  0  0  0  0  0  0  0
   59.8252   28.3134   45.7486 H   0  0  0  0  0  0  0  0  0  0  0  0
   59.2547   29.9383   46.5129 H   0  0  0  0  0  0  0  0  0  0  0  0
   59.4236   32.0658   45.2210 H   0  0  0  0  0  0  0  0  0  0  0  0
   57.5963   32.7288   43.6563 H   0  0  0  0  0  0  0  0  0  0  0  0
   55.5871   31.2722   43.3933 H   0  0  0  0  0  0  0  0  0  0  0  0
   55.1570   28.0120   45.0110 H   0  0  0  0  0  0  0  0  0  0  0  0
  1  2  1  0
  2  3  1  0
  3  4  2  0
  4  5  1  0
  5  6  2  0
  6  7  1  0
  7  8  2  0
  8  9  1  0
  9 10  1  0
 10 11  2  0
 10 12  1  0
 12 13  1  0
 13 14  2  0
 14 15  1  0
 15 16  2  0
 16 17  1  0
 17 18  2  0
 18 19  1  0
 19 20  1  0
 20 21  2  0
 21 22  1  0
 22 23  2  0
 23 24  1  0
 24 25  2  0
 25 26  1  0
  8  3  1  0
 18 13  1  0
 25 20  1  0
  1 27  1  0
  1 28  1  0
  1 29  1  0
  4 30  1  0
  5 31  1  0
  6 32  1  0
  7 33  1  0
 14 34  1  0
 15 35  1  0
 16 36  1  0
 17 37  1  0
 21 38  1  0
 22 39  1  0
 23 40  1  0
 24 41  1  0
 26 42  1  0
M  CHG  2   9  -1  12  -1
M  END
>  <UniqueID>  (85) 
81

>  <SMILES>  (85) 
COc1ccccc1[N-]C(=O)[N-]c1ccccc1Oc1ccccc1O

>  <Energy>  (85) 
57.69055787742583

>  <Genealogy>  (85) 
COc1ccccc1[N-]C(=O)[N-]c1ccccc1Oc1ccccc1O (protonated)
COc1ccccc1[N-]C(=O)[N-]c1ccccc1Oc1ccccc1O (3D coordinates assigned)
COc1ccccc1[N-]C(=O)[N-]c1ccccc1Oc1ccccc1O (optimized conformer: 57.69055787742583 kcal/mol)

>  <smiles>  (85) 
COc1ccccc1NC(=O)Nc1ccccc1Oc1ccccc1O

>  <score_type>  (85) 
oracle

>  <origin>  (85) 
adg

>  <m_score__min__energy>  (85) 
-12.609999999999999

>  <m_primary>  (85) 
energy

$$$$
85:0
     RDKit          3D

 52 54  0  0  0  0  0  0  0  0999 V2000
   55.2880   30.3310   55.2660 C   0  0  0  0  0  0  0  0  0  0  0  0
   55.7090   29.9160   53.8930 C   0  0  0  0  0  0  0  0  0  0  0  0
   55.4950   28.4920   53.4460 C   0  0  0  0  0  0  0  0  0  0  0  0
   54.2850   28.4110   52.6940 O   0  0  0  0  0  0  0  0  0  0  0  0
   53.4680   29.5070   52.3860 C   0  0  0  0  0  0  0  0  0  0  0  0
   52.3350   29.8470   53.1550 C   0  0  0  0  0  0  0  0  0  0  0  0
   51.5270   30.9230   52.7770 C   0  0  0  0  0  0  0  0  0  0  0  0
   51.8320   31.6630   51.6320 C   0  0  0  0  0  0  0  0  0  0  0  0
   51.0200   32.7240   51.2520 O   0  0  0  0  0  0  0  0  0  0  0  0
   52.9630   31.3400   50.8730 C   0  0  0  0  0  0  0  0  0  0  0  0
   53.7850   30.2780   51.2610 C   0  0  0  0  0  0  0  0  0  0  0  0
   56.2120   30.8130   53.0980 N   0  0  0  0  0  0  0  0  0  0  0  0
   56.9010   30.4710   51.9540 O   0  0  0  0  0  0  0  0  0  0  0  0
   57.1000   31.4110   50.9070 C   0  0  0  0  0  0  0  0  0  0  0  0
   58.5640   31.7560   50.7530 C   0  0  0  0  0  0  0  0  0  0  0  0
   59.1130   32.7250   51.6130 C   0  0  0  0  0  0  0  0  0  0  0  0
   60.4650   33.0570   51.5420 C   0  0  0  0  0  0  0  0  0  0  0  0
   61.2940   32.4250   50.6200 C   0  0  0  0  0  0  0  0  0  0  0  0
   60.7730   31.4610   49.7610 C   0  0  0  0  0  0  0  0  0  0  0  0
   59.4080   31.1140   49.8030 C   0  0  0  0  0  0  0  0  0  0  0  0
   58.9050   30.0810   48.8610 C   0  0  0  0  0  0  0  0  0  0  0  0
   58.8470   28.8750   49.2350 O   0  0  0  0  0  0  0  0  0  0  0  0
   58.5090   30.4480   47.5240 N   0  0  0  0  0  0  0  0  0  0  0  0
   57.9390   29.5260   46.5740 C   0  0  0  0  0  0  0  0  0  0  0  0
   57.8450   28.3020   46.8610 O   0  0  0  0  0  0  0  0  0  0  0  0
   57.5010   29.9840   45.2330 C   0  0  0  0  0  0  0  0  0  0  0  0
   58.2990   30.9030   44.5290 C   0  0  0  0  0  0  0  0  0  0  0  0
   57.9200   31.3550   43.2630 C   0  0  0  0  0  0  0  0  0  0  0  0
   56.7400   30.8940   42.6800 C   0  0  0  0  0  0  0  0  0  0  0  0
   55.9470   29.9670   43.3540 C   0  0  0  0  0  0  0  0  0  0  0  0
   56.3250   29.4970   44.6170 C   0  0  0  0  0  0  0  0  0  0  0  0
   55.5500   28.5150   45.2220 O   0  0  0  0  0  0  0  0  0  0  0  0
   55.8631   29.7641   56.0129 H   0  0  0  0  0  0  0  0  0  0  0  0
   55.4761   31.4068   55.3977 H   0  0  0  0  0  0  0  0  0  0  0  0
   54.2150   30.1275   55.3977 H   0  0  0  0  0  0  0  0  0  0  0  0
   56.3400   28.1730   52.8181 H   0  0  0  0  0  0  0  0  0  0  0  0
   55.4268   27.8356   54.3261 H   0  0  0  0  0  0  0  0  0  0  0  0
   52.0870   29.2639   54.0541 H   0  0  0  0  0  0  0  0  0  0  0  0
   50.6481   31.1880   53.3830 H   0  0  0  0  0  0  0  0  0  0  0  0
   53.2049   31.9218   49.9713 H   0  0  0  0  0  0  0  0  0  0  0  0
   54.6883   30.0461   50.6777 H   0  0  0  0  0  0  0  0  0  0  0  0
   56.7315   30.9810   49.9639 H   0  0  0  0  0  0  0  0  0  0  0  0
   56.5496   32.3305   51.1551 H   0  0  0  0  0  0  0  0  0  0  0  0
   58.4680   33.2262   52.3497 H   0  0  0  0  0  0  0  0  0  0  0  0
   60.8780   33.8211   52.2170 H   0  0  0  0  0  0  0  0  0  0  0  0
   62.3611   32.6871   50.5699 H   0  0  0  0  0  0  0  0  0  0  0  0
   61.4368   30.9630   49.0389 H   0  0  0  0  0  0  0  0  0  0  0  0
   58.6630   31.4320   47.2200 H   0  0  0  0  0  0  0  0  0  0  0  0
   59.2325   31.2702   44.9805 H   0  0  0  0  0  0  0  0  0  0  0  0
   58.5533   32.0757   42.7249 H   0  0  0  0  0  0  0  0  0  0  0  0
   56.4354   31.2617   41.6890 H   0  0  0  0  0  0  0  0  0  0  0  0
   55.0184   29.6025   42.8905 H   0  0  0  0  0  0  0  0  0  0  0  0
  1  2  1  0
  2  3  1  0
  3  4  1  0
  4  5  1  0
  5  6  2  0
  6  7  1  0
  7  8  2  0
  8  9  1  0
  8 10  1  0
 10 11  2  0
  2 12  2  3
 12 13  1  0
 13 14  1  0
 14 15  1  0
 15 16  2  0
 16 17  1  0
 17 18  2  0
 18 19  1  0
 19 20  2  0
 20 21  1  0
 21 22  2  0
 21 23  1  0
 23 24  1  0
 24 25  2  0
 24 26  1  0
 26 27  2  0
 27 28  1  0
 28 29  2  0
 29 30  1  0
 30 31  2  0
 31 32  1  0
 11  5  1  0
 20 15  1  0
 31 26  1  0
  1 33  1  0
  1 34  1  0
  1 35  1  0
  3 36  1  0
  3 37  1  0
  6 38  1  0
  7 39  1  0
 10 40  1  0
 11 41  1  0
 14 42  1  0
 14 43  1  0
 16 44  1  0
 17 45  1  0
 18 46  1  0
 19 47  1  0
 23 48  1  0
 27 49  1  0
 28 50  1  0
 29 51  1  0
 30 52  1  0
M  CHG  2   9  -1  32  -1
M  END
>  <UniqueID>  (86) 
82

>  <SMILES>  (86) 
CC(COc1ccc([O-])cc1)=NOCc1ccccc1C(=O)NC(=O)c1ccccc1[O-]

>  <Energy>  (86) 
55.343776401979035

>  <Genealogy>  (86) 
CC(COc1ccc([O-])cc1)=NOCc1ccccc1C(=O)NC(=O)c1ccccc1[O-] (protonated)
CC(COc1ccc([O-])cc1)=NOCc1ccccc1C(=O)NC(=O)c1ccccc1[O-] (3D coordinates assigned)
CC(COc1ccc([O-])cc1)=NOCc1ccccc1C(=O)NC(=O)c1ccccc1[O-] (optimized conformer: 55.343776401979035 kcal/mol)

>  <smiles>  (86) 
CC(COc1ccc(O)cc1)=NOCc1ccccc1C(=O)NC(=O)c1ccccc1O

>  <score_type>  (86) 
oracle

>  <origin>  (86) 
adg

>  <m_score__min__energy>  (86) 
-16.620000000000001

>  <m_primary>  (86) 
energy

$$$$
86:0
     RDKit          3D

 51 53  0  0  0  0  0  0  0  0999 V2000
   57.1870   24.8640   43.0100 C   0  0  0  0  0  0  0  0  0  0  0  0
   56.8190   23.5640   43.6470 C   0  0  0  0  0  0  0  0  0  0  0  0
   56.1180   22.6030   43.0150 N   0  0  0  0  0  0  0  0  0  0  0  0
   55.8970   21.6140   43.8700 N   0  0  0  0  0  0  0  0  0  0  0  0
   56.4450   21.9370   45.0550 C   0  0  0  0  0  0  0  0  0  0  0  0
   57.0390   23.1780   44.9580 C   0  0  0  0  0  0  0  0  0  0  0  0
   57.7140   23.9390   46.0690 C   0  0  0  0  0  0  0  0  0  0  0  0
   57.0490   25.2940   46.3660 C   0  0  1  0  0  0  0  0  0  0  0  0
   57.5400   26.3100   45.4380 N   0  0  0  0  0  0  0  0  0  0  0  0
   57.4530   27.7180   45.6850 C   0  0  0  0  0  0  0  0  0  0  0  0
   56.3910   28.3470   45.4330 O   0  0  0  0  0  0  0  0  0  0  0  0
   58.6140   28.4350   46.2940 C   0  0  0  0  0  0  0  0  0  0  0  0
   58.3510   29.8700   46.3430 N   0  0  0  0  0  0  0  0  0  0  0  0
   59.3980   30.8430   46.4700 C   0  0  0  0  0  0  0  0  0  0  0  0
   60.6040   30.4740   46.4830 O   0  0  0  0  0  0  0  0  0  0  0  0
   59.0490   32.3090   46.5410 C   0  0  1  0  0  0  0  0  0  0  0  0
   57.6090   32.6010   46.0680 C   0  0  0  0  0  0  0  0  0  0  0  0
   57.3290   32.0000   44.7200 C   0  0  0  0  0  0  0  0  0  0  0  0
   57.9350   32.3550   43.5360 C   0  0  0  0  0  0  0  0  0  0  0  0
   57.4640   31.5670   42.5550 N   0  0  0  0  0  0  0  0  0  0  0  0
   56.5870   30.7520   43.1770 C   0  0  0  0  0  0  0  0  0  0  0  0
   56.4830   30.9770   44.5040 N   0  0  0  0  0  0  0  0  0  0  0  0
   59.2770   32.8150   47.8950 N   0  0  0  0  0  0  0  0  0  0  0  0
   60.1370   33.9090   48.2420 C   0  0  0  0  0  0  0  0  0  0  0  0
   59.6630   34.9630   48.7480 O   0  0  0  0  0  0  0  0  0  0  0  0
   61.5800   33.8060   48.0070 C   0  0  0  0  0  0  0  0  0  0  0  0
   62.1900   33.5130   46.8050 C   0  0  0  0  0  0  0  0  0  0  0  0
   63.5370   33.5400   47.0980 C   0  0  0  0  0  0  0  0  0  0  0  0
   63.7070   33.8350   48.4010 N   0  0  0  0  0  0  0  0  0  0  0  0
   62.5150   33.9990   48.9560 N   0  0  0  0  0  0  0  0  0  0  0  0
   55.5470   25.1940   46.3080 C   0  0  0  0  0  0  0  0  0  0  0  0
   54.7600   26.3240   45.9390 N   0  0  0  0  0  0  0  0  0  0  0  0
   54.9860   24.0900   46.5420 O   0  0  0  0  0  0  0  0  0  0  0  0
   57.3978   25.6087   43.7917 H   0  0  0  0  0  0  0  0  0  0  0  0
   58.0813   24.7257   42.3846 H   0  0  0  0  0  0  0  0  0  0  0  0
   56.3529   25.2150   42.3846 H   0  0  0  0  0  0  0  0  0  0  0  0
   56.4229   21.3104   45.9588 H   0  0  0  0  0  0  0  0  0  0  0  0
   57.6823   23.3263   46.9820 H   0  0  0  0  0  0  0  0  0  0  0  0
   58.7450   24.1446   45.7452 H   0  0  0  0  0  0  0  0  0  0  0  0
   57.3192   25.5915   47.3900 H   0  0  0  0  0  0  0  0  0  0  0  0
   58.7772   28.0604   47.3153 H   0  0  0  0  0  0  0  0  0  0  0  0
   59.5090   28.2549   45.6804 H   0  0  0  0  0  0  0  0  0  0  0  0
   57.3610   30.1980   46.2660 H   0  0  0  0  0  0  0  0  0  0  0  0
   59.7138   32.8410   45.8445 H   0  0  0  0  0  0  0  0  0  0  0  0
   56.9026   32.1801   46.7986 H   0  0  0  0  0  0  0  0  0  0  0  0
   57.4920   33.6917   45.9857 H   0  0  0  0  0  0  0  0  0  0  0  0
   58.6822   33.1529   43.4132 H   0  0  0  0  0  0  0  0  0  0  0  0
   56.0104   29.9764   42.6517 H   0  0  0  0  0  0  0  0  0  0  0  0
   61.7120   33.3056   45.8362 H   0  0  0  0  0  0  0  0  0  0  0  0
   64.3474   33.3500   46.3788 H   0  0  0  0  0  0  0  0  0  0  0  0
   55.1550   27.0760   45.3360 H   0  0  0  0  0  0  0  0  0  0  0  0
  1  2  1  0
  2  3  2  0
  3  4  1  0
  4  5  1  0
  5  6  2  0
  6  7  1  0
  7  8  1  0
  8  9  1  0
  9 10  1  0
 10 11  2  0
 10 12  1  0
 12 13  1  0
 13 14  1  0
 14 15  2  0
 14 16  1  0
 16 17  1  0
 17 18  1  0
 18 19  2  0
 19 20  1  0
 20 21  1  0
 21 22  2  0
 16 23  1  0
 23 24  1  0
 24 25  2  0
 24 26  1  0
 26 27  1  0
 27 28  2  0
 28 29  1  0
 29 30  1  0
  8 31  1  0
 31 32  1  0
 31 33  2  0
  6  2  1  0
 22 18  1  0
 30 26  2  0
  1 34  1  0
  1 35  1  0
  1 36  1  0
  5 37  1  0
  7 38  1  0
  7 39  1  0
  8 40  1  1
 12 41  1  0
 12 42  1  0
 13 43  1  0
 16 44  1  6
 17 45  1  0
 17 46  1  0
 19 47  1  0
 21 48  1  0
 27 49  1  0
 28 50  1  0
 32 51  1  0
M  CHG  6   4  -1   9  -1  20  -1  23  -1  29  -1  32  -1
M  END
>  <UniqueID>  (87) 
83

>  <SMILES>  (87) 
Cc1n[n-]cc1C[C@@H]([N-]C(=O)CNC(=O)[C@@H](Cc1c[n-]cn1)[N-]C(=O)c1cc[n-]n1)C([NH-])=O

>  <Energy>  (87) 
124.95151271884293

>  <Genealogy>  (87) 
Cc1n[n-]cc1CC([N-]C(=O)CNC(=O)C(Cc1c[n-]cn1)[N-]C(=O)c1cc[n-]n1)C([NH-])=O (protonated)
Cc1n[n-]cc1C[C@@H]([N-]C(=O)CNC(=O)[C@@H](Cc1c[n-]cn1)[N-]C(=O)c1cc[n-]n1)C([NH-])=O (chirality)
Cc1n[n-]cc1C[C@@H]([N-]C(=O)CNC(=O)[C@@H](Cc1c[n-]cn1)[N-]C(=O)c1cc[n-]n1)C([NH-])=O (3D coordinates assigned)
Cc1n[n-]cc1C[C@@H]([N-]C(=O)CNC(=O)[C@@H](Cc1c[n-]cn1)[N-]C(=O)c1cc[n-]n1)C([NH-])=O (optimized conformer: 124.95151271884293 kcal/mol)

>  <smiles>  (87) 
Cc1n[nH]cc1CC(NC(=O)CNC(=O)C(Cc1c[nH]cn1)NC(=O)c1cc[nH]n1)C(N)=O

>  <score_type>  (87) 
oracle

>  <origin>  (87) 
adg

>  <m_score__min__energy>  (87) 
-18.07

>  <m_primary>  (87) 
energy

$$$$
87:0
     RDKit          3D

 36 37  0  0  0  0  0  0  0  0999 V2000
   57.4340   32.5370   40.7750 C   0  0  0  0  0  0  0  0  0  0  0  0
   57.6660   31.9510   42.1670 C   0  0  0  0  0  0  0  0  0  0  0  0
   56.6590   30.8450   42.5040 C   0  0  0  0  0  0  0  0  0  0  0  0
   57.2160   29.8740   43.4470 N   0  0  0  0  0  0  0  0  0  0  0  0
   56.4280   29.3390   44.5200 C   0  0  0  0  0  0  0  0  0  0  0  0
   55.3040   29.8400   44.7870 O   0  0  0  0  0  0  0  0  0  0  0  0
   56.9260   28.2780   45.3410 N   0  0  0  0  0  0  0  0  0  0  0  0
   58.0810   28.3350   46.1920 C   0  0  0  0  0  0  0  0  0  0  0  0
   58.3710   27.3020   47.0990 C   0  0  0  0  0  0  0  0  0  0  0  0
   59.5170   27.3690   47.8910 C   0  0  0  0  0  0  0  0  0  0  0  0
   60.3630   28.4710   47.7780 C   0  0  0  0  0  0  0  0  0  0  0  0
   60.0550   29.4790   46.9210 N   0  0  0  0  0  0  0  0  0  0  0  0
   58.9350   29.4570   46.1490 C   0  0  0  0  0  0  0  0  0  0  0  0
   58.6900   30.5390   45.2920 O   0  0  0  0  0  0  0  0  0  0  0  0
   58.6700   31.8860   45.6840 C   0  0  0  0  0  0  0  0  0  0  0  0
   57.5680   32.6730   45.3280 C   0  0  0  0  0  0  0  0  0  0  0  0
   57.5150   34.0220   45.6920 C   0  0  0  0  0  0  0  0  0  0  0  0
   58.5680   34.5960   46.4080 C   0  0  0  0  0  0  0  0  0  0  0  0
   59.6800   33.8230   46.7540 C   0  0  0  0  0  0  0  0  0  0  0  0
   59.7370   32.4740   46.3910 C   0  0  0  0  0  0  0  0  0  0  0  0
   57.0306   33.5560   40.8687 H   0  0  0  0  0  0  0  0  0  0  0  0
   58.3873   32.5690   40.2271 H   0  0  0  0  0  0  0  0  0  0  0  0
   56.7171   31.9078   40.2271 H   0  0  0  0  0  0  0  0  0  0  0  0
   58.6816   31.5307   42.2098 H   0  0  0  0  0  0  0  0  0  0  0  0
   57.5370   32.7606   42.9004 H   0  0  0  0  0  0  0  0  0  0  0  0
   55.7637   31.3022   42.9505 H   0  0  0  0  0  0  0  0  0  0  0  0
   56.4087   30.3143   41.5735 H   0  0  0  0  0  0  0  0  0  0  0  0
   58.2110   29.5680   43.3530 H   0  0  0  0  0  0  0  0  0  0  0  0
   57.6936   26.4396   47.1845 H   0  0  0  0  0  0  0  0  0  0  0  0
   59.7511   26.5597   48.5983 H   0  0  0  0  0  0  0  0  0  0  0  0
   61.2802   28.5244   48.3829 H   0  0  0  0  0  0  0  0  0  0  0  0
   56.7390   32.2274   44.7586 H   0  0  0  0  0  0  0  0  0  0  0  0
   56.6429   34.6320   45.4141 H   0  0  0  0  0  0  0  0  0  0  0  0
   58.5222   35.6557   46.6994 H   0  0  0  0  0  0  0  0  0  0  0  0
   60.5117   34.2768   47.3129 H   0  0  0  0  0  0  0  0  0  0  0  0
   60.6170   31.8705   46.6581 H   0  0  0  0  0  0  0  0  0  0  0  0
  1  2  1  0
  2  3  1  0
  3  4  1  0
  4  5  1  0
  5  6  2  0
  5  7  1  0
  7  8  1  0
  8  9  2  0
  9 10  1  0
 10 11  2  0
 11 12  1  0
 12 13  2  0
 13 14  1  0
 14 15  1  0
 15 16  2  0
 16 17  1  0
 17 18  2  0
 18 19  1  0
 19 20  2  0
 13  8  1  0
 20 15  1  0
  1 21  1  0
  1 22  1  0
  1 23  1  0
  2 24  1  0
  2 25  1  0
  3 26  1  0
  3 27  1  0
  4 28  1  0
  9 29  1  0
 10 30  1  0
 11 31  1  0
 16 32  1  0
 17 33  1  0
 18 34  1  0
 19 35  1  0
 20 36  1  0
M  CHG  1   7  -1
M  END
>  <UniqueID>  (88) 
84

>  <SMILES>  (88) 
CCCNC(=O)[N-]c1cccnc1Oc1ccccc1

>  <Energy>  (88) 
42.43294982200099

>  <Genealogy>  (88) 
CCCNC(=O)[N-]c1cccnc1Oc1ccccc1 (protonated)
CCCNC(=O)[N-]c1cccnc1Oc1ccccc1 (3D coordinates assigned)
CCCNC(=O)[N-]c1cccnc1Oc1ccccc1 (optimized conformer: 42.43294982200099 kcal/mol)

>  <smiles>  (88) 
CCCNC(=O)Nc1cccnc1Oc1ccccc1

>  <score_type>  (88) 
oracle

>  <origin>  (88) 
adg

>  <m_score__min__energy>  (88) 
-8.6799999999999997

>  <m_primary>  (88) 
energy

$$$$
88:0
     RDKit          3D

 36 38  0  0  0  0  0  0  0  0999 V2000
   55.6440   28.9480   45.0650 O   0  0  0  0  0  0  0  0  0  0  0  0
   56.8380   28.5510   45.1290 C   0  0  0  0  0  0  0  0  0  0  0  0
   57.9370   29.5420   44.8450 C   0  0  0  0  0  0  0  0  0  0  0  0
   57.2580   31.1200   44.2240 S   0  0  0  0  0  0  0  0  0  0  0  0
   58.1200   32.1390   45.4180 C   0  0  0  0  0  0  0  0  0  0  0  0
   58.4530   33.4160   45.1020 N   0  0  0  0  0  0  0  0  0  0  0  0
   59.0600   34.2290   46.0040 C   0  0  0  0  0  0  0  0  0  0  0  0
   59.3150   35.4200   45.6860 O   0  0  0  0  0  0  0  0  0  0  0  0
   59.3650   33.7440   47.2880 C   0  0  0  0  0  0  0  0  0  0  0  0
   59.9580   34.5810   48.2960 N   0  0  0  0  0  0  0  0  0  0  0  0
   61.1100   34.1910   49.0620 C   0  0  0  0  0  0  0  0  0  0  0  0
   61.0470   34.1800   50.4220 N   0  0  0  0  0  0  0  0  0  0  0  0
   62.1210   33.8400   51.1770 C   0  0  0  0  0  0  0  0  0  0  0  0
   63.2940   33.5070   50.5800 N   0  0  0  0  0  0  0  0  0  0  0  0
   63.4140   33.5060   49.2290 C   0  0  0  0  0  0  0  0  0  0  0  0
   64.5150   33.1900   48.7040 O   0  0  0  0  0  0  0  0  0  0  0  0
   62.3190   33.8530   48.4280 C   0  0  0  0  0  0  0  0  0  0  0  0
   62.4640   33.8260   46.6700 Cl  0  0  0  0  0  0  0  0  0  0  0  0
   59.0060   32.4230   47.5910 C   0  0  0  0  0  0  0  0  0  0  0  0
   59.2670   31.8920   48.8490 O   0  0  0  0  0  0  0  0  0  0  0  0
   58.4010   31.6500   46.6530 N   0  0  0  0  0  0  0  0  0  0  0  0
   57.1130   27.1690   45.5990 C   0  0  0  0  0  0  0  0  0  0  0  0
   58.4450   26.7180   45.6230 C   0  0  0  0  0  0  0  0  0  0  0  0
   58.7440   25.4040   45.9930 C   0  0  0  0  0  0  0  0  0  0  0  0
   57.7200   24.5270   46.3540 C   0  0  0  0  0  0  0  0  0  0  0  0
   58.0180   23.2160   46.7030 O   0  0  0  0  0  0  0  0  0  0  0  0
   56.3960   24.9720   46.3710 C   0  0  0  0  0  0  0  0  0  0  0  0
   56.0870   26.2900   46.0150 C   0  0  0  0  0  0  0  0  0  0  0  0
   54.7680   26.7140   46.1150 O   0  0  0  0  0  0  0  0  0  0  0  0
   58.4971   29.7324   45.7724 H   0  0  0  0  0  0  0  0  0  0  0  0
   58.5972   29.1189   44.0736 H   0  0  0  0  0  0  0  0  0  0  0  0
   59.4520   35.4560   48.5580 H   0  0  0  0  0  0  0  0  0  0  0  0
   62.0417   33.8340   52.2741 H   0  0  0  0  0  0  0  0  0  0  0  0
   59.2585   27.4056   45.3481 H   0  0  0  0  0  0  0  0  0  0  0  0
   59.7888   25.0601   45.9997 H   0  0  0  0  0  0  0  0  0  0  0  0
   55.5913   24.2825   46.6659 H   0  0  0  0  0  0  0  0  0  0  0  0
  1  2  2  0
  2  3  1  0
  3  4  1  0
  4  5  1  0
  5  6  2  0
  6  7  1  0
  7  8  2  0
  7  9  1  0
  9 10  1  0
 10 11  1  0
 11 12  1  0
 12 13  2  0
 13 14  1  0
 14 15  1  0
 15 16  2  0
 15 17  1  0
 17 18  1  0
  9 19  2  0
 19 20  1  0
 19 21  1  0
  2 22  1  0
 22 23  2  0
 23 24  1  0
 24 25  2  0
 25 26  1  0
 25 27  1  0
 27 28  2  0
 28 29  1  0
 21  5  1  0
 28 22  1  0
 17 11  2  0
  3 30  1  0
  3 31  1  0
 10 32  1  0
 13 33  1  0
 23 34  1  0
 24 35  1  0
 27 36  1  0
M  CHG  5  14  -1  20  -1  21  -1  26  -1  29  -1
M  END
>  <UniqueID>  (89) 
85

>  <SMILES>  (89) 
O=C(CSc1nc(=O)c(Nc2nc[n-]c(=O)c2Cl)c([O-])[n-]1)c1ccc([O-])cc1[O-]

>  <Energy>  (89) 
48.43338296757981

>  <Genealogy>  (89) 
O=C(CSc1nc(=O)c(Nc2nc[n-]c(=O)c2Cl)c([O-])[n-]1)c1ccc([O-])cc1[O-] (protonated)
O=C(CSc1nc(=O)c(Nc2nc[n-]c(=O)c2Cl)c([O-])[n-]1)c1ccc([O-])cc1[O-] (3D coordinates assigned)
O=C(CSc1nc(=O)c(Nc2nc[n-]c(=O)c2Cl)c([O-])[n-]1)c1ccc([O-])cc1[O-] (optimized conformer: 48.43338296757981 kcal/mol)

>  <smiles>  (89) 
O=C(CSc1nc(=O)c(Nc2nc[nH]c(=O)c2Cl)c(O)[nH]1)c1ccc(O)cc1O

>  <score_type>  (89) 
oracle

>  <origin>  (89) 
adg

>  <m_score__min__energy>  (89) 
-16.800000000000001

>  <m_primary>  (89) 
energy

$$$$
89:0
     RDKit          3D

 57 59  0  0  0  0  0  0  0  0999 V2000
   54.6015   29.8017   50.6716 H   0  0  0  0  0  0  0  0  0  0  0  0
   54.4860   30.4630   51.5430 C   0  0  0  0  0  0  0  0  0  0  0  0
   55.5380   30.7050   52.3260 C   0  0  0  0  0  0  0  0  0  0  0  0
   55.6404   30.1662   53.2795 H   0  0  0  0  0  0  0  0  0  0  0  0
   56.5840   31.7030   51.9230 C   0  0  0  0  0  0  0  0  0  0  0  0
   56.1393   32.4310   51.2286 H   0  0  0  0  0  0  0  0  0  0  0  0
   56.9529   32.2113   52.8261 H   0  0  0  0  0  0  0  0  0  0  0  0
   57.7400   31.0210   51.2480 C   0  0  0  0  0  0  0  0  0  0  0  0
   57.8030   29.7630   51.2430 O   0  0  0  0  0  0  0  0  0  0  0  0
   58.8460   31.8010   50.6620 C   0  0  0  0  0  0  0  0  0  0  0  0
   59.2760   32.9530   51.3390 C   0  0  0  0  0  0  0  0  0  0  0  0
   58.7829   33.2520   52.2757 H   0  0  0  0  0  0  0  0  0  0  0  0
   60.3250   33.7220   50.8320 C   0  0  0  0  0  0  0  0  0  0  0  0
   60.6456   34.6307   51.3624 H   0  0  0  0  0  0  0  0  0  0  0  0
   60.9680   33.3400   49.6530 C   0  0  0  0  0  0  0  0  0  0  0  0
   61.7947   33.9477   49.2564 H   0  0  0  0  0  0  0  0  0  0  0  0
   60.5630   32.1880   48.9770 C   0  0  0  0  0  0  0  0  0  0  0  0
   61.0812   31.8874   48.0545 H   0  0  0  0  0  0  0  0  0  0  0  0
   59.4980   31.4070   49.4640 C   0  0  0  0  0  0  0  0  0  0  0  0
   59.1450   30.1270   48.7390 C   0  0  0  0  0  0  0  0  0  0  0  0
   59.8055   29.3206   49.0904 H   0  0  0  0  0  0  0  0  0  0  0  0
   58.0933   29.8833   48.9501 H   0  0  0  0  0  0  0  0  0  0  0  0
   59.3140   30.2890   47.2250 C   0  0  0  0  0  0  0  0  0  0  0  0
   58.8263   31.2211   46.9036 H   0  0  0  0  0  0  0  0  0  0  0  0
   60.3875   30.3226   46.9874 H   0  0  0  0  0  0  0  0  0  0  0  0
   58.6880   29.1240   46.4980 C   0  0  0  0  0  0  0  0  0  0  0  0
   59.2120   27.8350   46.6850 C   0  0  0  0  0  0  0  0  0  0  0  0
   60.0811   27.6897   47.3435 H   0  0  0  0  0  0  0  0  0  0  0  0
   58.6390   26.7360   46.0420 C   0  0  0  0  0  0  0  0  0  0  0  0
   59.0617   25.7309   46.1876 H   0  0  0  0  0  0  0  0  0  0  0  0
   57.5290   26.9140   45.2140 C   0  0  0  0  0  0  0  0  0  0  0  0
   57.0774   26.0478   44.7082 H   0  0  0  0  0  0  0  0  0  0  0  0
   56.9900   28.1900   45.0260 C   0  0  0  0  0  0  0  0  0  0  0  0
   56.1142   28.3229   44.3739 H   0  0  0  0  0  0  0  0  0  0  0  0
   57.5620   29.3070   45.6670 C   0  0  0  0  0  0  0  0  0  0  0  0
   57.0420   30.6040   45.5010 O   0  0  0  0  0  0  0  0  0  0  0  0
   57.4720   31.5460   44.5180 C   0  0  0  0  0  0  0  0  0  0  0  0
   58.2236   31.0744   43.8679 H   0  0  0  0  0  0  0  0  0  0  0  0
   56.6034   31.8626   43.9220 H   0  0  0  0  0  0  0  0  0  0  0  0
   58.0770   32.7540   45.1810 C   0  0  0  0  0  0  0  0  0  0  0  0
   58.8520   33.6650   44.4450 C   0  0  0  0  0  0  0  0  0  0  0  0
   59.0062   33.5088   43.3671 H   0  0  0  0  0  0  0  0  0  0  0  0
   59.4280   34.7700   45.0790 C   0  0  0  0  0  0  0  0  0  0  0  0
   60.0388   35.4784   44.5002 H   0  0  0  0  0  0  0  0  0  0  0  0
   59.2290   34.9760   46.4470 C   0  0  0  0  0  0  0  0  0  0  0  0
   59.6861   35.8442   46.9444 H   0  0  0  0  0  0  0  0  0  0  0  0
   58.4500   34.0800   47.1830 C   0  0  0  0  0  0  0  0  0  0  0  0
   58.2908   34.2458   48.2587 H   0  0  0  0  0  0  0  0  0  0  0  0
   57.8730   32.9740   46.5550 C   0  0  0  0  0  0  0  0  0  0  0  0
   57.2570   32.2727   47.1370 H   0  0  0  0  0  0  0  0  0  0  0  0
   53.1720   31.0660   51.8250 C   0  0  0  0  0  0  0  0  0  0  0  0
   52.9577   31.4612   52.8289 H   0  0  0  0  0  0  0  0  0  0  0  0
   52.2400   31.1370   50.8740 C   0  0  0  0  0  0  0  0  0  0  0  0
   52.0923   30.2772   50.2040 H   0  0  0  0  0  0  0  0  0  0  0  0
   51.4050   32.3330   50.6970 C   0  0  0  0  0  0  0  0  0  0  0  0
   51.0330   32.6620   49.5410 O   0  0  0  0  0  0  0  0  0  0  0  0
   51.0240   33.1080   51.7840 O   0  0  0  0  0  0  0  0  0  0  0  0
  1  2  1  0
  2  3  2  0
  3  4  1  0
  3  5  1  0
  5  6  1  0
  5  7  1  0
  5  8  1  0
  8  9  2  0
  8 10  1  0
 10 11  2  0
 11 12  1  0
 11 13  1  0
 13 14  1  0
 13 15  2  0
 15 16  1  0
 15 17  1  0
 17 18  1  0
 17 19  2  0
 19 20  1  0
 20 21  1  0
 20 22  1  0
 20 23  1  0
 23 24  1  0
 23 25  1  0
 23 26  1  0
 26 27  2  0
 27 28  1  0
 27 29  1  0
 29 30  1  0
 29 31  2  0
 31 32  1  0
 31 33  1  0
 33 34  1  0
 33 35  2  0
 35 36  1  0
 36 37  1  0
 37 38  1  0
 37 39  1  0
 37 40  1  0
 40 41  2  0
 41 42  1  0
 41 43  1  0
 43 44  1  0
 43 45  2  0
 45 46  1  0
 45 47  1  0
 47 48  1  0
 47 49  2  0
 49 50  1  0
  2 51  1  0
 51 52  1  0
 51 53  2  0
 53 54  1  0
 53 55  1  0
 55 56  2  0
 55 57  1  0
 19 10  1  0
 35 26  1  0
 49 40  1  0
M  CHG  1  57  -1
M  END
>  <UniqueID>  (90) 
86

>  <SMILES>  (90) 
O=C([O-])/C=C/C=CCC(=O)c1ccccc1CCc1ccccc1OCc1ccccc1

>  <Energy>  (90) 
57.7033349103947

>  <Genealogy>  (90) 
O=C([O-])C=CC=CCC(=O)c1ccccc1CCc1ccccc1OCc1ccccc1 (protonated)
O=C([O-])/C=C/C=CCC(=O)c1ccccc1CCc1ccccc1OCc1ccccc1 (cis-trans isomerization)
O=C([O-])/C=C/C=CCC(=O)c1ccccc1CCc1ccccc1OCc1ccccc1 (3D coordinates assigned)
O=C([O-])/C=C/C=CCC(=O)c1ccccc1CCc1ccccc1OCc1ccccc1 (optimized conformer: 57.7033349103947 kcal/mol)

>  <smiles>  (90) 
O=C(O)C=CC=CCC(=O)c1ccccc1CCc1ccccc1OCc1ccccc1

>  <score_type>  (90) 
oracle

>  <origin>  (90) 
adg

>  <m_score__min__energy>  (90) 
-14.029999999999999

>  <m_primary>  (90) 
energy

$$$$
90:0
     RDKit          3D

 57 60  0  0  0  0  0  0  0  0999 V2000
   55.1630   25.7310   46.3510 O   0  0  0  0  0  0  0  0  0  0  0  0
   56.2820   26.0790   45.8890 C   0  0  0  0  0  0  0  0  0  0  0  0
   57.0290   25.1330   44.9910 C   0  0  0  0  0  0  0  0  0  0  0  0
   58.1990   24.6500   45.6460 O   0  0  0  0  0  0  0  0  0  0  0  0
   58.7290   23.3750   45.4200 C   0  0  0  0  0  0  0  0  0  0  0  0
   59.9520   23.1400   45.6220 O   0  0  0  0  0  0  0  0  0  0  0  0
   57.8230   22.2680   44.9910 C   0  0  0  0  0  0  0  0  0  0  0  0
   56.5590   22.3510   45.7190 N   0  0  0  0  0  0  0  0  0  0  0  0
   56.3570   22.0650   47.0240 C   0  0  0  0  0  0  0  0  0  0  0  0
   57.3630   21.6950   47.9080 O   0  0  0  0  0  0  0  0  0  0  0  0
   55.0180   22.1790   47.3390 C   0  0  0  0  0  0  0  0  0  0  0  0
   54.3720   22.5320   46.1810 C   0  0  0  0  0  0  0  0  0  0  0  0
   55.3420   22.6210   45.1980 C   0  0  0  0  0  0  0  0  0  0  0  0
   55.1190   22.9310   43.8590 O   0  0  0  0  0  0  0  0  0  0  0  0
   52.8920   22.7200   46.0720 C   0  0  0  0  0  0  0  0  0  0  0  0
   52.2050   22.5490   47.4120 C   0  0  0  0  0  0  0  0  0  0  0  0
   52.8420   22.2000   48.5520 C   0  0  0  0  0  0  0  0  0  0  0  0
   54.3310   21.9350   48.6440 C   0  0  0  0  0  0  0  0  0  0  0  0
   56.7720   27.3950   46.1780 N   0  0  0  0  0  0  0  0  0  0  0  0
   58.0140   27.9570   45.7300 C   0  0  0  0  0  0  0  0  0  0  0  0
   59.2360   27.3170   46.0070 C   0  0  0  0  0  0  0  0  0  0  0  0
   60.4440   27.9080   45.6280 C   0  0  0  0  0  0  0  0  0  0  0  0
   60.4470   29.1470   44.9850 C   0  0  0  0  0  0  0  0  0  0  0  0
   59.2420   29.8050   44.7290 C   0  0  0  0  0  0  0  0  0  0  0  0
   58.0220   29.2210   45.1090 C   0  0  0  0  0  0  0  0  0  0  0  0
   56.7610   29.9430   44.8560 C   0  0  0  0  0  0  0  0  0  0  0  0
   55.7520   29.2990   44.4670 O   0  0  0  0  0  0  0  0  0  0  0  0
   56.6450   31.3550   45.0790 N   0  0  0  0  0  0  0  0  0  0  0  0
   57.4010   32.3820   44.3660 C   0  0  0  0  0  0  0  0  0  0  0  0
   58.1330   33.2750   45.3350 C   0  0  0  0  0  0  0  0  0  0  0  0
   58.8850   34.3680   44.8710 C   0  0  0  0  0  0  0  0  0  0  0  0
   59.6010   35.1630   45.7700 C   0  0  0  0  0  0  0  0  0  0  0  0
   59.5670   34.8780   47.1380 C   0  0  0  0  0  0  0  0  0  0  0  0
   58.8110   33.8010   47.6080 C   0  0  0  0  0  0  0  0  0  0  0  0
   58.0940   33.0030   46.7130 C   0  0  0  0  0  0  0  0  0  0  0  0
   56.3782   24.2833   44.7372 H   0  0  0  0  0  0  0  0  0  0  0  0
   57.3254   25.6668   44.0760 H   0  0  0  0  0  0  0  0  0  0  0  0
   57.6287   22.3530   43.9116 H   0  0  0  0  0  0  0  0  0  0  0  0
   58.3031   21.3022   45.2070 H   0  0  0  0  0  0  0  0  0  0  0  0
   55.1020   22.2080   43.1510 H   0  0  0  0  0  0  0  0  0  0  0  0
   52.6882   23.7325   45.6936 H   0  0  0  0  0  0  0  0  0  0  0  0
   52.4990   21.9559   45.3852 H   0  0  0  0  0  0  0  0  0  0  0  0
   51.1194   22.7197   47.4599 H   0  0  0  0  0  0  0  0  0  0  0  0
   52.2426   22.1024   49.4692 H   0  0  0  0  0  0  0  0  0  0  0  0
   54.7650   22.6001   49.4051 H   0  0  0  0  0  0  0  0  0  0  0  0
   54.4751   20.8787   48.9149 H   0  0  0  0  0  0  0  0  0  0  0  0
   59.2404   26.3464   46.5246 H   0  0  0  0  0  0  0  0  0  0  0  0
   61.3948   27.3958   45.8368 H   0  0  0  0  0  0  0  0  0  0  0  0
   61.3992   29.6054   44.6797 H   0  0  0  0  0  0  0  0  0  0  0  0
   59.2481   30.7842   44.2279 H   0  0  0  0  0  0  0  0  0  0  0  0
   58.1304   31.8967   43.7007 H   0  0  0  0  0  0  0  0  0  0  0  0
   56.6994   32.9951   43.7813 H   0  0  0  0  0  0  0  0  0  0  0  0
   58.9100   34.5986   43.7957 H   0  0  0  0  0  0  0  0  0  0  0  0
   60.1920   36.0140   45.4007 H   0  0  0  0  0  0  0  0  0  0  0  0
   60.1351   35.5013   47.8442 H   0  0  0  0  0  0  0  0  0  0  0  0
   58.7803   33.5809   48.6853 H   0  0  0  0  0  0  0  0  0  0  0  0
   57.4969   32.1589   47.0884 H   0  0  0  0  0  0  0  0  0  0  0  0
  1  2  2  0
  2  3  1  0
  3  4  1  0
  4  5  1  0
  5  6  2  0
  5  7  1  0
  7  8  1  0
  8  9  1  0
  9 10  1  0
  9 11  2  0
 11 12  1  0
 12 13  2  0
 13 14  1  0
 12 15  1  0
 15 16  1  0
 16 17  2  0
 17 18  1  0
  2 19  1  0
 19 20  1  0
 20 21  2  0
 21 22  1  0
 22 23  2  0
 23 24  1  0
 24 25  2  0
 25 26  1  0
 26 27  2  0
 26 28  1  0
 28 29  1  0
 29 30  1  0
 30 31  2  0
 31 32  1  0
 32 33  2  0
 33 34  1  0
 34 35  2  0
 13  8  1  0
 25 20  1  0
 35 30  1  0
 18 11  1  0
  3 36  1  0
  3 37  1  0
  7 38  1  0
  7 39  1  0
 14 40  1  0
 15 41  1  0
 15 42  1  0
 16 43  1  0
 17 44  1  0
 18 45  1  0
 18 46  1  0
 21 47  1  0
 22 48  1  0
 23 49  1  0
 24 50  1  0
 29 51  1  0
 29 52  1  0
 31 53  1  0
 32 54  1  0
 33 55  1  0
 34 56  1  0
 35 57  1  0
M  CHG  3  10  -1  19  -1  28  -1
M  END
>  <UniqueID>  (91) 
87

>  <SMILES>  (91) 
O=C(COC(=O)Cn1c([O-])c2c(c1O)CC=CC2)[N-]c1ccccc1C(=O)[N-]Cc1ccccc1

>  <Energy>  (91) 
95.31676014899249

>  <Genealogy>  (91) 
O=C(COC(=O)Cn1c([O-])c2c(c1O)CC=CC2)[N-]c1ccccc1C(=O)[N-]Cc1ccccc1 (protonated)
O=C(COC(=O)Cn1c([O-])c2c(c1O)CC=CC2)[N-]c1ccccc1C(=O)[N-]Cc1ccccc1 (3D coordinates assigned)
O=C(COC(=O)Cn1c([O-])c2c(c1O)CC=CC2)[N-]c1ccccc1C(=O)[N-]Cc1ccccc1 (nonaromatic ring conformer: 95.31676014899249 kcal/mol)

>  <smiles>  (91) 
O=C(COC(=O)Cn1c(O)c2c(c1O)CC=CC2)Nc1ccccc1C(=O)NCc1ccccc1

>  <score_type>  (91) 
oracle

>  <origin>  (91) 
adg

>  <m_score__min__energy>  (91) 
-14.19

>  <m_primary>  (91) 
energy

$$$$
91:0
     RDKit          3D

 22 23  0  0  0  0  0  0  0  0999 V2000
   59.7970   26.3730   46.4290 C   0  0  0  0  0  0  0  0  0  0  0  0
   58.5350   25.9940   46.6760 C   0  0  0  0  0  0  0  0  0  0  0  0
   58.3610   24.7190   47.1160 N   0  0  0  0  0  0  0  0  0  0  0  0
   57.1360   24.1480   47.1950 C   0  0  0  0  0  0  0  0  0  0  0  0
   57.0180   22.9680   47.6140 O   0  0  0  0  0  0  0  0  0  0  0  0
   56.0430   24.8370   46.7970 N   0  0  0  0  0  0  0  0  0  0  0  0
   56.1330   26.1230   46.3730 C   0  0  0  0  0  0  0  0  0  0  0  0
   55.0750   26.7150   46.0250 O   0  0  0  0  0  0  0  0  0  0  0  0
   57.3850   26.7910   46.3690 C   0  0  0  0  0  0  0  0  0  0  0  0
   57.4100   28.1270   46.1050 C   0  0  0  0  0  0  0  0  0  0  0  0
   56.8090   28.7960   44.9340 C   0  0  0  0  0  0  0  0  0  0  0  0
   57.4900   29.2910   43.8350 C   0  0  0  0  0  0  0  0  0  0  0  0
   56.5520   29.9410   43.0600 C   0  0  0  0  0  0  0  0  0  0  0  0
   55.3480   29.8350   43.7270 C   0  0  0  0  0  0  0  0  0  0  0  0
   55.5130   29.1500   44.8730 N   0  0  0  0  0  0  0  0  0  0  0  0
   60.0051   27.3920   46.0707 H   0  0  0  0  0  0  0  0  0  0  0  0
   60.6244   25.6650   46.5846 H   0  0  0  0  0  0  0  0  0  0  0  0
   57.9272   28.7686   46.8336 H   0  0  0  0  0  0  0  0  0  0  0  0
   58.5642   29.1868   43.6223 H   0  0  0  0  0  0  0  0  0  0  0  0
   56.7288   30.4452   42.0985 H   0  0  0  0  0  0  0  0  0  0  0  0
   54.3928   30.2502   43.3730 H   0  0  0  0  0  0  0  0  0  0  0  0
   54.7740   28.9460   45.5820 H   0  0  0  0  0  0  0  0  0  0  0  0
  1  2  2  0
  2  3  1  0
  3  4  1  0
  4  5  2  0
  4  6  1  0
  6  7  1  0
  7  8  2  0
  7  9  1  0
  9 10  2  3
 10 11  1  0
 11 12  2  0
 12 13  1  0
 13 14  2  0
 14 15  1  0
  9  2  1  0
 15 11  1  0
  1 16  1  0
  1 17  1  0
 10 18  1  0
 12 19  1  0
 13 20  1  0
 14 21  1  0
 15 22  1  0
M  CHG  2   3  -1   6  -1
M  END
>  <UniqueID>  (92) 
88

>  <SMILES>  (92) 
C=c1[n-]c(=O)[n-]c(=O)c1=Cc1ccc[nH]1

>  <Energy>  (92) 
70.13922945254905

>  <Genealogy>  (92) 
C=c1[n-]c(=O)[n-]c(=O)c1=Cc1ccc[nH]1 (protonated)
C=c1[n-]c(=O)[n-]c(=O)c1=Cc1ccc[nH]1 (3D coordinates assigned)
C=c1[n-]c(=O)[n-]c(=O)c1=Cc1ccc[nH]1 (optimized conformer: 70.13922945254905 kcal/mol)

>  <smiles>  (92) 
C=c1[nH]c(=O)[nH]c(=O)c1=Cc1ccc[nH]1

>  <score_type>  (92) 
oracle

>  <origin>  (92) 
adg

>  <m_score__min__energy>  (92) 
-11.300000000000001

>  <m_primary>  (92) 
energy

$$$$
92:0
     RDKit          3D

 39 41  0  0  0  0  0  0  0  0999 V2000
   58.5810   32.4880   49.6860 N   0  0  0  0  0  0  0  0  0  0  0  0
   59.6480   33.6050   48.9110 S   0  0  0  0  0  0  0  0  0  0  0  0
   61.0700   33.1590   49.1100 O   0  0  0  0  0  0  0  0  0  0  0  0
   59.4800   34.9690   49.5180 O   0  0  0  0  0  0  0  0  0  0  0  0
   59.2710   33.6740   47.1930 C   0  0  0  0  0  0  0  0  0  0  0  0
   59.2590   34.9010   46.5170 C   0  0  0  0  0  0  0  0  0  0  0  0
   58.9780   34.9470   45.1490 C   0  0  0  0  0  0  0  0  0  0  0  0
   58.7130   33.7680   44.4480 C   0  0  0  0  0  0  0  0  0  0  0  0
   58.7270   32.5320   45.1130 C   0  0  0  0  0  0  0  0  0  0  0  0
   58.4900   31.2540   44.3540 C   0  0  0  0  0  0  0  0  0  0  0  0
   56.7130   30.8210   44.3370 S   0  0  0  0  0  0  0  0  0  0  0  0
   56.9540   29.1840   45.0210 C   0  0  0  0  0  0  0  0  0  0  0  0
   58.2070   28.7490   45.3150 N   0  0  0  0  0  0  0  0  0  0  0  0
   58.4140   27.5040   45.8160 C   0  0  0  0  0  0  0  0  0  0  0  0
   59.5840   27.1200   46.0790 O   0  0  0  0  0  0  0  0  0  0  0  0
   57.3280   26.6550   46.0380 C   0  0  0  0  0  0  0  0  0  0  0  0
   56.0460   27.1200   45.7380 C   0  0  0  0  0  0  0  0  0  0  0  0
   54.9170   26.2710   45.9510 N   0  0  0  0  0  0  0  0  0  0  0  0
   54.9550   24.5690   45.6330 S   0  0  0  0  0  0  0  0  0  0  0  0
   53.5660   24.0880   45.3160 O   0  0  0  0  0  0  0  0  0  0  0  0
   55.4750   23.8460   46.8420 O   0  0  0  0  0  0  0  0  0  0  0  0
   56.0670   24.2730   44.2610 C   0  0  0  0  0  0  0  0  0  0  0  0
   56.1990   22.8160   43.8530 C   0  0  0  0  0  0  0  0  0  0  0  0
   57.3280   23.5000   44.6110 C   0  0  0  0  0  0  0  0  0  0  0  0
   55.8850   28.3740   45.2370 N   0  0  0  0  0  0  0  0  0  0  0  0
   59.0100   32.4910   46.4870 C   0  0  0  0  0  0  0  0  0  0  0  0
   57.6100   32.7410   49.3950 H   0  0  0  0  0  0  0  0  0  0  0  0
   59.4714   35.8310   47.0648 H   0  0  0  0  0  0  0  0  0  0  0  0
   58.9654   35.9131   44.6232 H   0  0  0  0  0  0  0  0  0  0  0  0
   58.4926   33.8085   43.3711 H   0  0  0  0  0  0  0  0  0  0  0  0
   58.8392   31.3806   43.3186 H   0  0  0  0  0  0  0  0  0  0  0  0
   59.0432   30.4436   44.8512 H   0  0  0  0  0  0  0  0  0  0  0  0
   57.4790   25.6424   46.4403 H   0  0  0  0  0  0  0  0  0  0  0  0
   55.8533   25.2150   43.7347 H   0  0  0  0  0  0  0  0  0  0  0  0
   55.5886   22.0480   44.3506 H   0  0  0  0  0  0  0  0  0  0  0  0
   56.1213   22.2635   42.9050 H   0  0  0  0  0  0  0  0  0  0  0  0
   57.5335   23.2267   45.6565 H   0  0  0  0  0  0  0  0  0  0  0  0
   58.4043   23.6471   44.4382 H   0  0  0  0  0  0  0  0  0  0  0  0
   59.0272   31.5251   47.0131 H   0  0  0  0  0  0  0  0  0  0  0  0
  1  2  1  0
  2  3  2  0
  2  4  2  0
  2  5  1  0
  5  6  2  0
  6  7  1  0
  7  8  2  0
  8  9  1  0
  9 10  1  0
 10 11  1  0
 11 12  1  0
 12 13  2  0
 13 14  1  0
 14 15  2  0
 14 16  1  0
 16 17  2  0
 17 18  1  0
 18 19  1  0
 19 20  2  0
 19 21  2  0
 19 22  1  0
 22 23  1  0
 23 24  1  0
 17 25  1  0
  9 26  2  0
 26  5  1  0
 25 12  1  0
 24 22  1  0
  1 27  1  0
  6 28  1  0
  7 29  1  0
  8 30  1  0
 10 31  1  0
 10 32  1  0
 16 33  1  0
 22 34  1  0
 23 35  1  0
 23 36  1  0
 24 37  1  0
 24 38  1  0
 26 39  1  0
M  CHG  3   1  -1  18  -1  25  -1
M  END
>  <UniqueID>  (93) 
89

>  <SMILES>  (93) 
[NH-]S(=O)(=O)c1cccc(CSc2nc(=O)cc([N-]S(=O)(=O)C3CC3)[n-]2)c1

>  <Energy>  (93) 
298.72440705487503

>  <Genealogy>  (93) 
[NH-]S(=O)(=O)c1cccc(CSc2nc(=O)cc([N-]S(=O)(=O)C3CC3)[n-]2)c1 (protonated)
[NH-]S(=O)(=O)c1cccc(CSc2nc(=O)cc([N-]S(=O)(=O)C3CC3)[n-]2)c1 (3D coordinates assigned)
[NH-]S(=O)(=O)c1cccc(CSc2nc(=O)cc([N-]S(=O)(=O)C3CC3)[n-]2)c1 (nonaromatic ring conformer: 298.72440705487503 kcal/mol)

>  <smiles>  (93) 
NS(=O)(=O)c1cccc(CSc2nc(=O)cc(NS(=O)(=O)C3CC3)[nH]2)c1

>  <score_type>  (93) 
oracle

>  <origin>  (93) 
adg

>  <m_score__min__energy>  (93) 
-13.85

>  <m_primary>  (93) 
energy

$$$$
93:0
     RDKit          3D

 59 63  0  0  0  0  0  0  0  0999 V2000
   57.1708   26.4285   45.2924 H   0  0  0  0  0  0  0  0  0  0  0  0
   57.8150   27.3140   45.3970 C   0  0  0  0  0  0  0  0  0  0  0  0
   57.7270   28.2850   44.4780 C   0  0  0  0  0  0  0  0  0  0  0  0
   57.9252   28.0395   43.4242 H   0  0  0  0  0  0  0  0  0  0  0  0
   57.3740   29.6690   44.8320 C   0  0  0  0  0  0  0  0  0  0  0  0
   56.2030   30.2500   44.4860 N   0  0  0  0  0  0  0  0  0  0  0  0
   56.2170   31.5240   44.8670 N   0  0  0  0  0  0  0  0  0  0  0  0
   57.4090   31.7550   45.4410 C   0  0  0  0  0  0  0  0  0  0  0  0
   57.8900   32.9660   45.9260 C   0  0  0  0  0  0  0  0  0  0  0  0
   57.2581   33.8662   45.9407 H   0  0  0  0  0  0  0  0  0  0  0  0
   59.2200   32.9970   46.3990 C   0  0  0  0  0  0  0  0  0  0  0  0
   59.9520   34.5400   46.9480 S   0  0  0  0  0  0  0  0  0  0  0  0
   61.4460   33.7260   47.5400 C   0  0  0  0  0  0  0  0  0  0  0  0
   62.6040   33.8500   46.7550 C   0  0  0  0  0  0  0  0  0  0  0  0
   62.5913   34.4973   45.8657 H   0  0  0  0  0  0  0  0  0  0  0  0
   63.7660   33.1640   47.0890 C   0  0  0  0  0  0  0  0  0  0  0  0
   64.6692   33.2783   46.4716 H   0  0  0  0  0  0  0  0  0  0  0  0
   63.7860   32.3310   48.2070 C   0  0  0  0  0  0  0  0  0  0  0  0
   64.7012   31.7756   48.4597 H   0  0  0  0  0  0  0  0  0  0  0  0
   62.6510   32.1990   49.0060 C   0  0  0  0  0  0  0  0  0  0  0  0
   62.6745   31.5321   49.8804 H   0  0  0  0  0  0  0  0  0  0  0  0
   61.4730   32.9130   48.7030 C   0  0  0  0  0  0  0  0  0  0  0  0
   60.3080   32.7640   49.6080 C   0  0  0  0  0  0  0  0  0  0  0  0
   59.8270   33.7910   50.1570 O   0  0  0  0  0  0  0  0  0  0  0  0
   59.6620   31.4910   49.7830 N   0  0  0  0  0  0  0  0  0  0  0  0
   59.8520   30.7520   49.0680 H   0  0  0  0  0  0  0  0  0  0  0  0
   58.5930   31.2570   50.7170 C   0  0  0  0  0  0  0  0  0  0  0  0
   58.4390   29.9800   51.2840 C   0  0  0  0  0  0  0  0  0  0  0  0
   59.1498   29.1800   51.0295 H   0  0  0  0  0  0  0  0  0  0  0  0
   57.3900   29.7200   52.1680 C   0  0  0  0  0  0  0  0  0  0  0  0
   57.2683   28.7104   52.5874 H   0  0  0  0  0  0  0  0  0  0  0  0
   56.4930   30.7310   52.5250 C   0  0  0  0  0  0  0  0  0  0  0  0
   55.4000   30.4070   53.3940 N   0  0  0  0  0  0  0  0  0  0  0  0
   53.7920   30.0220   52.8810 S   0  0  0  0  0  0  0  0  0  0  0  0
   53.6470   30.2430   51.3970 O   0  0  0  0  0  0  0  0  0  0  0  0
   52.8040   30.8680   53.6200 O   0  0  0  0  0  0  0  0  0  0  0  0
   53.4770   28.3090   53.2320 C   0  0  0  0  0  0  0  0  0  0  0  0
   53.4490   28.1570   54.3211 H   0  0  0  0  0  0  0  0  0  0  0  0
   52.5101   28.0172   52.7961 H   0  0  0  0  0  0  0  0  0  0  0  0
   54.2768   27.6923   52.7961 H   0  0  0  0  0  0  0  0  0  0  0  0
   56.6800   32.0270   52.0080 C   0  0  0  0  0  0  0  0  0  0  0  0
   56.0044   32.8407   52.3104 H   0  0  0  0  0  0  0  0  0  0  0  0
   57.7210   32.2830   51.1120 C   0  0  0  0  0  0  0  0  0  0  0  0
   57.8584   33.2986   50.7124 H   0  0  0  0  0  0  0  0  0  0  0  0
   60.0040   31.8190   46.4020 C   0  0  0  0  0  0  0  0  0  0  0  0
   61.0291   31.8478   46.7999 H   0  0  0  0  0  0  0  0  0  0  0  0
   59.4860   30.6140   45.9020 C   0  0  0  0  0  0  0  0  0  0  0  0
   60.0934   29.6971   45.8814 H   0  0  0  0  0  0  0  0  0  0  0  0
   58.1750   30.6220   45.4330 C   0  0  0  0  0  0  0  0  0  0  0  0
   58.7380   27.3840   46.5400 C   0  0  0  0  0  0  0  0  0  0  0  0
   58.4700   28.2670   47.5440 N   0  0  0  0  0  0  0  0  0  0  0  0
   59.2860   28.4080   48.6200 C   0  0  0  0  0  0  0  0  0  0  0  0
   59.0289   29.1228   49.4156 H   0  0  0  0  0  0  0  0  0  0  0  0
   60.4490   27.6470   48.7160 C   0  0  0  0  0  0  0  0  0  0  0  0
   61.1141   27.7551   49.5855 H   0  0  0  0  0  0  0  0  0  0  0  0
   60.7610   26.7460   47.6970 C   0  0  0  0  0  0  0  0  0  0  0  0
   61.6775   26.1408   47.7593 H   0  0  0  0  0  0  0  0  0  0  0  0
   59.9110   26.6130   46.6000 C   0  0  0  0  0  0  0  0  0  0  0  0
   60.1563   25.9112   45.7893 H   0  0  0  0  0  0  0  0  0  0  0  0
  1  2  1  0
  2  3  2  0
  3  4  1  0
  3  5  1  0
  5  6  1  0
  6  7  1  0
  7  8  2  0
  8  9  1  0
  9 10  1  0
  9 11  2  0
 11 12  1  0
 12 13  1  0
 13 14  2  0
 14 15  1  0
 14 16  1  0
 16 17  1  0
 16 18  2  0
 18 19  1  0
 18 20  1  0
 20 21  1  0
 20 22  2  0
 22 23  1  0
 23 24  2  0
 23 25  1  0
 25 26  1  0
 25 27  1  0
 27 28  2  0
 28 29  1  0
 28 30  1  0
 30 31  1  0
 30 32  2  0
 32 33  1  0
 33 34  1  0
 34 35  2  0
 34 36  2  0
 34 37  1  0
 37 38  1  0
 37 39  1  0
 37 40  1  0
 32 41  1  0
 41 42  1  0
 41 43  2  0
 43 44  1  0
 11 45  1  0
 45 46  1  0
 45 47  2  0
 47 48  1  0
 47 49  1  0
  2 50  1  0
 50 51  2  0
 51 52  1  0
 52 53  1  0
 52 54  2  0
 54 55  1  0
 54 56  1  0
 56 57  1  0
 56 58  2  0
 58 59  1  0
 49  5  2  0
 58 50  1  0
 49  8  1  0
 22 13  1  0
 43 27  1  0
M  CHG  2   6  -1  33  -1
M  END
>  <UniqueID>  (94) 
90

>  <SMILES>  (94) 
CS(=O)(=O)[N-]c1ccc(NC(=O)c2ccccc2Sc2ccc3c(/C=C/c4ccccn4)[n-]nc3c2)cc1

>  <Energy>  (94) 
112.91443473419474

>  <Genealogy>  (94) 
CS(=O)(=O)[N-]c1ccc(NC(=O)c2ccccc2Sc2ccc3c(C=Cc4ccccn4)[n-]nc3c2)cc1 (protonated)
CS(=O)(=O)[N-]c1ccc(NC(=O)c2ccccc2Sc2ccc3c(/C=C/c4ccccn4)[n-]nc3c2)cc1 (cis-trans isomerization)
CS(=O)(=O)[N-]c1ccc(NC(=O)c2ccccc2Sc2ccc3c(/C=C/c4ccccn4)[n-]nc3c2)cc1 (3D coordinates assigned)
CS(=O)(=O)[N-]c1ccc(NC(=O)c2ccccc2Sc2ccc3c(/C=C/c4ccccn4)[n-]nc3c2)cc1 (optimized conformer: 112.91443473419474 kcal/mol)

>  <smiles>  (94) 
CS(=O)(=O)Nc1ccc(NC(=O)c2ccccc2Sc2ccc3c(C=Cc4ccccn4)[nH]nc3c2)cc1

>  <score_type>  (94) 
oracle

>  <origin>  (94) 
adg

>  <m_score__min__energy>  (94) 
-12.98

>  <m_primary>  (94) 
energy

$$$$
94:0
     RDKit          3D

 44 47  0  0  0  0  0  0  0  0999 V2000
   57.5850   22.1520   44.0730 C   0  0  0  0  0  0  0  0  0  0  0  0
   58.4170   22.0080   45.6400 S   0  0  0  0  0  0  0  0  0  0  0  0
   58.1990   20.6420   46.2290 O   0  0  0  0  0  0  0  0  0  0  0  0
   59.8900   22.2100   45.4230 O   0  0  0  0  0  0  0  0  0  0  0  0
   57.8440   23.2260   46.7330 N   0  0  0  0  0  0  0  0  0  0  0  0
   57.3250   24.5100   46.3620 C   0  0  0  0  0  0  0  0  0  0  0  0
   55.9430   24.7770   46.3190 C   0  0  0  0  0  0  0  0  0  0  0  0
   55.4790   26.0450   45.9530 C   0  0  0  0  0  0  0  0  0  0  0  0
   56.3860   27.0570   45.6290 C   0  0  0  0  0  0  0  0  0  0  0  0
   55.9350   28.2880   45.2700 N   0  0  0  0  0  0  0  0  0  0  0  0
   56.7840   29.3000   44.9310 C   0  0  0  0  0  0  0  0  0  0  0  0
   56.3290   30.4730   44.5990 N   0  0  0  0  0  0  0  0  0  0  0  0
   57.1110   31.5610   44.0850 C   0  0  0  0  0  0  0  0  0  0  0  0
   57.0390   31.8300   42.8570 O   0  0  0  0  0  0  0  0  0  0  0  0
   57.9360   32.4150   44.9660 C   0  0  0  0  0  0  0  0  0  0  0  0
   59.3000   31.9210   45.8180 S   0  0  0  0  0  0  0  0  0  0  0  0
   59.6080   33.3900   46.5920 C   0  0  0  0  0  0  0  0  0  0  0  0
   60.7370   33.6530   47.5240 C   0  0  0  0  0  0  0  0  0  0  0  0
   60.4820   33.9700   48.8750 C   0  0  0  0  0  0  0  0  0  0  0  0
   61.5360   34.2170   49.7590 C   0  0  0  0  0  0  0  0  0  0  0  0
   62.8560   34.1540   49.3100 C   0  0  0  0  0  0  0  0  0  0  0  0
   63.1260   33.8410   47.9750 C   0  0  0  0  0  0  0  0  0  0  0  0
   62.0760   33.5920   47.0860 C   0  0  0  0  0  0  0  0  0  0  0  0
   58.6170   34.2920   46.1920 C   0  0  0  0  0  0  0  0  0  0  0  0
   57.6920   33.7440   45.2970 C   0  0  0  0  0  0  0  0  0  0  0  0
   56.6300   34.4760   44.7820 O   0  0  0  0  0  0  0  0  0  0  0  0
   58.1660   29.0860   44.9760 C   0  0  0  0  0  0  0  0  0  0  0  0
   58.6610   27.8320   45.3430 C   0  0  0  0  0  0  0  0  0  0  0  0
   57.7710   26.8010   45.6710 C   0  0  0  0  0  0  0  0  0  0  0  0
   58.2330   25.5280   46.0390 C   0  0  0  0  0  0  0  0  0  0  0  0
   56.5140   22.3374   44.2422 H   0  0  0  0  0  0  0  0  0  0  0  0
   58.0166   22.9888   43.5042 H   0  0  0  0  0  0  0  0  0  0  0  0
   57.7102   21.2188   43.5042 H   0  0  0  0  0  0  0  0  0  0  0  0
   55.2245   23.9843   46.5746 H   0  0  0  0  0  0  0  0  0  0  0  0
   54.3979   26.2456   45.9203 H   0  0  0  0  0  0  0  0  0  0  0  0
   59.4442   34.0232   49.2358 H   0  0  0  0  0  0  0  0  0  0  0  0
   61.3248   34.4615   50.8105 H   0  0  0  0  0  0  0  0  0  0  0  0
   63.6839   34.3507   50.0070 H   0  0  0  0  0  0  0  0  0  0  0  0
   64.1669   33.7904   47.6229 H   0  0  0  0  0  0  0  0  0  0  0  0
   62.2962   33.3466   46.0366 H   0  0  0  0  0  0  0  0  0  0  0  0
   58.5694   35.3321   46.5469 H   0  0  0  0  0  0  0  0  0  0  0  0
   58.8598   29.9015   44.7236 H   0  0  0  0  0  0  0  0  0  0  0  0
   59.7462   27.6548   45.3743 H   0  0  0  0  0  0  0  0  0  0  0  0
   59.3141   25.3278   46.0742 H   0  0  0  0  0  0  0  0  0  0  0  0
  1  2  1  0
  2  3  2  0
  2  4  2  0
  2  5  1  0
  5  6  1  0
  6  7  2  0
  7  8  1  0
  8  9  2  0
  9 10  1  0
 10 11  1  0
 11 12  2  3
 12 13  1  0
 13 14  2  0
 13 15  1  0
 15 16  1  0
 16 17  1  0
 17 18  1  0
 18 19  2  0
 19 20  1  0
 20 21  2  0
 21 22  1  0
 22 23  2  0
 17 24  2  0
 24 25  1  0
 25 26  1  0
 11 27  1  0
 27 28  2  0
 28 29  1  0
 29 30  2  0
 30  6  1  0
 29  9  1  0
 25 15  2  0
 23 18  1  0
  1 31  1  0
  1 32  1  0
  1 33  1  0
  7 34  1  0
  8 35  1  0
 19 36  1  0
 20 37  1  0
 21 38  1  0
 22 39  1  0
 23 40  1  0
 24 41  1  0
 27 42  1  0
 28 43  1  0
 30 44  1  0
M  CHG  3   5  -1  10  -1  26  -1
M  END
>  <UniqueID>  (95) 
91

>  <SMILES>  (95) 
CS(=O)(=O)[N-]c1ccc2[n-]c(=NC(=O)c3sc(-c4ccccc4)cc3[O-])ccc2c1

>  <Energy>  (95) 
86.16748549429529

>  <Genealogy>  (95) 
CS(=O)(=O)[N-]c1ccc2[n-]c(=NC(=O)c3sc(-c4ccccc4)cc3[O-])ccc2c1 (protonated)
CS(=O)(=O)[N-]c1ccc2[n-]c(=NC(=O)c3sc(-c4ccccc4)cc3[O-])ccc2c1 (3D coordinates assigned)
CS(=O)(=O)[N-]c1ccc2[n-]c(=NC(=O)c3sc(-c4ccccc4)cc3[O-])ccc2c1 (optimized conformer: 86.16748549429529 kcal/mol)

>  <smiles>  (95) 
CS(=O)(=O)Nc1ccc2[nH]c(=NC(=O)c3sc(-c4ccccc4)cc3O)ccc2c1

>  <score_type>  (95) 
oracle

>  <origin>  (95) 
adg

>  <m_score__min__energy>  (95) 
-13.359999999999999

>  <m_primary>  (95) 
energy

$$$$
95:0
     RDKit          3D

 37 38  0  0  0  0  0  0  0  0999 V2000
   55.7880   29.0060   44.8770 N   0  0  0  0  0  0  0  0  0  0  0  0
   55.1900   29.7150   43.7500 C   0  0  0  0  0  0  0  0  0  0  0  0
   56.2580   30.4890   42.9710 C   0  0  0  0  0  0  0  0  0  0  0  0
   57.5430   30.4650   43.6690 N   0  0  0  0  0  0  0  0  0  0  0  0
   57.8410   31.1460   44.8950 C   0  0  0  0  0  0  0  0  0  0  0  0
   57.2220   32.2080   45.1660 O   0  0  0  0  0  0  0  0  0  0  0  0
   58.8540   30.6450   45.8450 C   0  0  0  0  0  0  0  0  0  0  0  0
   59.6240   31.5430   46.5920 C   0  0  0  0  0  0  0  0  0  0  0  0
   60.5640   31.0840   47.4580 N   0  0  0  0  0  0  0  0  0  0  0  0
   60.7940   29.7570   47.6290 C   0  0  0  0  0  0  0  0  0  0  0  0
   60.0580   28.8090   46.8960 C   0  0  0  0  0  0  0  0  0  0  0  0
   60.2600   27.4250   47.0390 O   0  0  0  0  0  0  0  0  0  0  0  0
   59.4000   26.5330   47.7500 C   0  0  0  0  0  0  0  0  0  0  0  0
   58.3210   25.9970   46.8470 C   0  0  0  0  0  0  0  0  0  0  0  0
   58.5820   24.9220   45.9820 C   0  0  0  0  0  0  0  0  0  0  0  0
   57.5770   24.4350   45.1410 C   0  0  0  0  0  0  0  0  0  0  0  0
   56.3090   25.0230   45.1490 C   0  0  0  0  0  0  0  0  0  0  0  0
   56.0450   26.1020   45.9990 C   0  0  0  0  0  0  0  0  0  0  0  0
   54.7850   26.6890   46.0040 O   0  0  0  0  0  0  0  0  0  0  0  0
   57.0480   26.5920   46.8410 C   0  0  0  0  0  0  0  0  0  0  0  0
   59.0850   29.2660   45.9900 C   0  0  0  0  0  0  0  0  0  0  0  0
   58.3300   28.3580   45.2420 O   0  0  0  0  0  0  0  0  0  0  0  0
   56.5390   29.6110   45.2820 H   0  0  0  0  0  0  0  0  0  0  0  0
   56.2630   28.1540   44.5010 H   0  0  0  0  0  0  0  0  0  0  0  0
   54.7096   28.9875   43.0792 H   0  0  0  0  0  0  0  0  0  0  0  0
   54.4457   30.4278   44.1345 H   0  0  0  0  0  0  0  0  0  0  0  0
   56.3803   30.0313   41.9783 H   0  0  0  0  0  0  0  0  0  0  0  0
   55.9316   31.5353   42.8781 H   0  0  0  0  0  0  0  0  0  0  0  0
   59.4673   32.6257   46.4774 H   0  0  0  0  0  0  0  0  0  0  0  0
   61.5596   29.4218   48.3442 H   0  0  0  0  0  0  0  0  0  0  0  0
   59.9942   25.6933   48.1397 H   0  0  0  0  0  0  0  0  0  0  0  0
   58.9268   27.0835   48.5765 H   0  0  0  0  0  0  0  0  0  0  0  0
   59.5808   24.4614   45.9661 H   0  0  0  0  0  0  0  0  0  0  0  0
   57.7846   23.5872   44.4715 H   0  0  0  0  0  0  0  0  0  0  0  0
   55.5193   24.6375   44.4873 H   0  0  0  0  0  0  0  0  0  0  0  0
   56.8397   27.4467   47.5014 H   0  0  0  0  0  0  0  0  0  0  0  0
   57.8360   28.6290   44.4000 H   0  0  0  0  0  0  0  0  0  0  0  0
  1  2  1  0
  2  3  1  0
  3  4  1  0
  4  5  1  0
  5  6  2  0
  5  7  1  0
  7  8  2  0
  8  9  1  0
  9 10  2  0
 10 11  1  0
 11 12  1  0
 12 13  1  0
 13 14  1  0
 14 15  2  0
 15 16  1  0
 16 17  2  0
 17 18  1  0
 18 19  1  0
 18 20  2  0
 11 21  2  0
 21 22  1  0
 21  7  1  0
 20 14  1  0
  1 23  1  0
  1 24  1  0
  2 25  1  0
  2 26  1  0
  3 27  1  0
  3 28  1  0
  8 29  1  0
 10 30  1  0
 13 31  1  0
 13 32  1  0
 15 33  1  0
 16 34  1  0
 17 35  1  0
 20 36  1  0
 22 37  1  0
M  CHG  2   4  -1  19  -1
M  END
>  <UniqueID>  (96) 
92

>  <SMILES>  (96) 
NCC[N-]C(=O)c1cncc(OCc2cccc([O-])c2)c1O

>  <Energy>  (96) 
39.47690981006358

>  <Genealogy>  (96) 
NCC[N-]C(=O)c1cncc(OCc2cccc([O-])c2)c1O (protonated)
NCC[N-]C(=O)c1cncc(OCc2cccc([O-])c2)c1O (3D coordinates assigned)
NCC[N-]C(=O)c1cncc(OCc2cccc([O-])c2)c1O (optimized conformer: 39.47690981006358 kcal/mol)

>  <smiles>  (96) 
NCCNC(=O)c1cncc(OCc2cccc(O)c2)c1O

>  <score_type>  (96) 
oracle

>  <origin>  (96) 
adg

>  <m_score__min__energy>  (96) 
-11.460000000000001

>  <m_primary>  (96) 
energy

$$$$
