0:0
     RDKit          3D

 46 48  0  0  0  0  0  0  0  0999 V2000
   59.1290   22.5820   44.9010 C   0  0  0  0  0  0  0  0  0  0  0  0
   59.1270   23.6690   45.8200 O   0  0  0  0  0  0  0  0  0  0  0  0
   58.2240   24.7330   45.7290 C   0  0  0  0  0  0  0  0  0  0  0  0
   57.0550   24.5350   45.2950 O   0  0  0  0  0  0  0  0  0  0  0  0
   58.6430   26.0920   46.1380 C   0  0  0  0  0  0  0  0  0  0  0  0
   60.0010   26.3950   46.3380 C   0  0  0  0  0  0  0  0  0  0  0  0
   60.3910   27.6800   46.7300 C   0  0  0  0  0  0  0  0  0  0  0  0
   59.4330   28.6870   46.9220 C   0  0  0  0  0  0  0  0  0  0  0  0
   59.8280   30.0030   47.3520 N   0  0  0  0  0  0  0  0  0  0  0  0
   60.5390   30.8930   46.6280 C   0  0  0  0  0  0  0  0  0  0  0  0
   60.6520   32.0800   47.3310 C   0  0  0  0  0  0  0  0  0  0  0  0
   61.2740   33.3330   46.8730 C   0  0  0  0  0  0  0  0  0  0  0  0
   62.4850   33.3150   46.5240 O   0  0  0  0  0  0  0  0  0  0  0  0
   60.5790   34.5900   46.8780 N   0  0  0  0  0  0  0  0  0  0  0  0
   59.4590   34.9770   46.0190 C   0  0  0  0  0  0  0  0  0  0  0  0
   58.7390   33.7710   45.4690 C   0  0  0  0  0  0  0  0  0  0  0  0
   58.7770   33.4900   44.0920 C   0  0  0  0  0  0  0  0  0  0  0  0
   58.1530   32.3460   43.5870 C   0  0  0  0  0  0  0  0  0  0  0  0
   57.4600   31.4840   44.4470 C   0  0  0  0  0  0  0  0  0  0  0  0
   56.6980   30.0260   43.8200 S   0  0  0  0  0  0  0  0  0  0  0  0
   55.3680   29.5890   44.8330 N   0  0  0  0  0  0  0  0  0  0  0  0
   56.2070   30.2740   42.4200 O   0  0  0  0  0  0  0  0  0  0  0  0
   57.6910   28.9000   43.7900 O   0  0  0  0  0  0  0  0  0  0  0  0
   57.3960   31.7750   45.8160 C   0  0  0  0  0  0  0  0  0  0  0  0
   58.0230   32.9170   46.3230 C   0  0  0  0  0  0  0  0  0  0  0  0
   60.0260   31.8950   48.5500 C   0  0  0  0  0  0  0  0  0  0  0  0
   59.5260   30.6120   48.5180 C   0  0  0  0  0  0  0  0  0  0  0  0
   58.8220   30.0150   49.5580 O   0  0  0  0  0  0  0  0  0  0  0  0
   58.0760   28.3830   46.7300 C   0  0  0  0  0  0  0  0  0  0  0  0
   57.6850   27.1000   46.3380 C   0  0  0  0  0  0  0  0  0  0  0  0
   59.1308   21.6324   45.4563 H   0  0  0  0  0  0  0  0  0  0  0  0
   58.2308   22.6351   44.2683 H   0  0  0  0  0  0  0  0  0  0  0  0
   60.0270   22.6384   44.2683 H   0  0  0  0  0  0  0  0  0  0  0  0
   60.7625   25.6161   46.1852 H   0  0  0  0  0  0  0  0  0  0  0  0
   61.4565   27.9026   46.8889 H   0  0  0  0  0  0  0  0  0  0  0  0
   60.9639   30.7038   45.6312 H   0  0  0  0  0  0  0  0  0  0  0  0
   58.7500   35.5790   46.6063 H   0  0  0  0  0  0  0  0  0  0  0  0
   59.8581   35.5552   45.1726 H   0  0  0  0  0  0  0  0  0  0  0  0
   59.3007   34.1743   43.4083 H   0  0  0  0  0  0  0  0  0  0  0  0
   58.2061   32.1217   42.5114 H   0  0  0  0  0  0  0  0  0  0  0  0
   55.1500   28.5860   44.6350 H   0  0  0  0  0  0  0  0  0  0  0  0
   56.8505   31.1025   46.4943 H   0  0  0  0  0  0  0  0  0  0  0  0
   57.9551   33.1477   47.3964 H   0  0  0  0  0  0  0  0  0  0  0  0
   59.9444   32.6205   49.3728 H   0  0  0  0  0  0  0  0  0  0  0  0
   57.3146   29.1608   46.8894 H   0  0  0  0  0  0  0  0  0  0  0  0
   56.6187   26.8775   46.1848 H   0  0  0  0  0  0  0  0  0  0  0  0
  1  2  1  0
  2  3  1  0
  3  4  2  0
  3  5  1  0
  5  6  2  0
  6  7  1  0
  7  8  2  0
  8  9  1  0
  9 10  1  0
 10 11  2  0
 11 12  1  0
 12 13  2  0
 12 14  1  0
 14 15  1  0
 15 16  1  0
 16 17  2  0
 17 18  1  0
 18 19  2  0
 19 20  1  0
 20 21  1  0
 20 22  2  0
 20 23  2  0
 19 24  1  0
 24 25  2  0
 11 26  1  0
 26 27  2  0
 27 28  1  0
  8 29  1  0
 29 30  2  0
 30  5  1  0
 27  9  1  0
 25 16  1  0
  1 31  1  0
  1 32  1  0
  1 33  1  0
  6 34  1  0
  7 35  1  0
 10 36  1  0
 15 37  1  0
 15 38  1  0
 17 39  1  0
 18 40  1  0
 21 41  1  0
 24 42  1  0
 25 43  1  0
 26 44  1  0
 29 45  1  0
 30 46  1  0
M  CHG  3  14  -1  21  -1  28  -1
M  END
>  <UniqueID>  (1) 
1

>  <SMILES>  (1) 
COC(=O)c1ccc(-n2cc(C(=O)[N-]Cc3ccc(S([NH-])(=O)=O)cc3)cc2[O-])cc1

>  <Energy>  (1) 
78.88513764873574

>  <Genealogy>  (1) 
COC(=O)c1ccc(-n2cc(C(=O)[N-]Cc3ccc(S([NH-])(=O)=O)cc3)cc2[O-])cc1 (protonated)
COC(=O)c1ccc(-n2cc(C(=O)[N-]Cc3ccc(S([NH-])(=O)=O)cc3)cc2[O-])cc1 (3D coordinates assigned)
COC(=O)c1ccc(-n2cc(C(=O)[N-]Cc3ccc(S([NH-])(=O)=O)cc3)cc2[O-])cc1 (optimized conformer: 78.88513764873574 kcal/mol)

>  <smiles>  (1) 
COC(=O)c1ccc(-n2cc(C(=O)NCc3ccc(S(N)(=O)=O)cc3)cc2O)cc1

>  <score_type>  (1) 
oracle

>  <origin>  (1) 
adg

>  <m_score__min__energy>  (1) 
-12.92

>  <m_primary>  (1) 
energy

$$$$
1:0
     RDKit          3D

 37 39  0  0  0  0  0  0  0  0999 V2000
   53.2010   24.2220   44.8100 H   0  0  0  0  0  0  0  0  0  0  0  0
   53.6800   23.3510   44.4900 N   0  0  0  0  0  0  0  0  0  0  0  0
   54.9680   23.2900   44.3650 C   0  0  0  0  0  0  0  0  0  0  0  0
   55.5240   22.2490   43.6840 N   0  0  0  0  0  0  0  0  0  0  0  0
   56.8690   22.1200   43.5350 C   0  0  0  0  0  0  0  0  0  0  0  0
   57.2809   21.2630   42.9819 H   0  0  0  0  0  0  0  0  0  0  0  0
   57.7260   23.0720   44.0820 C   0  0  0  0  0  0  0  0  0  0  0  0
   58.8150   22.9730   43.9623 H   0  0  0  0  0  0  0  0  0  0  0  0
   57.1900   24.1520   44.7830 C   0  0  0  0  0  0  0  0  0  0  0  0
   57.8600   24.9108   45.2134 H   0  0  0  0  0  0  0  0  0  0  0  0
   55.7990   24.2770   44.9430 C   0  0  0  0  0  0  0  0  0  0  0  0
   55.2410   25.4350   45.6890 C   0  0  0  0  0  0  0  0  0  0  0  0
   54.0070   25.6800   45.6230 O   0  0  0  0  0  0  0  0  0  0  0  0
   56.0780   26.3280   46.4370 N   0  0  0  0  0  0  0  0  0  0  0  0
   57.0120   27.2710   45.8910 C   0  0  0  0  0  0  0  0  0  0  0  0
   56.5170   28.4080   45.2530 C   0  0  0  0  0  0  0  0  0  0  0  0
   55.4304   28.5643   45.1833 H   0  0  0  0  0  0  0  0  0  0  0  0
   57.3910   29.3530   44.7000 C   0  0  0  0  0  0  0  0  0  0  0  0
   56.8650   30.5560   44.0110 C   0  0  0  0  0  0  0  0  0  0  0  0
   56.6880   30.5350   42.7620 O   0  0  0  0  0  0  0  0  0  0  0  0
   56.5620   31.7400   44.7690 N   0  0  0  0  0  0  0  0  0  0  0  0
   57.4010   32.6750   45.1050 C   0  0  0  0  0  0  0  0  0  0  0  0
   58.1030   33.4240   44.2270 N   0  0  0  0  0  0  0  0  0  0  0  0
   58.9010   34.3200   44.8660 C   0  0  0  0  0  0  0  0  0  0  0  0
   59.5518   35.0219   44.3239 H   0  0  0  0  0  0  0  0  0  0  0  0
   58.8350   34.2850   46.2550 C   0  0  0  0  0  0  0  0  0  0  0  0
   59.4010   34.9281   46.9449 H   0  0  0  0  0  0  0  0  0  0  0  0
   57.7380   33.0870   46.6960 S   0  0  0  0  0  0  0  0  0  0  0  0
   58.7730   29.1320   44.8140 C   0  0  0  0  0  0  0  0  0  0  0  0
   59.4754   29.8595   44.3811 H   0  0  0  0  0  0  0  0  0  0  0  0
   59.2590   28.0260   45.4550 N   0  0  0  0  0  0  0  0  0  0  0  0
   60.7110   27.8510   45.5870 C   0  0  0  0  0  0  0  0  0  0  0  0
   60.9810   27.8185   46.6529 H   0  0  0  0  0  0  0  0  0  0  0  0
   61.0124   26.9100   45.1035 H   0  0  0  0  0  0  0  0  0  0  0  0
   61.2273   28.6934   45.1035 H   0  0  0  0  0  0  0  0  0  0  0  0
   58.4050   27.1120   46.0190 C   0  0  0  0  0  0  0  0  0  0  0  0
   58.8670   26.1390   46.6770 O   0  0  0  0  0  0  0  0  0  0  0  0
  1  2  1  0
  2  3  2  0
  3  4  1  0
  4  5  1  0
  5  6  1  0
  5  7  2  0
  7  8  1  0
  7  9  1  0
  9 10  1  0
  9 11  2  0
 11 12  1  0
 12 13  2  0
 12 14  1  0
 14 15  1  0
 15 16  2  0
 16 17  1  0
 16 18  1  0
 18 19  1  0
 19 20  2  0
 19 21  1  0
 21 22  2  3
 22 23  1  0
 23 24  1  0
 24 25  1  0
 24 26  2  0
 26 27  1  0
 26 28  1  0
 18 29  2  0
 29 30  1  0
 29 31  1  0
 31 32  1  0
 32 33  1  0
 32 34  1  0
 32 35  1  0
 31 36  1  0
 36 37  2  0
 11  3  1  0
 36 15  1  0
 28 22  1  0
M  CHG  3   4  -1  14  -1  23  -1
M  END
>  <UniqueID>  (2) 
2

>  <SMILES>  (2) 
[H]/N=c1\[n-]cccc1C(=O)[N-]c1cc(C(=O)N=c2[n-]ccs2)cn(C)c1=O

>  <Energy>  (2) 
85.72784581248476

>  <Genealogy>  (2) 
Cn1cc(C(=O)N=c2[n-]ccs2)cc([N-]C(=O)c2ccc[n-]c2=N)c1=O (protonated)
[H]/N=c1\[n-]cccc1C(=O)[N-]c1cc(C(=O)N=c2[n-]ccs2)cn(C)c1=O (cis-trans isomerization)
[H]/N=c1\[n-]cccc1C(=O)[N-]c1cc(C(=O)N=c2[n-]ccs2)cn(C)c1=O (3D coordinates assigned)
[H]/N=c1\[n-]cccc1C(=O)[N-]c1cc(C(=O)N=c2[n-]ccs2)cn(C)c1=O (optimized conformer: 85.72784581248476 kcal/mol)

>  <smiles>  (2) 
Cn1cc(C(=O)N=c2[nH]ccs2)cc(NC(=O)c2ccc[nH]c2=N)c1=O

>  <score_type>  (2) 
oracle

>  <origin>  (2) 
adg

>  <m_score__min__energy>  (2) 
-12.84

>  <m_primary>  (2) 
energy

$$$$
2:0
     RDKit          3D

 55 58  0  0  1  0  0  0  0  0999 V2000
   52.8990   24.0620   44.8730 C   0  0  0  0  0  0  0  0  0  0  0  0
   53.6970   24.5280   45.9640 O   0  0  0  0  0  0  0  0  0  0  0  0
   55.0160   24.8400   45.6170 C   0  0  0  0  0  0  0  0  0  0  0  0
   55.5190   26.0210   45.9060 N   0  0  0  0  0  0  0  0  0  0  0  0
   56.8160   26.4100   45.5970 C   0  0  0  0  0  0  0  0  0  0  0  0
   57.1720   27.6230   45.9500 O   0  0  0  0  0  0  0  0  0  0  0  0
   57.3880   28.8760   45.5670 C   0  0  0  0  0  0  0  0  0  0  0  0
   56.6900   29.5980   44.6210 C   0  0  0  0  0  0  0  0  0  0  0  0
   56.9830   30.9000   44.2850 C   0  0  0  0  0  0  0  0  0  0  0  0
   58.0290   31.5040   44.9340 C   0  0  0  0  0  0  0  0  0  0  0  0
   58.7960   30.8510   45.9110 C   0  0  0  0  0  0  0  0  0  0  0  0
   59.8480   31.5830   46.5100 N   0  0  0  0  0  0  0  0  0  0  0  0
   61.0090   31.0950   47.1160 C   0  0  0  0  0  0  0  0  0  0  0  0
   61.1580   29.8280   47.1460 O   0  0  0  0  0  0  0  0  0  0  0  0
   62.0760   31.8620   47.7230 C   0  0  0  0  0  0  0  0  0  0  0  0
   62.5960   32.9620   47.0490 C   0  0  0  0  0  0  0  0  0  0  0  0
   63.6130   33.7410   47.5530 C   0  0  0  0  0  0  0  0  0  0  0  0
   64.1760   33.4550   48.7780 C   0  0  0  0  0  0  0  0  0  0  0  0
   63.6760   32.3730   49.4570 C   0  0  0  0  0  0  0  0  0  0  0  0
   62.6510   31.5920   48.9460 C   0  0  0  0  0  0  0  0  0  0  0  0
   62.2470   30.5640   49.7090 F   0  0  0  0  0  0  0  0  0  0  0  0
   58.4470   29.5680   46.1880 C   0  0  0  0  0  0  0  0  0  0  0  0
   57.5380   25.4280   44.9490 C   0  0  0  0  0  0  0  0  0  0  0  0
   57.0180   24.1830   44.6400 C   0  0  0  0  0  0  0  0  0  0  0  0
   57.7100   23.2700   44.0310 N   0  0  0  0  0  0  0  0  0  0  0  0
   57.1050   22.0090   43.6710 C   0  0  0  0  0  0  0  0  0  0  0  0
   56.2660   21.9960   42.7040 O   0  0  0  0  0  0  0  0  0  0  0  0
   57.4280   20.8090   44.3710 N   0  0  0  0  0  0  0  0  0  0  0  0
   57.1420   20.5560   45.5820 C   0  0  0  0  0  0  0  0  0  0  0  0
   58.1100   20.1160   46.4280 N   0  0  0  0  0  0  0  0  0  0  0  0
   57.8210   19.8420   47.7190 C   0  0  0  0  0  0  0  0  0  0  0  0
   56.5330   20.0120   48.1870 C   0  0  0  0  0  0  0  0  0  0  0  0
   55.5450   20.4640   47.3140 C   0  0  0  0  0  0  0  0  0  0  0  0
   55.8380   20.7430   45.9950 C   0  0  0  0  0  0  0  0  0  0  0  0
   54.8760   21.1930   45.1120 O   0  0  0  0  0  0  0  0  0  0  0  0
   55.7590   23.9290   44.9890 N   0  0  0  0  0  0  0  0  0  0  0  0
   52.0110   23.5434   45.2635 H   0  0  0  0  0  0  0  0  0  0  0  0
   52.5831   24.9176   44.2581 H   0  0  0  0  0  0  0  0  0  0  0  0
   53.4889   23.3664   44.2581 H   0  0  0  0  0  0  0  0  0  0  0  0
   55.8520   29.1052   44.1063 H   0  0  0  0  0  0  0  0  0  0  0  0
   56.3990   31.4369   43.5230 H   0  0  0  0  0  0  0  0  0  0  0  0
   58.2774   32.5445   44.6779 H   0  0  0  0  0  0  0  0  0  0  0  0
   59.7360   32.6390   46.4950 H   0  0  0  0  0  0  0  0  0  0  0  0
   62.1746   33.2218   46.0667 H   0  0  0  0  0  0  0  0  0  0  0  0
   63.9799   34.6002   46.9723 H   0  0  0  0  0  0  0  0  0  0  0  0
   64.9903   34.0673   49.1929 H   0  0  0  0  0  0  0  0  0  0  0  0
   64.1020   32.1169   50.4383 H   0  0  0  0  0  0  0  0  0  0  0  0
   59.0316   29.0318   46.9500 H   0  0  0  0  0  0  0  0  0  0  0  0
   58.5779   25.6456   44.6641 H   0  0  0  0  0  0  0  0  0  0  0  0
   59.0680   20.0050   46.0210 H   0  0  0  0  0  0  0  0  0  0  0  0
   58.6104   19.4841   48.3962 H   0  0  0  0  0  0  0  0  0  0  0  0
   56.2895   19.7931   49.2371 H   0  0  0  0  0  0  0  0  0  0  0  0
   54.5173   20.6002   47.6818 H   0  0  0  0  0  0  0  0  0  0  0  0
   55.1480   21.2210   44.1200 H   0  0  0  0  0  0  0  0  0  0  0  0
   55.3710   22.9930   44.7570 H   0  0  0  0  0  0  0  0  0  0  0  0
  1  2  1  0
  2  3  1  0
  3  4  2  0
  4  5  1  0
  5  6  1  0
  6  7  1  0
  7  8  2  0
  8  9  1  0
  9 10  2  0
 10 11  1  0
 11 12  1  0
 12 13  1  0
 13 14  2  0
 13 15  1  0
 15 16  2  0
 16 17  1  0
 17 18  2  0
 18 19  1  0
 19 20  2  0
 20 21  1  0
 11 22  2  0
  5 23  2  0
 23 24  1  0
 24 25  2  0
 25 26  1  0
 26 27  2  0
 26 28  1  0
 28 29  2  0
 29 30  1  0
 30 31  1  0
 31 32  2  0
 32 33  1  0
 33 34  2  0
 34 35  1  0
 24 36  1  0
 36  3  1  0
 22  7  1  0
 34 29  1  0
 20 15  1  0
  1 37  1  0
  1 38  1  0
  1 39  1  0
  8 40  1  0
  9 41  1  0
 10 42  1  0
 12 43  1  0
 16 44  1  0
 17 45  1  0
 18 46  1  0
 19 47  1  0
 22 48  1  0
 23 49  1  0
 30 50  1  0
 31 51  1  0
 32 52  1  0
 33 53  1  0
 35 54  1  0
 36 55  1  0
M  END
>  <smiles>  (3) 
COc1nc(Oc2cccc(NC(=O)c3ccccc3F)c2)cc(=NC(=O)N=c2[nH]cccc2O)[nH]1

>  <score_type>  (3) 
oracle

>  <origin>  (3) 
adg

>  <m_score__min__energy>  (3) 
-9.8200000000000003

>  <m_primary>  (3) 
energy

$$$$
3:0
     RDKit          3D

 58 60  0  0  0  0  0  0  0  0999 V2000
   57.2419   33.6295   47.3504 H   0  0  0  0  0  0  0  0  0  0  0  0
   58.0730   33.4370   46.6560 C   0  0  0  0  0  0  0  0  0  0  0  0
   58.9670   34.5690   46.3270 C   0  0  0  0  0  0  0  0  0  0  0  0
   58.9330   35.0880   45.1800 O   0  0  0  0  0  0  0  0  0  0  0  0
   59.9660   35.0150   47.2520 N   0  0  0  0  0  0  0  0  0  0  0  0
   61.0740   34.2510   47.7470 C   0  0  0  0  0  0  0  0  0  0  0  0
   61.8990   33.5880   46.8300 C   0  0  0  0  0  0  0  0  0  0  0  0
   61.6689   33.6334   45.7553 H   0  0  0  0  0  0  0  0  0  0  0  0
   63.0130   32.8690   47.2720 C   0  0  0  0  0  0  0  0  0  0  0  0
   63.6492   32.3465   46.5425 H   0  0  0  0  0  0  0  0  0  0  0  0
   63.3260   32.8080   48.6340 C   0  0  0  0  0  0  0  0  0  0  0  0
   64.4500   32.0650   49.0260 O   0  0  0  0  0  0  0  0  0  0  0  0
   65.3030   32.4120   50.1120 C   0  0  0  0  0  0  0  0  0  0  0  0
   64.7900   32.2033   51.0624 H   0  0  0  0  0  0  0  0  0  0  0  0
   66.2274   31.8184   50.0563 H   0  0  0  0  0  0  0  0  0  0  0  0
   65.5506   33.4823   50.0563 H   0  0  0  0  0  0  0  0  0  0  0  0
   62.5120   33.4930   49.5560 C   0  0  0  0  0  0  0  0  0  0  0  0
   62.7502   33.4563   50.6293 H   0  0  0  0  0  0  0  0  0  0  0  0
   61.4020   34.2200   49.1140 C   0  0  0  0  0  0  0  0  0  0  0  0
   60.7832   34.7697   49.8385 H   0  0  0  0  0  0  0  0  0  0  0  0
   58.2010   32.1930   46.1700 C   0  0  0  0  0  0  0  0  0  0  0  0
   58.6232   31.4265   46.8366 H   0  0  0  0  0  0  0  0  0  0  0  0
   57.8160   31.7760   44.8030 C   0  0  0  0  0  0  0  0  0  0  0  0
   58.0030   32.6500   43.7160 C   0  0  0  0  0  0  0  0  0  0  0  0
   58.4643   33.6351   43.8798 H   0  0  0  0  0  0  0  0  0  0  0  0
   57.6070   32.2750   42.4320 C   0  0  0  0  0  0  0  0  0  0  0  0
   57.7686   32.9592   41.5860 H   0  0  0  0  0  0  0  0  0  0  0  0
   57.0070   31.0350   42.2190 C   0  0  0  0  0  0  0  0  0  0  0  0
   56.7030   30.7391   41.2041 H   0  0  0  0  0  0  0  0  0  0  0  0
   56.7910   30.1670   43.2930 C   0  0  0  0  0  0  0  0  0  0  0  0
   56.3105   29.1927   43.1200 H   0  0  0  0  0  0  0  0  0  0  0  0
   57.1850   30.5320   44.5970 C   0  0  0  0  0  0  0  0  0  0  0  0
   56.9750   29.6850   45.6980 O   0  0  0  0  0  0  0  0  0  0  0  0
   57.5560   28.3920   45.8400 C   0  0  0  0  0  0  0  0  0  0  0  0
   56.7864   27.6789   46.1705 H   0  0  0  0  0  0  0  0  0  0  0  0
   57.9669   28.0674   44.8726 H   0  0  0  0  0  0  0  0  0  0  0  0
   58.6530   28.4450   46.8530 C   0  0  0  0  0  0  0  0  0  0  0  0
   59.4120   27.4480   46.9980 O   0  0  0  0  0  0  0  0  0  0  0  0
   58.8440   29.6280   47.6400 N   0  0  0  0  0  0  0  0  0  0  0  0
   58.1430   30.4010   47.5620 H   0  0  0  0  0  0  0  0  0  0  0  0
   60.0190   29.8460   48.4870 C   0  0  0  0  0  0  0  0  0  0  0  0
   60.5668   28.8985   48.5975 H   0  0  0  0  0  0  0  0  0  0  0  0
   60.6631   30.6027   48.0152 H   0  0  0  0  0  0  0  0  0  0  0  0
   59.5960   30.3470   49.8680 C   0  0  0  0  0  0  0  0  0  0  0  0
   59.0335   29.5518   50.3790 H   0  0  0  0  0  0  0  0  0  0  0  0
   60.5038   30.6108   50.4304 H   0  0  0  0  0  0  0  0  0  0  0  0
   58.5420   31.8390   49.7520 S   0  0  0  0  0  0  0  0  0  0  0  0
   59.1480   32.5920   51.2660 C   0  0  0  0  0  0  0  0  0  0  0  0
   60.3890   32.2080   51.7900 C   0  0  0  0  0  0  0  0  0  0  0  0
   60.9968   31.4549   51.2672 H   0  0  0  0  0  0  0  0  0  0  0  0
   60.8560   32.7810   52.9770 C   0  0  0  0  0  0  0  0  0  0  0  0
   61.8324   32.4812   53.3854 H   0  0  0  0  0  0  0  0  0  0  0  0
   60.0820   33.7350   53.6450 C   0  0  0  0  0  0  0  0  0  0  0  0
   60.4520   34.1891   54.5761 H   0  0  0  0  0  0  0  0  0  0  0  0
   58.8380   34.1120   53.1300 C   0  0  0  0  0  0  0  0  0  0  0  0
   58.2278   34.8594   53.6583 H   0  0  0  0  0  0  0  0  0  0  0  0
   58.3690   33.5390   51.9430 C   0  0  0  0  0  0  0  0  0  0  0  0
   57.3879   33.8323   51.5411 H   0  0  0  0  0  0  0  0  0  0  0  0
  1  2  1  0
  2  3  1  0
  3  4  2  0
  3  5  1  0
  5  6  1  0
  6  7  2  0
  7  8  1  0
  7  9  1  0
  9 10  1  0
  9 11  2  0
 11 12  1  0
 12 13  1  0
 13 14  1  0
 13 15  1  0
 13 16  1  0
 11 17  1  0
 17 18  1  0
 17 19  2  0
 19 20  1  0
  2 21  2  0
 21 22  1  0
 21 23  1  0
 23 24  2  0
 24 25  1  0
 24 26  1  0
 26 27  1  0
 26 28  2  0
 28 29  1  0
 28 30  1  0
 30 31  1  0
 30 32  2  0
 32 33  1  0
 33 34  1  0
 34 35  1  0
 34 36  1  0
 34 37  1  0
 37 38  2  0
 37 39  1  0
 39 40  1  0
 39 41  1  0
 41 42  1  0
 41 43  1  0
 41 44  1  0
 44 45  1  0
 44 46  1  0
 44 47  1  0
 47 48  1  0
 48 49  2  0
 49 50  1  0
 49 51  1  0
 51 52  1  0
 51 53  2  0
 53 54  1  0
 53 55  1  0
 55 56  1  0
 55 57  2  0
 57 58  1  0
 19  6  1  0
 32 23  1  0
 57 48  1  0
M  CHG  1   5  -1
M  END
>  <UniqueID>  (4) 
3

>  <SMILES>  (4) 
COc1ccc([N-]C(=O)/C=C\c2ccccc2OCC(=O)NCCSc2ccccc2)cc1

>  <Energy>  (4) 
63.21832141051108

>  <Genealogy>  (4) 
COc1ccc([N-]C(=O)C=Cc2ccccc2OCC(=O)NCCSc2ccccc2)cc1 (protonated)
COc1ccc([N-]C(=O)/C=C\c2ccccc2OCC(=O)NCCSc2ccccc2)cc1 (cis-trans isomerization)
COc1ccc([N-]C(=O)/C=C\c2ccccc2OCC(=O)NCCSc2ccccc2)cc1 (3D coordinates assigned)
COc1ccc([N-]C(=O)/C=C\c2ccccc2OCC(=O)NCCSc2ccccc2)cc1 (optimized conformer: 63.21832141051108 kcal/mol)

>  <smiles>  (4) 
COc1ccc(NC(=O)C=Cc2ccccc2OCC(=O)NCCSc2ccccc2)cc1

>  <score_type>  (4) 
oracle

>  <origin>  (4) 
adg

>  <m_score__min__energy>  (4) 
-10.68

>  <m_primary>  (4) 
energy

$$$$
4:0
     RDKit          3D

 19 20  0  0  0  0  0  0  0  0999 V2000
   53.5190   29.6620   53.6760 N   0  0  0  0  0  0  0  0  0  0  0  0
   52.8530   30.1920   52.6850 C   0  0  0  0  0  0  0  0  0  0  0  0
   52.2460   31.3970   52.8630 N   0  0  0  0  0  0  0  0  0  0  0  0
   51.5560   31.9530   51.8510 C   0  0  0  0  0  0  0  0  0  0  0  0
   51.0020   33.0680   52.0390 O   0  0  0  0  0  0  0  0  0  0  0  0
   51.4720   31.2860   50.6270 C   0  0  0  0  0  0  0  0  0  0  0  0
   52.1000   30.0700   50.4860 C   0  0  0  0  0  0  0  0  0  0  0  0
   52.7830   29.5330   51.5130 N   0  0  0  0  0  0  0  0  0  0  0  0
   52.0190   29.4740   49.3760 N   0  0  0  0  0  0  0  0  0  0  0  0
   51.3260   29.9270   48.1950 C   0  0  0  0  0  0  0  0  0  0  0  0
   50.6450   31.2390   48.3430 C   0  0  0  0  0  0  0  0  0  0  0  0
   50.8240   31.7940   49.6530 N   0  0  0  0  0  0  0  0  0  0  0  0
   53.1120   29.7910   54.6410 H   0  0  0  0  0  0  0  0  0  0  0  0
   52.2990   31.9050   53.7690 H   0  0  0  0  0  0  0  0  0  0  0  0
   53.2340   28.6100   51.3370 H   0  0  0  0  0  0  0  0  0  0  0  0
   52.0582   30.0106   47.3783 H   0  0  0  0  0  0  0  0  0  0  0  0
   50.5373   29.1872   47.9931 H   0  0  0  0  0  0  0  0  0  0  0  0
   51.0581   31.9388   47.6016 H   0  0  0  0  0  0  0  0  0  0  0  0
   49.5677   31.0816   48.1857 H   0  0  0  0  0  0  0  0  0  0  0  0
  1  2  2  3
  2  3  1  0
  3  4  1  0
  4  5  2  0
  4  6  1  0
  6  7  1  0
  7  8  1  0
  7  9  2  0
  9 10  1  0
 10 11  1  0
 11 12  1  0
  8  2  1  0
 12  6  2  0
  1 13  1  0
  3 14  1  0
  8 15  1  0
 10 16  1  0
 10 17  1  0
 11 18  1  0
 11 19  1  0
M  END
>  <smiles>  (5) 
N=c1[nH]c(=O)c2c([nH]1)=NCCN=2

>  <score_type>  (5) 
oracle

>  <origin>  (5) 
adg

>  <m_score__min__energy>  (5) 
-4.9800000000000004

>  <m_primary>  (5) 
energy

$$$$
5:0
     RDKit          3D

 27 28  0  0  0  0  0  0  0  0999 V2000
   55.5000   23.3520   43.5940 C   0  0  0  0  0  0  0  0  0  0  0  0
   55.6580   24.1460   44.6550 C   0  0  0  0  0  0  0  0  0  0  0  0
   54.4820   24.5560   45.4970 C   0  0  0  0  0  0  0  0  0  0  0  0
   54.6080   25.9480   45.9270 N   0  0  0  0  0  0  0  0  0  0  0  0
   55.7320   26.5940   46.0160 C   0  0  0  0  0  0  0  0  0  0  0  0
   55.8960   27.8020   45.4110 N   0  0  0  0  0  0  0  0  0  0  0  0
   57.0640   28.4950   45.4940 C   0  0  0  0  0  0  0  0  0  0  0  0
   57.1940   29.8100   44.8220 C   0  0  0  0  0  0  0  0  0  0  0  0
   57.0490   29.9280   43.4280 C   0  0  0  0  0  0  0  0  0  0  0  0
   57.1760   31.1820   42.8270 C   0  0  0  0  0  0  0  0  0  0  0  0
   57.4460   32.3050   43.6090 C   0  0  0  0  0  0  0  0  0  0  0  0
   57.5840   32.1570   44.9900 C   0  0  0  0  0  0  0  0  0  0  0  0
   57.4560   30.9280   45.5580 N   0  0  0  0  0  0  0  0  0  0  0  0
   58.1280   27.9420   46.2240 C   0  0  0  0  0  0  0  0  0  0  0  0
   57.9470   26.7020   46.8380 C   0  0  0  0  0  0  0  0  0  0  0  0
   58.8820   26.1810   47.5000 O   0  0  0  0  0  0  0  0  0  0  0  0
   56.7580   26.0540   46.7240 N   0  0  0  0  0  0  0  0  0  0  0  0
   56.3719   23.0621   42.9893 H   0  0  0  0  0  0  0  0  0  0  0  0
   54.4978   22.9874   43.3243 H   0  0  0  0  0  0  0  0  0  0  0  0
   56.6638   24.5058   44.9173 H   0  0  0  0  0  0  0  0  0  0  0  0
   53.5602   24.4432   44.9075 H   0  0  0  0  0  0  0  0  0  0  0  0
   54.4481   23.9141   46.3897 H   0  0  0  0  0  0  0  0  0  0  0  0
   56.8371   29.0390   42.8157 H   0  0  0  0  0  0  0  0  0  0  0  0
   57.0632   31.2842   41.7376 H   0  0  0  0  0  0  0  0  0  0  0  0
   57.5490   33.2959   43.1427 H   0  0  0  0  0  0  0  0  0  0  0  0
   57.7962   33.0342   45.6188 H   0  0  0  0  0  0  0  0  0  0  0  0
   59.0859   28.4758   46.3103 H   0  0  0  0  0  0  0  0  0  0  0  0
  1  2  2  0
  2  3  1  0
  3  4  1  0
  4  5  2  3
  5  6  1  0
  6  7  1  0
  7  8  1  0
  8  9  2  0
  9 10  1  0
 10 11  2  0
 11 12  1  0
 12 13  2  0
  7 14  2  0
 14 15  1  0
 15 16  2  0
 15 17  1  0
 17  5  1  0
 13  8  1  0
  1 18  1  0
  1 19  1  0
  2 20  1  0
  3 21  1  0
  3 22  1  0
  9 23  1  0
 10 24  1  0
 11 25  1  0
 12 26  1  0
 14 27  1  0
M  CHG  2   6  -1  17  -1
M  END
>  <UniqueID>  (6) 
4

>  <SMILES>  (6) 
C=CCN=c1[n-]c(-c2ccccn2)cc(=O)[n-]1

>  <Energy>  (6) 
27.08060029230877

>  <Genealogy>  (6) 
C=CCN=c1[n-]c(-c2ccccn2)cc(=O)[n-]1 (protonated)
C=CCN=c1[n-]c(-c2ccccn2)cc(=O)[n-]1 (3D coordinates assigned)
C=CCN=c1[n-]c(-c2ccccn2)cc(=O)[n-]1 (optimized conformer: 27.08060029230877 kcal/mol)

>  <smiles>  (6) 
C=CCN=c1[nH]c(-c2ccccn2)cc(=O)[nH]1

>  <score_type>  (6) 
oracle

>  <origin>  (6) 
adg

>  <m_score__min__energy>  (6) 
-10.880000000000001

>  <m_primary>  (6) 
energy

$$$$
6:0
     RDKit          3D

 46 48  0  0  0  0  0  0  0  0999 V2000
   55.1090   26.1710   46.0080 N   0  0  0  0  0  0  0  0  0  0  0  0
   56.8360   26.2230   46.0030 S   0  0  0  0  0  0  0  0  0  0  0  0
   57.3450   25.7820   47.3470 O   0  0  0  0  0  0  0  0  0  0  0  0
   57.3670   25.2900   44.9520 O   0  0  0  0  0  0  0  0  0  0  0  0
   57.3730   27.8630   45.6550 C   0  0  0  0  0  0  0  0  0  0  0  0
   56.6260   28.6680   44.7840 C   0  0  0  0  0  0  0  0  0  0  0  0
   57.0320   29.9780   44.5100 C   0  0  0  0  0  0  0  0  0  0  0  0
   58.2060   30.4940   45.0930 C   0  0  0  0  0  0  0  0  0  0  0  0
   58.6500   31.8390   44.8630 N   0  0  0  0  0  0  0  0  0  0  0  0
   58.0520   32.8120   43.9960 C   0  0  0  0  0  0  0  0  0  0  0  0
   58.2630   32.7840   42.7520 O   0  0  0  0  0  0  0  0  0  0  0  0
   57.2150   33.9130   44.5780 C   0  0  0  0  0  0  0  0  0  0  0  0
   57.8450   34.4370   45.8100 N   0  0  0  0  0  0  0  0  0  0  0  0
   59.2890   34.6860   45.6000 C   0  0  0  0  0  0  0  0  0  0  0  0
   60.0080   34.9730   46.9210 C   0  0  0  0  0  0  0  0  0  0  0  0
   59.8330   33.8480   47.8500 N   0  0  0  0  0  0  0  0  0  0  0  0
   60.7720   33.6440   48.9310 C   0  0  0  0  0  0  0  0  0  0  0  0
   60.3300   33.6350   50.2670 C   0  0  0  0  0  0  0  0  0  0  0  0
   61.2390   33.4400   51.3120 C   0  0  0  0  0  0  0  0  0  0  0  0
   62.5960   33.2540   51.0360 C   0  0  0  0  0  0  0  0  0  0  0  0
   63.0490   33.2640   49.7140 C   0  0  0  0  0  0  0  0  0  0  0  0
   64.7540   33.0360   49.3700 Cl  0  0  0  0  0  0  0  0  0  0  0  0
   62.1430   33.4570   48.6650 C   0  0  0  0  0  0  0  0  0  0  0  0
   58.7490   32.8890   47.6050 C   0  0  0  0  0  0  0  0  0  0  0  0
   57.5300   33.6080   47.0090 C   0  0  0  0  0  0  0  0  0  0  0  0
   58.9360   29.6920   45.9820 C   0  0  0  0  0  0  0  0  0  0  0  0
   58.5280   28.3850   46.2590 C   0  0  0  0  0  0  0  0  0  0  0  0
   54.7750   27.0870   46.3860 H   0  0  0  0  0  0  0  0  0  0  0  0
   55.7159   28.2674   44.3136 H   0  0  0  0  0  0  0  0  0  0  0  0
   56.4322   30.6079   43.8366 H   0  0  0  0  0  0  0  0  0  0  0  0
   57.1223   34.7262   43.8431 H   0  0  0  0  0  0  0  0  0  0  0  0
   56.2198   33.5150   44.8251 H   0  0  0  0  0  0  0  0  0  0  0  0
   59.7404   33.7982   45.1331 H   0  0  0  0  0  0  0  0  0  0  0  0
   59.3959   35.5676   44.9508 H   0  0  0  0  0  0  0  0  0  0  0  0
   61.0806   35.1197   46.7262 H   0  0  0  0  0  0  0  0  0  0  0  0
   59.5802   35.8804   47.3722 H   0  0  0  0  0  0  0  0  0  0  0  0
   59.2631   33.7822   50.4908 H   0  0  0  0  0  0  0  0  0  0  0  0
   60.8848   33.4331   52.3534 H   0  0  0  0  0  0  0  0  0  0  0  0
   63.3083   33.0996   51.8599 H   0  0  0  0  0  0  0  0  0  0  0  0
   62.5036   33.4628   47.6258 H   0  0  0  0  0  0  0  0  0  0  0  0
   59.0971   32.1192   46.9006 H   0  0  0  0  0  0  0  0  0  0  0  0
   58.4601   32.4224   48.5583 H   0  0  0  0  0  0  0  0  0  0  0  0
   56.7872   32.8497   46.7205 H   0  0  0  0  0  0  0  0  0  0  0  0
   57.1540   34.2941   47.7822 H   0  0  0  0  0  0  0  0  0  0  0  0
   59.8378   30.0956   46.4655 H   0  0  0  0  0  0  0  0  0  0  0  0
   59.1133   27.7630   46.9523 H   0  0  0  0  0  0  0  0  0  0  0  0
  1  2  1  0
  2  3  2  0
  2  4  2  0
  2  5  1  0
  5  6  2  0
  6  7  1  0
  7  8  2  0
  8  9  1  0
  9 10  1  0
 10 11  2  0
 10 12  1  0
 12 13  1  0
 13 14  1  0
 14 15  1  0
 15 16  1  0
 16 17  1  0
 17 18  2  0
 18 19  1  0
 19 20  2  0
 20 21  1  0
 21 22  1  0
 21 23  2  0
 16 24  1  0
 24 25  1  0
  8 26  1  0
 26 27  2  0
 27  5  1  0
 25 13  1  0
 23 17  1  0
  1 28  1  0
  6 29  1  0
  7 30  1  0
 12 31  1  0
 12 32  1  0
 14 33  1  0
 14 34  1  0
 15 35  1  0
 15 36  1  0
 18 37  1  0
 19 38  1  0
 20 39  1  0
 23 40  1  0
 24 41  1  0
 24 42  1  0
 25 43  1  0
 25 44  1  0
 26 45  1  0
 27 46  1  0
M  CHG  2   1  -1   9  -1
M  END
>  <UniqueID>  (7) 
5

>  <SMILES>  (7) 
[NH-]S(=O)(=O)c1ccc([N-]C(=O)CN2CCN(c3cccc(Cl)c3)CC2)cc1

>  <Energy>  (7) 
61.36087007954099

>  <Genealogy>  (7) 
[NH-]S(=O)(=O)c1ccc([N-]C(=O)CN2CCN(c3cccc(Cl)c3)CC2)cc1 (protonated)
[NH-]S(=O)(=O)c1ccc([N-]C(=O)CN2CCN(c3cccc(Cl)c3)CC2)cc1 (3D coordinates assigned)
[NH-]S(=O)(=O)c1ccc([N-]C(=O)CN2CCN(c3cccc(Cl)c3)CC2)cc1 (nonaromatic ring conformer: 61.36087007954099 kcal/mol)

>  <smiles>  (7) 
NS(=O)(=O)c1ccc(NC(=O)CN2CCN(c3cccc(Cl)c3)CC2)cc1

>  <score_type>  (7) 
oracle

>  <origin>  (7) 
adg

>  <m_score__min__energy>  (7) 
-12.25

>  <m_primary>  (7) 
energy

$$$$
7:0
     RDKit          3D

 49 51  0  0  0  0  0  0  0  0999 V2000
   54.2198   30.4062   55.0615 H   0  0  0  0  0  0  0  0  0  0  0  0
   54.1300   29.7780   54.1630 C   0  0  0  0  0  0  0  0  0  0  0  0
   55.3590   29.2140   53.5680 C   0  0  0  0  0  0  0  0  0  0  0  0
   55.4230   27.9660   53.4020 O   0  0  0  0  0  0  0  0  0  0  0  0
   56.5170   30.0460   53.1670 C   0  0  0  0  0  0  0  0  0  0  0  0
   57.6930   30.0000   53.9290 C   0  0  0  0  0  0  0  0  0  0  0  0
   57.7459   29.3457   54.8117 H   0  0  0  0  0  0  0  0  0  0  0  0
   58.7990   30.7790   53.5760 C   0  0  0  0  0  0  0  0  0  0  0  0
   59.7090   30.7498   54.1933 H   0  0  0  0  0  0  0  0  0  0  0  0
   58.7530   31.5990   52.4360 C   0  0  0  0  0  0  0  0  0  0  0  0
   59.8280   32.4140   52.0540 O   0  0  0  0  0  0  0  0  0  0  0  0
   59.9970   32.9990   50.7910 C   0  0  0  0  0  0  0  0  0  0  0  0
   59.6880   34.2080   50.6030 O   0  0  0  0  0  0  0  0  0  0  0  0
   60.5720   32.2260   49.7210 N   0  0  0  0  0  0  0  0  0  0  0  0
   60.6620   30.7710   49.8670 C   0  0  0  0  0  0  0  0  0  0  0  0
   60.6781   30.5100   50.9355 H   0  0  0  0  0  0  0  0  0  0  0  0
   59.7913   30.2998   49.3876 H   0  0  0  0  0  0  0  0  0  0  0  0
   61.5841   30.4107   49.3876 H   0  0  0  0  0  0  0  0  0  0  0  0
   61.1400   32.8800   48.5330 C   0  0  0  0  0  0  0  0  0  0  0  0
   61.7188   33.7617   48.8453 H   0  0  0  0  0  0  0  0  0  0  0  0
   61.7945   32.1678   48.0093 H   0  0  0  0  0  0  0  0  0  0  0  0
   60.0390   33.3120   47.6020 C   0  0  0  0  0  0  0  0  0  0  0  0
   60.2840   34.2910   46.6240 C   0  0  0  0  0  0  0  0  0  0  0  0
   61.2897   34.7249   46.5229 H   0  0  0  0  0  0  0  0  0  0  0  0
   59.2530   34.7160   45.7780 C   0  0  0  0  0  0  0  0  0  0  0  0
   59.4510   35.4786   45.0104 H   0  0  0  0  0  0  0  0  0  0  0  0
   57.9720   34.1720   45.9080 C   0  0  0  0  0  0  0  0  0  0  0  0
   57.1627   34.5058   45.2420 H   0  0  0  0  0  0  0  0  0  0  0  0
   57.7190   33.2040   46.8840 C   0  0  0  0  0  0  0  0  0  0  0  0
   56.7104   32.7767   46.9849 H   0  0  0  0  0  0  0  0  0  0  0  0
   58.7450   32.7780   47.7320 C   0  0  0  0  0  0  0  0  0  0  0  0
   58.5393   32.0220   48.5041 H   0  0  0  0  0  0  0  0  0  0  0  0
   57.5810   31.6420   51.6720 C   0  0  0  0  0  0  0  0  0  0  0  0
   57.5301   32.2968   50.7896 H   0  0  0  0  0  0  0  0  0  0  0  0
   56.4740   30.8610   52.0190 C   0  0  0  0  0  0  0  0  0  0  0  0
   55.3450   30.8890   51.2070 O   0  0  0  0  0  0  0  0  0  0  0  0
   52.9080   29.5560   53.6530 C   0  0  0  0  0  0  0  0  0  0  0  0
   52.2930   28.7654   54.1076 H   0  0  0  0  0  0  0  0  0  0  0  0
   52.3390   30.3140   52.5130 C   0  0  0  0  0  0  0  0  0  0  0  0
   52.3630   29.8290   51.1890 C   0  0  0  0  0  0  0  0  0  0  0  0
   52.8187   28.8515   50.9725 H   0  0  0  0  0  0  0  0  0  0  0  0
   51.8100   30.5850   50.1490 C   0  0  0  0  0  0  0  0  0  0  0  0
   51.8419   30.2040   49.1176 H   0  0  0  0  0  0  0  0  0  0  0  0
   51.2180   31.8210   50.4160 C   0  0  0  0  0  0  0  0  0  0  0  0
   50.6640   32.5610   49.3780 O   0  0  0  0  0  0  0  0  0  0  0  0
   51.1780   32.3070   51.7270 C   0  0  0  0  0  0  0  0  0  0  0  0
   50.5900   33.5380   51.9990 O   0  0  0  0  0  0  0  0  0  0  0  0
   51.7310   31.5550   52.7690 C   0  0  0  0  0  0  0  0  0  0  0  0
   51.6895   31.9388   53.7990 H   0  0  0  0  0  0  0  0  0  0  0  0
  1  2  1  0
  2  3  1  0
  3  4  2  0
  3  5  1  0
  5  6  2  0
  6  7  1  0
  6  8  1  0
  8  9  1  0
  8 10  2  0
 10 11  1  0
 11 12  1  0
 12 13  2  0
 12 14  1  0
 14 15  1  0
 15 16  1  0
 15 17  1  0
 15 18  1  0
 14 19  1  0
 19 20  1  0
 19 21  1  0
 19 22  1  0
 22 23  2  0
 23 24  1  0
 23 25  1  0
 25 26  1  0
 25 27  2  0
 27 28  1  0
 27 29  1  0
 29 30  1  0
 29 31  2  0
 31 32  1  0
 10 33  1  0
 33 34  1  0
 33 35  2  0
 35 36  1  0
  2 37  2  0
 37 38  1  0
 37 39  1  0
 39 40  2  0
 40 41  1  0
 40 42  1  0
 42 43  1  0
 42 44  2  0
 44 45  1  0
 44 46  1  0
 46 47  1  0
 46 48  2  0
 48 49  1  0
 35  5  1  0
 48 39  1  0
 31 22  1  0
M  CHG  3  36  -1  45  -1  47  -1
M  END
>  <UniqueID>  (8) 
6

>  <SMILES>  (8) 
CN(Cc1ccccc1)C(=O)Oc1ccc(C(=O)/C=C/c2ccc([O-])c([O-])c2)c([O-])c1

>  <Energy>  (8) 
61.95650961016279

>  <Genealogy>  (8) 
CN(Cc1ccccc1)C(=O)Oc1ccc(C(=O)C=Cc2ccc([O-])c([O-])c2)c([O-])c1 (protonated)
CN(Cc1ccccc1)C(=O)Oc1ccc(C(=O)/C=C/c2ccc([O-])c([O-])c2)c([O-])c1 (cis-trans isomerization)
CN(Cc1ccccc1)C(=O)Oc1ccc(C(=O)/C=C/c2ccc([O-])c([O-])c2)c([O-])c1 (3D coordinates assigned)
CN(Cc1ccccc1)C(=O)Oc1ccc(C(=O)/C=C/c2ccc([O-])c([O-])c2)c([O-])c1 (optimized conformer: 61.95650961016279 kcal/mol)

>  <smiles>  (8) 
CN(Cc1ccccc1)C(=O)Oc1ccc(C(=O)C=Cc2ccc(O)c(O)c2)c(O)c1

>  <score_type>  (8) 
oracle

>  <origin>  (8) 
adg

>  <m_score__min__energy>  (8) 
-18.379999999999999

>  <m_primary>  (8) 
energy

$$$$
8:0
     RDKit          3D

 46 48  0  0  0  0  0  0  0  0999 V2000
   60.5960   31.1920   47.7080 C   0  0  0  0  0  0  0  0  0  0  0  0
   61.1570   30.0410   47.3290 C   0  0  0  0  0  0  0  0  0  0  0  0
   60.3940   28.7400   47.3500 C   0  0  0  0  0  0  0  0  0  0  0  0
   60.3820   28.0680   46.0240 N   0  0  2  0  0  0  0  0  0  0  0  0
   60.4970   29.0210   44.8850 C   0  0  0  0  0  0  0  0  0  0  0  0
   59.2870   29.9730   44.7730 C   0  0  0  0  0  0  0  0  0  0  0  0
   58.0480   29.2380   45.0040 N   0  0  0  0  0  0  0  0  0  0  0  0
   57.9610   28.0150   45.5400 C   0  0  0  0  0  0  0  0  0  0  0  0
   56.6200   27.6880   45.6620 C   0  0  0  0  0  0  0  0  0  0  0  0
   56.0520   26.4430   46.1990 C   0  0  0  0  0  0  0  0  0  0  0  0
   54.8410   26.1670   45.9830 O   0  0  0  0  0  0  0  0  0  0  0  0
   56.8730   25.5470   46.9520 N   0  0  0  0  0  0  0  0  0  0  0  0
   56.6460   24.1110   47.0390 C   0  0  0  0  0  0  0  0  0  0  0  0
   57.1240   23.4620   45.7720 C   0  0  0  0  0  0  0  0  0  0  0  0
   58.3840   22.9100   45.6160 C   0  0  0  0  0  0  0  0  0  0  0  0
   58.3790   22.2540   44.4010 C   0  0  0  0  0  0  0  0  0  0  0  0
   57.1120   22.4200   43.8700 C   0  0  0  0  0  0  0  0  0  0  0  0
   56.6320   21.7990   42.5900 C   0  0  0  0  0  0  0  0  0  0  0  0
   56.3490   23.1660   44.6990 N   0  0  0  0  0  0  0  0  0  0  0  0
   54.9180   23.4390   44.5400 C   0  0  0  0  0  0  0  0  0  0  0  0
   55.8650   28.7320   45.2460 N   0  0  0  0  0  0  0  0  0  0  0  0
   56.7760   29.6500   44.8560 C   0  0  0  0  0  0  0  0  0  0  0  0
   56.4600   30.7840   44.4070 O   0  0  0  0  0  0  0  0  0  0  0  0
   59.1810   27.2040   45.8800 C   0  0  0  0  0  0  0  0  0  0  0  0
   61.1801   32.1237   47.6808 H   0  0  0  0  0  0  0  0  0  0  0  0
   59.5498   31.2084   48.0474 H   0  0  0  0  0  0  0  0  0  0  0  0
   62.2042   30.0416   46.9923 H   0  0  0  0  0  0  0  0  0  0  0  0
   60.8634   28.0671   48.0827 H   0  0  0  0  0  0  0  0  0  0  0  0
   59.3521   28.9668   47.6202 H   0  0  0  0  0  0  0  0  0  0  0  0
   61.2130   27.4310   45.9830 H   0  0  0  0  0  0  0  0  0  0  0  0
   61.4065   29.6242   45.0227 H   0  0  0  0  0  0  0  0  0  0  0  0
   60.5357   28.4266   43.9602 H   0  0  0  0  0  0  0  0  0  0  0  0
   59.3817   30.7716   45.5235 H   0  0  0  0  0  0  0  0  0  0  0  0
   59.2641   30.4091   43.7634 H   0  0  0  0  0  0  0  0  0  0  0  0
   57.2015   23.7012   47.8954 H   0  0  0  0  0  0  0  0  0  0  0  0
   55.5728   23.9124   47.1759 H   0  0  0  0  0  0  0  0  0  0  0  0
   59.2247   22.9803   46.3219 H   0  0  0  0  0  0  0  0  0  0  0  0
   59.2173   21.7070   43.9449 H   0  0  0  0  0  0  0  0  0  0  0  0
   55.9741   20.9478   42.8196 H   0  0  0  0  0  0  0  0  0  0  0  0
   56.0745   22.5464   42.0064 H   0  0  0  0  0  0  0  0  0  0  0  0
   57.4957   21.4478   42.0064 H   0  0  0  0  0  0  0  0  0  0  0  0
   54.4494   23.5284   45.5312 H   0  0  0  0  0  0  0  0  0  0  0  0
   54.7835   24.3790   43.9847 H   0  0  0  0  0  0  0  0  0  0  0  0
   54.4469   22.6145   43.9847 H   0  0  0  0  0  0  0  0  0  0  0  0
   59.0058   26.6735   46.8275 H   0  0  0  0  0  0  0  0  0  0  0  0
   59.3626   26.4912   45.0622 H   0  0  0  0  0  0  0  0  0  0  0  0
  1  2  2  0
  2  3  1  0
  3  4  1  0
  4  5  1  0
  5  6  1  0
  6  7  1  0
  7  8  1  0
  8  9  2  0
  9 10  1  0
 10 11  2  0
 10 12  1  0
 12 13  1  0
 13 14  1  0
 14 15  2  0
 15 16  1  0
 16 17  2  0
 17 18  1  0
 17 19  1  0
 19 20  1  0
  9 21  1  0
 21 22  1  0
 22 23  2  0
  8 24  1  0
 24  4  1  0
 22  7  1  0
 19 14  1  0
  1 25  1  0
  1 26  1  0
  2 27  1  0
  3 28  1  0
  3 29  1  0
  4 30  1  1
  5 31  1  0
  5 32  1  0
  6 33  1  0
  6 34  1  0
 13 35  1  0
 13 36  1  0
 15 37  1  0
 16 38  1  0
 18 39  1  0
 18 40  1  0
 18 41  1  0
 20 42  1  0
 20 43  1  0
 20 44  1  0
 24 45  1  0
 24 46  1  0
M  CHG  3   4   1  12  -1  21  -1
M  END
>  <UniqueID>  (9) 
7

>  <SMILES>  (9) 
C=CC[N@@H+]1CCn2c(c(C(=O)[N-]Cc3ccc(C)n3C)[n-]c2=O)C1

>  <Energy>  (9) 
105.36163112203512

>  <Genealogy>  (9) 
C=CC[NH+]1CCn2c(c(C(=O)[N-]Cc3ccc(C)n3C)[n-]c2=O)C1 (protonated)
C=CC[N@@H+]1CCn2c(c(C(=O)[N-]Cc3ccc(C)n3C)[n-]c2=O)C1 (chirality)
C=CC[N@@H+]1CCn2c(c(C(=O)[N-]Cc3ccc(C)n3C)[n-]c2=O)C1 (3D coordinates assigned)
C=CC[N@@H+]1CCn2c(c(C(=O)[N-]Cc3ccc(C)n3C)[n-]c2=O)C1 (nonaromatic ring conformer: 105.36163112203512 kcal/mol)

>  <smiles>  (9) 
C=CCN1CCn2c(c(C(=O)NCc3ccc(C)n3C)[nH]c2=O)C1

>  <score_type>  (9) 
oracle

>  <origin>  (9) 
adg

>  <m_score__min__energy>  (9) 
-9.2899999999999991

>  <m_primary>  (9) 
energy

$$$$
9:0
     RDKit          3D

 47 49  0  0  0  0  0  0  0  0999 V2000
   59.9630   28.7580   44.4860 C   0  0  0  0  0  0  0  0  0  0  0  0
   58.5620   29.0350   44.1200 N   0  0  1  0  0  0  0  0  0  0  0  0
   57.7640   27.8030   43.9010 C   0  0  0  0  0  0  0  0  0  0  0  0
   57.8160   26.8000   45.0420 C   0  0  0  0  0  0  0  0  0  0  0  0
   58.9830   26.0460   45.2670 C   0  0  0  0  0  0  0  0  0  0  0  0
   59.0380   25.1190   46.3120 C   0  0  0  0  0  0  0  0  0  0  0  0
   57.9260   24.9210   47.1310 C   0  0  0  0  0  0  0  0  0  0  0  0
   56.7500   25.6380   46.8960 C   0  0  0  0  0  0  0  0  0  0  0  0
   56.6880   26.5650   45.8520 C   0  0  0  0  0  0  0  0  0  0  0  0
   55.5180   27.2080   45.6130 F   0  0  0  0  0  0  0  0  0  0  0  0
   57.9450   29.9330   45.0780 C   0  0  0  0  0  0  0  0  0  0  0  0
   57.1780   29.4740   45.9700 O   0  0  0  0  0  0  0  0  0  0  0  0
   58.2470   31.3910   45.0640 C   0  0  0  0  0  0  0  0  0  0  0  0
   58.6120   32.0970   46.2380 C   0  0  0  0  0  0  0  0  0  0  0  0
   58.7480   31.3880   47.4820 N   0  0  0  0  0  0  0  0  0  0  0  0
   58.8280   33.4600   46.1840 N   0  0  0  0  0  0  0  0  0  0  0  0
   59.2450   34.2090   47.3920 C   0  0  0  0  0  0  0  0  0  0  0  0
   60.7170   34.0220   47.6640 C   0  0  0  0  0  0  0  0  0  0  0  0
   61.2220   34.1350   48.9700 C   0  0  0  0  0  0  0  0  0  0  0  0
   62.5890   33.9670   49.2150 C   0  0  0  0  0  0  0  0  0  0  0  0
   63.4620   33.6960   48.1570 C   0  0  0  0  0  0  0  0  0  0  0  0
   62.9700   33.5950   46.8530 C   0  0  0  0  0  0  0  0  0  0  0  0
   61.6040   33.7620   46.6060 C   0  0  0  0  0  0  0  0  0  0  0  0
   58.7080   34.1200   44.9840 C   0  0  0  0  0  0  0  0  0  0  0  0
   58.9100   35.3610   44.9020 O   0  0  0  0  0  0  0  0  0  0  0  0
   58.3790   33.4450   43.8600 N   0  0  0  0  0  0  0  0  0  0  0  0
   58.1520   32.1130   43.8660 C   0  0  0  0  0  0  0  0  0  0  0  0
   57.8740   31.5370   42.7810 O   0  0  0  0  0  0  0  0  0  0  0  0
   60.0589   28.7390   45.5817 H   0  0  0  0  0  0  0  0  0  0  0  0
   60.2635   27.7830   44.0747 H   0  0  0  0  0  0  0  0  0  0  0  0
   60.6119   29.5452   44.0747 H   0  0  0  0  0  0  0  0  0  0  0  0
   58.5930   29.5150   43.1900 H   0  0  0  0  0  0  0  0  0  0  0  0
   56.7147   28.0969   43.7510 H   0  0  0  0  0  0  0  0  0  0  0  0
   58.2027   27.3007   43.0262 H   0  0  0  0  0  0  0  0  0  0  0  0
   59.8582   26.1872   44.6158 H   0  0  0  0  0  0  0  0  0  0  0  0
   59.9594   24.5448   46.4888 H   0  0  0  0  0  0  0  0  0  0  0  0
   57.9750   24.2009   47.9611 H   0  0  0  0  0  0  0  0  0  0  0  0
   55.8700   25.4723   47.5349 H   0  0  0  0  0  0  0  0  0  0  0  0
   58.3150   30.4530   47.6390 H   0  0  0  0  0  0  0  0  0  0  0  0
   59.2640   31.7950   48.2890 H   0  0  0  0  0  0  0  0  0  0  0  0
   59.0406   35.2791   47.2399 H   0  0  0  0  0  0  0  0  0  0  0  0
   58.6785   33.8266   48.2539 H   0  0  0  0  0  0  0  0  0  0  0  0
   60.5395   34.3566   49.8037 H   0  0  0  0  0  0  0  0  0  0  0  0
   62.9774   34.0482   50.2409 H   0  0  0  0  0  0  0  0  0  0  0  0
   64.5364   33.5623   48.3512 H   0  0  0  0  0  0  0  0  0  0  0  0
   63.6575   33.3841   46.0207 H   0  0  0  0  0  0  0  0  0  0  0  0
   61.2215   33.6894   45.5772 H   0  0  0  0  0  0  0  0  0  0  0  0
  1  2  1  0
  2  3  1  0
  3  4  1  0
  4  5  2  0
  5  6  1  0
  6  7  2  0
  7  8  1  0
  8  9  2  0
  9 10  1  0
  2 11  1  0
 11 12  2  0
 11 13  1  0
 13 14  2  0
 14 15  1  0
 14 16  1  0
 16 17  1  0
 17 18  1  0
 18 19  2  0
 19 20  1  0
 20 21  2  0
 21 22  1  0
 22 23  2  0
 16 24  1  0
 24 25  2  0
 24 26  1  0
 26 27  1  0
 27 28  2  0
  9  4  1  0
 27 13  1  0
 23 18  1  0
  1 29  1  0
  1 30  1  0
  1 31  1  0
  2 32  1  6
  3 33  1  0
  3 34  1  0
  5 35  1  0
  6 36  1  0
  7 37  1  0
  8 38  1  0
 15 39  1  0
 15 40  1  0
 17 41  1  0
 17 42  1  0
 19 43  1  0
 20 44  1  0
 21 45  1  0
 22 46  1  0
 23 47  1  0
M  CHG  2   2   1  26  -1
M  END
>  <UniqueID>  (10) 
8

>  <SMILES>  (10) 
C[N@@H+](Cc1ccccc1F)C(=O)c1c(N)n(Cc2ccccc2)c(=O)[n-]c1=O

>  <Energy>  (10) 
70.99367663368889

>  <Genealogy>  (10) 
C[NH+](Cc1ccccc1F)C(=O)c1c(N)n(Cc2ccccc2)c(=O)[n-]c1=O (protonated)
C[N@@H+](Cc1ccccc1F)C(=O)c1c(N)n(Cc2ccccc2)c(=O)[n-]c1=O (chirality)
C[N@@H+](Cc1ccccc1F)C(=O)c1c(N)n(Cc2ccccc2)c(=O)[n-]c1=O (3D coordinates assigned)
C[N@@H+](Cc1ccccc1F)C(=O)c1c(N)n(Cc2ccccc2)c(=O)[n-]c1=O (optimized conformer: 70.99367663368889 kcal/mol)

>  <smiles>  (10) 
CN(Cc1ccccc1F)C(=O)c1c(N)n(Cc2ccccc2)c(=O)[nH]c1=O

>  <score_type>  (10) 
oracle

>  <origin>  (10) 
adg

>  <m_score__min__energy>  (10) 
-8.3300000000000001

>  <m_primary>  (10) 
energy

$$$$
10:0
     RDKit          3D

 20 20  0  0  0  0  0  0  0  0999 V2000
   56.6940   30.1190   51.3560 H   0  0  0  0  0  0  0  0  0  0  0  0
   57.2910   29.5350   51.9840 N   0  0  0  0  0  0  0  0  0  0  0  0
   56.7370   28.8870   53.1260 C   0  0  0  0  0  0  0  0  0  0  0  0
   57.5050   28.3710   53.9790 O   0  0  0  0  0  0  0  0  0  0  0  0
   55.2710   28.7600   53.2370 C   0  0  0  0  0  0  0  0  0  0  0  0
   54.8652   28.3540   54.1754 H   0  0  0  0  0  0  0  0  0  0  0  0
   54.4200   29.0930   52.3060 N   0  0  0  0  0  0  0  0  0  0  0  0
   54.1700   30.3980   51.7610 C   0  0  0  0  0  0  0  0  0  0  0  0
   54.9910   31.3390   51.9290 O   0  0  0  0  0  0  0  0  0  0  0  0
   52.9960   30.5990   50.8570 C   0  0  0  0  0  0  0  0  0  0  0  0
   53.3022   31.2065   49.9926 H   0  0  0  0  0  0  0  0  0  0  0  0
   52.6325   29.6186   50.5154 H   0  0  0  0  0  0  0  0  0  0  0  0
   51.8960   31.3010   51.5910 C   0  0  0  0  0  0  0  0  0  0  0  0
   51.0390   32.2600   51.0870 C   0  0  0  0  0  0  0  0  0  0  0  0
   51.0200   32.7010   49.7710 O   0  0  0  0  0  0  0  0  0  0  0  0
   50.2100   32.7350   52.0370 N   0  0  0  0  0  0  0  0  0  0  0  0
   50.5630   32.0690   53.1540 C   0  0  0  0  0  0  0  0  0  0  0  0
   49.9510   32.2680   54.3840 O   0  0  0  0  0  0  0  0  0  0  0  0
   51.5980   31.1830   52.9310 C   0  0  0  0  0  0  0  0  0  0  0  0
   52.0817   30.5234   53.6665 H   0  0  0  0  0  0  0  0  0  0  0  0
  1  2  1  0
  2  3  1  0
  3  4  2  0
  3  5  1  0
  5  6  1  0
  5  7  2  0
  7  8  1  0
  8  9  2  0
  8 10  1  0
 10 11  1  0
 10 12  1  0
 10 13  1  0
 13 14  2  0
 14 15  1  0
 14 16  1  0
 16 17  1  0
 17 18  1  0
 17 19  2  0
 19 20  1  0
 19 13  1  0
M  CHG  4   2  -1  15  -1  16  -1  18  -1
M  END
>  <UniqueID>  (11) 
9

>  <SMILES>  (11) 
[NH-]C(=O)/C=N\C(=O)Cc1cc([O-])[n-]c1[O-]

>  <Energy>  (11) 
48.7623976664504

>  <Genealogy>  (11) 
[NH-]C(=O)C=NC(=O)Cc1cc([O-])[n-]c1[O-] (protonated)
[NH-]C(=O)/C=N\C(=O)Cc1cc([O-])[n-]c1[O-] (cis-trans isomerization)
[NH-]C(=O)/C=N\C(=O)Cc1cc([O-])[n-]c1[O-] (3D coordinates assigned)
[NH-]C(=O)/C=N\C(=O)Cc1cc([O-])[n-]c1[O-] (optimized conformer: 48.7623976664504 kcal/mol)

>  <smiles>  (11) 
NC(=O)C=NC(=O)Cc1cc(O)[nH]c1O

>  <score_type>  (11) 
oracle

>  <origin>  (11) 
adg

>  <m_score__min__energy>  (11) 
-16.350000000000001

>  <m_primary>  (11) 
energy

$$$$
11:0
     RDKit          3D

 38 39  0  0  0  0  0  0  0  0999 V2000
   54.5491   29.8432   43.7536 H   0  0  0  0  0  0  0  0  0  0  0  0
   55.5260   29.8780   44.2580 C   0  0  0  0  0  0  0  0  0  0  0  0
   55.9920   28.7790   44.9050 N   0  0  0  0  0  0  0  0  0  0  0  0
   57.1920   28.7780   45.5430 C   0  0  0  0  0  0  0  0  0  0  0  0
   57.6280   27.6180   46.1930 C   0  0  0  0  0  0  0  0  0  0  0  0
   57.0012   26.7143   46.1738 H   0  0  0  0  0  0  0  0  0  0  0  0
   58.8590   27.5970   46.8700 C   0  0  0  0  0  0  0  0  0  0  0  0
   59.3460   26.3290   47.5250 C   0  0  0  0  0  0  0  0  0  0  0  0
   60.0600   26.6520   48.6640 F   0  0  0  0  0  0  0  0  0  0  0  0
   60.1660   25.6180   46.6650 F   0  0  0  0  0  0  0  0  0  0  0  0
   58.2800   25.5180   47.8750 F   0  0  0  0  0  0  0  0  0  0  0  0
   59.6700   28.7440   46.8470 C   0  0  0  0  0  0  0  0  0  0  0  0
   60.6521   28.7264   47.3422 H   0  0  0  0  0  0  0  0  0  0  0  0
   59.2420   29.9060   46.2020 C   0  0  0  0  0  0  0  0  0  0  0  0
   59.8821   30.8005   46.2077 H   0  0  0  0  0  0  0  0  0  0  0  0
   57.9970   29.9420   45.5440 C   0  0  0  0  0  0  0  0  0  0  0  0
   57.5320   31.0980   44.8770 C   0  0  0  0  0  0  0  0  0  0  0  0
   58.2680   32.1770   44.8670 N   0  0  0  0  0  0  0  0  0  0  0  0
   57.7940   33.5590   44.8560 C   0  0  0  0  0  0  0  0  0  0  0  0
   57.2069   33.7491   45.7666 H   0  0  0  0  0  0  0  0  0  0  0  0
   57.1675   33.7167   43.9657 H   0  0  0  0  0  0  0  0  0  0  0  0
   58.9820   34.5250   44.8090 C   0  0  0  0  0  0  0  0  0  0  0  0
   58.6866   35.4174   44.2377 H   0  0  0  0  0  0  0  0  0  0  0  0
   59.8206   33.9946   44.3342 H   0  0  0  0  0  0  0  0  0  0  0  0
   59.4480   34.9690   46.2080 C   0  0  0  0  0  0  0  0  0  0  0  0
   58.6712   35.6040   46.6589 H   0  0  0  0  0  0  0  0  0  0  0  0
   60.3914   35.5239   46.0982 H   0  0  0  0  0  0  0  0  0  0  0  0
   59.6920   33.8070   47.0910 N   0  0  0  0  0  0  0  0  0  0  0  0
   60.9820   33.1770   46.7670 C   0  0  0  0  0  0  0  0  0  0  0  0
   61.5085   32.9198   47.6979 H   0  0  0  0  0  0  0  0  0  0  0  0
   60.8067   32.2631   46.1805 H   0  0  0  0  0  0  0  0  0  0  0  0
   61.5950   33.8772   46.1805 H   0  0  0  0  0  0  0  0  0  0  0  0
   59.6810   34.2040   48.5090 C   0  0  0  0  0  0  0  0  0  0  0  0
   59.7059   33.3046   49.1418 H   0  0  0  0  0  0  0  0  0  0  0  0
   60.5622   34.8269   48.7222 H   0  0  0  0  0  0  0  0  0  0  0  0
   58.7666   34.7771   48.7222 H   0  0  0  0  0  0  0  0  0  0  0  0
   56.2810   31.0520   44.2300 C   0  0  0  0  0  0  0  0  0  0  0  0
   55.9000   31.9396   43.7038 H   0  0  0  0  0  0  0  0  0  0  0  0
  1  2  1  0
  2  3  1  0
  3  4  1  0
  4  5  2  0
  5  6  1  0
  5  7  1  0
  7  8  1  0
  8  9  1  0
  8 10  1  0
  8 11  1  0
  7 12  2  0
 12 13  1  0
 12 14  1  0
 14 15  1  0
 14 16  2  0
 16 17  1  0
 17 18  2  0
 18 19  1  0
 19 20  1  0
 19 21  1  0
 19 22  1  0
 22 23  1  0
 22 24  1  0
 22 25  1  0
 25 26  1  0
 25 27  1  0
 25 28  1  0
 28 29  1  0
 29 30  1  0
 29 31  1  0
 29 32  1  0
 28 33  1  0
 33 34  1  0
 33 35  1  0
 33 36  1  0
 17 37  1  0
 37 38  1  0
 37  2  2  0
 16  4  1  0
M  CHG  1   3  -1
M  END
>  <UniqueID>  (12) 
10

>  <SMILES>  (12) 
CN(C)CCC/N=c1\cc[n-]c2cc(C(F)(F)F)ccc12

>  <Energy>  (12) 
40.83663767507635

>  <Genealogy>  (12) 
CN(C)CCCN=c1cc[n-]c2cc(C(F)(F)F)ccc12 (protonated)
CN(C)CCC/N=c1\cc[n-]c2cc(C(F)(F)F)ccc12 (cis-trans isomerization)
CN(C)CCC/N=c1\cc[n-]c2cc(C(F)(F)F)ccc12 (3D coordinates assigned)
CN(C)CCC/N=c1\cc[n-]c2cc(C(F)(F)F)ccc12 (optimized conformer: 40.83663767507635 kcal/mol)

>  <smiles>  (12) 
CN(C)CCCN=c1cc[nH]c2cc(C(F)(F)F)ccc12

>  <score_type>  (12) 
oracle

>  <origin>  (12) 
adg

>  <m_score__min__energy>  (12) 
-7.96

>  <m_primary>  (12) 
energy

$$$$
12:0
     RDKit          3D

 48 51  0  0  0  0  0  0  0  0999 V2000
   52.0650   30.1400   50.2560 C   0  0  0  0  0  0  0  0  0  0  0  0
   52.2250   31.3970   51.0440 C   0  0  0  0  0  0  0  0  0  0  0  0
   51.3980   32.3360   50.9000 O   0  0  0  0  0  0  0  0  0  0  0  0
   53.3450   31.5420   51.9230 N   0  0  0  0  0  0  0  0  0  0  0  0
   53.9750   30.4250   52.6160 C   0  0  0  0  0  0  0  0  0  0  0  0
   55.4550   30.4450   52.3920 C   0  0  0  0  0  0  0  0  0  0  0  0
   56.1550   31.4050   51.6390 C   0  0  0  0  0  0  0  0  0  0  0  0
   57.4660   30.9860   51.7170 C   0  0  0  0  0  0  0  0  0  0  0  0
   58.6850   31.2590   51.1280 C   0  0  0  0  0  0  0  0  0  0  0  0
   59.0120   32.3330   50.1700 C   0  0  0  0  0  0  0  0  0  0  0  0
   59.2000   32.2090   48.8480 C   0  0  0  0  0  0  0  0  0  0  0  0
   58.9790   31.0020   48.0210 C   0  0  0  0  0  0  0  0  0  0  0  0
   59.6230   29.7980   48.3470 C   0  0  0  0  0  0  0  0  0  0  0  0
   59.4090   28.6530   47.5750 C   0  0  0  0  0  0  0  0  0  0  0  0
   58.5510   28.6990   46.4740 C   0  0  0  0  0  0  0  0  0  0  0  0
   57.9080   29.8970   46.1330 C   0  0  0  0  0  0  0  0  0  0  0  0
   56.8280   29.9540   44.7450 S   0  0  0  0  0  0  0  0  0  0  0  0
   55.5190   28.8520   44.9860 N   0  0  0  0  0  0  0  0  0  0  0  0
   57.5750   29.5750   43.4950 O   0  0  0  0  0  0  0  0  0  0  0  0
   56.2890   31.3470   44.5810 O   0  0  0  0  0  0  0  0  0  0  0  0
   58.1400   31.0500   46.8940 C   0  0  0  0  0  0  0  0  0  0  0  0
   59.5880   33.5270   48.3330 C   0  0  0  0  0  0  0  0  0  0  0  0
   59.8260   33.8000   47.1270 O   0  0  0  0  0  0  0  0  0  0  0  0
   59.6350   34.4850   49.3780 N   0  0  0  0  0  0  0  0  0  0  0  0
   59.2740   33.7310   50.5250 C   0  0  0  0  0  0  0  0  0  0  0  0
   59.2330   34.2130   51.6860 O   0  0  0  0  0  0  0  0  0  0  0  0
   59.5070   30.2100   51.5840 C   0  0  0  0  0  0  0  0  0  0  0  0
   58.7810   29.3890   52.3870 N   0  0  0  0  0  0  0  0  0  0  0  0
   59.1770   28.0840   52.9010 C   0  0  0  0  0  0  0  0  0  0  0  0
   57.5670   29.8990   52.4360 N   0  0  0  0  0  0  0  0  0  0  0  0
   56.3680   29.4970   52.8700 C   0  0  0  0  0  0  0  0  0  0  0  0
   51.9565   29.2878   50.9431 H   0  0  0  0  0  0  0  0  0  0  0  0
   51.1693   30.2162   49.6220 H   0  0  0  0  0  0  0  0  0  0  0  0
   52.9512   29.9894   49.6220 H   0  0  0  0  0  0  0  0  0  0  0  0
   53.7697   30.5039   53.6938 H   0  0  0  0  0  0  0  0  0  0  0  0
   53.5656   29.4826   52.2233 H   0  0  0  0  0  0  0  0  0  0  0  0
   55.7517   32.2825   51.1124 H   0  0  0  0  0  0  0  0  0  0  0  0
   60.2989   29.7557   49.2138 H   0  0  0  0  0  0  0  0  0  0  0  0
   59.9177   27.7130   47.8352 H   0  0  0  0  0  0  0  0  0  0  0  0
   58.3795   27.7936   45.8734 H   0  0  0  0  0  0  0  0  0  0  0  0
   54.7530   29.3860   45.4550 H   0  0  0  0  0  0  0  0  0  0  0  0
   57.6627   31.9989   46.6080 H   0  0  0  0  0  0  0  0  0  0  0  0
   59.8740   35.4990   49.3170 H   0  0  0  0  0  0  0  0  0  0  0  0
   60.5689   30.0766   51.3301 H   0  0  0  0  0  0  0  0  0  0  0  0
   59.1704   28.1057   54.0008 H   0  0  0  0  0  0  0  0  0  0  0  0
   58.4703   27.3199   52.5451 H   0  0  0  0  0  0  0  0  0  0  0  0
   60.1892   27.8415   52.5451 H   0  0  0  0  0  0  0  0  0  0  0  0
   56.1451   28.6067   53.4764 H   0  0  0  0  0  0  0  0  0  0  0  0
  1  2  1  0
  2  3  2  0
  2  4  1  0
  4  5  1  0
  5  6  1  0
  6  7  1  0
  7  8  2  0
  8  9  1  0
  9 10  1  0
 10 11  2  0
 11 12  1  0
 12 13  2  0
 13 14  1  0
 14 15  2  0
 15 16  1  0
 16 17  1  0
 17 18  1  0
 17 19  2  0
 17 20  2  0
 16 21  2  0
 11 22  1  0
 22 23  2  0
 22 24  1  0
 24 25  1  0
 25 26  2  0
  9 27  2  0
 27 28  1  0
 28 29  1  0
 28 30  1  0
 30 31  1  0
 31  6  2  0
 30  8  1  0
 25 10  1  0
 21 12  1  0
  1 32  1  0
  1 33  1  0
  1 34  1  0
  5 35  1  0
  5 36  1  0
  7 37  1  0
 13 38  1  0
 14 39  1  0
 15 40  1  0
 18 41  1  0
 21 42  1  0
 24 43  1  0
 27 44  1  0
 29 45  1  0
 29 46  1  0
 29 47  1  0
 31 48  1  0
M  CHG  2   4  -1  18  -1
M  END
>  <UniqueID>  (13) 
11

>  <SMILES>  (13) 
CC(=O)[N-]Cc1cc2c(C3=C(c4cccc(S([NH-])(=O)=O)c4)C(=O)NC3=O)cn(C)n2c1

>  <Energy>  (13) 
163.08434097539023

>  <Genealogy>  (13) 
CC(=O)[N-]Cc1cc2c(C3=C(c4cccc(S([NH-])(=O)=O)c4)C(=O)NC3=O)cn(C)n2c1 (protonated)
CC(=O)[N-]Cc1cc2c(C3=C(c4cccc(S([NH-])(=O)=O)c4)C(=O)NC3=O)cn(C)n2c1 (3D coordinates assigned)
CC(=O)[N-]Cc1cc2c(C3=C(c4cccc(S([NH-])(=O)=O)c4)C(=O)NC3=O)cn(C)n2c1 (nonaromatic ring conformer: 163.08434097539023 kcal/mol)

>  <smiles>  (13) 
CC(=O)NCc1cc2c(C3=C(c4cccc(S(N)(=O)=O)c4)C(=O)NC3=O)cn(C)n2c1

>  <score_type>  (13) 
oracle

>  <origin>  (13) 
adg

>  <m_score__min__energy>  (13) 
-13.119999999999999

>  <m_primary>  (13) 
energy

$$$$
13:0
     RDKit          3D

 50 53  0  0  0  0  0  0  0  0999 V2000
   63.2890   32.4810   47.1620 C   0  0  0  0  0  0  0  0  0  0  0  0
   62.4130   31.3590   47.2000 O   0  0  0  0  0  0  0  0  0  0  0  0
   61.3080   31.2410   48.0570 C   0  0  0  0  0  0  0  0  0  0  0  0
   61.0330   32.1960   49.0570 C   0  0  0  0  0  0  0  0  0  0  0  0
   59.9250   32.0430   49.8930 C   0  0  0  0  0  0  0  0  0  0  0  0
   59.0840   30.9400   49.7440 C   0  0  0  0  0  0  0  0  0  0  0  0
   59.3450   29.9870   48.7580 C   0  0  0  0  0  0  0  0  0  0  0  0
   60.4580   30.1310   47.9080 C   0  0  0  0  0  0  0  0  0  0  0  0
   60.7550   29.1700   46.8850 N   0  0  0  0  0  0  0  0  0  0  0  0
   60.4720   27.4630   46.9960 S   0  0  0  0  0  0  0  0  0  0  0  0
   61.3370   26.7330   46.0080 O   0  0  0  0  0  0  0  0  0  0  0  0
   60.7840   27.0010   48.3920 O   0  0  0  0  0  0  0  0  0  0  0  0
   58.7810   27.1350   46.6310 C   0  0  0  0  0  0  0  0  0  0  0  0
   58.1870   25.9500   47.0760 C   0  0  0  0  0  0  0  0  0  0  0  0
   56.8500   25.6800   46.7780 C   0  0  0  0  0  0  0  0  0  0  0  0
   56.0880   26.5990   46.0420 C   0  0  0  0  0  0  0  0  0  0  0  0
   54.7740   26.2870   45.6940 O   0  0  0  0  0  0  0  0  0  0  0  0
   56.6680   27.8180   45.6360 C   0  0  0  0  0  0  0  0  0  0  0  0
   55.9330   28.7950   44.8840 N   0  0  0  0  0  0  0  0  0  0  0  0
   56.5030   29.7280   43.9580 C   0  0  0  0  0  0  0  0  0  0  0  0
   56.3820   29.5460   42.7170 O   0  0  0  0  0  0  0  0  0  0  0  0
   57.1870   30.9230   44.4750 C   0  0  0  0  0  0  0  0  0  0  0  0
   57.3690   31.1430   45.7660 O   0  0  0  0  0  0  0  0  0  0  0  0
   58.0010   32.2830   45.8940 C   0  0  0  0  0  0  0  0  0  0  0  0
   58.3960   32.9020   47.0780 C   0  0  0  0  0  0  0  0  0  0  0  0
   59.0680   34.1350   46.9820 C   0  0  0  0  0  0  0  0  0  0  0  0
   59.3270   34.7140   45.7200 C   0  0  0  0  0  0  0  0  0  0  0  0
   59.9930   35.9300   45.6420 O   0  0  0  0  0  0  0  0  0  0  0  0
   58.9160   34.0640   44.5410 C   0  0  0  0  0  0  0  0  0  0  0  0
   58.2510   32.8430   44.6670 C   0  0  0  0  0  0  0  0  0  0  0  0
   57.7340   31.9720   43.7280 C   0  0  0  0  0  0  0  0  0  0  0  0
   57.7400   32.1300   42.2360 C   0  0  0  0  0  0  0  0  0  0  0  0
   58.0190   28.0650   45.9100 C   0  0  0  0  0  0  0  0  0  0  0  0
   63.5316   32.7917   48.1889 H   0  0  0  0  0  0  0  0  0  0  0  0
   64.2140   32.2063   46.6339 H   0  0  0  0  0  0  0  0  0  0  0  0
   62.7981   33.3117   46.6339 H   0  0  0  0  0  0  0  0  0  0  0  0
   61.6947   33.0662   49.1793 H   0  0  0  0  0  0  0  0  0  0  0  0
   59.7151   32.7930   50.6698 H   0  0  0  0  0  0  0  0  0  0  0  0
   58.2130   30.8210   50.4052 H   0  0  0  0  0  0  0  0  0  0  0  0
   58.6781   29.1196   48.6446 H   0  0  0  0  0  0  0  0  0  0  0  0
   58.7747   25.2285   47.6625 H   0  0  0  0  0  0  0  0  0  0  0  0
   56.3917   24.7412   47.1224 H   0  0  0  0  0  0  0  0  0  0  0  0
   54.3150   26.7280   44.9050 H   0  0  0  0  0  0  0  0  0  0  0  0
   58.1895   32.4422   48.0557 H   0  0  0  0  0  0  0  0  0  0  0  0
   59.3940   34.6516   47.8968 H   0  0  0  0  0  0  0  0  0  0  0  0
   59.1125   34.5040   43.5522 H   0  0  0  0  0  0  0  0  0  0  0  0
   57.7806   33.1992   41.9807 H   0  0  0  0  0  0  0  0  0  0  0  0
   58.6194   31.6192   41.8167 H   0  0  0  0  0  0  0  0  0  0  0  0
   56.8244   31.6874   41.8167 H   0  0  0  0  0  0  0  0  0  0  0  0
   58.4860   28.9962   45.5567 H   0  0  0  0  0  0  0  0  0  0  0  0
  1  2  1  0
  2  3  1  0
  3  4  2  0
  4  5  1  0
  5  6  2  0
  6  7  1  0
  7  8  2  0
  8  9  1  0
  9 10  1  0
 10 11  2  0
 10 12  2  0
 10 13  1  0
 13 14  2  0
 14 15  1  0
 15 16  2  0
 16 17  1  0
 16 18  1  0
 18 19  1  0
 19 20  1  0
 20 21  2  0
 20 22  1  0
 22 23  1  0
 23 24  1  0
 24 25  2  0
 25 26  1  0
 26 27  2  0
 27 28  1  0
 27 29  1  0
 29 30  2  0
 30 31  1  0
 31 32  1  0
 18 33  2  0
  8  3  1  0
 33 13  1  0
 31 22  2  0
 30 24  1  0
  1 34  1  0
  1 35  1  0
  1 36  1  0
  4 37  1  0
  5 38  1  0
  6 39  1  0
  7 40  1  0
 14 41  1  0
 15 42  1  0
 17 43  1  0
 25 44  1  0
 26 45  1  0
 29 46  1  0
 32 47  1  0
 32 48  1  0
 32 49  1  0
 33 50  1  0
M  CHG  3   9  -1  19  -1  28  -1
M  END
>  <UniqueID>  (14) 
12

>  <SMILES>  (14) 
COc1ccccc1[N-]S(=O)(=O)c1ccc(O)c([N-]C(=O)c2oc3ccc([O-])cc3c2C)c1

>  <Energy>  (14) 
97.08293627217498

>  <Genealogy>  (14) 
COc1ccccc1[N-]S(=O)(=O)c1ccc(O)c([N-]C(=O)c2oc3ccc([O-])cc3c2C)c1 (protonated)
COc1ccccc1[N-]S(=O)(=O)c1ccc(O)c([N-]C(=O)c2oc3ccc([O-])cc3c2C)c1 (3D coordinates assigned)
COc1ccccc1[N-]S(=O)(=O)c1ccc(O)c([N-]C(=O)c2oc3ccc([O-])cc3c2C)c1 (optimized conformer: 97.08293627217498 kcal/mol)

>  <smiles>  (14) 
COc1ccccc1NS(=O)(=O)c1ccc(O)c(NC(=O)c2oc3ccc(O)cc3c2C)c1

>  <score_type>  (14) 
oracle

>  <origin>  (14) 
adg

>  <m_score__min__energy>  (14) 
-14.210000000000001

>  <m_primary>  (14) 
energy

$$$$
14:0
     RDKit          3D

 38 40  0  0  0  0  0  0  0  0999 V2000
   55.1490   28.6430   45.6500 H   0  0  0  0  0  0  0  0  0  0  0  0
   55.1440   29.3460   44.8770 N   0  0  0  0  0  0  0  0  0  0  0  0
   56.3290   29.6320   44.1370 C   0  0  0  0  0  0  0  0  0  0  0  0
   56.2490   29.7930   42.8890 O   0  0  0  0  0  0  0  0  0  0  0  0
   57.6380   29.7440   44.8240 C   0  0  0  0  0  0  0  0  0  0  0  0
   58.2230   31.0010   45.0500 C   0  0  0  0  0  0  0  0  0  0  0  0
   57.6994   31.9127   44.7266 H   0  0  0  0  0  0  0  0  0  0  0  0
   59.4640   31.1020   45.6820 C   0  0  0  0  0  0  0  0  0  0  0  0
   59.9055   32.0932   45.8628 H   0  0  0  0  0  0  0  0  0  0  0  0
   60.1500   29.9520   46.0870 C   0  0  0  0  0  0  0  0  0  0  0  0
   61.4280   30.0960   46.7220 N   0  0  0  0  0  0  0  0  0  0  0  0
   61.9080   31.2250   47.1540 C   0  0  0  0  0  0  0  0  0  0  0  0
   61.1660   32.0390   47.9540 N   0  0  0  0  0  0  0  0  0  0  0  0
   61.6690   33.2100   48.4320 C   0  0  0  0  0  0  0  0  0  0  0  0
   60.9000   34.0390   49.2570 O   0  0  0  0  0  0  0  0  0  0  0  0
   59.4910   34.2130   49.1050 C   0  0  0  0  0  0  0  0  0  0  0  0
   58.9738   33.3398   49.5293 H   0  0  0  0  0  0  0  0  0  0  0  0
   59.1949   35.1326   49.6310 H   0  0  0  0  0  0  0  0  0  0  0  0
   59.1120   34.3510   47.6520 C   0  0  0  0  0  0  0  0  0  0  0  0
   59.9210   35.0980   46.7780 C   0  0  0  0  0  0  0  0  0  0  0  0
   60.8323   35.5840   47.1565 H   0  0  0  0  0  0  0  0  0  0  0  0
   59.5730   35.2260   45.4310 C   0  0  0  0  0  0  0  0  0  0  0  0
   60.2106   35.8112   44.7520 H   0  0  0  0  0  0  0  0  0  0  0  0
   58.4170   34.6120   44.9460 C   0  0  0  0  0  0  0  0  0  0  0  0
   58.1491   34.7072   43.8834 H   0  0  0  0  0  0  0  0  0  0  0  0
   57.6000   33.8770   45.8080 C   0  0  0  0  0  0  0  0  0  0  0  0
   56.6868   33.3987   45.4242 H   0  0  0  0  0  0  0  0  0  0  0  0
   57.9410   33.7480   47.1590 C   0  0  0  0  0  0  0  0  0  0  0  0
   57.1300   33.0360   47.9840 F   0  0  0  0  0  0  0  0  0  0  0  0
   62.9720   33.5840   48.1010 C   0  0  0  0  0  0  0  0  0  0  0  0
   63.4004   34.5238   48.4794 H   0  0  0  0  0  0  0  0  0  0  0  0
   63.7190   32.7400   47.2800 C   0  0  0  0  0  0  0  0  0  0  0  0
   64.7468   33.0141   46.9997 H   0  0  0  0  0  0  0  0  0  0  0  0
   63.1780   31.5790   46.8260 N   0  0  0  0  0  0  0  0  0  0  0  0
   59.5600   28.6880   45.8920 C   0  0  0  0  0  0  0  0  0  0  0  0
   60.3920   27.0780   46.5190 Br  0  0  0  0  0  0  0  0  0  0  0  0
   58.3150   28.5900   45.2600 C   0  0  0  0  0  0  0  0  0  0  0  0
   57.8610   27.6005   45.1025 H   0  0  0  0  0  0  0  0  0  0  0  0
  1  2  1  0
  2  3  1  0
  3  4  2  0
  3  5  1  0
  5  6  2  0
  6  7  1  0
  6  8  1  0
  8  9  1  0
  8 10  2  0
 10 11  1  0
 11 12  2  0
 12 13  1  0
 13 14  2  0
 14 15  1  0
 15 16  1  0
 16 17  1  0
 16 18  1  0
 16 19  1  0
 19 20  2  0
 20 21  1  0
 20 22  1  0
 22 23  1  0
 22 24  2  0
 24 25  1  0
 24 26  1  0
 26 27  1  0
 26 28  2  0
 28 29  1  0
 14 30  1  0
 30 31  1  0
 30 32  2  0
 32 33  1  0
 32 34  1  0
 10 35  1  0
 35 36  1  0
 35 37  2  0
 37 38  1  0
 37  5  1  0
 34 12  1  0
 28 19  1  0
M  CHG  2   2  -1  34  -1
M  END
>  <UniqueID>  (15) 
13

>  <SMILES>  (15) 
[NH-]C(=O)c1ccc(/N=c2\nc(OCc3ccccc3F)cc[n-]2)c(Br)c1

>  <Energy>  (15) 
45.683800672632444

>  <Genealogy>  (15) 
[NH-]C(=O)c1ccc(N=c2nc(OCc3ccccc3F)cc[n-]2)c(Br)c1 (protonated)
[NH-]C(=O)c1ccc(/N=c2\nc(OCc3ccccc3F)cc[n-]2)c(Br)c1 (cis-trans isomerization)
[NH-]C(=O)c1ccc(/N=c2\nc(OCc3ccccc3F)cc[n-]2)c(Br)c1 (3D coordinates assigned)
[NH-]C(=O)c1ccc(/N=c2\nc(OCc3ccccc3F)cc[n-]2)c(Br)c1 (optimized conformer: 45.683800672632444 kcal/mol)

>  <smiles>  (15) 
NC(=O)c1ccc(N=c2nc(OCc3ccccc3F)cc[nH]2)c(Br)c1

>  <score_type>  (15) 
oracle

>  <origin>  (15) 
adg

>  <m_score__min__energy>  (15) 
-11.83

>  <m_primary>  (15) 
energy

$$$$
15:0
     RDKit          3D

 16 16  0  0  0  0  0  0  0  0999 V2000
   57.1100   31.1420   43.8870 C   0  0  0  0  0  0  0  0  0  0  0  0
   57.6320   29.8940   44.4580 N   0  0  0  0  0  0  0  0  0  0  0  0
   58.9840   29.6920   44.5170 C   0  0  0  0  0  0  0  0  0  0  0  0
   59.5060   28.5160   45.0550 C   0  0  0  0  0  0  0  0  0  0  0  0
   58.6390   27.5370   45.5350 C   0  0  0  0  0  0  0  0  0  0  0  0
   57.2590   27.7400   45.4740 C   0  0  0  0  0  0  0  0  0  0  0  0
   56.3670   26.7230   45.9720 C   0  0  0  0  0  0  0  0  0  0  0  0
   55.6510   25.9070   46.3720 N   0  0  0  0  0  0  0  0  0  0  0  0
   56.7640   28.9390   44.9260 C   0  0  0  0  0  0  0  0  0  0  0  0
   55.5170   29.1290   44.8680 O   0  0  0  0  0  0  0  0  0  0  0  0
   56.8240   31.8257   44.6999 H   0  0  0  0  0  0  0  0  0  0  0  0
   57.8860   31.6142   43.2667 H   0  0  0  0  0  0  0  0  0  0  0  0
   56.2289   30.9210   43.2667 H   0  0  0  0  0  0  0  0  0  0  0  0
   59.6667   30.4657   44.1359 H   0  0  0  0  0  0  0  0  0  0  0  0
   60.5943   28.3626   45.1000 H   0  0  0  0  0  0  0  0  0  0  0  0
   59.0408   26.6059   45.9612 H   0  0  0  0  0  0  0  0  0  0  0  0
  1  2  1  0
  2  3  1  0
  3  4  2  0
  4  5  1  0
  5  6  2  0
  6  7  1  0
  7  8  3  0
  6  9  1  0
  9 10  2  0
  9  2  1  0
  1 11  1  0
  1 12  1  0
  1 13  1  0
  3 14  1  0
  4 15  1  0
  5 16  1  0
M  END
>  <UniqueID>  (16) 
14

>  <SMILES>  (16) 
Cn1cccc(C#N)c1=O

>  <Energy>  (16) 
16.536789952726995

>  <Genealogy>  (16) 
Cn1cccc(C#N)c1=O (3D coordinates assigned)
Cn1cccc(C#N)c1=O (optimized conformer: 16.536789952726995 kcal/mol)

>  <smiles>  (16) 
Cn1cccc(C#N)c1=O

>  <score_type>  (16) 
oracle

>  <origin>  (16) 
adg

>  <m_score__min__energy>  (16) 
-4.4100000000000001

>  <m_primary>  (16) 
energy

$$$$
16:0
     RDKit          3D

 47 49  0  0  0  0  0  0  0  0999 V2000
   54.4210   25.9670   45.6540 N   0  0  0  0  0  0  0  0  0  0  0  0
   54.3250   24.2430   45.5390 S   0  0  0  0  0  0  0  0  0  0  0  0
   53.2340   23.8860   44.5680 O   0  0  0  0  0  0  0  0  0  0  0  0
   53.9960   23.6820   46.8920 O   0  0  0  0  0  0  0  0  0  0  0  0
   55.8580   23.5620   44.9810 C   0  0  0  0  0  0  0  0  0  0  0  0
   55.8660   22.6040   43.9560 C   0  0  0  0  0  0  0  0  0  0  0  0
   57.0680   22.0420   43.5230 C   0  0  0  0  0  0  0  0  0  0  0  0
   58.2710   22.4260   44.1150 C   0  0  0  0  0  0  0  0  0  0  0  0
   58.2790   23.3850   45.1290 C   0  0  0  0  0  0  0  0  0  0  0  0
   57.0760   23.9810   45.5550 C   0  0  0  0  0  0  0  0  0  0  0  0
   57.0540   24.9500   46.6170 N   0  0  0  0  0  0  0  0  0  0  0  0
   58.1290   25.7950   47.0470 C   0  0  0  0  0  0  0  0  0  0  0  0
   58.5920   25.6910   48.2140 O   0  0  0  0  0  0  0  0  0  0  0  0
   58.7040   26.7920   46.1180 C   0  0  0  0  0  0  0  0  0  0  0  0
   57.9100   27.4600   45.2660 C   0  0  0  0  0  0  0  0  0  0  0  0
   58.4320   28.5460   44.3720 C   0  0  0  0  0  0  0  0  0  0  0  0
   59.6250   29.1990   44.9270 N   0  0  0  0  0  0  0  0  0  0  0  0
   59.2670   30.3430   46.2120 S   0  0  0  0  0  0  0  0  0  0  0  0
   58.1010   29.8260   47.0090 O   0  0  0  0  0  0  0  0  0  0  0  0
   60.4410   30.3890   47.1440 O   0  0  0  0  0  0  0  0  0  0  0  0
   58.8680   31.9880   45.6400 C   0  0  0  0  0  0  0  0  0  0  0  0
   59.6370   33.0560   46.1390 C   0  0  0  0  0  0  0  0  0  0  0  0
   59.3100   34.3790   45.8410 C   0  0  0  0  0  0  0  0  0  0  0  0
   58.2150   34.6610   45.0280 C   0  0  0  0  0  0  0  0  0  0  0  0
   57.4570   33.6210   44.4940 C   0  0  0  0  0  0  0  0  0  0  0  0
   57.7830   32.2800   44.7650 C   0  0  0  0  0  0  0  0  0  0  0  0
   56.9740   31.2440   44.1020 C   0  0  0  0  0  0  0  0  0  0  0  0
   57.1610   30.9850   42.8840 O   0  0  0  0  0  0  0  0  0  0  0  0
   56.0890   30.4640   44.8330 O   0  0  0  0  0  0  0  0  0  0  0  0
   60.6650   28.2140   45.2730 C   0  0  0  0  0  0  0  0  0  0  0  0
   60.1730   27.1300   46.2500 C   0  0  0  0  0  0  0  0  0  0  0  0
   55.2390   26.1880   46.2660 H   0  0  0  0  0  0  0  0  0  0  0  0
   54.9188   22.2938   43.4906 H   0  0  0  0  0  0  0  0  0  0  0  0
   57.0665   21.2960   42.7146 H   0  0  0  0  0  0  0  0  0  0  0  0
   59.2159   21.9719   43.7819 H   0  0  0  0  0  0  0  0  0  0  0  0
   59.2301   23.6770   45.5981 H   0  0  0  0  0  0  0  0  0  0  0  0
   56.8415   27.2026   45.2219 H   0  0  0  0  0  0  0  0  0  0  0  0
   58.6900   28.1079   43.3966 H   0  0  0  0  0  0  0  0  0  0  0  0
   57.6454   29.3087   44.2742 H   0  0  0  0  0  0  0  0  0  0  0  0
   60.5098   32.8441   46.7741 H   0  0  0  0  0  0  0  0  0  0  0  0
   59.9177   35.2003   46.2486 H   0  0  0  0  0  0  0  0  0  0  0  0
   57.9484   35.7052   44.8074 H   0  0  0  0  0  0  0  0  0  0  0  0
   56.5934   33.8515   43.8529 H   0  0  0  0  0  0  0  0  0  0  0  0
   61.0035   27.7236   44.3484 H   0  0  0  0  0  0  0  0  0  0  0  0
   61.4787   28.7598   45.7731 H   0  0  0  0  0  0  0  0  0  0  0  0
   60.7547   26.2140   46.0694 H   0  0  0  0  0  0  0  0  0  0  0  0
   60.3133   27.5331   47.2638 H   0  0  0  0  0  0  0  0  0  0  0  0
  1  2  1  0
  2  3  2  0
  2  4  2  0
  2  5  1  0
  5  6  2  0
  6  7  1  0
  7  8  2  0
  8  9  1  0
  9 10  2  0
 10 11  1  0
 11 12  1  0
 12 13  2  0
 12 14  1  0
 14 15  2  0
 15 16  1  0
 16 17  1  0
 17 18  1  0
 18 19  2  0
 18 20  2  0
 18 21  1  0
 21 22  2  0
 22 23  1  0
 23 24  2  0
 24 25  1  0
 25 26  2  0
 26 27  1  0
 27 28  2  0
 27 29  1  0
 17 30  1  0
 30 31  1  0
 10  5  1  0
 31 14  1  0
 26 21  1  0
  1 32  1  0
  6 33  1  0
  7 34  1  0
  8 35  1  0
  9 36  1  0
 15 37  1  0
 16 38  1  0
 16 39  1  0
 22 40  1  0
 23 41  1  0
 24 42  1  0
 25 43  1  0
 30 44  1  0
 30 45  1  0
 31 46  1  0
 31 47  1  0
M  CHG  3   1  -1  11  -1  29  -1
M  END
>  <UniqueID>  (17) 
15

>  <SMILES>  (17) 
[NH-]S(=O)(=O)c1ccccc1[N-]C(=O)C1=CCN(S(=O)(=O)c2ccccc2C(=O)[O-])CC1

>  <Energy>  (17) 
65.11177910867525

>  <Genealogy>  (17) 
[NH-]S(=O)(=O)c1ccccc1[N-]C(=O)C1=CCN(S(=O)(=O)c2ccccc2C(=O)[O-])CC1 (protonated)
[NH-]S(=O)(=O)c1ccccc1[N-]C(=O)C1=CCN(S(=O)(=O)c2ccccc2C(=O)[O-])CC1 (3D coordinates assigned)
[NH-]S(=O)(=O)c1ccccc1[N-]C(=O)C1=CCN(S(=O)(=O)c2ccccc2C(=O)[O-])CC1 (nonaromatic ring conformer: 65.11177910867525 kcal/mol)

>  <smiles>  (17) 
NS(=O)(=O)c1ccccc1NC(=O)C1=CCN(S(=O)(=O)c2ccccc2C(=O)O)CC1

>  <score_type>  (17) 
oracle

>  <origin>  (17) 
adg

>  <m_score__min__energy>  (17) 
-15.65

>  <m_primary>  (17) 
energy

$$$$
17:0
     RDKit          3D

 57 60  0  0  0  0  0  0  0  0999 V2000
   59.7095   34.9136   44.1983 H   0  0  0  0  0  0  0  0  0  0  0  0
   59.2610   34.3520   45.0310 C   0  0  0  0  0  0  0  0  0  0  0  0
   58.0680   33.7770   44.8320 C   0  0  0  0  0  0  0  0  0  0  0  0
   57.1771   34.4180   44.7583 H   0  0  0  0  0  0  0  0  0  0  0  0
   57.9040   32.3170   44.7080 C   0  0  0  0  0  0  0  0  0  0  0  0
   57.2600   31.6790   43.6550 C   0  0  0  0  0  0  0  0  0  0  0  0
   56.8183   32.1904   42.7871 H   0  0  0  0  0  0  0  0  0  0  0  0
   57.2530   30.3400   43.8480 N   0  0  0  0  0  0  0  0  0  0  0  0
   56.6380   29.3450   42.9760 C   0  0  0  0  0  0  0  0  0  0  0  0
   56.1576   28.5677   43.5883 H   0  0  0  0  0  0  0  0  0  0  0  0
   55.8824   29.8308   42.3411 H   0  0  0  0  0  0  0  0  0  0  0  0
   57.4104   28.8864   42.3411 H   0  0  0  0  0  0  0  0  0  0  0  0
   57.8640   30.1230   45.0300 C   0  0  0  0  0  0  0  0  0  0  0  0
   58.0480   28.9010   45.6830 C   0  0  0  0  0  0  0  0  0  0  0  0
   57.7220   27.9573   45.2213 H   0  0  0  0  0  0  0  0  0  0  0  0
   58.6620   28.9140   46.9470 C   0  0  0  0  0  0  0  0  0  0  0  0
   58.8349   27.9676   47.4804 H   0  0  0  0  0  0  0  0  0  0  0  0
   59.0580   30.1330   47.5360 C   0  0  0  0  0  0  0  0  0  0  0  0
   59.5310   30.1309   48.5291 H   0  0  0  0  0  0  0  0  0  0  0  0
   58.8530   31.3500   46.8640 C   0  0  0  0  0  0  0  0  0  0  0  0
   59.1415   32.3066   47.3242 H   0  0  0  0  0  0  0  0  0  0  0  0
   58.2710   31.3090   45.5920 C   0  0  0  0  0  0  0  0  0  0  0  0
   60.0140   34.2770   46.3070 C   0  0  0  0  0  0  0  0  0  0  0  0
   59.3550   34.6320   47.4960 C   0  0  0  0  0  0  0  0  0  0  0  0
   58.3033   34.9523   47.4596 H   0  0  0  0  0  0  0  0  0  0  0  0
   60.0200   34.5830   48.7250 C   0  0  0  0  0  0  0  0  0  0  0  0
   59.4930   34.8762   49.6449 H   0  0  0  0  0  0  0  0  0  0  0  0
   61.3610   34.1600   48.7900 C   0  0  0  0  0  0  0  0  0  0  0  0
   62.0800   34.0930   49.9940 O   0  0  0  0  0  0  0  0  0  0  0  0
   62.7630   32.9430   50.4940 C   0  0  0  0  0  0  0  0  0  0  0  0
   63.6662   32.7720   49.8898 H   0  0  0  0  0  0  0  0  0  0  0  0
   63.0270   33.1265   51.5460 H   0  0  0  0  0  0  0  0  0  0  0  0
   61.8740   31.6930   50.4290 C   0  0  0  0  0  0  0  0  0  0  0  0
   61.3820   31.6560   49.4459 H   0  0  0  0  0  0  0  0  0  0  0  0
   62.5115   30.8100   50.5838 H   0  0  0  0  0  0  0  0  0  0  0  0
   60.7930   31.7050   51.5290 C   0  0  0  0  0  0  0  0  0  0  0  0
   60.3349   30.7063   51.5813 H   0  0  0  0  0  0  0  0  0  0  0  0
   61.2866   31.9800   52.4728 H   0  0  0  0  0  0  0  0  0  0  0  0
   59.7210   32.7060   51.2790 N   0  0  0  0  0  0  0  0  0  0  0  0
   60.1730   33.5460   50.8450 H   0  0  0  0  0  0  0  0  0  0  0  0
   59.0950   33.1530   52.5520 C   0  0  0  0  0  0  0  0  0  0  0  0
   59.8405   33.0746   53.3570 H   0  0  0  0  0  0  0  0  0  0  0  0
   58.7570   34.1900   52.4091 H   0  0  0  0  0  0  0  0  0  0  0  0
   57.8600   32.3100   52.9390 C   0  0  0  0  0  0  0  0  0  0  0  0
   57.8139   32.2208   54.0344 H   0  0  0  0  0  0  0  0  0  0  0  0
   56.9588   32.8110   52.5557 H   0  0  0  0  0  0  0  0  0  0  0  0
   57.9330   31.0190   52.3730 O   0  0  0  0  0  0  0  0  0  0  0  0
   57.8250   31.0940   50.9610 C   0  0  0  0  0  0  0  0  0  0  0  0
   58.1574   30.1365   50.5336 H   0  0  0  0  0  0  0  0  0  0  0  0
   56.7724   31.3087   50.7246 H   0  0  0  0  0  0  0  0  0  0  0  0
   58.6760   32.2300   50.3440 C   0  0  0  0  0  0  0  0  0  0  0  0
   59.1601   31.8556   49.4300 H   0  0  0  0  0  0  0  0  0  0  0  0
   58.0075   33.0745   50.1206 H   0  0  0  0  0  0  0  0  0  0  0  0
   62.0160   33.7950   47.6100 C   0  0  0  0  0  0  0  0  0  0  0  0
   63.0645   33.4648   47.6497 H   0  0  0  0  0  0  0  0  0  0  0  0
   61.3530   33.8450   46.3800 C   0  0  0  0  0  0  0  0  0  0  0  0
   61.8807   33.5449   45.4627 H   0  0  0  0  0  0  0  0  0  0  0  0
  1  2  1  0
  2  3  2  0
  3  4  1  0
  3  5  1  0
  5  6  2  0
  6  7  1  0
  6  8  1  0
  8  9  1  0
  9 10  1  0
  9 11  1  0
  9 12  1  0
  8 13  1  0
 13 14  2  0
 14 15  1  0
 14 16  1  0
 16 17  1  0
 16 18  2  0
 18 19  1  0
 18 20  1  0
 20 21  1  0
 20 22  2  0
  2 23  1  0
 23 24  2  0
 24 25  1  0
 24 26  1  0
 26 27  1  0
 26 28  2  0
 28 29  1  0
 29 30  1  0
 30 31  1  0
 30 32  1  0
 30 33  1  0
 33 34  1  0
 33 35  1  0
 33 36  1  0
 36 37  1  0
 36 38  1  0
 36 39  1  0
 39 40  1  0
 39 41  1  0
 41 42  1  0
 41 43  1  0
 41 44  1  0
 44 45  1  0
 44 46  1  0
 44 47  1  0
 47 48  1  0
 48 49  1  0
 48 50  1  0
 48 51  1  0
 51 52  1  0
 51 53  1  0
 28 54  1  0
 54 55  1  0
 54 56  2  0
 56 57  1  0
 22  5  1  0
 56 23  1  0
 22 13  1  0
 51 39  1  0
M  CHG  1  39   1
M  END
>  <UniqueID>  (18) 
16

>  <SMILES>  (18) 
Cn1cc(/C=C/c2ccc(OCCC[NH+]3CCOCC3)cc2)c2ccccc21

>  <Energy>  (18) 
109.53333702742952

>  <Genealogy>  (18) 
Cn1cc(C=Cc2ccc(OCCC[NH+]3CCOCC3)cc2)c2ccccc21 (protonated)
Cn1cc(/C=C/c2ccc(OCCC[NH+]3CCOCC3)cc2)c2ccccc21 (cis-trans isomerization)
Cn1cc(/C=C/c2ccc(OCCC[NH+]3CCOCC3)cc2)c2ccccc21 (3D coordinates assigned)
Cn1cc(/C=C/c2ccc(OCCC[NH+]3CCOCC3)cc2)c2ccccc21 (nonaromatic ring conformer: 109.53333702742952 kcal/mol)

>  <smiles>  (18) 
Cn1cc(C=Cc2ccc(OCCCN3CCOCC3)cc2)c2ccccc21

>  <score_type>  (18) 
oracle

>  <origin>  (18) 
adg

>  <m_score__min__energy>  (18) 
-6.6900000000000004

>  <m_primary>  (18) 
energy

$$$$
18:0
     RDKit          3D

 57 60  0  0  0  0  0  0  0  0999 V2000
   58.5620   30.3300   48.5050 O   0  0  0  0  0  0  0  0  0  0  0  0
   59.5710   31.0350   48.7810 C   0  0  0  0  0  0  0  0  0  0  0  0
   59.6070   32.4220   48.4280 N   0  0  0  0  0  0  0  0  0  0  0  0
   59.2180   32.9800   47.1640 C   0  0  0  0  0  0  0  0  0  0  0  0
   58.7310   32.1180   46.1740 C   0  0  0  0  0  0  0  0  0  0  0  0
   58.3260   32.6130   44.9220 C   0  0  0  0  0  0  0  0  0  0  0  0
   57.8160   31.6670   43.8640 C   0  0  0  0  0  0  0  0  0  0  0  0
   57.3500   30.3690   44.4740 C   0  0  0  0  0  0  0  0  0  0  0  0
   56.0170   30.1020   44.4680 N   0  0  0  0  0  0  0  0  0  0  0  0
   55.5180   28.9720   44.9670 N   0  0  0  0  0  0  0  0  0  0  0  0
   56.3180   28.0160   45.5000 C   0  0  0  0  0  0  0  0  0  0  0  0
   55.8000   26.9680   45.9700 O   0  0  0  0  0  0  0  0  0  0  0  0
   57.7070   28.2060   45.5210 C   0  0  0  0  0  0  0  0  0  0  0  0
   58.2370   29.4120   45.0180 C   0  0  0  0  0  0  0  0  0  0  0  0
   59.6620   29.6250   45.0460 N   0  0  0  0  0  0  0  0  0  0  0  0
   60.5490   28.7220   45.7720 C   0  0  0  0  0  0  0  0  0  0  0  0
   60.0580   27.2840   45.6330 C   0  0  0  0  0  0  0  0  0  0  0  0
   58.6170   27.1640   46.1410 C   0  0  0  0  0  0  0  0  0  0  0  0
   58.4200   33.9900   44.6690 C   0  0  0  0  0  0  0  0  0  0  0  0
   58.8700   34.8600   45.6640 C   0  0  0  0  0  0  0  0  0  0  0  0
   59.2560   34.3670   46.9130 C   0  0  0  0  0  0  0  0  0  0  0  0
   59.6080   35.2460   47.8830 F   0  0  0  0  0  0  0  0  0  0  0  0
   60.6660   30.4700   49.5140 N   0  0  0  0  0  0  0  0  0  0  0  0
   60.7150   29.0580   49.8840 C   0  0  0  0  0  0  0  0  0  0  0  0
   60.9050   28.9090   51.3960 C   0  0  0  0  0  0  0  0  0  0  0  0
   62.3360   28.5600   51.7200 C   0  0  0  0  0  0  0  0  0  0  0  0
   62.6680   27.2330   52.0420 C   0  0  0  0  0  0  0  0  0  0  0  0
   63.9920   26.8810   52.3120 C   0  0  0  0  0  0  0  0  0  0  0  0
   64.9960   27.8470   52.2600 C   0  0  0  0  0  0  0  0  0  0  0  0
   64.6830   29.1680   51.9250 C   0  0  0  0  0  0  0  0  0  0  0  0
   63.3520   29.5380   51.6440 C   0  0  0  0  0  0  0  0  0  0  0  0
   63.0020   30.8520   51.2860 O   0  0  0  0  0  0  0  0  0  0  0  0
   63.6830   31.6620   50.3320 C   0  0  0  0  0  0  0  0  0  0  0  0
   63.3710   31.2170   49.0630 F   0  0  0  0  0  0  0  0  0  0  0  0
   65.0520   31.5630   50.5150 F   0  0  0  0  0  0  0  0  0  0  0  0
   63.2830   32.9810   50.4530 F   0  0  0  0  0  0  0  0  0  0  0  0
   58.6644   31.0392   46.3785 H   0  0  0  0  0  0  0  0  0  0  0  0
   56.9738   32.1386   43.3364 H   0  0  0  0  0  0  0  0  0  0  0  0
   58.6373   31.4492   43.1654 H   0  0  0  0  0  0  0  0  0  0  0  0
   60.0990   30.4290   44.5490 H   0  0  0  0  0  0  0  0  0  0  0  0
   61.5659   28.8011   45.3600 H   0  0  0  0  0  0  0  0  0  0  0  0
   60.5548   29.0001   46.8362 H   0  0  0  0  0  0  0  0  0  0  0  0
   60.0956   26.9882   44.5742 H   0  0  0  0  0  0  0  0  0  0  0  0
   60.7048   26.6251   46.2308 H   0  0  0  0  0  0  0  0  0  0  0  0
   58.2342   26.1638   45.8899 H   0  0  0  0  0  0  0  0  0  0  0  0
   58.6260   27.3254   47.2291 H   0  0  0  0  0  0  0  0  0  0  0  0
   58.1379   34.3859   43.6822 H   0  0  0  0  0  0  0  0  0  0  0  0
   58.9209   35.9403   45.4633 H   0  0  0  0  0  0  0  0  0  0  0  0
   61.4360   31.1020   49.8310 H   0  0  0  0  0  0  0  0  0  0  0  0
   59.7735   28.5727   49.5874 H   0  0  0  0  0  0  0  0  0  0  0  0
   61.5633   28.5833   49.3692 H   0  0  0  0  0  0  0  0  0  0  0  0
   60.6440   29.8575   51.8882 H   0  0  0  0  0  0  0  0  0  0  0  0
   60.2526   28.1003   51.7571 H   0  0  0  0  0  0  0  0  0  0  0  0
   61.8798   26.4667   52.0816 H   0  0  0  0  0  0  0  0  0  0  0  0
   64.2431   25.8406   52.5660 H   0  0  0  0  0  0  0  0  0  0  0  0
   66.0367   27.5693   52.4830 H   0  0  0  0  0  0  0  0  0  0  0  0
   65.4810   29.9238   51.8804 H   0  0  0  0  0  0  0  0  0  0  0  0
  1  2  2  0
  2  3  1  0
  3  4  1  0
  4  5  2  0
  5  6  1  0
  6  7  1  0
  7  8  1  0
  8  9  2  0
  9 10  1  0
 10 11  1  0
 11 12  2  0
 11 13  1  0
 13 14  2  0
 14 15  1  0
 15 16  1  0
 16 17  1  0
 17 18  1  0
  6 19  2  0
 19 20  1  0
 20 21  2  0
 21 22  1  0
  2 23  1  0
 23 24  1  0
 24 25  1  0
 25 26  1  0
 26 27  2  0
 27 28  1  0
 28 29  2  0
 29 30  1  0
 30 31  2  0
 31 32  1  0
 32 33  1  0
 33 34  1  0
 33 35  1  0
 33 36  1  0
 21  4  1  0
 31 26  1  0
 14  8  1  0
 18 13  1  0
  5 37  1  0
  7 38  1  0
  7 39  1  0
 15 40  1  0
 16 41  1  0
 16 42  1  0
 17 43  1  0
 17 44  1  0
 18 45  1  0
 18 46  1  0
 19 47  1  0
 20 48  1  0
 23 49  1  0
 24 50  1  0
 24 51  1  0
 25 52  1  0
 25 53  1  0
 27 54  1  0
 28 55  1  0
 29 56  1  0
 30 57  1  0
M  CHG  2   3  -1  10  -1
M  END
>  <UniqueID>  (19) 
17

>  <SMILES>  (19) 
O=C([N-]c1cc(Cc2n[n-]c(=O)c3c2NCCC3)ccc1F)NCCc1ccccc1OC(F)(F)F

>  <Energy>  (19) 
62.47329907195189

>  <Genealogy>  (19) 
O=C([N-]c1cc(Cc2n[n-]c(=O)c3c2NCCC3)ccc1F)NCCc1ccccc1OC(F)(F)F (protonated)
O=C([N-]c1cc(Cc2n[n-]c(=O)c3c2NCCC3)ccc1F)NCCc1ccccc1OC(F)(F)F (3D coordinates assigned)
O=C([N-]c1cc(Cc2n[n-]c(=O)c3c2NCCC3)ccc1F)NCCc1ccccc1OC(F)(F)F (nonaromatic ring conformer: 62.47329907195189 kcal/mol)

>  <smiles>  (19) 
O=C(NCCc1ccccc1OC(F)(F)F)Nc1cc(Cc2n[nH]c(=O)c3c2NCCC3)ccc1F

>  <score_type>  (19) 
oracle

>  <origin>  (19) 
adg

>  <m_score__min__energy>  (19) 
-12.56

>  <m_primary>  (19) 
energy

$$$$
19:0
     RDKit          3D

 39 41  0  0  0  0  0  0  0  0999 V2000
   54.6012   24.6497   46.1287 H   0  0  0  0  0  0  0  0  0  0  0  0
   55.5130   25.2440   45.9690 C   0  0  0  0  0  0  0  0  0  0  0  0
   55.5090   26.6030   45.9780 N   0  0  0  0  0  0  0  0  0  0  0  0
   56.7430   27.1060   45.7630 C   0  0  0  0  0  0  0  0  0  0  0  0
   57.0320   28.3730   45.7050 N   0  0  0  0  0  0  0  0  0  0  0  0
   56.4740   29.3900   44.8510 C   0  0  0  0  0  0  0  0  0  0  0  0
   55.2940   29.7660   45.0810 O   0  0  0  0  0  0  0  0  0  0  0  0
   57.2360   29.9980   43.6840 C   0  0  2  0  0  0  0  0  0  0  0  0
   57.7701   29.1097   43.3156 H   0  0  0  0  0  0  0  0  0  0  0  0
   58.2190   31.0390   44.0430 N   0  0  0  0  0  0  0  0  0  0  0  0
   57.7320   32.1260   45.3390 S   0  0  0  0  0  0  0  0  0  0  0  0
   57.9800   31.4400   46.6540 O   0  0  0  0  0  0  0  0  0  0  0  0
   56.2610   32.4160   45.2400 O   0  0  0  0  0  0  0  0  0  0  0  0
   58.6370   33.6720   45.3260 C   0  0  0  0  0  0  0  0  0  0  0  0
   59.2549   33.7236   44.4174 H   0  0  0  0  0  0  0  0  0  0  0  0
   57.9209   34.5069   45.3415 H   0  0  0  0  0  0  0  0  0  0  0  0
   59.5240   33.7650   46.5350 C   0  0  0  0  0  0  0  0  0  0  0  0
   60.9120   33.5890   46.4100 C   0  0  0  0  0  0  0  0  0  0  0  0
   61.3481   33.3580   45.4269 H   0  0  0  0  0  0  0  0  0  0  0  0
   61.7420   33.7060   47.5290 C   0  0  0  0  0  0  0  0  0  0  0  0
   62.8274   33.5598   47.4265 H   0  0  0  0  0  0  0  0  0  0  0  0
   61.1920   34.0090   48.7790 C   0  0  0  0  0  0  0  0  0  0  0  0
   61.8448   34.0992   49.6597 H   0  0  0  0  0  0  0  0  0  0  0  0
   59.8140   34.1970   48.9090 C   0  0  0  0  0  0  0  0  0  0  0  0
   59.3832   34.4376   49.8921 H   0  0  0  0  0  0  0  0  0  0  0  0
   58.9810   34.0800   47.7920 C   0  0  0  0  0  0  0  0  0  0  0  0
   57.8971   34.2351   47.8977 H   0  0  0  0  0  0  0  0  0  0  0  0
   58.4480   31.7930   42.8020 C   0  0  0  0  0  0  0  0  0  0  0  0
   59.3743   31.4441   42.3221 H   0  0  0  0  0  0  0  0  0  0  0  0
   58.5449   32.8655   43.0266 H   0  0  0  0  0  0  0  0  0  0  0  0
   57.2630   31.5610   41.8640 C   0  0  0  0  0  0  0  0  0  0  0  0
   57.6091   31.1471   40.9054 H   0  0  0  0  0  0  0  0  0  0  0  0
   56.7346   32.4996   41.6408 H   0  0  0  0  0  0  0  0  0  0  0  0
   56.3610   30.5690   42.5720 C   0  0  0  0  0  0  0  0  0  0  0  0
   56.0373   29.7748   41.8831 H   0  0  0  0  0  0  0  0  0  0  0  0
   55.4409   31.0342   42.9556 H   0  0  0  0  0  0  0  0  0  0  0  0
   57.8830   25.8930   45.5480 S   0  0  0  0  0  0  0  0  0  0  0  0
   56.7550   24.6600   45.7430 C   0  0  0  0  0  0  0  0  0  0  0  0
   56.9633   23.5808   45.6994 H   0  0  0  0  0  0  0  0  0  0  0  0
  1  2  1  0
  2  3  1  0
  3  4  1  0
  4  5  2  0
  5  6  1  0
  6  7  2  0
  6  8  1  0
  8  9  1  6
  8 10  1  0
 10 11  1  0
 11 12  2  0
 11 13  2  0
 11 14  1  0
 14 15  1  0
 14 16  1  0
 14 17  1  0
 17 18  2  0
 18 19  1  0
 18 20  1  0
 20 21  1  0
 20 22  2  0
 22 23  1  0
 22 24  1  0
 24 25  1  0
 24 26  2  0
 26 27  1  0
 10 28  1  0
 28 29  1  0
 28 30  1  0
 28 31  1  0
 31 32  1  0
 31 33  1  0
 31 34  1  0
 34 35  1  0
 34 36  1  0
  4 37  1  0
 37 38  1  0
 38 39  1  0
 38  2  2  0
 34  8  1  0
 26 17  1  0
M  CHG  1   3  -1
M  END
>  <UniqueID>  (20) 
18

>  <SMILES>  (20) 
O=C(/N=c1\[n-]ccs1)[C@H]1CCCN1S(=O)(=O)Cc1ccccc1

>  <Energy>  (20) 
76.92192461132905

>  <Genealogy>  (20) 
O=C(N=c1[n-]ccs1)C1CCCN1S(=O)(=O)Cc1ccccc1 (protonated)
O=C(N=c1[n-]ccs1)[C@H]1CCCN1S(=O)(=O)Cc1ccccc1 (chirality)
O=C(/N=c1\[n-]ccs1)[C@H]1CCCN1S(=O)(=O)Cc1ccccc1 (cis-trans isomerization)
O=C(/N=c1\[n-]ccs1)[C@H]1CCCN1S(=O)(=O)Cc1ccccc1 (3D coordinates assigned)
O=C(/N=c1\[n-]ccs1)[C@H]1CCCN1S(=O)(=O)Cc1ccccc1 (nonaromatic ring conformer: 76.92192461132905 kcal/mol)

>  <smiles>  (20) 
O=C(N=c1[nH]ccs1)C1CCCN1S(=O)(=O)Cc1ccccc1

>  <score_type>  (20) 
oracle

>  <origin>  (20) 
adg

>  <m_score__min__energy>  (20) 
-10.43

>  <m_primary>  (20) 
energy

$$$$
20:0
     RDKit          3D

 46 48  0  0  0  0  0  0  0  0999 V2000
   58.4820   32.0690   49.1700 C   0  0  0  0  0  0  0  0  0  0  0  0
   57.9580   32.4120   47.8930 O   0  0  0  0  0  0  0  0  0  0  0  0
   58.4870   33.4040   47.0510 C   0  0  0  0  0  0  0  0  0  0  0  0
   59.5260   34.2590   47.4720 C   0  0  0  0  0  0  0  0  0  0  0  0
   60.0430   35.2230   46.6040 C   0  0  0  0  0  0  0  0  0  0  0  0
   59.5370   35.3450   45.3110 C   0  0  0  0  0  0  0  0  0  0  0  0
   58.5070   34.5070   44.8800 C   0  0  0  0  0  0  0  0  0  0  0  0
   57.9660   33.5440   45.7470 C   0  0  0  0  0  0  0  0  0  0  0  0
   56.8770   32.6240   45.2560 C   0  0  0  0  0  0  0  0  0  0  0  0
   57.2870   31.9870   44.0000 N   0  0  0  0  0  0  0  0  0  0  0  0
   56.9100   30.2920   44.0540 S   0  0  0  0  0  0  0  0  0  0  0  0
   55.5210   30.1010   44.5990 O   0  0  0  0  0  0  0  0  0  0  0  0
   56.9720   29.7220   42.6660 O   0  0  0  0  0  0  0  0  0  0  0  0
   58.0680   29.4510   45.0720 C   0  0  0  0  0  0  0  0  0  0  0  0
   58.6110   28.2090   44.8250 C   0  0  0  0  0  0  0  0  0  0  0  0
   59.5090   27.9110   45.7820 N   0  0  0  0  0  0  0  0  0  0  0  0
   59.5320   28.9550   46.6370 C   0  0  0  0  0  0  0  0  0  0  0  0
   60.4380   29.0630   47.7940 C   0  0  0  0  0  0  0  0  0  0  0  0
   60.6230   28.0480   48.5190 O   0  0  0  0  0  0  0  0  0  0  0  0
   61.1150   30.2920   48.1080 N   0  0  0  0  0  0  0  0  0  0  0  0
   61.6430   31.1980   47.0990 C   0  0  0  0  0  0  0  0  0  0  0  0
   62.3640   32.2950   47.8700 C   0  0  0  0  0  0  0  0  0  0  0  0
   62.5950   31.7390   49.2720 C   0  0  0  0  0  0  0  0  0  0  0  0
   61.6000   30.6000   49.4430 C   0  0  0  0  0  0  0  0  0  0  0  0
   58.6580   29.9420   46.2180 C   0  0  0  0  0  0  0  0  0  0  0  0
   57.8380   32.4905   49.9559 H   0  0  0  0  0  0  0  0  0  0  0  0
   58.5147   30.9741   49.2709 H   0  0  0  0  0  0  0  0  0  0  0  0
   59.4985   32.4771   49.2709 H   0  0  0  0  0  0  0  0  0  0  0  0
   59.9318   34.1662   48.4902 H   0  0  0  0  0  0  0  0  0  0  0  0
   60.8517   35.8878   46.9416 H   0  0  0  0  0  0  0  0  0  0  0  0
   59.9500   36.1029   44.6290 H   0  0  0  0  0  0  0  0  0  0  0  0
   58.1171   34.6016   43.8558 H   0  0  0  0  0  0  0  0  0  0  0  0
   56.6866   31.8485   46.0126 H   0  0  0  0  0  0  0  0  0  0  0  0
   55.9615   33.2085   45.0824 H   0  0  0  0  0  0  0  0  0  0  0  0
   58.3280   32.0560   43.9150 H   0  0  0  0  0  0  0  0  0  0  0  0
   58.3504   27.5604   43.9757 H   0  0  0  0  0  0  0  0  0  0  0  0
   60.1140   27.0620   45.8060 H   0  0  0  0  0  0  0  0  0  0  0  0
   62.3448   30.6689   46.4375 H   0  0  0  0  0  0  0  0  0  0  0  0
   60.8451   31.6061   46.4612 H   0  0  0  0  0  0  0  0  0  0  0  0
   63.3246   32.5322   47.3895 H   0  0  0  0  0  0  0  0  0  0  0  0
   61.7752   33.2238   47.8961 H   0  0  0  0  0  0  0  0  0  0  0  0
   63.6247   31.3644   49.3694 H   0  0  0  0  0  0  0  0  0  0  0  0
   62.4550   32.5140   50.0400 H   0  0  0  0  0  0  0  0  0  0  0  0
   62.0955   29.7217   49.8823 H   0  0  0  0  0  0  0  0  0  0  0  0
   60.7773   30.8799   50.1174 H   0  0  0  0  0  0  0  0  0  0  0  0
   58.4725   30.9142   46.6980 H   0  0  0  0  0  0  0  0  0  0  0  0
  1  2  1  0
  2  3  1  0
  3  4  2  0
  4  5  1  0
  5  6  2  0
  6  7  1  0
  7  8  2  0
  8  9  1  0
  9 10  1  0
 10 11  1  0
 11 12  2  0
 11 13  2  0
 11 14  1  0
 14 15  2  0
 15 16  1  0
 16 17  1  0
 17 18  1  0
 18 19  2  0
 18 20  1  0
 20 21  1  0
 21 22  1  0
 22 23  1  0
 23 24  1  0
 17 25  2  0
  8  3  1  0
 25 14  1  0
 24 20  1  0
  1 26  1  0
  1 27  1  0
  1 28  1  0
  4 29  1  0
  5 30  1  0
  6 31  1  0
  7 32  1  0
  9 33  1  0
  9 34  1  0
 10 35  1  0
 15 36  1  0
 16 37  1  0
 21 38  1  0
 21 39  1  0
 22 40  1  0
 22 41  1  0
 23 42  1  0
 23 43  1  0
 24 44  1  0
 24 45  1  0
 25 46  1  0
M  END
>  <UniqueID>  (21) 
19

>  <SMILES>  (21) 
COc1ccccc1CNS(=O)(=O)c1c[nH]c(C(=O)N2CCCC2)c1

>  <Energy>  (21) 
71.90071009830221

>  <Genealogy>  (21) 
COc1ccccc1CNS(=O)(=O)c1c[nH]c(C(=O)N2CCCC2)c1 (3D coordinates assigned)
COc1ccccc1CNS(=O)(=O)c1c[nH]c(C(=O)N2CCCC2)c1 (nonaromatic ring conformer: 71.90071009830221 kcal/mol)

>  <smiles>  (21) 
COc1ccccc1CNS(=O)(=O)c1c[nH]c(C(=O)N2CCCC2)c1

>  <score_type>  (21) 
oracle

>  <origin>  (21) 
adg

>  <m_score__min__energy>  (21) 
-8.25

>  <m_primary>  (21) 
energy

$$$$
21:0
     RDKit          3D

 43 45  0  0  0  0  0  0  0  0999 V2000
   58.1300   32.3430   42.1800 C   0  0  0  0  0  0  0  0  0  0  0  0
   57.3200   31.4240   43.0380 C   0  0  0  0  0  0  0  0  0  0  0  0
   56.6610   29.9690   42.5640 S   0  0  0  0  0  0  0  0  0  0  0  0
   55.9360   29.5650   43.9990 N   0  0  0  0  0  0  0  0  0  0  0  0
   56.1870   30.5410   44.8680 N   0  0  0  0  0  0  0  0  0  0  0  0
   56.9420   31.5740   44.3800 C   0  0  0  0  0  0  0  0  0  0  0  0
   57.2880   32.7320   45.2310 C   0  0  0  0  0  0  0  0  0  0  0  0
   56.3780   33.4510   45.7240 O   0  0  0  0  0  0  0  0  0  0  0  0
   58.6670   33.0580   45.4840 N   0  0  0  0  0  0  0  0  0  0  0  0
   59.1580   34.3740   45.0430 C   0  0  0  0  0  0  0  0  0  0  0  0
   60.1820   34.9560   46.0340 C   0  0  0  0  0  0  0  0  0  0  0  0
   59.7850   34.6140   47.4780 C   0  0  0  0  0  0  0  0  0  0  0  0
   59.7060   33.0900   47.7230 C   0  0  0  0  0  0  0  0  0  0  0  0
   59.5090   32.2830   46.4190 C   0  0  1  0  0  0  0  0  0  0  0  0
   58.9800   30.8500   46.6760 C   0  0  0  0  0  0  0  0  0  0  0  0
   59.8360   29.7810   45.9820 C   0  0  0  0  0  0  0  0  0  0  0  0
   58.9880   28.5990   45.5940 C   0  0  0  0  0  0  0  0  0  0  0  0
   58.9310   28.1770   44.2550 C   0  0  0  0  0  0  0  0  0  0  0  0
   58.1710   27.0570   43.9010 C   0  0  0  0  0  0  0  0  0  0  0  0
   57.4720   26.3470   44.8810 C   0  0  0  0  0  0  0  0  0  0  0  0
   57.5360   26.7520   46.2180 C   0  0  0  0  0  0  0  0  0  0  0  0
   58.2950   27.8710   46.5750 C   0  0  0  0  0  0  0  0  0  0  0  0
   58.7220   33.0146   42.8191 H   0  0  0  0  0  0  0  0  0  0  0  0
   58.8057   31.7513   41.5449 H   0  0  0  0  0  0  0  0  0  0  0  0
   57.4581   32.9390   41.5449 H   0  0  0  0  0  0  0  0  0  0  0  0
   59.6358   34.2654   44.0581 H   0  0  0  0  0  0  0  0  0  0  0  0
   58.3010   35.0615   44.9893 H   0  0  0  0  0  0  0  0  0  0  0  0
   61.1742   34.5316   45.8208 H   0  0  0  0  0  0  0  0  0  0  0  0
   60.2061   36.0499   45.9204 H   0  0  0  0  0  0  0  0  0  0  0  0
   60.5330   35.0431   48.1609 H   0  0  0  0  0  0  0  0  0  0  0  0
   58.7849   35.0347   47.6591 H   0  0  0  0  0  0  0  0  0  0  0  0
   60.6406   32.7620   48.2015 H   0  0  0  0  0  0  0  0  0  0  0  0
   58.8318   32.9024   48.3638 H   0  0  0  0  0  0  0  0  0  0  0  0
   60.4910   32.1311   45.9472 H   0  0  0  0  0  0  0  0  0  0  0  0
   58.9857   30.6596   47.7594 H   0  0  0  0  0  0  0  0  0  0  0  0
   57.9624   30.7873   46.2630 H   0  0  0  0  0  0  0  0  0  0  0  0
   60.2917   30.2122   45.0784 H   0  0  0  0  0  0  0  0  0  0  0  0
   60.6193   29.4449   46.6773 H   0  0  0  0  0  0  0  0  0  0  0  0
   59.4859   28.7292   43.4823 H   0  0  0  0  0  0  0  0  0  0  0  0
   58.1236   26.7349   42.8503 H   0  0  0  0  0  0  0  0  0  0  0  0
   56.8712   25.4692   44.6006 H   0  0  0  0  0  0  0  0  0  0  0  0
   56.9890   26.1900   46.9893 H   0  0  0  0  0  0  0  0  0  0  0  0
   58.3495   28.1823   47.6286 H   0  0  0  0  0  0  0  0  0  0  0  0
  1  2  1  0
  2  3  1  0
  3  4  1  0
  4  5  2  0
  5  6  1  0
  6  7  1  0
  7  8  2  0
  7  9  1  0
  9 10  1  0
 10 11  1  0
 11 12  1  0
 12 13  1  0
 13 14  1  0
 14 15  1  0
 15 16  1  0
 16 17  1  0
 17 18  2  0
 18 19  1  0
 19 20  2  0
 20 21  1  0
 21 22  2  0
  6  2  2  0
 14  9  1  0
 22 17  1  0
  1 23  1  0
  1 24  1  0
  1 25  1  0
 10 26  1  0
 10 27  1  0
 11 28  1  0
 11 29  1  0
 12 30  1  0
 12 31  1  0
 13 32  1  0
 13 33  1  0
 14 34  1  6
 15 35  1  0
 15 36  1  0
 16 37  1  0
 16 38  1  0
 18 39  1  0
 19 40  1  0
 20 41  1  0
 21 42  1  0
 22 43  1  0
M  END
>  <UniqueID>  (22) 
20

>  <SMILES>  (22) 
Cc1snnc1C(=O)N1CCCC[C@H]1CCc1ccccc1

>  <Energy>  (22) 
86.52867281298693

>  <Genealogy>  (22) 
Cc1snnc1C(=O)N1CCCC[C@H]1CCc1ccccc1 (chirality)
Cc1snnc1C(=O)N1CCCC[C@H]1CCc1ccccc1 (3D coordinates assigned)
Cc1snnc1C(=O)N1CCCC[C@H]1CCc1ccccc1 (nonaromatic ring conformer: 86.52867281298693 kcal/mol)

>  <smiles>  (22) 
Cc1snnc1C(=O)N1CCCCC1CCc1ccccc1

>  <score_type>  (22) 
oracle

>  <origin>  (22) 
adg

>  <m_score__min__energy>  (22) 
-8.4199999999999999

>  <m_primary>  (22) 
energy

$$$$
22:0
     RDKit          3D

 53 56  0  0  0  0  0  0  0  0999 V2000
   58.0010   25.4350   44.8490 O   0  0  0  0  0  0  0  0  0  0  0  0
   57.9220   26.6020   45.3120 C   0  0  0  0  0  0  0  0  0  0  0  0
   57.5220   26.7890   46.7490 C   0  0  0  0  0  0  0  0  0  0  0  0
   58.6620   27.2640   47.5230 N   0  0  0  0  0  0  0  0  0  0  0  0
   58.8750   28.5210   47.9490 C   0  0  0  0  0  0  0  0  0  0  0  0
   60.1030   28.5040   48.5790 C   0  0  0  0  0  0  0  0  0  0  0  0
   60.7840   29.6430   49.2130 C   0  0  0  0  0  0  0  0  0  0  0  0
   60.7320   29.7760   50.4670 O   0  0  0  0  0  0  0  0  0  0  0  0
   61.4970   30.6000   48.4140 N   0  0  0  0  0  0  0  0  0  0  0  0
   62.1750   31.7560   49.0100 C   0  0  0  0  0  0  0  0  0  0  0  0
   63.2630   32.3070   48.0950 C   0  0  0  0  0  0  0  0  0  0  0  0
   63.3510   33.8000   48.4010 C   0  0  0  0  0  0  0  0  0  0  0  0
   62.1160   34.1600   49.2260 C   0  0  0  0  0  0  0  0  0  0  0  0
   61.2260   32.9270   49.2270 C   0  0  0  0  0  0  0  0  0  0  0  0
   60.5990   27.2510   48.5110 N   0  0  0  0  0  0  0  0  0  0  0  0
   59.7050   26.5210   47.8580 N   0  0  0  0  0  0  0  0  0  0  0  0
   58.3160   27.7050   44.4840 N   0  0  0  0  0  0  0  0  0  0  0  0
   58.4170   29.0710   44.9040 C   0  0  0  0  0  0  0  0  0  0  0  0
   59.8370   29.7550   45.4640 S   0  0  0  0  0  0  0  0  0  0  0  0
   59.2180   31.3040   45.6740 C   0  0  0  0  0  0  0  0  0  0  0  0
   57.8550   31.3120   45.3140 C   0  0  0  0  0  0  0  0  0  0  0  0
   57.4160   30.0460   44.8420 C   0  0  0  0  0  0  0  0  0  0  0  0
   56.0920   29.7880   44.2390 C   0  0  0  0  0  0  0  0  0  0  0  0
   55.1590   29.3170   44.9440 O   0  0  0  0  0  0  0  0  0  0  0  0
   55.8430   30.1050   42.9110 O   0  0  0  0  0  0  0  0  0  0  0  0
   57.0060   32.5690   45.2440 C   0  0  0  0  0  0  0  0  0  0  0  0
   57.3070   33.5640   46.3760 C   0  0  0  0  0  0  0  0  0  0  0  0
   58.5030   34.4840   46.0750 C   0  0  0  0  0  0  0  0  0  0  0  0
   59.7320   33.7680   45.4900 C   0  0  0  0  0  0  0  0  0  0  0  0
   60.0500   32.4450   46.1980 C   0  0  0  0  0  0  0  0  0  0  0  0
   56.7081   27.5266   46.8081 H   0  0  0  0  0  0  0  0  0  0  0  0
   57.1817   25.8265   47.1586 H   0  0  0  0  0  0  0  0  0  0  0  0
   58.2074   29.3860   47.8216 H   0  0  0  0  0  0  0  0  0  0  0  0
   61.4810   30.4920   47.3740 H   0  0  0  0  0  0  0  0  0  0  0  0
   62.5837   31.3799   49.9595 H   0  0  0  0  0  0  0  0  0  0  0  0
   64.2246   31.8160   48.3053 H   0  0  0  0  0  0  0  0  0  0  0  0
   63.0299   32.1251   47.0355 H   0  0  0  0  0  0  0  0  0  0  0  0
   64.2645   34.0149   48.9748 H   0  0  0  0  0  0  0  0  0  0  0  0
   63.3890   34.3895   47.4731 H   0  0  0  0  0  0  0  0  0  0  0  0
   62.4078   34.4194   50.2544 H   0  0  0  0  0  0  0  0  0  0  0  0
   61.5925   35.0294   48.8016 H   0  0  0  0  0  0  0  0  0  0  0  0
   60.7036   32.8280   50.1900 H   0  0  0  0  0  0  0  0  0  0  0  0
   60.4483   32.9780   48.4507 H   0  0  0  0  0  0  0  0  0  0  0  0
   57.1956   33.0663   44.2813 H   0  0  0  0  0  0  0  0  0  0  0  0
   55.9552   32.2612   45.3489 H   0  0  0  0  0  0  0  0  0  0  0  0
   56.4168   34.1898   46.5368 H   0  0  0  0  0  0  0  0  0  0  0  0
   57.5655   32.9745   47.2680 H   0  0  0  0  0  0  0  0  0  0  0  0
   58.1754   35.2473   45.3538 H   0  0  0  0  0  0  0  0  0  0  0  0
   58.8197   34.9081   47.0393 H   0  0  0  0  0  0  0  0  0  0  0  0
   59.5427   33.5595   44.4266 H   0  0  0  0  0  0  0  0  0  0  0  0
   60.5973   34.4323   45.6313 H   0  0  0  0  0  0  0  0  0  0  0  0
   61.1131   32.2078   46.0444 H   0  0  0  0  0  0  0  0  0  0  0  0
   59.8174   32.5695   47.2659 H   0  0  0  0  0  0  0  0  0  0  0  0
  1  2  2  0
  2  3  1  0
  3  4  1  0
  4  5  1  0
  5  6  2  0
  6  7  1  0
  7  8  2  0
  7  9  1  0
  9 10  1  0
 10 11  1  0
 11 12  1  0
 12 13  1  0
 13 14  1  0
  6 15  1  0
 15 16  2  0
  2 17  1  0
 17 18  1  0
 18 19  1  0
 19 20  1  0
 20 21  2  0
 21 22  1  0
 22 23  1  0
 23 24  2  0
 23 25  1  0
 21 26  1  0
 26 27  1  0
 27 28  1  0
 28 29  1  0
 29 30  1  0
 16  4  1  0
 22 18  2  0
 14 10  1  0
 30 20  1  0
  3 31  1  0
  3 32  1  0
  5 33  1  0
  9 34  1  0
 10 35  1  0
 11 36  1  0
 11 37  1  0
 12 38  1  0
 12 39  1  0
 13 40  1  0
 13 41  1  0
 14 42  1  0
 14 43  1  0
 26 44  1  0
 26 45  1  0
 27 46  1  0
 27 47  1  0
 28 48  1  0
 28 49  1  0
 29 50  1  0
 29 51  1  0
 30 52  1  0
 30 53  1  0
M  CHG  2  17  -1  25  -1
M  END
>  <UniqueID>  (23) 
21

>  <SMILES>  (23) 
O=C(Cn1cc(C(=O)NC2CCCC2)nn1)[N-]c1sc2c(c1C(=O)[O-])CCCCC2

>  <Energy>  (23) 
125.90218773823084

>  <Genealogy>  (23) 
O=C(Cn1cc(C(=O)NC2CCCC2)nn1)[N-]c1sc2c(c1C(=O)[O-])CCCCC2 (protonated)
O=C(Cn1cc(C(=O)NC2CCCC2)nn1)[N-]c1sc2c(c1C(=O)[O-])CCCCC2 (3D coordinates assigned)
O=C(Cn1cc(C(=O)NC2CCCC2)nn1)[N-]c1sc2c(c1C(=O)[O-])CCCCC2 (nonaromatic ring conformer: 125.90218773823084 kcal/mol)

>  <smiles>  (23) 
O=C(Cn1cc(C(=O)NC2CCCC2)nn1)Nc1sc2c(c1C(=O)O)CCCCC2

>  <score_type>  (23) 
oracle

>  <origin>  (23) 
adg

>  <m_score__min__energy>  (23) 
-10.98

>  <m_primary>  (23) 
energy

$$$$
23:0
     RDKit          3D

 53 56  0  0  0  0  0  0  0  0999 V2000
   54.0170   26.3250   46.3670 H   0  0  0  0  0  0  0  0  0  0  0  0
   54.9660   26.4310   46.0330 O   0  0  0  0  0  0  0  0  0  0  0  0
   55.9550   25.5020   46.3500 C   0  0  0  0  0  0  0  0  0  0  0  0
   55.7700   24.4880   47.2110 N   0  0  0  0  0  0  0  0  0  0  0  0
   56.9630   23.8570   47.1900 C   0  0  0  0  0  0  0  0  0  0  0  0
   57.2000   22.8300   47.8780 O   0  0  0  0  0  0  0  0  0  0  0  0
   57.8820   24.4090   46.3690 N   0  0  0  0  0  0  0  0  0  0  0  0
   57.2390   25.4750   45.8540 C   0  0  0  0  0  0  0  0  0  0  0  0
   57.7810   26.3410   44.7930 C   0  0  0  0  0  0  0  0  0  0  0  0
   57.7671   25.9488   43.7654 H   0  0  0  0  0  0  0  0  0  0  0  0
   58.2920   27.5730   44.9770 C   0  0  0  0  0  0  0  0  0  0  0  0
   59.5180   27.7940   45.5820 C   0  0  0  0  0  0  0  0  0  0  0  0
   60.2309   27.0265   45.9177 H   0  0  0  0  0  0  0  0  0  0  0  0
   59.6740   29.1610   45.6830 C   0  0  0  0  0  0  0  0  0  0  0  0
   60.8640   29.8360   46.2970 C   0  0  0  0  0  0  0  0  0  0  0  0
   60.7856   29.7915   47.3933 H   0  0  0  0  0  0  0  0  0  0  0  0
   61.7828   29.3246   45.9740 H   0  0  0  0  0  0  0  0  0  0  0  0
   60.8965   30.8870   45.9740 H   0  0  0  0  0  0  0  0  0  0  0  0
   58.6220   29.7980   45.1230 N   0  0  0  0  0  0  0  0  0  0  0  0
   58.4580   31.2240   45.0200 C   0  0  0  0  0  0  0  0  0  0  0  0
   57.9820   31.7990   43.8330 C   0  0  0  0  0  0  0  0  0  0  0  0
   57.7283   31.1574   42.9763 H   0  0  0  0  0  0  0  0  0  0  0  0
   57.8290   33.1830   43.7350 C   0  0  0  0  0  0  0  0  0  0  0  0
   57.4575   33.6294   42.8008 H   0  0  0  0  0  0  0  0  0  0  0  0
   58.1470   34.0030   44.8220 C   0  0  0  0  0  0  0  0  0  0  0  0
   58.0237   35.0929   44.7382 H   0  0  0  0  0  0  0  0  0  0  0  0
   58.6230   33.4450   46.0210 C   0  0  0  0  0  0  0  0  0  0  0  0
   58.9560   34.3110   47.1760 C   0  0  0  0  0  0  0  0  0  0  0  0
   59.2580   35.5230   46.9930 O   0  0  0  0  0  0  0  0  0  0  0  0
   58.9360   33.7780   48.5030 N   0  0  0  0  0  0  0  0  0  0  0  0
   60.3550   33.1910   49.3020 S   0  0  0  0  0  0  0  0  0  0  0  0
   60.4120   33.7740   50.6870 O   0  0  0  0  0  0  0  0  0  0  0  0
   61.5840   33.6180   48.5530 O   0  0  0  0  0  0  0  0  0  0  0  0
   60.2710   31.4210   49.3970 C   0  0  0  0  0  0  0  0  0  0  0  0
   59.0430   30.8100   49.0870 C   0  0  0  0  0  0  0  0  0  0  0  0
   58.1863   31.4331   48.7908 H   0  0  0  0  0  0  0  0  0  0  0  0
   58.8970   29.4260   49.1500 C   0  0  0  0  0  0  0  0  0  0  0  0
   57.9295   28.9641   48.9037 H   0  0  0  0  0  0  0  0  0  0  0  0
   59.9730   28.6270   49.5240 C   0  0  0  0  0  0  0  0  0  0  0  0
   59.8520   27.5353   49.5839 H   0  0  0  0  0  0  0  0  0  0  0  0
   61.2050   29.2090   49.8230 C   0  0  0  0  0  0  0  0  0  0  0  0
   62.0465   28.5690   50.1267 H   0  0  0  0  0  0  0  0  0  0  0  0
   61.3890   30.6060   49.7420 C   0  0  0  0  0  0  0  0  0  0  0  0
   62.7490   31.1850   50.0900 C   0  0  0  0  0  0  0  0  0  0  0  0
   63.5290   30.2490   50.7400 F   0  0  0  0  0  0  0  0  0  0  0  0
   62.6330   32.2800   50.9300 F   0  0  0  0  0  0  0  0  0  0  0  0
   63.3850   31.5950   48.9330 F   0  0  0  0  0  0  0  0  0  0  0  0
   58.7770   32.0480   46.1090 C   0  0  0  0  0  0  0  0  0  0  0  0
   59.1511   31.5988   47.0408 H   0  0  0  0  0  0  0  0  0  0  0  0
   57.7760   28.8410   44.6570 C   0  0  0  0  0  0  0  0  0  0  0  0
   56.7220   29.1100   43.8710 C   0  0  0  0  0  0  0  0  0  0  0  0
   56.4166   30.1525   43.6983 H   0  0  0  0  0  0  0  0  0  0  0  0
   56.1635   28.2879   43.3995 H   0  0  0  0  0  0  0  0  0  0  0  0
  1  2  1  0
  2  3  1  0
  3  4  1  0
  4  5  1  0
  5  6  2  0
  5  7  1  0
  7  8  1  0
  8  9  1  0
  9 10  1  0
  9 11  2  0
 11 12  1  0
 12 13  1  0
 12 14  2  0
 14 15  1  0
 15 16  1  0
 15 17  1  0
 15 18  1  0
 14 19  1  0
 19 20  1  0
 20 21  2  0
 21 22  1  0
 21 23  1  0
 23 24  1  0
 23 25  2  0
 25 26  1  0
 25 27  1  0
 27 28  1  0
 28 29  2  0
 28 30  1  0
 30 31  1  0
 31 32  2  0
 31 33  2  0
 31 34  1  0
 34 35  2  0
 35 36  1  0
 35 37  1  0
 37 38  1  0
 37 39  2  0
 39 40  1  0
 39 41  1  0
 41 42  1  0
 41 43  2  0
 43 44  1  0
 44 45  1  0
 44 46  1  0
 44 47  1  0
 27 48  2  0
 48 49  1  0
 19 50  1  0
 50 51  2  0
 51 52  1  0
 51 53  1  0
  8  3  2  0
 50 11  1  0
 48 20  1  0
 43 34  1  0
M  CHG  3   4  -1   7  -1  30  -1
M  END
>  <UniqueID>  (24) 
22

>  <SMILES>  (24) 
C=c1/c(=C\c2[n-]c(=O)[n-]c2O)cc(C)n1-c1cccc(C(=O)[N-]S(=O)(=O)c2ccccc2C(F)(F)F)c1

>  <Energy>  (24) 
139.24981053207247

>  <Genealogy>  (24) 
C=c1c(=Cc2[n-]c(=O)[n-]c2O)cc(C)n1-c1cccc(C(=O)[N-]S(=O)(=O)c2ccccc2C(F)(F)F)c1 (protonated)
C=c1/c(=C\c2[n-]c(=O)[n-]c2O)cc(C)n1-c1cccc(C(=O)[N-]S(=O)(=O)c2ccccc2C(F)(F)F)c1 (cis-trans isomerization)
C=c1/c(=C\c2[n-]c(=O)[n-]c2O)cc(C)n1-c1cccc(C(=O)[N-]S(=O)(=O)c2ccccc2C(F)(F)F)c1 (3D coordinates assigned)
C=c1/c(=C\c2[n-]c(=O)[n-]c2O)cc(C)n1-c1cccc(C(=O)[N-]S(=O)(=O)c2ccccc2C(F)(F)F)c1 (optimized conformer: 139.24981053207247 kcal/mol)

>  <smiles>  (24) 
C=c1c(=Cc2[nH]c(=O)[nH]c2O)cc(C)n1-c1cccc(C(=O)NS(=O)(=O)c2ccccc2C(F)(F)F)c1

>  <score_type>  (24) 
oracle

>  <origin>  (24) 
adg

>  <m_score__min__energy>  (24) 
-15.630000000000001

>  <m_primary>  (24) 
energy

$$$$
24:0
     RDKit          3D

 66 69  0  0  0  0  0  0  0  0999 V2000
   53.8110   27.3800   55.4620 C   0  0  0  0  0  0  0  0  0  0  0  0
   53.7520   27.6440   53.9590 C   0  0  0  0  0  0  0  0  0  0  0  0
   55.0360   28.1720   53.4670 N   0  0  0  0  0  0  0  0  0  0  0  0
   55.1070   29.3220   52.5920 C   0  0  0  0  0  0  0  0  0  0  0  0
   56.1930   29.5950   52.0120 O   0  0  0  0  0  0  0  0  0  0  0  0
   53.9400   30.1980   52.3470 C   0  0  0  0  0  0  0  0  0  0  0  0
   53.5660   30.5190   51.0310 C   0  0  0  0  0  0  0  0  0  0  0  0
   52.4680   31.3500   50.7900 C   0  0  0  0  0  0  0  0  0  0  0  0
   51.7400   31.8780   51.8580 C   0  0  0  0  0  0  0  0  0  0  0  0
   50.6460   32.7020   51.6160 O   0  0  0  0  0  0  0  0  0  0  0  0
   52.1150   31.5800   53.1730 C   0  0  0  0  0  0  0  0  0  0  0  0
   53.2130   30.7430   53.4240 C   0  0  0  0  0  0  0  0  0  0  0  0
   53.5740   30.4440   54.7390 O   0  0  0  0  0  0  0  0  0  0  0  0
   56.2470   27.7160   54.0900 C   0  0  0  0  0  0  0  0  0  0  0  0
   56.6730   26.3960   53.8930 C   0  0  0  0  0  0  0  0  0  0  0  0
   57.8750   25.9540   54.4500 C   0  0  0  0  0  0  0  0  0  0  0  0
   58.6620   26.8320   55.1980 C   0  0  0  0  0  0  0  0  0  0  0  0
   58.2500   28.1550   55.3910 C   0  0  0  0  0  0  0  0  0  0  0  0
   57.0370   28.6090   54.8350 C   0  0  0  0  0  0  0  0  0  0  0  0
   56.5900   29.9330   54.9870 O   0  0  0  0  0  0  0  0  0  0  0  0
   57.4190   31.0930   54.9390 C   0  0  0  0  0  0  0  0  0  0  0  0
   57.8730   31.3510   53.5280 C   0  0  0  0  0  0  0  0  0  0  0  0
   57.3960   32.4730   52.8350 C   0  0  0  0  0  0  0  0  0  0  0  0
   57.7950   32.7100   51.5170 C   0  0  0  0  0  0  0  0  0  0  0  0
   58.6770   31.8280   50.8700 C   0  0  0  0  0  0  0  0  0  0  0  0
   59.0920   32.0800   49.4690 C   0  0  0  0  0  0  0  0  0  0  0  0
   58.2180   32.3160   48.5930 O   0  0  0  0  0  0  0  0  0  0  0  0
   60.4810   32.0820   49.0930 N   0  0  0  0  0  0  0  0  0  0  0  0
   61.3390   30.9290   49.4010 C   0  0  0  0  0  0  0  0  0  0  0  0
   62.7570   31.3850   49.8140 C   0  0  0  0  0  0  0  0  0  0  0  0
   63.0410   32.7900   49.4400 N   0  0  0  0  0  0  0  0  0  0  0  0
   64.4870   33.0520   49.4860 C   0  0  0  0  0  0  0  0  0  0  0  0
   62.5000   33.1020   48.1050 C   0  0  0  0  0  0  0  0  0  0  0  0
   60.9710   33.1220   48.1820 C   0  0  0  0  0  0  0  0  0  0  0  0
   59.1800   30.7250   51.5820 C   0  0  0  0  0  0  0  0  0  0  0  0
   58.7770   30.4840   52.8960 C   0  0  0  0  0  0  0  0  0  0  0  0
   53.6025   28.3127   56.0066 H   0  0  0  0  0  0  0  0  0  0  0  0
   53.0600   26.6227   55.7310 H   0  0  0  0  0  0  0  0  0  0  0  0
   54.8130   27.0144   55.7310 H   0  0  0  0  0  0  0  0  0  0  0  0
   53.5259   26.7027   53.4367 H   0  0  0  0  0  0  0  0  0  0  0  0
   52.9675   28.3899   53.7639 H   0  0  0  0  0  0  0  0  0  0  0  0
   54.1408   30.1138   50.1852 H   0  0  0  0  0  0  0  0  0  0  0  0
   52.1768   31.5885   49.7564 H   0  0  0  0  0  0  0  0  0  0  0  0
   51.5463   32.0039   54.0138 H   0  0  0  0  0  0  0  0  0  0  0  0
   54.5360   30.2540   54.9980 H   0  0  0  0  0  0  0  0  0  0  0  0
   56.0584   25.7051   53.2973 H   0  0  0  0  0  0  0  0  0  0  0  0
   58.2017   24.9145   54.2995 H   0  0  0  0  0  0  0  0  0  0  0  0
   59.6083   26.4826   55.6366 H   0  0  0  0  0  0  0  0  0  0  0  0
   58.8750   28.8434   55.9788 H   0  0  0  0  0  0  0  0  0  0  0  0
   56.8496   31.9615   55.3017 H   0  0  0  0  0  0  0  0  0  0  0  0
   58.3014   30.9293   55.5750 H   0  0  0  0  0  0  0  0  0  0  0  0
   56.7045   33.1698   53.3313 H   0  0  0  0  0  0  0  0  0  0  0  0
   57.4159   33.5933   50.9821 H   0  0  0  0  0  0  0  0  0  0  0  0
   60.8904   30.3579   50.2272 H   0  0  0  0  0  0  0  0  0  0  0  0
   61.4217   30.3043   48.4994 H   0  0  0  0  0  0  0  0  0  0  0  0
   62.8541   31.2855   50.9052 H   0  0  0  0  0  0  0  0  0  0  0  0
   63.4778   30.7484   49.2799 H   0  0  0  0  0  0  0  0  0  0  0  0
   64.8157   33.1116   50.5341 H   0  0  0  0  0  0  0  0  0  0  0  0
   65.0237   32.2365   48.9792 H   0  0  0  0  0  0  0  0  0  0  0  0
   64.7035   34.0040   48.9792 H   0  0  0  0  0  0  0  0  0  0  0  0
   62.8662   34.0867   47.7790 H   0  0  0  0  0  0  0  0  0  0  0  0
   62.8269   32.3395   47.3828 H   0  0  0  0  0  0  0  0  0  0  0  0
   60.6413   34.1058   48.5473 H   0  0  0  0  0  0  0  0  0  0  0  0
   60.5652   32.9304   47.1777 H   0  0  0  0  0  0  0  0  0  0  0  0
   59.8978   30.0458   51.0988 H   0  0  0  0  0  0  0  0  0  0  0  0
   59.1695   29.6111   53.4383 H   0  0  0  0  0  0  0  0  0  0  0  0
  1  2  1  0
  2  3  1  0
  3  4  1  0
  4  5  2  0
  4  6  1  0
  6  7  2  0
  7  8  1  0
  8  9  2  0
  9 10  1  0
  9 11  1  0
 11 12  2  0
 12 13  1  0
  3 14  1  0
 14 15  2  0
 15 16  1  0
 16 17  2  0
 17 18  1  0
 18 19  2  0
 19 20  1  0
 20 21  1  0
 21 22  1  0
 22 23  2  0
 23 24  1  0
 24 25  2  0
 25 26  1  0
 26 27  2  0
 26 28  1  0
 28 29  1  0
 29 30  1  0
 30 31  1  0
 31 32  1  0
 31 33  1  0
 33 34  1  0
 25 35  1  0
 35 36  2  0
 12  6  1  0
 19 14  1  0
 36 22  1  0
 34 28  1  0
  1 37  1  0
  1 38  1  0
  1 39  1  0
  2 40  1  0
  2 41  1  0
  7 42  1  0
  8 43  1  0
 11 44  1  0
 13 45  1  0
 15 46  1  0
 16 47  1  0
 17 48  1  0
 18 49  1  0
 21 50  1  0
 21 51  1  0
 23 52  1  0
 24 53  1  0
 29 54  1  0
 29 55  1  0
 30 56  1  0
 30 57  1  0
 32 58  1  0
 32 59  1  0
 32 60  1  0
 33 61  1  0
 33 62  1  0
 34 63  1  0
 34 64  1  0
 35 65  1  0
 36 66  1  0
M  CHG  1  10  -1
M  END
>  <UniqueID>  (25) 
23

>  <SMILES>  (25) 
CCN(C(=O)c1ccc([O-])cc1O)c1ccccc1OCc1ccc(C(=O)N2CCN(C)CC2)cc1

>  <Energy>  (25) 
87.75157548606414

>  <Genealogy>  (25) 
CCN(C(=O)c1ccc([O-])cc1O)c1ccccc1OCc1ccc(C(=O)N2CCN(C)CC2)cc1 (protonated)
CCN(C(=O)c1ccc([O-])cc1O)c1ccccc1OCc1ccc(C(=O)N2CCN(C)CC2)cc1 (3D coordinates assigned)
CCN(C(=O)c1ccc([O-])cc1O)c1ccccc1OCc1ccc(C(=O)N2CCN(C)CC2)cc1 (nonaromatic ring conformer: 87.75157548606414 kcal/mol)

>  <smiles>  (25) 
CCN(C(=O)c1ccc(O)cc1O)c1ccccc1OCc1ccc(C(=O)N2CCN(C)CC2)cc1

>  <score_type>  (25) 
oracle

>  <origin>  (25) 
adg

>  <m_score__min__energy>  (25) 
-12

>  <m_primary>  (25) 
energy

$$$$
25:0
     RDKit          3D

 62 65  0  0  1  0  0  0  0  0999 V2000
   57.5660   30.7650   44.8030 C   0  0  0  0  0  0  0  0  0  0  0  0
   56.5380   29.6760   44.7970 N   0  0  0  0  0  0  0  0  0  0  0  0
   56.2720   29.4210   43.4210 C   0  0  0  0  0  0  0  0  0  0  0  0
   57.0250   28.6510   45.6170 C   0  0  0  0  0  0  0  0  0  0  0  0
   57.7050   27.4520   45.0510 C   0  0  1  0  0  0  0  0  0  0  0  0
   59.0450   27.7540   44.4720 C   0  0  0  0  0  0  0  0  0  0  0  0
   59.9830   27.7550   45.5190 N   0  0  0  0  0  0  0  0  0  0  0  0
   60.7120   28.8440   45.9110 C   0  0  0  0  0  0  0  0  0  0  0  0
   60.1220   29.6490   47.0280 C   0  0  0  0  0  0  0  0  0  0  0  0
   59.7770   29.2490   48.2630 N   0  0  0  0  0  0  0  0  0  0  0  0
   59.3010   30.3220   48.8880 N   0  0  0  0  0  0  0  0  0  0  0  0
   59.3360   31.3930   48.0760 C   0  0  0  0  0  0  0  0  0  0  0  0
   58.8890   32.7620   48.4200 C   0  0  0  0  0  0  0  0  0  0  0  0
   58.7550   33.5550   47.1640 C   0  0  0  0  0  0  0  0  0  0  0  0
   57.5410   33.4830   46.4940 C   0  0  0  0  0  0  0  0  0  0  0  0
   57.3930   34.2110   45.3260 C   0  0  0  0  0  0  0  0  0  0  0  0
   58.4580   34.9710   44.8840 C   0  0  0  0  0  0  0  0  0  0  0  0
   59.6590   35.0440   45.5460 C   0  0  0  0  0  0  0  0  0  0  0  0
   59.8030   34.3190   46.7080 C   0  0  0  0  0  0  0  0  0  0  0  0
   59.8540   30.9730   46.9000 N   0  0  0  0  0  0  0  0  0  0  0  0
   60.2390   26.4610   46.0780 C   0  0  0  0  0  0  0  0  0  0  0  0
   58.9710   25.6630   46.1570 C   0  0  0  0  0  0  0  0  0  0  0  0
   57.7840   26.4380   46.0380 N   0  0  0  0  0  0  0  0  0  0  0  0
   56.3590   25.4410   46.1050 S   0  0  0  0  0  0  0  0  0  0  0  0
   56.1970   24.8680   47.4910 O   0  0  0  0  0  0  0  0  0  0  0  0
   55.1460   26.1940   45.6890 O   0  0  0  0  0  0  0  0  0  0  0  0
   56.5600   24.1280   44.9710 C   0  0  0  0  0  0  0  0  0  0  0  0
   57.3750   23.0780   45.3440 C   0  0  0  0  0  0  0  0  0  0  0  0
   57.5800   22.0070   44.5020 C   0  0  0  0  0  0  0  0  0  0  0  0
   56.9630   21.9770   43.2670 C   0  0  0  0  0  0  0  0  0  0  0  0
   56.1470   23.0270   42.8920 C   0  0  0  0  0  0  0  0  0  0  0  0
   55.9460   24.0950   43.7380 C   0  0  0  0  0  0  0  0  0  0  0  0
   57.8148   31.0286   45.8416 H   0  0  0  0  0  0  0  0  0  0  0  0
   58.4722   30.4166   44.2859 H   0  0  0  0  0  0  0  0  0  0  0  0
   57.1660   31.6497   44.2859 H   0  0  0  0  0  0  0  0  0  0  0  0
   55.4804   28.6621   43.3351 H   0  0  0  0  0  0  0  0  0  0  0  0
   55.9436   30.3503   42.9327 H   0  0  0  0  0  0  0  0  0  0  0  0
   57.1867   29.0536   42.9327 H   0  0  0  0  0  0  0  0  0  0  0  0
   57.7453   29.1199   46.3036 H   0  0  0  0  0  0  0  0  0  0  0  0
   56.1002   28.2224   46.0306 H   0  0  0  0  0  0  0  0  0  0  0  0
   57.0947   27.0946   44.2085 H   0  0  0  0  0  0  0  0  0  0  0  0
   59.3131   26.9856   43.7319 H   0  0  0  0  0  0  0  0  0  0  0  0
   59.0318   28.7333   43.9712 H   0  0  0  0  0  0  0  0  0  0  0  0
   61.7018   28.4900   46.2349 H   0  0  0  0  0  0  0  0  0  0  0  0
   60.7432   29.5150   45.0399 H   0  0  0  0  0  0  0  0  0  0  0  0
   58.9520   30.3410   49.8540 H   0  0  0  0  0  0  0  0  0  0  0  0
   57.9171   32.7154   48.9330 H   0  0  0  0  0  0  0  0  0  0  0  0
   59.6239   33.2384   49.0855 H   0  0  0  0  0  0  0  0  0  0  0  0
   56.7185   32.8637   46.8812 H   0  0  0  0  0  0  0  0  0  0  0  0
   56.4485   34.1848   44.7627 H   0  0  0  0  0  0  0  0  0  0  0  0
   58.3382   35.5471   43.9546 H   0  0  0  0  0  0  0  0  0  0  0  0
   60.4818   35.6634   45.1595 H   0  0  0  0  0  0  0  0  0  0  0  0
   60.7497   34.3510   47.2672 H   0  0  0  0  0  0  0  0  0  0  0  0
   60.9627   25.9290   45.4430 H   0  0  0  0  0  0  0  0  0  0  0  0
   60.6450   26.5856   47.0927 H   0  0  0  0  0  0  0  0  0  0  0  0
   58.9803   24.9200   45.3459 H   0  0  0  0  0  0  0  0  0  0  0  0
   58.9490   25.2040   47.1564 H   0  0  0  0  0  0  0  0  0  0  0  0
   57.8676   23.0968   46.3273 H   0  0  0  0  0  0  0  0  0  0  0  0
   58.2332   21.1782   44.8126 H   0  0  0  0  0  0  0  0  0  0  0  0
   57.1196   21.1255   42.5884 H   0  0  0  0  0  0  0  0  0  0  0  0
   55.6535   23.0098   41.9091 H   0  0  0  0  0  0  0  0  0  0  0  0
   55.2931   24.9244   43.4283 H   0  0  0  0  0  0  0  0  0  0  0  0
  1  2  1  0
  2  3  1  0
  2  4  1  0
  4  5  1  0
  5  6  1  0
  6  7  1  0
  7  8  1  0
  8  9  1  0
  9 10  2  0
 10 11  1  0
 11 12  1  0
 12 13  1  0
 13 14  1  0
 14 15  2  0
 15 16  1  0
 16 17  2  0
 17 18  1  0
 18 19  2  0
 12 20  2  0
  7 21  1  0
 21 22  1  0
 22 23  1  0
 23 24  1  0
 24 25  2  0
 24 26  2  0
 24 27  1  0
 27 28  2  0
 28 29  1  0
 29 30  2  0
 30 31  1  0
 31 32  2  0
 23  5  1  0
 32 27  1  0
 20  9  1  0
 19 14  1  0
  1 33  1  0
  1 34  1  0
  1 35  1  0
  3 36  1  0
  3 37  1  0
  3 38  1  0
  4 39  1  0
  4 40  1  0
  5 41  1  6
  6 42  1  0
  6 43  1  0
  8 44  1  0
  8 45  1  0
 11 46  1  0
 13 47  1  0
 13 48  1  0
 15 49  1  0
 16 50  1  0
 17 51  1  0
 18 52  1  0
 19 53  1  0
 21 54  1  0
 21 55  1  0
 22 56  1  0
 22 57  1  0
 28 58  1  0
 29 59  1  0
 30 60  1  0
 31 61  1  0
 32 62  1  0
M  END
>  <smiles>  (26) 
CN(C)CC1CN(Cc2n[nH]c(Cc3ccccc3)n2)CCN1S(=O)(=O)c1ccccc1

>  <score_type>  (26) 
oracle

>  <origin>  (26) 
adg

>  <m_score__min__energy>  (26) 
-10.130000000000001

>  <m_primary>  (26) 
energy

$$$$
26:0
     RDKit          3D

 60 64  0  0  0  0  0  0  0  0999 V2000
   57.0780   29.2390   52.0180 O   0  0  0  0  0  0  0  0  0  0  0  0
   56.5740   30.3810   52.1990 C   0  0  0  0  0  0  0  0  0  0  0  0
   55.2100   30.5100   52.8420 C   0  0  0  0  0  0  0  0  0  0  0  0
   54.4040   29.2160   52.7730 C   0  0  0  0  0  0  0  0  0  0  0  0
   53.3440   29.9170   51.9330 C   0  0  0  0  0  0  0  0  0  0  0  0
   54.1390   31.2140   52.0030 C   0  0  0  0  0  0  0  0  0  0  0  0
   57.3350   31.5610   51.8830 N   0  0  0  0  0  0  0  0  0  0  0  0
   57.4050   32.7420   52.7470 C   0  0  0  0  0  0  0  0  0  0  0  0
   58.5330   33.6340   52.1780 C   0  0  0  0  0  0  0  0  0  0  0  0
   59.0140   32.8680   51.0000 C   0  0  0  0  0  0  0  0  0  0  0  0
   60.0320   33.2210   50.1140 C   0  0  0  0  0  0  0  0  0  0  0  0
   60.3170   32.3630   49.0370 C   0  0  0  0  0  0  0  0  0  0  0  0
   61.6380   32.7600   47.9450 S   0  0  0  0  0  0  0  0  0  0  0  0
   62.1220   31.4960   47.2940 O   0  0  0  0  0  0  0  0  0  0  0  0
   62.7830   33.3910   48.6880 O   0  0  0  0  0  0  0  0  0  0  0  0
   61.0670   33.8560   46.7270 N   0  0  0  0  0  0  0  0  0  0  0  0
   59.8160   33.6860   46.0360 C   0  0  0  0  0  0  0  0  0  0  0  0
   59.0860   34.7870   45.5510 C   0  0  0  0  0  0  0  0  0  0  0  0
   57.8750   34.5910   44.8830 C   0  0  0  0  0  0  0  0  0  0  0  0
   57.3840   33.2990   44.6830 C   0  0  0  0  0  0  0  0  0  0  0  0
   58.1080   32.1900   45.1440 C   0  0  0  0  0  0  0  0  0  0  0  0
   57.4890   30.5560   44.8880 S   0  0  0  0  0  0  0  0  0  0  0  0
   55.9860   30.5980   44.8660 O   0  0  0  0  0  0  0  0  0  0  0  0
   57.9590   30.0620   43.5470 O   0  0  0  0  0  0  0  0  0  0  0  0
   58.0120   29.4310   46.1180 N   0  0  0  0  0  0  0  0  0  0  0  0
   57.3980   28.1150   45.9570 C   0  0  0  0  0  0  0  0  0  0  0  0
   58.3470   27.1160   46.6070 C   0  0  0  0  0  0  0  0  0  0  0  0
   59.6760   27.8460   46.7380 C   0  0  0  0  0  0  0  0  0  0  0  0
   59.4520   29.1930   46.0700 C   0  0  0  0  0  0  0  0  0  0  0  0
   59.3190   32.3910   45.8240 C   0  0  0  0  0  0  0  0  0  0  0  0
   59.5650   31.1810   48.8610 C   0  0  0  0  0  0  0  0  0  0  0  0
   58.5480   30.8470   49.7700 C   0  0  0  0  0  0  0  0  0  0  0  0
   58.3070   31.7050   50.8530 C   0  0  0  0  0  0  0  0  0  0  0  0
   55.5168   30.9557   53.7997 H   0  0  0  0  0  0  0  0  0  0  0  0
   54.9180   28.3946   52.2524 H   0  0  0  0  0  0  0  0  0  0  0  0
   54.1218   28.6873   53.6954 H   0  0  0  0  0  0  0  0  0  0  0  0
   53.2370   29.5111   50.9163 H   0  0  0  0  0  0  0  0  0  0  0  0
   52.2882   29.8958   52.2410 H   0  0  0  0  0  0  0  0  0  0  0  0
   54.4974   31.5745   51.0275 H   0  0  0  0  0  0  0  0  0  0  0  0
   53.6661   32.1388   52.3651 H   0  0  0  0  0  0  0  0  0  0  0  0
   56.4473   33.2829   52.7301 H   0  0  0  0  0  0  0  0  0  0  0  0
   57.6078   32.4606   53.7909 H   0  0  0  0  0  0  0  0  0  0  0  0
   58.1432   34.6173   51.8761 H   0  0  0  0  0  0  0  0  0  0  0  0
   59.3276   33.8417   52.9097 H   0  0  0  0  0  0  0  0  0  0  0  0
   60.6005   34.1521   50.2550 H   0  0  0  0  0  0  0  0  0  0  0  0
   61.7370   34.5820   46.3900 H   0  0  0  0  0  0  0  0  0  0  0  0
   59.4709   35.8068   45.6986 H   0  0  0  0  0  0  0  0  0  0  0  0
   57.3063   35.4570   44.5133 H   0  0  0  0  0  0  0  0  0  0  0  0
   56.4265   33.1508   44.1623 H   0  0  0  0  0  0  0  0  0  0  0  0
   56.4179   28.0888   46.4557 H   0  0  0  0  0  0  0  0  0  0  0  0
   57.2349   27.8779   44.8953 H   0  0  0  0  0  0  0  0  0  0  0  0
   57.9725   26.8180   47.5974 H   0  0  0  0  0  0  0  0  0  0  0  0
   58.4429   26.1962   46.0113 H   0  0  0  0  0  0  0  0  0  0  0  0
   59.9414   27.9790   47.7972 H   0  0  0  0  0  0  0  0  0  0  0  0
   60.5021   27.2870   46.2743 H   0  0  0  0  0  0  0  0  0  0  0  0
   59.9886   29.9838   46.6147 H   0  0  0  0  0  0  0  0  0  0  0  0
   59.8271   29.1975   45.0359 H   0  0  0  0  0  0  0  0  0  0  0  0
   59.8849   31.5237   46.1950 H   0  0  0  0  0  0  0  0  0  0  0  0
   59.7766   30.5190   48.0083 H   0  0  0  0  0  0  0  0  0  0  0  0
   57.9529   29.9317   49.6355 H   0  0  0  0  0  0  0  0  0  0  0  0
  1  2  2  0
  2  3  1  0
  3  4  1  0
  4  5  1  0
  5  6  1  0
  2  7  1  0
  7  8  1  0
  8  9  1  0
  9 10  1  0
 10 11  2  0
 11 12  1  0
 12 13  1  0
 13 14  2  0
 13 15  2  0
 13 16  1  0
 16 17  1  0
 17 18  2  0
 18 19  1  0
 19 20  2  0
 20 21  1  0
 21 22  1  0
 22 23  2  0
 22 24  2  0
 22 25  1  0
 25 26  1  0
 26 27  1  0
 27 28  1  0
 28 29  1  0
 21 30  2  0
 12 31  2  0
 31 32  1  0
 32 33  2  0
  6  3  1  0
 33  7  1  0
 33 10  1  0
 30 17  1  0
 29 25  1  0
  3 34  1  0
  4 35  1  0
  4 36  1  0
  5 37  1  0
  5 38  1  0
  6 39  1  0
  6 40  1  0
  8 41  1  0
  8 42  1  0
  9 43  1  0
  9 44  1  0
 11 45  1  0
 16 46  1  0
 18 47  1  0
 19 48  1  0
 20 49  1  0
 26 50  1  0
 26 51  1  0
 27 52  1  0
 27 53  1  0
 28 54  1  0
 28 55  1  0
 29 56  1  0
 29 57  1  0
 30 58  1  0
 31 59  1  0
 32 60  1  0
M  END
>  <UniqueID>  (27) 
24

>  <SMILES>  (27) 
O=C(C1CCC1)N1CCc2cc(S(=O)(=O)Nc3cccc(S(=O)(=O)N4CCCC4)c3)ccc21

>  <Energy>  (27) 
143.50383241972747

>  <Genealogy>  (27) 
O=C(C1CCC1)N1CCc2cc(S(=O)(=O)Nc3cccc(S(=O)(=O)N4CCCC4)c3)ccc21 (3D coordinates assigned)
O=C(C1CCC1)N1CCc2cc(S(=O)(=O)Nc3cccc(S(=O)(=O)N4CCCC4)c3)ccc21 (nonaromatic ring conformer: 143.50383241972747 kcal/mol)

>  <smiles>  (27) 
O=C(C1CCC1)N1CCc2cc(S(=O)(=O)Nc3cccc(S(=O)(=O)N4CCCC4)c3)ccc21

>  <score_type>  (27) 
oracle

>  <origin>  (27) 
adg

>  <m_score__min__energy>  (27) 
-12.49

>  <m_primary>  (27) 
energy

$$$$
27:0
     RDKit          3D

 45 47  0  0  0  0  0  0  0  0999 V2000
   57.0950   28.9530   53.5750 O   0  0  0  0  0  0  0  0  0  0  0  0
   57.1320   29.7780   52.6240 C   0  0  0  0  0  0  0  0  0  0  0  0
   56.1570   30.8890   52.5730 C   0  0  0  0  0  0  0  0  0  0  0  0
   55.2180   30.9710   51.6190 C   0  0  0  0  0  0  0  0  0  0  0  0
   53.7710   30.7510   51.8630 C   0  0  0  0  0  0  0  0  0  0  0  0
   52.8820   31.8140   51.6300 C   0  0  0  0  0  0  0  0  0  0  0  0
   51.5060   31.6500   51.8330 C   0  0  0  0  0  0  0  0  0  0  0  0
   50.6400   32.7110   51.6010 O   0  0  0  0  0  0  0  0  0  0  0  0
   51.0050   30.4210   52.2660 C   0  0  0  0  0  0  0  0  0  0  0  0
   51.8750   29.3530   52.4910 C   0  0  0  0  0  0  0  0  0  0  0  0
   51.3840   28.1550   52.8960 F   0  0  0  0  0  0  0  0  0  0  0  0
   53.2500   29.5110   52.2890 C   0  0  0  0  0  0  0  0  0  0  0  0
   58.1360   29.6110   51.6120 N   0  0  0  0  0  0  0  0  0  0  0  0
   59.0020   30.6630   51.0900 C   0  0  0  0  0  0  0  0  0  0  0  0
   58.8360   30.8020   49.5990 C   0  0  0  0  0  0  0  0  0  0  0  0
   58.6780   32.0670   49.0110 C   0  0  0  0  0  0  0  0  0  0  0  0
   58.5070   32.1890   47.6300 C   0  0  0  0  0  0  0  0  0  0  0  0
   58.4930   31.0470   46.8150 C   0  0  0  0  0  0  0  0  0  0  0  0
   58.3320   31.1880   45.3290 C   0  0  0  0  0  0  0  0  0  0  0  0
   56.9620   30.8620   44.9580 N   0  0  0  0  0  0  0  0  0  0  0  0
   56.5960   29.6120   44.3720 C   0  0  0  0  0  0  0  0  0  0  0  0
   56.9420   29.3690   43.1840 O   0  0  0  0  0  0  0  0  0  0  0  0
   55.8520   28.6490   45.1370 N   0  0  0  0  0  0  0  0  0  0  0  0
   56.2950   27.5100   45.5750 C   0  0  0  0  0  0  0  0  0  0  0  0
   55.5100   26.5060   46.0290 N   0  0  0  0  0  0  0  0  0  0  0  0
   56.2520   25.4400   46.4310 C   0  0  0  0  0  0  0  0  0  0  0  0
   57.6280   25.5920   46.2940 C   0  0  0  0  0  0  0  0  0  0  0  0
   57.9260   27.1170   45.6510 S   0  0  0  0  0  0  0  0  0  0  0  0
   58.6790   29.7840   47.3980 C   0  0  0  0  0  0  0  0  0  0  0  0
   58.8480   29.6630   48.7810 C   0  0  0  0  0  0  0  0  0  0  0  0
   56.2036   31.6736   53.3426 H   0  0  0  0  0  0  0  0  0  0  0  0
   55.5393   31.2157   50.5958 H   0  0  0  0  0  0  0  0  0  0  0  0
   53.2703   32.7837   51.2851 H   0  0  0  0  0  0  0  0  0  0  0  0
   49.9247   30.2943   52.4298 H   0  0  0  0  0  0  0  0  0  0  0  0
   53.9292   28.6634   52.4633 H   0  0  0  0  0  0  0  0  0  0  0  0
   58.7417   31.6168   51.5723 H   0  0  0  0  0  0  0  0  0  0  0  0
   60.0477   30.3979   51.3051 H   0  0  0  0  0  0  0  0  0  0  0  0
   58.6889   32.9680   49.6419 H   0  0  0  0  0  0  0  0  0  0  0  0
   58.3828   33.1848   47.1795 H   0  0  0  0  0  0  0  0  0  0  0  0
   58.5562   32.2232   45.0321 H   0  0  0  0  0  0  0  0  0  0  0  0
   59.0242   30.5028   44.8177 H   0  0  0  0  0  0  0  0  0  0  0  0
   55.7972   24.5237   46.8353 H   0  0  0  0  0  0  0  0  0  0  0  0
   58.3894   24.8440   46.5602 H   0  0  0  0  0  0  0  0  0  0  0  0
   58.6919   28.8850   46.7642 H   0  0  0  0  0  0  0  0  0  0  0  0
   58.9911   28.6689   49.2296 H   0  0  0  0  0  0  0  0  0  0  0  0
  1  2  2  0
  2  3  1  0
  3  4  2  3
  4  5  1  0
  5  6  2  0
  6  7  1  0
  7  8  1  0
  7  9  2  0
  9 10  1  0
 10 11  1  0
 10 12  2  0
  2 13  1  0
 13 14  1  0
 14 15  1  0
 15 16  2  0
 16 17  1  0
 17 18  2  0
 18 19  1  0
 19 20  1  0
 20 21  1  0
 21 22  2  0
 21 23  1  0
 23 24  2  3
 24 25  1  0
 25 26  1  0
 26 27  2  0
 27 28  1  0
 18 29  1  0
 29 30  2  0
 12  5  1  0
 30 15  1  0
 28 24  1  0
  3 31  1  0
  4 32  1  0
  6 33  1  0
  9 34  1  0
 12 35  1  0
 14 36  1  0
 14 37  1  0
 16 38  1  0
 17 39  1  0
 19 40  1  0
 19 41  1  0
 26 42  1  0
 27 43  1  0
 29 44  1  0
 30 45  1  0
M  CHG  4   8  -1  13  -1  20  -1  25  -1
M  END
>  <UniqueID>  (28) 
25

>  <SMILES>  (28) 
O=C(C=Cc1cc([O-])cc(F)c1)[N-]Cc1ccc(C[N-]C(=O)N=c2[n-]ccs2)cc1

>  <Energy>  (28) 
76.3535402196779

>  <Genealogy>  (28) 
O=C(C=Cc1cc([O-])cc(F)c1)[N-]Cc1ccc(C[N-]C(=O)N=c2[n-]ccs2)cc1 (protonated)
O=C(C=Cc1cc([O-])cc(F)c1)[N-]Cc1ccc(C[N-]C(=O)N=c2[n-]ccs2)cc1 (3D coordinates assigned)
O=C(C=Cc1cc([O-])cc(F)c1)[N-]Cc1ccc(C[N-]C(=O)N=c2[n-]ccs2)cc1 (optimized conformer: 76.3535402196779 kcal/mol)

>  <smiles>  (28) 
O=C(C=Cc1cc(O)cc(F)c1)NCc1ccc(CNC(=O)N=c2[nH]ccs2)cc1

>  <score_type>  (28) 
oracle

>  <origin>  (28) 
adg

>  <m_score__min__energy>  (28) 
-16.579999999999998

>  <m_primary>  (28) 
energy

$$$$
28:0
     RDKit          3D

 41 43  0  0  0  0  0  0  0  0999 V2000
   53.6660   21.3550   46.7440 C   0  0  0  0  0  0  0  0  0  0  0  0
   54.5290   21.8990   45.7520 O   0  0  0  0  0  0  0  0  0  0  0  0
   55.3570   23.0220   45.9360 C   0  0  0  0  0  0  0  0  0  0  0  0
   54.8420   24.3330   45.8970 C   0  0  0  0  0  0  0  0  0  0  0  0
   55.6870   25.4380   46.0480 C   0  0  0  0  0  0  0  0  0  0  0  0
   55.1400   26.7170   45.9880 O   0  0  0  0  0  0  0  0  0  0  0  0
   57.0650   25.2490   46.2560 C   0  0  0  0  0  0  0  0  0  0  0  0
   58.1730   26.6100   46.4540 S   0  0  0  0  0  0  0  0  0  0  0  0
   59.5790   26.1200   46.2350 O   0  0  0  0  0  0  0  0  0  0  0  0
   58.0930   27.1820   47.8420 O   0  0  0  0  0  0  0  0  0  0  0  0
   57.7430   27.8640   45.2900 C   0  0  0  0  0  0  0  0  0  0  0  0
   57.3930   29.1370   45.7650 C   0  0  0  0  0  0  0  0  0  0  0  0
   57.0340   30.1510   44.8730 C   0  0  0  0  0  0  0  0  0  0  0  0
   57.0200   29.9020   43.4970 C   0  0  0  0  0  0  0  0  0  0  0  0
   57.3720   28.6380   43.0150 C   0  0  0  0  0  0  0  0  0  0  0  0
   57.7310   27.6170   43.9030 C   0  0  0  0  0  0  0  0  0  0  0  0
   58.0640   26.4010   43.4040 F   0  0  0  0  0  0  0  0  0  0  0  0
   57.5840   23.9460   46.2780 C   0  0  0  0  0  0  0  0  0  0  0  0
   56.7400   22.8310   46.1400 C   0  0  0  0  0  0  0  0  0  0  0  0
   57.3310   21.4750   46.1960 C   0  0  0  0  0  0  0  0  0  0  0  0
   57.4600   20.9120   47.3220 O   0  0  0  0  0  0  0  0  0  0  0  0
   57.7480   20.7990   44.9800 N   0  0  0  0  0  0  0  0  0  0  0  0
   58.2390   21.7080   43.9350 C   0  0  0  0  0  0  0  0  0  0  0  0
   57.0760   21.3850   43.0060 C   0  0  0  0  0  0  0  0  0  0  0  0
   56.6220   20.4380   44.1050 C   0  0  0  0  0  0  0  0  0  0  0  0
   54.0553   21.6004   47.7431 H   0  0  0  0  0  0  0  0  0  0  0  0
   52.6589   21.7818   46.6279 H   0  0  0  0  0  0  0  0  0  0  0  0
   53.6167   20.2623   46.6279 H   0  0  0  0  0  0  0  0  0  0  0  0
   53.7637   24.4895   45.7462 H   0  0  0  0  0  0  0  0  0  0  0  0
   57.4013   29.3381   46.8464 H   0  0  0  0  0  0  0  0  0  0  0  0
   56.7620   31.1465   45.2538 H   0  0  0  0  0  0  0  0  0  0  0  0
   56.7326   30.6991   42.7955 H   0  0  0  0  0  0  0  0  0  0  0  0
   57.3669   28.4445   41.9322 H   0  0  0  0  0  0  0  0  0  0  0  0
   58.6662   23.7950   46.4050 H   0  0  0  0  0  0  0  0  0  0  0  0
   58.4140   20.0050   45.1360 H   0  0  0  0  0  0  0  0  0  0  0  0
   58.2692   22.7617   44.2494 H   0  0  0  0  0  0  0  0  0  0  0  0
   59.2670   21.5858   43.5632 H   0  0  0  0  0  0  0  0  0  0  0  0
   56.3946   22.2241   42.8018 H   0  0  0  0  0  0  0  0  0  0  0  0
   57.2165   21.0651   41.9630 H   0  0  0  0  0  0  0  0  0  0  0  0
   55.6393   20.6956   44.5269 H   0  0  0  0  0  0  0  0  0  0  0  0
   56.4579   19.3784   43.8595 H   0  0  0  0  0  0  0  0  0  0  0  0
  1  2  1  0
  2  3  1  0
  3  4  2  0
  4  5  1  0
  5  6  1  0
  5  7  2  0
  7  8  1  0
  8  9  2  0
  8 10  2  0
  8 11  1  0
 11 12  2  0
 12 13  1  0
 13 14  2  0
 14 15  1  0
 15 16  2  0
 16 17  1  0
  7 18  1  0
 18 19  2  0
 19 20  1  0
 20 21  2  0
 20 22  1  0
 22 23  1  0
 23 24  1  0
 24 25  1  0
 19  3  1  0
 25 22  1  0
 16 11  1  0
  1 26  1  0
  1 27  1  0
  1 28  1  0
  4 29  1  0
 12 30  1  0
 13 31  1  0
 14 32  1  0
 15 33  1  0
 18 34  1  0
 22 35  1  0
 23 36  1  0
 23 37  1  0
 24 38  1  0
 24 39  1  0
 25 40  1  0
 25 41  1  0
M  CHG  2   6  -1  22   1
M  END
>  <UniqueID>  (29) 
26

>  <SMILES>  (29) 
COc1cc([O-])c(S(=O)(=O)c2ccccc2F)cc1C(=O)[NH+]1CCC1

>  <Energy>  (29) 
124.66591109020025

>  <Genealogy>  (29) 
COc1cc([O-])c(S(=O)(=O)c2ccccc2F)cc1C(=O)[NH+]1CCC1 (protonated)
COc1cc([O-])c(S(=O)(=O)c2ccccc2F)cc1C(=O)[NH+]1CCC1 (3D coordinates assigned)
COc1cc([O-])c(S(=O)(=O)c2ccccc2F)cc1C(=O)[NH+]1CCC1 (nonaromatic ring conformer: 124.66591109020025 kcal/mol)

>  <smiles>  (29) 
COc1cc(O)c(S(=O)(=O)c2ccccc2F)cc1C(=O)N1CCC1

>  <score_type>  (29) 
oracle

>  <origin>  (29) 
adg

>  <m_score__min__energy>  (29) 
-9.5600000000000005

>  <m_primary>  (29) 
energy

$$$$
29:0
     RDKit          3D

 53 56  0  0  0  0  0  0  0  0999 V2000
   60.4785   30.5482   44.9877 H   0  0  0  0  0  0  0  0  0  0  0  0
   60.5280   29.8070   45.7990 C   0  0  0  0  0  0  0  0  0  0  0  0
   60.9750   30.2430   47.1360 C   0  0  0  0  0  0  0  0  0  0  0  0
   60.2770   29.9860   48.1570 O   0  0  0  0  0  0  0  0  0  0  0  0
   62.1930   30.9910   47.2650 N   0  0  0  0  0  0  0  0  0  0  0  0
   62.5870   31.4420   46.4080 H   0  0  0  0  0  0  0  0  0  0  0  0
   62.7860   31.3150   48.5320 C   0  0  0  0  0  0  0  0  0  0  0  0
   62.3440   30.6400   49.6800 C   0  0  0  0  0  0  0  0  0  0  0  0
   61.5613   29.8718   49.5949 H   0  0  0  0  0  0  0  0  0  0  0  0
   62.8910   30.9370   50.9290 C   0  0  0  0  0  0  0  0  0  0  0  0
   62.5450   30.3968   51.8226 H   0  0  0  0  0  0  0  0  0  0  0  0
   63.8750   31.9170   51.0460 C   0  0  0  0  0  0  0  0  0  0  0  0
   64.3136   32.1402   52.0298 H   0  0  0  0  0  0  0  0  0  0  0  0
   64.3050   32.6160   49.9160 C   0  0  0  0  0  0  0  0  0  0  0  0
   65.0795   33.3908   50.0152 H   0  0  0  0  0  0  0  0  0  0  0  0
   63.7540   32.3360   48.6500 C   0  0  0  0  0  0  0  0  0  0  0  0
   64.1210   33.0600   47.5020 O   0  0  0  0  0  0  0  0  0  0  0  0
   63.4230   34.1860   46.9730 C   0  0  0  0  0  0  0  0  0  0  0  0
   63.7135   35.0871   47.5330 H   0  0  0  0  0  0  0  0  0  0  0  0
   63.6840   34.2977   45.9103 H   0  0  0  0  0  0  0  0  0  0  0  0
   61.9380   33.9900   47.0890 C   0  0  0  0  0  0  0  0  0  0  0  0
   61.2000   33.7880   45.9690 N   0  0  0  0  0  0  0  0  0  0  0  0
   59.8540   33.6210   46.0260 C   0  0  0  0  0  0  0  0  0  0  0  0
   59.1440   33.4040   44.8400 C   0  0  0  0  0  0  0  0  0  0  0  0
   59.6729   33.3719   43.8761 H   0  0  0  0  0  0  0  0  0  0  0  0
   57.7640   33.2290   44.8880 C   0  0  0  0  0  0  0  0  0  0  0  0
   57.1968   33.0581   43.9611 H   0  0  0  0  0  0  0  0  0  0  0  0
   57.1040   33.2710   46.1130 C   0  0  0  0  0  0  0  0  0  0  0  0
   56.0136   33.1334   46.1592 H   0  0  0  0  0  0  0  0  0  0  0  0
   57.8350   33.4890   47.2830 C   0  0  0  0  0  0  0  0  0  0  0  0
   57.3143   33.5224   48.2514 H   0  0  0  0  0  0  0  0  0  0  0  0
   59.1960   33.6620   47.2380 N   0  0  0  0  0  0  0  0  0  0  0  0
   59.9160   33.8790   48.3870 C   0  0  0  0  0  0  0  0  0  0  0  0
   59.3460   33.9280   49.5120 O   0  0  0  0  0  0  0  0  0  0  0  0
   61.3010   34.0520   48.3290 C   0  0  0  0  0  0  0  0  0  0  0  0
   61.8802   34.2342   49.2462 H   0  0  0  0  0  0  0  0  0  0  0  0
   60.1800   28.5380   45.5390 C   0  0  0  0  0  0  0  0  0  0  0  0
   60.9636   27.8441   45.2006 H   0  0  0  0  0  0  0  0  0  0  0  0
   58.7980   28.0170   45.6820 C   0  0  0  0  0  0  0  0  0  0  0  0
   58.5180   26.7760   46.2870 C   0  0  0  0  0  0  0  0  0  0  0  0
   59.3406   26.1615   46.6818 H   0  0  0  0  0  0  0  0  0  0  0  0
   57.2010   26.3220   46.3880 C   0  0  0  0  0  0  0  0  0  0  0  0
   56.9911   25.3553   46.8691 H   0  0  0  0  0  0  0  0  0  0  0  0
   56.1500   27.0880   45.8820 C   0  0  0  0  0  0  0  0  0  0  0  0
   54.8460   26.6220   45.9930 O   0  0  0  0  0  0  0  0  0  0  0  0
   56.4060   28.3190   45.2630 C   0  0  0  0  0  0  0  0  0  0  0  0
   55.3200   29.0550   44.7640 O   0  0  0  0  0  0  0  0  0  0  0  0
   55.3170   29.7430   43.5180 C   0  0  0  0  0  0  0  0  0  0  0  0
   55.3123   30.8281   43.6983 H   0  0  0  0  0  0  0  0  0  0  0  0
   56.2163   29.4702   42.9464 H   0  0  0  0  0  0  0  0  0  0  0  0
   54.4201   29.4624   42.9464 H   0  0  0  0  0  0  0  0  0  0  0  0
   57.7350   28.7740   45.1620 C   0  0  0  0  0  0  0  0  0  0  0  0
   57.9435   29.7351   44.6693 H   0  0  0  0  0  0  0  0  0  0  0  0
  1  2  1  0
  2  3  1  0
  3  4  2  0
  3  5  1  0
  5  6  1  0
  5  7  1  0
  7  8  2  0
  8  9  1  0
  8 10  1  0
 10 11  1  0
 10 12  2  0
 12 13  1  0
 12 14  1  0
 14 15  1  0
 14 16  2  0
 16 17  1  0
 17 18  1  0
 18 19  1  0
 18 20  1  0
 18 21  1  0
 21 22  1  0
 22 23  2  0
 23 24  1  0
 24 25  1  0
 24 26  2  0
 26 27  1  0
 26 28  1  0
 28 29  1  0
 28 30  2  0
 30 31  1  0
 30 32  1  0
 32 33  1  0
 33 34  2  0
 33 35  1  0
 35 36  1  0
  2 37  2  0
 37 38  1  0
 37 39  1  0
 39 40  2  0
 40 41  1  0
 40 42  1  0
 42 43  1  0
 42 44  2  0
 44 45  1  0
 44 46  1  0
 46 47  1  0
 47 48  1  0
 48 49  1  0
 48 50  1  0
 48 51  1  0
 46 52  2  0
 52 53  1  0
 16  7  1  0
 35 21  2  0
 52 39  1  0
 32 23  1  0
M  CHG  1  45  -1
M  END
>  <UniqueID>  (30) 
27

>  <SMILES>  (30) 
COc1cc(/C=C/C(=O)Nc2ccccc2OCc2cc(=O)n3ccccc3n2)ccc1[O-]

>  <Energy>  (30) 
68.54342175516604

>  <Genealogy>  (30) 
COc1cc(C=CC(=O)Nc2ccccc2OCc2cc(=O)n3ccccc3n2)ccc1[O-] (protonated)
COc1cc(/C=C/C(=O)Nc2ccccc2OCc2cc(=O)n3ccccc3n2)ccc1[O-] (cis-trans isomerization)
COc1cc(/C=C/C(=O)Nc2ccccc2OCc2cc(=O)n3ccccc3n2)ccc1[O-] (3D coordinates assigned)
COc1cc(/C=C/C(=O)Nc2ccccc2OCc2cc(=O)n3ccccc3n2)ccc1[O-] (optimized conformer: 68.54342175516604 kcal/mol)

>  <smiles>  (30) 
COc1cc(C=CC(=O)Nc2ccccc2OCc2cc(=O)n3ccccc3n2)ccc1O

>  <score_type>  (30) 
oracle

>  <origin>  (30) 
adg

>  <m_score__min__energy>  (30) 
-14.31

>  <m_primary>  (30) 
energy

$$$$
30:0
     RDKit          3D

 62 64  0  0  0  0  0  0  0  0999 V2000
   60.7670   28.0430   50.1390 C   0  0  0  0  0  0  0  0  0  0  0  0
   60.7700   26.7630   49.3110 C   0  0  0  0  0  0  0  0  0  0  0  0
   60.9340   27.0540   47.9240 O   0  0  0  0  0  0  0  0  0  0  0  0
   60.1450   26.4850   46.9160 C   0  0  0  0  0  0  0  0  0  0  0  0
   60.6460   25.6350   46.1270 O   0  0  0  0  0  0  0  0  0  0  0  0
   58.6830   26.8970   46.7980 C   0  0  0  0  0  0  0  0  0  0  0  0
   57.7830   25.7150   47.2740 C   0  0  0  0  0  0  0  0  0  0  0  0
   57.3630   24.7780   46.1620 C   0  0  0  0  0  0  0  0  0  0  0  0
   56.0600   24.8370   45.6420 C   0  0  0  0  0  0  0  0  0  0  0  0
   55.6730   23.9920   44.5990 C   0  0  0  0  0  0  0  0  0  0  0  0
   56.5860   23.0630   44.0620 C   0  0  0  0  0  0  0  0  0  0  0  0
   56.2480   22.1970   43.0130 O   0  0  0  0  0  0  0  0  0  0  0  0
   56.9780   21.0230   42.6730 C   0  0  0  0  0  0  0  0  0  0  0  0
   57.8790   22.9960   44.5910 C   0  0  0  0  0  0  0  0  0  0  0  0
   58.2660   23.8410   45.6350 C   0  0  0  0  0  0  0  0  0  0  0  0
   58.3930   27.1780   45.2830 C   0  0  0  0  0  0  0  0  0  0  0  0
   57.3960   28.3220   45.0600 C   0  0  0  0  0  0  0  0  0  0  0  0
   57.8930   29.5540   45.6860 N   0  0  0  0  0  0  0  0  0  0  0  0
   57.4120   30.8280   45.2170 C   0  0  0  0  0  0  0  0  0  0  0  0
   56.2680   30.9020   44.6910 O   0  0  0  0  0  0  0  0  0  0  0  0
   58.2260   32.0590   45.3420 C   0  0  0  0  0  0  0  0  0  0  0  0
   58.1850   33.0460   44.3500 C   0  0  0  0  0  0  0  0  0  0  0  0
   58.9520   34.1990   44.4960 C   0  0  0  0  0  0  0  0  0  0  0  0
   59.7250   34.3700   45.6000 N   0  0  0  0  0  0  0  0  0  0  0  0
   59.7850   33.4440   46.6000 C   0  0  0  0  0  0  0  0  0  0  0  0
   60.6290   33.6940   47.7500 N   0  0  0  0  0  0  0  0  0  0  0  0
   60.0700   34.1830   49.0160 C   0  0  0  0  0  0  0  0  0  0  0  0
   62.0720   33.4510   47.6400 C   0  0  0  0  0  0  0  0  0  0  0  0
   59.0210   32.2670   46.4810 C   0  0  0  0  0  0  0  0  0  0  0  0
   58.6920   29.4690   46.9210 C   0  0  0  0  0  0  0  0  0  0  0  0
   58.3760   28.1680   47.6640 C   0  0  0  0  0  0  0  0  0  0  0  0
   60.7676   27.7876   51.2089 H   0  0  0  0  0  0  0  0  0  0  0  0
   61.6638   28.6346   49.9028 H   0  0  0  0  0  0  0  0  0  0  0  0
   59.8675   28.6304   49.9028 H   0  0  0  0  0  0  0  0  0  0  0  0
   61.5981   26.1204   49.6445 H   0  0  0  0  0  0  0  0  0  0  0  0
   59.8062   26.2516   49.4511 H   0  0  0  0  0  0  0  0  0  0  0  0
   58.3410   25.1348   48.0236 H   0  0  0  0  0  0  0  0  0  0  0  0
   56.8630   26.1584   47.6826 H   0  0  0  0  0  0  0  0  0  0  0  0
   55.3381   25.5544   46.0593 H   0  0  0  0  0  0  0  0  0  0  0  0
   54.6515   24.0522   44.1954 H   0  0  0  0  0  0  0  0  0  0  0  0
   57.2968   20.5103   43.5925 H   0  0  0  0  0  0  0  0  0  0  0  0
   56.3379   20.3515   42.0819 H   0  0  0  0  0  0  0  0  0  0  0  0
   57.8633   21.3001   42.0819 H   0  0  0  0  0  0  0  0  0  0  0  0
   58.5982   22.2714   44.1815 H   0  0  0  0  0  0  0  0  0  0  0  0
   59.2839   23.7715   46.0461 H   0  0  0  0  0  0  0  0  0  0  0  0
   59.3403   27.4386   44.7883 H   0  0  0  0  0  0  0  0  0  0  0  0
   57.9437   26.2665   44.8620 H   0  0  0  0  0  0  0  0  0  0  0  0
   57.2688   28.4884   43.9801 H   0  0  0  0  0  0  0  0  0  0  0  0
   56.4309   28.0519   45.5134 H   0  0  0  0  0  0  0  0  0  0  0  0
   57.5511   32.9116   43.4611 H   0  0  0  0  0  0  0  0  0  0  0  0
   58.9319   34.9736   43.7152 H   0  0  0  0  0  0  0  0  0  0  0  0
   60.6036   33.7162   49.8570 H   0  0  0  0  0  0  0  0  0  0  0  0
   60.1851   35.2756   49.0699 H   0  0  0  0  0  0  0  0  0  0  0  0
   59.0024   33.9236   49.0699 H   0  0  0  0  0  0  0  0  0  0  0  0
   62.5092   33.3774   48.6467 H   0  0  0  0  0  0  0  0  0  0  0  0
   62.2451   32.5111   47.0954 H   0  0  0  0  0  0  0  0  0  0  0  0
   62.5434   34.2824   47.0954 H   0  0  0  0  0  0  0  0  0  0  0  0
   59.0469   31.5110   47.2796 H   0  0  0  0  0  0  0  0  0  0  0  0
   59.7615   29.4909   46.6646 H   0  0  0  0  0  0  0  0  0  0  0  0
   58.4448   30.3227   47.5691 H   0  0  0  0  0  0  0  0  0  0  0  0
   58.9841   28.1272   48.5797 H   0  0  0  0  0  0  0  0  0  0  0  0
   57.3005   28.1656   47.8948 H   0  0  0  0  0  0  0  0  0  0  0  0
  1  2  1  0
  2  3  1  0
  3  4  1  0
  4  5  2  0
  4  6  1  0
  6  7  1  0
  7  8  1  0
  8  9  2  0
  9 10  1  0
 10 11  2  0
 11 12  1  0
 12 13  1  0
 11 14  1  0
 14 15  2  0
  6 16  1  0
 16 17  1  0
 17 18  1  0
 18 19  1  0
 19 20  2  0
 19 21  1  0
 21 22  2  0
 22 23  1  0
 23 24  2  0
 24 25  1  0
 25 26  1  0
 26 27  1  0
 26 28  1  0
 25 29  2  0
 18 30  1  0
 30 31  1  0
 31  6  1  0
 15  8  1  0
 29 21  1  0
  1 32  1  0
  1 33  1  0
  1 34  1  0
  2 35  1  0
  2 36  1  0
  7 37  1  0
  7 38  1  0
  9 39  1  0
 10 40  1  0
 13 41  1  0
 13 42  1  0
 13 43  1  0
 14 44  1  0
 15 45  1  0
 16 46  1  0
 16 47  1  0
 17 48  1  0
 17 49  1  0
 22 50  1  0
 23 51  1  0
 27 52  1  0
 27 53  1  0
 27 54  1  0
 28 55  1  0
 28 56  1  0
 28 57  1  0
 29 58  1  0
 30 59  1  0
 30 60  1  0
 31 61  1  0
 31 62  1  0
M  END
>  <UniqueID>  (31) 
28

>  <SMILES>  (31) 
CCOC(=O)C1(Cc2ccc(OC)cc2)CCN(C(=O)c2ccnc(N(C)C)c2)CC1

>  <Energy>  (31) 
67.16893381857943

>  <Genealogy>  (31) 
CCOC(=O)C1(Cc2ccc(OC)cc2)CCN(C(=O)c2ccnc(N(C)C)c2)CC1 (3D coordinates assigned)
CCOC(=O)C1(Cc2ccc(OC)cc2)CCN(C(=O)c2ccnc(N(C)C)c2)CC1 (nonaromatic ring conformer: 67.16893381857943 kcal/mol)

>  <smiles>  (31) 
CCOC(=O)C1(Cc2ccc(OC)cc2)CCN(C(=O)c2ccnc(N(C)C)c2)CC1

>  <score_type>  (31) 
oracle

>  <origin>  (31) 
adg

>  <m_score__min__energy>  (31) 
-8.2100000000000009

>  <m_primary>  (31) 
energy

$$$$
31:0
     RDKit          3D

 44 46  0  0  0  0  0  0  0  0999 V2000
   63.3480   34.1930   47.8500 O   0  0  0  0  0  0  0  0  0  0  0  0
   62.6990   33.3470   47.1820 C   0  0  0  0  0  0  0  0  0  0  0  0
   62.9180   31.8880   47.4480 C   0  0  0  0  0  0  0  0  0  0  0  0
   62.4580   31.5630   48.7560 O   0  0  0  0  0  0  0  0  0  0  0  0
   61.1930   31.0290   49.0400 C   0  0  0  0  0  0  0  0  0  0  0  0
   60.2410   31.8630   49.6390 C   0  0  0  0  0  0  0  0  0  0  0  0
   58.9680   31.3800   49.9510 C   0  0  0  0  0  0  0  0  0  0  0  0
   58.6360   30.0530   49.6640 C   0  0  0  0  0  0  0  0  0  0  0  0
   59.5750   29.2120   49.0640 C   0  0  0  0  0  0  0  0  0  0  0  0
   60.8510   29.6940   48.7500 C   0  0  0  0  0  0  0  0  0  0  0  0
   61.7690   33.8150   46.1980 N   0  0  0  0  0  0  0  0  0  0  0  0
   60.1000   34.2000   46.4830 S   0  0  0  0  0  0  0  0  0  0  0  0
   59.7400   35.4130   45.6740 O   0  0  0  0  0  0  0  0  0  0  0  0
   59.8920   34.5140   47.9380 O   0  0  0  0  0  0  0  0  0  0  0  0
   59.0680   32.8620   45.9860 C   0  0  0  0  0  0  0  0  0  0  0  0
   59.3480   31.5580   46.4120 C   0  0  0  0  0  0  0  0  0  0  0  0
   58.5060   30.5020   46.0480 C   0  0  0  0  0  0  0  0  0  0  0  0
   57.3740   30.7360   45.2460 C   0  0  0  0  0  0  0  0  0  0  0  0
   56.4670   29.6140   44.8930 C   0  0  0  0  0  0  0  0  0  0  0  0
   55.2310   29.8310   44.7890 O   0  0  0  0  0  0  0  0  0  0  0  0
   56.9570   28.2960   44.5950 N   0  0  0  0  0  0  0  0  0  0  0  0
   57.4130   27.4380   45.4610 C   0  0  0  0  0  0  0  0  0  0  0  0
   58.7500   27.3340   45.7100 N   0  0  0  0  0  0  0  0  0  0  0  0
   59.2500   26.4570   46.6200 C   0  0  0  0  0  0  0  0  0  0  0  0
   58.3850   25.6320   47.3420 C   0  0  0  0  0  0  0  0  0  0  0  0
   57.0110   25.7230   47.1180 C   0  0  0  0  0  0  0  0  0  0  0  0
   56.5160   26.6300   46.1760 C   0  0  0  0  0  0  0  0  0  0  0  0
   55.1460   26.7210   45.9560 O   0  0  0  0  0  0  0  0  0  0  0  0
   57.0930   32.0500   44.8330 C   0  0  0  0  0  0  0  0  0  0  0  0
   57.9360   33.1040   45.1970 C   0  0  0  0  0  0  0  0  0  0  0  0
   62.3625   31.2941   46.7072 H   0  0  0  0  0  0  0  0  0  0  0  0
   63.9919   31.6619   47.3735 H   0  0  0  0  0  0  0  0  0  0  0  0
   60.4980   32.9082   49.8660 H   0  0  0  0  0  0  0  0  0  0  0  0
   58.2276   32.0433   50.4221 H   0  0  0  0  0  0  0  0  0  0  0  0
   57.6344   29.6711   49.9110 H   0  0  0  0  0  0  0  0  0  0  0  0
   59.3115   28.1683   48.8375 H   0  0  0  0  0  0  0  0  0  0  0  0
   61.5879   29.0290   48.2759 H   0  0  0  0  0  0  0  0  0  0  0  0
   60.2333   31.3632   47.0352 H   0  0  0  0  0  0  0  0  0  0  0  0
   58.7305   29.4813   46.3913 H   0  0  0  0  0  0  0  0  0  0  0  0
   60.3355   26.3971   46.7877 H   0  0  0  0  0  0  0  0  0  0  0  0
   58.7824   24.9186   48.0789 H   0  0  0  0  0  0  0  0  0  0  0  0
   56.3177   25.0818   47.6820 H   0  0  0  0  0  0  0  0  0  0  0  0
   56.2028   32.2504   44.2186 H   0  0  0  0  0  0  0  0  0  0  0  0
   57.7097   34.1272   44.8627 H   0  0  0  0  0  0  0  0  0  0  0  0
  1  2  2  0
  2  3  1  0
  3  4  1  0
  4  5  1  0
  5  6  2  0
  6  7  1  0
  7  8  2  0
  8  9  1  0
  9 10  2  0
  2 11  1  0
 11 12  1  0
 12 13  2  0
 12 14  2  0
 12 15  1  0
 15 16  2  0
 16 17  1  0
 17 18  2  0
 18 19  1  0
 19 20  2  0
 19 21  1  0
 21 22  2  3
 22 23  1  0
 23 24  1  0
 24 25  2  0
 25 26  1  0
 26 27  2  0
 27 28  1  0
 18 29  1  0
 29 30  2  0
 10  5  1  0
 30 15  1  0
 27 22  1  0
  3 31  1  0
  3 32  1  0
  6 33  1  0
  7 34  1  0
  8 35  1  0
  9 36  1  0
 10 37  1  0
 16 38  1  0
 17 39  1  0
 24 40  1  0
 25 41  1  0
 26 42  1  0
 29 43  1  0
 30 44  1  0
M  CHG  3  11  -1  23  -1  28  -1
M  END
>  <UniqueID>  (32) 
29

>  <SMILES>  (32) 
O=C(COc1ccccc1)[N-]S(=O)(=O)c1ccc(C(=O)N=c2[n-]cccc2[O-])cc1

>  <Energy>  (32) 
53.51412110956946

>  <Genealogy>  (32) 
O=C(COc1ccccc1)[N-]S(=O)(=O)c1ccc(C(=O)N=c2[n-]cccc2[O-])cc1 (protonated)
O=C(COc1ccccc1)[N-]S(=O)(=O)c1ccc(C(=O)N=c2[n-]cccc2[O-])cc1 (3D coordinates assigned)
O=C(COc1ccccc1)[N-]S(=O)(=O)c1ccc(C(=O)N=c2[n-]cccc2[O-])cc1 (optimized conformer: 53.51412110956946 kcal/mol)

>  <smiles>  (32) 
O=C(COc1ccccc1)NS(=O)(=O)c1ccc(C(=O)N=c2[nH]cccc2O)cc1

>  <score_type>  (32) 
oracle

>  <origin>  (32) 
adg

>  <m_score__min__energy>  (32) 
-14.58

>  <m_primary>  (32) 
energy

$$$$
32:0
     RDKit          3D

 61 65  0  0  0  0  0  0  0  0999 V2000
   59.4830   25.9920   45.9030 O   0  0  0  0  0  0  0  0  0  0  0  0
   58.2310   26.1400   45.9490 C   0  0  0  0  0  0  0  0  0  0  0  0
   57.4590   25.1080   46.3770 N   0  0  0  0  0  0  0  0  0  0  0  0
   56.1070   25.2170   46.4390 C   0  0  0  0  0  0  0  0  0  0  0  0
   55.2070   23.9560   46.9520 S   0  0  0  0  0  0  0  0  0  0  0  0
   55.5020   26.3700   46.0620 N   0  0  0  0  0  0  0  0  0  0  0  0
   56.2260   27.4340   45.6230 C   0  0  0  0  0  0  0  0  0  0  0  0
   55.5600   28.5890   45.2380 O   0  0  0  0  0  0  0  0  0  0  0  0
   57.6320   27.3560   45.5620 C   0  0  0  0  0  0  0  0  0  0  0  0
   58.4610   28.5320   45.0760 C   0  0  0  0  0  0  0  0  0  0  0  0
   58.5090   29.6480   46.1170 C   0  0  0  0  0  0  0  0  0  0  0  0
   58.9460   29.3010   47.4200 C   0  0  0  0  0  0  0  0  0  0  0  0
   59.3990   27.9920   47.6320 O   0  0  0  0  0  0  0  0  0  0  0  0
   58.9400   30.2620   48.4630 C   0  0  0  0  0  0  0  0  0  0  0  0
   59.2120   29.9070   49.9220 C   0  0  0  0  0  0  0  0  0  0  0  0
   59.8540   30.9940   50.7040 N   0  0  0  0  0  0  0  0  0  0  0  0
   61.3290   30.9410   50.6600 C   0  0  0  0  0  0  0  0  0  0  0  0
   61.8720   31.8110   49.5580 C   0  0  0  0  0  0  0  0  0  0  0  0
   62.2320   31.2560   48.3190 C   0  0  0  0  0  0  0  0  0  0  0  0
   62.7430   32.0710   47.3040 C   0  0  0  0  0  0  0  0  0  0  0  0
   62.8980   33.4440   47.5170 C   0  0  0  0  0  0  0  0  0  0  0  0
   62.5360   34.0060   48.7450 C   0  0  0  0  0  0  0  0  0  0  0  0
   62.0220   33.1940   49.7620 C   0  0  0  0  0  0  0  0  0  0  0  0
   59.2660   31.0900   52.3570 S   0  0  0  0  0  0  0  0  0  0  0  0
   60.1480   30.2730   53.2610 O   0  0  0  0  0  0  0  0  0  0  0  0
   59.2960   32.5190   52.8220 O   0  0  0  0  0  0  0  0  0  0  0  0
   57.5950   30.5390   52.4830 C   0  0  0  0  0  0  0  0  0  0  0  0
   56.5590   31.3210   51.9520 C   0  0  0  0  0  0  0  0  0  0  0  0
   55.2330   30.8870   52.0420 C   0  0  0  0  0  0  0  0  0  0  0  0
   54.9330   29.6770   52.6800 C   0  0  0  0  0  0  0  0  0  0  0  0
   55.9610   28.9050   53.2300 C   0  0  0  0  0  0  0  0  0  0  0  0
   57.2890   29.3380   53.1390 C   0  0  0  0  0  0  0  0  0  0  0  0
   58.6550   31.5960   48.1510 C   0  0  0  0  0  0  0  0  0  0  0  0
   58.2590   31.9730   46.8690 C   0  0  0  0  0  0  0  0  0  0  0  0
   57.9460   33.3200   46.6180 C   0  0  0  0  0  0  0  0  0  0  0  0
   57.5200   33.7190   45.3530 C   0  0  0  0  0  0  0  0  0  0  0  0
   57.3940   32.7800   44.3310 C   0  0  0  0  0  0  0  0  0  0  0  0
   57.6990   31.4370   44.5630 C   0  0  0  0  0  0  0  0  0  0  0  0
   58.1510   31.0010   45.8350 C   0  0  0  0  0  0  0  0  0  0  0  0
   59.4858   28.1878   44.8729 H   0  0  0  0  0  0  0  0  0  0  0  0
   57.9947   28.9303   44.1628 H   0  0  0  0  0  0  0  0  0  0  0  0
   59.7350   27.3740   46.9120 H   0  0  0  0  0  0  0  0  0  0  0  0
   58.2536   29.6576   50.4007 H   0  0  0  0  0  0  0  0  0  0  0  0
   59.9178   29.0633   49.9155 H   0  0  0  0  0  0  0  0  0  0  0  0
   61.7295   31.2901   51.6232 H   0  0  0  0  0  0  0  0  0  0  0  0
   61.6348   29.9022   50.4666 H   0  0  0  0  0  0  0  0  0  0  0  0
   62.1115   30.1763   48.1464 H   0  0  0  0  0  0  0  0  0  0  0  0
   63.0236   31.6308   46.3358 H   0  0  0  0  0  0  0  0  0  0  0  0
   63.3047   34.0821   46.7186 H   0  0  0  0  0  0  0  0  0  0  0  0
   62.6553   35.0867   48.9116 H   0  0  0  0  0  0  0  0  0  0  0  0
   61.7340   33.6397   50.7255 H   0  0  0  0  0  0  0  0  0  0  0  0
   56.7904   32.2789   51.4632 H   0  0  0  0  0  0  0  0  0  0  0  0
   54.4248   31.4964   51.6114 H   0  0  0  0  0  0  0  0  0  0  0  0
   53.8900   29.3343   52.7484 H   0  0  0  0  0  0  0  0  0  0  0  0
   55.7258   27.9564   53.7347 H   0  0  0  0  0  0  0  0  0  0  0  0
   58.0945   28.7347   53.5831 H   0  0  0  0  0  0  0  0  0  0  0  0
   58.7454   32.3632   48.9340 H   0  0  0  0  0  0  0  0  0  0  0  0
   58.0378   34.0627   47.4242 H   0  0  0  0  0  0  0  0  0  0  0  0
   57.2830   34.7758   45.1608 H   0  0  0  0  0  0  0  0  0  0  0  0
   57.0521   33.0986   43.3352 H   0  0  0  0  0  0  0  0  0  0  0  0
   57.5872   30.7069   43.7478 H   0  0  0  0  0  0  0  0  0  0  0  0
  1  2  2  0
  2  3  1  0
  3  4  1  0
  4  5  2  0
  4  6  1  0
  6  7  1  0
  7  8  1  0
  7  9  2  0
  9 10  1  0
 10 11  1  0
 11 12  2  0
 12 13  1  0
 12 14  1  0
 14 15  1  0
 15 16  1  0
 16 17  1  0
 17 18  1  0
 18 19  2  0
 19 20  1  0
 20 21  2  0
 21 22  1  0
 22 23  2  0
 16 24  1  0
 24 25  2  0
 24 26  2  0
 24 27  1  0
 27 28  2  0
 28 29  1  0
 29 30  2  0
 30 31  1  0
 31 32  2  0
 14 33  2  0
 33 34  1  0
 34 35  2  0
 35 36  1  0
 36 37  2  0
 37 38  1  0
 38 39  2  0
  9  2  1  0
 39 11  1  0
 23 18  1  0
 32 27  1  0
 39 34  1  0
 10 40  1  0
 10 41  1  0
 13 42  1  0
 15 43  1  0
 15 44  1  0
 17 45  1  0
 17 46  1  0
 19 47  1  0
 20 48  1  0
 21 49  1  0
 22 50  1  0
 23 51  1  0
 28 52  1  0
 29 53  1  0
 30 54  1  0
 31 55  1  0
 32 56  1  0
 33 57  1  0
 35 58  1  0
 36 59  1  0
 37 60  1  0
 38 61  1  0
M  CHG  3   3  -1   6  -1   8  -1
M  END
>  <UniqueID>  (33) 
30

>  <SMILES>  (33) 
O=c1[n-]c(=S)[n-]c([O-])c1Cc1c(O)c(CN(Cc2ccccc2)S(=O)(=O)c2ccccc2)cc2ccccc12

>  <Energy>  (33) 
85.02565683055634

>  <Genealogy>  (33) 
O=c1[n-]c(=S)[n-]c([O-])c1Cc1c(O)c(CN(Cc2ccccc2)S(=O)(=O)c2ccccc2)cc2ccccc12 (protonated)
O=c1[n-]c(=S)[n-]c([O-])c1Cc1c(O)c(CN(Cc2ccccc2)S(=O)(=O)c2ccccc2)cc2ccccc12 (3D coordinates assigned)
O=c1[n-]c(=S)[n-]c([O-])c1Cc1c(O)c(CN(Cc2ccccc2)S(=O)(=O)c2ccccc2)cc2ccccc12 (optimized conformer: 85.02565683055634 kcal/mol)

>  <smiles>  (33) 
O=c1[nH]c(=S)[nH]c(O)c1Cc1c(O)c(CN(Cc2ccccc2)S(=O)(=O)c2ccccc2)cc2ccccc12

>  <score_type>  (33) 
oracle

>  <origin>  (33) 
adg

>  <m_score__min__energy>  (33) 
-17.460000000000001

>  <m_primary>  (33) 
energy

$$$$
33:0
     RDKit          3D

 49 51  0  0  0  0  0  0  0  0999 V2000
   56.9330   28.0030   45.9470 H   0  0  0  0  0  0  0  0  0  0  0  0
   57.5010   28.7400   46.3420 O   0  0  0  0  0  0  0  0  0  0  0  0
   58.3940   28.5400   47.3950 C   0  0  0  0  0  0  0  0  0  0  0  0
   58.4680   29.5290   48.3850 C   0  0  0  0  0  0  0  0  0  0  0  0
   57.7821   30.3881   48.3469 H   0  0  0  0  0  0  0  0  0  0  0  0
   59.4060   29.4370   49.4240 C   0  0  0  0  0  0  0  0  0  0  0  0
   59.4890   30.5090   50.4790 C   0  0  0  0  0  0  0  0  0  0  0  0
   60.1845   31.2924   50.1434 H   0  0  0  0  0  0  0  0  0  0  0  0
   59.8464   30.0556   51.4154 H   0  0  0  0  0  0  0  0  0  0  0  0
   58.1740   31.1050   50.7180 N   0  0  0  0  0  0  0  0  0  0  0  0
   57.9360   31.9650   50.1730 H   0  0  0  0  0  0  0  0  0  0  0  0
   57.1750   30.5510   51.5960 C   0  0  0  0  0  0  0  0  0  0  0  0
   57.4430   29.4420   52.4220 C   0  0  0  0  0  0  0  0  0  0  0  0
   58.4432   28.9842   52.4167 H   0  0  0  0  0  0  0  0  0  0  0  0
   56.4440   28.9210   53.2480 C   0  0  0  0  0  0  0  0  0  0  0  0
   56.6579   28.0481   53.8823 H   0  0  0  0  0  0  0  0  0  0  0  0
   55.1760   29.5030   53.2720 C   0  0  0  0  0  0  0  0  0  0  0  0
   54.3891   29.0778   53.9123 H   0  0  0  0  0  0  0  0  0  0  0  0
   54.9020   30.6310   52.4800 C   0  0  0  0  0  0  0  0  0  0  0  0
   53.6020   31.2360   52.4590 N   0  0  0  0  0  0  0  0  0  0  0  0
   52.6540   31.1710   51.3850 C   0  0  0  0  0  0  0  0  0  0  0  0
   52.7510   30.2380   50.5450 O   0  0  0  0  0  0  0  0  0  0  0  0
   51.6180   32.2020   51.1950 C   0  0  0  0  0  0  0  0  0  0  0  0
   50.9460   32.6170   52.1780 O   0  0  0  0  0  0  0  0  0  0  0  0
   51.4000   32.7530   49.8940 N   0  0  0  0  0  0  0  0  0  0  0  0
   50.6210   32.0700   48.8710 C   0  0  0  0  0  0  0  0  0  0  0  0
   49.8769   31.4176   49.3513 H   0  0  0  0  0  0  0  0  0  0  0  0
   50.1067   32.8135   48.2444 H   0  0  0  0  0  0  0  0  0  0  0  0
   51.2909   31.4629   48.2444 H   0  0  0  0  0  0  0  0  0  0  0  0
   55.8980   31.1340   51.6340 C   0  0  0  0  0  0  0  0  0  0  0  0
   55.6770   31.9980   50.9901 H   0  0  0  0  0  0  0  0  0  0  0  0
   60.2610   28.3280   49.4790 C   0  0  0  0  0  0  0  0  0  0  0  0
   60.9994   28.2465   50.2902 H   0  0  0  0  0  0  0  0  0  0  0  0
   60.1810   27.3270   48.5110 C   0  0  0  0  0  0  0  0  0  0  0  0
   60.8637   26.4660   48.5614 H   0  0  0  0  0  0  0  0  0  0  0  0
   59.2380   27.4060   47.4720 C   0  0  0  0  0  0  0  0  0  0  0  0
   59.1420   26.2760   46.5240 C   0  0  0  0  0  0  0  0  0  0  0  0
   60.1120   25.4780   46.4110 O   0  0  0  0  0  0  0  0  0  0  0  0
   57.9740   26.1120   45.7080 N   0  0  0  0  0  0  0  0  0  0  0  0
   57.0600   25.1820   45.7530 C   0  0  0  0  0  0  0  0  0  0  0  0
   57.4650   23.8920   45.5870 N   0  0  0  0  0  0  0  0  0  0  0  0
   56.6060   22.8410   45.6260 C   0  0  0  0  0  0  0  0  0  0  0  0
   56.9832   21.8169   45.4886 H   0  0  0  0  0  0  0  0  0  0  0  0
   55.2470   23.0600   45.8400 C   0  0  0  0  0  0  0  0  0  0  0  0
   54.5486   22.2117   45.8923 H   0  0  0  0  0  0  0  0  0  0  0  0
   54.7820   24.3650   45.9870 C   0  0  0  0  0  0  0  0  0  0  0  0
   53.7101   24.5499   46.1508 H   0  0  0  0  0  0  0  0  0  0  0  0
   55.6740   25.4410   45.9270 C   0  0  0  0  0  0  0  0  0  0  0  0
   55.1550   26.7290   45.9840 O   0  0  0  0  0  0  0  0  0  0  0  0
  1  2  1  0
  2  3  1  0
  3  4  2  0
  4  5  1  0
  4  6  1  0
  6  7  1  0
  7  8  1  0
  7  9  1  0
  7 10  1  0
 10 11  1  0
 10 12  1  0
 12 13  2  0
 13 14  1  0
 13 15  1  0
 15 16  1  0
 15 17  2  0
 17 18  1  0
 17 19  1  0
 19 20  1  0
 20 21  1  0
 21 22  2  0
 21 23  1  0
 23 24  2  0
 23 25  1  0
 25 26  1  0
 26 27  1  0
 26 28  1  0
 26 29  1  0
 19 30  2  0
 30 31  1  0
  6 32  2  0
 32 33  1  0
 32 34  1  0
 34 35  1  0
 34 36  2  0
 36 37  1  0
 37 38  2  0
 37 39  1  0
 39 40  2  0
 40 41  1  0
 41 42  1  0
 42 43  1  0
 42 44  2  0
 44 45  1  0
 44 46  1  0
 46 47  1  0
 46 48  2  0
 48 49  1  0
 36  3  1  0
 48 40  1  0
 30 12  1  0
M  CHG  4  20  -1  25  -1  41  -1  49  -1
M  END
>  <UniqueID>  (34) 
31

>  <SMILES>  (34) 
C[N-]C(=O)C(=O)[N-]c1cccc(NCc2ccc(C(=O)/N=c3/[n-]cccc3[O-])c(O)c2)c1

>  <Energy>  (34) 
71.7911463245956

>  <Genealogy>  (34) 
C[N-]C(=O)C(=O)[N-]c1cccc(NCc2ccc(C(=O)N=c3[n-]cccc3[O-])c(O)c2)c1 (protonated)
C[N-]C(=O)C(=O)[N-]c1cccc(NCc2ccc(C(=O)/N=c3/[n-]cccc3[O-])c(O)c2)c1 (cis-trans isomerization)
C[N-]C(=O)C(=O)[N-]c1cccc(NCc2ccc(C(=O)/N=c3/[n-]cccc3[O-])c(O)c2)c1 (3D coordinates assigned)
C[N-]C(=O)C(=O)[N-]c1cccc(NCc2ccc(C(=O)/N=c3/[n-]cccc3[O-])c(O)c2)c1 (optimized conformer: 71.7911463245956 kcal/mol)

>  <smiles>  (34) 
CNC(=O)C(=O)Nc1cccc(NCc2ccc(C(=O)N=c3[nH]cccc3O)c(O)c2)c1

>  <score_type>  (34) 
oracle

>  <origin>  (34) 
adg

>  <m_score__min__energy>  (34) 
-16.350000000000001

>  <m_primary>  (34) 
energy

$$$$
34:0
     RDKit          3D

 46 48  0  0  0  0  0  0  0  0999 V2000
   58.3687   35.3972   46.1499 H   0  0  0  0  0  0  0  0  0  0  0  0
   58.9540   34.4660   46.1350 C   0  0  0  0  0  0  0  0  0  0  0  0
   58.2910   33.2260   45.6830 C   0  0  0  0  0  0  0  0  0  0  0  0
   57.3770   33.3200   44.8210 O   0  0  0  0  0  0  0  0  0  0  0  0
   58.6310   31.9410   46.2340 N   0  0  0  0  0  0  0  0  0  0  0  0
   59.1380   31.8990   47.1460 H   0  0  0  0  0  0  0  0  0  0  0  0
   58.2450   30.6950   45.6350 C   0  0  0  0  0  0  0  0  0  0  0  0
   57.6930   30.6790   44.5010 O   0  0  0  0  0  0  0  0  0  0  0  0
   58.5460   29.4630   46.3100 N   0  0  0  0  0  0  0  0  0  0  0  0
   59.2480   29.4940   47.0830 H   0  0  0  0  0  0  0  0  0  0  0  0
   58.0320   28.1790   45.9150 C   0  0  0  0  0  0  0  0  0  0  0  0
   58.9220   27.1850   45.4870 C   0  0  0  0  0  0  0  0  0  0  0  0
   59.9997   27.4002   45.4403 H   0  0  0  0  0  0  0  0  0  0  0  0
   58.4500   25.9220   45.1190 C   0  0  0  0  0  0  0  0  0  0  0  0
   59.1567   25.1531   44.7734 H   0  0  0  0  0  0  0  0  0  0  0  0
   57.0810   25.6300   45.1880 C   0  0  0  0  0  0  0  0  0  0  0  0
   56.6040   24.3250   44.8200 N   0  0  0  0  0  0  0  0  0  0  0  0
   56.7690   23.8390   43.4760 C   0  0  0  0  0  0  0  0  0  0  0  0
   57.2620   24.5760   42.5800 O   0  0  0  0  0  0  0  0  0  0  0  0
   56.2580   22.4710   43.1200 C   0  0  0  0  0  0  0  0  0  0  0  0
   56.9157   22.0320   42.3554 H   0  0  0  0  0  0  0  0  0  0  0  0
   55.2305   22.5750   42.7412 H   0  0  0  0  0  0  0  0  0  0  0  0
   56.2300   21.6160   44.2480 O   0  0  0  0  0  0  0  0  0  0  0  0
   55.4470   22.1940   45.2730 C   0  0  0  0  0  0  0  0  0  0  0  0
   55.2693   21.4469   46.0606 H   0  0  0  0  0  0  0  0  0  0  0  0
   54.4876   22.5263   44.8498 H   0  0  0  0  0  0  0  0  0  0  0  0
   56.1760   23.4010   45.8740 C   0  0  0  0  0  0  0  0  0  0  0  0
   57.0596   23.0503   46.4275 H   0  0  0  0  0  0  0  0  0  0  0  0
   55.4875   23.9296   46.5497 H   0  0  0  0  0  0  0  0  0  0  0  0
   56.1860   26.6160   45.6350 C   0  0  0  0  0  0  0  0  0  0  0  0
   54.8240   26.3470   45.7090 O   0  0  0  0  0  0  0  0  0  0  0  0
   56.6600   27.8790   46.0040 C   0  0  0  0  0  0  0  0  0  0  0  0
   55.9559   28.6427   46.3661 H   0  0  0  0  0  0  0  0  0  0  0  0
   60.2350   34.5110   46.5280 C   0  0  0  0  0  0  0  0  0  0  0  0
   60.9953   34.8400   45.8043 H   0  0  0  0  0  0  0  0  0  0  0  0
   60.6730   34.1370   47.8950 C   0  0  0  0  0  0  0  0  0  0  0  0
   59.7640   34.1470   48.9730 C   0  0  0  0  0  0  0  0  0  0  0  0
   58.7127   34.4185   48.7970 H   0  0  0  0  0  0  0  0  0  0  0  0
   60.1870   33.8150   50.2630 C   0  0  0  0  0  0  0  0  0  0  0  0
   59.4673   33.8202   51.0949 H   0  0  0  0  0  0  0  0  0  0  0  0
   61.5200   33.4770   50.4980 C   0  0  0  0  0  0  0  0  0  0  0  0
   61.8501   33.2131   51.5136 H   0  0  0  0  0  0  0  0  0  0  0  0
   62.4340   33.4740   49.4440 C   0  0  0  0  0  0  0  0  0  0  0  0
   63.4845   33.2087   49.6338 H   0  0  0  0  0  0  0  0  0  0  0  0
   62.0250   33.8060   48.1460 C   0  0  0  0  0  0  0  0  0  0  0  0
   63.3410   33.7470   46.7510 Br  0  0  0  0  0  0  0  0  0  0  0  0
  1  2  1  0
  2  3  1  0
  3  4  2  0
  3  5  1  0
  5  6  1  0
  5  7  1  0
  7  8  2  0
  7  9  1  0
  9 10  1  0
  9 11  1  0
 11 12  2  0
 12 13  1  0
 12 14  1  0
 14 15  1  0
 14 16  2  0
 16 17  1  0
 17 18  1  0
 18 19  2  0
 18 20  1  0
 20 21  1  0
 20 22  1  0
 20 23  1  0
 23 24  1  0
 24 25  1  0
 24 26  1  0
 24 27  1  0
 27 28  1  0
 27 29  1  0
 16 30  1  0
 30 31  1  0
 30 32  2  0
 32 33  1  0
  2 34  2  0
 34 35  1  0
 34 36  1  0
 36 37  2  0
 37 38  1  0
 37 39  1  0
 39 40  1  0
 39 41  2  0
 41 42  1  0
 41 43  1  0
 43 44  1  0
 43 45  2  0
 45 46  1  0
 32 11  1  0
 45 36  1  0
 27 17  1  0
M  CHG  1  31  -1
M  END
>  <UniqueID>  (35) 
32

>  <SMILES>  (35) 
O=C(/C=C/c1ccccc1Br)NC(=O)Nc1ccc(N2CCOCC2=O)c([O-])c1

>  <Energy>  (35) 
65.71859152905343

>  <Genealogy>  (35) 
O=C(C=Cc1ccccc1Br)NC(=O)Nc1ccc(N2CCOCC2=O)c([O-])c1 (protonated)
O=C(/C=C/c1ccccc1Br)NC(=O)Nc1ccc(N2CCOCC2=O)c([O-])c1 (cis-trans isomerization)
O=C(/C=C/c1ccccc1Br)NC(=O)Nc1ccc(N2CCOCC2=O)c([O-])c1 (3D coordinates assigned)
O=C(/C=C/c1ccccc1Br)NC(=O)Nc1ccc(N2CCOCC2=O)c([O-])c1 (nonaromatic ring conformer: 65.71859152905343 kcal/mol)

>  <smiles>  (35) 
O=C(C=Cc1ccccc1Br)NC(=O)Nc1ccc(N2CCOCC2=O)c(O)c1

>  <score_type>  (35) 
oracle

>  <origin>  (35) 
adg

>  <m_score__min__energy>  (35) 
-13.51

>  <m_primary>  (35) 
energy

$$$$
35:0
     RDKit          3D

 54 58  0  0  0  0  0  0  0  0999 V2000
   55.4270   26.4850   46.0050 O   0  0  0  0  0  0  0  0  0  0  0  0
   55.2730   25.2370   45.9860 C   0  0  0  0  0  0  0  0  0  0  0  0
   55.6790   24.4160   44.8290 C   0  0  0  0  0  0  0  0  0  0  0  0
   54.8300   23.5240   44.2020 C   0  0  0  0  0  0  0  0  0  0  0  0
   55.5380   22.9750   43.1520 C   0  0  0  0  0  0  0  0  0  0  0  0
   56.7920   23.5490   43.1780 C   0  0  0  0  0  0  0  0  0  0  0  0
   56.8840   24.4220   44.2020 N   0  0  0  0  0  0  0  0  0  0  0  0
   58.0830   25.2100   44.5020 C   0  0  0  0  0  0  0  0  0  0  0  0
   58.0350   26.5550   43.8310 C   0  0  0  0  0  0  0  0  0  0  0  0
   58.4600   26.6620   42.6480 O   0  0  0  0  0  0  0  0  0  0  0  0
   57.5730   27.7180   44.5330 N   0  0  0  0  0  0  0  0  0  0  0  0
   57.6510   29.0540   43.9380 C   0  0  1  0  0  0  0  0  0  0  0  0
   56.7610   30.0280   44.6530 C   0  0  0  0  0  0  0  0  0  0  0  0
   55.5180   30.1530   44.8090 O   0  0  0  0  0  0  0  0  0  0  0  0
   57.9580   30.7380   45.1580 N   0  0  0  0  0  0  0  0  0  0  0  0
   58.2490   31.5210   46.3090 C   0  0  0  0  0  0  0  0  0  0  0  0
   57.6010   32.8430   46.4390 C   0  0  0  0  0  0  0  0  0  0  0  0
   56.6620   33.1930   45.6760 O   0  0  0  0  0  0  0  0  0  0  0  0
   58.0830   33.7490   47.3770 O   0  0  0  0  0  0  0  0  0  0  0  0
   59.1250   30.9940   47.1930 C   0  0  0  0  0  0  0  0  0  0  0  0
   59.7320   31.8050   48.3240 C   0  0  0  0  0  0  0  0  0  0  0  0
   61.0110   32.4340   47.9300 N   0  0  0  0  0  0  0  0  0  0  0  0
   61.0170   33.2080   46.7990 C   0  0  0  0  0  0  0  0  0  0  0  0
   62.1760   33.8510   46.3710 C   0  0  0  0  0  0  0  0  0  0  0  0
   63.3500   33.7110   47.0990 C   0  0  0  0  0  0  0  0  0  0  0  0
   63.3630   32.9250   48.2530 C   0  0  0  0  0  0  0  0  0  0  0  0
   64.5450   32.7850   48.9960 C   0  0  0  0  0  0  0  0  0  0  0  0
   64.5590   32.0030   50.1510 C   0  0  0  0  0  0  0  0  0  0  0  0
   63.4000   31.3560   50.5710 C   0  0  0  0  0  0  0  0  0  0  0  0
   62.2150   31.4840   49.8420 C   0  0  0  0  0  0  0  0  0  0  0  0
   62.1700   32.2750   48.6680 C   0  0  0  0  0  0  0  0  0  0  0  0
   59.4020   29.5020   47.0840 C   0  0  0  0  0  0  0  0  0  0  0  0
   60.0620   29.0260   45.4370 S   0  0  0  0  0  0  0  0  0  0  0  0
   58.7820   29.8400   44.3830 C   0  0  1  0  0  0  0  0  0  0  0  0
   54.8218   24.7422   46.8587 H   0  0  0  0  0  0  0  0  0  0  0  0
   53.7917   23.2958   44.4847 H   0  0  0  0  0  0  0  0  0  0  0  0
   55.1732   22.2256   42.4342 H   0  0  0  0  0  0  0  0  0  0  0  0
   57.6006   23.3268   42.4661 H   0  0  0  0  0  0  0  0  0  0  0  0
   58.1536   25.3547   45.5901 H   0  0  0  0  0  0  0  0  0  0  0  0
   58.9604   24.6646   44.1241 H   0  0  0  0  0  0  0  0  0  0  0  0
   57.2460   27.6220   45.5210 H   0  0  0  0  0  0  0  0  0  0  0  0
   57.5302   28.8037   42.8737 H   0  0  0  0  0  0  0  0  0  0  0  0
   59.0231   32.5940   48.6155 H   0  0  0  0  0  0  0  0  0  0  0  0
   59.9333   31.1217   49.1622 H   0  0  0  0  0  0  0  0  0  0  0  0
   60.0897   33.3235   46.2187 H   0  0  0  0  0  0  0  0  0  0  0  0
   62.1613   34.4672   45.4599 H   0  0  0  0  0  0  0  0  0  0  0  0
   64.2680   34.2183   46.7673 H   0  0  0  0  0  0  0  0  0  0  0  0
   65.4632   33.2934   48.6667 H   0  0  0  0  0  0  0  0  0  0  0  0
   65.4876   31.8973   50.7311 H   0  0  0  0  0  0  0  0  0  0  0  0
   63.4173   30.7403   51.4824 H   0  0  0  0  0  0  0  0  0  0  0  0
   61.3073   30.9649   50.1835 H   0  0  0  0  0  0  0  0  0  0  0  0
   60.1377   29.2230   47.8527 H   0  0  0  0  0  0  0  0  0  0  0  0
   58.4475   28.9741   47.2263 H   0  0  0  0  0  0  0  0  0  0  0  0
   59.4424   30.2027   43.5815 H   0  0  0  0  0  0  0  0  0  0  0  0
  1  2  2  0
  2  3  1  0
  3  4  2  0
  4  5  1  0
  5  6  2  0
  6  7  1  0
  7  8  1  0
  8  9  1  0
  9 10  2  0
  9 11  1  0
 11 12  1  0
 12 13  1  0
 13 14  2  0
 13 15  1  0
 15 16  1  0
 16 17  1  0
 17 18  2  0
 17 19  1  0
 16 20  2  0
 20 21  1  0
 21 22  1  0
 22 23  2  0
 23 24  1  0
 24 25  2  0
 25 26  1  0
 26 27  2  0
 27 28  1  0
 28 29  2  0
 29 30  1  0
 30 31  2  0
 20 32  1  0
 32 33  1  0
 33 34  1  0
  7  3  1  0
 34 12  1  0
 34 15  1  0
 31 22  1  0
 31 26  1  0
  2 35  1  0
  4 36  1  0
  5 37  1  0
  6 38  1  0
  8 39  1  0
  8 40  1  0
 11 41  1  0
 12 42  1  6
 21 43  1  0
 21 44  1  0
 23 45  1  0
 24 46  1  0
 25 47  1  0
 27 48  1  0
 28 49  1  0
 29 50  1  0
 30 51  1  0
 32 52  1  0
 32 53  1  0
 34 54  1  6
M  CHG  2  19  -1  22   1
M  END
>  <UniqueID>  (36) 
33

>  <SMILES>  (36) 
O=Cc1cccn1CC(=O)N[C@H]1C(=O)N2C(C(=O)[O-])=C(C[n+]3cccc4ccccc43)CS[C@@H]12

>  <Energy>  (36) 
139.95755314354906

>  <Genealogy>  (36) 
O=Cc1cccn1CC(=O)N[C@H]1C(=O)N2C(C(=O)[O-])=C(C[n+]3cccc4ccccc43)CS[C@@H]12 (chirality)
O=Cc1cccn1CC(=O)N[C@H]1C(=O)N2C(C(=O)[O-])=C(C[n+]3cccc4ccccc43)CS[C@@H]12 (3D coordinates assigned)
O=Cc1cccn1CC(=O)N[C@H]1C(=O)N2C(C(=O)[O-])=C(C[n+]3cccc4ccccc43)CS[C@@H]12 (nonaromatic ring conformer: 139.95755314354906 kcal/mol)

>  <smiles>  (36) 
O=Cc1cccn1CC(=O)NC1C(=O)N2C(C(=O)[O-])=C(C[n+]3cccc4ccccc43)CSC12

>  <score_type>  (36) 
oracle

>  <origin>  (36) 
adg

>  <m_score__min__energy>  (36) 
-9.5399999999999991

>  <m_primary>  (36) 
energy

$$$$
36:0
     RDKit          3D

 43 46  0  0  0  0  0  0  0  0999 V2000
   51.4000   32.5810   49.9290 O   0  0  0  0  0  0  0  0  0  0  0  0
   51.3890   32.3580   51.1690 C   0  0  0  0  0  0  0  0  0  0  0  0
   50.6560   33.2000   51.9980 O   0  0  0  0  0  0  0  0  0  0  0  0
   52.1420   31.2190   51.7370 C   0  0  0  0  0  0  0  0  0  0  0  0
   51.4600   30.0980   52.2370 C   0  0  0  0  0  0  0  0  0  0  0  0
   52.1660   29.0230   52.7780 C   0  0  0  0  0  0  0  0  0  0  0  0
   53.5620   29.0530   52.8290 C   0  0  0  0  0  0  0  0  0  0  0  0
   54.2680   30.1630   52.3350 C   0  0  0  0  0  0  0  0  0  0  0  0
   55.7510   30.1970   52.3920 C   0  0  0  0  0  0  0  0  0  0  0  0
   56.4790   29.0450   52.7450 C   0  0  0  0  0  0  0  0  0  0  0  0
   57.8750   29.0780   52.7930 C   0  0  0  0  0  0  0  0  0  0  0  0
   58.5610   30.2560   52.4900 C   0  0  0  0  0  0  0  0  0  0  0  0
   57.8510   31.4100   52.1350 C   0  0  0  0  0  0  0  0  0  0  0  0
   58.7320   32.8770   51.7240 S   0  0  0  0  0  0  0  0  0  0  0  0
   59.9760   32.9560   52.5650 O   0  0  0  0  0  0  0  0  0  0  0  0
   57.8900   34.0960   51.9840 O   0  0  0  0  0  0  0  0  0  0  0  0
   59.1580   32.8370   50.0440 N   0  0  0  0  0  0  0  0  0  0  0  0
   58.2110   32.6070   48.9570 C   0  0  0  0  0  0  0  0  0  0  0  0
   59.0130   32.8210   47.6480 C   0  0  0  0  0  0  0  0  0  0  0  0
   60.3660   33.2200   48.1320 C   0  0  0  0  0  0  0  0  0  0  0  0
   61.4860   33.5720   47.3750 C   0  0  0  0  0  0  0  0  0  0  0  0
   62.6650   33.9260   48.0490 C   0  0  0  0  0  0  0  0  0  0  0  0
   62.7060   33.9250   49.4580 C   0  0  0  0  0  0  0  0  0  0  0  0
   61.5670   33.5660   50.1970 C   0  0  0  0  0  0  0  0  0  0  0  0
   60.4070   33.2170   49.4990 C   0  0  0  0  0  0  0  0  0  0  0  0
   56.4500   31.3800   52.0900 C   0  0  0  0  0  0  0  0  0  0  0  0
   53.5480   31.2420   51.7890 C   0  0  0  0  0  0  0  0  0  0  0  0
   50.3610   30.0671   52.2019 H   0  0  0  0  0  0  0  0  0  0  0  0
   51.6219   28.1491   53.1656 H   0  0  0  0  0  0  0  0  0  0  0  0
   54.1117   28.2025   53.2585 H   0  0  0  0  0  0  0  0  0  0  0  0
   55.9456   28.1133   52.9845 H   0  0  0  0  0  0  0  0  0  0  0  0
   58.4355   28.1731   53.0704 H   0  0  0  0  0  0  0  0  0  0  0  0
   59.6601   30.2777   52.5302 H   0  0  0  0  0  0  0  0  0  0  0  0
   57.8176   31.5807   49.0021 H   0  0  0  0  0  0  0  0  0  0  0  0
   57.3486   33.2869   49.0199 H   0  0  0  0  0  0  0  0  0  0  0  0
   59.0632   31.8921   47.0610 H   0  0  0  0  0  0  0  0  0  0  0  0
   58.5572   33.5693   46.9830 H   0  0  0  0  0  0  0  0  0  0  0  0
   61.4448   33.5717   46.2758 H   0  0  0  0  0  0  0  0  0  0  0  0
   63.5610   34.2054   47.4753 H   0  0  0  0  0  0  0  0  0  0  0  0
   63.6325   34.2061   49.9801 H   0  0  0  0  0  0  0  0  0  0  0  0
   61.5870   33.5596   51.2968 H   0  0  0  0  0  0  0  0  0  0  0  0
   55.8931   32.2883   51.8165 H   0  0  0  0  0  0  0  0  0  0  0  0
   54.0915   32.1147   51.3978 H   0  0  0  0  0  0  0  0  0  0  0  0
  1  2  2  0
  2  3  1  0
  2  4  1  0
  4  5  2  0
  5  6  1  0
  6  7  2  0
  7  8  1  0
  8  9  1  0
  9 10  2  0
 10 11  1  0
 11 12  2  0
 12 13  1  0
 13 14  1  0
 14 15  2  0
 14 16  2  0
 14 17  1  0
 17 18  1  0
 18 19  1  0
 19 20  1  0
 20 21  2  0
 21 22  1  0
 22 23  2  0
 23 24  1  0
 24 25  2  0
 13 26  2  0
  8 27  2  0
 27  4  1  0
 26  9  1  0
 25 17  1  0
 25 20  1  0
  5 28  1  0
  6 29  1  0
  7 30  1  0
 10 31  1  0
 11 32  1  0
 12 33  1  0
 18 34  1  0
 18 35  1  0
 19 36  1  0
 19 37  1  0
 21 38  1  0
 22 39  1  0
 23 40  1  0
 24 41  1  0
 26 42  1  0
 27 43  1  0
M  CHG  1   3  -1
M  END
>  <UniqueID>  (37) 
34

>  <SMILES>  (37) 
O=C([O-])c1cccc(-c2cccc(S(=O)(=O)N3CCc4ccccc43)c2)c1

>  <Energy>  (37) 
68.3191925426615

>  <Genealogy>  (37) 
O=C([O-])c1cccc(-c2cccc(S(=O)(=O)N3CCc4ccccc43)c2)c1 (protonated)
O=C([O-])c1cccc(-c2cccc(S(=O)(=O)N3CCc4ccccc43)c2)c1 (3D coordinates assigned)
O=C([O-])c1cccc(-c2cccc(S(=O)(=O)N3CCc4ccccc43)c2)c1 (nonaromatic ring conformer: 68.3191925426615 kcal/mol)

>  <smiles>  (37) 
O=C(O)c1cccc(-c2cccc(S(=O)(=O)N3CCc4ccccc43)c2)c1

>  <score_type>  (37) 
oracle

>  <origin>  (37) 
adg

>  <m_score__min__energy>  (37) 
-13.09

>  <m_primary>  (37) 
energy

$$$$
37:0
     RDKit          3D

 34 35  0  0  0  0  0  0  0  0999 V2000
   54.8010   29.7540   43.7350 O   0  0  0  0  0  0  0  0  0  0  0  0
   55.8510   29.8660   44.4230 C   0  0  0  0  0  0  0  0  0  0  0  0
   56.6910   28.6490   44.7110 C   0  0  0  0  0  0  0  0  0  0  0  0
   55.9920   27.7210   45.5970 N   0  0  0  0  0  0  0  0  0  0  0  0
   56.6200   26.6680   46.3410 C   0  0  0  0  0  0  0  0  0  0  0  0
   55.9210   25.6910   46.7200 O   0  0  0  0  0  0  0  0  0  0  0  0
   58.0520   26.7030   46.6850 C   0  0  0  0  0  0  0  0  0  0  0  0
   58.9700   25.8770   46.0210 C   0  0  0  0  0  0  0  0  0  0  0  0
   60.3140   25.8880   46.3970 C   0  0  0  0  0  0  0  0  0  0  0  0
   60.7310   26.7330   47.4250 C   0  0  0  0  0  0  0  0  0  0  0  0
   59.8290   27.5220   48.0670 N   0  0  0  0  0  0  0  0  0  0  0  0
   58.5100   27.5180   47.7310 C   0  0  0  0  0  0  0  0  0  0  0  0
   56.2560   31.1740   44.8460 N   0  0  0  0  0  0  0  0  0  0  0  0
   57.4030   31.9110   44.3260 C   0  0  0  0  0  0  0  0  0  0  0  0
   58.0750   32.6990   45.4180 C   0  0  0  0  0  0  0  0  0  0  0  0
   58.1370   32.1850   46.7250 C   0  0  0  0  0  0  0  0  0  0  0  0
   58.7110   32.9380   47.7530 C   0  0  0  0  0  0  0  0  0  0  0  0
   59.2210   34.2160   47.4890 C   0  0  0  0  0  0  0  0  0  0  0  0
   59.7980   34.9740   48.5050 O   0  0  0  0  0  0  0  0  0  0  0  0
   59.1560   34.7350   46.1920 C   0  0  0  0  0  0  0  0  0  0  0  0
   58.5840   33.9820   45.1610 C   0  0  0  0  0  0  0  0  0  0  0  0
   56.9185   28.1380   43.7639 H   0  0  0  0  0  0  0  0  0  0  0  0
   57.6164   28.9748   45.2086 H   0  0  0  0  0  0  0  0  0  0  0  0
   58.6315   25.2214   45.2051 H   0  0  0  0  0  0  0  0  0  0  0  0
   61.0381   25.2358   45.8869 H   0  0  0  0  0  0  0  0  0  0  0  0
   61.7912   26.7612   47.7168 H   0  0  0  0  0  0  0  0  0  0  0  0
   57.8017   28.1552   48.2808 H   0  0  0  0  0  0  0  0  0  0  0  0
   58.1249   31.1993   43.8990 H   0  0  0  0  0  0  0  0  0  0  0  0
   57.0505   32.6106   43.5538 H   0  0  0  0  0  0  0  0  0  0  0  0
   57.7317   31.1852   46.9397 H   0  0  0  0  0  0  0  0  0  0  0  0
   58.7625   32.5263   48.7718 H   0  0  0  0  0  0  0  0  0  0  0  0
   59.2520   35.6270   49.0540 H   0  0  0  0  0  0  0  0  0  0  0  0
   59.5557   35.7380   45.9819 H   0  0  0  0  0  0  0  0  0  0  0  0
   58.5328   34.3973   44.1437 H   0  0  0  0  0  0  0  0  0  0  0  0
  1  2  2  0
  2  3  1  0
  3  4  1  0
  4  5  1  0
  5  6  2  0
  5  7  1  0
  7  8  2  0
  8  9  1  0
  9 10  2  0
 10 11  1  0
 11 12  2  0
  2 13  1  0
 13 14  1  0
 14 15  1  0
 15 16  2  0
 16 17  1  0
 17 18  2  0
 18 19  1  0
 18 20  1  0
 20 21  2  0
 12  7  1  0
 21 15  1  0
  3 22  1  0
  3 23  1  0
  8 24  1  0
  9 25  1  0
 10 26  1  0
 12 27  1  0
 14 28  1  0
 14 29  1  0
 16 30  1  0
 17 31  1  0
 19 32  1  0
 20 33  1  0
 21 34  1  0
M  CHG  2   4  -1  13  -1
M  END
>  <UniqueID>  (38) 
35

>  <SMILES>  (38) 
O=C(C[N-]C(=O)c1cccnc1)[N-]Cc1ccc(O)cc1

>  <Energy>  (38) 
34.00028984956194

>  <Genealogy>  (38) 
O=C(C[N-]C(=O)c1cccnc1)[N-]Cc1ccc(O)cc1 (protonated)
O=C(C[N-]C(=O)c1cccnc1)[N-]Cc1ccc(O)cc1 (3D coordinates assigned)
O=C(C[N-]C(=O)c1cccnc1)[N-]Cc1ccc(O)cc1 (optimized conformer: 34.00028984956194 kcal/mol)

>  <smiles>  (38) 
O=C(CNC(=O)c1cccnc1)NCc1ccc(O)cc1

>  <score_type>  (38) 
oracle

>  <origin>  (38) 
adg

>  <m_score__min__energy>  (38) 
-11.25

>  <m_primary>  (38) 
energy

$$$$
38:0
     RDKit          3D

 33 34  0  0  0  0  0  0  0  0999 V2000
   56.8640   34.2910   45.4000 N   0  0  0  0  0  0  0  0  0  0  0  0
   58.2860   33.3800   45.0380 S   0  0  0  0  0  0  0  0  0  0  0  0
   58.7520   33.7120   43.6490 O   0  0  0  0  0  0  0  0  0  0  0  0
   59.3740   33.7390   46.0110 O   0  0  0  0  0  0  0  0  0  0  0  0
   57.9260   31.6600   45.1520 C   0  0  0  0  0  0  0  0  0  0  0  0
   58.8380   30.7910   45.7580 C   0  0  0  0  0  0  0  0  0  0  0  0
   58.5530   29.4280   45.8560 C   0  0  0  0  0  0  0  0  0  0  0  0
   57.3430   28.9080   45.3600 C   0  0  0  0  0  0  0  0  0  0  0  0
   57.0870   27.4920   45.4100 N   0  0  0  0  0  0  0  0  0  0  0  0
   57.6160   26.6050   46.4460 C   0  0  0  0  0  0  0  0  0  0  0  0
   56.8330   25.3150   46.4910 C   0  0  0  0  0  0  0  0  0  0  0  0
   57.4410   24.1370   46.9620 C   0  0  0  0  0  0  0  0  0  0  0  0
   56.7240   22.9370   46.9990 C   0  0  0  0  0  0  0  0  0  0  0  0
   57.3350   21.7770   47.4600 O   0  0  0  0  0  0  0  0  0  0  0  0
   55.3930   22.9030   46.5740 C   0  0  0  0  0  0  0  0  0  0  0  0
   54.7760   24.0690   46.1170 C   0  0  0  0  0  0  0  0  0  0  0  0
   55.4860   25.2740   46.0780 C   0  0  0  0  0  0  0  0  0  0  0  0
   54.8440   26.4250   45.6350 O   0  0  0  0  0  0  0  0  0  0  0  0
   56.4100   29.7910   44.7670 C   0  0  0  0  0  0  0  0  0  0  0  0
   55.1340   29.3320   44.3000 N   0  0  0  0  0  0  0  0  0  0  0  0
   56.7140   31.1590   44.6650 C   0  0  0  0  0  0  0  0  0  0  0  0
   56.3210   33.7440   46.1040 H   0  0  0  0  0  0  0  0  0  0  0  0
   59.7842   31.1829   46.1593 H   0  0  0  0  0  0  0  0  0  0  0  0
   59.2827   28.7525   46.3264 H   0  0  0  0  0  0  0  0  0  0  0  0
   56.5060   27.0570   44.6580 H   0  0  0  0  0  0  0  0  0  0  0  0
   58.6702   26.3806   46.2262 H   0  0  0  0  0  0  0  0  0  0  0  0
   57.5293   27.1069   47.4210 H   0  0  0  0  0  0  0  0  0  0  0  0
   58.4865   24.1600   47.3032 H   0  0  0  0  0  0  0  0  0  0  0  0
   54.8315   21.9574   46.5996 H   0  0  0  0  0  0  0  0  0  0  0  0
   53.7273   24.0402   45.7862 H   0  0  0  0  0  0  0  0  0  0  0  0
   54.7840   28.3690   44.4970 H   0  0  0  0  0  0  0  0  0  0  0  0
   54.4790   29.9880   43.8200 H   0  0  0  0  0  0  0  0  0  0  0  0
   55.9911   31.8435   44.1971 H   0  0  0  0  0  0  0  0  0  0  0  0
  1  2  1  0
  2  3  2  0
  2  4  2  0
  2  5  1  0
  5  6  2  0
  6  7  1  0
  7  8  2  0
  8  9  1  0
  9 10  1  0
 10 11  1  0
 11 12  2  0
 12 13  1  0
 13 14  1  0
 13 15  2  0
 15 16  1  0
 16 17  2  0
 17 18  1  0
  8 19  1  0
 19 20  1  0
 19 21  2  0
 21  5  1  0
 17 11  1  0
  1 22  1  0
  6 23  1  0
  7 24  1  0
  9 25  1  0
 10 26  1  0
 10 27  1  0
 12 28  1  0
 15 29  1  0
 16 30  1  0
 20 31  1  0
 20 32  1  0
 21 33  1  0
M  CHG  3   1  -1  14  -1  18  -1
M  END
>  <UniqueID>  (39) 
36

>  <SMILES>  (39) 
[NH-]S(=O)(=O)c1ccc(NCc2cc([O-])ccc2[O-])c(N)c1

>  <Energy>  (39) 
36.725601843171304

>  <Genealogy>  (39) 
[NH-]S(=O)(=O)c1ccc(NCc2cc([O-])ccc2[O-])c(N)c1 (protonated)
[NH-]S(=O)(=O)c1ccc(NCc2cc([O-])ccc2[O-])c(N)c1 (3D coordinates assigned)
[NH-]S(=O)(=O)c1ccc(NCc2cc([O-])ccc2[O-])c(N)c1 (optimized conformer: 36.725601843171304 kcal/mol)

>  <smiles>  (39) 
Nc1cc(S(N)(=O)=O)ccc1NCc1cc(O)ccc1O

>  <score_type>  (39) 
oracle

>  <origin>  (39) 
adg

>  <m_score__min__energy>  (39) 
-13.550000000000001

>  <m_primary>  (39) 
energy

$$$$
39:0
     RDKit          3D

 26 27  0  0  0  0  0  0  0  0999 V2000
   59.3890   27.5520   46.4010 O   0  0  0  0  0  0  0  0  0  0  0  0
   58.1920   27.9430   46.3350 C   0  0  0  0  0  0  0  0  0  0  0  0
   57.1240   27.0450   46.6630 N   0  0  0  0  0  0  0  0  0  0  0  0
   56.7970   25.8450   45.9480 C   0  0  0  0  0  0  0  0  0  0  0  0
   57.8400   25.0300   45.4950 C   0  0  0  0  0  0  0  0  0  0  0  0
   57.5690   23.8550   44.7890 C   0  0  0  0  0  0  0  0  0  0  0  0
   56.2440   23.4840   44.5060 C   0  0  0  0  0  0  0  0  0  0  0  0
   55.9680   22.2720   43.7800 N   0  0  0  0  0  0  0  0  0  0  0  0
   55.8250   22.2910   42.5400 O   0  0  0  0  0  0  0  0  0  0  0  0
   55.8510   21.0710   44.4420 O   0  0  0  0  0  0  0  0  0  0  0  0
   55.1970   24.3220   44.9300 C   0  0  0  0  0  0  0  0  0  0  0  0
   55.4670   25.5010   45.6330 C   0  0  0  0  0  0  0  0  0  0  0  0
   54.4110   26.3370   45.9790 O   0  0  0  0  0  0  0  0  0  0  0  0
   57.8850   29.3020   45.8360 C   0  0  0  0  0  0  0  0  0  0  0  0
   56.6390   29.6180   45.2450 C   0  0  0  0  0  0  0  0  0  0  0  0
   55.6570   28.6540   45.0120 O   0  0  0  0  0  0  0  0  0  0  0  0
   56.3860   30.8950   44.8580 N   0  0  0  0  0  0  0  0  0  0  0  0
   57.3080   31.8780   45.0050 C   0  0  0  0  0  0  0  0  0  0  0  0
   57.0440   33.0500   44.6330 O   0  0  0  0  0  0  0  0  0  0  0  0
   58.5190   31.5960   45.5470 N   0  0  0  0  0  0  0  0  0  0  0  0
   58.8280   30.3420   45.9630 C   0  0  0  0  0  0  0  0  0  0  0  0
   59.9570   30.1300   46.4800 O   0  0  0  0  0  0  0  0  0  0  0  0
   58.8827   25.3167   45.6964 H   0  0  0  0  0  0  0  0  0  0  0  0
   58.3989   23.2162   44.4525 H   0  0  0  0  0  0  0  0  0  0  0  0
   54.1555   24.0476   44.7066 H   0  0  0  0  0  0  0  0  0  0  0  0
   55.8400   27.6600   45.0200 H   0  0  0  0  0  0  0  0  0  0  0  0
  1  2  2  0
  2  3  1  0
  3  4  1  0
  4  5  2  0
  5  6  1  0
  6  7  2  0
  7  8  1  0
  8  9  2  0
  8 10  1  0
  7 11  1  0
 11 12  2  0
 12 13  1  0
  2 14  1  0
 14 15  2  0
 15 16  1  0
 15 17  1  0
 17 18  1  0
 18 19  2  0
 18 20  1  0
 20 21  1  0
 21 22  2  0
 12  4  1  0
 21 14  1  0
  5 23  1  0
  6 24  1  0
 11 25  1  0
 16 26  1  0
M  CHG  6   3  -1   8   1  10  -1  13  -1  17  -1  20  -1
M  END
>  <UniqueID>  (40) 
37

>  <SMILES>  (40) 
O=C([N-]c1ccc([N+](=O)[O-])cc1[O-])c1c(O)[n-]c(=O)[n-]c1=O

>  <Energy>  (40) 
42.012686537997475

>  <Genealogy>  (40) 
O=C([N-]c1ccc([N+](=O)[O-])cc1[O-])c1c(O)[n-]c(=O)[n-]c1=O (protonated)
O=C([N-]c1ccc([N+](=O)[O-])cc1[O-])c1c(O)[n-]c(=O)[n-]c1=O (3D coordinates assigned)
O=C([N-]c1ccc([N+](=O)[O-])cc1[O-])c1c(O)[n-]c(=O)[n-]c1=O (optimized conformer: 42.012686537997475 kcal/mol)

>  <smiles>  (40) 
O=C(Nc1ccc([N+](=O)[O-])cc1O)c1c(O)[nH]c(=O)[nH]c1=O

>  <score_type>  (40) 
oracle

>  <origin>  (40) 
adg

>  <m_score__min__energy>  (40) 
-15.91

>  <m_primary>  (40) 
energy

$$$$
40:0
     RDKit          3D

 50 52  0  0  0  0  0  0  0  0999 V2000
   57.7172   34.5051   44.9982 H   0  0  0  0  0  0  0  0  0  0  0  0
   58.3400   34.2860   45.8780 C   0  0  0  0  0  0  0  0  0  0  0  0
   59.6320   34.8110   45.9680 C   0  0  0  0  0  0  0  0  0  0  0  0
   60.0327   35.4253   45.1482 H   0  0  0  0  0  0  0  0  0  0  0  0
   60.4160   34.5580   47.0960 C   0  0  0  0  0  0  0  0  0  0  0  0
   61.4362   34.9656   47.1516 H   0  0  0  0  0  0  0  0  0  0  0  0
   59.9120   33.7820   48.1700 C   0  0  0  0  0  0  0  0  0  0  0  0
   60.7590   33.4570   49.4120 C   0  0  0  0  0  0  0  0  0  0  0  0
   61.2070   31.9860   49.3940 C   0  0  0  0  0  0  0  0  0  0  0  0
   61.9700   31.5780   50.3140 O   0  0  0  0  0  0  0  0  0  0  0  0
   60.7860   30.9980   48.3500 C   0  0  0  0  0  0  0  0  0  0  0  0
   61.4520   30.9850   47.1070 C   0  0  0  0  0  0  0  0  0  0  0  0
   62.2836   31.6830   46.9301 H   0  0  0  0  0  0  0  0  0  0  0  0
   61.0710   30.0990   46.0980 C   0  0  0  0  0  0  0  0  0  0  0  0
   61.6081   30.1021   45.1380 H   0  0  0  0  0  0  0  0  0  0  0  0
   60.0140   29.2090   46.2970 C   0  0  0  0  0  0  0  0  0  0  0  0
   59.6370   28.3720   45.2360 O   0  0  0  0  0  0  0  0  0  0  0  0
   58.6270   28.6710   44.2690 C   0  0  0  0  0  0  0  0  0  0  0  0
   58.9976   29.4525   43.5894 H   0  0  0  0  0  0  0  0  0  0  0  0
   58.3939   27.7552   43.7059 H   0  0  0  0  0  0  0  0  0  0  0  0
   57.3780   29.1550   44.9410 C   0  0  0  0  0  0  0  0  0  0  0  0
   56.9940   30.3470   44.7700 O   0  0  0  0  0  0  0  0  0  0  0  0
   56.5730   28.2240   45.6850 N   0  0  0  0  0  0  0  0  0  0  0  0
   56.7740   26.9480   45.9050 C   0  0  0  0  0  0  0  0  0  0  0  0
   55.7240   25.9930   46.0120 C   0  0  0  0  0  0  0  0  0  0  0  0
   54.3800   26.3390   45.9100 O   0  0  0  0  0  0  0  0  0  0  0  0
   56.0440   24.6530   46.2630 C   0  0  0  0  0  0  0  0  0  0  0  0
   55.2426   23.9020   46.3248 H   0  0  0  0  0  0  0  0  0  0  0  0
   57.3710   24.2650   46.4350 C   0  0  0  0  0  0  0  0  0  0  0  0
   57.6220   23.2124   46.6324 H   0  0  0  0  0  0  0  0  0  0  0  0
   58.3760   25.2260   46.3540 C   0  0  0  0  0  0  0  0  0  0  0  0
   59.4269   24.9340   46.4971 H   0  0  0  0  0  0  0  0  0  0  0  0
   58.0610   26.5270   46.0980 N   0  0  0  0  0  0  0  0  0  0  0  0
   58.8430   27.2200   46.0440 H   0  0  0  0  0  0  0  0  0  0  0  0
   59.3600   29.1910   47.5400 C   0  0  0  0  0  0  0  0  0  0  0  0
   58.5513   28.4678   47.7214 H   0  0  0  0  0  0  0  0  0  0  0  0
   59.7300   30.0860   48.5480 C   0  0  0  0  0  0  0  0  0  0  0  0
   59.1907   30.0784   49.5067 H   0  0  0  0  0  0  0  0  0  0  0  0
   61.9870   34.3960   49.3770 C   0  0  0  0  0  0  0  0  0  0  0  0
   62.2968   34.6329   50.4055 H   0  0  0  0  0  0  0  0  0  0  0  0
   62.8144   33.8981   48.8503 H   0  0  0  0  0  0  0  0  0  0  0  0
   61.7233   35.3250   48.8503 H   0  0  0  0  0  0  0  0  0  0  0  0
   60.0200   33.7150   50.7510 C   0  0  0  0  0  0  0  0  0  0  0  0
   60.6906   33.4809   51.5909 H   0  0  0  0  0  0  0  0  0  0  0  0
   59.7187   34.7715   50.8059 H   0  0  0  0  0  0  0  0  0  0  0  0
   59.1266   33.0756   50.8059 H   0  0  0  0  0  0  0  0  0  0  0  0
   58.6200   33.2230   48.0340 C   0  0  0  0  0  0  0  0  0  0  0  0
   58.2229   32.5738   48.8283 H   0  0  0  0  0  0  0  0  0  0  0  0
   57.8410   33.4850   46.9030 C   0  0  0  0  0  0  0  0  0  0  0  0
   56.8308   33.0573   46.8221 H   0  0  0  0  0  0  0  0  0  0  0  0
  1  2  1  0
  2  3  2  0
  3  4  1  0
  3  5  1  0
  5  6  1  0
  5  7  2  0
  7  8  1  0
  8  9  1  0
  9 10  2  0
  9 11  1  0
 11 12  2  0
 12 13  1  0
 12 14  1  0
 14 15  1  0
 14 16  2  0
 16 17  1  0
 17 18  1  0
 18 19  1  0
 18 20  1  0
 18 21  1  0
 21 22  2  0
 21 23  1  0
 23 24  2  0
 24 25  1  0
 25 26  1  0
 25 27  2  0
 27 28  1  0
 27 29  1  0
 29 30  1  0
 29 31  2  0
 31 32  1  0
 31 33  1  0
 33 34  1  0
 16 35  1  0
 35 36  1  0
 35 37  2  0
 37 38  1  0
  8 39  1  0
 39 40  1  0
 39 41  1  0
 39 42  1  0
  8 43  1  0
 43 44  1  0
 43 45  1  0
 43 46  1  0
  7 47  1  0
 47 48  1  0
 47 49  2  0
 49 50  1  0
 49  2  1  0
 37 11  1  0
 33 24  1  0
M  CHG  1  26  -1
M  END
>  <UniqueID>  (41) 
38

>  <SMILES>  (41) 
CC(C)(C(=O)c1ccc(OCC(=O)/N=c2/[nH]cccc2[O-])cc1)c1ccccc1

>  <Energy>  (41) 
70.08536555825751

>  <Genealogy>  (41) 
CC(C)(C(=O)c1ccc(OCC(=O)N=c2[nH]cccc2[O-])cc1)c1ccccc1 (protonated)
CC(C)(C(=O)c1ccc(OCC(=O)/N=c2/[nH]cccc2[O-])cc1)c1ccccc1 (cis-trans isomerization)
CC(C)(C(=O)c1ccc(OCC(=O)/N=c2/[nH]cccc2[O-])cc1)c1ccccc1 (3D coordinates assigned)
CC(C)(C(=O)c1ccc(OCC(=O)/N=c2/[nH]cccc2[O-])cc1)c1ccccc1 (optimized conformer: 70.08536555825751 kcal/mol)

>  <smiles>  (41) 
CC(C)(C(=O)c1ccc(OCC(=O)N=c2[nH]cccc2O)cc1)c1ccccc1

>  <score_type>  (41) 
oracle

>  <origin>  (41) 
adg

>  <m_score__min__energy>  (41) 
-12.449999999999999

>  <m_primary>  (41) 
energy

$$$$
41:0
     RDKit          3D

 43 45  0  0  0  0  0  0  0  0999 V2000
   58.1420   23.3080   44.1480 C   0  0  0  0  0  0  0  0  0  0  0  0
   57.6000   24.4490   44.8790 N   0  0  0  0  0  0  0  0  0  0  0  0
   56.3350   24.9090   44.8390 C   0  0  0  0  0  0  0  0  0  0  0  0
   56.2410   25.9530   45.7360 C   0  0  0  0  0  0  0  0  0  0  0  0
   55.0960   26.6990   45.9940 O   0  0  0  0  0  0  0  0  0  0  0  0
   57.4290   26.1350   46.3510 N   0  0  0  0  0  0  0  0  0  0  0  0
   57.7530   27.0890   47.4130 C   0  0  0  0  0  0  0  0  0  0  0  0
   58.7370   28.1180   46.9230 C   0  0  0  0  0  0  0  0  0  0  0  0
   59.3820   27.8960   45.8650 O   0  0  0  0  0  0  0  0  0  0  0  0
   58.9450   29.3570   47.6150 N   0  0  0  0  0  0  0  0  0  0  0  0
   59.2450   30.5950   46.9630 C   0  0  0  0  0  0  0  0  0  0  0  0
   58.3170   31.1220   46.0470 C   0  0  0  0  0  0  0  0  0  0  0  0
   57.0770   30.4320   45.8330 N   0  0  0  0  0  0  0  0  0  0  0  0
   56.6010   29.7100   44.3320 S   0  0  0  0  0  0  0  0  0  0  0  0
   56.9070   30.8310   42.9830 C   0  0  0  0  0  0  0  0  0  0  0  0
   57.3930   28.4450   44.1350 O   0  0  0  0  0  0  0  0  0  0  0  0
   55.1420   29.3480   44.3840 O   0  0  0  0  0  0  0  0  0  0  0  0
   58.6040   32.3170   45.3770 C   0  0  0  0  0  0  0  0  0  0  0  0
   59.7930   33.0000   45.6200 C   0  0  0  0  0  0  0  0  0  0  0  0
   60.7080   32.5150   46.5570 C   0  0  0  0  0  0  0  0  0  0  0  0
   61.8960   33.2230   46.7970 C   0  0  0  0  0  0  0  0  0  0  0  0
   62.8160   32.7610   47.7310 C   0  0  0  0  0  0  0  0  0  0  0  0
   63.9880   33.4800   47.9520 O   0  0  0  0  0  0  0  0  0  0  0  0
   62.5520   31.5850   48.4380 C   0  0  0  0  0  0  0  0  0  0  0  0
   61.3790   30.8560   48.2150 C   0  0  0  0  0  0  0  0  0  0  0  0
   61.1750   29.6890   48.9530 O   0  0  0  0  0  0  0  0  0  0  0  0
   60.4360   31.3080   47.2600 C   0  0  0  0  0  0  0  0  0  0  0  0
   58.2370   25.2040   45.7980 C   0  0  0  0  0  0  0  0  0  0  0  0
   59.4490   25.0470   46.1150 O   0  0  0  0  0  0  0  0  0  0  0  0
   58.5010   22.5521   44.8620 H   0  0  0  0  0  0  0  0  0  0  0  0
   57.3555   22.8706   43.5155 H   0  0  0  0  0  0  0  0  0  0  0  0
   58.9780   23.6413   43.5155 H   0  0  0  0  0  0  0  0  0  0  0  0
   55.5232   24.5222   44.2055 H   0  0  0  0  0  0  0  0  0  0  0  0
   56.8318   27.5957   47.7364 H   0  0  0  0  0  0  0  0  0  0  0  0
   58.2034   26.5418   48.2542 H   0  0  0  0  0  0  0  0  0  0  0  0
   57.1769   31.8199   43.3820 H   0  0  0  0  0  0  0  0  0  0  0  0
   57.7330   30.4463   42.3668 H   0  0  0  0  0  0  0  0  0  0  0  0
   56.0001   30.9194   42.3668 H   0  0  0  0  0  0  0  0  0  0  0  0
   57.8829   32.7208   44.6510 H   0  0  0  0  0  0  0  0  0  0  0  0
   60.0129   33.9272   45.0705 H   0  0  0  0  0  0  0  0  0  0  0  0
   62.1005   34.1503   46.2418 H   0  0  0  0  0  0  0  0  0  0  0  0
   64.8930   33.0960   47.7190 H   0  0  0  0  0  0  0  0  0  0  0  0
   63.2785   31.2265   49.1822 H   0  0  0  0  0  0  0  0  0  0  0  0
  1  2  1  0
  2  3  1  0
  3  4  2  0
  4  5  1  0
  4  6  1  0
  6  7  1  0
  7  8  1  0
  8  9  2  0
  8 10  1  0
 10 11  1  0
 11 12  2  0
 12 13  1  0
 13 14  1  0
 14 15  1  0
 14 16  2  0
 14 17  2  0
 12 18  1  0
 18 19  2  0
 19 20  1  0
 20 21  2  0
 21 22  1  0
 22 23  1  0
 22 24  2  0
 24 25  1  0
 25 26  1  0
 25 27  2  0
  6 28  1  0
 28 29  2  0
 28  2  1  0
 27 11  1  0
 27 20  1  0
  1 30  1  0
  1 31  1  0
  1 32  1  0
  3 33  1  0
  7 34  1  0
  7 35  1  0
 15 36  1  0
 15 37  1  0
 15 38  1  0
 18 39  1  0
 19 40  1  0
 21 41  1  0
 23 42  1  0
 24 43  1  0
M  CHG  4   5  -1  10  -1  13  -1  26  -1
M  END
>  <UniqueID>  (42) 
39

>  <SMILES>  (42) 
Cn1cc([O-])n(CC(=O)[N-]c2c([N-]S(C)(=O)=O)ccc3cc(O)cc([O-])c23)c1=O

>  <Energy>  (42) 
87.52325042645802

>  <Genealogy>  (42) 
Cn1cc([O-])n(CC(=O)[N-]c2c([N-]S(C)(=O)=O)ccc3cc(O)cc([O-])c23)c1=O (protonated)
Cn1cc([O-])n(CC(=O)[N-]c2c([N-]S(C)(=O)=O)ccc3cc(O)cc([O-])c23)c1=O (3D coordinates assigned)
Cn1cc([O-])n(CC(=O)[N-]c2c([N-]S(C)(=O)=O)ccc3cc(O)cc([O-])c23)c1=O (optimized conformer: 87.52325042645802 kcal/mol)

>  <smiles>  (42) 
Cn1cc(O)n(CC(=O)Nc2c(NS(C)(=O)=O)ccc3cc(O)cc(O)c23)c1=O

>  <score_type>  (42) 
oracle

>  <origin>  (42) 
adg

>  <m_score__min__energy>  (42) 
-14.41

>  <m_primary>  (42) 
energy

$$$$
42:0
     RDKit          3D

 51 54  0  0  0  0  0  0  0  0999 V2000
   54.9220   22.9620   48.0440 C   0  0  0  0  0  0  0  0  0  0  0  0
   56.2350   23.0080   47.3240 C   0  0  0  0  0  0  0  0  0  0  0  0
   57.2990   22.9680   47.9970 O   0  0  0  0  0  0  0  0  0  0  0  0
   56.2970   23.0050   45.8420 C   0  0  0  0  0  0  0  0  0  0  0  0
   57.0040   21.9710   45.2000 C   0  0  0  0  0  0  0  0  0  0  0  0
   57.1790   21.9760   43.8170 C   0  0  0  0  0  0  0  0  0  0  0  0
   56.6540   23.0140   43.0500 C   0  0  0  0  0  0  0  0  0  0  0  0
   55.9380   24.0420   43.6620 C   0  0  0  0  0  0  0  0  0  0  0  0
   55.7330   24.0480   45.0550 C   0  0  0  0  0  0  0  0  0  0  0  0
   54.8780   25.1150   45.6310 C   0  0  0  0  0  0  0  0  0  0  0  0
   53.6250   24.9790   45.6580 O   0  0  0  0  0  0  0  0  0  0  0  0
   55.4880   26.3010   46.1600 N   0  0  0  0  0  0  0  0  0  0  0  0
   56.6420   26.9770   45.6390 C   0  0  0  0  0  0  0  0  0  0  0  0
   57.9220   26.3930   45.6630 C   0  0  0  0  0  0  0  0  0  0  0  0
   59.0220   27.0980   45.1720 C   0  0  0  0  0  0  0  0  0  0  0  0
   58.8620   28.3880   44.6600 C   0  0  0  0  0  0  0  0  0  0  0  0
   57.5920   28.9870   44.6360 C   0  0  0  0  0  0  0  0  0  0  0  0
   57.4170   30.3630   44.1180 C   0  0  0  0  0  0  0  0  0  0  0  0
   56.7080   30.5410   43.0910 O   0  0  0  0  0  0  0  0  0  0  0  0
   58.0330   31.4990   44.7570 N   0  0  0  0  0  0  0  0  0  0  0  0
   58.1070   32.7930   44.0610 C   0  0  0  0  0  0  0  0  0  0  0  0
   57.8140   33.9340   45.0310 C   0  0  0  0  0  0  0  0  0  0  0  0
   58.7470   33.8550   46.2030 C   0  0  0  0  0  0  0  0  0  0  0  0
   59.1980   35.0280   46.8290 C   0  0  0  0  0  0  0  0  0  0  0  0
   60.0450   34.9520   47.9380 C   0  0  0  0  0  0  0  0  0  0  0  0
   60.4370   33.7070   48.4340 C   0  0  0  0  0  0  0  0  0  0  0  0
   59.9800   32.5350   47.8270 C   0  0  0  0  0  0  0  0  0  0  0  0
   59.1360   32.5980   46.7060 C   0  0  0  0  0  0  0  0  0  0  0  0
   58.6060   31.3180   46.1040 C   0  0  0  0  0  0  0  0  0  0  0  0
   56.4910   28.2800   45.1480 C   0  0  0  0  0  0  0  0  0  0  0  0
   55.0988   22.9682   49.1297 H   0  0  0  0  0  0  0  0  0  0  0  0
   54.3201   23.8396   47.7655 H   0  0  0  0  0  0  0  0  0  0  0  0
   54.3830   22.0444   47.7655 H   0  0  0  0  0  0  0  0  0  0  0  0
   57.4239   21.1483   45.7973 H   0  0  0  0  0  0  0  0  0  0  0  0
   57.7324   21.1592   43.3305 H   0  0  0  0  0  0  0  0  0  0  0  0
   56.8046   23.0225   41.9604 H   0  0  0  0  0  0  0  0  0  0  0  0
   55.5283   24.8583   43.0491 H   0  0  0  0  0  0  0  0  0  0  0  0
   58.0559   25.3796   46.0692 H   0  0  0  0  0  0  0  0  0  0  0  0
   60.0200   26.6356   45.1882 H   0  0  0  0  0  0  0  0  0  0  0  0
   59.7340   28.9365   44.2743 H   0  0  0  0  0  0  0  0  0  0  0  0
   59.1160   32.9227   43.6425 H   0  0  0  0  0  0  0  0  0  0  0  0
   57.3594   32.8085   43.2543 H   0  0  0  0  0  0  0  0  0  0  0  0
   57.9542   34.8961   44.5165 H   0  0  0  0  0  0  0  0  0  0  0  0
   56.7761   33.8521   45.3861 H   0  0  0  0  0  0  0  0  0  0  0  0
   58.8837   36.0099   46.4454 H   0  0  0  0  0  0  0  0  0  0  0  0
   60.4030   35.8735   48.4204 H   0  0  0  0  0  0  0  0  0  0  0  0
   61.1070   33.6491   49.3045 H   0  0  0  0  0  0  0  0  0  0  0  0
   60.2828   31.5570   48.2292 H   0  0  0  0  0  0  0  0  0  0  0  0
   59.4326   30.5953   46.0373 H   0  0  0  0  0  0  0  0  0  0  0  0
   57.7955   30.9625   46.7572 H   0  0  0  0  0  0  0  0  0  0  0  0
   55.4991   28.7553   45.1634 H   0  0  0  0  0  0  0  0  0  0  0  0
  1  2  1  0
  2  3  2  0
  2  4  1  0
  4  5  2  0
  5  6  1  0
  6  7  2  0
  7  8  1  0
  8  9  2  0
  9 10  1  0
 10 11  2  0
 10 12  1  0
 12 13  1  0
 13 14  2  0
 14 15  1  0
 15 16  2  0
 16 17  1  0
 17 18  1  0
 18 19  2  0
 18 20  1  0
 20 21  1  0
 21 22  1  0
 22 23  1  0
 23 24  2  0
 24 25  1  0
 25 26  2  0
 26 27  1  0
 27 28  2  0
 28 29  1  0
 17 30  2  0
  9  4  1  0
 30 13  1  0
 29 20  1  0
 28 23  1  0
  1 31  1  0
  1 32  1  0
  1 33  1  0
  5 34  1  0
  6 35  1  0
  7 36  1  0
  8 37  1  0
 14 38  1  0
 15 39  1  0
 16 40  1  0
 21 41  1  0
 21 42  1  0
 22 43  1  0
 22 44  1  0
 24 45  1  0
 25 46  1  0
 26 47  1  0
 27 48  1  0
 29 49  1  0
 29 50  1  0
 30 51  1  0
M  CHG  1  12  -1
M  END
>  <UniqueID>  (43) 
40

>  <SMILES>  (43) 
CC(=O)c1ccccc1C(=O)[N-]c1cccc(C(=O)N2CCc3ccccc3C2)c1

>  <Energy>  (43) 
73.79533789435376

>  <Genealogy>  (43) 
CC(=O)c1ccccc1C(=O)[N-]c1cccc(C(=O)N2CCc3ccccc3C2)c1 (protonated)
CC(=O)c1ccccc1C(=O)[N-]c1cccc(C(=O)N2CCc3ccccc3C2)c1 (3D coordinates assigned)
CC(=O)c1ccccc1C(=O)[N-]c1cccc(C(=O)N2CCc3ccccc3C2)c1 (nonaromatic ring conformer: 73.79533789435376 kcal/mol)

>  <smiles>  (43) 
CC(=O)c1ccccc1C(=O)Nc1cccc(C(=O)N2CCc3ccccc3C2)c1

>  <score_type>  (43) 
oracle

>  <origin>  (43) 
adg

>  <m_score__min__energy>  (43) 
-12.32

>  <m_primary>  (43) 
energy

$$$$
43:0
     RDKit          3D

 61 64  0  0  0  0  0  0  0  0999 V2000
   58.4200   29.7720   53.4280 H   0  0  0  0  0  0  0  0  0  0  0  0
   59.2550   29.9970   52.9000 O   0  0  0  0  0  0  0  0  0  0  0  0
   59.3030   30.0190   51.5030 C   0  0  0  0  0  0  0  0  0  0  0  0
   60.1030   29.0650   50.8640 C   0  0  0  0  0  0  0  0  0  0  0  0
   60.6823   28.3510   51.4679 H   0  0  0  0  0  0  0  0  0  0  0  0
   60.1770   29.0060   49.4610 C   0  0  0  0  0  0  0  0  0  0  0  0
   60.9700   28.0640   48.7820 O   0  0  0  0  0  0  0  0  0  0  0  0
   60.5490   26.7430   48.4330 C   0  0  0  0  0  0  0  0  0  0  0  0
   61.1256   26.0123   49.0191 H   0  0  0  0  0  0  0  0  0  0  0  0
   59.4758   26.6413   48.6519 H   0  0  0  0  0  0  0  0  0  0  0  0
   60.7740   26.4900   46.9650 C   0  0  0  0  0  0  0  0  0  0  0  0
   61.2269   25.5321   46.6695 H   0  0  0  0  0  0  0  0  0  0  0  0
   60.4560   27.3610   45.9970 C   0  0  0  0  0  0  0  0  0  0  0  0
   61.2718   27.7697   45.3826 H   0  0  0  0  0  0  0  0  0  0  0  0
   59.0790   27.8060   45.7040 C   0  0  0  0  0  0  0  0  0  0  0  0
   58.0030   26.9520   45.9740 C   0  0  0  0  0  0  0  0  0  0  0  0
   58.1872   25.9619   46.4164 H   0  0  0  0  0  0  0  0  0  0  0  0
   56.6970   27.3520   45.6840 C   0  0  0  0  0  0  0  0  0  0  0  0
   55.8547   26.6862   45.9231 H   0  0  0  0  0  0  0  0  0  0  0  0
   56.4550   28.5950   45.0910 C   0  0  0  0  0  0  0  0  0  0  0  0
   55.1420   28.9910   44.8590 O   0  0  0  0  0  0  0  0  0  0  0  0
   57.5350   29.4350   44.7550 C   0  0  0  0  0  0  0  0  0  0  0  0
   57.3310   30.7560   44.1200 C   0  0  0  0  0  0  0  0  0  0  0  0
   57.3504   30.7979   43.0210 H   0  0  0  0  0  0  0  0  0  0  0  0
   57.1240   31.9080   44.7790 C   0  0  0  0  0  0  0  0  0  0  0  0
   56.1684   32.4227   44.6003 H   0  0  0  0  0  0  0  0  0  0  0  0
   58.0680   32.5470   45.7250 C   0  0  0  0  0  0  0  0  0  0  0  0
   57.8210   33.8180   46.2780 C   0  0  0  0  0  0  0  0  0  0  0  0
   56.8813   34.3412   46.0473 H   0  0  0  0  0  0  0  0  0  0  0  0
   58.7620   34.4190   47.1180 C   0  0  0  0  0  0  0  0  0  0  0  0
   58.5520   35.4040   47.5604 H   0  0  0  0  0  0  0  0  0  0  0  0
   59.9690   33.7730   47.3980 C   0  0  0  0  0  0  0  0  0  0  0  0
   60.2300   32.5020   46.8490 C   0  0  0  0  0  0  0  0  0  0  0  0
   59.2880   31.9080   45.9980 C   0  0  0  0  0  0  0  0  0  0  0  0
   59.5065   30.9322   45.5398 H   0  0  0  0  0  0  0  0  0  0  0  0
   61.5510   31.8220   47.1150 C   0  0  0  0  0  0  0  0  0  0  0  0
   61.3805   30.7403   47.2191 H   0  0  0  0  0  0  0  0  0  0  0  0
   62.2228   32.0358   46.2706 H   0  0  0  0  0  0  0  0  0  0  0  0
   62.2120   32.3470   48.3970 C   0  0  0  0  0  0  0  0  0  0  0  0
   61.6438   31.9937   49.2701 H   0  0  0  0  0  0  0  0  0  0  0  0
   63.2458   31.9746   48.4472 H   0  0  0  0  0  0  0  0  0  0  0  0
   62.2310   33.8780   48.3910 C   0  0  0  0  0  0  0  0  0  0  0  0
   62.6479   34.2394   49.3426 H   0  0  0  0  0  0  0  0  0  0  0  0
   62.8517   34.2247   47.5516 H   0  0  0  0  0  0  0  0  0  0  0  0
   60.9070   34.3900   48.2320 O   0  0  0  0  0  0  0  0  0  0  0  0
   58.8420   29.0390   45.0760 C   0  0  0  0  0  0  0  0  0  0  0  0
   59.6875   29.6996   44.8338 H   0  0  0  0  0  0  0  0  0  0  0  0
   59.4380   29.9180   48.7040 C   0  0  0  0  0  0  0  0  0  0  0  0
   59.4825   29.8759   47.6057 H   0  0  0  0  0  0  0  0  0  0  0  0
   58.6430   30.8830   49.3270 C   0  0  0  0  0  0  0  0  0  0  0  0
   58.0650   31.5894   48.7131 H   0  0  0  0  0  0  0  0  0  0  0  0
   58.5720   30.9630   50.7370 C   0  0  0  0  0  0  0  0  0  0  0  0
   57.7280   32.0130   51.4470 C   0  0  0  0  0  0  0  0  0  0  0  0
   57.5626   32.8434   50.7448 H   0  0  0  0  0  0  0  0  0  0  0  0
   58.2957   32.2920   52.3469 H   0  0  0  0  0  0  0  0  0  0  0  0
   56.3530   31.5420   51.9520 C   0  0  0  0  0  0  0  0  0  0  0  0
   55.7241   31.2788   51.0888 H   0  0  0  0  0  0  0  0  0  0  0  0
   55.8945   32.3581   52.5297 H   0  0  0  0  0  0  0  0  0  0  0  0
   56.4870   30.3450   52.8430 C   0  0  0  0  0  0  0  0  0  0  0  0
   56.6020   29.1930   52.3440 O   0  0  0  0  0  0  0  0  0  0  0  0
   56.5290   30.5040   54.2250 O   0  0  0  0  0  0  0  0  0  0  0  0
  1  2  1  0
  2  3  1  0
  3  4  2  0
  4  5  1  0
  4  6  1  0
  6  7  1  0
  7  8  1  0
  8  9  1  0
  8 10  1  0
  8 11  1  0
 11 12  1  0
 11 13  2  0
 13 14  1  0
 13 15  1  0
 15 16  2  0
 16 17  1  0
 16 18  1  0
 18 19  1  0
 18 20  2  0
 20 21  1  0
 20 22  1  0
 22 23  1  0
 23 24  1  0
 23 25  2  3
 25 26  1  0
 25 27  1  0
 27 28  2  0
 28 29  1  0
 28 30  1  0
 30 31  1  0
 30 32  2  0
 32 33  1  0
 33 34  2  0
 34 35  1  0
 33 36  1  0
 36 37  1  0
 36 38  1  0
 36 39  1  0
 39 40  1  0
 39 41  1  0
 39 42  1  0
 42 43  1  0
 42 44  1  0
 42 45  1  0
 22 46  2  0
 46 47  1  0
  6 48  2  0
 48 49  1  0
 48 50  1  0
 50 51  1  0
 50 52  2  0
 52 53  1  0
 53 54  1  0
 53 55  1  0
 53 56  1  0
 56 57  1  0
 56 58  1  0
 56 59  1  0
 59 60  2  0
 59 61  1  0
 52  3  1  0
 46 15  1  0
 34 27  1  0
 45 32  1  0
M  CHG  2  21  -1  61  -1
M  END
>  <UniqueID>  (44) 
41

>  <SMILES>  (44) 
O=C([O-])CCc1ccc(OC/C=C\c2ccc([O-])c(C=Cc3ccc4c(c3)CCCO4)c2)cc1O

>  <Energy>  (44) 
82.57286599435825

>  <Genealogy>  (44) 
O=C([O-])CCc1ccc(OCC=Cc2ccc([O-])c(C=Cc3ccc4c(c3)CCCO4)c2)cc1O (protonated)
O=C([O-])CCc1ccc(OC/C=C\c2ccc([O-])c(C=Cc3ccc4c(c3)CCCO4)c2)cc1O (cis-trans isomerization)
O=C([O-])CCc1ccc(OC/C=C\c2ccc([O-])c(C=Cc3ccc4c(c3)CCCO4)c2)cc1O (3D coordinates assigned)
O=C([O-])CCc1ccc(OC/C=C\c2ccc([O-])c(C=Cc3ccc4c(c3)CCCO4)c2)cc1O (nonaromatic ring conformer: 82.57286599435825 kcal/mol)

>  <smiles>  (44) 
O=C(O)CCc1ccc(OCC=Cc2ccc(O)c(C=Cc3ccc4c(c3)CCCO4)c2)cc1O

>  <score_type>  (44) 
oracle

>  <origin>  (44) 
adg

>  <m_score__min__energy>  (44) 
-14.720000000000001

>  <m_primary>  (44) 
energy

$$$$
44:0
     RDKit          3D

 55 58  0  0  0  0  0  0  0  0999 V2000
   57.1834   20.5845   43.9418 H   0  0  0  0  0  0  0  0  0  0  0  0
   56.9150   21.5800   44.3250 C   0  0  0  0  0  0  0  0  0  0  0  0
   55.6160   21.8780   44.5870 N   0  0  0  0  0  0  0  0  0  0  0  0
   55.2280   23.0950   45.0600 C   0  0  0  0  0  0  0  0  0  0  0  0
   53.7920   23.3890   45.3170 C   0  0  0  0  0  0  0  0  0  0  0  0
   53.4550   24.5650   45.6190 O   0  0  0  0  0  0  0  0  0  0  0  0
   52.7580   22.3970   45.2490 N   0  0  0  0  0  0  0  0  0  0  0  0
   51.3200   22.6300   45.2740 C   0  0  0  0  0  0  0  0  0  0  0  0
   50.9757   22.6858   46.3172 H   0  0  0  0  0  0  0  0  0  0  0  0
   51.0930   23.5766   44.7618 H   0  0  0  0  0  0  0  0  0  0  0  0
   50.8057   21.8035   44.7618 H   0  0  0  0  0  0  0  0  0  0  0  0
   56.2060   24.0820   45.2770 C   0  0  0  0  0  0  0  0  0  0  0  0
   55.9118   25.0785   45.6381 H   0  0  0  0  0  0  0  0  0  0  0  0
   57.5600   23.7940   45.0320 C   0  0  0  0  0  0  0  0  0  0  0  0
   58.5700   24.7500   45.2190 O   0  0  0  0  0  0  0  0  0  0  0  0
   58.4460   26.1110   44.9100 C   0  0  0  0  0  0  0  0  0  0  0  0
   58.0320   26.4800   43.6260 C   0  0  0  0  0  0  0  0  0  0  0  0
   57.8543   25.7063   42.8645 H   0  0  0  0  0  0  0  0  0  0  0  0
   57.8430   27.8280   43.3060 C   0  0  0  0  0  0  0  0  0  0  0  0
   57.5176   28.1115   42.2942 H   0  0  0  0  0  0  0  0  0  0  0  0
   58.0680   28.8220   44.2750 C   0  0  0  0  0  0  0  0  0  0  0  0
   57.7650   30.2010   44.0210 N   0  0  0  0  0  0  0  0  0  0  0  0
   56.5910   30.8960   44.4730 C   0  0  0  0  0  0  0  0  0  0  0  0
   55.4750   30.3250   44.3880 O   0  0  0  0  0  0  0  0  0  0  0  0
   56.6570   32.2120   45.0440 N   0  0  0  0  0  0  0  0  0  0  0  0
   57.5850   32.6430   45.8460 C   0  0  0  0  0  0  0  0  0  0  0  0
   57.8000   32.1600   47.0910 N   0  0  0  0  0  0  0  0  0  0  0  0
   58.7870   32.8420   47.7280 C   0  0  0  0  0  0  0  0  0  0  0  0
   59.1049   32.6070   48.7545 H   0  0  0  0  0  0  0  0  0  0  0  0
   59.3630   33.8610   46.9780 C   0  0  0  0  0  0  0  0  0  0  0  0
   60.3660   34.8550   47.4770 C   0  0  0  0  0  0  0  0  0  0  0  0
   60.6320   35.5411   46.6594 H   0  0  0  0  0  0  0  0  0  0  0  0
   59.9237   35.4135   48.3151 H   0  0  0  0  0  0  0  0  0  0  0  0
   61.6120   34.1570   47.9630 C   0  0  0  0  0  0  0  0  0  0  0  0
   62.4380   33.4670   47.0600 C   0  0  0  0  0  0  0  0  0  0  0  0
   62.1707   33.4313   45.9936 H   0  0  0  0  0  0  0  0  0  0  0  0
   63.5960   32.8260   47.5060 C   0  0  0  0  0  0  0  0  0  0  0  0
   64.2425   32.3004   46.7878 H   0  0  0  0  0  0  0  0  0  0  0  0
   63.9390   32.8500   48.8710 C   0  0  0  0  0  0  0  0  0  0  0  0
   65.0940   32.2280   49.3680 O   0  0  0  0  0  0  0  0  0  0  0  0
   66.0880   32.8850   50.1490 C   0  0  0  0  0  0  0  0  0  0  0  0
   65.8695   32.7406   51.2174 H   0  0  0  0  0  0  0  0  0  0  0  0
   67.0762   32.4616   49.9163 H   0  0  0  0  0  0  0  0  0  0  0  0
   66.0857   33.9601   49.9163 H   0  0  0  0  0  0  0  0  0  0  0  0
   63.1060   33.5220   49.7720 C   0  0  0  0  0  0  0  0  0  0  0  0
   63.3589   33.5351   50.8424 H   0  0  0  0  0  0  0  0  0  0  0  0
   61.9550   34.1770   49.3240 C   0  0  0  0  0  0  0  0  0  0  0  0
   61.3148   34.7108   50.0418 H   0  0  0  0  0  0  0  0  0  0  0  0
   58.6150   33.9140   45.4690 S   0  0  0  0  0  0  0  0  0  0  0  0
   58.5660   28.4580   45.5300 C   0  0  0  0  0  0  0  0  0  0  0  0
   58.8115   29.2355   46.2683 H   0  0  0  0  0  0  0  0  0  0  0  0
   58.7530   27.1110   45.8500 C   0  0  0  0  0  0  0  0  0  0  0  0
   59.1416   26.8317   46.8404 H   0  0  0  0  0  0  0  0  0  0  0  0
   57.9090   22.5340   44.5410 C   0  0  0  0  0  0  0  0  0  0  0  0
   58.9611   22.2956   44.3260 H   0  0  0  0  0  0  0  0  0  0  0  0
  1  2  1  0
  2  3  2  0
  3  4  1  0
  4  5  1  0
  5  6  2  0
  5  7  1  0
  7  8  1  0
  8  9  1  0
  8 10  1  0
  8 11  1  0
  4 12  2  0
 12 13  1  0
 12 14  1  0
 14 15  1  0
 15 16  1  0
 16 17  2  0
 17 18  1  0
 17 19  1  0
 19 20  1  0
 19 21  2  0
 21 22  1  0
 22 23  1  0
 23 24  2  0
 23 25  1  0
 25 26  2  0
 26 27  1  0
 27 28  1  0
 28 29  1  0
 28 30  2  0
 30 31  1  0
 31 32  1  0
 31 33  1  0
 31 34  1  0
 34 35  2  0
 35 36  1  0
 35 37  1  0
 37 38  1  0
 37 39  2  0
 39 40  1  0
 40 41  1  0
 41 42  1  0
 41 43  1  0
 41 44  1  0
 39 45  1  0
 45 46  1  0
 45 47  2  0
 47 48  1  0
 30 49  1  0
 21 50  1  0
 50 51  1  0
 50 52  2  0
 52 53  1  0
 14 54  2  0
 54 55  1  0
 54  2  1  0
 52 16  1  0
 49 26  1  0
 47 34  1  0
M  CHG  3   7  -1  22  -1  27  -1
M  END
>  <UniqueID>  (45) 
42

>  <SMILES>  (45) 
C[N-]C(=O)c1cc(Oc2ccc([N-]C(=O)/N=c3\[n-]cc(Cc4ccc(OC)cc4)s3)cc2)ccn1

>  <Energy>  (45) 
96.1480261006592

>  <Genealogy>  (45) 
C[N-]C(=O)c1cc(Oc2ccc([N-]C(=O)N=c3[n-]cc(Cc4ccc(OC)cc4)s3)cc2)ccn1 (protonated)
C[N-]C(=O)c1cc(Oc2ccc([N-]C(=O)/N=c3\[n-]cc(Cc4ccc(OC)cc4)s3)cc2)ccn1 (cis-trans isomerization)
C[N-]C(=O)c1cc(Oc2ccc([N-]C(=O)/N=c3\[n-]cc(Cc4ccc(OC)cc4)s3)cc2)ccn1 (3D coordinates assigned)
C[N-]C(=O)c1cc(Oc2ccc([N-]C(=O)/N=c3\[n-]cc(Cc4ccc(OC)cc4)s3)cc2)ccn1 (optimized conformer: 96.1480261006592 kcal/mol)

>  <smiles>  (45) 
CNC(=O)c1cc(Oc2ccc(NC(=O)N=c3[nH]cc(Cc4ccc(OC)cc4)s3)cc2)ccn1

>  <score_type>  (45) 
oracle

>  <origin>  (45) 
adg

>  <m_score__min__energy>  (45) 
-14.76

>  <m_primary>  (45) 
energy

$$$$
45:0
     RDKit          3D

 46 48  0  0  0  0  0  0  0  0999 V2000
   59.6410   33.8140   51.0220 C   0  0  0  0  0  0  0  0  0  0  0  0
   60.7530   33.6130   50.0830 N   0  0  0  0  0  0  0  0  0  0  0  0
   60.5680   33.8730   48.7580 C   0  0  0  0  0  0  0  0  0  0  0  0
   61.6030   33.6790   47.8420 C   0  0  0  0  0  0  0  0  0  0  0  0
   61.3660   33.9350   46.3710 C   0  0  0  0  0  0  0  0  0  0  0  0
   59.9510   33.5750   45.9950 C   0  0  0  0  0  0  0  0  0  0  0  0
   59.0430   34.5920   45.6620 C   0  0  0  0  0  0  0  0  0  0  0  0
   57.7220   34.2820   45.3460 C   0  0  0  0  0  0  0  0  0  0  0  0
   57.2860   32.9570   45.3660 C   0  0  0  0  0  0  0  0  0  0  0  0
   58.1730   31.9190   45.7090 C   0  0  0  0  0  0  0  0  0  0  0  0
   57.7500   30.5430   45.7330 N   0  0  0  0  0  0  0  0  0  0  0  0
   56.9030   29.7610   44.4350 S   0  0  0  0  0  0  0  0  0  0  0  0
   57.7940   28.3140   43.9030 C   0  0  0  0  0  0  0  0  0  0  0  0
   55.5150   29.3910   44.8740 O   0  0  0  0  0  0  0  0  0  0  0  0
   56.8070   30.7110   43.2750 O   0  0  0  0  0  0  0  0  0  0  0  0
   59.5100   32.2380   46.0150 C   0  0  0  0  0  0  0  0  0  0  0  0
   60.3780   31.2440   46.3380 F   0  0  0  0  0  0  0  0  0  0  0  0
   62.8280   33.1910   48.3200 C   0  0  0  0  0  0  0  0  0  0  0  0
   63.7860   33.0150   47.5170 O   0  0  0  0  0  0  0  0  0  0  0  0
   62.9870   32.9180   49.6520 N   0  0  0  0  0  0  0  0  0  0  0  0
   64.2450   32.4010   50.1330 C   0  0  0  0  0  0  0  0  0  0  0  0
   64.2900   31.1890   50.8410 C   0  0  0  0  0  0  0  0  0  0  0  0
   65.5100   30.6890   51.3060 C   0  0  0  0  0  0  0  0  0  0  0  0
   66.6930   31.3950   51.0660 C   0  0  0  0  0  0  0  0  0  0  0  0
   66.6570   32.6020   50.3610 C   0  0  0  0  0  0  0  0  0  0  0  0
   65.4380   33.1050   49.8950 C   0  0  0  0  0  0  0  0  0  0  0  0
   61.9520   33.1240   50.5290 C   0  0  0  0  0  0  0  0  0  0  0  0
   62.1000   32.8470   51.7530 O   0  0  0  0  0  0  0  0  0  0  0  0
   60.0157   33.7463   52.0540 H   0  0  0  0  0  0  0  0  0  0  0  0
   59.1971   34.8069   50.8575 H   0  0  0  0  0  0  0  0  0  0  0  0
   58.8776   33.0393   50.8575 H   0  0  0  0  0  0  0  0  0  0  0  0
   59.5923   34.2398   48.4067 H   0  0  0  0  0  0  0  0  0  0  0  0
   61.5380   35.0000   46.1563 H   0  0  0  0  0  0  0  0  0  0  0  0
   62.0594   33.3139   45.7850 H   0  0  0  0  0  0  0  0  0  0  0  0
   59.3763   35.6402   45.6504 H   0  0  0  0  0  0  0  0  0  0  0  0
   57.0197   35.0856   45.0796 H   0  0  0  0  0  0  0  0  0  0  0  0
   56.2419   32.7217   45.1120 H   0  0  0  0  0  0  0  0  0  0  0  0
   57.8560   29.9930   46.6150 H   0  0  0  0  0  0  0  0  0  0  0  0
   58.1399   27.7522   44.7832 H   0  0  0  0  0  0  0  0  0  0  0  0
   57.1315   27.6770   43.2986 H   0  0  0  0  0  0  0  0  0  0  0  0
   58.6610   28.6189   43.2986 H   0  0  0  0  0  0  0  0  0  0  0  0
   63.3614   30.6307   51.0305 H   0  0  0  0  0  0  0  0  0  0  0  0
   65.5393   29.7397   51.8610 H   0  0  0  0  0  0  0  0  0  0  0  0
   67.6524   31.0006   51.4320 H   0  0  0  0  0  0  0  0  0  0  0  0
   67.5882   33.1564   50.1727 H   0  0  0  0  0  0  0  0  0  0  0  0
   65.4129   34.0546   49.3404 H   0  0  0  0  0  0  0  0  0  0  0  0
  1  2  1  0
  2  3  1  0
  3  4  2  0
  4  5  1  0
  5  6  1  0
  6  7  2  0
  7  8  1  0
  8  9  2  0
  9 10  1  0
 10 11  1  0
 11 12  1  0
 12 13  1  0
 12 14  2  0
 12 15  2  0
 10 16  2  0
 16 17  1  0
  4 18  1  0
 18 19  2  0
 18 20  1  0
 20 21  1  0
 21 22  2  0
 22 23  1  0
 23 24  2  0
 24 25  1  0
 25 26  2  0
 20 27  1  0
 27 28  2  0
 27  2  1  0
 16  6  1  0
 26 21  1  0
  1 29  1  0
  1 30  1  0
  1 31  1  0
  3 32  1  0
  5 33  1  0
  5 34  1  0
  7 35  1  0
  8 36  1  0
  9 37  1  0
 11 38  1  0
 13 39  1  0
 13 40  1  0
 13 41  1  0
 22 42  1  0
 23 43  1  0
 24 44  1  0
 25 45  1  0
 26 46  1  0
M  END
>  <UniqueID>  (46) 
43

>  <SMILES>  (46) 
Cn1cc(Cc2cccc(NS(C)(=O)=O)c2F)c(=O)n(-c2ccccc2)c1=O

>  <Energy>  (46) 
59.79300690428653

>  <Genealogy>  (46) 
Cn1cc(Cc2cccc(NS(C)(=O)=O)c2F)c(=O)n(-c2ccccc2)c1=O (3D coordinates assigned)
Cn1cc(Cc2cccc(NS(C)(=O)=O)c2F)c(=O)n(-c2ccccc2)c1=O (optimized conformer: 59.79300690428653 kcal/mol)

>  <smiles>  (46) 
Cn1cc(Cc2cccc(NS(C)(=O)=O)c2F)c(=O)n(-c2ccccc2)c1=O

>  <score_type>  (46) 
oracle

>  <origin>  (46) 
adg

>  <m_score__min__energy>  (46) 
-8.6699999999999999

>  <m_primary>  (46) 
energy

$$$$
46:0
     RDKit          3D

 49 52  0  0  0  0  0  0  0  0999 V2000
   57.4460   21.5190   43.2530 C   0  0  0  0  0  0  0  0  0  0  0  0
   57.9470   21.4900   44.4900 C   0  0  0  0  0  0  0  0  0  0  0  0
   59.1480   22.3140   44.8600 C   0  0  0  0  0  0  0  0  0  0  0  0
   58.8260   23.2370   45.8990 O   0  0  0  0  0  0  0  0  0  0  0  0
   58.8740   24.6380   45.7870 C   0  0  0  0  0  0  0  0  0  0  0  0
   60.0210   25.3800   46.1110 C   0  0  0  0  0  0  0  0  0  0  0  0
   60.0220   26.7710   45.9890 C   0  0  0  0  0  0  0  0  0  0  0  0
   58.8710   27.4640   45.5650 C   0  0  0  0  0  0  0  0  0  0  0  0
   58.9510   28.9870   45.4310 C   0  0  2  0  0  0  0  0  0  0  0  0
   58.7710   29.8280   46.6890 C   0  0  0  0  0  0  0  0  0  0  0  0
   58.9090   31.2200   46.5240 C   0  0  0  0  0  0  0  0  0  0  0  0
   58.9510   32.0490   47.6150 N   0  0  0  0  0  0  0  0  0  0  0  0
   59.1010   33.5010   47.4250 C   0  0  0  0  0  0  0  0  0  0  0  0
   58.7540   31.5330   48.8690 C   0  0  0  0  0  0  0  0  0  0  0  0
   58.7470   32.2880   49.8810 O   0  0  0  0  0  0  0  0  0  0  0  0
   58.5420   30.2010   49.0390 N   0  0  0  0  0  0  0  0  0  0  0  0
   58.5390   29.3410   47.9890 C   0  0  0  0  0  0  0  0  0  0  0  0
   58.3030   28.1210   48.2010 O   0  0  0  0  0  0  0  0  0  0  0  0
   58.8610   31.7800   45.1940 N   0  0  0  0  0  0  0  0  0  0  0  0
   58.5640   31.0870   44.1280 C   0  0  0  0  0  0  0  0  0  0  0  0
   58.0800   31.8260   42.9040 C   0  0  0  0  0  0  0  0  0  0  0  0
   56.8660   31.1120   42.2580 C   0  0  0  0  0  0  0  0  0  0  0  0
   55.9100   30.4800   43.3020 C   0  0  0  0  0  0  0  0  0  0  0  0
   56.6640   29.6760   44.3420 C   0  0  0  0  0  0  0  0  0  0  0  0
   56.0610   29.1660   45.2740 O   0  0  0  0  0  0  0  0  0  0  0  0
   58.1740   29.6340   44.2550 C   0  0  2  0  0  0  0  0  0  0  0  0
   57.7350   26.7090   45.2090 C   0  0  0  0  0  0  0  0  0  0  0  0
   57.7340   25.3150   45.3310 C   0  0  0  0  0  0  0  0  0  0  0  0
   56.2890   24.4180   44.8840 Cl  0  0  0  0  0  0  0  0  0  0  0  0
   56.5661   20.9086   43.0015 H   0  0  0  0  0  0  0  0  0  0  0  0
   57.9130   22.1533   42.4852 H   0  0  0  0  0  0  0  0  0  0  0  0
   57.4730   20.8525   45.2509 H   0  0  0  0  0  0  0  0  0  0  0  0
   59.9510   21.6466   45.2061 H   0  0  0  0  0  0  0  0  0  0  0  0
   59.4757   22.8786   43.9746 H   0  0  0  0  0  0  0  0  0  0  0  0
   60.9251   24.8620   46.4634 H   0  0  0  0  0  0  0  0  0  0  0  0
   60.9360   27.3346   46.2277 H   0  0  0  0  0  0  0  0  0  0  0  0
   60.0221   29.0281   45.1841 H   0  0  0  0  0  0  0  0  0  0  0  0
   59.1521   33.9958   48.4061 H   0  0  0  0  0  0  0  0  0  0  0  0
   60.0249   33.7038   46.8635 H   0  0  0  0  0  0  0  0  0  0  0  0
   58.2381   33.8884   46.8635 H   0  0  0  0  0  0  0  0  0  0  0  0
   58.3740   29.8300   50.0030 H   0  0  0  0  0  0  0  0  0  0  0  0
   57.7835   32.8447   43.1945 H   0  0  0  0  0  0  0  0  0  0  0  0
   58.8980   31.8531   42.1690 H   0  0  0  0  0  0  0  0  0  0  0  0
   56.3016   31.8469   41.6653 H   0  0  0  0  0  0  0  0  0  0  0  0
   57.2580   30.2956   41.6337 H   0  0  0  0  0  0  0  0  0  0  0  0
   55.3538   31.2832   43.8075 H   0  0  0  0  0  0  0  0  0  0  0  0
   55.2276   29.7990   42.7723 H   0  0  0  0  0  0  0  0  0  0  0  0
   58.4476   28.9771   43.4162 H   0  0  0  0  0  0  0  0  0  0  0  0
   56.8384   27.2219   44.8307 H   0  0  0  0  0  0  0  0  0  0  0  0
  1  2  2  0
  2  3  1  0
  3  4  1  0
  4  5  1  0
  5  6  2  0
  6  7  1  0
  7  8  2  0
  8  9  1  0
  9 10  1  0
 10 11  2  0
 11 12  1  0
 12 13  1  0
 12 14  1  0
 14 15  2  0
 14 16  1  0
 16 17  1  0
 17 18  2  0
 11 19  1  0
 19 20  2  0
 20 21  1  0
 21 22  1  0
 22 23  1  0
 23 24  1  0
 24 25  2  0
 24 26  1  0
  8 27  1  0
 27 28  2  0
 28 29  1  0
 28  5  1  0
 26  9  1  0
 17 10  1  0
 26 20  1  0
  1 30  1  0
  1 31  1  0
  2 32  1  0
  3 33  1  0
  3 34  1  0
  6 35  1  0
  7 36  1  0
  9 37  1  6
 13 38  1  0
 13 39  1  0
 13 40  1  0
 16 41  1  0
 21 42  1  0
 21 43  1  0
 22 44  1  0
 22 45  1  0
 23 46  1  0
 23 47  1  0
 26 48  1  6
 27 49  1  0
M  END
>  <UniqueID>  (47) 
44

>  <SMILES>  (47) 
C=CCOc1ccc([C@@H]2c3c(n(C)c(=O)[nH]c3=O)N=C3CCCC(=O)[C@@H]32)cc1Cl

>  <Energy>  (47) 
80.93977510395294

>  <Genealogy>  (47) 
C=CCOc1ccc([C@@H]2c3c(n(C)c(=O)[nH]c3=O)N=C3CCCC(=O)[C@@H]32)cc1Cl (chirality)
C=CCOc1ccc([C@@H]2c3c(n(C)c(=O)[nH]c3=O)N=C3CCCC(=O)[C@@H]32)cc1Cl (3D coordinates assigned)
C=CCOc1ccc([C@@H]2c3c(n(C)c(=O)[nH]c3=O)N=C3CCCC(=O)[C@@H]32)cc1Cl (nonaromatic ring conformer: 80.93977510395294 kcal/mol)

>  <smiles>  (47) 
C=CCOc1ccc(C2c3c(n(C)c(=O)[nH]c3=O)N=C3CCCC(=O)C32)cc1Cl

>  <score_type>  (47) 
oracle

>  <origin>  (47) 
adg

>  <m_score__min__energy>  (47) 
-8.7400000000000002

>  <m_primary>  (47) 
energy

$$$$
47:0
     RDKit          3D

 41 43  0  0  0  0  0  0  0  0999 V2000
   56.4090   22.8680   43.0300 C   0  0  0  0  0  0  0  0  0  0  0  0
   57.3080   22.8980   44.2610 C   0  0  0  0  0  0  0  0  0  0  0  0
   56.4820   22.9070   45.5510 C   0  0  0  0  0  0  0  0  0  0  0  0
   55.8350   24.2080   45.7370 N   0  0  0  0  0  0  0  0  0  0  0  0
   56.2930   25.3080   46.3710 C   0  0  0  0  0  0  0  0  0  0  0  0
   57.9110   25.4660   47.1370 S   0  0  0  0  0  0  0  0  0  0  0  0
   58.8230   25.6870   45.5700 C   0  0  0  0  0  0  0  0  0  0  0  0
   58.7530   27.1080   45.1030 C   0  0  0  0  0  0  0  0  0  0  0  0
   59.8220   27.7380   44.8800 O   0  0  0  0  0  0  0  0  0  0  0  0
   57.4810   27.7300   44.8730 N   0  0  0  0  0  0  0  0  0  0  0  0
   57.3620   29.0680   44.3680 C   0  0  0  0  0  0  0  0  0  0  0  0
   56.7460   29.2620   43.1250 C   0  0  0  0  0  0  0  0  0  0  0  0
   56.6420   30.5400   42.5740 C   0  0  0  0  0  0  0  0  0  0  0  0
   57.1420   31.6460   43.2630 C   0  0  0  0  0  0  0  0  0  0  0  0
   57.7320   31.4840   44.5250 C   0  0  0  0  0  0  0  0  0  0  0  0
   58.2080   32.6010   45.2280 C   0  0  0  0  0  0  0  0  0  0  0  0
   58.7650   32.4460   46.4980 C   0  0  0  0  0  0  0  0  0  0  0  0
   58.8450   31.1800   47.0800 C   0  0  0  0  0  0  0  0  0  0  0  0
   58.3800   30.0570   46.3910 C   0  0  0  0  0  0  0  0  0  0  0  0
   57.8370   30.1880   45.0970 C   0  0  0  0  0  0  0  0  0  0  0  0
   55.4000   26.3170   46.3200 N   0  0  0  0  0  0  0  0  0  0  0  0
   54.3450   25.8720   45.6530 N   0  0  0  0  0  0  0  0  0  0  0  0
   54.6220   24.6020   45.3080 C   0  0  0  0  0  0  0  0  0  0  0  0
   53.8330   23.8720   44.6510 O   0  0  0  0  0  0  0  0  0  0  0  0
   55.3559   22.8329   43.3458 H   0  0  0  0  0  0  0  0  0  0  0  0
   56.5813   23.7724   42.4280 H   0  0  0  0  0  0  0  0  0  0  0  0
   56.6412   21.9771   42.4280 H   0  0  0  0  0  0  0  0  0  0  0  0
   57.9541   22.0078   44.2550 H   0  0  0  0  0  0  0  0  0  0  0  0
   57.9123   23.8166   44.2283 H   0  0  0  0  0  0  0  0  0  0  0  0
   55.7112   22.1244   45.4927 H   0  0  0  0  0  0  0  0  0  0  0  0
   57.1512   22.7175   46.4032 H   0  0  0  0  0  0  0  0  0  0  0  0
   59.8765   25.4110   45.7251 H   0  0  0  0  0  0  0  0  0  0  0  0
   58.3643   25.0440   44.8044 H   0  0  0  0  0  0  0  0  0  0  0  0
   56.6280   27.1240   44.8550 H   0  0  0  0  0  0  0  0  0  0  0  0
   56.3402   28.3984   42.5777 H   0  0  0  0  0  0  0  0  0  0  0  0
   56.1640   30.6762   41.5927 H   0  0  0  0  0  0  0  0  0  0  0  0
   57.0731   32.6481   42.8147 H   0  0  0  0  0  0  0  0  0  0  0  0
   58.1419   33.6020   44.7767 H   0  0  0  0  0  0  0  0  0  0  0  0
   59.1422   33.3244   47.0422 H   0  0  0  0  0  0  0  0  0  0  0  0
   59.2760   31.0658   48.0856 H   0  0  0  0  0  0  0  0  0  0  0  0
   58.4381   29.0644   46.8614 H   0  0  0  0  0  0  0  0  0  0  0  0
  1  2  1  0
  2  3  1  0
  3  4  1  0
  4  5  1  0
  5  6  1  0
  6  7  1  0
  7  8  1  0
  8  9  2  0
  8 10  1  0
 10 11  1  0
 11 12  2  0
 12 13  1  0
 13 14  2  0
 14 15  1  0
 15 16  2  0
 16 17  1  0
 17 18  2  0
 18 19  1  0
 19 20  2  0
  5 21  2  0
 21 22  1  0
 22 23  1  0
 23 24  2  0
 23  4  1  0
 20 11  1  0
 20 15  1  0
  1 25  1  0
  1 26  1  0
  1 27  1  0
  2 28  1  0
  2 29  1  0
  3 30  1  0
  3 31  1  0
  7 32  1  0
  7 33  1  0
 10 34  1  0
 12 35  1  0
 13 36  1  0
 14 37  1  0
 16 38  1  0
 17 39  1  0
 18 40  1  0
 19 41  1  0
M  CHG  1  22  -1
M  END
>  <UniqueID>  (48) 
45

>  <SMILES>  (48) 
CCCn1c(SCC(=O)Nc2cccc3ccccc23)n[n-]c1=O

>  <Energy>  (48) 
77.885152052018

>  <Genealogy>  (48) 
CCCn1c(SCC(=O)Nc2cccc3ccccc23)n[n-]c1=O (protonated)
CCCn1c(SCC(=O)Nc2cccc3ccccc23)n[n-]c1=O (3D coordinates assigned)
CCCn1c(SCC(=O)Nc2cccc3ccccc23)n[n-]c1=O (optimized conformer: 77.885152052018 kcal/mol)

>  <smiles>  (48) 
CCCn1c(SCC(=O)Nc2cccc3ccccc23)n[nH]c1=O

>  <score_type>  (48) 
oracle

>  <origin>  (48) 
adg

>  <m_score__min__energy>  (48) 
-10.460000000000001

>  <m_primary>  (48) 
energy

$$$$
48:0
     RDKit          3D

 38 40  0  0  0  0  0  0  0  0999 V2000
   55.1960   29.1660   44.6400 O   0  0  0  0  0  0  0  0  0  0  0  0
   56.4450   29.1620   44.8040 C   0  0  0  0  0  0  0  0  0  0  0  0
   57.1780   27.9660   44.4980 N   0  0  0  0  0  0  0  0  0  0  0  0
   57.4790   27.0200   45.3400 C   0  0  0  0  0  0  0  0  0  0  0  0
   58.7810   26.6820   45.5710 N   0  0  0  0  0  0  0  0  0  0  0  0
   59.1300   25.7090   46.4530 C   0  0  0  0  0  0  0  0  0  0  0  0
   58.1430   25.0260   47.1640 C   0  0  0  0  0  0  0  0  0  0  0  0
   56.8040   25.3540   46.9580 C   0  0  0  0  0  0  0  0  0  0  0  0
   56.4580   26.3570   46.0470 C   0  0  0  0  0  0  0  0  0  0  0  0
   55.1100   26.6690   45.8610 O   0  0  0  0  0  0  0  0  0  0  0  0
   57.1060   30.4040   45.2580 C   0  0  0  0  0  0  0  0  0  0  0  0
   58.2390   30.3710   46.0860 C   0  0  0  0  0  0  0  0  0  0  0  0
   58.8240   31.5730   46.4790 C   0  0  0  0  0  0  0  0  0  0  0  0
   59.8390   31.5630   47.2270 O   0  0  0  0  0  0  0  0  0  0  0  0
   58.2850   32.7860   46.0400 C   0  0  0  0  0  0  0  0  0  0  0  0
   58.8820   33.9900   46.4450 O   0  0  0  0  0  0  0  0  0  0  0  0
   60.1210   34.4830   45.9440 C   0  0  0  0  0  0  0  0  0  0  0  0
   61.2100   34.1720   46.9310 C   0  0  0  0  0  0  0  0  0  0  0  0
   62.4710   33.7460   46.4800 C   0  0  0  0  0  0  0  0  0  0  0  0
   63.4750   33.4230   47.3970 C   0  0  0  0  0  0  0  0  0  0  0  0
   63.2270   33.5120   48.7690 C   0  0  0  0  0  0  0  0  0  0  0  0
   61.9710   33.9180   49.2270 C   0  0  0  0  0  0  0  0  0  0  0  0
   60.9610   34.2420   48.3140 C   0  0  0  0  0  0  0  0  0  0  0  0
   59.7430   34.6210   48.7780 F   0  0  0  0  0  0  0  0  0  0  0  0
   57.1580   32.7410   45.2000 C   0  0  0  0  0  0  0  0  0  0  0  0
   56.6250   31.5750   44.8460 O   0  0  0  0  0  0  0  0  0  0  0  0
   60.1904   25.4600   46.6063 H   0  0  0  0  0  0  0  0  0  0  0  0
   58.4184   24.2372   47.8794 H   0  0  0  0  0  0  0  0  0  0  0  0
   56.0173   24.8224   47.5135 H   0  0  0  0  0  0  0  0  0  0  0  0
   54.7690   27.1090   45.0150 H   0  0  0  0  0  0  0  0  0  0  0  0
   58.6588   29.4105   46.4196 H   0  0  0  0  0  0  0  0  0  0  0  0
   60.3473   34.0003   44.9818 H   0  0  0  0  0  0  0  0  0  0  0  0
   60.0542   35.5711   45.7970 H   0  0  0  0  0  0  0  0  0  0  0  0
   62.6686   33.6665   45.4008 H   0  0  0  0  0  0  0  0  0  0  0  0
   64.4626   33.0980   47.0377 H   0  0  0  0  0  0  0  0  0  0  0  0
   64.0206   33.2624   49.4887 H   0  0  0  0  0  0  0  0  0  0  0  0
   61.7756   33.9831   50.3075 H   0  0  0  0  0  0  0  0  0  0  0  0
   56.7137   33.6778   44.8327 H   0  0  0  0  0  0  0  0  0  0  0  0
  1  2  2  0
  2  3  1  0
  3  4  2  3
  4  5  1  0
  5  6  1  0
  6  7  2  0
  7  8  1  0
  8  9  2  0
  9 10  1  0
  2 11  1  0
 11 12  2  0
 12 13  1  0
 13 14  2  0
 13 15  1  0
 15 16  1  0
 16 17  1  0
 17 18  1  0
 18 19  2  0
 19 20  1  0
 20 21  2  0
 21 22  1  0
 22 23  2  0
 23 24  1  0
 15 25  2  0
 25 26  1  0
  9  4  1  0
 26 11  1  0
 23 18  1  0
  6 27  1  0
  7 28  1  0
  8 29  1  0
 10 30  1  0
 12 31  1  0
 17 32  1  0
 17 33  1  0
 19 34  1  0
 20 35  1  0
 21 36  1  0
 22 37  1  0
 25 38  1  0
M  CHG  1   5  -1
M  END
>  <UniqueID>  (49) 
46

>  <SMILES>  (49) 
O=C(N=c1[n-]cccc1O)c1cc(=O)c(OCc2ccccc2F)co1

>  <Energy>  (49) 
50.845647656203255

>  <Genealogy>  (49) 
O=C(N=c1[n-]cccc1O)c1cc(=O)c(OCc2ccccc2F)co1 (protonated)
O=C(N=c1[n-]cccc1O)c1cc(=O)c(OCc2ccccc2F)co1 (3D coordinates assigned)
O=C(N=c1[n-]cccc1O)c1cc(=O)c(OCc2ccccc2F)co1 (optimized conformer: 50.845647656203255 kcal/mol)

>  <smiles>  (49) 
O=C(N=c1[nH]cccc1O)c1cc(=O)c(OCc2ccccc2F)co1

>  <score_type>  (49) 
oracle

>  <origin>  (49) 
adg

>  <m_score__min__energy>  (49) 
-9.9100000000000001

>  <m_primary>  (49) 
energy

$$$$
49:0
     RDKit          3D

 60 63  0  0  0  0  0  0  0  0999 V2000
   50.8836   24.1788   44.2343 H   0  0  0  0  0  0  0  0  0  0  0  0
   51.6410   23.7580   44.9120 C   0  0  0  0  0  0  0  0  0  0  0  0
   51.2700   22.8150   45.8740 C   0  0  0  0  0  0  0  0  0  0  0  0
   50.2212   22.4928   45.9522 H   0  0  0  0  0  0  0  0  0  0  0  0
   52.2310   22.2810   46.7370 C   0  0  0  0  0  0  0  0  0  0  0  0
   51.9373   21.5349   47.4900 H   0  0  0  0  0  0  0  0  0  0  0  0
   53.5710   22.6940   46.6460 C   0  0  0  0  0  0  0  0  0  0  0  0
   54.6140   22.1030   47.5590 C   0  0  0  0  0  0  0  0  0  0  0  0
   55.0374   21.2066   47.0823 H   0  0  0  0  0  0  0  0  0  0  0  0
   54.1290   21.8522   48.5139 H   0  0  0  0  0  0  0  0  0  0  0  0
   55.7470   23.0930   47.8470 C   0  0  0  0  0  0  0  0  0  0  0  0
   55.7660   23.3125   48.9247 H   0  0  0  0  0  0  0  0  0  0  0  0
   55.5638   24.0095   47.2669 H   0  0  0  0  0  0  0  0  0  0  0  0
   57.0470   22.5440   47.4480 N   0  0  0  0  0  0  0  0  0  0  0  0
   57.3560   22.7910   45.7540 S   0  0  0  0  0  0  0  0  0  0  0  0
   58.7010   22.2170   45.4120 O   0  0  0  0  0  0  0  0  0  0  0  0
   56.3150   22.0800   44.9340 O   0  0  0  0  0  0  0  0  0  0  0  0
   57.3600   24.5100   45.3780 C   0  0  0  0  0  0  0  0  0  0  0  0
   57.0460   25.4580   46.3600 C   0  0  0  0  0  0  0  0  0  0  0  0
   56.7512   25.1272   47.3668 H   0  0  0  0  0  0  0  0  0  0  0  0
   57.1060   26.8230   46.0650 C   0  0  0  0  0  0  0  0  0  0  0  0
   56.8466   27.5613   46.8381 H   0  0  0  0  0  0  0  0  0  0  0  0
   57.4950   27.2570   44.7890 C   0  0  0  0  0  0  0  0  0  0  0  0
   57.5460   28.6640   44.5030 N   0  0  0  0  0  0  0  0  0  0  0  0
   58.4510   29.0750   44.1850 H   0  0  0  0  0  0  0  0  0  0  0  0
   56.3980   29.5220   44.5170 C   0  0  0  0  0  0  0  0  0  0  0  0
   55.2350   29.0320   44.5360 O   0  0  0  0  0  0  0  0  0  0  0  0
   56.5860   30.9420   44.5130 N   0  0  0  0  0  0  0  0  0  0  0  0
   57.5500   31.6670   45.2880 C   0  0  0  0  0  0  0  0  0  0  0  0
   57.3700   33.0240   45.6140 C   0  0  0  0  0  0  0  0  0  0  0  0
   56.4622   33.5511   45.2853 H   0  0  0  0  0  0  0  0  0  0  0  0
   58.3410   33.7040   46.3540 C   0  0  0  0  0  0  0  0  0  0  0  0
   58.1943   34.7649   46.6050 H   0  0  0  0  0  0  0  0  0  0  0  0
   59.5010   33.0410   46.7780 C   0  0  0  0  0  0  0  0  0  0  0  0
   60.7200   33.8900   47.7220 S   0  0  0  0  0  0  0  0  0  0  0  0
   60.3310   35.3370   47.8310 O   0  0  0  0  0  0  0  0  0  0  0  0
   62.0600   33.7900   47.0500 O   0  0  0  0  0  0  0  0  0  0  0  0
   60.8390   33.2180   49.3180 N   0  0  0  0  0  0  0  0  0  0  0  0
   59.8360   33.0600   50.1270 C   0  0  0  0  0  0  0  0  0  0  0  0
   59.4860   33.9850   51.0400 N   0  0  0  0  0  0  0  0  0  0  0  0
   58.4420   33.5140   51.6540 O   0  0  0  0  0  0  0  0  0  0  0  0
   58.1020   32.3370   51.1800 C   0  0  0  0  0  0  0  0  0  0  0  0
   56.9370   31.5360   51.6540 C   0  0  0  0  0  0  0  0  0  0  0  0
   56.9222   31.5258   52.7539 H   0  0  0  0  0  0  0  0  0  0  0  0
   56.0059   31.9857   51.2789 H   0  0  0  0  0  0  0  0  0  0  0  0
   57.0236   30.5056   51.2789 H   0  0  0  0  0  0  0  0  0  0  0  0
   58.9760   31.9810   50.1780 C   0  0  0  0  0  0  0  0  0  0  0  0
   58.9867   31.0648   49.5693 H   0  0  0  0  0  0  0  0  0  0  0  0
   59.6950   31.6990   46.4270 C   0  0  0  0  0  0  0  0  0  0  0  0
   60.6106   31.1769   46.7418 H   0  0  0  0  0  0  0  0  0  0  0  0
   58.7290   31.0210   45.6780 C   0  0  0  0  0  0  0  0  0  0  0  0
   58.8966   29.9719   45.3929 H   0  0  0  0  0  0  0  0  0  0  0  0
   57.7800   26.3010   43.7980 C   0  0  0  0  0  0  0  0  0  0  0  0
   58.0540   26.6287   42.7843 H   0  0  0  0  0  0  0  0  0  0  0  0
   57.7170   24.9380   44.0940 C   0  0  0  0  0  0  0  0  0  0  0  0
   57.9490   24.1972   43.3147 H   0  0  0  0  0  0  0  0  0  0  0  0
   53.9370   23.6370   45.6710 C   0  0  0  0  0  0  0  0  0  0  0  0
   54.9854   23.9588   45.5854 H   0  0  0  0  0  0  0  0  0  0  0  0
   52.9730   24.1670   44.8100 C   0  0  0  0  0  0  0  0  0  0  0  0
   53.2632   24.9077   44.0503 H   0  0  0  0  0  0  0  0  0  0  0  0
  1  2  1  0
  2  3  2  0
  3  4  1  0
  3  5  1  0
  5  6  1  0
  5  7  2  0
  7  8  1  0
  8  9  1  0
  8 10  1  0
  8 11  1  0
 11 12  1  0
 11 13  1  0
 11 14  1  0
 14 15  1  0
 15 16  2  0
 15 17  2  0
 15 18  1  0
 18 19  2  0
 19 20  1  0
 19 21  1  0
 21 22  1  0
 21 23  2  0
 23 24  1  0
 24 25  1  0
 24 26  1  0
 26 27  2  0
 26 28  1  0
 28 29  1  0
 29 30  2  0
 30 31  1  0
 30 32  1  0
 32 33  1  0
 32 34  2  0
 34 35  1  0
 35 36  2  0
 35 37  2  0
 35 38  1  0
 38 39  2  0
 39 40  1  0
 40 41  1  0
 41 42  1  0
 42 43  1  0
 43 44  1  0
 43 45  1  0
 43 46  1  0
 42 47  2  0
 47 48  1  0
 34 49  1  0
 49 50  1  0
 49 51  2  0
 51 52  1  0
 23 53  1  0
 53 54  1  0
 53 55  2  0
 55 56  1  0
  7 57  1  0
 57 58  1  0
 57 59  2  0
 59 60  1  0
 59  2  1  0
 55 18  1  0
 51 29  1  0
 47 39  1  0
M  CHG  3  14  -1  28  -1  40  -1
M  END
>  <UniqueID>  (50) 
47

>  <SMILES>  (50) 
Cc1c/c(=N\S(=O)(=O)c2ccc([N-]C(=O)Nc3ccc(S(=O)(=O)[N-]CCc4ccccc4)cc3)cc2)[n-]o1

>  <Energy>  (50) 
100.3181529301869

>  <Genealogy>  (50) 
Cc1cc(=NS(=O)(=O)c2ccc([N-]C(=O)Nc3ccc(S(=O)(=O)[N-]CCc4ccccc4)cc3)cc2)[n-]o1 (protonated)
Cc1c/c(=N\S(=O)(=O)c2ccc([N-]C(=O)Nc3ccc(S(=O)(=O)[N-]CCc4ccccc4)cc3)cc2)[n-]o1 (cis-trans isomerization)
Cc1c/c(=N\S(=O)(=O)c2ccc([N-]C(=O)Nc3ccc(S(=O)(=O)[N-]CCc4ccccc4)cc3)cc2)[n-]o1 (3D coordinates assigned)
Cc1c/c(=N\S(=O)(=O)c2ccc([N-]C(=O)Nc3ccc(S(=O)(=O)[N-]CCc4ccccc4)cc3)cc2)[n-]o1 (optimized conformer: 100.3181529301869 kcal/mol)

>  <smiles>  (50) 
Cc1cc(=NS(=O)(=O)c2ccc(NC(=O)Nc3ccc(S(=O)(=O)NCCc4ccccc4)cc3)cc2)[nH]o1

>  <score_type>  (50) 
oracle

>  <origin>  (50) 
adg

>  <m_score__min__energy>  (50) 
-13.57

>  <m_primary>  (50) 
energy

$$$$
50:0
     RDKit          3D

 49 53  0  0  0  0  0  0  0  0999 V2000
   59.7590   34.3620   47.1500 C   0  0  0  0  0  0  0  0  0  0  0  0
   58.2740   34.0540   46.9970 C   0  0  0  0  0  0  0  0  0  0  0  0
   58.0150   33.3270   45.7150 C   0  0  0  0  0  0  0  0  0  0  0  0
   57.4070   32.1240   45.6390 N   0  0  0  0  0  0  0  0  0  0  0  0
   57.3670   31.6400   44.3660 C   0  0  0  0  0  0  0  0  0  0  0  0
   56.7080   30.3340   44.0370 C   0  0  0  0  0  0  0  0  0  0  0  0
   56.4080   29.6170   45.2330 O   0  0  0  0  0  0  0  0  0  0  0  0
   57.1610   28.5480   45.7450 C   0  0  0  0  0  0  0  0  0  0  0  0
   56.7670   27.1920   45.6290 C   0  0  0  0  0  0  0  0  0  0  0  0
   57.5650   26.1530   46.1630 C   0  0  0  0  0  0  0  0  0  0  0  0
   57.1220   24.8310   46.0070 O   0  0  0  0  0  0  0  0  0  0  0  0
   57.0560   24.1490   44.7580 C   0  0  0  0  0  0  0  0  0  0  0  0
   58.7750   26.4680   46.8280 C   0  0  0  0  0  0  0  0  0  0  0  0
   59.1390   27.8080   46.9240 C   0  0  0  0  0  0  0  0  0  0  0  0
   60.2090   28.3050   47.4930 O   0  0  0  0  0  0  0  0  0  0  0  0
   60.1550   29.6170   47.3550 C   0  0  0  0  0  0  0  0  0  0  0  0
   61.1800   30.5350   47.8660 C   0  0  0  0  0  0  0  0  0  0  0  0
   61.6170   30.5880   49.1930 C   0  0  0  0  0  0  0  0  0  0  0  0
   62.5390   31.5500   49.2020 N   0  0  0  0  0  0  0  0  0  0  0  0
   63.3120   32.0830   50.1330 N   0  0  0  0  0  0  0  0  0  0  0  0
   64.0770   33.0600   49.5650 C   0  0  0  0  0  0  0  0  0  0  0  0
   65.0040   33.8250   50.2750 O   0  0  0  0  0  0  0  0  0  0  0  0
   66.2920   33.3330   50.6190 C   0  0  0  0  0  0  0  0  0  0  0  0
   63.7800   33.2590   47.8810 S   0  0  0  0  0  0  0  0  0  0  0  0
   62.6450   32.0300   47.9870 C   0  0  0  0  0  0  0  0  0  0  0  0
   61.8300   31.4510   47.0870 N   0  0  0  0  0  0  0  0  0  0  0  0
   59.0040   29.9950   46.6680 C   0  0  0  0  0  0  0  0  0  0  0  0
   58.3640   28.8060   46.4000 C   0  0  0  0  0  0  0  0  0  0  0  0
   57.9680   32.4570   43.4110 C   0  0  0  0  0  0  0  0  0  0  0  0
   58.5570   33.8220   44.2030 S   0  0  0  0  0  0  0  0  0  0  0  0
   60.0143   34.4149   48.2187 H   0  0  0  0  0  0  0  0  0  0  0  0
   60.3496   33.5672   46.6709 H   0  0  0  0  0  0  0  0  0  0  0  0
   59.9848   35.3261   46.6709 H   0  0  0  0  0  0  0  0  0  0  0  0
   57.9462   33.4279   47.8400 H   0  0  0  0  0  0  0  0  0  0  0  0
   57.7152   35.0014   46.9859 H   0  0  0  0  0  0  0  0  0  0  0  0
   57.0140   31.6210   46.4640 H   0  0  0  0  0  0  0  0  0  0  0  0
   55.7759   30.5264   43.4855 H   0  0  0  0  0  0  0  0  0  0  0  0
   57.3924   29.7325   43.4208 H   0  0  0  0  0  0  0  0  0  0  0  0
   55.8263   26.9433   45.1159 H   0  0  0  0  0  0  0  0  0  0  0  0
   56.9514   23.0684   44.9353 H   0  0  0  0  0  0  0  0  0  0  0  0
   56.1888   24.5125   44.1871 H   0  0  0  0  0  0  0  0  0  0  0  0
   57.9768   24.3395   44.1871 H   0  0  0  0  0  0  0  0  0  0  0  0
   59.4084   25.6771   47.2560 H   0  0  0  0  0  0  0  0  0  0  0  0
   61.2763   29.9736   50.0394 H   0  0  0  0  0  0  0  0  0  0  0  0
   66.3898   33.2956   51.7140 H   0  0  0  0  0  0  0  0  0  0  0  0
   66.4211   32.3222   50.2046 H   0  0  0  0  0  0  0  0  0  0  0  0
   67.0621   34.0003   50.2046 H   0  0  0  0  0  0  0  0  0  0  0  0
   58.6802   31.0117   46.4005 H   0  0  0  0  0  0  0  0  0  0  0  0
   58.0442   32.2483   42.3337 H   0  0  0  0  0  0  0  0  0  0  0  0
  1  2  1  0
  2  3  1  0
  3  4  2  0
  4  5  1  0
  5  6  1  0
  6  7  1  0
  7  8  1  0
  8  9  2  0
  9 10  1  0
 10 11  1  0
 11 12  1  0
 10 13  2  0
 13 14  1  0
 14 15  1  0
 15 16  1  0
 16 17  1  0
 17 18  2  0
 18 19  1  0
 19 20  1  0
 20 21  2  0
 21 22  1  0
 22 23  1  0
 21 24  1  0
 24 25  1  0
 25 26  2  0
 16 27  2  0
 27 28  1  0
  5 29  2  0
 29 30  1  0
 30  3  1  0
 28  8  1  0
 28 14  2  0
 26 17  1  0
 25 19  1  0
  1 31  1  0
  1 32  1  0
  1 33  1  0
  2 34  1  0
  2 35  1  0
  4 36  1  0
  6 37  1  0
  6 38  1  0
  9 39  1  0
 12 40  1  0
 12 41  1  0
 12 42  1  0
 13 43  1  0
 18 44  1  0
 23 45  1  0
 23 46  1  0
 23 47  1  0
 27 48  1  0
 29 49  1  0
M  CHG  1   4   1
M  END
>  <UniqueID>  (51) 
48

>  <SMILES>  (51) 
CCc1[nH+]c(COc2cc(OC)cc3oc(-c4cn5nc(OC)sc5n4)cc23)cs1

>  <Energy>  (51) 
192.13331403735077

>  <Genealogy>  (51) 
CCc1[nH+]c(COc2cc(OC)cc3oc(-c4cn5nc(OC)sc5n4)cc23)cs1 (protonated)
CCc1[nH+]c(COc2cc(OC)cc3oc(-c4cn5nc(OC)sc5n4)cc23)cs1 (3D coordinates assigned)
CCc1[nH+]c(COc2cc(OC)cc3oc(-c4cn5nc(OC)sc5n4)cc23)cs1 (optimized conformer: 192.13331403735077 kcal/mol)

>  <smiles>  (51) 
CCc1nc(COc2cc(OC)cc3oc(-c4cn5nc(OC)sc5n4)cc23)cs1

>  <score_type>  (51) 
oracle

>  <origin>  (51) 
adg

>  <m_score__min__energy>  (51) 
-6.2599999999999998

>  <m_primary>  (51) 
energy

$$$$
51:0
     RDKit          3D

 65 68  0  0  0  0  0  0  0  0999 V2000
   55.3518   31.1752   43.3561 H   0  0  0  0  0  0  0  0  0  0  0  0
   55.9550   30.6220   44.0910 C   0  0  0  0  0  0  0  0  0  0  0  0
   55.6080   29.3540   44.4310 N   0  0  0  0  0  0  0  0  0  0  0  0
   56.3200   28.6280   45.3360 C   0  0  0  0  0  0  0  0  0  0  0  0
   55.9940   27.4010   45.6260 N   0  0  0  0  0  0  0  0  0  0  0  0
   56.8260   26.2350   45.4990 C   0  0  0  0  0  0  0  0  0  0  0  0
   58.1430   26.2940   45.9760 C   0  0  0  0  0  0  0  0  0  0  0  0
   58.5256   27.2297   46.4098 H   0  0  0  0  0  0  0  0  0  0  0  0
   58.9730   25.1720   45.9040 C   0  0  0  0  0  0  0  0  0  0  0  0
   60.0102   25.2325   46.2652 H   0  0  0  0  0  0  0  0  0  0  0  0
   58.4870   23.9710   45.3730 C   0  0  0  0  0  0  0  0  0  0  0  0
   59.3410   22.8140   45.3030 C   0  0  0  0  0  0  0  0  0  0  0  0
   60.0270   21.8840   45.2470 N   0  0  0  0  0  0  0  0  0  0  0  0
   57.1630   23.8940   44.9240 C   0  0  0  0  0  0  0  0  0  0  0  0
   56.7759   22.9494   44.5142 H   0  0  0  0  0  0  0  0  0  0  0  0
   56.3320   25.0170   44.9960 C   0  0  0  0  0  0  0  0  0  0  0  0
   55.2876   24.9477   44.6579 H   0  0  0  0  0  0  0  0  0  0  0  0
   57.4480   29.1950   45.9370 C   0  0  0  0  0  0  0  0  0  0  0  0
   58.0497   28.6048   46.6438 H   0  0  0  0  0  0  0  0  0  0  0  0
   57.8110   30.5110   45.6400 C   0  0  0  0  0  0  0  0  0  0  0  0
   58.9210   31.0580   46.3000 O   0  0  0  0  0  0  0  0  0  0  0  0
   59.4610   30.5710   47.5030 C   0  0  0  0  0  0  0  0  0  0  0  0
   60.2790   29.4240   47.4540 C   0  0  0  0  0  0  0  0  0  0  0  0
   60.5840   28.7670   46.1390 C   0  0  0  0  0  0  0  0  0  0  0  0
   61.0410   27.7826   46.3182 H   0  0  0  0  0  0  0  0  0  0  0  0
   59.6526   28.6403   45.5676 H   0  0  0  0  0  0  0  0  0  0  0  0
   61.2819   29.3967   45.5676 H   0  0  0  0  0  0  0  0  0  0  0  0
   60.8870   28.9460   48.6240 C   0  0  0  0  0  0  0  0  0  0  0  0
   61.5566   28.0747   48.5739 H   0  0  0  0  0  0  0  0  0  0  0  0
   60.6490   29.5680   49.8540 C   0  0  0  0  0  0  0  0  0  0  0  0
   61.3380   29.0770   51.0950 C   0  0  0  0  0  0  0  0  0  0  0  0
   60.8084   29.4544   51.9821 H   0  0  0  0  0  0  0  0  0  0  0  0
   61.3339   27.9771   51.1059 H   0  0  0  0  0  0  0  0  0  0  0  0
   62.3764   29.4399   51.1059 H   0  0  0  0  0  0  0  0  0  0  0  0
   59.8130   30.6880   49.9130 C   0  0  0  0  0  0  0  0  0  0  0  0
   59.6408   31.1876   50.8778 H   0  0  0  0  0  0  0  0  0  0  0  0
   59.1910   31.1820   48.7550 C   0  0  0  0  0  0  0  0  0  0  0  0
   58.2500   32.3500   48.8840 C   0  0  0  0  0  0  0  0  0  0  0  0
   58.0766   32.5653   49.9487 H   0  0  0  0  0  0  0  0  0  0  0  0
   58.6923   33.2326   48.3988 H   0  0  0  0  0  0  0  0  0  0  0  0
   57.2935   32.1056   48.3988 H   0  0  0  0  0  0  0  0  0  0  0  0
   57.0760   31.2300   44.6700 C   0  0  0  0  0  0  0  0  0  0  0  0
   57.5120   32.5500   44.1810 C   0  0  0  0  0  0  0  0  0  0  0  0
   58.0910   32.6350   43.0670 O   0  0  0  0  0  0  0  0  0  0  0  0
   57.3210   33.7440   44.9520 N   0  0  0  0  0  0  0  0  0  0  0  0
   58.1400   34.1820   46.0820 C   0  0  0  0  0  0  0  0  0  0  0  0
   57.5689   34.9163   46.6691 H   0  0  0  0  0  0  0  0  0  0  0  0
   58.3885   33.2939   46.6816 H   0  0  0  0  0  0  0  0  0  0  0  0
   59.4580   34.8280   45.6310 C   0  0  0  0  0  0  0  0  0  0  0  0
   59.7497   34.3980   44.6614 H   0  0  0  0  0  0  0  0  0  0  0  0
   59.2935   35.9129   45.5547 H   0  0  0  0  0  0  0  0  0  0  0  0
   60.5510   34.6020   46.6000 N   0  0  0  0  0  0  0  0  0  0  0  0
   60.0260   34.7000   47.9800 C   0  0  0  0  0  0  0  0  0  0  0  0
   59.8014   35.7534   48.2032 H   0  0  0  0  0  0  0  0  0  0  0  0
   59.1177   34.0834   48.0487 H   0  0  0  0  0  0  0  0  0  0  0  0
   61.0460   34.1760   49.0100 C   0  0  0  0  0  0  0  0  0  0  0  0
   61.0861   34.8699   49.8626 H   0  0  0  0  0  0  0  0  0  0  0  0
   60.7282   33.1770   49.3431 H   0  0  0  0  0  0  0  0  0  0  0  0
   62.3330   34.0730   48.4360 O   0  0  0  0  0  0  0  0  0  0  0  0
   62.3270   33.0820   47.4240 C   0  0  0  0  0  0  0  0  0  0  0  0
   63.2879   33.1179   46.8898 H   0  0  0  0  0  0  0  0  0  0  0  0
   62.1705   32.1083   47.9114 H   0  0  0  0  0  0  0  0  0  0  0  0
   61.1850   33.2840   46.4030 C   0  0  0  0  0  0  0  0  0  0  0  0
   61.5948   33.2268   45.3838 H   0  0  0  0  0  0  0  0  0  0  0  0
   60.4300   32.4976   46.5494 H   0  0  0  0  0  0  0  0  0  0  0  0
  1  2  1  0
  2  3  1  0
  3  4  1  0
  4  5  2  0
  5  6  1  0
  6  7  2  0
  7  8  1  0
  7  9  1  0
  9 10  1  0
  9 11  2  0
 11 12  1  0
 12 13  3  0
 11 14  1  0
 14 15  1  0
 14 16  2  0
 16 17  1  0
  4 18  1  0
 18 19  1  0
 18 20  2  0
 20 21  1  0
 21 22  1  0
 22 23  2  0
 23 24  1  0
 24 25  1  0
 24 26  1  0
 24 27  1  0
 23 28  1  0
 28 29  1  0
 28 30  2  0
 30 31  1  0
 31 32  1  0
 31 33  1  0
 31 34  1  0
 30 35  1  0
 35 36  1  0
 35 37  2  0
 37 38  1  0
 38 39  1  0
 38 40  1  0
 38 41  1  0
 20 42  1  0
 42 43  1  0
 43 44  2  0
 43 45  1  0
 45 46  1  0
 46 47  1  0
 46 48  1  0
 46 49  1  0
 49 50  1  0
 49 51  1  0
 49 52  1  0
 52 53  1  0
 53 54  1  0
 53 55  1  0
 53 56  1  0
 56 57  1  0
 56 58  1  0
 56 59  1  0
 59 60  1  0
 60 61  1  0
 60 62  1  0
 60 63  1  0
 63 64  1  0
 63 65  1  0
 42  2  2  0
 63 52  1  0
 16  6  1  0
 37 22  1  0
M  CHG  2   3  -1  45  -1
M  END
>  <UniqueID>  (52) 
49

>  <SMILES>  (52) 
Cc1cc(C)c(Oc2c/c(=N/c3ccc(C#N)cc3)[n-]cc2C(=O)[N-]CCN2CCOCC2)c(C)c1

>  <Energy>  (52) 
95.3518069790452

>  <Genealogy>  (52) 
Cc1cc(C)c(Oc2cc(=Nc3ccc(C#N)cc3)[n-]cc2C(=O)[N-]CCN2CCOCC2)c(C)c1 (protonated)
Cc1cc(C)c(Oc2c/c(=N/c3ccc(C#N)cc3)[n-]cc2C(=O)[N-]CCN2CCOCC2)c(C)c1 (cis-trans isomerization)
Cc1cc(C)c(Oc2c/c(=N/c3ccc(C#N)cc3)[n-]cc2C(=O)[N-]CCN2CCOCC2)c(C)c1 (3D coordinates assigned)
Cc1cc(C)c(Oc2c/c(=N/c3ccc(C#N)cc3)[n-]cc2C(=O)[N-]CCN2CCOCC2)c(C)c1 (nonaromatic ring conformer: 95.3518069790452 kcal/mol)

>  <smiles>  (52) 
Cc1cc(C)c(Oc2cc(=Nc3ccc(C#N)cc3)[nH]cc2C(=O)NCCN2CCOCC2)c(C)c1

>  <score_type>  (52) 
oracle

>  <origin>  (52) 
adg

>  <m_score__min__energy>  (52) 
-11.94

>  <m_primary>  (52) 
energy

$$$$
52:0
     RDKit          3D

 49 51  0  0  0  0  0  0  0  0999 V2000
   54.7570   30.7850   52.1210 C   0  0  0  0  0  0  0  0  0  0  0  0
   55.8920   31.1660   52.8920 O   0  0  0  0  0  0  0  0  0  0  0  0
   57.0510   31.7510   52.3550 C   0  0  0  0  0  0  0  0  0  0  0  0
   57.3910   33.0960   52.5960 C   0  0  0  0  0  0  0  0  0  0  0  0
   58.5570   33.6380   52.0470 C   0  0  0  0  0  0  0  0  0  0  0  0
   59.4150   32.8420   51.2640 C   0  0  0  0  0  0  0  0  0  0  0  0
   60.6360   33.4040   50.6320 C   0  0  0  0  0  0  0  0  0  0  0  0
   60.6770   33.9740   49.4150 C   0  0  0  0  0  0  0  0  0  0  0  0
   59.7480   33.6250   48.3180 C   0  0  0  0  0  0  0  0  0  0  0  0
   58.7690   34.3910   48.1010 O   0  0  0  0  0  0  0  0  0  0  0  0
   59.9360   32.4410   47.5060 N   0  0  0  0  0  0  0  0  0  0  0  0
   58.8980   32.1250   46.5060 C   0  0  0  0  0  0  0  0  0  0  0  0
   59.4110   31.1780   45.4150 C   0  0  0  0  0  0  0  0  0  0  0  0
   60.2030   30.1010   46.0120 N   0  0  0  0  0  0  0  0  0  0  0  0
   59.9920   28.7260   45.6450 C   0  0  0  0  0  0  0  0  0  0  0  0
   60.9820   28.0170   45.3090 O   0  0  0  0  0  0  0  0  0  0  0  0
   58.6440   28.1150   45.7150 C   0  0  0  0  0  0  0  0  0  0  0  0
   57.5220   28.8150   45.2350 C   0  0  0  0  0  0  0  0  0  0  0  0
   56.2420   28.2560   45.3280 C   0  0  0  0  0  0  0  0  0  0  0  0
   55.1420   28.9650   44.8540 O   0  0  0  0  0  0  0  0  0  0  0  0
   56.0670   26.9920   45.9100 C   0  0  0  0  0  0  0  0  0  0  0  0
   54.7890   26.4450   46.0040 O   0  0  0  0  0  0  0  0  0  0  0  0
   57.1800   26.2870   46.4040 C   0  0  0  0  0  0  0  0  0  0  0  0
   57.0330   25.0280   46.9990 O   0  0  0  0  0  0  0  0  0  0  0  0
   58.4610   26.8510   46.3070 C   0  0  0  0  0  0  0  0  0  0  0  0
   61.3090   30.4810   46.8860 C   0  0  0  0  0  0  0  0  0  0  0  0
   60.7600   31.3350   48.0250 C   0  0  0  0  0  0  0  0  0  0  0  0
   59.0550   31.5120   50.9900 C   0  0  0  0  0  0  0  0  0  0  0  0
   57.8890   30.9670   51.5400 C   0  0  0  0  0  0  0  0  0  0  0  0
   57.5610   29.6410   51.2740 O   0  0  0  0  0  0  0  0  0  0  0  0
   53.9324   30.5082   52.7944 H   0  0  0  0  0  0  0  0  0  0  0  0
   54.4451   31.6277   51.4865 H   0  0  0  0  0  0  0  0  0  0  0  0
   55.0167   29.9248   51.4865 H   0  0  0  0  0  0  0  0  0  0  0  0
   56.7363   33.7231   53.2190 H   0  0  0  0  0  0  0  0  0  0  0  0
   58.8060   34.6940   52.2281 H   0  0  0  0  0  0  0  0  0  0  0  0
   61.5756   33.3499   51.2014 H   0  0  0  0  0  0  0  0  0  0  0  0
   61.4423   34.7409   49.2249 H   0  0  0  0  0  0  0  0  0  0  0  0
   58.0479   31.6490   47.0167 H   0  0  0  0  0  0  0  0  0  0  0  0
   58.5994   33.0664   46.0216 H   0  0  0  0  0  0  0  0  0  0  0  0
   58.5545   30.7444   44.8780 H   0  0  0  0  0  0  0  0  0  0  0  0
   60.0443   31.7446   44.7165 H   0  0  0  0  0  0  0  0  0  0  0  0
   57.6516   29.8095   44.7830 H   0  0  0  0  0  0  0  0  0  0  0  0
   56.1270   24.5790   47.0930 H   0  0  0  0  0  0  0  0  0  0  0  0
   59.3299   26.3007   46.6970 H   0  0  0  0  0  0  0  0  0  0  0  0
   61.7840   29.5776   47.2962 H   0  0  0  0  0  0  0  0  0  0  0  0
   62.0580   31.0512   46.3169 H   0  0  0  0  0  0  0  0  0  0  0  0
   60.1431   30.7045   48.6822 H   0  0  0  0  0  0  0  0  0  0  0  0
   61.6067   31.7609   48.5833 H   0  0  0  0  0  0  0  0  0  0  0  0
   59.6930   30.8955   50.3396 H   0  0  0  0  0  0  0  0  0  0  0  0
  1  2  1  0
  2  3  1  0
  3  4  2  0
  4  5  1  0
  5  6  2  0
  6  7  1  0
  7  8  2  3
  8  9  1  0
  9 10  2  0
  9 11  1  0
 11 12  1  0
 12 13  1  0
 13 14  1  0
 14 15  1  0
 15 16  2  0
 15 17  1  0
 17 18  2  0
 18 19  1  0
 19 20  1  0
 19 21  2  0
 21 22  1  0
 21 23  1  0
 23 24  1  0
 23 25  2  0
 14 26  1  0
 26 27  1  0
  6 28  1  0
 28 29  2  0
 29 30  1  0
 29  3  1  0
 27 11  1  0
 25 17  1  0
  1 31  1  0
  1 32  1  0
  1 33  1  0
  4 34  1  0
  5 35  1  0
  7 36  1  0
  8 37  1  0
 12 38  1  0
 12 39  1  0
 13 40  1  0
 13 41  1  0
 18 42  1  0
 24 43  1  0
 25 44  1  0
 26 45  1  0
 26 46  1  0
 27 47  1  0
 27 48  1  0
 28 49  1  0
M  CHG  3  20  -1  22  -1  30  -1
M  END
>  <UniqueID>  (53) 
50

>  <SMILES>  (53) 
COc1ccc(C=CC(=O)N2CCN(C(=O)c3cc([O-])c([O-])c(O)c3)CC2)cc1[O-]

>  <Energy>  (53) 
66.76118889188216

>  <Genealogy>  (53) 
COc1ccc(C=CC(=O)N2CCN(C(=O)c3cc([O-])c([O-])c(O)c3)CC2)cc1[O-] (protonated)
COc1ccc(C=CC(=O)N2CCN(C(=O)c3cc([O-])c([O-])c(O)c3)CC2)cc1[O-] (3D coordinates assigned)
COc1ccc(C=CC(=O)N2CCN(C(=O)c3cc([O-])c([O-])c(O)c3)CC2)cc1[O-] (nonaromatic ring conformer: 66.76118889188216 kcal/mol)

>  <smiles>  (53) 
COc1ccc(C=CC(=O)N2CCN(C(=O)c3cc(O)c(O)c(O)c3)CC2)cc1O

>  <score_type>  (53) 
oracle

>  <origin>  (53) 
adg

>  <m_score__min__energy>  (53) 
-15.82

>  <m_primary>  (53) 
energy

$$$$
53:0
     RDKit          3D

 23 23  0  0  0  0  0  0  0  0999 V2000
   55.1420   29.3360   44.8320 N   0  0  0  0  0  0  0  0  0  0  0  0
   56.7430   29.8950   44.5010 S   0  0  0  0  0  0  0  0  0  0  0  0
   57.0250   31.1180   45.3280 O   0  0  0  0  0  0  0  0  0  0  0  0
   56.8530   30.2500   43.0460 O   0  0  0  0  0  0  0  0  0  0  0  0
   57.9320   28.6130   44.8810 C   0  0  0  0  0  0  0  0  0  0  0  0
   57.6470   27.9500   46.2330 C   0  0  0  0  0  0  0  0  0  0  0  0
   57.3030   26.5370   46.0770 N   0  0  0  0  0  0  0  0  0  0  0  0
   55.9780   26.0010   45.9570 C   0  0  0  0  0  0  0  0  0  0  0  0
   55.0070   26.6940   46.3590 O   0  0  0  0  0  0  0  0  0  0  0  0
   55.7130   24.6610   45.4060 C   0  0  0  0  0  0  0  0  0  0  0  0
   56.5770   24.0720   44.4750 C   0  0  0  0  0  0  0  0  0  0  0  0
   56.2580   22.8080   43.9740 C   0  0  0  0  0  0  0  0  0  0  0  0
   57.0180   22.2470   43.1430 O   0  0  0  0  0  0  0  0  0  0  0  0
   55.1210   22.1860   44.3800 N   0  0  0  0  0  0  0  0  0  0  0  0
   54.2800   22.7800   45.2660 C   0  0  0  0  0  0  0  0  0  0  0  0
   53.2270   22.1920   45.6230 O   0  0  0  0  0  0  0  0  0  0  0  0
   54.5750   24.0090   45.7660 N   0  0  0  0  0  0  0  0  0  0  0  0
   55.2130   28.6630   45.6280 H   0  0  0  0  0  0  0  0  0  0  0  0
   57.8915   27.8460   44.0935 H   0  0  0  0  0  0  0  0  0  0  0  0
   58.9280   29.0770   44.9327 H   0  0  0  0  0  0  0  0  0  0  0  0
   58.5424   28.0317   46.8666 H   0  0  0  0  0  0  0  0  0  0  0  0
   56.7911   28.4639   46.6950 H   0  0  0  0  0  0  0  0  0  0  0  0
   57.4876   24.5936   44.1452 H   0  0  0  0  0  0  0  0  0  0  0  0
  1  2  1  0
  2  3  2  0
  2  4  2  0
  2  5  1  0
  5  6  1  0
  6  7  1  0
  7  8  1  0
  8  9  2  0
  8 10  1  0
 10 11  2  0
 11 12  1  0
 12 13  2  0
 12 14  1  0
 14 15  1  0
 15 16  2  0
 15 17  1  0
 17 10  1  0
  1 18  1  0
  5 19  1  0
  5 20  1  0
  6 21  1  0
  6 22  1  0
 11 23  1  0
M  CHG  4   1  -1   7  -1  14  -1  17  -1
M  END
>  <UniqueID>  (54) 
51

>  <SMILES>  (54) 
[NH-]S(=O)(=O)CC[N-]C(=O)c1cc(=O)[n-]c(=O)[n-]1

>  <Energy>  (54) 
19.663002745020616

>  <Genealogy>  (54) 
[NH-]S(=O)(=O)CC[N-]C(=O)c1cc(=O)[n-]c(=O)[n-]1 (protonated)
[NH-]S(=O)(=O)CC[N-]C(=O)c1cc(=O)[n-]c(=O)[n-]1 (3D coordinates assigned)
[NH-]S(=O)(=O)CC[N-]C(=O)c1cc(=O)[n-]c(=O)[n-]1 (optimized conformer: 19.663002745020616 kcal/mol)

>  <smiles>  (54) 
NS(=O)(=O)CCNC(=O)c1cc(=O)[nH]c(=O)[nH]1

>  <score_type>  (54) 
oracle

>  <origin>  (54) 
adg

>  <m_score__min__energy>  (54) 
-14.19

>  <m_primary>  (54) 
energy

$$$$
54:0
     RDKit          3D

 44 47  0  0  0  0  0  0  0  0999 V2000
   55.1390   26.4430   46.0050 N   0  0  0  0  0  0  0  0  0  0  0  0
   56.8270   26.7950   45.9000 S   0  0  0  0  0  0  0  0  0  0  0  0
   57.4370   26.7370   47.2730 O   0  0  0  0  0  0  0  0  0  0  0  0
   57.5010   25.7700   45.0300 O   0  0  0  0  0  0  0  0  0  0  0  0
   57.0490   28.4050   45.2190 C   0  0  0  0  0  0  0  0  0  0  0  0
   58.3330   28.9520   45.0940 C   0  0  0  0  0  0  0  0  0  0  0  0
   58.5060   30.2220   44.5380 C   0  0  0  0  0  0  0  0  0  0  0  0
   57.3980   30.9540   44.0780 C   0  0  0  0  0  0  0  0  0  0  0  0
   57.5890   32.3330   43.4940 C   0  0  0  0  0  0  0  0  0  0  0  0
   57.4960   33.3680   44.5270 N   0  0  0  0  0  0  0  0  0  0  0  0
   58.2840   33.6010   45.5430 C   0  0  0  0  0  0  0  0  0  0  0  0
   58.2380   32.7330   46.5900 N   0  0  0  0  0  0  0  0  0  0  0  0
   59.0040   32.8910   47.6990 C   0  0  0  0  0  0  0  0  0  0  0  0
   58.8990   31.9790   48.7410 O   0  0  0  0  0  0  0  0  0  0  0  0
   59.8870   33.9760   47.7750 C   0  0  0  0  0  0  0  0  0  0  0  0
   60.7210   34.2360   48.9960 C   0  0  0  0  0  0  0  0  0  0  0  0
   62.1290   33.7870   48.7590 C   0  0  0  0  0  0  0  0  0  0  0  0
   62.6340   33.2000   47.5990 C   0  0  0  0  0  0  0  0  0  0  0  0
   63.9280   32.8460   47.7730 N   0  0  0  0  0  0  0  0  0  0  0  0
   64.2330   33.1950   49.0350 C   0  0  0  0  0  0  0  0  0  0  0  0
   65.4260   33.0080   49.6520 N   0  0  0  0  0  0  0  0  0  0  0  0
   65.5690   33.4040   50.9520 C   0  0  0  0  0  0  0  0  0  0  0  0
   64.4890   33.9930   51.6460 C   0  0  0  0  0  0  0  0  0  0  0  0
   63.2570   34.1760   50.9960 C   0  0  0  0  0  0  0  0  0  0  0  0
   63.1660   33.7640   49.6710 C   0  0  0  0  0  0  0  0  0  0  0  0
   59.9350   34.8530   46.7390 N   0  0  0  0  0  0  0  0  0  0  0  0
   59.1720   34.7020   45.6260 C   0  0  0  0  0  0  0  0  0  0  0  0
   59.2870   35.5450   44.6980 O   0  0  0  0  0  0  0  0  0  0  0  0
   56.1110   30.4100   44.2230 C   0  0  0  0  0  0  0  0  0  0  0  0
   55.9400   29.1380   44.7800 C   0  0  0  0  0  0  0  0  0  0  0  0
   54.7330   27.0940   46.7130 H   0  0  0  0  0  0  0  0  0  0  0  0
   59.2081   28.3793   45.4349 H   0  0  0  0  0  0  0  0  0  0  0  0
   59.5156   30.6516   44.4598 H   0  0  0  0  0  0  0  0  0  0  0  0
   58.5807   32.3873   43.0211 H   0  0  0  0  0  0  0  0  0  0  0  0
   56.7940   32.5092   42.7545 H   0  0  0  0  0  0  0  0  0  0  0  0
   60.7147   35.3132   49.2189 H   0  0  0  0  0  0  0  0  0  0  0  0
   60.3018   33.6769   49.8455 H   0  0  0  0  0  0  0  0  0  0  0  0
   62.0607   33.0465   46.6728 H   0  0  0  0  0  0  0  0  0  0  0  0
   64.5530   32.3830   47.0760 H   0  0  0  0  0  0  0  0  0  0  0  0
   66.5332   33.2629   51.4622 H   0  0  0  0  0  0  0  0  0  0  0  0
   64.6122   34.3077   52.6928 H   0  0  0  0  0  0  0  0  0  0  0  0
   62.3984   34.6273   51.5147 H   0  0  0  0  0  0  0  0  0  0  0  0
   55.2331   30.9871   43.8969 H   0  0  0  0  0  0  0  0  0  0  0  0
   54.9301   28.7121   44.8734 H   0  0  0  0  0  0  0  0  0  0  0  0
  1  2  1  0
  2  3  2  0
  2  4  2  0
  2  5  1  0
  5  6  2  0
  6  7  1  0
  7  8  2  0
  8  9  1  0
  9 10  1  0
 10 11  2  3
 11 12  1  0
 12 13  1  0
 13 14  1  0
 13 15  2  0
 15 16  1  0
 16 17  1  0
 17 18  2  0
 18 19  1  0
 19 20  1  0
 20 21  2  0
 21 22  1  0
 22 23  2  0
 23 24  1  0
 24 25  2  0
 15 26  1  0
 26 27  1  0
 27 28  2  0
  8 29  1  0
 29 30  2  0
 30  5  1  0
 27 11  1  0
 25 17  1  0
 25 20  1  0
  1 31  1  0
  6 32  1  0
  7 33  1  0
  9 34  1  0
  9 35  1  0
 16 36  1  0
 16 37  1  0
 18 38  1  0
 19 39  1  0
 22 40  1  0
 23 41  1  0
 24 42  1  0
 29 43  1  0
 30 44  1  0
M  CHG  4   1  -1  12  -1  14  -1  26  -1
M  END
>  <UniqueID>  (55) 
52

>  <SMILES>  (55) 
[NH-]S(=O)(=O)c1ccc(CN=c2[n-]c([O-])c(Cc3c[nH]c4ncccc34)[n-]c2=O)cc1

>  <Energy>  (55) 
89.04304381975064

>  <Genealogy>  (55) 
[NH-]S(=O)(=O)c1ccc(CN=c2[n-]c([O-])c(Cc3c[nH]c4ncccc34)[n-]c2=O)cc1 (protonated)
[NH-]S(=O)(=O)c1ccc(CN=c2[n-]c([O-])c(Cc3c[nH]c4ncccc34)[n-]c2=O)cc1 (3D coordinates assigned)
[NH-]S(=O)(=O)c1ccc(CN=c2[n-]c([O-])c(Cc3c[nH]c4ncccc34)[n-]c2=O)cc1 (optimized conformer: 89.04304381975064 kcal/mol)

>  <smiles>  (55) 
NS(=O)(=O)c1ccc(CN=c2[nH]c(O)c(Cc3c[nH]c4ncccc34)[nH]c2=O)cc1

>  <score_type>  (55) 
oracle

>  <origin>  (55) 
adg

>  <m_score__min__energy>  (55) 
-16.039999999999999

>  <m_primary>  (55) 
energy

$$$$
55:0
     RDKit          3D

 46 48  0  0  0  0  0  0  0  0999 V2000
   60.4930   26.9610   46.9310 C   0  0  0  0  0  0  0  0  0  0  0  0
   59.2370   27.7150   46.7940 N   0  0  0  0  0  0  0  0  0  0  0  0
   59.4250   28.9360   45.9700 C   0  0  0  0  0  0  0  0  0  0  0  0
   58.9710   28.7380   44.5130 C   0  0  0  0  0  0  0  0  0  0  0  0
   57.5570   28.3080   44.4080 N   0  0  0  0  0  0  0  0  0  0  0  0
   56.5170   29.6460   43.9850 S   0  0  0  0  0  0  0  0  0  0  0  0
   56.0710   29.5150   42.5560 O   0  0  0  0  0  0  0  0  0  0  0  0
   55.2990   29.6510   44.8690 O   0  0  0  0  0  0  0  0  0  0  0  0
   57.4010   31.1590   44.1630 C   0  0  0  0  0  0  0  0  0  0  0  0
   57.7630   31.8870   43.0240 C   0  0  0  0  0  0  0  0  0  0  0  0
   58.4680   33.0860   43.1520 C   0  0  0  0  0  0  0  0  0  0  0  0
   58.8250   33.5580   44.4180 C   0  0  0  0  0  0  0  0  0  0  0  0
   58.4890   32.8290   45.5720 C   0  0  0  0  0  0  0  0  0  0  0  0
   58.8810   33.3360   46.9090 C   0  0  0  0  0  0  0  0  0  0  0  0
   58.0090   33.4240   47.8170 O   0  0  0  0  0  0  0  0  0  0  0  0
   60.2310   33.7440   47.1810 N   0  0  0  0  0  0  0  0  0  0  0  0
   60.6610   34.0830   48.5360 C   0  0  0  0  0  0  0  0  0  0  0  0
   62.1200   33.7990   48.7120 C   0  0  0  0  0  0  0  0  0  0  0  0
   62.8080   33.8240   49.9080 C   0  0  0  0  0  0  0  0  0  0  0  0
   64.1040   33.4700   49.5970 C   0  0  0  0  0  0  0  0  0  0  0  0
   64.1230   33.2470   48.2340 C   0  0  0  0  0  0  0  0  0  0  0  0
   62.9240   33.4490   47.7360 O   0  0  0  0  0  0  0  0  0  0  0  0
   57.7640   31.6310   45.4340 C   0  0  0  0  0  0  0  0  0  0  0  0
   57.0460   27.6380   45.6220 C   0  0  0  0  0  0  0  0  0  0  0  0
   58.1520   26.8310   46.3090 C   0  0  0  0  0  0  0  0  0  0  0  0
   60.7232   26.8228   47.9977 H   0  0  0  0  0  0  0  0  0  0  0  0
   60.3851   25.9782   46.4488 H   0  0  0  0  0  0  0  0  0  0  0  0
   61.3097   27.5183   46.4488 H   0  0  0  0  0  0  0  0  0  0  0  0
   58.8399   29.7549   46.4138 H   0  0  0  0  0  0  0  0  0  0  0  0
   60.5000   29.1687   45.9569 H   0  0  0  0  0  0  0  0  0  0  0  0
   59.0902   29.6899   43.9748 H   0  0  0  0  0  0  0  0  0  0  0  0
   59.5933   27.9430   44.0763 H   0  0  0  0  0  0  0  0  0  0  0  0
   57.4917   31.5141   42.0254 H   0  0  0  0  0  0  0  0  0  0  0  0
   58.7427   33.6598   42.2546 H   0  0  0  0  0  0  0  0  0  0  0  0
   59.3730   34.5071   44.5122 H   0  0  0  0  0  0  0  0  0  0  0  0
   60.9030   33.8520   46.3880 H   0  0  0  0  0  0  0  0  0  0  0  0
   60.4764   35.1522   48.7171 H   0  0  0  0  0  0  0  0  0  0  0  0
   60.0918   33.4721   49.2521 H   0  0  0  0  0  0  0  0  0  0  0  0
   62.4067   34.0739   50.9012 H   0  0  0  0  0  0  0  0  0  0  0  0
   64.9511   33.3829   50.2933 H   0  0  0  0  0  0  0  0  0  0  0  0
   65.0076   32.9460   47.6536 H   0  0  0  0  0  0  0  0  0  0  0  0
   57.4793   31.0596   46.3298 H   0  0  0  0  0  0  0  0  0  0  0  0
   56.6684   28.3988   46.3210 H   0  0  0  0  0  0  0  0  0  0  0  0
   56.2393   26.9497   45.3297 H   0  0  0  0  0  0  0  0  0  0  0  0
   57.7221   26.2883   47.1638 H   0  0  0  0  0  0  0  0  0  0  0  0
   58.5762   26.1279   45.5771 H   0  0  0  0  0  0  0  0  0  0  0  0
  1  2  1  0
  2  3  1  0
  3  4  1  0
  4  5  1  0
  5  6  1  0
  6  7  2  0
  6  8  2  0
  6  9  1  0
  9 10  2  0
 10 11  1  0
 11 12  2  0
 12 13  1  0
 13 14  1  0
 14 15  2  0
 14 16  1  0
 16 17  1  0
 17 18  1  0
 18 19  2  0
 19 20  1  0
 20 21  2  0
 21 22  1  0
 13 23  2  0
  5 24  1  0
 24 25  1  0
 25  2  1  0
 23  9  1  0
 22 18  1  0
  1 26  1  0
  1 27  1  0
  1 28  1  0
  3 29  1  0
  3 30  1  0
  4 31  1  0
  4 32  1  0
 10 33  1  0
 11 34  1  0
 12 35  1  0
 16 36  1  0
 17 37  1  0
 17 38  1  0
 19 39  1  0
 20 40  1  0
 21 41  1  0
 23 42  1  0
 24 43  1  0
 24 44  1  0
 25 45  1  0
 25 46  1  0
M  END
>  <UniqueID>  (56) 
53

>  <SMILES>  (56) 
CN1CCN(S(=O)(=O)c2cccc(C(=O)NCc3ccco3)c2)CC1

>  <Energy>  (56) 
82.75817164726955

>  <Genealogy>  (56) 
CN1CCN(S(=O)(=O)c2cccc(C(=O)NCc3ccco3)c2)CC1 (3D coordinates assigned)
CN1CCN(S(=O)(=O)c2cccc(C(=O)NCc3ccco3)c2)CC1 (nonaromatic ring conformer: 82.75817164726955 kcal/mol)

>  <smiles>  (56) 
CN1CCN(S(=O)(=O)c2cccc(C(=O)NCc3ccco3)c2)CC1

>  <score_type>  (56) 
oracle

>  <origin>  (56) 
adg

>  <m_score__min__energy>  (56) 
-8.9600000000000009

>  <m_primary>  (56) 
energy

$$$$
56:0
     RDKit          3D

 55 57  0  0  0  0  0  0  0  0999 V2000
   56.3507   23.9760   45.8382 H   0  0  0  0  0  0  0  0  0  0  0  0
   56.9200   24.8980   45.6490 C   0  0  0  0  0  0  0  0  0  0  0  0
   57.1990   25.7750   46.7010 C   0  0  0  0  0  0  0  0  0  0  0  0
   56.8397   25.5475   47.7155 H   0  0  0  0  0  0  0  0  0  0  0  0
   57.9340   26.9410   46.4660 C   0  0  0  0  0  0  0  0  0  0  0  0
   58.1394   27.6365   47.2931 H   0  0  0  0  0  0  0  0  0  0  0  0
   58.4090   27.2250   45.1800 C   0  0  0  0  0  0  0  0  0  0  0  0
   59.1110   28.4500   44.9470 N   0  0  0  0  0  0  0  0  0  0  0  0
   58.6850   29.6620   45.1520 C   0  0  0  0  0  0  0  0  0  0  0  0
   59.4780   30.6080   45.6850 N   0  0  0  0  0  0  0  0  0  0  0  0
   58.7650   31.7170   45.8150 N   0  0  0  0  0  0  0  0  0  0  0  0
   59.3290   33.0010   46.2870 C   0  0  0  0  0  0  0  0  0  0  0  0
   59.1340   34.1860   45.2980 C   0  0  0  0  0  0  0  0  0  0  0  0
   59.6413   35.0693   45.7133 H   0  0  0  0  0  0  0  0  0  0  0  0
   59.5566   33.8666   44.3339 H   0  0  0  0  0  0  0  0  0  0  0  0
   57.7250   34.5370   45.0480 C   0  0  0  0  0  0  0  0  0  0  0  0
   56.6170   34.8090   44.8540 N   0  0  0  0  0  0  0  0  0  0  0  0
   58.9970   33.2930   47.7290 C   0  0  0  0  0  0  0  0  0  0  0  0
   58.3044   32.5570   48.1633 H   0  0  0  0  0  0  0  0  0  0  0  0
   58.4803   34.2401   47.9437 H   0  0  0  0  0  0  0  0  0  0  0  0
   60.3790   33.1470   48.2370 N   0  0  0  0  0  0  0  0  0  0  0  0
   61.0860   33.1190   49.4800 C   0  0  0  0  0  0  0  0  0  0  0  0
   62.1590   32.4640   49.5590 O   0  0  0  0  0  0  0  0  0  0  0  0
   60.6380   33.8400   50.6340 N   0  0  0  0  0  0  0  0  0  0  0  0
   59.2850   33.8380   51.1770 C   0  0  0  0  0  0  0  0  0  0  0  0
   58.5865   34.1786   50.3985 H   0  0  0  0  0  0  0  0  0  0  0  0
   59.2600   34.5118   52.0461 H   0  0  0  0  0  0  0  0  0  0  0  0
   58.8700   32.4370   51.6410 C   0  0  0  0  0  0  0  0  0  0  0  0
   58.1539   32.5355   52.4701 H   0  0  0  0  0  0  0  0  0  0  0  0
   59.7773   31.9026   51.9591 H   0  0  0  0  0  0  0  0  0  0  0  0
   58.2120   31.6240   50.5100 C   0  0  0  0  0  0  0  0  0  0  0  0
   58.2209   32.2278   49.5906 H   0  0  0  0  0  0  0  0  0  0  0  0
   57.1864   31.3822   50.8259 H   0  0  0  0  0  0  0  0  0  0  0  0
   58.9400   30.2990   50.2360 C   0  0  0  0  0  0  0  0  0  0  0  0
   58.4564   29.5048   50.8236 H   0  0  0  0  0  0  0  0  0  0  0  0
   59.9934   30.4359   50.5217 H   0  0  0  0  0  0  0  0  0  0  0  0
   58.9130   29.8990   48.7590 C   0  0  0  0  0  0  0  0  0  0  0  0
   58.8391   28.8046   48.6768 H   0  0  0  0  0  0  0  0  0  0  0  0
   58.0441   30.3630   48.2693 H   0  0  0  0  0  0  0  0  0  0  0  0
   59.8363   30.2420   48.2693 H   0  0  0  0  0  0  0  0  0  0  0  0
   60.7230   32.8420   46.8340 C   0  0  0  0  0  0  0  0  0  0  0  0
   61.1154   31.8224   46.7055 H   0  0  0  0  0  0  0  0  0  0  0  0
   61.5145   33.4487   46.3699 H   0  0  0  0  0  0  0  0  0  0  0  0
   57.5180   31.5020   45.3430 C   0  0  0  0  0  0  0  0  0  0  0  0
   56.7085   32.2464   45.3167 H   0  0  0  0  0  0  0  0  0  0  0  0
   57.4220   30.1990   44.8990 C   0  0  0  0  0  0  0  0  0  0  0  0
   56.3020   29.6780   44.0930 C   0  0  0  0  0  0  0  0  0  0  0  0
   55.1990   29.4150   44.6380 O   0  0  0  0  0  0  0  0  0  0  0  0
   56.4810   29.3980   42.7060 N   0  0  0  0  0  0  0  0  0  0  0  0
   55.6970   29.0020   42.1450 H   0  0  0  0  0  0  0  0  0  0  0  0
   57.3830   29.6100   42.2270 H   0  0  0  0  0  0  0  0  0  0  0  0
   58.0940   26.3590   44.1180 C   0  0  0  0  0  0  0  0  0  0  0  0
   58.4231   26.6009   43.0966 H   0  0  0  0  0  0  0  0  0  0  0  0
   57.3640   25.1920   44.3570 C   0  0  0  0  0  0  0  0  0  0  0  0
   57.1388   24.5047   43.5282 H   0  0  0  0  0  0  0  0  0  0  0  0
  1  2  1  0
  2  3  2  0
  3  4  1  0
  3  5  1  0
  5  6  1  0
  5  7  2  0
  7  8  1  0
  8  9  2  0
  9 10  1  0
 10 11  1  0
 11 12  1  0
 12 13  1  0
 13 14  1  0
 13 15  1  0
 13 16  1  0
 16 17  3  0
 12 18  1  0
 18 19  1  0
 18 20  1  0
 18 21  1  0
 21 22  1  0
 22 23  2  0
 22 24  1  0
 24 25  1  0
 25 26  1  0
 25 27  1  0
 25 28  1  0
 28 29  1  0
 28 30  1  0
 28 31  1  0
 31 32  1  0
 31 33  1  0
 31 34  1  0
 34 35  1  0
 34 36  1  0
 34 37  1  0
 37 38  1  0
 37 39  1  0
 37 40  1  0
 21 41  1  0
 41 42  1  0
 41 43  1  0
 11 44  1  0
 44 45  1  0
 44 46  2  0
 46 47  1  0
 47 48  2  0
 47 49  1  0
 49 50  1  0
 49 51  1  0
  7 52  1  0
 52 53  1  0
 52 54  2  0
 54 55  1  0
 54  2  1  0
 46  9  1  0
 41 12  1  0
M  CHG  2  10  -1  24  -1
M  END
>  <UniqueID>  (57) 
54

>  <SMILES>  (57) 
CCCCC[N-]C(=O)N1CC(CC#N)(n2cc(C(N)=O)/c(=N\c3ccccc3)[n-]2)C1

>  <Energy>  (57) 
143.04238619300574

>  <Genealogy>  (57) 
CCCCC[N-]C(=O)N1CC(CC#N)(n2cc(C(N)=O)c(=Nc3ccccc3)[n-]2)C1 (protonated)
CCCCC[N-]C(=O)N1CC(CC#N)(n2cc(C(N)=O)/c(=N\c3ccccc3)[n-]2)C1 (cis-trans isomerization)
CCCCC[N-]C(=O)N1CC(CC#N)(n2cc(C(N)=O)/c(=N\c3ccccc3)[n-]2)C1 (3D coordinates assigned)
CCCCC[N-]C(=O)N1CC(CC#N)(n2cc(C(N)=O)/c(=N\c3ccccc3)[n-]2)C1 (nonaromatic ring conformer: 143.04238619300574 kcal/mol)

>  <smiles>  (57) 
CCCCCNC(=O)N1CC(CC#N)(n2cc(C(N)=O)c(=Nc3ccccc3)[nH]2)C1

>  <score_type>  (57) 
oracle

>  <origin>  (57) 
adg

>  <m_score__min__energy>  (57) 
-11.35

>  <m_primary>  (57) 
energy

$$$$
57:0
     RDKit          3D

 51 52  0  0  0  0  0  0  0  0999 V2000
   54.5190   25.1490   45.6200 C   0  0  0  0  0  0  0  0  0  0  0  0
   55.3610   26.2290   46.1250 N   0  0  0  0  0  0  0  0  0  0  0  0
   57.0370   25.7810   45.9980 S   0  0  0  0  0  0  0  0  0  0  0  0
   57.2380   24.3960   46.5470 O   0  0  0  0  0  0  0  0  0  0  0  0
   57.4370   25.7780   44.5510 O   0  0  0  0  0  0  0  0  0  0  0  0
   58.0470   26.9230   46.8800 C   0  0  0  0  0  0  0  0  0  0  0  0
   57.8460   28.3040   46.7370 C   0  0  0  0  0  0  0  0  0  0  0  0
   58.6900   29.2120   47.3820 C   0  0  0  0  0  0  0  0  0  0  0  0
   59.7430   28.7480   48.1840 C   0  0  0  0  0  0  0  0  0  0  0  0
   60.7280   29.7130   48.7920 C   0  0  0  0  0  0  0  0  0  0  0  0
   60.3130   30.0380   50.1510 N   0  0  0  0  0  0  0  0  0  0  0  0
   59.0380   30.6080   50.4600 C   0  0  0  0  0  0  0  0  0  0  0  0
   58.0350   29.8690   50.6590 O   0  0  0  0  0  0  0  0  0  0  0  0
   58.8730   32.0930   50.4240 C   0  0  0  0  0  0  0  0  0  0  0  0
   59.1630   32.5830   49.0300 C   0  0  0  0  0  0  0  0  0  0  0  0
   60.4560   32.9980   48.6790 C   0  0  0  0  0  0  0  0  0  0  0  0
   60.7050   33.5260   47.4090 C   0  0  0  0  0  0  0  0  0  0  0  0
   59.6630   33.6630   46.4870 C   0  0  0  0  0  0  0  0  0  0  0  0
   58.3600   33.2750   46.8310 C   0  0  0  0  0  0  0  0  0  0  0  0
   57.2370   33.4050   45.8370 C   0  0  0  0  0  0  0  0  0  0  0  0
   57.4030   32.4050   44.6940 C   0  0  0  0  0  0  0  0  0  0  0  0
   57.3710   31.0360   45.2200 N   0  0  0  0  0  0  0  0  0  0  0  0
   56.5740   29.9580   44.1120 S   0  0  0  0  0  0  0  0  0  0  0  0
   57.6360   28.5710   43.7600 C   0  0  0  0  0  0  0  0  0  0  0  0
   55.2790   29.4720   44.7050 O   0  0  0  0  0  0  0  0  0  0  0  0
   56.2870   30.6920   42.8360 O   0  0  0  0  0  0  0  0  0  0  0  0
   58.1190   32.7240   48.1020 C   0  0  0  0  0  0  0  0  0  0  0  0
   59.9300   27.3650   48.3450 C   0  0  0  0  0  0  0  0  0  0  0  0
   59.0900   26.4580   47.6910 C   0  0  0  0  0  0  0  0  0  0  0  0
   54.0869   24.5947   46.4662 H   0  0  0  0  0  0  0  0  0  0  0  0
   53.7095   25.5714   45.0066 H   0  0  0  0  0  0  0  0  0  0  0  0
   55.1261   24.4670   45.0066 H   0  0  0  0  0  0  0  0  0  0  0  0
   57.0190   28.6744   46.1134 H   0  0  0  0  0  0  0  0  0  0  0  0
   58.5282   30.2932   47.2605 H   0  0  0  0  0  0  0  0  0  0  0  0
   61.7268   29.2527   48.8137 H   0  0  0  0  0  0  0  0  0  0  0  0
   60.7613   30.6322   48.1887 H   0  0  0  0  0  0  0  0  0  0  0  0
   57.8416   32.3566   50.7008 H   0  0  0  0  0  0  0  0  0  0  0  0
   59.5680   32.5623   51.1358 H   0  0  0  0  0  0  0  0  0  0  0  0
   61.2769   32.9076   49.4057 H   0  0  0  0  0  0  0  0  0  0  0  0
   61.7243   33.8348   47.1340 H   0  0  0  0  0  0  0  0  0  0  0  0
   59.8659   34.0766   45.4881 H   0  0  0  0  0  0  0  0  0  0  0  0
   56.2810   33.2143   46.3466 H   0  0  0  0  0  0  0  0  0  0  0  0
   57.2531   34.4225   45.4193 H   0  0  0  0  0  0  0  0  0  0  0  0
   56.5841   32.5375   43.9716 H   0  0  0  0  0  0  0  0  0  0  0  0
   58.3688   32.5797   44.1972 H   0  0  0  0  0  0  0  0  0  0  0  0
   57.9791   28.1230   44.7042 H   0  0  0  0  0  0  0  0  0  0  0  0
   57.0791   27.8209   43.1792 H   0  0  0  0  0  0  0  0  0  0  0  0
   58.5054   28.9130   43.1792 H   0  0  0  0  0  0  0  0  0  0  0  0
   57.1029   32.4004   48.3718 H   0  0  0  0  0  0  0  0  0  0  0  0
   60.7411   26.9937   48.9886 H   0  0  0  0  0  0  0  0  0  0  0  0
   59.2489   25.3765   47.8139 H   0  0  0  0  0  0  0  0  0  0  0  0
  1  2  1  0
  2  3  1  0
  3  4  2  0
  3  5  2  0
  3  6  1  0
  6  7  2  0
  7  8  1  0
  8  9  2  0
  9 10  1  0
 10 11  1  0
 11 12  1  0
 12 13  2  0
 12 14  1  0
 14 15  1  0
 15 16  2  0
 16 17  1  0
 17 18  2  0
 18 19  1  0
 19 20  1  0
 20 21  1  0
 21 22  1  0
 22 23  1  0
 23 24  1  0
 23 25  2  0
 23 26  2  0
 19 27  2  0
  9 28  1  0
 28 29  2  0
 29  6  1  0
 27 15  1  0
  1 30  1  0
  1 31  1  0
  1 32  1  0
  7 33  1  0
  8 34  1  0
 10 35  1  0
 10 36  1  0
 14 37  1  0
 14 38  1  0
 16 39  1  0
 17 40  1  0
 18 41  1  0
 20 42  1  0
 20 43  1  0
 21 44  1  0
 21 45  1  0
 24 46  1  0
 24 47  1  0
 24 48  1  0
 27 49  1  0
 28 50  1  0
 29 51  1  0
M  CHG  3   2  -1  11  -1  22  -1
M  END
>  <UniqueID>  (58) 
55

>  <SMILES>  (58) 
C[N-]S(=O)(=O)c1ccc(C[N-]C(=O)Cc2cccc(CC[N-]S(C)(=O)=O)c2)cc1

>  <Energy>  (58) 
31.503837922864307

>  <Genealogy>  (58) 
C[N-]S(=O)(=O)c1ccc(C[N-]C(=O)Cc2cccc(CC[N-]S(C)(=O)=O)c2)cc1 (protonated)
C[N-]S(=O)(=O)c1ccc(C[N-]C(=O)Cc2cccc(CC[N-]S(C)(=O)=O)c2)cc1 (3D coordinates assigned)
C[N-]S(=O)(=O)c1ccc(C[N-]C(=O)Cc2cccc(CC[N-]S(C)(=O)=O)c2)cc1 (optimized conformer: 31.503837922864307 kcal/mol)

>  <smiles>  (58) 
CNS(=O)(=O)c1ccc(CNC(=O)Cc2cccc(CCNS(C)(=O)=O)c2)cc1

>  <score_type>  (58) 
oracle

>  <origin>  (58) 
adg

>  <m_score__min__energy>  (58) 
-13.65

>  <m_primary>  (58) 
energy

$$$$
58:0
     RDKit          3D

 65 68  0  0  0  0  0  0  0  0999 V2000
   57.1490   33.0440   47.0560 O   0  0  0  0  0  0  0  0  0  0  0  0
   58.3660   32.7090   47.0800 C   0  0  0  0  0  0  0  0  0  0  0  0
   59.4210   33.7080   47.4660 C   0  0  0  0  0  0  0  0  0  0  0  0
   60.7640   33.1340   47.3440 N   0  0  0  0  0  0  0  0  0  0  0  0
   61.5530   33.0430   48.8930 S   0  0  0  0  0  0  0  0  0  0  0  0
   63.0230   33.2860   48.7070 O   0  0  0  0  0  0  0  0  0  0  0  0
   61.0130   34.0970   49.8210 O   0  0  0  0  0  0  0  0  0  0  0  0
   61.3170   31.4450   49.5960 C   0  0  0  0  0  0  0  0  0  0  0  0
   61.4860   31.2550   50.9720 C   0  0  0  0  0  0  0  0  0  0  0  0
   61.2810   29.9940   51.5370 C   0  0  0  0  0  0  0  0  0  0  0  0
   60.9170   28.9130   50.7280 C   0  0  0  0  0  0  0  0  0  0  0  0
   60.7730   29.0790   49.3390 C   0  0  0  0  0  0  0  0  0  0  0  0
   60.3850   27.9410   48.4690 C   0  0  0  0  0  0  0  0  0  0  0  0
   59.9220   26.8920   48.9930 O   0  0  0  0  0  0  0  0  0  0  0  0
   60.5650   27.9720   47.0470 N   0  0  0  0  0  0  0  0  0  0  0  0
   59.6180   27.5400   46.0630 C   0  0  0  0  0  0  0  0  0  0  0  0
   59.7070   27.9530   44.7200 C   0  0  0  0  0  0  0  0  0  0  0  0
   58.7520   27.5310   43.7920 C   0  0  0  0  0  0  0  0  0  0  0  0
   57.6970   26.7050   44.1930 C   0  0  0  0  0  0  0  0  0  0  0  0
   57.5940   26.2980   45.5310 C   0  0  0  0  0  0  0  0  0  0  0  0
   56.2710   25.2510   46.0500 S   0  0  0  0  0  0  0  0  0  0  0  0
   56.4530   24.8960   47.5010 O   0  0  0  0  0  0  0  0  0  0  0  0
   54.9760   26.0050   45.9140 O   0  0  0  0  0  0  0  0  0  0  0  0
   56.1870   23.7870   45.1000 N   0  0  0  0  0  0  0  0  0  0  0  0
   56.1090   24.1070   43.6680 C   0  0  0  0  0  0  0  0  0  0  0  0
   55.9740   22.8040   42.8500 C   0  0  0  0  0  0  0  0  0  0  0  0
   56.2540   21.6450   43.6200 O   0  0  0  0  0  0  0  0  0  0  0  0
   57.4770   21.8130   44.3130 C   0  0  0  0  0  0  0  0  0  0  0  0
   57.3530   22.9260   45.3740 C   0  0  0  0  0  0  0  0  0  0  0  0
   58.5530   26.7260   46.4620 C   0  0  0  0  0  0  0  0  0  0  0  0
   60.9620   30.3570   48.7830 C   0  0  0  0  0  0  0  0  0  0  0  0
   58.7480   31.3610   46.7740 N   0  0  0  0  0  0  0  0  0  0  0  0
   57.7780   30.3390   46.3850 C   0  0  0  0  0  0  0  0  0  0  0  0
   57.3700   30.5220   44.9450 C   0  0  0  0  0  0  0  0  0  0  0  0
   58.1230   31.3550   44.0980 C   0  0  0  0  0  0  0  0  0  0  0  0
   57.7610   31.5110   42.7580 C   0  0  0  0  0  0  0  0  0  0  0  0
   56.6470   30.8380   42.2490 C   0  0  0  0  0  0  0  0  0  0  0  0
   55.8930   30.0050   43.0810 C   0  0  0  0  0  0  0  0  0  0  0  0
   56.2500   29.8430   44.4240 C   0  0  0  0  0  0  0  0  0  0  0  0
   55.4920   29.0040   45.2330 O   0  0  0  0  0  0  0  0  0  0  0  0
   59.3440   34.5844   46.8058 H   0  0  0  0  0  0  0  0  0  0  0  0
   59.2597   33.9974   48.5149 H   0  0  0  0  0  0  0  0  0  0  0  0
   61.7810   32.1008   51.6104 H   0  0  0  0  0  0  0  0  0  0  0  0
   61.4061   29.8511   52.6205 H   0  0  0  0  0  0  0  0  0  0  0  0
   60.7421   27.9261   51.1812 H   0  0  0  0  0  0  0  0  0  0  0  0
   60.5301   28.6092   44.4009 H   0  0  0  0  0  0  0  0  0  0  0  0
   58.8300   27.8495   42.7420 H   0  0  0  0  0  0  0  0  0  0  0  0
   56.9478   26.3745   43.4586 H   0  0  0  0  0  0  0  0  0  0  0  0
   55.2335   24.7469   43.4835 H   0  0  0  0  0  0  0  0  0  0  0  0
   57.0240   24.6357   43.3625 H   0  0  0  0  0  0  0  0  0  0  0  0
   54.9450   22.7330   42.4677 H   0  0  0  0  0  0  0  0  0  0  0  0
   56.7084   22.8463   42.0322 H   0  0  0  0  0  0  0  0  0  0  0  0
   57.7435   20.8684   44.8097 H   0  0  0  0  0  0  0  0  0  0  0  0
   58.2568   22.0973   43.5911 H   0  0  0  0  0  0  0  0  0  0  0  0
   57.2358   22.4661   46.3664 H   0  0  0  0  0  0  0  0  0  0  0  0
   58.2619   23.5447   45.3421 H   0  0  0  0  0  0  0  0  0  0  0  0
   58.4663   26.4186   47.5146 H   0  0  0  0  0  0  0  0  0  0  0  0
   60.8304   30.5054   47.7010 H   0  0  0  0  0  0  0  0  0  0  0  0
   59.7550   31.0920   46.8430 H   0  0  0  0  0  0  0  0  0  0  0  0
   58.2301   29.3440   46.5099 H   0  0  0  0  0  0  0  0  0  0  0  0
   56.8867   30.4321   47.0228 H   0  0  0  0  0  0  0  0  0  0  0  0
   59.0015   31.8863   44.4929 H   0  0  0  0  0  0  0  0  0  0  0  0
   58.3541   32.1650   42.1019 H   0  0  0  0  0  0  0  0  0  0  0  0
   56.3634   30.9637   41.1937 H   0  0  0  0  0  0  0  0  0  0  0  0
   55.0168   29.4756   42.6786 H   0  0  0  0  0  0  0  0  0  0  0  0
  1  2  2  0
  2  3  1  0
  3  4  1  0
  4  5  1  0
  5  6  2  0
  5  7  2  0
  5  8  1  0
  8  9  2  0
  9 10  1  0
 10 11  2  0
 11 12  1  0
 12 13  1  0
 13 14  2  0
 13 15  1  0
 15 16  1  0
 16 17  2  0
 17 18  1  0
 18 19  2  0
 19 20  1  0
 20 21  1  0
 21 22  2  0
 21 23  2  0
 21 24  1  0
 24 25  1  0
 25 26  1  0
 26 27  1  0
 27 28  1  0
 28 29  1  0
 20 30  2  0
 12 31  2  0
  2 32  1  0
 32 33  1  0
 33 34  1  0
 34 35  2  0
 35 36  1  0
 36 37  2  0
 37 38  1  0
 38 39  2  0
 39 40  1  0
 31  8  1  0
 39 34  1  0
 30 16  1  0
 29 24  1  0
  3 41  1  0
  3 42  1  0
  9 43  1  0
 10 44  1  0
 11 45  1  0
 17 46  1  0
 18 47  1  0
 19 48  1  0
 25 49  1  0
 25 50  1  0
 26 51  1  0
 26 52  1  0
 28 53  1  0
 28 54  1  0
 29 55  1  0
 29 56  1  0
 30 57  1  0
 31 58  1  0
 32 59  1  0
 33 60  1  0
 33 61  1  0
 35 62  1  0
 36 63  1  0
 37 64  1  0
 38 65  1  0
M  CHG  3   4  -1  15  -1  40  -1
M  END
>  <UniqueID>  (59) 
56

>  <SMILES>  (59) 
O=C(C[N-]S(=O)(=O)c1cccc(C(=O)[N-]c2cccc(S(=O)(=O)N3CCOCC3)c2)c1)NCc1ccccc1[O-]

>  <Energy>  (59) 
80.05988520487713

>  <Genealogy>  (59) 
O=C(C[N-]S(=O)(=O)c1cccc(C(=O)[N-]c2cccc(S(=O)(=O)N3CCOCC3)c2)c1)NCc1ccccc1[O-] (protonated)
O=C(C[N-]S(=O)(=O)c1cccc(C(=O)[N-]c2cccc(S(=O)(=O)N3CCOCC3)c2)c1)NCc1ccccc1[O-] (3D coordinates assigned)
O=C(C[N-]S(=O)(=O)c1cccc(C(=O)[N-]c2cccc(S(=O)(=O)N3CCOCC3)c2)c1)NCc1ccccc1[O-] (nonaromatic ring conformer: 80.05988520487713 kcal/mol)

>  <smiles>  (59) 
O=C(CNS(=O)(=O)c1cccc(C(=O)Nc2cccc(S(=O)(=O)N3CCOCC3)c2)c1)NCc1ccccc1O

>  <score_type>  (59) 
oracle

>  <origin>  (59) 
adg

>  <m_score__min__energy>  (59) 
-19.510000000000002

>  <m_primary>  (59) 
energy

$$$$
59:0
     RDKit          3D

 44 48  0  0  0  0  0  0  0  0999 V2000
   52.3040   23.5710   45.8480 N   0  0  0  0  0  0  0  0  0  0  0  0
   53.5140   23.8430   45.4830 C   0  0  0  0  0  0  0  0  0  0  0  0
   54.1620   23.0290   44.5870 N   0  0  0  0  0  0  0  0  0  0  0  0
   55.4390   23.2930   44.1830 C   0  0  0  0  0  0  0  0  0  0  0  0
   56.0210   22.5350   43.3640 O   0  0  0  0  0  0  0  0  0  0  0  0
   56.0680   24.4150   44.7040 C   0  0  0  0  0  0  0  0  0  0  0  0
   57.3260   24.9470   44.5240 C   0  0  0  0  0  0  0  0  0  0  0  0
   57.3490   26.0790   45.3410 C   0  0  0  0  0  0  0  0  0  0  0  0
   58.5410   26.9580   45.5540 C   0  0  0  0  0  0  0  0  0  0  0  0
   58.1600   28.3970   45.3450 C   0  0  0  0  0  0  0  0  0  0  0  0
   57.2180   28.7460   44.3660 C   0  0  0  0  0  0  0  0  0  0  0  0
   56.8310   30.0790   44.2010 C   0  0  0  0  0  0  0  0  0  0  0  0
   57.3620   31.0800   45.0340 C   0  0  0  0  0  0  0  0  0  0  0  0
   57.0030   32.4610   44.8860 N   0  0  0  0  0  0  0  0  0  0  0  0
   57.7540   33.5860   45.3550 C   0  0  0  0  0  0  0  0  0  0  0  0
   58.0490   34.5000   44.5400 O   0  0  0  0  0  0  0  0  0  0  0  0
   58.2120   33.6360   46.7160 N   0  0  0  0  0  0  0  0  0  0  0  0
   59.4500   33.6420   47.1150 C   0  0  0  0  0  0  0  0  0  0  0  0
   59.7790   33.8800   48.4110 N   0  0  0  0  0  0  0  0  0  0  0  0
   61.1160   33.7960   48.3880 C   0  0  0  0  0  0  0  0  0  0  0  0
   61.9990   33.9530   49.4550 C   0  0  0  0  0  0  0  0  0  0  0  0
   63.3750   33.8150   49.1880 C   0  0  0  0  0  0  0  0  0  0  0  0
   63.8250   33.5300   47.8790 C   0  0  0  0  0  0  0  0  0  0  0  0
   62.9030   33.3790   46.8260 C   0  0  0  0  0  0  0  0  0  0  0  0
   61.5500   33.5200   47.1260 C   0  0  0  0  0  0  0  0  0  0  0  0
   60.5090   33.4160   46.2890 N   0  0  0  0  0  0  0  0  0  0  0  0
   58.3140   30.7310   46.0000 C   0  0  0  0  0  0  0  0  0  0  0  0
   58.7020   29.4000   46.1650 C   0  0  0  0  0  0  0  0  0  0  0  0
   56.1750   26.2310   46.0020 N   0  0  0  0  0  0  0  0  0  0  0  0
   55.4090   25.2090   45.5920 C   0  0  0  0  0  0  0  0  0  0  0  0
   54.1430   24.9440   45.9940 N   0  0  0  0  0  0  0  0  0  0  0  0
   51.9380   22.5930   45.8370 H   0  0  0  0  0  0  0  0  0  0  0  0
   58.1322   24.5652   43.8804 H   0  0  0  0  0  0  0  0  0  0  0  0
   58.9136   26.8248   46.5804 H   0  0  0  0  0  0  0  0  0  0  0  0
   59.3264   26.6834   44.8345 H   0  0  0  0  0  0  0  0  0  0  0  0
   56.7814   27.9663   43.7245 H   0  0  0  0  0  0  0  0  0  0  0  0
   56.1080   30.3462   43.4162 H   0  0  0  0  0  0  0  0  0  0  0  0
   61.6345   34.1765   50.4685 H   0  0  0  0  0  0  0  0  0  0  0  0
   64.1041   33.9298   50.0036 H   0  0  0  0  0  0  0  0  0  0  0  0
   64.9021   33.4255   47.6818 H   0  0  0  0  0  0  0  0  0  0  0  0
   63.2391   33.1575   45.8023 H   0  0  0  0  0  0  0  0  0  0  0  0
   58.7596   31.5118   46.6338 H   0  0  0  0  0  0  0  0  0  0  0  0
   59.4356   29.1358   46.9409 H   0  0  0  0  0  0  0  0  0  0  0  0
   55.9260   26.9730   46.6940 H   0  0  0  0  0  0  0  0  0  0  0  0
  1  2  2  3
  2  3  1  0
  3  4  1  0
  4  5  2  0
  4  6  1  0
  6  7  1  0
  7  8  2  0
  8  9  1  0
  9 10  1  0
 10 11  2  0
 11 12  1  0
 12 13  2  0
 13 14  1  0
 14 15  1  0
 15 16  2  0
 15 17  1  0
 17 18  2  3
 18 19  1  0
 19 20  1  0
 20 21  2  0
 21 22  1  0
 22 23  2  0
 23 24  1  0
 24 25  2  0
 25 26  1  0
 13 27  1  0
 27 28  2  0
  8 29  1  0
 29 30  1  0
 30 31  1  0
 31  2  1  0
 30  6  2  0
 28 10  1  0
 26 18  1  0
 25 20  1  0
  1 32  1  0
  7 33  1  0
  9 34  1  0
  9 35  1  0
 11 36  1  0
 12 37  1  0
 21 38  1  0
 22 39  1  0
 23 40  1  0
 24 41  1  0
 27 42  1  0
 28 43  1  0
 29 44  1  0
M  CHG  5   3  -1  14  -1  19  -1  26  -1  31  -1
M  END
>  <UniqueID>  (60) 
57

>  <SMILES>  (60) 
N=c1[n-]c(=O)c2cc(Cc3ccc([N-]C(=O)N=c4[n-]c5ccccc5[n-]4)cc3)[nH]c2[n-]1

>  <Energy>  (60) 
124.80642901094558

>  <Genealogy>  (60) 
N=c1[n-]c(=O)c2cc(Cc3ccc([N-]C(=O)N=c4[n-]c5ccccc5[n-]4)cc3)[nH]c2[n-]1 (protonated)
N=c1[n-]c(=O)c2cc(Cc3ccc([N-]C(=O)N=c4[n-]c5ccccc5[n-]4)cc3)[nH]c2[n-]1 (3D coordinates assigned)
N=c1[n-]c(=O)c2cc(Cc3ccc([N-]C(=O)N=c4[n-]c5ccccc5[n-]4)cc3)[nH]c2[n-]1 (optimized conformer: 124.80642901094558 kcal/mol)

>  <smiles>  (60) 
N=c1[nH]c(=O)c2cc(Cc3ccc(NC(=O)N=c4[nH]c5ccccc5[nH]4)cc3)[nH]c2[nH]1

>  <score_type>  (60) 
oracle

>  <origin>  (60) 
adg

>  <m_score__min__energy>  (60) 
-15.550000000000001

>  <m_primary>  (60) 
energy

$$$$
60:0
     RDKit          3D

 38 40  0  0  0  0  0  0  0  0999 V2000
   57.4962   27.9696   46.9366 H   0  0  0  0  0  0  0  0  0  0  0  0
   57.1510   27.7300   45.9200 C   0  0  0  0  0  0  0  0  0  0  0  0
   57.3820   28.6450   44.9570 C   0  0  0  0  0  0  0  0  0  0  0  0
   56.3460   29.6720   44.6770 C   0  0  0  0  0  0  0  0  0  0  0  0
   55.1350   29.3290   44.6310 O   0  0  0  0  0  0  0  0  0  0  0  0
   56.6700   31.0620   44.5130 N   0  0  0  0  0  0  0  0  0  0  0  0
   57.4530   31.7540   45.2850 C   0  0  0  0  0  0  0  0  0  0  0  0
   58.1040   31.2490   46.3580 N   0  0  0  0  0  0  0  0  0  0  0  0
   58.8780   32.1900   46.9600 C   0  0  0  0  0  0  0  0  0  0  0  0
   59.4872   31.9770   47.8508 H   0  0  0  0  0  0  0  0  0  0  0  0
   58.8380   33.4450   46.3590 C   0  0  0  0  0  0  0  0  0  0  0  0
   59.6470   34.6360   46.7650 C   0  0  0  0  0  0  0  0  0  0  0  0
   59.7970   35.2884   45.8922 H   0  0  0  0  0  0  0  0  0  0  0  0
   59.1104   35.1832   47.5541 H   0  0  0  0  0  0  0  0  0  0  0  0
   60.9860   34.1970   47.2940 C   0  0  0  0  0  0  0  0  0  0  0  0
   61.9990   33.8050   46.4010 C   0  0  0  0  0  0  0  0  0  0  0  0
   61.8190   33.8473   45.3166 H   0  0  0  0  0  0  0  0  0  0  0  0
   63.2330   33.3620   46.8840 C   0  0  0  0  0  0  0  0  0  0  0  0
   64.0230   33.0624   46.1797 H   0  0  0  0  0  0  0  0  0  0  0  0
   63.4650   33.2990   48.2610 C   0  0  0  0  0  0  0  0  0  0  0  0
   64.4385   32.9543   48.6398 H   0  0  0  0  0  0  0  0  0  0  0  0
   62.4600   33.6740   49.1560 C   0  0  0  0  0  0  0  0  0  0  0  0
   62.6432   33.6206   50.2393 H   0  0  0  0  0  0  0  0  0  0  0  0
   61.2220   34.1170   48.6800 C   0  0  0  0  0  0  0  0  0  0  0  0
   60.2570   34.4660   49.5680 F   0  0  0  0  0  0  0  0  0  0  0  0
   57.8210   33.3720   45.0190 S   0  0  0  0  0  0  0  0  0  0  0  0
   58.6790   28.6920   44.1870 C   0  0  0  0  0  0  0  0  0  0  0  0
   59.5230   28.7226   44.8918 H   0  0  0  0  0  0  0  0  0  0  0  0
   58.7623   27.7963   43.5539 H   0  0  0  0  0  0  0  0  0  0  0  0
   58.6972   29.5914   43.5539 H   0  0  0  0  0  0  0  0  0  0  0  0
   56.4720   26.4310   45.7230 C   0  0  0  0  0  0  0  0  0  0  0  0
   55.2050   26.1820   45.9650 O   0  0  0  0  0  0  0  0  0  0  0  0
   54.9590   24.9250   45.6790 C   0  0  0  0  0  0  0  0  0  0  0  0
   53.9818   24.4308   45.7830 H   0  0  0  0  0  0  0  0  0  0  0  0
   56.1130   24.3180   45.2280 C   0  0  0  0  0  0  0  0  0  0  0  0
   56.2291   23.2714   44.9098 H   0  0  0  0  0  0  0  0  0  0  0  0
   57.0910   25.2890   45.2570 C   0  0  0  0  0  0  0  0  0  0  0  0
   58.1465   25.1768   44.9684 H   0  0  0  0  0  0  0  0  0  0  0  0
  1  2  1  0
  2  3  2  3
  3  4  1  0
  4  5  2  0
  4  6  1  0
  6  7  2  0
  7  8  1  0
  8  9  1  0
  9 10  1  0
  9 11  2  0
 11 12  1  0
 12 13  1  0
 12 14  1  0
 12 15  1  0
 15 16  2  0
 16 17  1  0
 16 18  1  0
 18 19  1  0
 18 20  2  0
 20 21  1  0
 20 22  1  0
 22 23  1  0
 22 24  2  0
 24 25  1  0
 11 26  1  0
  3 27  1  0
 27 28  1  0
 27 29  1  0
 27 30  1  0
  2 31  1  0
 31 32  1  0
 32 33  1  0
 33 34  1  0
 33 35  2  0
 35 36  1  0
 35 37  1  0
 37 38  1  0
 26  7  1  0
 37 31  2  0
 24 15  1  0
M  CHG  1   8  -1
M  END
>  <UniqueID>  (61) 
58

>  <SMILES>  (61) 
CC(=Cc1ccco1)C(=O)/N=c1\[n-]cc(Cc2ccccc2F)s1

>  <Energy>  (61) 
102.76554873801479

>  <Genealogy>  (61) 
CC(=Cc1ccco1)C(=O)N=c1[n-]cc(Cc2ccccc2F)s1 (protonated)
CC(=Cc1ccco1)C(=O)/N=c1\[n-]cc(Cc2ccccc2F)s1 (cis-trans isomerization)
CC(=Cc1ccco1)C(=O)/N=c1\[n-]cc(Cc2ccccc2F)s1 (3D coordinates assigned)
CC(=Cc1ccco1)C(=O)/N=c1\[n-]cc(Cc2ccccc2F)s1 (optimized conformer: 102.76554873801479 kcal/mol)

>  <smiles>  (61) 
CC(=Cc1ccco1)C(=O)N=c1[nH]cc(Cc2ccccc2F)s1

>  <score_type>  (61) 
oracle

>  <origin>  (61) 
adg

>  <m_score__min__energy>  (61) 
-10.800000000000001

>  <m_primary>  (61) 
energy

$$$$
61:0
     RDKit          3D

 47 49  0  0  0  0  0  0  0  0999 V2000
   57.3330   29.1360   42.9960 C   0  0  0  0  0  0  0  0  0  0  0  0
   56.2100   29.5530   44.3140 S   0  0  0  0  0  0  0  0  0  0  0  0
   56.8460   30.6070   45.1730 O   0  0  0  0  0  0  0  0  0  0  0  0
   54.9270   30.0960   43.7520 O   0  0  0  0  0  0  0  0  0  0  0  0
   55.8860   28.1540   45.2900 N   0  0  0  0  0  0  0  0  0  0  0  0
   56.8760   27.3130   45.9010 C   0  0  0  0  0  0  0  0  0  0  0  0
   56.6010   25.9450   46.0350 C   0  0  0  0  0  0  0  0  0  0  0  0
   57.5380   25.0890   46.6150 C   0  0  0  0  0  0  0  0  0  0  0  0
   58.7560   25.5910   47.0740 C   0  0  0  0  0  0  0  0  0  0  0  0
   59.0490   26.9590   46.9570 C   0  0  0  0  0  0  0  0  0  0  0  0
   60.3660   27.4960   47.4560 C   0  0  0  0  0  0  0  0  0  0  0  0
   60.4480   27.3850   48.9460 C   0  0  0  0  0  0  0  0  0  0  0  0
   61.1430   26.4680   49.4630 O   0  0  0  0  0  0  0  0  0  0  0  0
   59.8140   28.3820   49.7570 N   0  0  0  0  0  0  0  0  0  0  0  0
   59.7720   29.7990   49.5320 C   0  0  0  0  0  0  0  0  0  0  0  0
   58.8600   30.5630   50.2740 C   0  0  0  0  0  0  0  0  0  0  0  0
   58.8000   31.9500   50.1120 C   0  0  0  0  0  0  0  0  0  0  0  0
   59.6560   32.5880   49.2120 C   0  0  0  0  0  0  0  0  0  0  0  0
   60.5830   31.8390   48.4760 C   0  0  0  0  0  0  0  0  0  0  0  0
   61.6980   32.6680   47.3410 S   0  0  0  0  0  0  0  0  0  0  0  0
   60.3540   33.3590   46.3730 C   0  0  0  0  0  0  0  0  0  0  0  0
   60.2910   34.7430   46.1670 C   0  0  0  0  0  0  0  0  0  0  0  0
   59.2470   35.2980   45.4210 C   0  0  0  0  0  0  0  0  0  0  0  0
   58.2660   34.4710   44.8710 C   0  0  0  0  0  0  0  0  0  0  0  0
   58.3160   33.0880   45.0810 C   0  0  0  0  0  0  0  0  0  0  0  0
   59.3590   32.5250   45.8310 C   0  0  0  0  0  0  0  0  0  0  0  0
   59.4250   31.1460   46.0190 O   0  0  0  0  0  0  0  0  0  0  0  0
   60.6520   30.4500   48.6430 C   0  0  0  0  0  0  0  0  0  0  0  0
   58.1040   27.8180   46.3700 C   0  0  0  0  0  0  0  0  0  0  0  0
   58.2837   28.7830   43.4222 H   0  0  0  0  0  0  0  0  0  0  0  0
   56.8918   28.3418   42.3759 H   0  0  0  0  0  0  0  0  0  0  0  0
   57.5171   30.0257   42.3759 H   0  0  0  0  0  0  0  0  0  0  0  0
   55.6401   25.5436   45.6806 H   0  0  0  0  0  0  0  0  0  0  0  0
   57.3158   24.0159   46.7105 H   0  0  0  0  0  0  0  0  0  0  0  0
   59.4908   24.9113   47.5301 H   0  0  0  0  0  0  0  0  0  0  0  0
   61.1864   26.9188   47.0046 H   0  0  0  0  0  0  0  0  0  0  0  0
   60.4472   28.5561   47.1738 H   0  0  0  0  0  0  0  0  0  0  0  0
   58.1868   30.0672   50.9888 H   0  0  0  0  0  0  0  0  0  0  0  0
   58.0771   32.5400   50.6945 H   0  0  0  0  0  0  0  0  0  0  0  0
   59.6023   33.6789   49.0810 H   0  0  0  0  0  0  0  0  0  0  0  0
   61.0663   35.3961   46.5940 H   0  0  0  0  0  0  0  0  0  0  0  0
   59.1986   36.3862   45.2674 H   0  0  0  0  0  0  0  0  0  0  0  0
   57.4528   34.9067   44.2719 H   0  0  0  0  0  0  0  0  0  0  0  0
   57.5347   32.4405   44.6564 H   0  0  0  0  0  0  0  0  0  0  0  0
   58.5890   30.5820   46.1180 H   0  0  0  0  0  0  0  0  0  0  0  0
   61.3943   29.8657   48.0794 H   0  0  0  0  0  0  0  0  0  0  0  0
   58.3251   28.8915   46.2764 H   0  0  0  0  0  0  0  0  0  0  0  0
  1  2  1  0
  2  3  2  0
  2  4  2  0
  2  5  1  0
  5  6  1  0
  6  7  2  0
  7  8  1  0
  8  9  2  0
  9 10  1  0
 10 11  1  0
 11 12  1  0
 12 13  2  0
 12 14  1  0
 14 15  1  0
 15 16  2  0
 16 17  1  0
 17 18  2  0
 18 19  1  0
 19 20  1  0
 20 21  1  0
 21 22  2  0
 22 23  1  0
 23 24  2  0
 24 25  1  0
 25 26  2  0
 26 27  1  0
 19 28  2  0
 10 29  2  0
 29  6  1  0
 28 15  1  0
 26 21  1  0
  1 30  1  0
  1 31  1  0
  1 32  1  0
  7 33  1  0
  8 34  1  0
  9 35  1  0
 11 36  1  0
 11 37  1  0
 16 38  1  0
 17 39  1  0
 18 40  1  0
 22 41  1  0
 23 42  1  0
 24 43  1  0
 25 44  1  0
 27 45  1  0
 28 46  1  0
 29 47  1  0
M  CHG  2   5  -1  14  -1
M  END
>  <UniqueID>  (62) 
59

>  <SMILES>  (62) 
CS(=O)(=O)[N-]c1cccc(CC(=O)[N-]c2cccc(Sc3ccccc3O)c2)c1

>  <Energy>  (62) 
45.591885951610955

>  <Genealogy>  (62) 
CS(=O)(=O)[N-]c1cccc(CC(=O)[N-]c2cccc(Sc3ccccc3O)c2)c1 (protonated)
CS(=O)(=O)[N-]c1cccc(CC(=O)[N-]c2cccc(Sc3ccccc3O)c2)c1 (3D coordinates assigned)
CS(=O)(=O)[N-]c1cccc(CC(=O)[N-]c2cccc(Sc3ccccc3O)c2)c1 (optimized conformer: 45.591885951610955 kcal/mol)

>  <smiles>  (62) 
CS(=O)(=O)Nc1cccc(CC(=O)Nc2cccc(Sc3ccccc3O)c2)c1

>  <score_type>  (62) 
oracle

>  <origin>  (62) 
adg

>  <m_score__min__energy>  (62) 
-13.18

>  <m_primary>  (62) 
energy

$$$$
62:0
     RDKit          3D

 59 62  0  0  0  0  0  0  0  0999 V2000
   64.5230   33.8385   50.6666 H   0  0  0  0  0  0  0  0  0  0  0  0
   63.8890   33.7740   49.7700 C   0  0  0  0  0  0  0  0  0  0  0  0
   62.5860   34.2810   49.7970 C   0  0  0  0  0  0  0  0  0  0  0  0
   62.1956   34.7440   50.7153 H   0  0  0  0  0  0  0  0  0  0  0  0
   61.7780   34.2000   48.6570 C   0  0  0  0  0  0  0  0  0  0  0  0
   60.7531   34.5987   48.6826 H   0  0  0  0  0  0  0  0  0  0  0  0
   62.2710   33.6110   47.4790 C   0  0  0  0  0  0  0  0  0  0  0  0
   61.3810   33.4790   46.2700 C   0  0  0  0  0  0  0  0  0  0  0  0
   60.7912   32.5540   46.3500 H   0  0  0  0  0  0  0  0  0  0  0  0
   62.0028   33.4449   45.3633 H   0  0  0  0  0  0  0  0  0  0  0  0
   60.4810   34.6210   46.1930 N   0  0  0  0  0  0  0  0  0  0  0  0
   59.2360   34.6880   46.9000 C   0  0  0  0  0  0  0  0  0  0  0  0
   59.1530   35.3120   47.9930 O   0  0  0  0  0  0  0  0  0  0  0  0
   58.0170   34.0630   46.2990 C   0  0  0  0  0  0  0  0  0  0  0  0
   57.7896   34.5518   45.3402 H   0  0  0  0  0  0  0  0  0  0  0  0
   57.1664   34.1865   46.9855 H   0  0  0  0  0  0  0  0  0  0  0  0
   58.2600   32.6240   46.0720 N   0  0  0  0  0  0  0  0  0  0  0  0
   58.4450   32.1570   44.8010 C   0  0  0  0  0  0  0  0  0  0  0  0
   58.3600   32.9300   43.8070 O   0  0  0  0  0  0  0  0  0  0  0  0
   58.7320   30.8540   44.5930 N   0  0  0  0  0  0  0  0  0  0  0  0
   58.8510   29.9850   45.6250 C   0  0  0  0  0  0  0  0  0  0  0  0
   59.1480   28.7340   45.4010 N   0  0  0  0  0  0  0  0  0  0  0  0
   58.3740   27.5770   45.7580 C   0  0  0  0  0  0  0  0  0  0  0  0
   58.9720   26.3380   46.0430 C   0  0  0  0  0  0  0  0  0  0  0  0
   60.0677   26.2426   46.0242 H   0  0  0  0  0  0  0  0  0  0  0  0
   58.1840   25.2270   46.3500 C   0  0  0  0  0  0  0  0  0  0  0  0
   58.6676   24.2683   46.5889 H   0  0  0  0  0  0  0  0  0  0  0  0
   56.7780   25.3170   46.3580 C   0  0  0  0  0  0  0  0  0  0  0  0
   55.9490   24.1200   46.6860 C   0  0  0  0  0  0  0  0  0  0  0  0
   56.1400   23.4900   47.7630 O   0  0  0  0  0  0  0  0  0  0  0  0
   54.8580   23.6430   45.7730 C   0  0  0  0  0  0  0  0  0  0  0  0
   54.0132   23.2736   46.3729 H   0  0  0  0  0  0  0  0  0  0  0  0
   54.5207   24.4758   45.1384 H   0  0  0  0  0  0  0  0  0  0  0  0
   55.2403   22.8299   45.1384 H   0  0  0  0  0  0  0  0  0  0  0  0
   56.1810   26.5590   46.0340 C   0  0  0  0  0  0  0  0  0  0  0  0
   54.7990   26.7110   46.0100 O   0  0  0  0  0  0  0  0  0  0  0  0
   56.9790   27.6680   45.7300 C   0  0  0  0  0  0  0  0  0  0  0  0
   56.5025   28.6235   45.4656 H   0  0  0  0  0  0  0  0  0  0  0  0
   58.7020   30.4370   46.9130 N   0  0  0  0  0  0  0  0  0  0  0  0
   58.8340   29.5010   48.0510 C   0  0  0  0  0  0  0  0  0  0  0  0
   57.8680   29.4267   48.5719 H   0  0  0  0  0  0  0  0  0  0  0  0
   59.1357   28.5155   47.6666 H   0  0  0  0  0  0  0  0  0  0  0  0
   59.8820   29.9870   49.0180 C   0  0  0  0  0  0  0  0  0  0  0  0
   61.1580   30.3510   48.5530 C   0  0  0  0  0  0  0  0  0  0  0  0
   61.3953   30.2675   47.4822 H   0  0  0  0  0  0  0  0  0  0  0  0
   62.1270   30.8190   49.4470 C   0  0  0  0  0  0  0  0  0  0  0  0
   63.1237   31.1024   49.0779 H   0  0  0  0  0  0  0  0  0  0  0  0
   61.8300   30.9270   50.8100 C   0  0  0  0  0  0  0  0  0  0  0  0
   63.0480   31.5120   51.9300 Cl  0  0  0  0  0  0  0  0  0  0  0  0
   60.5600   30.5710   51.2780 C   0  0  0  0  0  0  0  0  0  0  0  0
   60.3250   30.6608   52.3489 H   0  0  0  0  0  0  0  0  0  0  0  0
   59.5900   30.1020   50.3890 C   0  0  0  0  0  0  0  0  0  0  0  0
   58.5941   29.8216   50.7626 H   0  0  0  0  0  0  0  0  0  0  0  0
   58.4010   31.7600   47.1280 C   0  0  0  0  0  0  0  0  0  0  0  0
   58.2610   32.1880   48.3090 O   0  0  0  0  0  0  0  0  0  0  0  0
   63.5820   33.1010   47.4600 C   0  0  0  0  0  0  0  0  0  0  0  0
   63.9763   32.6351   46.5449 H   0  0  0  0  0  0  0  0  0  0  0  0
   64.3860   33.1850   48.6030 C   0  0  0  0  0  0  0  0  0  0  0  0
   65.4112   32.7867   48.5831 H   0  0  0  0  0  0  0  0  0  0  0  0
  1  2  1  0
  2  3  2  0
  3  4  1  0
  3  5  1  0
  5  6  1  0
  5  7  2  0
  7  8  1  0
  8  9  1  0
  8 10  1  0
  8 11  1  0
 11 12  1  0
 12 13  2  0
 12 14  1  0
 14 15  1  0
 14 16  1  0
 14 17  1  0
 17 18  1  0
 18 19  2  0
 18 20  1  0
 20 21  1  0
 21 22  2  0
 22 23  1  0
 23 24  2  0
 24 25  1  0
 24 26  1  0
 26 27  1  0
 26 28  2  0
 28 29  1  0
 29 30  2  0
 29 31  1  0
 31 32  1  0
 31 33  1  0
 31 34  1  0
 28 35  1  0
 35 36  1  0
 35 37  2  0
 37 38  1  0
 21 39  1  0
 39 40  1  0
 40 41  1  0
 40 42  1  0
 40 43  1  0
 43 44  2  0
 44 45  1  0
 44 46  1  0
 46 47  1  0
 46 48  2  0
 48 49  1  0
 48 50  1  0
 50 51  1  0
 50 52  2  0
 52 53  1  0
 39 54  1  0
 54 55  2  0
  7 56  1  0
 56 57  1  0
 56 58  2  0
 58 59  1  0
 58  2  1  0
 54 17  1  0
 37 23  1  0
 52 43  1  0
M  CHG  3  11  -1  20  -1  36  -1
M  END
>  <UniqueID>  (63) 
60

>  <SMILES>  (63) 
CC(=O)c1ccc(/N=c2\[n-]c(=O)n(CC(=O)[N-]Cc3ccccc3)c(=O)n2Cc2ccc(Cl)cc2)cc1[O-]

>  <Energy>  (63) 
74.14581661898622

>  <Genealogy>  (63) 
CC(=O)c1ccc(N=c2[n-]c(=O)n(CC(=O)[N-]Cc3ccccc3)c(=O)n2Cc2ccc(Cl)cc2)cc1[O-] (protonated)
CC(=O)c1ccc(/N=c2\[n-]c(=O)n(CC(=O)[N-]Cc3ccccc3)c(=O)n2Cc2ccc(Cl)cc2)cc1[O-] (cis-trans isomerization)
CC(=O)c1ccc(/N=c2\[n-]c(=O)n(CC(=O)[N-]Cc3ccccc3)c(=O)n2Cc2ccc(Cl)cc2)cc1[O-] (3D coordinates assigned)
CC(=O)c1ccc(/N=c2\[n-]c(=O)n(CC(=O)[N-]Cc3ccccc3)c(=O)n2Cc2ccc(Cl)cc2)cc1[O-] (optimized conformer: 74.14581661898622 kcal/mol)

>  <smiles>  (63) 
CC(=O)c1ccc(N=c2[nH]c(=O)n(CC(=O)NCc3ccccc3)c(=O)n2Cc2ccc(Cl)cc2)cc1O

>  <score_type>  (63) 
oracle

>  <origin>  (63) 
adg

>  <m_score__min__energy>  (63) 
-14.869999999999999

>  <m_primary>  (63) 
energy

$$$$
63:0
     RDKit          3D

 47 50  0  0  0  0  0  0  0  0999 V2000
   55.1200   30.8430   44.5090 O   0  0  0  0  0  0  0  0  0  0  0  0
   56.3330   31.1790   44.5030 C   0  0  0  0  0  0  0  0  0  0  0  0
   57.3480   30.2920   43.8320 C   0  0  0  0  0  0  0  0  0  0  0  0
   57.7380   29.1810   44.6990 N   0  0  0  0  0  0  0  0  0  0  0  0
   56.9140   28.2890   45.2960 C   0  0  0  0  0  0  0  0  0  0  0  0
   55.5260   28.3550   45.2480 O   0  0  0  0  0  0  0  0  0  0  0  0
   57.6470   27.2950   45.9110 C   0  0  0  0  0  0  0  0  0  0  0  0
   58.9690   27.5860   45.6870 C   0  0  0  0  0  0  0  0  0  0  0  0
   58.9960   28.7490   44.9420 C   0  0  0  0  0  0  0  0  0  0  0  0
   60.1430   29.3710   44.4620 O   0  0  0  0  0  0  0  0  0  0  0  0
   60.1040   26.7100   46.1110 C   0  0  0  0  0  0  0  0  0  0  0  0
   59.6120   25.4180   46.7330 C   0  0  0  0  0  0  0  0  0  0  0  0
   58.3100   25.1360   46.9620 C   0  0  0  0  0  0  0  0  0  0  0  0
   57.1660   26.0680   46.6150 C   0  0  0  0  0  0  0  0  0  0  0  0
   56.7060   32.4660   45.0070 N   0  0  0  0  0  0  0  0  0  0  0  0
   57.9840   32.7610   45.5830 C   0  0  0  0  0  0  0  0  0  0  0  0
   58.5830   34.0220   45.4290 C   0  0  0  0  0  0  0  0  0  0  0  0
   59.7880   34.3140   46.0730 C   0  0  0  0  0  0  0  0  0  0  0  0
   60.4300   33.3400   46.8550 C   0  0  0  0  0  0  0  0  0  0  0  0
   61.6510   33.6550   47.5540 N   0  0  0  0  0  0  0  0  0  0  0  0
   62.9460   33.4860   46.8860 C   0  0  0  0  0  0  0  0  0  0  0  0
   64.0770   33.4710   47.9190 C   0  0  0  0  0  0  0  0  0  0  0  0
   63.6380   32.8130   49.0890 O   0  0  0  0  0  0  0  0  0  0  0  0
   62.7190   33.6310   49.7950 C   0  0  0  0  0  0  0  0  0  0  0  0
   61.6210   34.2490   48.8970 C   0  0  0  0  0  0  0  0  0  0  0  0
   59.8480   32.0670   46.9740 C   0  0  0  0  0  0  0  0  0  0  0  0
   58.6390   31.7780   46.3330 C   0  0  0  0  0  0  0  0  0  0  0  0
   56.9142   29.8882   42.9053 H   0  0  0  0  0  0  0  0  0  0  0  0
   58.2432   30.8925   43.6130 H   0  0  0  0  0  0  0  0  0  0  0  0
   60.7180   26.4706   45.2303 H   0  0  0  0  0  0  0  0  0  0  0  0
   60.6925   27.2521   46.8659 H   0  0  0  0  0  0  0  0  0  0  0  0
   60.3608   24.6634   47.0154 H   0  0  0  0  0  0  0  0  0  0  0  0
   58.0655   24.1705   47.4290 H   0  0  0  0  0  0  0  0  0  0  0  0
   56.4586   25.5363   45.9616 H   0  0  0  0  0  0  0  0  0  0  0  0
   56.6803   26.3784   47.5519 H   0  0  0  0  0  0  0  0  0  0  0  0
   58.1010   34.7835   44.7982 H   0  0  0  0  0  0  0  0  0  0  0  0
   60.2366   35.3128   45.9669 H   0  0  0  0  0  0  0  0  0  0  0  0
   62.9476   32.5358   46.3319 H   0  0  0  0  0  0  0  0  0  0  0  0
   63.1043   34.3255   46.1931 H   0  0  0  0  0  0  0  0  0  0  0  0
   64.9458   32.9394   47.5036 H   0  0  0  0  0  0  0  0  0  0  0  0
   64.3623   34.5045   48.1650 H   0  0  0  0  0  0  0  0  0  0  0  0
   62.2318   33.0188   50.5682 H   0  0  0  0  0  0  0  0  0  0  0  0
   63.2935   34.4662   50.2221 H   0  0  0  0  0  0  0  0  0  0  0  0
   60.6366   34.0637   49.3515 H   0  0  0  0  0  0  0  0  0  0  0  0
   61.8043   35.3300   48.8089 H   0  0  0  0  0  0  0  0  0  0  0  0
   60.3464   31.2924   47.5753 H   0  0  0  0  0  0  0  0  0  0  0  0
   58.2008   30.7727   46.4189 H   0  0  0  0  0  0  0  0  0  0  0  0
  1  2  2  0
  2  3  1  0
  3  4  1  0
  4  5  1  0
  5  6  1  0
  5  7  2  0
  7  8  1  0
  8  9  2  0
  9 10  1  0
  8 11  1  0
 11 12  1  0
 12 13  2  0
 13 14  1  0
  2 15  1  0
 15 16  1  0
 16 17  2  0
 17 18  1  0
 18 19  2  0
 19 20  1  0
 20 21  1  0
 21 22  1  0
 22 23  1  0
 23 24  1  0
 24 25  1  0
 19 26  1  0
 26 27  2  0
  9  4  1  0
 27 16  1  0
 14  7  1  0
 25 20  1  0
  3 28  1  0
  3 29  1  0
 11 30  1  0
 11 31  1  0
 12 32  1  0
 13 33  1  0
 14 34  1  0
 14 35  1  0
 17 36  1  0
 18 37  1  0
 21 38  1  0
 21 39  1  0
 22 40  1  0
 22 41  1  0
 24 42  1  0
 24 43  1  0
 25 44  1  0
 25 45  1  0
 26 46  1  0
 27 47  1  0
M  CHG  3   6  -1  10  -1  15  -1
M  END
>  <UniqueID>  (64) 
61

>  <SMILES>  (64) 
O=C(Cn1c([O-])c2c(c1[O-])CC=CC2)[N-]c1ccc(N2CCOCC2)cc1

>  <Energy>  (64) 
95.49190775191165

>  <Genealogy>  (64) 
O=C(Cn1c([O-])c2c(c1[O-])CC=CC2)[N-]c1ccc(N2CCOCC2)cc1 (protonated)
O=C(Cn1c([O-])c2c(c1[O-])CC=CC2)[N-]c1ccc(N2CCOCC2)cc1 (3D coordinates assigned)
O=C(Cn1c([O-])c2c(c1[O-])CC=CC2)[N-]c1ccc(N2CCOCC2)cc1 (nonaromatic ring conformer: 95.49190775191165 kcal/mol)

>  <smiles>  (64) 
O=C(Cn1c(O)c2c(c1O)CC=CC2)Nc1ccc(N2CCOCC2)cc1

>  <score_type>  (64) 
oracle

>  <origin>  (64) 
adg

>  <m_score__min__energy>  (64) 
-14.220000000000001

>  <m_primary>  (64) 
energy

$$$$
64:0
     RDKit          3D

 53 55  0  0  0  0  0  0  0  0999 V2000
   57.4720   28.5920   52.4670 O   0  0  0  0  0  0  0  0  0  0  0  0
   57.3160   29.8410   52.4040 C   0  0  0  0  0  0  0  0  0  0  0  0
   58.4210   30.7550   52.8620 C   0  0  0  0  0  0  0  0  0  0  0  0
   59.2020   31.2480   51.7320 N   0  0  0  0  0  0  0  0  0  0  0  0
   58.6710   31.6490   50.4610 C   0  0  0  0  0  0  0  0  0  0  0  0
   57.7300   32.4850   50.4380 O   0  0  0  0  0  0  0  0  0  0  0  0
   59.1660   31.0720   49.1610 C   0  0  0  0  0  0  0  0  0  0  0  0
   59.0610   32.0840   48.0500 C   0  0  0  0  0  0  0  0  0  0  0  0
   59.8760   33.2280   48.0470 C   0  0  0  0  0  0  0  0  0  0  0  0
   59.7820   34.1570   47.0080 C   0  0  0  0  0  0  0  0  0  0  0  0
   58.8680   33.9600   45.9700 C   0  0  0  0  0  0  0  0  0  0  0  0
   58.0290   32.8360   45.9710 C   0  0  0  0  0  0  0  0  0  0  0  0
   57.0650   32.6090   44.8430 C   0  0  0  0  0  0  0  0  0  0  0  0
   57.3600   31.3290   44.2090 N   0  0  0  0  0  0  0  0  0  0  0  0
   56.9960   30.0490   44.7430 C   0  0  0  0  0  0  0  0  0  0  0  0
   55.7760   29.7500   44.8200 O   0  0  0  0  0  0  0  0  0  0  0  0
   58.0030   29.0880   45.2370 C   0  0  0  0  0  0  0  0  0  0  0  0
   57.5880   27.9310   45.9170 C   0  0  0  0  0  0  0  0  0  0  0  0
   58.5320   27.0060   46.3740 C   0  0  0  0  0  0  0  0  0  0  0  0
   59.8930   27.2220   46.1430 C   0  0  0  0  0  0  0  0  0  0  0  0
   60.8070   26.3230   46.5870 F   0  0  0  0  0  0  0  0  0  0  0  0
   60.3110   28.3600   45.4480 C   0  0  0  0  0  0  0  0  0  0  0  0
   59.3710   29.2860   44.9890 C   0  0  0  0  0  0  0  0  0  0  0  0
   58.1380   31.8950   47.0080 C   0  0  0  0  0  0  0  0  0  0  0  0
   56.0570   30.3540   51.9550 N   0  0  0  0  0  0  0  0  0  0  0  0
   54.8410   30.3690   52.7560 C   0  0  0  0  0  0  0  0  0  0  0  0
   53.6560   30.5830   51.8600 C   0  0  0  0  0  0  0  0  0  0  0  0
   53.4570   29.7560   50.7430 C   0  0  0  0  0  0  0  0  0  0  0  0
   52.3350   29.9320   49.9280 C   0  0  0  0  0  0  0  0  0  0  0  0
   51.4000   30.9270   50.2290 C   0  0  0  0  0  0  0  0  0  0  0  0
   51.5820   31.7430   51.3490 C   0  0  0  0  0  0  0  0  0  0  0  0
   50.6480   32.7250   51.6520 O   0  0  0  0  0  0  0  0  0  0  0  0
   52.7050   31.5700   52.1670 C   0  0  0  0  0  0  0  0  0  0  0  0
   57.9808   31.6110   53.3944 H   0  0  0  0  0  0  0  0  0  0  0  0
   59.0896   30.1870   53.5256 H   0  0  0  0  0  0  0  0  0  0  0  0
   60.2180   30.7724   49.2772 H   0  0  0  0  0  0  0  0  0  0  0  0
   58.5451   30.2013   48.9035 H   0  0  0  0  0  0  0  0  0  0  0  0
   60.5913   33.3931   48.8662 H   0  0  0  0  0  0  0  0  0  0  0  0
   60.4295   35.0462   47.0072 H   0  0  0  0  0  0  0  0  0  0  0  0
   58.8061   34.6892   45.1487 H   0  0  0  0  0  0  0  0  0  0  0  0
   56.0371   32.5972   45.2345 H   0  0  0  0  0  0  0  0  0  0  0  0
   57.1638   33.4182   44.1045 H   0  0  0  0  0  0  0  0  0  0  0  0
   56.5167   27.7520   46.0906 H   0  0  0  0  0  0  0  0  0  0  0  0
   58.2027   26.1072   46.9160 H   0  0  0  0  0  0  0  0  0  0  0  0
   61.3822   28.5270   45.2620 H   0  0  0  0  0  0  0  0  0  0  0  0
   59.7037   30.1737   44.4311 H   0  0  0  0  0  0  0  0  0  0  0  0
   57.4951   31.0024   47.0042 H   0  0  0  0  0  0  0  0  0  0  0  0
   54.7354   29.4080   53.2808 H   0  0  0  0  0  0  0  0  0  0  0  0
   54.8964   31.1841   53.4926 H   0  0  0  0  0  0  0  0  0  0  0  0
   54.1865   28.9668   50.5084 H   0  0  0  0  0  0  0  0  0  0  0  0
   52.1876   29.2871   49.0491 H   0  0  0  0  0  0  0  0  0  0  0  0
   50.5203   31.0677   49.5837 H   0  0  0  0  0  0  0  0  0  0  0  0
   52.8428   32.2085   53.0521 H   0  0  0  0  0  0  0  0  0  0  0  0
  1  2  2  0
  2  3  1  0
  3  4  1  0
  4  5  1  0
  5  6  2  0
  5  7  1  0
  7  8  1  0
  8  9  2  0
  9 10  1  0
 10 11  2  0
 11 12  1  0
 12 13  1  0
 13 14  1  0
 14 15  1  0
 15 16  2  0
 15 17  1  0
 17 18  2  0
 18 19  1  0
 19 20  2  0
 20 21  1  0
 20 22  1  0
 22 23  2  0
 12 24  2  0
  2 25  1  0
 25 26  1  0
 26 27  1  0
 27 28  2  0
 28 29  1  0
 29 30  2  0
 30 31  1  0
 31 32  1  0
 31 33  2  0
 24  8  1  0
 33 27  1  0
 23 17  1  0
  3 34  1  0
  3 35  1  0
  7 36  1  0
  7 37  1  0
  9 38  1  0
 10 39  1  0
 11 40  1  0
 13 41  1  0
 13 42  1  0
 18 43  1  0
 19 44  1  0
 22 45  1  0
 23 46  1  0
 24 47  1  0
 26 48  1  0
 26 49  1  0
 28 50  1  0
 29 51  1  0
 30 52  1  0
 33 53  1  0
M  CHG  4   4  -1  14  -1  25  -1  32  -1
M  END
>  <UniqueID>  (65) 
62

>  <SMILES>  (65) 
O=C(C[N-]C(=O)Cc1cccc(C[N-]C(=O)c2ccc(F)cc2)c1)[N-]Cc1cccc([O-])c1

>  <Energy>  (65) 
52.826068467062306

>  <Genealogy>  (65) 
O=C(C[N-]C(=O)Cc1cccc(C[N-]C(=O)c2ccc(F)cc2)c1)[N-]Cc1cccc([O-])c1 (protonated)
O=C(C[N-]C(=O)Cc1cccc(C[N-]C(=O)c2ccc(F)cc2)c1)[N-]Cc1cccc([O-])c1 (3D coordinates assigned)
O=C(C[N-]C(=O)Cc1cccc(C[N-]C(=O)c2ccc(F)cc2)c1)[N-]Cc1cccc([O-])c1 (optimized conformer: 52.826068467062306 kcal/mol)

>  <smiles>  (65) 
O=C(CNC(=O)Cc1cccc(CNC(=O)c2ccc(F)cc2)c1)NCc1cccc(O)c1

>  <score_type>  (65) 
oracle

>  <origin>  (65) 
adg

>  <m_score__min__energy>  (65) 
-16.960000000000001

>  <m_primary>  (65) 
energy

$$$$
65:0
     RDKit          3D

 57 61  0  0  0  0  0  0  0  0999 V2000
   59.5370   34.9742   48.8568 H   0  0  0  0  0  0  0  0  0  0  0  0
   59.0920   34.2850   48.1240 C   0  0  0  0  0  0  0  0  0  0  0  0
   58.9230   34.5710   46.4780 S   0  0  0  0  0  0  0  0  0  0  0  0
   58.1890   33.0800   46.1870 C   0  0  0  0  0  0  0  0  0  0  0  0
   57.8150   32.6220   45.0290 N   0  0  0  0  0  0  0  0  0  0  0  0
   57.8400   31.2450   44.6260 C   0  0  0  0  0  0  0  0  0  0  0  0
   56.8320   30.7040   43.8110 C   0  0  0  0  0  0  0  0  0  0  0  0
   56.0010   31.3405   43.4728 H   0  0  0  0  0  0  0  0  0  0  0  0
   56.8800   29.3580   43.4270 C   0  0  0  0  0  0  0  0  0  0  0  0
   56.0974   28.9485   42.7714 H   0  0  0  0  0  0  0  0  0  0  0  0
   57.9220   28.5270   43.8740 C   0  0  0  0  0  0  0  0  0  0  0  0
   57.9870   27.1140   43.4240 C   0  0  0  0  0  0  0  0  0  0  0  0
   58.3540   26.8660   42.2410 O   0  0  0  0  0  0  0  0  0  0  0  0
   57.6500   25.9770   44.3140 C   0  0  0  0  0  0  0  0  0  0  0  0
   57.3300   24.7240   43.7630 C   0  0  0  0  0  0  0  0  0  0  0  0
   57.3353   24.5891   42.6713 H   0  0  0  0  0  0  0  0  0  0  0  0
   57.0050   23.6480   44.5950 C   0  0  0  0  0  0  0  0  0  0  0  0
   56.7653   22.6682   44.1562 H   0  0  0  0  0  0  0  0  0  0  0  0
   56.9840   23.8140   45.9800 C   0  0  0  0  0  0  0  0  0  0  0  0
   56.7336   22.9646   46.6325 H   0  0  0  0  0  0  0  0  0  0  0  0
   57.2810   25.0590   46.5370 C   0  0  0  0  0  0  0  0  0  0  0  0
   57.2594   25.1909   47.6288 H   0  0  0  0  0  0  0  0  0  0  0  0
   57.6060   26.1390   45.7100 C   0  0  0  0  0  0  0  0  0  0  0  0
   57.8284   27.1205   46.1541 H   0  0  0  0  0  0  0  0  0  0  0  0
   58.9160   29.0720   44.7110 C   0  0  0  0  0  0  0  0  0  0  0  0
   59.7414   28.4362   45.0639 H   0  0  0  0  0  0  0  0  0  0  0  0
   58.8610   30.4140   45.0960 C   0  0  0  0  0  0  0  0  0  0  0  0
   59.6266   30.8195   45.7738 H   0  0  0  0  0  0  0  0  0  0  0  0
   58.0850   32.3500   47.3160 N   0  0  0  0  0  0  0  0  0  0  0  0
   58.5690   33.0190   48.4010 C   0  0  0  0  0  0  0  0  0  0  0  0
   58.5910   32.3850   49.7320 C   0  0  0  0  0  0  0  0  0  0  0  0
   57.4690   32.1530   50.4440 N   0  0  0  0  0  0  0  0  0  0  0  0
   57.9160   31.5810   51.5830 C   0  0  0  0  0  0  0  0  0  0  0  0
   57.1450   31.1820   52.5520 N   0  0  0  0  0  0  0  0  0  0  0  0
   56.4580   29.9200   52.6270 C   0  0  0  0  0  0  0  0  0  0  0  0
   56.9310   28.8970   52.0670 O   0  0  0  0  0  0  0  0  0  0  0  0
   55.2290   29.7760   53.4780 C   0  0  0  0  0  0  0  0  0  0  0  0
   54.9834   28.7076   53.5681 H   0  0  0  0  0  0  0  0  0  0  0  0
   55.4439   30.2209   54.4608 H   0  0  0  0  0  0  0  0  0  0  0  0
   54.0440   30.4990   52.8910 C   0  0  0  0  0  0  0  0  0  0  0  0
   52.9900   30.9210   53.7180 C   0  0  0  0  0  0  0  0  0  0  0  0
   53.0508   30.7671   54.8055 H   0  0  0  0  0  0  0  0  0  0  0  0
   51.8640   31.5360   53.1630 C   0  0  0  0  0  0  0  0  0  0  0  0
   51.0438   31.8705   53.8153 H   0  0  0  0  0  0  0  0  0  0  0  0
   51.7780   31.7270   51.7800 C   0  0  0  0  0  0  0  0  0  0  0  0
   50.6550   32.3380   51.2300 O   0  0  0  0  0  0  0  0  0  0  0  0
   52.8170   31.2970   50.9490 C   0  0  0  0  0  0  0  0  0  0  0  0
   52.7470   31.4438   49.8611 H   0  0  0  0  0  0  0  0  0  0  0  0
   53.9440   30.6810   51.4990 C   0  0  0  0  0  0  0  0  0  0  0  0
   54.7561   30.3370   50.8416 H   0  0  0  0  0  0  0  0  0  0  0  0
   59.2530   31.4570   51.6310 N   0  0  0  0  0  0  0  0  0  0  0  0
   59.8260   31.0540   52.4080 H   0  0  0  0  0  0  0  0  0  0  0  0
   59.6920   31.9620   50.4660 C   0  0  0  0  0  0  0  0  0  0  0  0
   61.1380   32.0480   50.0950 C   0  0  0  0  0  0  0  0  0  0  0  0
   61.7494   32.0844   51.0087 H   0  0  0  0  0  0  0  0  0  0  0  0
   61.4175   31.1649   49.5017 H   0  0  0  0  0  0  0  0  0  0  0  0
   61.3108   32.9580   49.5017 H   0  0  0  0  0  0  0  0  0  0  0  0
  1  2  1  0
  2  3  1  0
  3  4  1  0
  4  5  2  0
  5  6  1  0
  6  7  2  0
  7  8  1  0
  7  9  1  0
  9 10  1  0
  9 11  2  0
 11 12  1  0
 12 13  2  0
 12 14  1  0
 14 15  2  0
 15 16  1  0
 15 17  1  0
 17 18  1  0
 17 19  2  0
 19 20  1  0
 19 21  1  0
 21 22  1  0
 21 23  2  0
 23 24  1  0
 11 25  1  0
 25 26  1  0
 25 27  2  0
 27 28  1  0
  4 29  1  0
 29 30  1  0
 30 31  1  0
 31 32  1  0
 32 33  1  0
 33 34  2  0
 34 35  1  0
 35 36  2  0
 35 37  1  0
 37 38  1  0
 37 39  1  0
 37 40  1  0
 40 41  2  0
 41 42  1  0
 41 43  1  0
 43 44  1  0
 43 45  2  0
 45 46  1  0
 45 47  1  0
 47 48  1  0
 47 49  2  0
 49 50  1  0
 33 51  1  0
 51 52  1  0
 51 53  1  0
 53 54  1  0
 54 55  1  0
 54 56  1  0
 54 57  1  0
 30  2  2  0
 53 31  2  0
 27  6  1  0
 49 40  1  0
 23 14  1  0
M  CHG  3  29  -1  32  -1  46  -1
M  END
>  <UniqueID>  (66) 
63

>  <SMILES>  (66) 
Cc1[nH]/c(=N/C(=O)Cc2ccc([O-])cc2)[n-]c1-c1cs/c(=N\c2ccc(C(=O)c3ccccc3)cc2)[n-]1

>  <Energy>  (66) 
140.0203337408701

>  <Genealogy>  (66) 
Cc1[nH]c(=NC(=O)Cc2ccc([O-])cc2)[n-]c1-c1csc(=Nc2ccc(C(=O)c3ccccc3)cc2)[n-]1 (protonated)
Cc1[nH]/c(=N/C(=O)Cc2ccc([O-])cc2)[n-]c1-c1cs/c(=N\c2ccc(C(=O)c3ccccc3)cc2)[n-]1 (cis-trans isomerization)
Cc1[nH]/c(=N/C(=O)Cc2ccc([O-])cc2)[n-]c1-c1cs/c(=N\c2ccc(C(=O)c3ccccc3)cc2)[n-]1 (3D coordinates assigned)
Cc1[nH]/c(=N/C(=O)Cc2ccc([O-])cc2)[n-]c1-c1cs/c(=N\c2ccc(C(=O)c3ccccc3)cc2)[n-]1 (optimized conformer: 140.0203337408701 kcal/mol)

>  <smiles>  (66) 
Cc1[nH]c(=NC(=O)Cc2ccc(O)cc2)[nH]c1-c1csc(=Nc2ccc(C(=O)c3ccccc3)cc2)[nH]1

>  <score_type>  (66) 
oracle

>  <origin>  (66) 
adg

>  <m_score__min__energy>  (66) 
-16.510000000000002

>  <m_primary>  (66) 
energy

$$$$
66:0
     RDKit          3D

 38 40  0  0  0  0  0  0  0  0999 V2000
   65.7880   33.0720   48.3430 H   0  0  0  0  0  0  0  0  0  0  0  0
   64.9490   33.1690   48.9040 O   0  0  0  0  0  0  0  0  0  0  0  0
   63.6910   33.2850   48.3180 C   0  0  0  0  0  0  0  0  0  0  0  0
   63.5820   33.7080   46.9920 C   0  0  0  0  0  0  0  0  0  0  0  0
   64.4895   33.9475   46.4183 H   0  0  0  0  0  0  0  0  0  0  0  0
   62.3270   33.8290   46.3890 C   0  0  0  0  0  0  0  0  0  0  0  0
   62.2537   34.1663   45.3446 H   0  0  0  0  0  0  0  0  0  0  0  0
   61.1540   33.5220   47.1090 C   0  0  0  0  0  0  0  0  0  0  0  0
   59.8070   33.6450   46.4930 C   0  0  0  0  0  0  0  0  0  0  0  0
   59.5360   33.1040   45.2710 N   0  0  0  0  0  0  0  0  0  0  0  0
   58.2630   33.3300   44.8880 C   0  0  0  0  0  0  0  0  0  0  0  0
   57.7920   32.9000   43.7570 N   0  0  0  0  0  0  0  0  0  0  0  0
   58.0560   31.5720   43.2130 C   0  0  0  0  0  0  0  0  0  0  0  0
   59.1390   31.4421   43.0710 H   0  0  0  0  0  0  0  0  0  0  0  0
   57.5449   31.4627   42.2451 H   0  0  0  0  0  0  0  0  0  0  0  0
   57.5500   30.5370   44.1650 C   0  0  0  0  0  0  0  0  0  0  0  0
   56.2440   30.3470   44.4360 N   0  0  0  0  0  0  0  0  0  0  0  0
   56.1680   29.3440   45.2990 N   0  0  0  0  0  0  0  0  0  0  0  0
   57.4280   28.9320   45.5320 C   0  0  0  0  0  0  0  0  0  0  0  0
   57.8360   27.5940   46.6580 S   0  0  0  0  0  0  0  0  0  0  0  0
   57.1560   26.2830   45.5850 C   0  0  0  0  0  0  0  0  0  0  0  0
   56.9265   26.7082   44.5968 H   0  0  0  0  0  0  0  0  0  0  0  0
   57.9024   25.4804   45.4916 H   0  0  0  0  0  0  0  0  0  0  0  0
   55.9070   25.7110   46.1750 C   0  0  0  0  0  0  0  0  0  0  0  0
   55.9600   24.6770   46.8910 O   0  0  0  0  0  0  0  0  0  0  0  0
   54.6880   26.3410   45.9640 O   0  0  0  0  0  0  0  0  0  0  0  0
   58.3230   29.6500   44.8250 N   0  0  0  0  0  0  0  0  0  0  0  0
   59.7820   29.5890   44.8690 C   0  0  0  0  0  0  0  0  0  0  0  0
   60.1170   29.5750   45.9167 H   0  0  0  0  0  0  0  0  0  0  0  0
   60.1263   28.6757   44.3617 H   0  0  0  0  0  0  0  0  0  0  0  0
   60.2013   30.4704   44.3617 H   0  0  0  0  0  0  0  0  0  0  0  0
   57.4090   34.2120   46.0390 S   0  0  0  0  0  0  0  0  0  0  0  0
   58.7260   34.3120   47.0810 C   0  0  0  0  0  0  0  0  0  0  0  0
   58.7359   34.8161   48.0586 H   0  0  0  0  0  0  0  0  0  0  0  0
   61.2760   33.1040   48.4480 C   0  0  0  0  0  0  0  0  0  0  0  0
   60.3722   32.8695   49.0295 H   0  0  0  0  0  0  0  0  0  0  0  0
   62.5340   32.9840   49.0460 C   0  0  0  0  0  0  0  0  0  0  0  0
   62.6148   32.6521   50.0916 H   0  0  0  0  0  0  0  0  0  0  0  0
  1  2  1  0
  2  3  1  0
  3  4  2  0
  4  5  1  0
  4  6  1  0
  6  7  1  0
  6  8  2  0
  8  9  1  0
  9 10  1  0
 10 11  1  0
 11 12  2  0
 12 13  1  0
 13 14  1  0
 13 15  1  0
 13 16  1  0
 16 17  2  0
 17 18  1  0
 18 19  2  0
 19 20  1  0
 20 21  1  0
 21 22  1  0
 21 23  1  0
 21 24  1  0
 24 25  2  0
 24 26  1  0
 19 27  1  0
 27 28  1  0
 28 29  1  0
 28 30  1  0
 28 31  1  0
 11 32  1  0
 32 33  1  0
 33 34  1  0
  8 35  1  0
 35 36  1  0
 35 37  2  0
 37 38  1  0
 37  3  1  0
 33  9  2  0
 27 16  1  0
M  CHG  2  10  -1  26  -1
M  END
>  <UniqueID>  (67) 
64

>  <SMILES>  (67) 
Cn1c(C/N=c2/[n-]c(-c3ccc(O)cc3)cs2)nnc1SCC(=O)[O-]

>  <Energy>  (67) 
100.07484464208127

>  <Genealogy>  (67) 
Cn1c(CN=c2[n-]c(-c3ccc(O)cc3)cs2)nnc1SCC(=O)[O-] (protonated)
Cn1c(C/N=c2/[n-]c(-c3ccc(O)cc3)cs2)nnc1SCC(=O)[O-] (cis-trans isomerization)
Cn1c(C/N=c2/[n-]c(-c3ccc(O)cc3)cs2)nnc1SCC(=O)[O-] (3D coordinates assigned)
Cn1c(C/N=c2/[n-]c(-c3ccc(O)cc3)cs2)nnc1SCC(=O)[O-] (optimized conformer: 100.07484464208127 kcal/mol)

>  <smiles>  (67) 
Cn1c(CN=c2[nH]c(-c3ccc(O)cc3)cs2)nnc1SCC(=O)O

>  <score_type>  (67) 
oracle

>  <origin>  (67) 
adg

>  <m_score__min__energy>  (67) 
-12.35

>  <m_primary>  (67) 
energy

$$$$
67:0
     RDKit          3D

 59 61  0  0  0  0  0  0  0  0999 V2000
   65.6460   33.8700   51.2900 C   0  0  0  0  0  0  0  0  0  0  0  0
   66.0980   32.8960   50.2070 C   0  0  0  0  0  0  0  0  0  0  0  0
   64.9940   32.1380   49.7130 O   0  0  0  0  0  0  0  0  0  0  0  0
   63.8890   32.6570   49.0170 C   0  0  0  0  0  0  0  0  0  0  0  0
   62.6020   32.7470   49.5860 C   0  0  0  0  0  0  0  0  0  0  0  0
   61.5390   33.2690   48.8410 C   0  0  0  0  0  0  0  0  0  0  0  0
   61.7450   33.7010   47.5250 C   0  0  0  0  0  0  0  0  0  0  0  0
   60.6530   34.2120   46.7590 N   0  0  0  0  0  0  0  0  0  0  0  0
   59.4140   34.9780   46.9960 C   0  0  0  0  0  0  0  0  0  0  0  0
   58.9380   34.9490   45.5790 C   0  0  0  0  0  0  0  0  0  0  0  0
   57.7730   34.1380   45.4300 O   0  0  0  0  0  0  0  0  0  0  0  0
   57.7790   32.7360   45.4090 C   0  0  0  0  0  0  0  0  0  0  0  0
   58.1460   31.9670   46.5270 C   0  0  0  0  0  0  0  0  0  0  0  0
   58.1410   30.5720   46.4580 C   0  0  0  0  0  0  0  0  0  0  0  0
   57.7550   29.9150   45.2710 C   0  0  0  0  0  0  0  0  0  0  0  0
   57.7680   28.4010   45.1190 C   0  0  2  0  0  0  0  0  0  0  0  0
   58.0530   27.8850   43.7030 C   0  0  0  0  0  0  0  0  0  0  0  0
   56.5240   27.8270   45.6310 N   0  0  0  0  0  0  0  0  0  0  0  0
   56.3000   26.4370   45.8940 C   0  0  0  0  0  0  0  0  0  0  0  0
   55.1260   25.9890   46.0060 O   0  0  0  0  0  0  0  0  0  0  0  0
   57.4240   25.5630   46.0450 N   0  0  0  0  0  0  0  0  0  0  0  0
   57.2850   24.1660   46.4680 C   0  0  0  0  0  0  0  0  0  0  0  0
   56.5670   23.3570   45.3810 C   0  0  0  0  0  0  0  0  0  0  0  0
   56.5130   24.0840   47.7890 C   0  0  0  0  0  0  0  0  0  0  0  0
   57.3890   30.6930   44.1590 C   0  0  0  0  0  0  0  0  0  0  0  0
   57.4050   32.0880   44.2290 C   0  0  0  0  0  0  0  0  0  0  0  0
   60.2050   34.1860   45.3540 C   0  0  0  0  0  0  0  0  0  0  0  0
   63.0210   33.6120   46.9590 C   0  0  0  0  0  0  0  0  0  0  0  0
   64.0840   33.0930   47.7020 C   0  0  0  0  0  0  0  0  0  0  0  0
   65.8473   33.4361   52.2806 H   0  0  0  0  0  0  0  0  0  0  0  0
   66.1970   34.8163   51.1853 H   0  0  0  0  0  0  0  0  0  0  0  0
   64.5676   34.0601   51.1853 H   0  0  0  0  0  0  0  0  0  0  0  0
   66.5465   33.4622   49.3774 H   0  0  0  0  0  0  0  0  0  0  0  0
   66.8345   32.2037   50.6410 H   0  0  0  0  0  0  0  0  0  0  0  0
   62.4333   32.4060   50.6181 H   0  0  0  0  0  0  0  0  0  0  0  0
   60.5377   33.3403   49.2907 H   0  0  0  0  0  0  0  0  0  0  0  0
   58.7252   34.4688   47.6861 H   0  0  0  0  0  0  0  0  0  0  0  0
   59.5176   35.9651   47.4702 H   0  0  0  0  0  0  0  0  0  0  0  0
   58.6455   35.8363   44.9983 H   0  0  0  0  0  0  0  0  0  0  0  0
   58.4389   32.4670   47.4620 H   0  0  0  0  0  0  0  0  0  0  0  0
   58.4404   29.9811   47.3362 H   0  0  0  0  0  0  0  0  0  0  0  0
   58.6243   28.0626   45.7209 H   0  0  0  0  0  0  0  0  0  0  0  0
   58.5840   26.9235   43.7631 H   0  0  0  0  0  0  0  0  0  0  0  0
   57.1035   27.7465   43.1652 H   0  0  0  0  0  0  0  0  0  0  0  0
   58.6759   28.6149   43.1652 H   0  0  0  0  0  0  0  0  0  0  0  0
   58.3750   25.9530   45.8550 H   0  0  0  0  0  0  0  0  0  0  0  0
   58.2878   23.7411   46.6225 H   0  0  0  0  0  0  0  0  0  0  0  0
   55.9074   22.6137   45.8526 H   0  0  0  0  0  0  0  0  0  0  0  0
   55.9676   24.0347   44.7553 H   0  0  0  0  0  0  0  0  0  0  0  0
   57.3110   22.8423   44.7553 H   0  0  0  0  0  0  0  0  0  0  0  0
   57.2174   24.1588   48.6306 H   0  0  0  0  0  0  0  0  0  0  0  0
   55.7888   24.9103   47.8424 H   0  0  0  0  0  0  0  0  0  0  0  0
   55.9786   23.1240   47.8424 H   0  0  0  0  0  0  0  0  0  0  0  0
   57.0869   30.1983   43.2241 H   0  0  0  0  0  0  0  0  0  0  0  0
   57.1207   32.6815   43.3476 H   0  0  0  0  0  0  0  0  0  0  0  0
   60.0265   33.1657   44.9838 H   0  0  0  0  0  0  0  0  0  0  0  0
   60.9005   34.5803   44.5984 H   0  0  0  0  0  0  0  0  0  0  0  0
   63.1879   33.9516   45.9261 H   0  0  0  0  0  0  0  0  0  0  0  0
   65.0841   33.0265   47.2488 H   0  0  0  0  0  0  0  0  0  0  0  0
  1  2  1  0
  2  3  1  0
  3  4  1  0
  4  5  2  0
  5  6  1  0
  6  7  2  0
  7  8  1  0
  8  9  1  0
  9 10  1  0
 10 11  1  0
 11 12  1  0
 12 13  2  0
 13 14  1  0
 14 15  2  0
 15 16  1  0
 16 17  1  0
 16 18  1  0
 18 19  1  0
 19 20  2  0
 19 21  1  0
 21 22  1  0
 22 23  1  0
 22 24  1  0
 15 25  1  0
 25 26  2  0
 10 27  1  0
  7 28  1  0
 28 29  2  0
 29  4  1  0
 27  8  1  0
 26 12  1  0
  1 30  1  0
  1 31  1  0
  1 32  1  0
  2 33  1  0
  2 34  1  0
  5 35  1  0
  6 36  1  0
  9 37  1  0
  9 38  1  0
 10 39  1  0
 13 40  1  0
 14 41  1  0
 16 42  1  1
 17 43  1  0
 17 44  1  0
 17 45  1  0
 21 46  1  0
 22 47  1  0
 23 48  1  0
 23 49  1  0
 23 50  1  0
 24 51  1  0
 24 52  1  0
 24 53  1  0
 25 54  1  0
 26 55  1  0
 27 56  1  0
 27 57  1  0
 28 58  1  0
 29 59  1  0
M  CHG  1  18  -1
M  END
>  <UniqueID>  (68) 
65

>  <SMILES>  (68) 
CCOc1ccc(N2CC(Oc3ccc([C@H](C)[N-]C(=O)NC(C)C)cc3)C2)cc1

>  <Energy>  (68) 
94.66563703724691

>  <Genealogy>  (68) 
CCOc1ccc(N2CC(Oc3ccc(C(C)[N-]C(=O)NC(C)C)cc3)C2)cc1 (protonated)
CCOc1ccc(N2CC(Oc3ccc([C@H](C)[N-]C(=O)NC(C)C)cc3)C2)cc1 (chirality)
CCOc1ccc(N2CC(Oc3ccc([C@H](C)[N-]C(=O)NC(C)C)cc3)C2)cc1 (3D coordinates assigned)
CCOc1ccc(N2CC(Oc3ccc([C@H](C)[N-]C(=O)NC(C)C)cc3)C2)cc1 (nonaromatic ring conformer: 94.66563703724691 kcal/mol)

>  <smiles>  (68) 
CCOc1ccc(N2CC(Oc3ccc(C(C)NC(=O)NC(C)C)cc3)C2)cc1

>  <score_type>  (68) 
oracle

>  <origin>  (68) 
adg

>  <m_score__min__energy>  (68) 
-10.210000000000001

>  <m_primary>  (68) 
energy

$$$$
68:0
     RDKit          3D

 32 34  0  0  0  0  0  0  0  0999 V2000
   55.0460   26.3660   45.9910 N   0  0  0  0  0  0  0  0  0  0  0  0
   56.6390   25.6960   45.9750 S   0  0  0  0  0  0  0  0  0  0  0  0
   56.7370   24.6180   47.0180 O   0  0  0  0  0  0  0  0  0  0  0  0
   56.9180   25.0900   44.6280 O   0  0  0  0  0  0  0  0  0  0  0  0
   57.8140   26.9620   46.3100 C   0  0  0  0  0  0  0  0  0  0  0  0
   58.6430   27.4370   45.2860 C   0  0  0  0  0  0  0  0  0  0  0  0
   59.5970   28.4230   45.5520 C   0  0  0  0  0  0  0  0  0  0  0  0
   59.7320   28.9460   46.8480 C   0  0  0  0  0  0  0  0  0  0  0  0
   60.8380   29.9190   47.1660 C   0  0  0  0  0  0  0  0  0  0  0  0
   60.4560   31.3620   46.8000 C   0  0  0  0  0  0  0  0  0  0  0  0
   59.0020   31.5240   46.7120 N   0  0  0  0  0  0  0  0  0  0  0  0
   58.2790   31.2580   45.6650 C   0  0  0  0  0  0  0  0  0  0  0  0
   57.2600   30.3430   45.7690 N   0  0  0  0  0  0  0  0  0  0  0  0
   56.4940   30.0020   44.6890 C   0  0  0  0  0  0  0  0  0  0  0  0
   55.5670   29.1570   44.7940 O   0  0  0  0  0  0  0  0  0  0  0  0
   56.7820   30.6160   43.4810 C   0  0  0  0  0  0  0  0  0  0  0  0
   56.2300   30.4760   42.2680 N   0  0  0  0  0  0  0  0  0  0  0  0
   56.9180   31.3000   41.5090 O   0  0  0  0  0  0  0  0  0  0  0  0
   57.8660   31.9560   42.1380 N   0  0  0  0  0  0  0  0  0  0  0  0
   57.7730   31.5160   43.3970 C   0  0  0  0  0  0  0  0  0  0  0  0
   58.5360   31.8640   44.4590 N   0  0  0  0  0  0  0  0  0  0  0  0
   58.8840   28.4850   47.8670 C   0  0  0  0  0  0  0  0  0  0  0  0
   57.9290   27.5010   47.5990 C   0  0  0  0  0  0  0  0  0  0  0  0
   55.1540   27.4050   46.0140 H   0  0  0  0  0  0  0  0  0  0  0  0
   58.5428   27.0323   44.2681 H   0  0  0  0  0  0  0  0  0  0  0  0
   60.2448   28.7909   44.7427 H   0  0  0  0  0  0  0  0  0  0  0  0
   61.0547   29.8711   48.2434 H   0  0  0  0  0  0  0  0  0  0  0  0
   61.7196   29.6388   46.5708 H   0  0  0  0  0  0  0  0  0  0  0  0
   60.8459   32.0422   47.5716 H   0  0  0  0  0  0  0  0  0  0  0  0
   60.8907   31.5967   45.8172 H   0  0  0  0  0  0  0  0  0  0  0  0
   58.9717   28.9005   48.8817 H   0  0  0  0  0  0  0  0  0  0  0  0
   57.2652   27.1481   48.4020 H   0  0  0  0  0  0  0  0  0  0  0  0
  1  2  1  0
  2  3  2  0
  2  4  2  0
  2  5  1  0
  5  6  2  0
  6  7  1  0
  7  8  2  0
  8  9  1  0
  9 10  1  0
 10 11  1  0
 11 12  2  3
 12 13  1  0
 13 14  1  0
 14 15  2  0
 14 16  1  0
 16 17  2  0
 17 18  1  0
 18 19  1  0
 19 20  2  0
 20 21  1  0
  8 22  1  0
 22 23  2  0
 23  5  1  0
 21 12  1  0
 20 16  1  0
  1 24  1  0
  6 25  1  0
  7 26  1  0
  9 27  1  0
  9 28  1  0
 10 29  1  0
 10 30  1  0
 22 31  1  0
 23 32  1  0
M  CHG  3   1  -1  13  -1  21  -1
M  END
>  <UniqueID>  (69) 
66

>  <SMILES>  (69) 
[NH-]S(=O)(=O)c1ccc(CCN=c2[n-]c(=O)c3nonc3[n-]2)cc1

>  <Energy>  (69) 
77.65443526223189

>  <Genealogy>  (69) 
[NH-]S(=O)(=O)c1ccc(CCN=c2[n-]c(=O)c3nonc3[n-]2)cc1 (protonated)
[NH-]S(=O)(=O)c1ccc(CCN=c2[n-]c(=O)c3nonc3[n-]2)cc1 (3D coordinates assigned)
[NH-]S(=O)(=O)c1ccc(CCN=c2[n-]c(=O)c3nonc3[n-]2)cc1 (optimized conformer: 77.65443526223189 kcal/mol)

>  <smiles>  (69) 
NS(=O)(=O)c1ccc(CCN=c2[nH]c(=O)c3nonc3[nH]2)cc1

>  <score_type>  (69) 
oracle

>  <origin>  (69) 
adg

>  <m_score__min__energy>  (69) 
-13.15

>  <m_primary>  (69) 
energy

$$$$
69:0
     RDKit          3D

 66 69  0  0  1  0  0  0  0  0999 V2000
   64.6250   32.5200   49.0770 C   0  0  0  0  0  0  0  0  0  0  0  0
   63.3160   33.0460   48.7190 N   0  0  0  0  0  0  0  0  0  0  0  0
   62.2670   32.8890   49.5550 C   0  0  0  0  0  0  0  0  0  0  0  0
   61.0230   33.3800   49.2320 C   0  0  0  0  0  0  0  0  0  0  0  0
   59.9460   33.1380   50.2120 C   0  0  0  0  0  0  0  0  0  0  0  0
   59.5390   34.0290   50.9930 O   0  0  0  0  0  0  0  0  0  0  0  0
   59.3960   31.8290   50.2240 N   0  0  0  0  0  0  0  0  0  0  0  0
   58.3810   31.3610   51.0650 C   0  0  0  0  0  0  0  0  0  0  0  0
   57.4170   32.2830   51.4850 C   0  0  0  0  0  0  0  0  0  0  0  0
   56.3700   31.9350   52.2990 C   0  0  0  0  0  0  0  0  0  0  0  0
   56.2090   30.6230   52.7580 C   0  0  0  0  0  0  0  0  0  0  0  0
   57.1540   29.7220   52.3470 C   0  0  0  0  0  0  0  0  0  0  0  0
   57.0070   28.4030   52.7980 O   0  0  0  0  0  0  0  0  0  0  0  0
   58.2190   30.0860   51.5170 C   0  0  0  0  0  0  0  0  0  0  0  0
   60.8220   34.0340   48.0660 C   0  0  0  0  0  0  0  0  0  0  0  0
   59.6550   34.5170   47.7390 N   0  0  0  0  0  0  0  0  0  0  0  0
   58.9810   33.8280   46.6640 C   0  0  0  0  0  0  0  0  0  0  0  0
   58.9610   34.3150   45.3780 C   0  0  0  0  0  0  0  0  0  0  0  0
   58.2980   33.5380   44.4360 C   0  0  0  0  0  0  0  0  0  0  0  0
   57.6890   32.3500   44.7230 C   0  0  0  0  0  0  0  0  0  0  0  0
   56.9990   31.4750   43.7630 C   0  0  0  0  0  0  0  0  0  0  0  0
   56.9120   30.1080   44.2890 C   0  0  0  0  0  0  0  0  0  0  0  0
   55.9190   29.6150   44.8790 O   0  0  0  0  0  0  0  0  0  0  0  0
   58.0570   29.2750   44.1140 N   0  0  0  0  0  0  0  0  0  0  0  0
   58.1690   27.9190   44.5550 C   0  0  0  0  0  0  0  0  0  0  0  0
   59.0300   27.7940   45.7960 C   0  0  0  0  0  0  0  0  0  0  0  0
   58.3220   28.1680   47.0660 C   0  0  0  0  0  0  0  0  0  0  0  0
   59.3710   28.6980   48.0490 C   0  0  0  0  0  0  0  0  0  0  0  0
   59.8730   29.9890   47.5820 N   0  0  0  0  0  0  0  0  0  0  0  0
   60.1720   29.9730   46.1680 C   0  0  0  0  0  0  0  0  0  0  0  0
   60.2850   28.5960   45.5920 C   0  0  0  0  0  0  0  0  0  0  0  0
   57.7440   31.9120   46.0460 C   0  0  0  0  0  0  0  0  0  0  0  0
   58.3820   32.6320   47.0350 C   0  0  0  0  0  0  0  0  0  0  0  0
   61.8770   34.1890   47.2350 N   0  0  0  0  0  0  0  0  0  0  0  0
   63.0860   33.7030   47.5610 C   0  0  0  0  0  0  0  0  0  0  0  0
   64.1050   33.8280   46.8030 O   0  0  0  0  0  0  0  0  0  0  0  0
   64.7181   32.4826   50.1724 H   0  0  0  0  0  0  0  0  0  0  0  0
   64.7382   31.5065   48.6646 H   0  0  0  0  0  0  0  0  0  0  0  0
   65.4080   33.1733   48.6646 H   0  0  0  0  0  0  0  0  0  0  0  0
   62.4094   32.3603   50.5090 H   0  0  0  0  0  0  0  0  0  0  0  0
   59.8110   31.1530   49.5120 H   0  0  0  0  0  0  0  0  0  0  0  0
   57.5020   33.3271   51.1495 H   0  0  0  0  0  0  0  0  0  0  0  0
   55.6414   32.7032   52.5974 H   0  0  0  0  0  0  0  0  0  0  0  0
   55.3724   30.3328   53.4106 H   0  0  0  0  0  0  0  0  0  0  0  0
   57.3690   28.1120   53.7160 H   0  0  0  0  0  0  0  0  0  0  0  0
   58.9490   29.3187   51.2197 H   0  0  0  0  0  0  0  0  0  0  0  0
   59.4431   35.2667   45.1100 H   0  0  0  0  0  0  0  0  0  0  0  0
   58.2616   33.9011   43.3983 H   0  0  0  0  0  0  0  0  0  0  0  0
   55.9842   31.8605   43.5855 H   0  0  0  0  0  0  0  0  0  0  0  0
   57.5672   31.4598   42.8212 H   0  0  0  0  0  0  0  0  0  0  0  0
   58.9110   29.6780   43.6200 H   0  0  0  0  0  0  0  0  0  0  0  0
   57.1632   27.5349   44.7806 H   0  0  0  0  0  0  0  0  0  0  0  0
   58.6459   27.3390   43.7512 H   0  0  0  0  0  0  0  0  0  0  0  0
   59.2816   26.7315   45.9294 H   0  0  0  0  0  0  0  0  0  0  0  0
   57.5734   28.9476   46.8614 H   0  0  0  0  0  0  0  0  0  0  0  0
   57.8058   27.2939   47.4896 H   0  0  0  0  0  0  0  0  0  0  0  0
   58.9134   28.8206   49.0418 H   0  0  0  0  0  0  0  0  0  0  0  0
   60.2049   27.9836   48.1135 H   0  0  0  0  0  0  0  0  0  0  0  0
   59.1510   30.7060   47.8230 H   0  0  0  0  0  0  0  0  0  0  0  0
   59.3696   30.5065   45.6374 H   0  0  0  0  0  0  0  0  0  0  0  0
   61.1523   30.4556   46.0414 H   0  0  0  0  0  0  0  0  0  0  0  0
   60.4824   28.6778   44.5130 H   0  0  0  0  0  0  0  0  0  0  0  0
   61.1062   28.0783   46.1093 H   0  0  0  0  0  0  0  0  0  0  0  0
   57.2619   30.9592   46.3102 H   0  0  0  0  0  0  0  0  0  0  0  0
   58.4146   32.2732   48.0743 H   0  0  0  0  0  0  0  0  0  0  0  0
   61.7790   34.6840   46.3240 H   0  0  0  0  0  0  0  0  0  0  0  0
  1  2  1  0
  2  3  1  0
  3  4  2  0
  4  5  1  0
  5  6  2  0
  5  7  1  0
  7  8  1  0
  8  9  2  0
  9 10  1  0
 10 11  2  0
 11 12  1  0
 12 13  1  0
 12 14  2  0
  4 15  1  0
 15 16  2  0
 16 17  1  0
 17 18  2  0
 18 19  1  0
 19 20  2  0
 20 21  1  0
 21 22  1  0
 22 23  2  0
 22 24  1  0
 24 25  1  0
 25 26  1  0
 26 27  1  0
 27 28  1  0
 28 29  1  0
 29 30  1  0
 30 31  1  0
 20 32  1  0
 32 33  2  0
 15 34  1  0
 34 35  1  0
 35 36  2  0
 35  2  1  0
 14  8  1  0
 33 17  1  0
 31 26  1  0
  1 37  1  0
  1 38  1  0
  1 39  1  0
  3 40  1  0
  7 41  1  0
  9 42  1  0
 10 43  1  0
 11 44  1  0
 13 45  1  0
 14 46  1  0
 18 47  1  0
 19 48  1  0
 21 49  1  0
 21 50  1  0
 24 51  1  0
 25 52  1  0
 25 53  1  0
 26 54  1  0
 27 55  1  0
 27 56  1  0
 28 57  1  0
 28 58  1  0
 29 59  1  0
 30 60  1  0
 30 61  1  0
 31 62  1  0
 31 63  1  0
 32 64  1  0
 33 65  1  0
 34 66  1  0
M  END
>  <smiles>  (70) 
Cn1cc(C(=O)Nc2cccc(O)c2)c(=Nc2ccc(CC(=O)NCC3CCNCC3)cc2)[nH]c1=O

>  <score_type>  (70) 
oracle

>  <origin>  (70) 
adg

>  <m_score__min__energy>  (70) 
-10.09

>  <m_primary>  (70) 
energy

$$$$
70:0
     RDKit          3D

 51 54  0  0  0  0  0  0  0  0999 V2000
   56.1030   31.9540   51.8720 O   0  0  0  0  0  0  0  0  0  0  0  0
   55.9170   30.7450   52.1700 C   0  0  0  0  0  0  0  0  0  0  0  0
   54.6250   30.3390   52.8250 C   0  0  0  0  0  0  0  0  0  0  0  0
   53.4550   30.6970   51.9500 C   0  0  0  0  0  0  0  0  0  0  0  0
   53.2500   30.0350   50.7270 C   0  0  0  0  0  0  0  0  0  0  0  0
   52.1450   30.3520   49.9310 C   0  0  0  0  0  0  0  0  0  0  0  0
   51.2340   31.3240   50.3530 C   0  0  0  0  0  0  0  0  0  0  0  0
   51.4220   31.9790   51.5730 C   0  0  0  0  0  0  0  0  0  0  0  0
   50.5120   32.9390   51.9940 O   0  0  0  0  0  0  0  0  0  0  0  0
   52.5270   31.6640   52.3730 C   0  0  0  0  0  0  0  0  0  0  0  0
   56.9210   29.7840   51.8160 N   0  0  0  0  0  0  0  0  0  0  0  0
   58.2290   30.0740   51.3030 C   0  0  0  0  0  0  0  0  0  0  0  0
   59.2860   30.2490   52.2020 C   0  0  0  0  0  0  0  0  0  0  0  0
   60.5780   30.5080   51.7330 C   0  0  0  0  0  0  0  0  0  0  0  0
   60.8310   30.5720   50.3550 C   0  0  0  0  0  0  0  0  0  0  0  0
   62.2190   30.8740   49.8570 C   0  0  0  0  0  0  0  0  0  0  0  0
   62.5880   32.2690   50.1840 N   0  0  0  0  0  0  0  0  0  0  0  0
   63.6450   32.7960   49.3000 C   0  0  0  0  0  0  0  0  0  0  0  0
   63.1850   32.8950   47.8370 C   0  0  0  0  0  0  0  0  0  0  0  0
   61.8000   33.4740   47.7110 C   0  0  0  0  0  0  0  0  0  0  0  0
   61.3350   33.8670   46.4450 C   0  0  0  0  0  0  0  0  0  0  0  0
   60.0340   34.3550   46.2880 C   0  0  0  0  0  0  0  0  0  0  0  0
   59.5940   34.7450   45.0250 O   0  0  0  0  0  0  0  0  0  0  0  0
   59.1860   34.4460   47.3980 C   0  0  0  0  0  0  0  0  0  0  0  0
   59.6360   34.0470   48.6600 C   0  0  0  0  0  0  0  0  0  0  0  0
   60.9350   33.5430   48.8220 C   0  0  0  0  0  0  0  0  0  0  0  0
   61.4210   33.1770   50.2060 C   0  0  0  0  0  0  0  0  0  0  0  0
   59.7750   30.3710   49.4510 C   0  0  0  0  0  0  0  0  0  0  0  0
   58.4840   30.1130   49.9220 C   0  0  0  0  0  0  0  0  0  0  0  0
   54.6310   29.2521   52.9944 H   0  0  0  0  0  0  0  0  0  0  0  0
   54.5290   30.8718   53.7826 H   0  0  0  0  0  0  0  0  0  0  0  0
   53.9616   29.2647   50.3949 H   0  0  0  0  0  0  0  0  0  0  0  0
   51.9927   29.8358   48.9717 H   0  0  0  0  0  0  0  0  0  0  0  0
   50.3672   31.5740   49.7236 H   0  0  0  0  0  0  0  0  0  0  0  0
   52.6694   32.1754   53.3364 H   0  0  0  0  0  0  0  0  0  0  0  0
   59.1002   30.1826   53.2842 H   0  0  0  0  0  0  0  0  0  0  0  0
   61.3994   30.6622   52.4482 H   0  0  0  0  0  0  0  0  0  0  0  0
   62.9336   30.1878   50.3349 H   0  0  0  0  0  0  0  0  0  0  0  0
   62.2445   30.7430   48.7651 H   0  0  0  0  0  0  0  0  0  0  0  0
   63.9313   33.7989   49.6496 H   0  0  0  0  0  0  0  0  0  0  0  0
   64.4954   32.0994   49.3393 H   0  0  0  0  0  0  0  0  0  0  0  0
   63.8885   33.5380   47.2877 H   0  0  0  0  0  0  0  0  0  0  0  0
   63.1631   31.8767   47.4215 H   0  0  0  0  0  0  0  0  0  0  0  0
   61.9988   33.7903   45.5712 H   0  0  0  0  0  0  0  0  0  0  0  0
   58.7230   34.4010   44.6390 H   0  0  0  0  0  0  0  0  0  0  0  0
   58.1632   34.8323   47.2770 H   0  0  0  0  0  0  0  0  0  0  0  0
   58.9682   34.1287   49.5302 H   0  0  0  0  0  0  0  0  0  0  0  0
   61.7038   34.0995   50.7342 H   0  0  0  0  0  0  0  0  0  0  0  0
   60.6012   32.6491   50.7152 H   0  0  0  0  0  0  0  0  0  0  0  0
   59.9643   30.4167   48.3684 H   0  0  0  0  0  0  0  0  0  0  0  0
   57.6649   29.9399   49.2085 H   0  0  0  0  0  0  0  0  0  0  0  0
  1  2  2  0
  2  3  1  0
  3  4  1  0
  4  5  2  0
  5  6  1  0
  6  7  2  0
  7  8  1  0
  8  9  1  0
  8 10  2  0
  2 11  1  0
 11 12  1  0
 12 13  2  0
 13 14  1  0
 14 15  2  0
 15 16  1  0
 16 17  1  0
 17 18  1  0
 18 19  1  0
 19 20  1  0
 20 21  2  0
 21 22  1  0
 22 23  1  0
 22 24  2  0
 24 25  1  0
 25 26  2  0
 26 27  1  0
 15 28  1  0
 28 29  2  0
 10  4  1  0
 29 12  1  0
 27 17  1  0
 26 20  1  0
  3 30  1  0
  3 31  1  0
  5 32  1  0
  6 33  1  0
  7 34  1  0
 10 35  1  0
 13 36  1  0
 14 37  1  0
 16 38  1  0
 16 39  1  0
 18 40  1  0
 18 41  1  0
 19 42  1  0
 19 43  1  0
 21 44  1  0
 23 45  1  0
 24 46  1  0
 25 47  1  0
 27 48  1  0
 27 49  1  0
 28 50  1  0
 29 51  1  0
M  CHG  2   9  -1  11  -1
M  END
>  <UniqueID>  (71) 
67

>  <SMILES>  (71) 
O=C(Cc1cccc([O-])c1)[N-]c1ccc(CN2CCc3cc(O)ccc3C2)cc1

>  <Energy>  (71) 
63.589574300199374

>  <Genealogy>  (71) 
O=C(Cc1cccc([O-])c1)[N-]c1ccc(CN2CCc3cc(O)ccc3C2)cc1 (protonated)
O=C(Cc1cccc([O-])c1)[N-]c1ccc(CN2CCc3cc(O)ccc3C2)cc1 (3D coordinates assigned)
O=C(Cc1cccc([O-])c1)[N-]c1ccc(CN2CCc3cc(O)ccc3C2)cc1 (nonaromatic ring conformer: 63.589574300199374 kcal/mol)

>  <smiles>  (71) 
O=C(Cc1cccc(O)c1)Nc1ccc(CN2CCc3cc(O)ccc3C2)cc1

>  <score_type>  (71) 
oracle

>  <origin>  (71) 
adg

>  <m_score__min__energy>  (71) 
-13.42

>  <m_primary>  (71) 
energy

$$$$
71:0
     RDKit          3D

 58 61  0  0  0  0  0  0  0  0999 V2000
   63.5910   33.9290   47.9340 C   0  0  0  0  0  0  0  0  0  0  0  0
   62.1340   33.9600   47.7130 N   0  0  0  0  0  0  0  0  0  0  0  0
   61.4360   33.2820   48.8290 C   0  0  0  0  0  0  0  0  0  0  0  0
   60.0860   33.9330   49.1990 C   0  0  0  0  0  0  0  0  0  0  0  0
   58.9400   33.6620   48.1970 C   0  0  0  0  0  0  0  0  0  0  0  0
   59.3980   32.9340   47.0010 N   0  0  0  0  0  0  0  0  0  0  0  0
   59.0340   31.5510   46.8150 C   0  0  0  0  0  0  0  0  0  0  0  0
   59.3970   30.5850   47.7700 C   0  0  0  0  0  0  0  0  0  0  0  0
   59.0120   29.2510   47.6080 C   0  0  0  0  0  0  0  0  0  0  0  0
   58.2490   28.8500   46.4910 C   0  0  0  0  0  0  0  0  0  0  0  0
   57.8070   27.4330   46.3740 C   0  0  0  0  0  0  0  0  0  0  0  0
   57.7530   26.7240   47.4210 O   0  0  0  0  0  0  0  0  0  0  0  0
   57.4190   26.8600   45.1040 N   0  0  0  0  0  0  0  0  0  0  0  0
   56.7420   25.5970   45.0120 C   0  0  0  0  0  0  0  0  0  0  0  0
   57.3870   24.4800   44.4720 C   0  0  0  0  0  0  0  0  0  0  0  0
   56.7230   23.2540   44.3980 C   0  0  0  0  0  0  0  0  0  0  0  0
   55.4080   23.1380   44.8460 C   0  0  0  0  0  0  0  0  0  0  0  0
   54.7330   24.2530   45.3480 C   0  0  0  0  0  0  0  0  0  0  0  0
   53.3930   24.0820   45.8330 N   0  0  0  0  0  0  0  0  0  0  0  0
   52.9470   23.0180   46.6850 C   0  0  0  0  0  0  0  0  0  0  0  0
   53.3720   22.9380   47.8700 O   0  0  0  0  0  0  0  0  0  0  0  0
   51.9920   22.0120   46.1820 C   0  0  0  0  0  0  0  0  0  0  0  0
   51.7190   20.8400   46.9020 C   0  0  0  0  0  0  0  0  0  0  0  0
   50.7800   19.9310   46.4040 C   0  0  0  0  0  0  0  0  0  0  0  0
   50.1220   20.1970   45.2050 C   0  0  0  0  0  0  0  0  0  0  0  0
   50.4240   21.3680   44.5080 C   0  0  0  0  0  0  0  0  0  0  0  0
   51.3390   22.2400   45.0070 N   0  0  0  0  0  0  0  0  0  0  0  0
   55.4150   25.4850   45.4510 C   0  0  0  0  0  0  0  0  0  0  0  0
   54.8010   26.5860   46.0340 O   0  0  0  0  0  0  0  0  0  0  0  0
   57.8790   29.8260   45.5410 C   0  0  0  0  0  0  0  0  0  0  0  0
   58.2760   31.1560   45.6980 C   0  0  0  0  0  0  0  0  0  0  0  0
   60.2740   33.5810   46.0060 C   0  0  0  0  0  0  0  0  0  0  0  0
   61.7780   33.4840   46.3510 C   0  0  0  0  0  0  0  0  0  0  0  0
   63.7980   33.9246   49.0143 H   0  0  0  0  0  0  0  0  0  0  0  0
   64.0121   33.0217   47.4763 H   0  0  0  0  0  0  0  0  0  0  0  0
   64.0503   34.8176   47.4763 H   0  0  0  0  0  0  0  0  0  0  0  0
   61.2507   32.2370   48.5398 H   0  0  0  0  0  0  0  0  0  0  0  0
   62.0861   33.3621   49.7127 H   0  0  0  0  0  0  0  0  0  0  0  0
   59.7787   33.5484   50.1827 H   0  0  0  0  0  0  0  0  0  0  0  0
   60.2537   35.0201   49.1915 H   0  0  0  0  0  0  0  0  0  0  0  0
   58.1659   33.0635   48.6996 H   0  0  0  0  0  0  0  0  0  0  0  0
   58.5473   34.6349   47.8666 H   0  0  0  0  0  0  0  0  0  0  0  0
   59.9874   30.8807   48.6498 H   0  0  0  0  0  0  0  0  0  0  0  0
   59.3074   28.5049   48.3604 H   0  0  0  0  0  0  0  0  0  0  0  0
   57.4830   27.4210   44.2270 H   0  0  0  0  0  0  0  0  0  0  0  0
   58.4201   24.5674   44.1046 H   0  0  0  0  0  0  0  0  0  0  0  0
   57.2399   22.3756   43.9843 H   0  0  0  0  0  0  0  0  0  0  0  0
   54.8995   22.1635   44.8039 H   0  0  0  0  0  0  0  0  0  0  0  0
   52.2388   20.6374   47.8500 H   0  0  0  0  0  0  0  0  0  0  0  0
   50.5611   19.0066   46.9586 H   0  0  0  0  0  0  0  0  0  0  0  0
   49.3737   19.4928   44.8125 H   0  0  0  0  0  0  0  0  0  0  0  0
   49.9210   21.5851   43.5541 H   0  0  0  0  0  0  0  0  0  0  0  0
   57.2730   29.5369   44.6697 H   0  0  0  0  0  0  0  0  0  0  0  0
   57.9930   31.9018   44.9406 H   0  0  0  0  0  0  0  0  0  0  0  0
   60.1088   33.0989   45.0312 H   0  0  0  0  0  0  0  0  0  0  0  0
   60.0138   34.6497   45.9930 H   0  0  0  0  0  0  0  0  0  0  0  0
   62.0819   32.4303   46.2659 H   0  0  0  0  0  0  0  0  0  0  0  0
   62.3024   34.1438   45.6441 H   0  0  0  0  0  0  0  0  0  0  0  0
  1  2  1  0
  2  3  1  0
  3  4  1  0
  4  5  1  0
  5  6  1  0
  6  7  1  0
  7  8  2  0
  8  9  1  0
  9 10  2  0
 10 11  1  0
 11 12  2  0
 11 13  1  0
 13 14  1  0
 14 15  2  0
 15 16  1  0
 16 17  2  0
 17 18  1  0
 18 19  1  0
 19 20  1  0
 20 21  2  0
 20 22  1  0
 22 23  2  0
 23 24  1  0
 24 25  2  0
 25 26  1  0
 26 27  2  0
 18 28  2  0
 28 29  1  0
 10 30  1  0
 30 31  2  0
  6 32  1  0
 32 33  1  0
 33  2  1  0
 31  7  1  0
 28 14  1  0
 27 22  1  0
  1 34  1  0
  1 35  1  0
  1 36  1  0
  3 37  1  0
  3 38  1  0
  4 39  1  0
  4 40  1  0
  5 41  1  0
  5 42  1  0
  8 43  1  0
  9 44  1  0
 13 45  1  0
 15 46  1  0
 16 47  1  0
 17 48  1  0
 23 49  1  0
 24 50  1  0
 25 51  1  0
 26 52  1  0
 30 53  1  0
 31 54  1  0
 32 55  1  0
 32 56  1  0
 33 57  1  0
 33 58  1  0
M  CHG  2  19  -1  29  -1
M  END
>  <UniqueID>  (72) 
68

>  <SMILES>  (72) 
CN1CCCN(c2ccc(C(=O)Nc3cccc([N-]C(=O)c4ccccn4)c3[O-])cc2)CC1

>  <Energy>  (72) 
91.82560681211332

>  <Genealogy>  (72) 
CN1CCCN(c2ccc(C(=O)Nc3cccc([N-]C(=O)c4ccccn4)c3[O-])cc2)CC1 (protonated)
CN1CCCN(c2ccc(C(=O)Nc3cccc([N-]C(=O)c4ccccn4)c3[O-])cc2)CC1 (3D coordinates assigned)
CN1CCCN(c2ccc(C(=O)Nc3cccc([N-]C(=O)c4ccccn4)c3[O-])cc2)CC1 (nonaromatic ring conformer: 91.82560681211332 kcal/mol)

>  <smiles>  (72) 
CN1CCCN(c2ccc(C(=O)Nc3cccc(NC(=O)c4ccccn4)c3O)cc2)CC1

>  <score_type>  (72) 
oracle

>  <origin>  (72) 
adg

>  <m_score__min__energy>  (72) 
-11.140000000000001

>  <m_primary>  (72) 
energy

$$$$
72:0
     RDKit          3D

 47 50  0  0  0  0  0  0  0  0999 V2000
   57.7440   29.5440   43.5230 O   0  0  0  0  0  0  0  0  0  0  0  0
   56.9530   29.9240   44.4260 C   0  0  0  0  0  0  0  0  0  0  0  0
   56.5980   31.3080   44.5040 N   0  0  0  0  0  0  0  0  0  0  0  0
   57.3980   32.3380   45.1050 C   0  0  0  0  0  0  0  0  0  0  0  0
   57.7780   33.4900   44.3900 C   0  0  0  0  0  0  0  0  0  0  0  0
   58.5580   34.4730   45.0030 C   0  0  0  0  0  0  0  0  0  0  0  0
   58.9440   34.3280   46.3380 C   0  0  0  0  0  0  0  0  0  0  0  0
   58.5410   33.2050   47.0630 C   0  0  0  0  0  0  0  0  0  0  0  0
   57.7650   32.2160   46.4510 C   0  0  0  0  0  0  0  0  0  0  0  0
   56.3480   28.9630   45.3040 N   0  0  0  0  0  0  0  0  0  0  0  0
   57.0010   27.7760   45.7830 C   0  0  0  0  0  0  0  0  0  0  0  0
   56.2930   26.5640   45.7970 C   0  0  0  0  0  0  0  0  0  0  0  0
   56.8710   25.4090   46.3290 C   0  0  0  0  0  0  0  0  0  0  0  0
   58.1560   25.4560   46.8700 C   0  0  0  0  0  0  0  0  0  0  0  0
   58.8700   26.6620   46.8790 C   0  0  0  0  0  0  0  0  0  0  0  0
   60.1410   26.7280   47.4560 O   0  0  0  0  0  0  0  0  0  0  0  0
   60.5120   27.6930   48.4070 C   0  0  0  0  0  0  0  0  0  0  0  0
   60.7210   27.2950   49.7270 C   0  0  0  0  0  0  0  0  0  0  0  0
   61.1170   28.2360   50.6770 C   0  0  0  0  0  0  0  0  0  0  0  0
   61.3140   29.5300   50.3130 N   0  0  0  0  0  0  0  0  0  0  0  0
   61.1440   29.9600   49.0340 C   0  0  0  0  0  0  0  0  0  0  0  0
   61.3560   31.2210   48.7700 N   0  0  0  0  0  0  0  0  0  0  0  0
   61.8600   31.8100   47.5620 C   0  0  0  0  0  0  0  0  0  0  0  0
   61.0980   31.8650   46.5590 O   0  0  0  0  0  0  0  0  0  0  0  0
   63.2230   32.4680   47.5220 C   0  0  0  0  0  0  0  0  0  0  0  0
   63.2890   33.7300   46.6740 C   0  0  0  0  0  0  0  0  0  0  0  0
   63.3540   33.8330   48.1880 C   0  0  0  0  0  0  0  0  0  0  0  0
   60.7100   29.0400   48.0590 C   0  0  0  0  0  0  0  0  0  0  0  0
   58.3000   27.8140   46.3250 C   0  0  0  0  0  0  0  0  0  0  0  0
   57.4593   33.6162   43.3448 H   0  0  0  0  0  0  0  0  0  0  0  0
   58.8687   35.3620   44.4345 H   0  0  0  0  0  0  0  0  0  0  0  0
   59.5653   35.0986   46.8177 H   0  0  0  0  0  0  0  0  0  0  0  0
   58.8345   33.0981   48.1177 H   0  0  0  0  0  0  0  0  0  0  0  0
   57.4413   31.3381   47.0294 H   0  0  0  0  0  0  0  0  0  0  0  0
   55.3790   29.1610   45.6360 H   0  0  0  0  0  0  0  0  0  0  0  0
   55.2738   26.5234   45.3853 H   0  0  0  0  0  0  0  0  0  0  0  0
   56.3124   24.4614   46.3214 H   0  0  0  0  0  0  0  0  0  0  0  0
   58.6092   24.5459   47.2898 H   0  0  0  0  0  0  0  0  0  0  0  0
   60.5743   26.2442   50.0174 H   0  0  0  0  0  0  0  0  0  0  0  0
   61.2701   27.9301   51.7225 H   0  0  0  0  0  0  0  0  0  0  0  0
   63.7862   31.5256   47.5906 H   0  0  0  0  0  0  0  0  0  0  0  0
   64.1840   33.9400   46.0700 H   0  0  0  0  0  0  0  0  0  0  0  0
   62.6560   34.1742   45.8917 H   0  0  0  0  0  0  0  0  0  0  0  0
   64.2960   34.1168   48.6800 H   0  0  0  0  0  0  0  0  0  0  0  0
   62.7880   34.3816   48.9553 H   0  0  0  0  0  0  0  0  0  0  0  0
   60.5266   29.3755   47.0276 H   0  0  0  0  0  0  0  0  0  0  0  0
   58.8702   28.7546   46.3129 H   0  0  0  0  0  0  0  0  0  0  0  0
  1  2  2  0
  2  3  1  0
  3  4  1  0
  4  5  2  0
  5  6  1  0
  6  7  2  0
  7  8  1  0
  8  9  2  0
  2 10  1  0
 10 11  1  0
 11 12  2  0
 12 13  1  0
 13 14  2  0
 14 15  1  0
 15 16  1  0
 16 17  1  0
 17 18  1  0
 18 19  2  0
 19 20  1  0
 20 21  1  0
 21 22  2  3
 22 23  1  0
 23 24  2  0
 23 25  1  0
 25 26  1  0
 26 27  1  0
 21 28  1  0
 15 29  2  0
  9  4  1  0
 29 11  1  0
 28 17  2  0
 27 25  1  0
  5 30  1  0
  6 31  1  0
  7 32  1  0
  8 33  1  0
  9 34  1  0
 10 35  1  0
 12 36  1  0
 13 37  1  0
 14 38  1  0
 18 39  1  0
 19 40  1  0
 25 41  1  0
 26 42  1  0
 26 43  1  0
 27 44  1  0
 27 45  1  0
 28 46  1  0
 29 47  1  0
M  CHG  2   3  -1  20  -1
M  END
>  <UniqueID>  (73) 
69

>  <SMILES>  (73) 
O=C([N-]c1ccccc1)Nc1cccc(Oc2cc[n-]c(=NC(=O)C3CC3)c2)c1

>  <Energy>  (73) 
337.81194581961836

>  <Genealogy>  (73) 
O=C([N-]c1ccccc1)Nc1cccc(Oc2cc[n-]c(=NC(=O)C3CC3)c2)c1 (protonated)
O=C([N-]c1ccccc1)Nc1cccc(Oc2cc[n-]c(=NC(=O)C3CC3)c2)c1 (3D coordinates assigned)
O=C([N-]c1ccccc1)Nc1cccc(Oc2cc[n-]c(=NC(=O)C3CC3)c2)c1 (nonaromatic ring conformer: 337.81194581961836 kcal/mol)

>  <smiles>  (73) 
O=C(Nc1ccccc1)Nc1cccc(Oc2cc[nH]c(=NC(=O)C3CC3)c2)c1

>  <score_type>  (73) 
oracle

>  <origin>  (73) 
adg

>  <m_score__min__energy>  (73) 
-11.880000000000001

>  <m_primary>  (73) 
energy

$$$$
73:0
     RDKit          3D

 46 48  0  0  0  0  0  0  0  0999 V2000
   58.4150   28.8976   50.4227 H   0  0  0  0  0  0  0  0  0  0  0  0
   58.4300   29.9270   50.8100 C   0  0  0  0  0  0  0  0  0  0  0  0
   58.3620   30.1540   52.1870 C   0  0  0  0  0  0  0  0  0  0  0  0
   58.2726   29.3022   52.8773 H   0  0  0  0  0  0  0  0  0  0  0  0
   58.4070   31.4630   52.6960 C   0  0  0  0  0  0  0  0  0  0  0  0
   58.3310   31.6950   54.1790 C   0  0  0  0  0  0  0  0  0  0  0  0
   58.6310   30.7791   54.7093 H   0  0  0  0  0  0  0  0  0  0  0  0
   59.0067   32.5174   54.4566 H   0  0  0  0  0  0  0  0  0  0  0  0
   57.2997   31.9582   54.4566 H   0  0  0  0  0  0  0  0  0  0  0  0
   58.5190   32.5450   51.8000 C   0  0  0  0  0  0  0  0  0  0  0  0
   58.5900   34.2080   52.3740 Cl  0  0  0  0  0  0  0  0  0  0  0  0
   58.5840   32.3080   50.4220 C   0  0  0  0  0  0  0  0  0  0  0  0
   58.6886   33.1540   49.7268 H   0  0  0  0  0  0  0  0  0  0  0  0
   58.5170   31.0040   49.9230 C   0  0  0  0  0  0  0  0  0  0  0  0
   58.6160   30.7730   48.5130 N   0  0  0  0  0  0  0  0  0  0  0  0
   59.1170   31.5960   47.6330 C   0  0  0  0  0  0  0  0  0  0  0  0
   60.8380   31.3770   47.1690 S   0  0  0  0  0  0  0  0  0  0  0  0
   60.5380   29.9800   46.0290 C   0  0  0  0  0  0  0  0  0  0  0  0
   59.8189   30.2958   45.2588 H   0  0  0  0  0  0  0  0  0  0  0  0
   61.4983   29.6933   45.5756 H   0  0  0  0  0  0  0  0  0  0  0  0
   59.9810   28.7780   46.7570 C   0  0  0  0  0  0  0  0  0  0  0  0
   60.7620   28.1710   47.7510 C   0  0  0  0  0  0  0  0  0  0  0  0
   61.7514   28.5803   48.0031 H   0  0  0  0  0  0  0  0  0  0  0  0
   60.2780   27.0450   48.4190 C   0  0  0  0  0  0  0  0  0  0  0  0
   60.9770   26.4940   49.3090 O   0  0  0  0  0  0  0  0  0  0  0  0
   59.0850   26.5480   48.1210 O   0  0  0  0  0  0  0  0  0  0  0  0
   58.2970   27.0800   47.1930 C   0  0  0  0  0  0  0  0  0  0  0  0
   57.0520   26.4960   46.9340 C   0  0  0  0  0  0  0  0  0  0  0  0
   56.7363   25.6068   47.4994 H   0  0  0  0  0  0  0  0  0  0  0  0
   56.2090   27.0360   45.9620 C   0  0  0  0  0  0  0  0  0  0  0  0
   54.9760   26.4480   45.7090 O   0  0  0  0  0  0  0  0  0  0  0  0
   56.6060   28.1630   45.2410 C   0  0  0  0  0  0  0  0  0  0  0  0
   55.9409   28.5830   44.4721 H   0  0  0  0  0  0  0  0  0  0  0  0
   57.8450   28.7610   45.4910 C   0  0  0  0  0  0  0  0  0  0  0  0
   58.1456   29.6541   44.9235 H   0  0  0  0  0  0  0  0  0  0  0  0
   58.7110   28.2260   46.4660 C   0  0  0  0  0  0  0  0  0  0  0  0
   58.3570   32.7750   47.0530 C   0  0  1  0  0  0  0  0  0  0  0  0
   57.3995   32.8826   47.5836 H   0  0  0  0  0  0  0  0  0  0  0  0
   59.1090   34.0200   47.2770 C   0  0  0  0  0  0  0  0  0  0  0  0
   59.6990   35.0000   47.4540 N   0  0  0  0  0  0  0  0  0  0  0  0
   57.9740   32.5400   45.6010 C   0  0  0  0  0  0  0  0  0  0  0  0
   57.2090   31.6250   45.3370 O   0  0  0  0  0  0  0  0  0  0  0  0
   58.4420   33.4180   44.4690 C   0  0  0  0  0  0  0  0  0  0  0  0
   58.9223   34.3190   44.8783 H   0  0  0  0  0  0  0  0  0  0  0  0
   59.1652   32.8654   43.8513 H   0  0  0  0  0  0  0  0  0  0  0  0
   57.5801   33.7104   43.8513 H   0  0  0  0  0  0  0  0  0  0  0  0
  1  2  1  0
  2  3  2  0
  3  4  1  0
  3  5  1  0
  5  6  1  0
  6  7  1  0
  6  8  1  0
  6  9  1  0
  5 10  2  0
 10 11  1  0
 10 12  1  0
 12 13  1  0
 12 14  2  0
 14 15  1  0
 15 16  2  0
 16 17  1  0
 17 18  1  0
 18 19  1  0
 18 20  1  0
 18 21  1  0
 21 22  2  0
 22 23  1  0
 22 24  1  0
 24 25  2  0
 24 26  1  0
 26 27  1  0
 27 28  2  0
 28 29  1  0
 28 30  1  0
 30 31  1  0
 30 32  2  0
 32 33  1  0
 32 34  1  0
 34 35  1  0
 34 36  2  0
 16 37  1  0
 37 38  1  1
 37 39  1  0
 39 40  3  0
 37 41  1  0
 41 42  2  0
 41 43  1  0
 43 44  1  0
 43 45  1  0
 43 46  1  0
 14  2  1  0
 36 21  1  0
 36 27  1  0
M  CHG  1  31  -1
M  END
>  <UniqueID>  (74) 
70

>  <SMILES>  (74) 
CC(=O)[C@H](C#N)/C(=N\c1ccc(C)c(Cl)c1)SCc1cc(=O)oc2cc([O-])ccc12

>  <Energy>  (74) 
55.84278257412184

>  <Genealogy>  (74) 
CC(=O)C(C#N)C(=Nc1ccc(C)c(Cl)c1)SCc1cc(=O)oc2cc([O-])ccc12 (protonated)
CC(=O)[C@H](C#N)C(=Nc1ccc(C)c(Cl)c1)SCc1cc(=O)oc2cc([O-])ccc12 (chirality)
CC(=O)[C@H](C#N)/C(=N\c1ccc(C)c(Cl)c1)SCc1cc(=O)oc2cc([O-])ccc12 (cis-trans isomerization)
CC(=O)[C@H](C#N)/C(=N\c1ccc(C)c(Cl)c1)SCc1cc(=O)oc2cc([O-])ccc12 (3D coordinates assigned)
CC(=O)[C@H](C#N)/C(=N\c1ccc(C)c(Cl)c1)SCc1cc(=O)oc2cc([O-])ccc12 (optimized conformer: 55.84278257412184 kcal/mol)

>  <smiles>  (74) 
CC(=O)C(C#N)C(=Nc1ccc(C)c(Cl)c1)SCc1cc(=O)oc2cc(O)ccc12

>  <score_type>  (74) 
oracle

>  <origin>  (74) 
adg

>  <m_score__min__energy>  (74) 
-11.27

>  <m_primary>  (74) 
energy

$$$$
74:0
     RDKit          3D

 67 69  0  0  0  0  0  0  0  0999 V2000
   63.7700   33.7240   50.2290 C   0  0  0  0  0  0  0  0  0  0  0  0
   62.6200   34.5250   49.5910 C   0  0  0  0  0  0  0  0  0  0  0  0
   61.6050   33.7180   48.8570 N   0  0  1  0  0  0  0  0  0  0  0  0
   60.2340   33.7600   49.4350 C   0  0  0  0  0  0  0  0  0  0  0  0
   59.7380   32.4310   50.0370 C   0  0  0  0  0  0  0  0  0  0  0  0
   60.8620   31.6600   50.5740 N   0  0  0  0  0  0  0  0  0  0  0  0
   61.5180   30.5690   49.3840 S   0  0  0  0  0  0  0  0  0  0  0  0
   61.8860   29.2750   50.0540 O   0  0  0  0  0  0  0  0  0  0  0  0
   62.7590   31.1640   48.7790 O   0  0  0  0  0  0  0  0  0  0  0  0
   60.3270   30.2380   48.1260 C   0  0  0  0  0  0  0  0  0  0  0  0
   59.1410   29.5500   48.4270 C   0  0  0  0  0  0  0  0  0  0  0  0
   58.2490   29.2100   47.4070 C   0  0  0  0  0  0  0  0  0  0  0  0
   58.5320   29.5590   46.0790 C   0  0  0  0  0  0  0  0  0  0  0  0
   57.4490   29.0800   44.7750 S   0  0  0  0  0  0  0  0  0  0  0  0
   57.7630   29.9210   43.5680 O   0  0  0  0  0  0  0  0  0  0  0  0
   56.0210   29.3290   45.1740 O   0  0  0  0  0  0  0  0  0  0  0  0
   57.6900   27.3840   44.4160 N   0  0  0  0  0  0  0  0  0  0  0  0
   58.2110   27.2540   43.0480 C   0  0  0  0  0  0  0  0  0  0  0  0
   58.6300   26.7810   45.3800 C   0  0  0  0  0  0  0  0  0  0  0  0
   58.0600   25.5060   45.9480 C   0  0  0  0  0  0  0  0  0  0  0  0
   57.1410   25.5580   47.0090 C   0  0  0  0  0  0  0  0  0  0  0  0
   56.6060   24.3770   47.5370 C   0  0  0  0  0  0  0  0  0  0  0  0
   56.9750   23.1410   47.0000 C   0  0  0  0  0  0  0  0  0  0  0  0
   57.8770   23.0820   45.9340 C   0  0  0  0  0  0  0  0  0  0  0  0
   58.4160   24.2600   45.4060 C   0  0  0  0  0  0  0  0  0  0  0  0
   59.7110   30.2540   45.7810 C   0  0  0  0  0  0  0  0  0  0  0  0
   60.6050   30.5920   46.8000 C   0  0  0  0  0  0  0  0  0  0  0  0
   61.6160   33.9210   47.4160 C   0  0  0  0  0  0  0  0  0  0  0  0
   62.4930   33.4180   46.7250 O   0  0  0  0  0  0  0  0  0  0  0  0
   60.5740   34.8020   46.7660 C   0  0  0  0  0  0  0  0  0  0  0  0
   59.4490   33.9940   46.1700 C   0  0  0  0  0  0  0  0  0  0  0  0
   58.4550   33.4450   46.9970 C   0  0  0  0  0  0  0  0  0  0  0  0
   57.3880   32.7340   46.4390 C   0  0  0  0  0  0  0  0  0  0  0  0
   57.2990   32.5780   45.0520 C   0  0  0  0  0  0  0  0  0  0  0  0
   56.2580   31.8950   44.5120 F   0  0  0  0  0  0  0  0  0  0  0  0
   58.2790   33.1320   44.2220 C   0  0  0  0  0  0  0  0  0  0  0  0
   59.3490   33.8410   44.7770 C   0  0  0  0  0  0  0  0  0  0  0  0
   63.6912   33.7789   51.3248 H   0  0  0  0  0  0  0  0  0  0  0  0
   63.7068   32.6735   49.9090 H   0  0  0  0  0  0  0  0  0  0  0  0
   64.7335   34.1475   49.9090 H   0  0  0  0  0  0  0  0  0  0  0  0
   62.1025   35.0719   50.3929 H   0  0  0  0  0  0  0  0  0  0  0  0
   63.0878   35.1774   48.8390 H   0  0  0  0  0  0  0  0  0  0  0  0
   61.9010   32.7230   49.0050 H   0  0  0  0  0  0  0  0  0  0  0  0
   60.2225   34.5198   50.2303 H   0  0  0  0  0  0  0  0  0  0  0  0
   59.5561   33.9902   48.5998 H   0  0  0  0  0  0  0  0  0  0  0  0
   59.0253   32.6443   50.8473 H   0  0  0  0  0  0  0  0  0  0  0  0
   59.2486   31.8430   49.2466 H   0  0  0  0  0  0  0  0  0  0  0  0
   58.9135   29.2780   49.4683 H   0  0  0  0  0  0  0  0  0  0  0  0
   57.3226   28.6673   47.6464 H   0  0  0  0  0  0  0  0  0  0  0  0
   59.2777   26.9878   43.0856 H   0  0  0  0  0  0  0  0  0  0  0  0
   57.6552   26.4670   42.5172 H   0  0  0  0  0  0  0  0  0  0  0  0
   58.0901   28.2099   42.5172 H   0  0  0  0  0  0  0  0  0  0  0  0
   59.5782   26.5574   44.8692 H   0  0  0  0  0  0  0  0  0  0  0  0
   58.8000   27.4915   46.2024 H   0  0  0  0  0  0  0  0  0  0  0  0
   56.8406   26.5303   47.4266 H   0  0  0  0  0  0  0  0  0  0  0  0
   55.8948   24.4221   48.3750 H   0  0  0  0  0  0  0  0  0  0  0  0
   56.5552   22.2135   47.4166 H   0  0  0  0  0  0  0  0  0  0  0  0
   58.1634   22.1083   45.5098 H   0  0  0  0  0  0  0  0  0  0  0  0
   59.1212   24.2103   44.5633 H   0  0  0  0  0  0  0  0  0  0  0  0
   59.9338   30.5347   44.7410 H   0  0  0  0  0  0  0  0  0  0  0  0
   61.5296   31.1376   46.5601 H   0  0  0  0  0  0  0  0  0  0  0  0
   60.1602   35.4828   47.5245 H   0  0  0  0  0  0  0  0  0  0  0  0
   61.0595   35.3626   45.9536 H   0  0  0  0  0  0  0  0  0  0  0  0
   58.5162   33.5749   48.0876 H   0  0  0  0  0  0  0  0  0  0  0  0
   56.6179   32.2970   47.0916 H   0  0  0  0  0  0  0  0  0  0  0  0
   58.2080   33.0098   43.1311 H   0  0  0  0  0  0  0  0  0  0  0  0
   60.1148   34.2803   44.1208 H   0  0  0  0  0  0  0  0  0  0  0  0
  1  2  1  0
  2  3  1  0
  3  4  1  0
  4  5  1  0
  5  6  1  0
  6  7  1  0
  7  8  2  0
  7  9  2  0
  7 10  1  0
 10 11  2  0
 11 12  1  0
 12 13  2  0
 13 14  1  0
 14 15  2  0
 14 16  2  0
 14 17  1  0
 17 18  1  0
 17 19  1  0
 19 20  1  0
 20 21  2  0
 21 22  1  0
 22 23  2  0
 23 24  1  0
 24 25  2  0
 13 26  1  0
 26 27  2  0
  3 28  1  0
 28 29  2  0
 28 30  1  0
 30 31  1  0
 31 32  2  0
 32 33  1  0
 33 34  2  0
 34 35  1  0
 34 36  1  0
 36 37  2  0
 27 10  1  0
 37 31  1  0
 25 20  1  0
  1 38  1  0
  1 39  1  0
  1 40  1  0
  2 41  1  0
  2 42  1  0
  3 43  1  6
  4 44  1  0
  4 45  1  0
  5 46  1  0
  5 47  1  0
 11 48  1  0
 12 49  1  0
 18 50  1  0
 18 51  1  0
 18 52  1  0
 19 53  1  0
 19 54  1  0
 21 55  1  0
 22 56  1  0
 23 57  1  0
 24 58  1  0
 25 59  1  0
 26 60  1  0
 27 61  1  0
 30 62  1  0
 30 63  1  0
 32 64  1  0
 33 65  1  0
 36 66  1  0
 37 67  1  0
M  CHG  2   3   1   6  -1
M  END
>  <UniqueID>  (75) 
71

>  <SMILES>  (75) 
CC[N@@H+](CC[N-]S(=O)(=O)c1ccc(S(=O)(=O)N(C)Cc2ccccc2)cc1)C(=O)Cc1ccc(F)cc1

>  <Energy>  (75) 
74.44771965456982

>  <Genealogy>  (75) 
CC[NH+](CC[N-]S(=O)(=O)c1ccc(S(=O)(=O)N(C)Cc2ccccc2)cc1)C(=O)Cc1ccc(F)cc1 (protonated)
CC[N@@H+](CC[N-]S(=O)(=O)c1ccc(S(=O)(=O)N(C)Cc2ccccc2)cc1)C(=O)Cc1ccc(F)cc1 (chirality)
CC[N@@H+](CC[N-]S(=O)(=O)c1ccc(S(=O)(=O)N(C)Cc2ccccc2)cc1)C(=O)Cc1ccc(F)cc1 (3D coordinates assigned)
CC[N@@H+](CC[N-]S(=O)(=O)c1ccc(S(=O)(=O)N(C)Cc2ccccc2)cc1)C(=O)Cc1ccc(F)cc1 (optimized conformer: 74.44771965456982 kcal/mol)

>  <smiles>  (75) 
CCN(CCNS(=O)(=O)c1ccc(S(=O)(=O)N(C)Cc2ccccc2)cc1)C(=O)Cc1ccc(F)cc1

>  <score_type>  (75) 
oracle

>  <origin>  (75) 
adg

>  <m_score__min__energy>  (75) 
-8.8399999999999999

>  <m_primary>  (75) 
energy

$$$$
75:0
     RDKit          3D

 38 40  0  0  0  0  0  0  0  0999 V2000
   64.5375   34.4651   47.5224 H   0  0  0  0  0  0  0  0  0  0  0  0
   63.7560   33.6980   47.6270 C   0  0  0  0  0  0  0  0  0  0  0  0
   62.6720   33.6810   46.7460 C   0  0  0  0  0  0  0  0  0  0  0  0
   62.5955   34.4398   45.9533 H   0  0  0  0  0  0  0  0  0  0  0  0
   61.6840   32.6990   46.8720 C   0  0  0  0  0  0  0  0  0  0  0  0
   60.8240   32.6991   46.1862 H   0  0  0  0  0  0  0  0  0  0  0  0
   61.7810   31.7150   47.8650 C   0  0  0  0  0  0  0  0  0  0  0  0
   60.7270   30.7450   47.9780 N   0  0  0  0  0  0  0  0  0  0  0  0
   60.2570   29.9960   47.0240 C   0  0  0  0  0  0  0  0  0  0  0  0
   60.9120   29.7170   45.8750 N   0  0  0  0  0  0  0  0  0  0  0  0
   60.1980   28.9650   45.0390 N   0  0  0  0  0  0  0  0  0  0  0  0
   58.9730   28.6590   45.5190 C   0  0  0  0  0  0  0  0  0  0  0  0
   57.7870   27.6510   44.6340 S   0  0  0  0  0  0  0  0  0  0  0  0
   57.1410   29.0230   43.6160 C   0  0  0  0  0  0  0  0  0  0  0  0
   56.6183   28.6069   42.7422 H   0  0  0  0  0  0  0  0  0  0  0  0
   57.9866   29.6504   43.2977 H   0  0  0  0  0  0  0  0  0  0  0  0
   56.1840   29.8740   44.4010 C   0  0  0  0  0  0  0  0  0  0  0  0
   55.1430   29.3450   44.8720 O   0  0  0  0  0  0  0  0  0  0  0  0
   56.3950   31.2770   44.6050 N   0  0  0  0  0  0  0  0  0  0  0  0
   57.5170   32.0560   44.0870 C   0  0  0  0  0  0  0  0  0  0  0  0
   58.3060   31.3693   43.7465 H   0  0  0  0  0  0  0  0  0  0  0  0
   57.1600   32.6745   43.2504 H   0  0  0  0  0  0  0  0  0  0  0  0
   58.0770   32.9620   45.1520 C   0  0  0  0  0  0  0  0  0  0  0  0
   58.8310   34.0950   44.8000 C   0  0  0  0  0  0  0  0  0  0  0  0
   59.0244   34.3168   43.7401 H   0  0  0  0  0  0  0  0  0  0  0  0
   59.3360   34.9410   45.7920 C   0  0  0  0  0  0  0  0  0  0  0  0
   59.9332   35.8211   45.5114 H   0  0  0  0  0  0  0  0  0  0  0  0
   59.0830   34.6700   47.1400 C   0  0  0  0  0  0  0  0  0  0  0  0
   59.4831   35.3355   47.9191 H   0  0  0  0  0  0  0  0  0  0  0  0
   58.3220   33.5540   47.4980 C   0  0  0  0  0  0  0  0  0  0  0  0
   58.1208   33.3430   48.5587 H   0  0  0  0  0  0  0  0  0  0  0  0
   57.8160   32.7050   46.5080 C   0  0  0  0  0  0  0  0  0  0  0  0
   57.2107   31.8318   46.7929 H   0  0  0  0  0  0  0  0  0  0  0  0
   58.7160   29.3210   47.0470 S   0  0  0  0  0  0  0  0  0  0  0  0
   62.8610   31.7570   48.7690 C   0  0  0  0  0  0  0  0  0  0  0  0
   62.9286   31.0143   49.5776 H   0  0  0  0  0  0  0  0  0  0  0  0
   63.8480   32.7410   48.6410 C   0  0  0  0  0  0  0  0  0  0  0  0
   64.6974   32.7610   49.3397 H   0  0  0  0  0  0  0  0  0  0  0  0
  1  2  1  0
  2  3  2  0
  3  4  1  0
  3  5  1  0
  5  6  1  0
  5  7  2  0
  7  8  1  0
  8  9  2  0
  9 10  1  0
 10 11  1  0
 11 12  2  0
 12 13  1  0
 13 14  1  0
 14 15  1  0
 14 16  1  0
 14 17  1  0
 17 18  2  0
 17 19  1  0
 19 20  1  0
 20 21  1  0
 20 22  1  0
 20 23  1  0
 23 24  2  0
 24 25  1  0
 24 26  1  0
 26 27  1  0
 26 28  2  0
 28 29  1  0
 28 30  1  0
 30 31  1  0
 30 32  2  0
 32 33  1  0
 12 34  1  0
  7 35  1  0
 35 36  1  0
 35 37  2  0
 37 38  1  0
 37  2  1  0
 34  9  1  0
 32 23  1  0
M  CHG  2  10  -1  19  -1
M  END
>  <UniqueID>  (76) 
72

>  <SMILES>  (76) 
O=C(CSc1n[n-]/c(=N\c2ccccc2)s1)[N-]Cc1ccccc1

>  <Energy>  (76) 
74.71919444706462

>  <Genealogy>  (76) 
O=C(CSc1n[n-]c(=Nc2ccccc2)s1)[N-]Cc1ccccc1 (protonated)
O=C(CSc1n[n-]/c(=N\c2ccccc2)s1)[N-]Cc1ccccc1 (cis-trans isomerization)
O=C(CSc1n[n-]/c(=N\c2ccccc2)s1)[N-]Cc1ccccc1 (3D coordinates assigned)
O=C(CSc1n[n-]/c(=N\c2ccccc2)s1)[N-]Cc1ccccc1 (optimized conformer: 74.71919444706462 kcal/mol)

>  <smiles>  (76) 
O=C(CSc1n[nH]c(=Nc2ccccc2)s1)NCc1ccccc1

>  <score_type>  (76) 
oracle

>  <origin>  (76) 
adg

>  <m_score__min__energy>  (76) 
-12.5

>  <m_primary>  (76) 
energy

$$$$
76:0
     RDKit          3D

 51 54  0  0  0  0  0  0  0  0999 V2000
   60.1288   27.8728   46.2331 H   0  0  0  0  0  0  0  0  0  0  0  0
   59.0880   28.0940   45.9540 C   0  0  0  0  0  0  0  0  0  0  0  0
   58.7120   29.3740   45.6930 N   0  0  0  0  0  0  0  0  0  0  0  0
   57.4330   29.6960   45.3440 C   0  0  0  0  0  0  0  0  0  0  0  0
   57.0890   30.9280   45.0980 N   0  0  0  0  0  0  0  0  0  0  0  0
   57.9420   31.9970   44.6460 C   0  0  0  0  0  0  0  0  0  0  0  0
   58.1240   32.1930   43.4130 O   0  0  0  0  0  0  0  0  0  0  0  0
   58.6100   32.8720   45.6370 C   0  0  0  0  0  0  0  0  0  0  0  0
   57.8910   33.8900   46.2910 C   0  0  0  0  0  0  0  0  0  0  0  0
   56.8260   34.0407   46.0608 H   0  0  0  0  0  0  0  0  0  0  0  0
   58.5200   34.7100   47.2300 C   0  0  0  0  0  0  0  0  0  0  0  0
   57.9476   35.5003   47.7378 H   0  0  0  0  0  0  0  0  0  0  0  0
   59.8720   34.5310   47.5270 C   0  0  0  0  0  0  0  0  0  0  0  0
   60.3621   35.1779   48.2695 H   0  0  0  0  0  0  0  0  0  0  0  0
   60.6050   33.5280   46.8800 C   0  0  0  0  0  0  0  0  0  0  0  0
   62.3060   33.2710   47.2640 S   0  0  0  0  0  0  0  0  0  0  0  0
   63.1130   33.4700   46.0120 O   0  0  0  0  0  0  0  0  0  0  0  0
   62.7530   34.2840   48.2820 O   0  0  0  0  0  0  0  0  0  0  0  0
   62.5360   31.6370   47.8510 N   0  0  0  0  0  0  0  0  0  0  0  0
   61.3640   30.7770   47.6640 C   0  0  0  0  0  0  0  0  0  0  0  0
   61.0674   30.8146   46.6054 H   0  0  0  0  0  0  0  0  0  0  0  0
   61.6491   29.7613   47.9757 H   0  0  0  0  0  0  0  0  0  0  0  0
   60.1670   31.1990   48.5210 C   0  0  0  0  0  0  0  0  0  0  0  0
   59.6265   31.9940   47.9864 H   0  0  0  0  0  0  0  0  0  0  0  0
   59.5626   30.2932   48.6770 H   0  0  0  0  0  0  0  0  0  0  0  0
   60.5160   31.7040   49.8660 N   0  0  0  0  0  0  0  0  0  0  0  0
   59.4360   32.0470   50.7910 C   0  0  0  0  0  0  0  0  0  0  0  0
   58.3410   31.1710   51.0010 C   0  0  0  0  0  0  0  0  0  0  0  0
   58.3001   30.2151   50.4582 H   0  0  0  0  0  0  0  0  0  0  0  0
   57.3120   31.5040   51.8880 C   0  0  0  0  0  0  0  0  0  0  0  0
   56.4708   30.8107   52.0354 H   0  0  0  0  0  0  0  0  0  0  0  0
   57.3470   32.7080   52.5850 C   0  0  0  0  0  0  0  0  0  0  0  0
   56.5339   32.9665   53.2793 H   0  0  0  0  0  0  0  0  0  0  0  0
   58.4130   33.5850   52.4020 C   0  0  0  0  0  0  0  0  0  0  0  0
   58.4405   34.5359   52.9544 H   0  0  0  0  0  0  0  0  0  0  0  0
   59.4480   33.2630   51.5200 C   0  0  0  0  0  0  0  0  0  0  0  0
   60.2854   33.9642   51.3892 H   0  0  0  0  0  0  0  0  0  0  0  0
   61.9130   32.0050   50.2570 C   0  0  0  0  0  0  0  0  0  0  0  0
   61.9958   33.0912   50.4097 H   0  0  0  0  0  0  0  0  0  0  0  0
   62.1071   31.4141   51.1643 H   0  0  0  0  0  0  0  0  0  0  0  0
   62.9880   31.5860   49.2420 C   0  0  0  0  0  0  0  0  0  0  0  0
   63.8505   32.2598   49.3517 H   0  0  0  0  0  0  0  0  0  0  0  0
   63.2434   30.5382   49.4586 H   0  0  0  0  0  0  0  0  0  0  0  0
   59.9730   32.6990   45.9430 C   0  0  0  0  0  0  0  0  0  0  0  0
   60.5475   31.9059   45.4421 H   0  0  0  0  0  0  0  0  0  0  0  0
   56.4690   28.6800   45.2500 C   0  0  0  0  0  0  0  0  0  0  0  0
   55.1570   28.9750   44.8960 O   0  0  0  0  0  0  0  0  0  0  0  0
   56.8380   27.3580   45.5140 C   0  0  0  0  0  0  0  0  0  0  0  0
   56.0914   26.5533   45.4427 H   0  0  0  0  0  0  0  0  0  0  0  0
   58.1540   27.0600   45.8680 C   0  0  0  0  0  0  0  0  0  0  0  0
   58.4524   26.0221   46.0770 H   0  0  0  0  0  0  0  0  0  0  0  0
  1  2  1  0
  2  3  1  0
  3  4  1  0
  4  5  2  0
  5  6  1  0
  6  7  2  0
  6  8  1  0
  8  9  2  0
  9 10  1  0
  9 11  1  0
 11 12  1  0
 11 13  2  0
 13 14  1  0
 13 15  1  0
 15 16  1  0
 16 17  2  0
 16 18  2  0
 16 19  1  0
 19 20  1  0
 20 21  1  0
 20 22  1  0
 20 23  1  0
 23 24  1  0
 23 25  1  0
 23 26  1  0
 26 27  1  0
 27 28  2  0
 28 29  1  0
 28 30  1  0
 30 31  1  0
 30 32  2  0
 32 33  1  0
 32 34  1  0
 34 35  1  0
 34 36  2  0
 36 37  1  0
 26 38  1  0
 38 39  1  0
 38 40  1  0
 38 41  1  0
 41 42  1  0
 41 43  1  0
 15 44  2  0
 44 45  1  0
  4 46  1  0
 46 47  1  0
 46 48  2  0
 48 49  1  0
 48 50  1  0
 50 51  1  0
 50  2  2  0
 44  8  1  0
 41 19  1  0
 36 27  1  0
M  CHG  2   3  -1  47  -1
M  END
>  <UniqueID>  (77) 
73

>  <SMILES>  (77) 
O=C(/N=c1\[n-]cccc1[O-])c1cccc(S(=O)(=O)N2CCN(c3ccccc3)CC2)c1

>  <Energy>  (77) 
70.06494133069897

>  <Genealogy>  (77) 
O=C(N=c1[n-]cccc1[O-])c1cccc(S(=O)(=O)N2CCN(c3ccccc3)CC2)c1 (protonated)
O=C(/N=c1\[n-]cccc1[O-])c1cccc(S(=O)(=O)N2CCN(c3ccccc3)CC2)c1 (cis-trans isomerization)
O=C(/N=c1\[n-]cccc1[O-])c1cccc(S(=O)(=O)N2CCN(c3ccccc3)CC2)c1 (3D coordinates assigned)
O=C(/N=c1\[n-]cccc1[O-])c1cccc(S(=O)(=O)N2CCN(c3ccccc3)CC2)c1 (nonaromatic ring conformer: 70.06494133069897 kcal/mol)

>  <smiles>  (77) 
O=C(N=c1[nH]cccc1O)c1cccc(S(=O)(=O)N2CCN(c3ccccc3)CC2)c1

>  <score_type>  (77) 
oracle

>  <origin>  (77) 
adg

>  <m_score__min__energy>  (77) 
-15.52

>  <m_primary>  (77) 
energy

$$$$
77:0
     RDKit          3D

 42 44  0  0  1  0  0  0  0  0999 V2000
   64.8610   33.2950   49.7330 C   0  0  0  0  0  0  0  0  0  0  0  0
   63.5500   32.9370   49.1390 C   0  0  0  0  0  0  0  0  0  0  0  0
   63.1710   31.6390   48.8660 C   0  0  0  0  0  0  0  0  0  0  0  0
   61.9540   31.3260   48.3160 C   0  0  0  0  0  0  0  0  0  0  0  0
   61.6720   30.0900   48.0900 N   0  0  0  0  0  0  0  0  0  0  0  0
   60.5710   29.8200   47.2270 C   0  0  0  0  0  0  0  0  0  0  0  0
   59.2880   30.1080   47.7030 C   0  0  0  0  0  0  0  0  0  0  0  0
   58.1750   29.8800   46.9410 C   0  0  0  0  0  0  0  0  0  0  0  0
   58.3060   29.3510   45.6600 C   0  0  0  0  0  0  0  0  0  0  0  0
   56.8820   29.0630   44.6910 S   0  0  0  0  0  0  0  0  0  0  0  0
   57.3640   28.5170   43.1140 N   0  0  0  0  0  0  0  0  0  0  0  0
   56.1720   30.3870   44.4750 O   0  0  0  0  0  0  0  0  0  0  0  0
   55.9660   28.0440   45.2590 O   0  0  0  0  0  0  0  0  0  0  0  0
   59.5800   29.0730   45.2070 C   0  0  0  0  0  0  0  0  0  0  0  0
   60.7150   29.2950   45.9600 C   0  0  0  0  0  0  0  0  0  0  0  0
   61.1200   32.3460   48.0420 N   0  0  0  0  0  0  0  0  0  0  0  0
   61.4870   33.6130   48.3070 C   0  0  0  0  0  0  0  0  0  0  0  0
   60.6820   34.5890   48.0420 N   0  0  0  0  0  0  0  0  0  0  0  0
   59.6380   34.4830   47.0700 C   0  0  0  0  0  0  0  0  0  0  0  0
   59.7420   35.0180   45.8020 C   0  0  0  0  0  0  0  0  0  0  0  0
   58.7020   34.8850   44.9030 C   0  0  0  0  0  0  0  0  0  0  0  0
   57.5610   34.2070   45.3030 C   0  0  0  0  0  0  0  0  0  0  0  0
   57.4400   33.6650   46.5710 C   0  0  0  0  0  0  0  0  0  0  0  0
   58.4860   33.7990   47.4730 C   0  0  0  0  0  0  0  0  0  0  0  0
   62.6830   33.9320   48.8490 N   0  0  0  0  0  0  0  0  0  0  0  0
   64.7844   33.2741   50.8301 H   0  0  0  0  0  0  0  0  0  0  0  0
   65.6220   32.5718   49.4047 H   0  0  0  0  0  0  0  0  0  0  0  0
   65.1489   34.3046   49.4047 H   0  0  0  0  0  0  0  0  0  0  0  0
   63.8717   30.8235   49.0983 H   0  0  0  0  0  0  0  0  0  0  0  0
   59.1711   30.5274   48.7132 H   0  0  0  0  0  0  0  0  0  0  0  0
   57.1772   30.1145   47.3402 H   0  0  0  0  0  0  0  0  0  0  0  0
   56.5540   28.0620   42.6360 H   0  0  0  0  0  0  0  0  0  0  0  0
   57.6610   29.3220   42.5110 H   0  0  0  0  0  0  0  0  0  0  0  0
   59.6962   28.6541   44.1965 H   0  0  0  0  0  0  0  0  0  0  0  0
   61.7116   29.0586   45.5588 H   0  0  0  0  0  0  0  0  0  0  0  0
   60.1850   32.1480   47.6230 H   0  0  0  0  0  0  0  0  0  0  0  0
   60.6568   35.5524   45.5062 H   0  0  0  0  0  0  0  0  0  0  0  0
   58.7775   35.3083   43.8905 H   0  0  0  0  0  0  0  0  0  0  0  0
   56.7283   34.0966   44.5928 H   0  0  0  0  0  0  0  0  0  0  0  0
   56.5223   33.1325   46.8612 H   0  0  0  0  0  0  0  0  0  0  0  0
   58.4108   33.3755   48.4854 H   0  0  0  0  0  0  0  0  0  0  0  0
   62.9360   34.9470   49.0420 H   0  0  0  0  0  0  0  0  0  0  0  0
  1  2  1  0
  2  3  2  0
  3  4  1  0
  4  5  2  0
  5  6  1  0
  6  7  2  0
  7  8  1  0
  8  9  2  0
  9 10  1  0
 10 11  1  0
 10 12  2  0
 10 13  2  0
  9 14  1  0
 14 15  2  0
  4 16  1  0
 16 17  1  0
 17 18  2  0
 18 19  1  0
 19 20  2  0
 20 21  1  0
 21 22  2  0
 22 23  1  0
 23 24  2  0
 17 25  1  0
 25  2  1  0
 15  6  1  0
 24 19  1  0
  1 26  1  0
  1 27  1  0
  1 28  1  0
  3 29  1  0
  7 30  1  0
  8 31  1  0
 11 32  1  0
 11 33  1  0
 14 34  1  0
 15 35  1  0
 16 36  1  0
 20 37  1  0
 21 38  1  0
 22 39  1  0
 23 40  1  0
 24 41  1  0
 25 42  1  0
M  END
>  <smiles>  (78) 
Cc1cc(=Nc2ccc(S(N)(=O)=O)cc2)[nH]c(=Nc2ccccc2)[nH]1

>  <score_type>  (78) 
oracle

>  <origin>  (78) 
adg

>  <m_score__min__energy>  (78) 
-8.8699999999999992

>  <m_primary>  (78) 
energy

$$$$
78:0
     RDKit          3D

 61 64  0  0  0  0  0  0  0  0999 V2000
   55.1370   26.7200   45.9890 O   0  0  0  0  0  0  0  0  0  0  0  0
   56.1230   25.9370   46.0590 C   0  0  0  0  0  0  0  0  0  0  0  0
   57.3340   26.1920   45.2250 C   0  0  0  0  0  0  0  0  0  0  0  0
   57.6930   27.6460   45.2960 C   0  0  0  0  0  0  0  0  0  0  0  0
   56.7850   28.6270   44.8920 C   0  0  0  0  0  0  0  0  0  0  0  0
   57.1430   29.9660   45.0300 C   0  0  0  0  0  0  0  0  0  0  0  0
   56.3440   30.8700   44.6630 O   0  0  0  0  0  0  0  0  0  0  0  0
   58.3520   30.2970   45.5610 N   0  0  0  0  0  0  0  0  0  0  0  0
   59.2280   29.3280   45.9670 C   0  0  0  0  0  0  0  0  0  0  0  0
   60.3920   29.6170   46.4800 N   0  0  0  0  0  0  0  0  0  0  0  0
   60.7960   30.8750   47.1110 C   0  0  0  0  0  0  0  0  0  0  0  0
   60.0190   31.1060   48.3840 C   0  0  0  0  0  0  0  0  0  0  0  0
   60.3270   30.3690   49.5410 C   0  0  0  0  0  0  0  0  0  0  0  0
   59.6130   30.5740   50.7220 C   0  0  0  0  0  0  0  0  0  0  0  0
   58.5750   31.5040   50.7590 C   0  0  0  0  0  0  0  0  0  0  0  0
   58.2420   32.2280   49.6130 C   0  0  0  0  0  0  0  0  0  0  0  0
   58.9590   32.0370   48.4140 C   0  0  0  0  0  0  0  0  0  0  0  0
   58.6490   32.7450   47.2380 O   0  0  0  0  0  0  0  0  0  0  0  0
   58.6730   34.1660   47.0940 C   0  0  0  0  0  0  0  0  0  0  0  0
   59.9360   34.6080   46.3520 C   0  0  0  0  0  0  0  0  0  0  0  0
   61.1680   34.1920   47.1080 C   0  0  0  0  0  0  0  0  0  0  0  0
   61.1950   34.2540   48.5110 C   0  0  0  0  0  0  0  0  0  0  0  0
   62.3530   33.8970   49.2090 C   0  0  0  0  0  0  0  0  0  0  0  0
   63.4920   33.4840   48.5120 C   0  0  0  0  0  0  0  0  0  0  0  0
   63.4770   33.4320   47.1170 C   0  0  0  0  0  0  0  0  0  0  0  0
   62.3210   33.7890   46.4150 C   0  0  0  0  0  0  0  0  0  0  0  0
   58.8850   28.0200   45.8340 N   0  0  0  0  0  0  0  0  0  0  0  0
   56.1070   24.8300   46.9660 N   0  0  0  0  0  0  0  0  0  0  0  0
   55.4800   23.5510   46.6580 C   0  0  0  0  0  0  0  0  0  0  0  0
   56.0040   23.0330   45.3480 C   0  0  0  0  0  0  0  0  0  0  0  0
   57.0250   22.0700   45.3280 C   0  0  0  0  0  0  0  0  0  0  0  0
   57.4990   21.5700   44.1120 C   0  0  0  0  0  0  0  0  0  0  0  0
   56.9430   22.0120   42.9080 C   0  0  0  0  0  0  0  0  0  0  0  0
   55.9100   22.9520   42.9210 C   0  0  0  0  0  0  0  0  0  0  0  0
   55.4400   23.4620   44.1350 C   0  0  0  0  0  0  0  0  0  0  0  0
   58.1727   25.5885   45.6023 H   0  0  0  0  0  0  0  0  0  0  0  0
   57.1245   25.9167   44.1808 H   0  0  0  0  0  0  0  0  0  0  0  0
   55.8068   28.3480   44.4733 H   0  0  0  0  0  0  0  0  0  0  0  0
   58.5880   31.3100   45.6350 H   0  0  0  0  0  0  0  0  0  0  0  0
   61.8698   30.8328   47.3458 H   0  0  0  0  0  0  0  0  0  0  0  0
   60.5900   31.7020   46.4155 H   0  0  0  0  0  0  0  0  0  0  0  0
   61.1370   29.6252   49.5149 H   0  0  0  0  0  0  0  0  0  0  0  0
   59.8694   30.0010   51.6253 H   0  0  0  0  0  0  0  0  0  0  0  0
   58.0174   31.6675   51.6930 H   0  0  0  0  0  0  0  0  0  0  0  0
   57.4148   32.9523   49.6455 H   0  0  0  0  0  0  0  0  0  0  0  0
   57.7879   34.4873   46.5253 H   0  0  0  0  0  0  0  0  0  0  0  0
   58.6685   34.6251   48.0936 H   0  0  0  0  0  0  0  0  0  0  0  0
   59.9502   34.1442   45.3547 H   0  0  0  0  0  0  0  0  0  0  0  0
   59.9288   35.7043   46.2621 H   0  0  0  0  0  0  0  0  0  0  0  0
   60.3024   34.5844   49.0625 H   0  0  0  0  0  0  0  0  0  0  0  0
   62.3675   33.9413   50.3080 H   0  0  0  0  0  0  0  0  0  0  0  0
   64.4007   33.1998   49.0629 H   0  0  0  0  0  0  0  0  0  0  0  0
   64.3750   33.1100   46.5694 H   0  0  0  0  0  0  0  0  0  0  0  0
   62.3150   33.7539   45.3156 H   0  0  0  0  0  0  0  0  0  0  0  0
   55.7107   22.8292   47.4553 H   0  0  0  0  0  0  0  0  0  0  0  0
   54.3907   23.6868   46.5868 H   0  0  0  0  0  0  0  0  0  0  0  0
   57.4540   21.7072   46.2737 H   0  0  0  0  0  0  0  0  0  0  0  0
   58.3107   20.8277   44.1024 H   0  0  0  0  0  0  0  0  0  0  0  0
   57.3186   21.6199   41.9514 H   0  0  0  0  0  0  0  0  0  0  0  0
   55.4653   23.2918   41.9740 H   0  0  0  0  0  0  0  0  0  0  0  0
   54.6258   24.2017   44.1403 H   0  0  0  0  0  0  0  0  0  0  0  0
  1  2  2  0
  2  3  1  0
  3  4  1  0
  4  5  2  0
  5  6  1  0
  6  7  2  0
  6  8  1  0
  8  9  1  0
  9 10  2  3
 10 11  1  0
 11 12  1  0
 12 13  2  0
 13 14  1  0
 14 15  2  0
 15 16  1  0
 16 17  2  0
 17 18  1  0
 18 19  1  0
 19 20  1  0
 20 21  1  0
 21 22  2  0
 22 23  1  0
 23 24  2  0
 24 25  1  0
 25 26  2  0
  9 27  1  0
  2 28  1  0
 28 29  1  0
 29 30  1  0
 30 31  2  0
 31 32  1  0
 32 33  2  0
 33 34  1  0
 34 35  2  0
 27  4  1  0
 35 30  1  0
 17 12  1  0
 26 21  1  0
  3 36  1  0
  3 37  1  0
  5 38  1  0
  8 39  1  0
 11 40  1  0
 11 41  1  0
 13 42  1  0
 14 43  1  0
 15 44  1  0
 16 45  1  0
 19 46  1  0
 19 47  1  0
 20 48  1  0
 20 49  1  0
 22 50  1  0
 23 51  1  0
 24 52  1  0
 25 53  1  0
 26 54  1  0
 29 55  1  0
 29 56  1  0
 31 57  1  0
 32 58  1  0
 33 59  1  0
 34 60  1  0
 35 61  1  0
M  CHG  2  27  -1  28  -1
M  END
>  <UniqueID>  (79) 
74

>  <SMILES>  (79) 
O=C(Cc1cc(=O)[nH]c(=NCc2ccccc2OCCc2ccccc2)[n-]1)[N-]Cc1ccccc1

>  <Energy>  (79) 
58.39336932862017

>  <Genealogy>  (79) 
O=C(Cc1cc(=O)[nH]c(=NCc2ccccc2OCCc2ccccc2)[n-]1)[N-]Cc1ccccc1 (protonated)
O=C(Cc1cc(=O)[nH]c(=NCc2ccccc2OCCc2ccccc2)[n-]1)[N-]Cc1ccccc1 (3D coordinates assigned)
O=C(Cc1cc(=O)[nH]c(=NCc2ccccc2OCCc2ccccc2)[n-]1)[N-]Cc1ccccc1 (optimized conformer: 58.39336932862017 kcal/mol)

>  <smiles>  (79) 
O=C(Cc1cc(=O)[nH]c(=NCc2ccccc2OCCc2ccccc2)[nH]1)NCc1ccccc1

>  <score_type>  (79) 
oracle

>  <origin>  (79) 
adg

>  <m_score__min__energy>  (79) 
-12.119999999999999

>  <m_primary>  (79) 
energy

$$$$
79:0
     RDKit          3D

 73 76  0  0  0  0  0  0  0  0999 V2000
   57.1230   31.3230   51.9840 C   0  0  0  0  0  0  0  0  0  0  0  0
   57.4410   30.0370   51.4610 O   0  0  0  0  0  0  0  0  0  0  0  0
   58.5930   29.7320   50.7150 C   0  0  0  0  0  0  0  0  0  0  0  0
   58.5200   29.5380   49.3240 C   0  0  0  0  0  0  0  0  0  0  0  0
   59.6660   29.2490   48.5700 C   0  0  0  0  0  0  0  0  0  0  0  0
   59.5480   29.0180   47.1060 C   0  0  0  0  0  0  0  0  0  0  0  0
   59.9880   27.9390   46.6190 O   0  0  0  0  0  0  0  0  0  0  0  0
   58.9380   30.0120   46.1860 C   0  0  0  0  0  0  0  0  0  0  0  0
   59.2900   31.3750   46.2940 C   0  0  0  0  0  0  0  0  0  0  0  0
   60.1870   31.7730   47.2940 O   0  0  0  0  0  0  0  0  0  0  0  0
   61.6010   31.7450   47.1200 C   0  0  0  0  0  0  0  0  0  0  0  0
   62.2930   32.4710   48.2430 C   0  0  0  0  0  0  0  0  0  0  0  0
   63.6940   32.4520   48.3370 C   0  0  0  0  0  0  0  0  0  0  0  0
   64.3380   33.1090   49.3930 C   0  0  0  0  0  0  0  0  0  0  0  0
   63.5870   33.7850   50.3570 C   0  0  0  0  0  0  0  0  0  0  0  0
   62.1900   33.7990   50.2740 C   0  0  0  0  0  0  0  0  0  0  0  0
   61.5430   33.1350   49.2270 C   0  0  0  0  0  0  0  0  0  0  0  0
   58.7560   32.3180   45.3880 C   0  0  0  0  0  0  0  0  0  0  0  0
   59.1470   33.7680   45.4420 C   0  0  0  0  0  0  0  0  0  0  0  0
   57.8220   31.9000   44.4300 C   0  0  0  0  0  0  0  0  0  0  0  0
   57.4710   30.5540   44.3170 C   0  0  0  0  0  0  0  0  0  0  0  0
   56.2790   30.0840   43.1140 Cl  0  0  0  0  0  0  0  0  0  0  0  0
   58.0510   29.6010   45.1680 C   0  0  0  0  0  0  0  0  0  0  0  0
   57.7450   28.2440   45.0080 O   0  0  0  0  0  0  0  0  0  0  0  0
   56.5980   27.6440   45.6060 C   0  0  0  0  0  0  0  0  0  0  0  0
   56.8780   26.2080   45.9300 C   0  0  0  0  0  0  0  0  0  0  0  0
   55.9390   25.4750   46.3510 O   0  0  0  0  0  0  0  0  0  0  0  0
   58.2000   25.6690   45.7720 N   0  0  0  0  0  0  0  0  0  0  0  0
   58.5000   24.2480   45.9500 C   0  0  0  0  0  0  0  0  0  0  0  0
   57.6840   23.4090   45.0040 C   0  0  0  0  0  0  0  0  0  0  0  0
   57.5170   22.0340   45.2300 C   0  0  0  0  0  0  0  0  0  0  0  0
   56.7850   21.2700   44.3150 C   0  0  0  0  0  0  0  0  0  0  0  0
   56.2440   21.8560   43.2140 N   0  0  0  0  0  0  0  0  0  0  0  0
   56.3870   23.1850   42.9720 C   0  0  0  0  0  0  0  0  0  0  0  0
   57.1090   23.9870   43.8630 C   0  0  0  0  0  0  0  0  0  0  0  0
   60.9030   29.1560   49.2210 C   0  0  0  0  0  0  0  0  0  0  0  0
   61.0030   29.3630   50.6080 C   0  0  0  0  0  0  0  0  0  0  0  0
   62.2360   29.3140   51.2760 O   0  0  0  0  0  0  0  0  0  0  0  0
   63.2070   30.3550   51.2700 C   0  0  0  0  0  0  0  0  0  0  0  0
   59.8500   29.6280   51.3640 C   0  0  0  0  0  0  0  0  0  0  0  0
   60.0250   29.7800   52.7520 O   0  0  0  0  0  0  0  0  0  0  0  0
   60.4300   30.9660   53.4290 C   0  0  0  0  0  0  0  0  0  0  0  0
   57.1326   31.2844   53.0833 H   0  0  0  0  0  0  0  0  0  0  0  0
   57.8673   32.0545   51.6363 H   0  0  0  0  0  0  0  0  0  0  0  0
   56.1235   31.6233   51.6363 H   0  0  0  0  0  0  0  0  0  0  0  0
   57.5460   29.6144   48.8185 H   0  0  0  0  0  0  0  0  0  0  0  0
   61.9415   30.6992   47.1029 H   0  0  0  0  0  0  0  0  0  0  0  0
   61.8493   32.2444   46.1718 H   0  0  0  0  0  0  0  0  0  0  0  0
   64.2873   31.9196   47.5791 H   0  0  0  0  0  0  0  0  0  0  0  0
   65.4356   33.0925   49.4631 H   0  0  0  0  0  0  0  0  0  0  0  0
   64.0938   34.3068   51.1821 H   0  0  0  0  0  0  0  0  0  0  0  0
   61.6000   34.3331   51.0334 H   0  0  0  0  0  0  0  0  0  0  0  0
   60.4443   33.1329   49.1742 H   0  0  0  0  0  0  0  0  0  0  0  0
   59.2327   34.0858   46.4916 H   0  0  0  0  0  0  0  0  0  0  0  0
   60.1144   33.9060   44.9370 H   0  0  0  0  0  0  0  0  0  0  0  0
   58.3801   34.3736   44.9370 H   0  0  0  0  0  0  0  0  0  0  0  0
   57.3608   32.6407   43.7602 H   0  0  0  0  0  0  0  0  0  0  0  0
   56.3459   28.1832   46.5310 H   0  0  0  0  0  0  0  0  0  0  0  0
   55.7554   27.6963   44.9008 H   0  0  0  0  0  0  0  0  0  0  0  0
   58.9800   26.3040   45.4860 H   0  0  0  0  0  0  0  0  0  0  0  0
   59.5688   24.0773   45.7537 H   0  0  0  0  0  0  0  0  0  0  0  0
   58.2506   23.9607   46.9821 H   0  0  0  0  0  0  0  0  0  0  0  0
   57.9582   21.5608   46.1196 H   0  0  0  0  0  0  0  0  0  0  0  0
   56.6468   20.1923   44.4867 H   0  0  0  0  0  0  0  0  0  0  0  0
   55.9346   23.6315   42.0743 H   0  0  0  0  0  0  0  0  0  0  0  0
   57.2247   25.0637   43.6696 H   0  0  0  0  0  0  0  0  0  0  0  0
   61.8065   28.9183   48.6403 H   0  0  0  0  0  0  0  0  0  0  0  0
   63.4601   30.6263   52.3055 H   0  0  0  0  0  0  0  0  0  0  0  0
   64.1124   30.0089   50.7499 H   0  0  0  0  0  0  0  0  0  0  0  0
   62.7988   31.2341   50.7499 H   0  0  0  0  0  0  0  0  0  0  0  0
   60.3750   30.8048   54.5157 H   0  0  0  0  0  0  0  0  0  0  0  0
   61.4639   31.2143   53.1470 H   0  0  0  0  0  0  0  0  0  0  0  0
   59.7639   31.7948   53.1470 H   0  0  0  0  0  0  0  0  0  0  0  0
  1  2  1  0
  2  3  1  0
  3  4  2  0
  4  5  1  0
  5  6  1  0
  6  7  2  0
  6  8  1  0
  8  9  1  0
  9 10  1  0
 10 11  1  0
 11 12  1  0
 12 13  2  0
 13 14  1  0
 14 15  2  0
 15 16  1  0
 16 17  2  0
  9 18  2  0
 18 19  1  0
 18 20  1  0
 20 21  2  0
 21 22  1  0
 21 23  1  0
 23 24  1  0
 24 25  1  0
 25 26  1  0
 26 27  2  0
 26 28  1  0
 28 29  1  0
 29 30  1  0
 30 31  2  0
 31 32  1  0
 32 33  2  0
 33 34  1  0
 34 35  2  0
  5 36  2  0
 36 37  1  0
 37 38  1  0
 38 39  1  0
 37 40  2  0
 40 41  1  0
 41 42  1  0
 40  3  1  0
 23  8  2  0
 35 30  1  0
 17 12  1  0
  1 43  1  0
  1 44  1  0
  1 45  1  0
  4 46  1  0
 11 47  1  0
 11 48  1  0
 13 49  1  0
 14 50  1  0
 15 51  1  0
 16 52  1  0
 17 53  1  0
 19 54  1  0
 19 55  1  0
 19 56  1  0
 20 57  1  0
 25 58  1  0
 25 59  1  0
 28 60  1  0
 29 61  1  0
 29 62  1  0
 31 63  1  0
 32 64  1  0
 34 65  1  0
 35 66  1  0
 36 67  1  0
 39 68  1  0
 39 69  1  0
 39 70  1  0
 42 71  1  0
 42 72  1  0
 42 73  1  0
M  END
>  <UniqueID>  (80) 
75

>  <SMILES>  (80) 
COc1cc(C(=O)c2c(OCc3ccccc3)c(C)cc(Cl)c2OCC(=O)NCc2ccncc2)cc(OC)c1OC

>  <Energy>  (80) 
88.26194851008118

>  <Genealogy>  (80) 
COc1cc(C(=O)c2c(OCc3ccccc3)c(C)cc(Cl)c2OCC(=O)NCc2ccncc2)cc(OC)c1OC (3D coordinates assigned)
COc1cc(C(=O)c2c(OCc3ccccc3)c(C)cc(Cl)c2OCC(=O)NCc2ccncc2)cc(OC)c1OC (optimized conformer: 88.26194851008118 kcal/mol)

>  <smiles>  (80) 
COc1cc(C(=O)c2c(OCc3ccccc3)c(C)cc(Cl)c2OCC(=O)NCc2ccncc2)cc(OC)c1OC

>  <score_type>  (80) 
oracle

>  <origin>  (80) 
adg

>  <m_score__min__energy>  (80) 
-8.6500000000000004

>  <m_primary>  (80) 
energy

$$$$
80:0
     RDKit          3D

 69 73  0  0  0  0  0  0  0  0999 V2000
   58.0670   27.4010   43.4740 C   0  0  0  0  0  0  0  0  0  0  0  0
   58.5660   28.5940   44.2400 C   0  0  0  0  0  0  0  0  0  0  0  0
   59.6380   28.5930   45.1320 C   0  0  0  0  0  0  0  0  0  0  0  0
   60.4150   27.4150   45.6530 C   0  0  0  0  0  0  0  0  0  0  0  0
   60.0970   27.0750   47.0870 C   0  0  0  0  0  0  0  0  0  0  0  0
   61.0520   26.8800   47.8820 O   0  0  0  0  0  0  0  0  0  0  0  0
   58.7540   26.8960   47.5720 N   0  0  0  0  0  0  0  0  0  0  0  0
   57.7280   26.0600   47.0200 C   0  0  0  0  0  0  0  0  0  0  0  0
   56.6590   26.6590   46.3390 C   0  0  0  0  0  0  0  0  0  0  0  0
   55.6090   25.8780   45.8480 C   0  0  0  0  0  0  0  0  0  0  0  0
   55.6170   24.4940   46.0370 C   0  0  0  0  0  0  0  0  0  0  0  0
   56.6960   23.8800   46.6860 C   0  0  0  0  0  0  0  0  0  0  0  0
   56.6580   22.1510   47.0240 S   0  0  0  0  0  0  0  0  0  0  0  0
   55.2380   21.6650   46.9500 O   0  0  0  0  0  0  0  0  0  0  0  0
   57.1560   21.9080   48.4210 O   0  0  0  0  0  0  0  0  0  0  0  0
   57.6200   21.2460   45.8740 N   0  0  0  0  0  0  0  0  0  0  0  0
   58.0130   22.0360   44.6840 C   0  0  0  0  0  0  0  0  0  0  0  0
   57.4340   21.4740   43.3840 C   0  0  0  0  0  0  0  0  0  0  0  0
   56.0870   21.1240   43.5910 O   0  0  0  0  0  0  0  0  0  0  0  0
   56.0020   19.9710   44.4040 C   0  0  0  0  0  0  0  0  0  0  0  0
   57.0280   19.9280   45.5660 C   0  0  0  0  0  0  0  0  0  0  0  0
   57.7750   24.6600   47.1270 C   0  0  0  0  0  0  0  0  0  0  0  0
   59.6340   29.8300   45.7480 C   0  0  0  0  0  0  0  0  0  0  0  0
   58.5740   30.5350   45.2170 C   0  0  0  0  0  0  0  0  0  0  0  0
   58.1020   31.8200   45.7640 C   0  0  0  0  0  0  0  0  0  0  0  0
   56.9920   32.2680   45.3640 O   0  0  0  0  0  0  0  0  0  0  0  0
   58.9070   32.5970   46.6780 N   0  0  0  0  0  0  0  0  0  0  0  0
   59.2170   34.0000   46.3930 C   0  0  0  0  0  0  0  0  0  0  0  0
   60.6730   34.1040   45.9360 C   0  0  0  0  0  0  0  0  0  0  0  0
   61.6020   33.3340   46.8470 C   0  0  0  0  0  0  0  0  0  0  0  0
   62.9790   33.5970   46.8090 C   0  0  0  0  0  0  0  0  0  0  0  0
   63.8380   32.8820   47.5850 N   0  0  0  0  0  0  0  0  0  0  0  0
   63.3980   31.8940   48.4100 C   0  0  0  0  0  0  0  0  0  0  0  0
   62.0400   31.5850   48.4740 C   0  0  0  0  0  0  0  0  0  0  0  0
   61.1310   32.2910   47.6750 C   0  0  0  0  0  0  0  0  0  0  0  0
   59.6600   31.9710   47.7770 C   0  0  0  0  0  0  0  0  0  0  0  0
   57.9430   29.7960   44.2750 N   0  0  0  0  0  0  0  0  0  0  0  0
   56.7840   30.1960   43.4730 C   0  0  0  0  0  0  0  0  0  0  0  0
   57.7413   26.6223   44.1794 H   0  0  0  0  0  0  0  0  0  0  0  0
   57.2187   27.7003   42.8410 H   0  0  0  0  0  0  0  0  0  0  0  0
   58.8758   27.0072   42.8410 H   0  0  0  0  0  0  0  0  0  0  0  0
   60.1833   26.5403   45.0276 H   0  0  0  0  0  0  0  0  0  0  0  0
   61.4806   27.6849   45.6118 H   0  0  0  0  0  0  0  0  0  0  0  0
   56.6465   27.7488   46.1904 H   0  0  0  0  0  0  0  0  0  0  0  0
   54.7748   26.3541   45.3118 H   0  0  0  0  0  0  0  0  0  0  0  0
   54.7749   23.8854   45.6757 H   0  0  0  0  0  0  0  0  0  0  0  0
   57.6535   23.0677   44.8122 H   0  0  0  0  0  0  0  0  0  0  0  0
   59.1093   21.9939   44.6047 H   0  0  0  0  0  0  0  0  0  0  0  0
   57.4989   22.2355   42.5928 H   0  0  0  0  0  0  0  0  0  0  0  0
   58.0045   20.5842   43.0795 H   0  0  0  0  0  0  0  0  0  0  0  0
   54.9913   19.9287   44.8360 H   0  0  0  0  0  0  0  0  0  0  0  0
   56.2278   19.1123   43.7546 H   0  0  0  0  0  0  0  0  0  0  0  0
   56.5191   19.5550   46.4671 H   0  0  0  0  0  0  0  0  0  0  0  0
   57.8496   19.2684   45.2500 H   0  0  0  0  0  0  0  0  0  0  0  0
   58.6621   24.1734   47.5586 H   0  0  0  0  0  0  0  0  0  0  0  0
   60.3398   30.1840   46.5138 H   0  0  0  0  0  0  0  0  0  0  0  0
   58.5533   34.3704   45.5979 H   0  0  0  0  0  0  0  0  0  0  0  0
   59.0671   34.6057   47.2989 H   0  0  0  0  0  0  0  0  0  0  0  0
   60.7564   33.6986   44.9168 H   0  0  0  0  0  0  0  0  0  0  0  0
   60.9661   35.1639   45.9642 H   0  0  0  0  0  0  0  0  0  0  0  0
   63.3669   34.3860   46.1479 H   0  0  0  0  0  0  0  0  0  0  0  0
   64.8600   33.0950   47.5430 H   0  0  0  0  0  0  0  0  0  0  0  0
   64.1164   31.3367   49.0291 H   0  0  0  0  0  0  0  0  0  0  0  0
   61.6843   30.7916   49.1478 H   0  0  0  0  0  0  0  0  0  0  0  0
   59.5250   30.8803   47.7302 H   0  0  0  0  0  0  0  0  0  0  0  0
   59.2807   32.3654   48.7312 H   0  0  0  0  0  0  0  0  0  0  0  0
   55.9573   30.4813   44.1402 H   0  0  0  0  0  0  0  0  0  0  0  0
   57.0553   31.0525   42.8383 H   0  0  0  0  0  0  0  0  0  0  0  0
   56.4692   29.3545   42.8383 H   0  0  0  0  0  0  0  0  0  0  0  0
  1  2  1  0
  2  3  2  0
  3  4  1  0
  4  5  1  0
  5  6  2  0
  5  7  1  0
  7  8  1  0
  8  9  2  0
  9 10  1  0
 10 11  2  0
 11 12  1  0
 12 13  1  0
 13 14  2  0
 13 15  2  0
 13 16  1  0
 16 17  1  0
 17 18  1  0
 18 19  1  0
 19 20  1  0
 20 21  1  0
 12 22  2  0
  3 23  1  0
 23 24  2  0
 24 25  1  0
 25 26  2  0
 25 27  1  0
 27 28  1  0
 28 29  1  0
 29 30  1  0
 30 31  2  0
 31 32  1  0
 32 33  2  0
 33 34  1  0
 34 35  2  0
 35 36  1  0
 24 37  1  0
 37 38  1  0
 37  2  1  0
 22  8  1  0
 36 27  1  0
 21 16  1  0
 35 30  1  0
  1 39  1  0
  1 40  1  0
  1 41  1  0
  4 42  1  0
  4 43  1  0
  9 44  1  0
 10 45  1  0
 11 46  1  0
 17 47  1  0
 17 48  1  0
 18 49  1  0
 18 50  1  0
 20 51  1  0
 20 52  1  0
 21 53  1  0
 21 54  1  0
 22 55  1  0
 23 56  1  0
 28 57  1  0
 28 58  1  0
 29 59  1  0
 29 60  1  0
 31 61  1  0
 32 62  1  0
 33 63  1  0
 34 64  1  0
 36 65  1  0
 36 66  1  0
 38 67  1  0
 38 68  1  0
 38 69  1  0
M  CHG  2   7  -1  32   1
M  END
>  <UniqueID>  (81) 
76

>  <SMILES>  (81) 
Cc1c(CC(=O)[N-]c2cccc(S(=O)(=O)N3CCOCC3)c2)cc(C(=O)N2CCc3c[nH+]ccc3C2)n1C

>  <Energy>  (81) 
121.90788273343608

>  <Genealogy>  (81) 
Cc1c(CC(=O)[N-]c2cccc(S(=O)(=O)N3CCOCC3)c2)cc(C(=O)N2CCc3c[nH+]ccc3C2)n1C (protonated)
Cc1c(CC(=O)[N-]c2cccc(S(=O)(=O)N3CCOCC3)c2)cc(C(=O)N2CCc3c[nH+]ccc3C2)n1C (3D coordinates assigned)
Cc1c(CC(=O)[N-]c2cccc(S(=O)(=O)N3CCOCC3)c2)cc(C(=O)N2CCc3c[nH+]ccc3C2)n1C (nonaromatic ring conformer: 121.90788273343608 kcal/mol)

>  <smiles>  (81) 
Cc1c(CC(=O)Nc2cccc(S(=O)(=O)N3CCOCC3)c2)cc(C(=O)N2CCc3cnccc3C2)n1C

>  <score_type>  (81) 
oracle

>  <origin>  (81) 
adg

>  <m_score__min__energy>  (81) 
-13.06

>  <m_primary>  (81) 
energy

$$$$
81:0
     RDKit          3D

 33 34  0  0  0  0  0  0  0  0999 V2000
   56.8660   29.8520   43.3310 O   0  0  0  0  0  0  0  0  0  0  0  0
   57.0580   29.9240   44.5730 C   0  0  0  0  0  0  0  0  0  0  0  0
   56.9750   31.2150   45.1970 N   0  0  0  0  0  0  0  0  0  0  0  0
   57.3250   32.5060   44.6090 C   0  0  0  0  0  0  0  0  0  0  0  0
   58.1300   33.3390   45.5730 C   0  0  0  0  0  0  0  0  0  0  0  0
   58.8800   34.4360   45.1140 C   0  0  0  0  0  0  0  0  0  0  0  0
   59.6380   35.1950   46.0090 C   0  0  0  0  0  0  0  0  0  0  0  0
   59.6650   34.8590   47.3660 C   0  0  0  0  0  0  0  0  0  0  0  0
   58.9360   33.7600   47.8280 C   0  0  0  0  0  0  0  0  0  0  0  0
   58.1760   32.9980   46.9350 C   0  0  0  0  0  0  0  0  0  0  0  0
   57.3520   28.6810   45.3140 C   0  0  0  0  0  0  0  0  0  0  0  0
   57.6410   28.7130   46.5380 O   0  0  0  0  0  0  0  0  0  0  0  0
   57.3270   27.4310   44.6100 N   0  0  0  0  0  0  0  0  0  0  0  0
   57.2210   26.1230   45.1950 C   0  0  0  0  0  0  0  0  0  0  0  0
   58.2720   25.1900   45.1190 C   0  0  0  0  0  0  0  0  0  0  0  0
   58.1500   23.9210   45.7160 C   0  0  0  0  0  0  0  0  0  0  0  0
   59.2260   22.9690   45.6300 N   0  0  0  0  0  0  0  0  0  0  0  0
   60.4140   23.3530   45.5980 O   0  0  0  0  0  0  0  0  0  0  0  0
   58.9650   21.6190   45.5860 O   0  0  0  0  0  0  0  0  0  0  0  0
   56.9660   23.6040   46.4070 C   0  0  0  0  0  0  0  0  0  0  0  0
   55.9330   24.5380   46.5060 C   0  0  0  0  0  0  0  0  0  0  0  0
   56.0600   25.7940   45.9090 C   0  0  0  0  0  0  0  0  0  0  0  0
   55.0240   26.7150   46.0220 O   0  0  0  0  0  0  0  0  0  0  0  0
   57.9176   32.3373   43.6978 H   0  0  0  0  0  0  0  0  0  0  0  0
   56.3964   33.0455   44.3709 H   0  0  0  0  0  0  0  0  0  0  0  0
   58.8699   34.6978   44.0456 H   0  0  0  0  0  0  0  0  0  0  0  0
   60.2146   36.0584   45.6455 H   0  0  0  0  0  0  0  0  0  0  0  0
   60.2600   35.4597   48.0697 H   0  0  0  0  0  0  0  0  0  0  0  0
   58.9600   33.4940   48.8951 H   0  0  0  0  0  0  0  0  0  0  0  0
   57.6116   32.1276   47.3008 H   0  0  0  0  0  0  0  0  0  0  0  0
   59.1980   25.4551   44.5878 H   0  0  0  0  0  0  0  0  0  0  0  0
   56.8535   22.6136   46.8723 H   0  0  0  0  0  0  0  0  0  0  0  0
   55.0153   24.2835   47.0565 H   0  0  0  0  0  0  0  0  0  0  0  0
  1  2  2  0
  2  3  1  0
  3  4  1  0
  4  5  1  0
  5  6  2  0
  6  7  1  0
  7  8  2  0
  8  9  1  0
  9 10  2  0
  2 11  1  0
 11 12  2  0
 11 13  1  0
 13 14  1  0
 14 15  2  0
 15 16  1  0
 16 17  1  0
 17 18  2  0
 17 19  1  0
 16 20  2  0
 20 21  1  0
 21 22  2  0
 22 23  1  0
 10  5  1  0
 22 14  1  0
  4 24  1  0
  4 25  1  0
  6 26  1  0
  7 27  1  0
  8 28  1  0
  9 29  1  0
 10 30  1  0
 15 31  1  0
 20 32  1  0
 21 33  1  0
M  CHG  5   3  -1  13  -1  17   1  19  -1  23  -1
M  END
>  <UniqueID>  (82) 
77

>  <SMILES>  (82) 
O=C([N-]Cc1ccccc1)C(=O)[N-]c1cc([N+](=O)[O-])ccc1[O-]

>  <Energy>  (82) 
38.67946205246157

>  <Genealogy>  (82) 
O=C([N-]Cc1ccccc1)C(=O)[N-]c1cc([N+](=O)[O-])ccc1[O-] (protonated)
O=C([N-]Cc1ccccc1)C(=O)[N-]c1cc([N+](=O)[O-])ccc1[O-] (3D coordinates assigned)
O=C([N-]Cc1ccccc1)C(=O)[N-]c1cc([N+](=O)[O-])ccc1[O-] (optimized conformer: 38.67946205246157 kcal/mol)

>  <smiles>  (82) 
O=C(NCc1ccccc1)C(=O)Nc1cc([N+](=O)[O-])ccc1O

>  <score_type>  (82) 
oracle

>  <origin>  (82) 
adg

>  <m_score__min__energy>  (82) 
-14.789999999999999

>  <m_primary>  (82) 
energy

$$$$
82:0
     RDKit          3D

 38 40  0  0  0  0  0  0  0  0999 V2000
   56.4170   29.4650   45.2440 O   0  0  0  0  0  0  0  0  0  0  0  0
   57.3630   28.6540   45.4340 C   0  0  0  0  0  0  0  0  0  0  0  0
   57.4460   27.4140   44.5840 C   0  0  0  0  0  0  0  0  0  0  0  0
   57.3080   26.1920   45.3970 N   0  0  0  0  0  0  0  0  0  0  0  0
   58.3830   25.3540   45.5210 C   0  0  0  0  0  0  0  0  0  0  0  0
   58.2950   24.1920   46.2840 C   0  0  0  0  0  0  0  0  0  0  0  0
   57.0970   23.9100   46.9300 C   0  0  0  0  0  0  0  0  0  0  0  0
   56.9800   22.8690   47.6270 O   0  0  0  0  0  0  0  0  0  0  0  0
   56.0510   24.7650   46.8100 N   0  0  0  0  0  0  0  0  0  0  0  0
   56.1430   25.8960   46.0630 C   0  0  0  0  0  0  0  0  0  0  0  0
   55.1450   26.6630   45.9980 O   0  0  0  0  0  0  0  0  0  0  0  0
   58.3770   28.9550   46.4710 C   0  0  0  0  0  0  0  0  0  0  0  0
   59.0820   27.9030   47.0790 C   0  0  0  0  0  0  0  0  0  0  0  0
   59.9860   28.1560   48.1140 C   0  0  0  0  0  0  0  0  0  0  0  0
   60.1890   29.4610   48.5610 C   0  0  0  0  0  0  0  0  0  0  0  0
   59.4990   30.5190   47.9670 C   0  0  0  0  0  0  0  0  0  0  0  0
   58.6100   30.2840   46.9090 C   0  0  0  0  0  0  0  0  0  0  0  0
   57.9550   31.4070   46.2980 N   0  0  0  0  0  0  0  0  0  0  0  0
   58.5250   32.7280   46.2280 C   0  0  0  0  0  0  0  0  0  0  0  0
   58.7540   33.3140   44.9730 C   0  0  0  0  0  0  0  0  0  0  0  0
   59.3080   34.5940   44.8790 C   0  0  0  0  0  0  0  0  0  0  0  0
   59.6290   35.3040   46.0390 C   0  0  0  0  0  0  0  0  0  0  0  0
   59.3920   34.7380   47.2930 C   0  0  0  0  0  0  0  0  0  0  0  0
   58.8360   33.4590   47.3920 C   0  0  0  0  0  0  0  0  0  0  0  0
   56.6399   27.4387   43.8360 H   0  0  0  0  0  0  0  0  0  0  0  0
   58.4319   27.3949   44.0964 H   0  0  0  0  0  0  0  0  0  0  0  0
   59.3267   25.6008   45.0126 H   0  0  0  0  0  0  0  0  0  0  0  0
   59.1551   23.5121   46.3734 H   0  0  0  0  0  0  0  0  0  0  0  0
   58.9208   26.8700   46.7370 H   0  0  0  0  0  0  0  0  0  0  0  0
   60.5381   27.3247   48.5767 H   0  0  0  0  0  0  0  0  0  0  0  0
   60.8936   29.6570   49.3826 H   0  0  0  0  0  0  0  0  0  0  0  0
   59.6540   31.5451   48.3319 H   0  0  0  0  0  0  0  0  0  0  0  0
   56.9670   31.2780   45.9810 H   0  0  0  0  0  0  0  0  0  0  0  0
   58.4957   32.7621   44.0572 H   0  0  0  0  0  0  0  0  0  0  0  0
   59.4913   35.0425   43.8915 H   0  0  0  0  0  0  0  0  0  0  0  0
   60.0687   36.3095   45.9640 H   0  0  0  0  0  0  0  0  0  0  0  0
   59.6432   35.2994   48.2050 H   0  0  0  0  0  0  0  0  0  0  0  0
   58.6406   33.0217   48.3822 H   0  0  0  0  0  0  0  0  0  0  0  0
  1  2  2  0
  2  3  1  0
  3  4  1  0
  4  5  1  0
  5  6  2  0
  6  7  1  0
  7  8  2  0
  7  9  1  0
  9 10  1  0
 10 11  2  0
  2 12  1  0
 12 13  2  0
 13 14  1  0
 14 15  2  0
 15 16  1  0
 16 17  2  0
 17 18  1  0
 18 19  1  0
 19 20  2  0
 20 21  1  0
 21 22  2  0
 22 23  1  0
 23 24  2  0
 10  4  1  0
 17 12  1  0
 24 19  1  0
  3 25  1  0
  3 26  1  0
  5 27  1  0
  6 28  1  0
 13 29  1  0
 14 30  1  0
 15 31  1  0
 16 32  1  0
 18 33  1  0
 20 34  1  0
 21 35  1  0
 22 36  1  0
 23 37  1  0
 24 38  1  0
M  CHG  1   9  -1
M  END
>  <UniqueID>  (83) 
78

>  <SMILES>  (83) 
O=C(Cn1ccc(=O)[n-]c1=O)c1ccccc1Nc1ccccc1

>  <Energy>  (83) 
54.60752643892229

>  <Genealogy>  (83) 
O=C(Cn1ccc(=O)[n-]c1=O)c1ccccc1Nc1ccccc1 (protonated)
O=C(Cn1ccc(=O)[n-]c1=O)c1ccccc1Nc1ccccc1 (3D coordinates assigned)
O=C(Cn1ccc(=O)[n-]c1=O)c1ccccc1Nc1ccccc1 (optimized conformer: 54.60752643892229 kcal/mol)

>  <smiles>  (83) 
O=C(Cn1ccc(=O)[nH]c1=O)c1ccccc1Nc1ccccc1

>  <score_type>  (83) 
oracle

>  <origin>  (83) 
adg

>  <m_score__min__energy>  (83) 
-10.06

>  <m_primary>  (83) 
energy

$$$$
83:0
     RDKit          3D

 43 45  0  0  0  0  0  0  0  0999 V2000
   60.4190   26.9030   47.7880 C   0  0  0  0  0  0  0  0  0  0  0  0
   59.9170   26.2980   46.4800 C   0  0  0  0  0  0  0  0  0  0  0  0
   58.5100   26.7630   46.1720 C   0  0  0  0  0  0  0  0  0  0  0  0
   57.4470   25.8770   46.4020 C   0  0  0  0  0  0  0  0  0  0  0  0
   56.1420   26.2770   46.1140 C   0  0  0  0  0  0  0  0  0  0  0  0
   55.1830   25.4890   46.3230 O   0  0  0  0  0  0  0  0  0  0  0  0
   55.9010   27.4830   45.6170 O   0  0  0  0  0  0  0  0  0  0  0  0
   56.8670   28.3600   45.3630 C   0  0  0  0  0  0  0  0  0  0  0  0
   56.5290   29.6050   44.8240 C   0  0  0  0  0  0  0  0  0  0  0  0
   57.5290   30.5510   44.5320 C   0  0  0  0  0  0  0  0  0  0  0  0
   57.2420   31.8030   43.9650 O   0  0  0  0  0  0  0  0  0  0  0  0
   58.0280   32.9820   44.1430 C   0  0  0  0  0  0  0  0  0  0  0  0
   57.8380   33.5100   45.5280 C   0  0  0  0  0  0  0  0  0  0  0  0
   56.6750   33.5980   46.0060 O   0  0  0  0  0  0  0  0  0  0  0  0
   58.9770   33.8450   46.3270 N   0  0  0  0  0  0  0  0  0  0  0  0
   59.4950   32.9840   47.3830 C   0  0  0  0  0  0  0  0  0  0  0  0
   60.9860   32.8420   47.2370 C   0  0  0  0  0  0  0  0  0  0  0  0
   61.6310   31.6710   47.6620 C   0  0  0  0  0  0  0  0  0  0  0  0
   63.0210   31.5720   47.5610 C   0  0  0  0  0  0  0  0  0  0  0  0
   63.7470   32.6140   47.0730 N   0  0  0  0  0  0  0  0  0  0  0  0
   63.1480   33.7670   46.6680 C   0  0  0  0  0  0  0  0  0  0  0  0
   61.7590   33.9010   46.7400 C   0  0  0  0  0  0  0  0  0  0  0  0
   58.8630   30.2390   44.8070 C   0  0  0  0  0  0  0  0  0  0  0  0
   59.2140   28.9960   45.3380 C   0  0  0  0  0  0  0  0  0  0  0  0
   58.2210   28.0390   45.6270 C   0  0  0  0  0  0  0  0  0  0  0  0
   59.9720   26.3643   48.6365 H   0  0  0  0  0  0  0  0  0  0  0  0
   61.5146   26.8169   47.8351 H   0  0  0  0  0  0  0  0  0  0  0  0
   60.1322   27.9639   47.8351 H   0  0  0  0  0  0  0  0  0  0  0  0
   60.5847   26.6056   45.6618 H   0  0  0  0  0  0  0  0  0  0  0  0
   59.9099   25.2026   46.5805 H   0  0  0  0  0  0  0  0  0  0  0  0
   57.6413   24.8729   46.8070 H   0  0  0  0  0  0  0  0  0  0  0  0
   55.4741   29.8467   44.6268 H   0  0  0  0  0  0  0  0  0  0  0  0
   59.0897   32.7407   43.9862 H   0  0  0  0  0  0  0  0  0  0  0  0
   57.7110   33.7442   43.4160 H   0  0  0  0  0  0  0  0  0  0  0  0
   59.2643   33.4279   48.3626 H   0  0  0  0  0  0  0  0  0  0  0  0
   59.0257   31.9920   47.3068 H   0  0  0  0  0  0  0  0  0  0  0  0
   61.0455   30.8352   48.0726 H   0  0  0  0  0  0  0  0  0  0  0  0
   63.5297   30.6492   47.8768 H   0  0  0  0  0  0  0  0  0  0  0  0
   64.7840   32.5270   47.0050 H   0  0  0  0  0  0  0  0  0  0  0  0
   63.7594   34.5963   46.2827 H   0  0  0  0  0  0  0  0  0  0  0  0
   61.2749   34.8316   46.4088 H   0  0  0  0  0  0  0  0  0  0  0  0
   59.6473   30.9826   44.6024 H   0  0  0  0  0  0  0  0  0  0  0  0
   60.2714   28.7628   45.5317 H   0  0  0  0  0  0  0  0  0  0  0  0
  1  2  1  0
  2  3  1  0
  3  4  2  0
  4  5  1  0
  5  6  2  0
  5  7  1  0
  7  8  1  0
  8  9  2  0
  9 10  1  0
 10 11  1  0
 11 12  1  0
 12 13  1  0
 13 14  2  0
 13 15  1  0
 15 16  1  0
 16 17  1  0
 17 18  2  0
 18 19  1  0
 19 20  2  0
 20 21  1  0
 21 22  2  0
 10 23  2  0
 23 24  1  0
 24 25  2  0
 25  3  1  0
 25  8  1  0
 22 17  1  0
  1 26  1  0
  1 27  1  0
  1 28  1  0
  2 29  1  0
  2 30  1  0
  4 31  1  0
  9 32  1  0
 12 33  1  0
 12 34  1  0
 16 35  1  0
 16 36  1  0
 18 37  1  0
 19 38  1  0
 20 39  1  0
 21 40  1  0
 22 41  1  0
 23 42  1  0
 24 43  1  0
M  CHG  2  15  -1  20   1
M  END
>  <UniqueID>  (84) 
79

>  <SMILES>  (84) 
CCc1cc(=O)oc2cc(OCC(=O)[N-]Cc3cc[nH+]cc3)ccc12

>  <Energy>  (84) 
40.72893176606441

>  <Genealogy>  (84) 
CCc1cc(=O)oc2cc(OCC(=O)[N-]Cc3cc[nH+]cc3)ccc12 (protonated)
CCc1cc(=O)oc2cc(OCC(=O)[N-]Cc3cc[nH+]cc3)ccc12 (3D coordinates assigned)
CCc1cc(=O)oc2cc(OCC(=O)[N-]Cc3cc[nH+]cc3)ccc12 (optimized conformer: 40.72893176606441 kcal/mol)

>  <smiles>  (84) 
CCc1cc(=O)oc2cc(OCC(=O)NCc3ccncc3)ccc12

>  <score_type>  (84) 
oracle

>  <origin>  (84) 
adg

>  <m_score__min__energy>  (84) 
-8.6400000000000006

>  <m_primary>  (84) 
energy

$$$$
84:0
     RDKit          3D

 60 63  0  0  0  0  0  0  0  0999 V2000
   56.3523   21.8596   49.4424 H   0  0  0  0  0  0  0  0  0  0  0  0
   56.1870   22.3790   48.4870 C   0  0  0  0  0  0  0  0  0  0  0  0
   57.2400   22.9140   47.8130 N   0  0  0  0  0  0  0  0  0  0  0  0
   57.0750   23.5720   46.6320 C   0  0  0  0  0  0  0  0  0  0  0  0
   58.4800   24.1920   45.7770 S   0  0  0  0  0  0  0  0  0  0  0  0
   58.0520   24.6650   44.4160 O   0  0  0  0  0  0  0  0  0  0  0  0
   59.5030   23.1040   45.6200 O   0  0  0  0  0  0  0  0  0  0  0  0
   59.1620   25.5200   46.6520 N   0  0  0  0  0  0  0  0  0  0  0  0
   59.1340   26.8410   46.1080 C   0  0  0  0  0  0  0  0  0  0  0  0
   60.3460   27.4500   45.7740 C   0  0  0  0  0  0  0  0  0  0  0  0
   61.2937   26.9315   45.9816 H   0  0  0  0  0  0  0  0  0  0  0  0
   60.3620   28.7090   45.1800 C   0  0  0  0  0  0  0  0  0  0  0  0
   61.3210   29.1884   44.9340 H   0  0  0  0  0  0  0  0  0  0  0  0
   59.1650   29.3620   44.8970 C   0  0  0  0  0  0  0  0  0  0  0  0
   59.1870   30.3530   44.4201 H   0  0  0  0  0  0  0  0  0  0  0  0
   57.9280   28.7710   45.2130 C   0  0  0  0  0  0  0  0  0  0  0  0
   56.6920   29.4950   44.8220 C   0  0  0  0  0  0  0  0  0  0  0  0
   55.5650   28.9470   44.9600 O   0  0  0  0  0  0  0  0  0  0  0  0
   56.7910   30.8420   44.3280 N   0  0  0  0  0  0  0  0  0  0  0  0
   57.3230   31.8870   44.8980 C   0  0  0  0  0  0  0  0  0  0  0  0
   57.6430   31.8040   46.2190 N   0  0  0  0  0  0  0  0  0  0  0  0
   58.2130   32.8320   46.9050 C   0  0  0  0  0  0  0  0  0  0  0  0
   58.5130   32.6640   48.3670 C   0  0  0  0  0  0  0  0  0  0  0  0
   58.2723   33.5976   48.8966 H   0  0  0  0  0  0  0  0  0  0  0  0
   57.9051   31.8381   48.7648 H   0  0  0  0  0  0  0  0  0  0  0  0
   59.9420   32.3470   48.5630 N   0  0  0  0  0  0  0  0  0  0  0  0
   60.4060   31.3770   47.5440 C   0  0  0  0  0  0  0  0  0  0  0  0
   60.0997   30.3647   47.8465 H   0  0  0  0  0  0  0  0  0  0  0  0
   59.9559   31.6455   46.5769 H   0  0  0  0  0  0  0  0  0  0  0  0
   61.9310   31.4150   47.3970 C   0  0  0  0  0  0  0  0  0  0  0  0
   62.3909   31.2236   48.3777 H   0  0  0  0  0  0  0  0  0  0  0  0
   62.2304   30.6445   46.6713 H   0  0  0  0  0  0  0  0  0  0  0  0
   62.3880   32.7320   46.8980 N   0  0  0  0  0  0  0  0  0  0  0  0
   63.7940   32.9610   47.2620 C   0  0  0  0  0  0  0  0  0  0  0  0
   63.8912   32.9768   48.3576 H   0  0  0  0  0  0  0  0  0  0  0  0
   64.4157   32.1523   46.8504 H   0  0  0  0  0  0  0  0  0  0  0  0
   64.1270   33.9252   46.8504 H   0  0  0  0  0  0  0  0  0  0  0  0
   61.5250   33.8620   47.3250 C   0  0  0  0  0  0  0  0  0  0  0  0
   62.1536   34.7539   47.4638 H   0  0  0  0  0  0  0  0  0  0  0  0
   60.7681   34.0205   46.5427 H   0  0  0  0  0  0  0  0  0  0  0  0
   60.7850   33.5690   48.6420 C   0  0  0  0  0  0  0  0  0  0  0  0
   61.5283   33.4334   49.4414 H   0  0  0  0  0  0  0  0  0  0  0  0
   60.1198   34.4206   48.8476 H   0  0  0  0  0  0  0  0  0  0  0  0
   58.4970   34.0320   46.2420 C   0  0  0  0  0  0  0  0  0  0  0  0
   58.9496   34.8741   46.7860 H   0  0  0  0  0  0  0  0  0  0  0  0
   58.2000   34.1480   44.8850 C   0  0  0  0  0  0  0  0  0  0  0  0
   58.4253   35.0832   44.3515 H   0  0  0  0  0  0  0  0  0  0  0  0
   57.6170   33.0790   44.2020 C   0  0  0  0  0  0  0  0  0  0  0  0
   57.3885   33.1652   43.1294 H   0  0  0  0  0  0  0  0  0  0  0  0
   57.9100   27.5070   45.8660 C   0  0  0  0  0  0  0  0  0  0  0  0
   56.6100   26.8680   46.3000 C   0  0  0  0  0  0  0  0  0  0  0  0
   56.5619   26.8444   47.3987 H   0  0  0  0  0  0  0  0  0  0  0  0
   55.7650   27.4534   45.9085 H   0  0  0  0  0  0  0  0  0  0  0  0
   56.5574   25.8414   45.9085 H   0  0  0  0  0  0  0  0  0  0  0  0
   55.7940   23.7020   46.0810 C   0  0  0  0  0  0  0  0  0  0  0  0
   55.6505   24.2304   45.1270 H   0  0  0  0  0  0  0  0  0  0  0  0
   54.7010   23.1540   46.7550 C   0  0  0  0  0  0  0  0  0  0  0  0
   53.6896   23.2463   46.3324 H   0  0  0  0  0  0  0  0  0  0  0  0
   54.8950   22.4890   47.9660 C   0  0  0  0  0  0  0  0  0  0  0  0
   54.0397   22.0557   48.5052 H   0  0  0  0  0  0  0  0  0  0  0  0
  1  2  1  0
  2  3  2  0
  3  4  1  0
  4  5  1  0
  5  6  2  0
  5  7  2  0
  5  8  1  0
  8  9  1  0
  9 10  2  0
 10 11  1  0
 10 12  1  0
 12 13  1  0
 12 14  2  0
 14 15  1  0
 14 16  1  0
 16 17  1  0
 17 18  2  0
 17 19  1  0
 19 20  2  0
 20 21  1  0
 21 22  1  0
 22 23  1  0
 23 24  1  0
 23 25  1  0
 23 26  1  0
 26 27  1  0
 27 28  1  0
 27 29  1  0
 27 30  1  0
 30 31  1  0
 30 32  1  0
 30 33  1  0
 33 34  1  0
 34 35  1  0
 34 36  1  0
 34 37  1  0
 33 38  1  0
 38 39  1  0
 38 40  1  0
 38 41  1  0
 41 42  1  0
 41 43  1  0
 22 44  2  0
 44 45  1  0
 44 46  1  0
 46 47  1  0
 46 48  2  0
 48 49  1  0
 16 50  2  0
 50 51  1  0
 51 52  1  0
 51 53  1  0
 51 54  1  0
  4 55  2  0
 55 56  1  0
 55 57  1  0
 57 58  1  0
 57 59  2  0
 59 60  1  0
 59  2  1  0
 50  9  1  0
 48 20  1  0
 41 26  1  0
M  CHG  2   8  -1  21  -1
M  END
>  <UniqueID>  (85) 
80

>  <SMILES>  (85) 
Cc1c([N-]S(=O)(=O)c2ccccn2)cccc1C(=O)/N=c1\cccc(CN2CCN(C)CC2)[n-]1

>  <Energy>  (85) 
98.51576564189057

>  <Genealogy>  (85) 
Cc1c([N-]S(=O)(=O)c2ccccn2)cccc1C(=O)N=c1cccc(CN2CCN(C)CC2)[n-]1 (protonated)
Cc1c([N-]S(=O)(=O)c2ccccn2)cccc1C(=O)/N=c1\cccc(CN2CCN(C)CC2)[n-]1 (cis-trans isomerization)
Cc1c([N-]S(=O)(=O)c2ccccn2)cccc1C(=O)/N=c1\cccc(CN2CCN(C)CC2)[n-]1 (3D coordinates assigned)
Cc1c([N-]S(=O)(=O)c2ccccn2)cccc1C(=O)/N=c1\cccc(CN2CCN(C)CC2)[n-]1 (nonaromatic ring conformer: 98.51576564189057 kcal/mol)

>  <smiles>  (85) 
Cc1c(NS(=O)(=O)c2ccccn2)cccc1C(=O)N=c1cccc(CN2CCN(C)CC2)[nH]1

>  <score_type>  (85) 
oracle

>  <origin>  (85) 
adg

>  <m_score__min__energy>  (85) 
-12.52

>  <m_primary>  (85) 
energy

$$$$
85:0
     RDKit          3D

 53 55  0  0  0  0  0  0  0  0999 V2000
   56.3310   20.6730   44.5310 C   0  0  0  0  0  0  0  0  0  0  0  0
   55.4250   21.7590   44.6990 O   0  0  0  0  0  0  0  0  0  0  0  0
   55.8110   23.0750   44.9910 C   0  0  0  0  0  0  0  0  0  0  0  0
   57.1680   23.4060   44.9090 C   0  0  0  0  0  0  0  0  0  0  0  0
   57.6040   24.7020   45.1940 C   0  0  0  0  0  0  0  0  0  0  0  0
   56.6830   25.6910   45.5840 C   0  0  0  0  0  0  0  0  0  0  0  0
   57.0900   27.0380   45.8660 N   0  0  0  0  0  0  0  0  0  0  0  0
   57.9060   27.8790   45.0400 C   0  0  0  0  0  0  0  0  0  0  0  0
   58.6810   27.3700   44.1850 O   0  0  0  0  0  0  0  0  0  0  0  0
   57.8450   29.3490   45.2180 C   0  0  0  0  0  0  0  0  0  0  0  0
   58.7610   30.0430   45.9230 C   0  0  0  0  0  0  0  0  0  0  0  0
   59.0460   29.8410   47.3620 C   0  0  0  0  0  0  0  0  0  0  0  0
   59.6460   28.6540   47.7940 C   0  0  0  0  0  0  0  0  0  0  0  0
   59.9590   27.6490   46.8830 O   0  0  0  0  0  0  0  0  0  0  0  0
   59.9130   28.4740   49.1110 N   0  0  0  0  0  0  0  0  0  0  0  0
   59.6240   29.4270   50.0310 C   0  0  0  0  0  0  0  0  0  0  0  0
   59.8730   29.2010   51.2480 O   0  0  0  0  0  0  0  0  0  0  0  0
   59.0650   30.6160   49.6410 N   0  0  0  0  0  0  0  0  0  0  0  0
   58.7620   31.6300   50.6220 C   0  0  0  0  0  0  0  0  0  0  0  0
   59.4810   32.8350   50.6200 C   0  0  0  0  0  0  0  0  0  0  0  0
   59.2010   33.8250   51.5640 C   0  0  0  0  0  0  0  0  0  0  0  0
   58.2020   33.6180   52.5160 C   0  0  0  0  0  0  0  0  0  0  0  0
   57.4820   32.4210   52.5310 C   0  0  0  0  0  0  0  0  0  0  0  0
   57.7580   31.4120   51.5860 C   0  0  0  0  0  0  0  0  0  0  0  0
   57.0680   30.1890   51.5780 O   0  0  0  0  0  0  0  0  0  0  0  0
   56.8370   29.3860   52.7300 C   0  0  0  0  0  0  0  0  0  0  0  0
   58.7880   30.8400   48.3180 C   0  0  0  0  0  0  0  0  0  0  0  0
   58.3170   31.9540   47.9480 O   0  0  0  0  0  0  0  0  0  0  0  0
   56.5110   30.2280   44.4650 S   0  0  0  0  0  0  0  0  0  0  0  0
   56.6420   30.0940   42.6970 C   0  0  0  0  0  0  0  0  0  0  0  0
   55.1940   29.6600   44.9140 O   0  0  0  0  0  0  0  0  0  0  0  0
   56.5680   31.6760   44.8650 O   0  0  0  0  0  0  0  0  0  0  0  0
   55.3190   25.3690   45.6440 C   0  0  0  0  0  0  0  0  0  0  0  0
   54.3890   26.3400   45.9970 O   0  0  0  0  0  0  0  0  0  0  0  0
   54.8850   24.0710   45.3560 C   0  0  0  0  0  0  0  0  0  0  0  0
   56.6426   20.2995   45.5176 H   0  0  0  0  0  0  0  0  0  0  0  0
   55.8354   19.8650   43.9728 H   0  0  0  0  0  0  0  0  0  0  0  0
   57.2147   21.0157   43.9728 H   0  0  0  0  0  0  0  0  0  0  0  0
   57.8990   22.6376   44.6171 H   0  0  0  0  0  0  0  0  0  0  0  0
   58.6725   24.9504   45.1131 H   0  0  0  0  0  0  0  0  0  0  0  0
   59.3377   30.8142   45.3914 H   0  0  0  0  0  0  0  0  0  0  0  0
   59.2310   27.1820   46.3530 H   0  0  0  0  0  0  0  0  0  0  0  0
   60.2693   33.0006   49.8709 H   0  0  0  0  0  0  0  0  0  0  0  0
   59.7677   34.7678   51.5572 H   0  0  0  0  0  0  0  0  0  0  0  0
   57.9807   34.4001   53.2572 H   0  0  0  0  0  0  0  0  0  0  0  0
   56.6956   32.2650   53.2841 H   0  0  0  0  0  0  0  0  0  0  0  0
   57.0096   29.9859   53.6357 H   0  0  0  0  0  0  0  0  0  0  0  0
   55.7983   29.0240   52.7224 H   0  0  0  0  0  0  0  0  0  0  0  0
   57.5246   28.5274   52.7224 H   0  0  0  0  0  0  0  0  0  0  0  0
   57.3900   29.3289   42.4417 H   0  0  0  0  0  0  0  0  0  0  0  0
   55.6663   29.8073   42.2777 H   0  0  0  0  0  0  0  0  0  0  0  0
   56.9508   31.0629   42.2777 H   0  0  0  0  0  0  0  0  0  0  0  0
   53.8141   23.8268   45.4150 H   0  0  0  0  0  0  0  0  0  0  0  0
  1  2  1  0
  2  3  1  0
  3  4  2  0
  4  5  1  0
  5  6  2  0
  6  7  1  0
  7  8  1  0
  8  9  2  0
  8 10  1  0
 10 11  2  3
 11 12  1  0
 12 13  2  0
 13 14  1  0
 13 15  1  0
 15 16  1  0
 16 17  2  0
 16 18  1  0
 18 19  1  0
 19 20  2  0
 20 21  1  0
 21 22  2  0
 22 23  1  0
 23 24  2  0
 24 25  1  0
 25 26  1  0
 18 27  1  0
 27 28  2  0
 10 29  1  0
 29 30  1  0
 29 31  2  0
 29 32  2  0
  6 33  1  0
 33 34  1  0
 33 35  2  0
 35  3  1  0
 27 12  1  0
 24 19  1  0
  1 36  1  0
  1 37  1  0
  1 38  1  0
  4 39  1  0
  5 40  1  0
 11 41  1  0
 14 42  1  0
 20 43  1  0
 21 44  1  0
 22 45  1  0
 23 46  1  0
 26 47  1  0
 26 48  1  0
 26 49  1  0
 30 50  1  0
 30 51  1  0
 30 52  1  0
 35 53  1  0
M  CHG  3   7  -1  15  -1  34  -1
M  END
>  <UniqueID>  (86) 
81

>  <SMILES>  (86) 
COc1ccc([N-]C(=O)C(=Cc2c(O)[n-]c(=O)n(-c3ccccc3OC)c2=O)S(C)(=O)=O)c([O-])c1

>  <Energy>  (86) 
75.56301297631362

>  <Genealogy>  (86) 
COc1ccc([N-]C(=O)C(=Cc2c(O)[n-]c(=O)n(-c3ccccc3OC)c2=O)S(C)(=O)=O)c([O-])c1 (protonated)
COc1ccc([N-]C(=O)C(=Cc2c(O)[n-]c(=O)n(-c3ccccc3OC)c2=O)S(C)(=O)=O)c([O-])c1 (3D coordinates assigned)
COc1ccc([N-]C(=O)C(=Cc2c(O)[n-]c(=O)n(-c3ccccc3OC)c2=O)S(C)(=O)=O)c([O-])c1 (optimized conformer: 75.56301297631362 kcal/mol)

>  <smiles>  (86) 
COc1ccc(NC(=O)C(=Cc2c(O)[nH]c(=O)n(-c3ccccc3OC)c2=O)S(C)(=O)=O)c(O)c1

>  <score_type>  (86) 
oracle

>  <origin>  (86) 
adg

>  <m_score__min__energy>  (86) 
-15.43

>  <m_primary>  (86) 
energy

$$$$
86:0
     RDKit          3D

 29 30  0  0  0  0  0  0  0  0999 V2000
   60.9260   30.1240   46.9090 O   0  0  0  0  0  0  0  0  0  0  0  0
   60.6310   31.3460   46.9520 C   0  0  0  0  0  0  0  0  0  0  0  0
   59.3700   31.8790   46.3830 C   0  0  0  0  0  0  0  0  0  0  0  0
   58.8250   31.2120   45.2740 C   0  0  0  0  0  0  0  0  0  0  0  0
   57.6330   31.6670   44.6900 C   0  0  0  0  0  0  0  0  0  0  0  0
   57.0420   30.9870   43.5230 C   0  0  0  0  0  0  0  0  0  0  0  0
   56.9960   31.5830   42.4130 O   0  0  0  0  0  0  0  0  0  0  0  0
   56.5170   29.6590   43.6440 N   0  0  0  0  0  0  0  0  0  0  0  0
   55.9260   29.1300   44.8680 C   0  0  0  0  0  0  0  0  0  0  0  0
   56.7590   27.9930   45.4020 C   0  0  0  0  0  0  0  0  0  0  0  0
   58.1610   28.0810   45.3400 C   0  0  0  0  0  0  0  0  0  0  0  0
   58.9580   27.0340   45.8110 C   0  0  0  0  0  0  0  0  0  0  0  0
   58.3640   25.8900   46.3470 C   0  0  0  0  0  0  0  0  0  0  0  0
   56.9720   25.7890   46.4120 C   0  0  0  0  0  0  0  0  0  0  0  0
   56.1670   26.8330   45.9420 C   0  0  0  0  0  0  0  0  0  0  0  0
   54.7830   26.7060   46.0160 O   0  0  0  0  0  0  0  0  0  0  0  0
   57.0120   32.7600   45.2070 N   0  0  0  0  0  0  0  0  0  0  0  0
   57.5080   33.4310   46.2770 C   0  0  0  0  0  0  0  0  0  0  0  0
   58.6910   33.0140   46.8930 C   0  0  0  0  0  0  0  0  0  0  0  0
   59.2750   33.9720   48.3150 S   0  0  0  0  0  0  0  0  0  0  0  0
   61.3342   32.0445   47.4291 H   0  0  0  0  0  0  0  0  0  0  0  0
   59.3347   30.3289   44.8613 H   0  0  0  0  0  0  0  0  0  0  0  0
   55.8769   29.9293   45.6222 H   0  0  0  0  0  0  0  0  0  0  0  0
   54.9146   28.7590   44.6457 H   0  0  0  0  0  0  0  0  0  0  0  0
   58.6337   28.9801   44.9179 H   0  0  0  0  0  0  0  0  0  0  0  0
   60.0541   27.1114   45.7593 H   0  0  0  0  0  0  0  0  0  0  0  0
   58.9925   25.0673   46.7185 H   0  0  0  0  0  0  0  0  0  0  0  0
   56.5071   24.8858   46.8340 H   0  0  0  0  0  0  0  0  0  0  0  0
   56.9738   34.3116   46.6632 H   0  0  0  0  0  0  0  0  0  0  0  0
  1  2  2  0
  2  3  1  0
  3  4  2  0
  4  5  1  0
  5  6  1  0
  6  7  2  0
  6  8  1  0
  8  9  1  0
  9 10  1  0
 10 11  2  0
 11 12  1  0
 12 13  2  0
 13 14  1  0
 14 15  2  0
 15 16  1  0
  5 17  2  0
 17 18  1  0
 18 19  2  0
 19 20  1  0
 19  3  1  0
 15 10  1  0
  2 21  1  0
  4 22  1  0
  9 23  1  0
  9 24  1  0
 11 25  1  0
 12 26  1  0
 13 27  1  0
 14 28  1  0
 18 29  1  0
M  CHG  3   8  -1  16  -1  20  -1
M  END
>  <UniqueID>  (87) 
82

>  <SMILES>  (87) 
O=Cc1cc(C(=O)[N-]Cc2ccccc2[O-])ncc1[S-]

>  <Energy>  (87) 
32.69520968734685

>  <Genealogy>  (87) 
O=Cc1cc(C(=O)[N-]Cc2ccccc2[O-])ncc1[S-] (protonated)
O=Cc1cc(C(=O)[N-]Cc2ccccc2[O-])ncc1[S-] (3D coordinates assigned)
O=Cc1cc(C(=O)[N-]Cc2ccccc2[O-])ncc1[S-] (optimized conformer: 32.69520968734685 kcal/mol)

>  <smiles>  (87) 
O=Cc1cc(C(=O)NCc2ccccc2O)ncc1S

>  <score_type>  (87) 
oracle

>  <origin>  (87) 
adg

>  <m_score__min__energy>  (87) 
-13.24

>  <m_primary>  (87) 
energy

$$$$
87:0
     RDKit          3D

 57 60  0  0  0  0  0  0  0  0999 V2000
   55.1560   29.3170   44.7320 O   0  0  0  0  0  0  0  0  0  0  0  0
   56.3710   29.6220   44.5850 C   0  0  0  0  0  0  0  0  0  0  0  0
   57.1040   29.1280   43.3700 C   0  0  0  0  0  0  0  0  0  0  0  0
   57.8250   27.4830   43.7030 S   0  0  0  0  0  0  0  0  0  0  0  0
   58.9690   28.0390   44.9780 C   0  0  0  0  0  0  0  0  0  0  0  0
   59.7290   29.1350   44.7110 N   0  0  0  0  0  0  0  0  0  0  0  0
   60.5630   29.6790   45.6330 C   0  0  0  0  0  0  0  0  0  0  0  0
   60.6450   29.1280   46.9110 C   0  0  0  0  0  0  0  0  0  0  0  0
   59.8740   28.0110   47.2240 C   0  0  0  0  0  0  0  0  0  0  0  0
   59.0320   27.4370   46.2580 C   0  0  0  0  0  0  0  0  0  0  0  0
   58.2430   26.2400   46.6090 C   0  0  0  0  0  0  0  0  0  0  0  0
   57.3570   26.3180   47.5030 O   0  0  0  0  0  0  0  0  0  0  0  0
   58.5530   24.9780   46.0090 N   0  0  0  0  0  0  0  0  0  0  0  0
   57.6380   24.0990   45.3440 C   0  0  0  0  0  0  0  0  0  0  0  0
   58.1570   23.1270   44.4810 C   0  0  0  0  0  0  0  0  0  0  0  0
   57.2980   22.2900   43.7660 C   0  0  0  0  0  0  0  0  0  0  0  0
   55.9150   22.4450   43.8770 C   0  0  0  0  0  0  0  0  0  0  0  0
   55.3810   23.4300   44.7170 C   0  0  0  0  0  0  0  0  0  0  0  0
   53.6340   23.6610   44.8180 S   0  0  0  0  0  0  0  0  0  0  0  0
   53.3450   24.9710   45.4950 O   0  0  0  0  0  0  0  0  0  0  0  0
   53.0650   23.7190   43.4280 O   0  0  0  0  0  0  0  0  0  0  0  0
   52.8600   22.3730   45.7130 N   0  0  0  0  0  0  0  0  0  0  0  0
   51.5840   22.8340   46.2850 C   0  0  0  0  0  0  0  0  0  0  0  0
   51.1660   21.9470   47.4680 C   0  0  0  0  0  0  0  0  0  0  0  0
   52.0990   21.9430   48.5390 O   0  0  0  0  0  0  0  0  0  0  0  0
   53.4300   22.2380   48.1450 C   0  0  0  0  0  0  0  0  0  0  0  0
   53.7650   21.7760   46.7160 C   0  0  0  0  0  0  0  0  0  0  0  0
   56.2460   24.2490   45.4580 C   0  0  0  0  0  0  0  0  0  0  0  0
   57.0370   30.3320   45.6400 N   0  0  0  0  0  0  0  0  0  0  0  0
   57.6420   31.6290   45.5270 C   0  0  0  0  0  0  0  0  0  0  0  0
   57.7470   32.2230   44.2610 C   0  0  0  0  0  0  0  0  0  0  0  0
   58.3810   33.4580   44.1120 C   0  0  0  0  0  0  0  0  0  0  0  0
   58.9280   34.1020   45.2250 C   0  0  0  0  0  0  0  0  0  0  0  0
   59.5430   35.2990   45.0800 F   0  0  0  0  0  0  0  0  0  0  0  0
   58.8490   33.5040   46.4870 C   0  0  0  0  0  0  0  0  0  0  0  0
   58.2160   32.2670   46.6410 C   0  0  0  0  0  0  0  0  0  0  0  0
   58.2240   31.6620   47.8560 F   0  0  0  0  0  0  0  0  0  0  0  0
   56.4025   29.0544   42.5259 H   0  0  0  0  0  0  0  0  0  0  0  0
   57.9112   29.8333   43.1230 H   0  0  0  0  0  0  0  0  0  0  0  0
   61.1747   30.5552   45.3719 H   0  0  0  0  0  0  0  0  0  0  0  0
   61.3122   29.5711   47.6650 H   0  0  0  0  0  0  0  0  0  0  0  0
   59.9250   27.5763   48.2332 H   0  0  0  0  0  0  0  0  0  0  0  0
   59.2459   23.0220   44.3656 H   0  0  0  0  0  0  0  0  0  0  0  0
   57.7119   21.5068   43.1139 H   0  0  0  0  0  0  0  0  0  0  0  0
   55.2424   21.7911   43.3026 H   0  0  0  0  0  0  0  0  0  0  0  0
   51.6986   23.8708   46.6341 H   0  0  0  0  0  0  0  0  0  0  0  0
   50.8073   22.7760   45.5083 H   0  0  0  0  0  0  0  0  0  0  0  0
   50.2008   22.3107   47.8502 H   0  0  0  0  0  0  0  0  0  0  0  0
   51.1074   20.9156   47.0902 H   0  0  0  0  0  0  0  0  0  0  0  0
   53.5766   23.3267   48.2021 H   0  0  0  0  0  0  0  0  0  0  0  0
   54.0976   21.6903   48.8264 H   0  0  0  0  0  0  0  0  0  0  0  0
   54.7985   22.0704   46.4811 H   0  0  0  0  0  0  0  0  0  0  0  0
   53.6424   20.6836   46.6755 H   0  0  0  0  0  0  0  0  0  0  0  0
   55.8318   25.0131   46.1322 H   0  0  0  0  0  0  0  0  0  0  0  0
   57.3278   31.7134   43.3809 H   0  0  0  0  0  0  0  0  0  0  0  0
   58.4499   33.9242   43.1181 H   0  0  0  0  0  0  0  0  0  0  0  0
   59.2863   34.0086   47.3611 H   0  0  0  0  0  0  0  0  0  0  0  0
  1  2  2  0
  2  3  1  0
  3  4  1  0
  4  5  1  0
  5  6  2  0
  6  7  1  0
  7  8  2  0
  8  9  1  0
  9 10  2  0
 10 11  1  0
 11 12  2  0
 11 13  1  0
 13 14  1  0
 14 15  2  0
 15 16  1  0
 16 17  2  0
 17 18  1  0
 18 19  1  0
 19 20  2  0
 19 21  2  0
 19 22  1  0
 22 23  1  0
 23 24  1  0
 24 25  1  0
 25 26  1  0
 26 27  1  0
 18 28  2  0
  2 29  1  0
 29 30  1  0
 30 31  2  0
 31 32  1  0
 32 33  2  0
 33 34  1  0
 33 35  1  0
 35 36  2  0
 36 37  1  0
 10  5  1  0
 28 14  1  0
 36 30  1  0
 27 22  1  0
  3 38  1  0
  3 39  1  0
  7 40  1  0
  8 41  1  0
  9 42  1  0
 15 43  1  0
 16 44  1  0
 17 45  1  0
 23 46  1  0
 23 47  1  0
 24 48  1  0
 24 49  1  0
 26 50  1  0
 26 51  1  0
 27 52  1  0
 27 53  1  0
 28 54  1  0
 31 55  1  0
 32 56  1  0
 35 57  1  0
M  CHG  2  13  -1  29  -1
M  END
>  <UniqueID>  (88) 
83

>  <SMILES>  (88) 
O=C(CSc1ncccc1C(=O)[N-]c1cccc(S(=O)(=O)N2CCOCC2)c1)[N-]c1ccc(F)cc1F

>  <Energy>  (88) 
79.16610413300519

>  <Genealogy>  (88) 
O=C(CSc1ncccc1C(=O)[N-]c1cccc(S(=O)(=O)N2CCOCC2)c1)[N-]c1ccc(F)cc1F (protonated)
O=C(CSc1ncccc1C(=O)[N-]c1cccc(S(=O)(=O)N2CCOCC2)c1)[N-]c1ccc(F)cc1F (3D coordinates assigned)
O=C(CSc1ncccc1C(=O)[N-]c1cccc(S(=O)(=O)N2CCOCC2)c1)[N-]c1ccc(F)cc1F (nonaromatic ring conformer: 79.16610413300519 kcal/mol)

>  <smiles>  (88) 
O=C(CSc1ncccc1C(=O)Nc1cccc(S(=O)(=O)N2CCOCC2)c1)Nc1ccc(F)cc1F

>  <score_type>  (88) 
oracle

>  <origin>  (88) 
adg

>  <m_score__min__energy>  (88) 
-13.67

>  <m_primary>  (88) 
energy

$$$$
88:0
     RDKit          3D

 57 60  0  0  0  0  0  0  0  0999 V2000
   66.4230   32.6440   49.7730 N   0  0  0  0  0  0  0  0  0  0  0  0
   65.0780   33.0540   50.0140 C   0  0  0  0  0  0  0  0  0  0  0  0
   64.8620   34.0040   50.8100 O   0  0  0  0  0  0  0  0  0  0  0  0
   63.9500   32.3720   49.3370 C   0  0  0  0  0  0  0  0  0  0  0  0
   63.6470   32.6490   47.9930 C   0  0  0  0  0  0  0  0  0  0  0  0
   62.5840   32.0020   47.3570 C   0  0  0  0  0  0  0  0  0  0  0  0
   61.7990   31.0620   48.0470 C   0  0  0  0  0  0  0  0  0  0  0  0
   60.7060   30.3910   47.3860 N   0  0  0  0  0  0  0  0  0  0  0  0
   59.8710   29.4790   47.9360 C   0  0  0  0  0  0  0  0  0  0  0  0
   58.9430   29.0590   47.0030 C   0  0  0  0  0  0  0  0  0  0  0  0
   59.2330   29.7430   45.8380 C   0  0  0  0  0  0  0  0  0  0  0  0
   58.4830   29.6630   44.5440 C   0  0  0  0  0  0  0  0  0  0  0  0
   57.0720   30.1480   44.7300 C   0  0  0  0  0  0  0  0  0  0  0  0
   56.2310   29.3750   45.2600 O   0  0  0  0  0  0  0  0  0  0  0  0
   56.6310   31.4310   44.2660 N   0  0  0  0  0  0  0  0  0  0  0  0
   57.4610   32.6240   44.1310 C   0  0  0  0  0  0  0  0  0  0  0  0
   58.1320   32.9510   45.4390 C   0  0  0  0  0  0  0  0  0  0  0  0
   59.3480   33.6520   45.4640 C   0  0  0  0  0  0  0  0  0  0  0  0
   59.9750   33.9330   46.6810 C   0  0  0  0  0  0  0  0  0  0  0  0
   59.3910   33.5330   47.8970 C   0  0  0  0  0  0  0  0  0  0  0  0
   60.0690   33.8130   49.1850 C   0  0  0  0  0  0  0  0  0  0  0  0
   60.6180   34.9320   49.3740 O   0  0  0  0  0  0  0  0  0  0  0  0
   60.1540   32.7890   50.1860 N   0  0  0  0  0  0  0  0  0  0  0  0
   59.0890   32.2690   51.0000 C   0  0  0  0  0  0  0  0  0  0  0  0
   58.8170   30.8880   51.0650 C   0  0  0  0  0  0  0  0  0  0  0  0
   57.7730   30.4120   51.8620 C   0  0  0  0  0  0  0  0  0  0  0  0
   57.0080   31.2990   52.6210 C   0  0  0  0  0  0  0  0  0  0  0  0
   57.2920   32.6660   52.5940 C   0  0  0  0  0  0  0  0  0  0  0  0
   58.3340   33.1600   51.7930 C   0  0  0  0  0  0  0  0  0  0  0  0
   58.6040   34.5680   51.7830 N   0  0  0  0  0  0  0  0  0  0  0  0
   58.1590   32.8540   47.8680 C   0  0  0  0  0  0  0  0  0  0  0  0
   57.5350   32.5680   46.6500 C   0  0  0  0  0  0  0  0  0  0  0  0
   60.3170   30.5560   46.1030 C   0  0  0  0  0  0  0  0  0  0  0  0
   62.1040   30.7870   49.3910 C   0  0  0  0  0  0  0  0  0  0  0  0
   63.1660   31.4340   50.0290 C   0  0  0  0  0  0  0  0  0  0  0  0
   66.8700   32.7910   48.8400 H   0  0  0  0  0  0  0  0  0  0  0  0
   64.2514   33.3809   47.4371 H   0  0  0  0  0  0  0  0  0  0  0  0
   62.3591   32.2309   46.3048 H   0  0  0  0  0  0  0  0  0  0  0  0
   59.9237   29.1236   48.9757 H   0  0  0  0  0  0  0  0  0  0  0  0
   58.1359   28.3275   47.1565 H   0  0  0  0  0  0  0  0  0  0  0  0
   58.9864   30.2896   43.7930 H   0  0  0  0  0  0  0  0  0  0  0  0
   58.4609   28.6163   44.2064 H   0  0  0  0  0  0  0  0  0  0  0  0
   58.2296   32.4453   43.3647 H   0  0  0  0  0  0  0  0  0  0  0  0
   56.8223   33.4702   43.8377 H   0  0  0  0  0  0  0  0  0  0  0  0
   59.8094   33.9816   44.5214 H   0  0  0  0  0  0  0  0  0  0  0  0
   60.9339   34.4719   46.6883 H   0  0  0  0  0  0  0  0  0  0  0  0
   59.4295   30.1815   50.4856 H   0  0  0  0  0  0  0  0  0  0  0  0
   57.5532   29.3346   51.8915 H   0  0  0  0  0  0  0  0  0  0  0  0
   56.1813   30.9212   53.2405 H   0  0  0  0  0  0  0  0  0  0  0  0
   56.6956   33.3602   53.2042 H   0  0  0  0  0  0  0  0  0  0  0  0
   58.0590   35.2200   52.3930 H   0  0  0  0  0  0  0  0  0  0  0  0
   59.3280   34.9850   51.1570 H   0  0  0  0  0  0  0  0  0  0  0  0
   57.6832   32.5459   48.8107 H   0  0  0  0  0  0  0  0  0  0  0  0
   56.5703   32.0396   46.6408 H   0  0  0  0  0  0  0  0  0  0  0  0
   60.7917   31.2349   45.3793 H   0  0  0  0  0  0  0  0  0  0  0  0
   61.5003   30.0545   49.9469 H   0  0  0  0  0  0  0  0  0  0  0  0
   63.3898   31.2068   51.0818 H   0  0  0  0  0  0  0  0  0  0  0  0
  1  2  1  0
  2  3  2  0
  2  4  1  0
  4  5  2  0
  5  6  1  0
  6  7  2  0
  7  8  1  0
  8  9  1  0
  9 10  2  0
 10 11  1  0
 11 12  1  0
 12 13  1  0
 13 14  2  0
 13 15  1  0
 15 16  1  0
 16 17  1  0
 17 18  2  0
 18 19  1  0
 19 20  2  0
 20 21  1  0
 21 22  2  0
 21 23  1  0
 23 24  1  0
 24 25  2  0
 25 26  1  0
 26 27  2  0
 27 28  1  0
 28 29  2  0
 29 30  1  0
 20 31  1  0
 31 32  2  0
 11 33  2  0
  7 34  1  0
 34 35  2  0
 35  4  1  0
 33  8  1  0
 32 17  1  0
 29 24  1  0
  1 36  1  0
  5 37  1  0
  6 38  1  0
  9 39  1  0
 10 40  1  0
 12 41  1  0
 12 42  1  0
 16 43  1  0
 16 44  1  0
 18 45  1  0
 19 46  1  0
 25 47  1  0
 26 48  1  0
 27 49  1  0
 28 50  1  0
 30 51  1  0
 30 52  1  0
 31 53  1  0
 32 54  1  0
 33 55  1  0
 34 56  1  0
 35 57  1  0
M  CHG  3   1  -1  15  -1  23  -1
M  END
>  <UniqueID>  (89) 
84

>  <SMILES>  (89) 
[NH-]C(=O)c1ccc(-n2ccc(CC(=O)[N-]Cc3ccc(C(=O)[N-]c4ccccc4N)cc3)c2)cc1

>  <Energy>  (89) 
92.00748119063027

>  <Genealogy>  (89) 
[NH-]C(=O)c1ccc(-n2ccc(CC(=O)[N-]Cc3ccc(C(=O)[N-]c4ccccc4N)cc3)c2)cc1 (protonated)
[NH-]C(=O)c1ccc(-n2ccc(CC(=O)[N-]Cc3ccc(C(=O)[N-]c4ccccc4N)cc3)c2)cc1 (3D coordinates assigned)
[NH-]C(=O)c1ccc(-n2ccc(CC(=O)[N-]Cc3ccc(C(=O)[N-]c4ccccc4N)cc3)c2)cc1 (optimized conformer: 92.00748119063027 kcal/mol)

>  <smiles>  (89) 
NC(=O)c1ccc(-n2ccc(CC(=O)NCc3ccc(C(=O)Nc4ccccc4N)cc3)c2)cc1

>  <score_type>  (89) 
oracle

>  <origin>  (89) 
adg

>  <m_score__min__energy>  (89) 
-11.94

>  <m_primary>  (89) 
energy

$$$$
89:0
     RDKit          3D

 34 36  0  0  0  0  0  0  0  0999 V2000
   56.0990   22.6590   47.9140 O   0  0  0  0  0  0  0  0  0  0  0  0
   56.5020   23.6300   47.2200 C   0  0  0  0  0  0  0  0  0  0  0  0
   55.5910   24.6630   46.8520 N   0  0  0  0  0  0  0  0  0  0  0  0
   56.0080   25.7740   46.0550 C   0  0  0  0  0  0  0  0  0  0  0  0
   55.2050   26.7280   45.8870 O   0  0  0  0  0  0  0  0  0  0  0  0
   57.3900   25.8120   45.4990 C   0  0  0  0  0  0  0  0  0  0  0  0
   57.8200   26.7460   44.6200 C   0  0  0  0  0  0  0  0  0  0  0  0
   57.5670   28.1970   44.7220 C   0  0  0  0  0  0  0  0  0  0  0  0
   57.0350   28.9160   43.6390 C   0  0  0  0  0  0  0  0  0  0  0  0
   56.8530   30.2980   43.7320 C   0  0  0  0  0  0  0  0  0  0  0  0
   57.2330   30.9870   44.8980 C   0  0  0  0  0  0  0  0  0  0  0  0
   57.0500   32.3700   45.0370 O   0  0  0  0  0  0  0  0  0  0  0  0
   57.9450   33.2500   45.6640 C   0  0  0  0  0  0  0  0  0  0  0  0
   58.7520   34.1400   44.9300 C   0  0  0  0  0  0  0  0  0  0  0  0
   59.6440   34.9900   45.5920 C   0  0  0  0  0  0  0  0  0  0  0  0
   59.7460   34.9490   46.9850 C   0  0  0  0  0  0  0  0  0  0  0  0
   58.9610   34.0540   47.7170 C   0  0  0  0  0  0  0  0  0  0  0  0
   58.0690   33.2030   47.0590 C   0  0  0  0  0  0  0  0  0  0  0  0
   57.7730   30.2690   45.9720 C   0  0  0  0  0  0  0  0  0  0  0  0
   57.9560   28.8860   45.8790 C   0  0  0  0  0  0  0  0  0  0  0  0
   58.3360   24.7710   45.9840 C   0  0  0  0  0  0  0  0  0  0  0  0
   59.5540   24.8040   45.6560 O   0  0  0  0  0  0  0  0  0  0  0  0
   57.8700   23.7040   46.8170 N   0  0  0  0  0  0  0  0  0  0  0  0
   58.4066   26.3955   43.7580 H   0  0  0  0  0  0  0  0  0  0  0  0
   56.7605   28.3886   42.7135 H   0  0  0  0  0  0  0  0  0  0  0  0
   56.4105   30.8499   42.8896 H   0  0  0  0  0  0  0  0  0  0  0  0
   58.6808   34.1670   43.8326 H   0  0  0  0  0  0  0  0  0  0  0  0
   60.2655   35.6911   45.0157 H   0  0  0  0  0  0  0  0  0  0  0  0
   60.4441   35.6212   47.5054 H   0  0  0  0  0  0  0  0  0  0  0  0
   59.0454   34.0193   48.8132 H   0  0  0  0  0  0  0  0  0  0  0  0
   57.4613   32.4928   47.6389 H   0  0  0  0  0  0  0  0  0  0  0  0
   58.0551   30.7966   46.8951 H   0  0  0  0  0  0  0  0  0  0  0  0
   58.4074   28.3360   46.7179 H   0  0  0  0  0  0  0  0  0  0  0  0
   58.5380   22.9620   47.1240 H   0  0  0  0  0  0  0  0  0  0  0  0
  1  2  2  0
  2  3  1  0
  3  4  1  0
  4  5  2  0
  4  6  1  0
  6  7  2  3
  7  8  1  0
  8  9  2  0
  9 10  1  0
 10 11  2  0
 11 12  1  0
 12 13  1  0
 13 14  2  0
 14 15  1  0
 15 16  2  0
 16 17  1  0
 17 18  2  0
 11 19  1  0
 19 20  2  0
  6 21  1  0
 21 22  2  0
 21 23  1  0
 23  2  1  0
 20  8  1  0
 18 13  1  0
  7 24  1  0
  9 25  1  0
 10 26  1  0
 14 27  1  0
 15 28  1  0
 16 29  1  0
 17 30  1  0
 18 31  1  0
 19 32  1  0
 20 33  1  0
 23 34  1  0
M  CHG  1   3  -1
M  END
>  <UniqueID>  (90) 
85

>  <SMILES>  (90) 
O=C1[N-]C(=O)C(=Cc2ccc(Oc3ccccc3)cc2)C(=O)N1

>  <Energy>  (90) 
51.05831543759016

>  <Genealogy>  (90) 
O=C1[N-]C(=O)C(=Cc2ccc(Oc3ccccc3)cc2)C(=O)N1 (protonated)
O=C1[N-]C(=O)C(=Cc2ccc(Oc3ccccc3)cc2)C(=O)N1 (3D coordinates assigned)
O=C1[N-]C(=O)C(=Cc2ccc(Oc3ccccc3)cc2)C(=O)N1 (nonaromatic ring conformer: 51.05831543759016 kcal/mol)

>  <smiles>  (90) 
O=C1NC(=O)C(=Cc2ccc(Oc3ccccc3)cc2)C(=O)N1

>  <score_type>  (90) 
oracle

>  <origin>  (90) 
adg

>  <m_score__min__energy>  (90) 
-9.9700000000000006

>  <m_primary>  (90) 
energy

$$$$
90:0
     RDKit          3D

 43 45  0  0  0  0  0  0  0  0999 V2000
   52.8960   24.9830   45.2690 N   0  0  0  0  0  0  0  0  0  0  0  0
   53.8140   23.8930   45.2140 C   0  0  0  0  0  0  0  0  0  0  0  0
   53.3730   22.7130   45.1830 O   0  0  0  0  0  0  0  0  0  0  0  0
   55.2720   24.1350   45.2640 C   0  0  0  0  0  0  0  0  0  0  0  0
   56.1300   23.1160   44.8240 C   0  0  0  0  0  0  0  0  0  0  0  0
   57.5100   23.2610   44.9210 C   0  0  0  0  0  0  0  0  0  0  0  0
   58.0580   24.4220   45.4630 C   0  0  0  0  0  0  0  0  0  0  0  0
   57.2310   25.4740   45.8960 C   0  0  0  0  0  0  0  0  0  0  0  0
   57.8570   26.7070   46.4520 C   0  0  0  0  0  0  0  0  0  0  0  0
   57.8990   26.8960   47.6970 O   0  0  0  0  0  0  0  0  0  0  0  0
   58.4690   27.6580   45.5680 N   0  0  0  0  0  0  0  0  0  0  0  0
   57.7920   28.6350   44.7640 C   0  0  0  0  0  0  0  0  0  0  0  0
   57.4010   28.3680   43.4400 C   0  0  0  0  0  0  0  0  0  0  0  0
   56.7730   29.3590   42.6810 C   0  0  0  0  0  0  0  0  0  0  0  0
   56.5430   30.6240   43.2270 C   0  0  0  0  0  0  0  0  0  0  0  0
   56.9470   30.9100   44.5430 C   0  0  0  0  0  0  0  0  0  0  0  0
   56.7330   32.1930   45.1460 N   0  0  0  0  0  0  0  0  0  0  0  0
   57.7180   33.5970   44.8840 S   0  0  0  0  0  0  0  0  0  0  0  0
   56.8360   34.8150   44.8620 O   0  0  0  0  0  0  0  0  0  0  0  0
   58.4100   33.4700   43.5570 O   0  0  0  0  0  0  0  0  0  0  0  0
   58.9330   33.7330   46.1510 C   0  0  0  0  0  0  0  0  0  0  0  0
   58.5450   33.7190   47.4990 C   0  0  0  0  0  0  0  0  0  0  0  0
   59.5080   33.8330   48.5060 C   0  0  0  0  0  0  0  0  0  0  0  0
   60.8600   33.9580   48.1730 C   0  0  0  0  0  0  0  0  0  0  0  0
   61.2510   33.9670   46.8300 C   0  0  0  0  0  0  0  0  0  0  0  0
   60.2900   33.8530   45.8210 C   0  0  0  0  0  0  0  0  0  0  0  0
   57.5770   29.9120   45.2980 C   0  0  0  0  0  0  0  0  0  0  0  0
   55.8250   25.3410   45.7670 C   0  0  0  0  0  0  0  0  0  0  0  0
   55.0050   26.4230   46.1020 O   0  0  0  0  0  0  0  0  0  0  0  0
   53.2360   25.9690   45.3190 H   0  0  0  0  0  0  0  0  0  0  0  0
   55.7075   22.1938   44.3984 H   0  0  0  0  0  0  0  0  0  0  0  0
   58.1715   22.4559   44.5684 H   0  0  0  0  0  0  0  0  0  0  0  0
   59.1502   24.5168   45.5532 H   0  0  0  0  0  0  0  0  0  0  0  0
   57.5898   27.3773   43.0010 H   0  0  0  0  0  0  0  0  0  0  0  0
   56.4585   29.1421   41.6495 H   0  0  0  0  0  0  0  0  0  0  0  0
   56.0444   31.3985   42.6257 H   0  0  0  0  0  0  0  0  0  0  0  0
   57.4821   33.6182   47.7639 H   0  0  0  0  0  0  0  0  0  0  0  0
   59.2013   33.8243   49.5624 H   0  0  0  0  0  0  0  0  0  0  0  0
   61.6160   34.0492   48.9668 H   0  0  0  0  0  0  0  0  0  0  0  0
   62.3149   34.0638   46.5677 H   0  0  0  0  0  0  0  0  0  0  0  0
   60.5996   33.8575   44.7655 H   0  0  0  0  0  0  0  0  0  0  0  0
   57.9071   30.1342   46.3235 H   0  0  0  0  0  0  0  0  0  0  0  0
   54.0350   26.3280   46.3710 H   0  0  0  0  0  0  0  0  0  0  0  0
  1  2  1  0
  2  3  2  0
  2  4  1  0
  4  5  2  0
  5  6  1  0
  6  7  2  0
  7  8  1  0
  8  9  1  0
  9 10  2  0
  9 11  1  0
 11 12  1  0
 12 13  2  0
 13 14  1  0
 14 15  2  0
 15 16  1  0
 16 17  1  0
 17 18  1  0
 18 19  2  0
 18 20  2  0
 18 21  1  0
 21 22  2  0
 22 23  1  0
 23 24  2  0
 24 25  1  0
 25 26  2  0
 16 27  2  0
  8 28  2  0
 28 29  1  0
 28  4  1  0
 27 12  1  0
 26 21  1  0
  1 30  1  0
  5 31  1  0
  6 32  1  0
  7 33  1  0
 13 34  1  0
 14 35  1  0
 15 36  1  0
 22 37  1  0
 23 38  1  0
 24 39  1  0
 25 40  1  0
 26 41  1  0
 27 42  1  0
 29 43  1  0
M  CHG  3   1  -1  11  -1  17  -1
M  END
>  <UniqueID>  (91) 
86

>  <SMILES>  (91) 
[NH-]C(=O)c1cccc(C(=O)[N-]c2cccc([N-]S(=O)(=O)c3ccccc3)c2)c1O

>  <Energy>  (91) 
61.11225985903459

>  <Genealogy>  (91) 
[NH-]C(=O)c1cccc(C(=O)[N-]c2cccc([N-]S(=O)(=O)c3ccccc3)c2)c1O (protonated)
[NH-]C(=O)c1cccc(C(=O)[N-]c2cccc([N-]S(=O)(=O)c3ccccc3)c2)c1O (3D coordinates assigned)
[NH-]C(=O)c1cccc(C(=O)[N-]c2cccc([N-]S(=O)(=O)c3ccccc3)c2)c1O (optimized conformer: 61.11225985903459 kcal/mol)

>  <smiles>  (91) 
NC(=O)c1cccc(C(=O)Nc2cccc(NS(=O)(=O)c3ccccc3)c2)c1O

>  <score_type>  (91) 
oracle

>  <origin>  (91) 
adg

>  <m_score__min__energy>  (91) 
-15.32

>  <m_primary>  (91) 
energy

$$$$
91:0
     RDKit          3D

 67 70  0  0  0  0  0  0  0  0999 V2000
   61.4390   29.7800   50.1900 C   0  0  0  0  0  0  0  0  0  0  0  0
   62.1270   31.0690   49.8480 C   0  0  0  0  0  0  0  0  0  0  0  0
   63.5060   31.2180   50.0630 C   0  0  0  0  0  0  0  0  0  0  0  0
   64.1390   32.4270   49.7610 C   0  0  0  0  0  0  0  0  0  0  0  0
   63.4000   33.5010   49.2590 C   0  0  0  0  0  0  0  0  0  0  0  0
   62.0140   33.3770   49.0710 C   0  0  0  0  0  0  0  0  0  0  0  0
   61.2230   34.5170   48.4930 C   0  0  0  0  0  0  0  0  0  0  0  0
   60.1560   33.9880   47.5890 C   0  0  0  0  0  0  0  0  0  0  0  0
   58.8100   33.9080   47.8850 C   0  0  0  0  0  0  0  0  0  0  0  0
   58.1720   33.4600   46.7930 N   0  0  0  0  0  0  0  0  0  0  0  0
   59.1360   33.2960   45.8680 C   0  0  0  0  0  0  0  0  0  0  0  0
   58.8870   32.8820   44.6640 N   0  0  0  0  0  0  0  0  0  0  0  0
   57.5170   31.8990   44.2680 S   0  0  0  0  0  0  0  0  0  0  0  0
   56.2780   32.4800   44.8940 O   0  0  0  0  0  0  0  0  0  0  0  0
   57.3360   31.8450   42.7770 O   0  0  0  0  0  0  0  0  0  0  0  0
   57.7900   30.2690   44.8750 C   0  0  0  0  0  0  0  0  0  0  0  0
   57.5710   29.1710   44.0370 C   0  0  0  0  0  0  0  0  0  0  0  0
   57.7840   27.8750   44.5080 C   0  0  0  0  0  0  0  0  0  0  0  0
   58.2240   27.6610   45.8210 C   0  0  0  0  0  0  0  0  0  0  0  0
   58.4150   26.3140   46.2760 N   0  0  0  0  0  0  0  0  0  0  0  0
   57.2470   25.4600   46.5150 C   0  0  0  0  0  0  0  0  0  0  0  0
   57.6660   23.9930   46.6090 C   0  0  0  0  0  0  0  0  0  0  0  0
   58.6690   23.7270   45.5690 N   0  0  0  0  0  0  0  0  0  0  0  0
   58.9090   22.0070   45.3740 S   0  0  0  0  0  0  0  0  0  0  0  0
   60.3590   21.6920   45.6140 O   0  0  0  0  0  0  0  0  0  0  0  0
   58.0820   21.2720   46.3930 O   0  0  0  0  0  0  0  0  0  0  0  0
   58.4530   21.4620   43.7260 C   0  0  0  0  0  0  0  0  0  0  0  0
   56.9650   21.1230   43.6330 C   0  0  0  0  0  0  0  0  0  0  0  0
   56.2530   22.1610   42.9010 N   0  0  0  0  0  0  0  0  0  0  0  0
   56.4620   23.3510   43.1360 N   0  0  0  0  0  0  0  0  0  0  0  0
   56.6720   24.5400   43.3730 N   0  0  0  0  0  0  0  0  0  0  0  0
   59.9530   24.4030   45.8540 C   0  0  0  0  0  0  0  0  0  0  0  0
   59.7730   25.8020   46.4880 C   0  0  0  0  0  0  0  0  0  0  0  0
   58.4770   28.7630   46.6650 C   0  0  0  0  0  0  0  0  0  0  0  0
   58.9440   28.5710   48.0820 C   0  0  0  0  0  0  0  0  0  0  0  0
   58.2440   30.0640   46.1850 C   0  0  0  0  0  0  0  0  0  0  0  0
   60.3710   33.6160   46.3100 N   0  0  0  0  0  0  0  0  0  0  0  0
   61.3840   32.1550   49.3620 C   0  0  0  0  0  0  0  0  0  0  0  0
   61.3822   29.6736   51.2834 H   0  0  0  0  0  0  0  0  0  0  0  0
   60.4229   29.7837   49.7687 H   0  0  0  0  0  0  0  0  0  0  0  0
   62.0076   28.9379   49.7687 H   0  0  0  0  0  0  0  0  0  0  0  0
   64.0907   30.3802   50.4707 H   0  0  0  0  0  0  0  0  0  0  0  0
   65.2224   32.5331   49.9191 H   0  0  0  0  0  0  0  0  0  0  0  0
   63.9051   34.4460   49.0104 H   0  0  0  0  0  0  0  0  0  0  0  0
   60.7588   35.0899   49.3093 H   0  0  0  0  0  0  0  0  0  0  0  0
   61.8955   35.1696   47.9170 H   0  0  0  0  0  0  0  0  0  0  0  0
   58.3428   34.1661   48.8468 H   0  0  0  0  0  0  0  0  0  0  0  0
   57.1470   33.2920   46.6840 H   0  0  0  0  0  0  0  0  0  0  0  0
   57.2298   29.3296   43.0034 H   0  0  0  0  0  0  0  0  0  0  0  0
   57.6054   27.0160   43.8445 H   0  0  0  0  0  0  0  0  0  0  0  0
   56.7661   25.7601   47.4577 H   0  0  0  0  0  0  0  0  0  0  0  0
   56.5443   25.5760   45.6767 H   0  0  0  0  0  0  0  0  0  0  0  0
   58.0979   23.7933   47.6008 H   0  0  0  0  0  0  0  0  0  0  0  0
   56.7916   23.3414   46.4647 H   0  0  0  0  0  0  0  0  0  0  0  0
   58.6810   22.2648   43.0094 H   0  0  0  0  0  0  0  0  0  0  0  0
   59.0266   20.5522   43.4952 H   0  0  0  0  0  0  0  0  0  0  0  0
   56.8440   20.1628   43.1102 H   0  0  0  0  0  0  0  0  0  0  0  0
   56.5503   21.0547   44.6495 H   0  0  0  0  0  0  0  0  0  0  0  0
   60.5326   23.7760   46.5475 H   0  0  0  0  0  0  0  0  0  0  0  0
   60.4715   24.5417   44.8938 H   0  0  0  0  0  0  0  0  0  0  0  0
   59.9648   25.7326   47.5689 H   0  0  0  0  0  0  0  0  0  0  0  0
   60.4826   26.4932   46.0097 H   0  0  0  0  0  0  0  0  0  0  0  0
   58.1543   28.8957   48.7755 H   0  0  0  0  0  0  0  0  0  0  0  0
   59.1681   27.5078   48.2533 H   0  0  0  0  0  0  0  0  0  0  0  0
   59.8511   29.1691   48.2533 H   0  0  0  0  0  0  0  0  0  0  0  0
   58.4195   30.9278   46.8430 H   0  0  0  0  0  0  0  0  0  0  0  0
   60.3000   32.0493   49.2075 H   0  0  0  0  0  0  0  0  0  0  0  0
  1  2  1  0
  2  3  2  0
  3  4  1  0
  4  5  2  0
  5  6  1  0
  6  7  1  0
  7  8  1  0
  8  9  2  0
  9 10  1  0
 10 11  1  0
 11 12  2  3
 12 13  1  0
 13 14  2  0
 13 15  2  0
 13 16  1  0
 16 17  2  0
 17 18  1  0
 18 19  2  0
 19 20  1  0
 20 21  1  0
 21 22  1  0
 22 23  1  0
 23 24  1  0
 24 25  2  0
 24 26  2  0
 24 27  1  0
 27 28  1  0
 28 29  1  0
 29 30  2  0
 30 31  2  0
 23 32  1  0
 32 33  1  0
 19 34  1  0
 34 35  1  0
 34 36  2  0
 11 37  1  0
  6 38  2  0
 38  2  1  0
 37  8  1  0
 36 16  1  0
 33 20  1  0
  1 39  1  0
  1 40  1  0
  1 41  1  0
  3 42  1  0
  4 43  1  0
  5 44  1  0
  7 45  1  0
  7 46  1  0
  9 47  1  0
 10 48  1  0
 17 49  1  0
 18 50  1  0
 21 51  1  0
 21 52  1  0
 22 53  1  0
 22 54  1  0
 27 55  1  0
 27 56  1  0
 28 57  1  0
 28 58  1  0
 32 59  1  0
 32 60  1  0
 33 61  1  0
 33 62  1  0
 35 63  1  0
 35 64  1  0
 35 65  1  0
 36 66  1  0
 38 67  1  0
M  CHG  3  30   1  31  -1  37  -1
M  END
>  <UniqueID>  (92) 
87

>  <SMILES>  (92) 
Cc1cccc(Cc2c[nH]c(=NS(=O)(=O)c3ccc(N4CCN(S(=O)(=O)CCN=[N+]=[N-])CC4)c(C)c3)[n-]2)c1

>  <Energy>  (92) 
100.51280862247404

>  <Genealogy>  (92) 
Cc1cccc(Cc2c[nH]c(=NS(=O)(=O)c3ccc(N4CCN(S(=O)(=O)CCN=[N+]=[N-])CC4)c(C)c3)[n-]2)c1 (protonated)
Cc1cccc(Cc2c[nH]c(=NS(=O)(=O)c3ccc(N4CCN(S(=O)(=O)CCN=[N+]=[N-])CC4)c(C)c3)[n-]2)c1 (3D coordinates assigned)
Cc1cccc(Cc2c[nH]c(=NS(=O)(=O)c3ccc(N4CCN(S(=O)(=O)CCN=[N+]=[N-])CC4)c(C)c3)[n-]2)c1 (nonaromatic ring conformer: 100.51280862247404 kcal/mol)

>  <smiles>  (92) 
Cc1cccc(Cc2c[nH]c(=NS(=O)(=O)c3ccc(N4CCN(S(=O)(=O)CCN=[N+]=[N-])CC4)c(C)c3)[nH]2)c1

>  <score_type>  (92) 
oracle

>  <origin>  (92) 
adg

>  <m_score__min__energy>  (92) 
-11.66

>  <m_primary>  (92) 
energy

$$$$
92:0
     RDKit          3D

 41 43  0  0  0  0  0  0  0  0999 V2000
   55.3390   28.9970   44.7670 O   0  0  0  0  0  0  0  0  0  0  0  0
   56.4040   29.6330   44.9870 C   0  0  0  0  0  0  0  0  0  0  0  0
   57.3230   29.1720   46.0880 C   0  0  0  0  0  0  0  0  0  0  0  0
   57.6100   27.7030   45.9840 C   0  0  0  0  0  0  0  0  0  0  0  0
   59.1530   27.0290   45.9030 S   0  0  0  0  0  0  0  0  0  0  0  0
   58.5580   25.4640   45.7720 C   0  0  0  0  0  0  0  0  0  0  0  0
   59.2780   24.4370   45.6750 O   0  0  0  0  0  0  0  0  0  0  0  0
   57.2100   25.4190   45.7830 N   0  0  0  0  0  0  0  0  0  0  0  0
   56.6760   26.6640   45.8970 C   0  0  0  0  0  0  0  0  0  0  0  0
   55.2960   26.8520   45.9250 O   0  0  0  0  0  0  0  0  0  0  0  0
   56.6280   30.8600   44.2790 N   0  0  0  0  0  0  0  0  0  0  0  0
   57.5360   31.8990   44.6610 C   0  0  0  0  0  0  0  0  0  0  0  0
   58.0740   32.7830   43.7100 C   0  0  0  0  0  0  0  0  0  0  0  0
   58.9350   33.8060   44.1120 C   0  0  0  0  0  0  0  0  0  0  0  0
   59.2550   33.9650   45.4620 C   0  0  0  0  0  0  0  0  0  0  0  0
   58.7080   33.1020   46.4220 C   0  0  0  0  0  0  0  0  0  0  0  0
   59.1240   33.2900   48.1280 S   0  0  0  0  0  0  0  0  0  0  0  0
   59.1580   34.7540   48.4720 O   0  0  0  0  0  0  0  0  0  0  0  0
   58.0630   32.6380   48.9710 O   0  0  0  0  0  0  0  0  0  0  0  0
   60.6760   32.5720   48.4950 N   0  0  0  0  0  0  0  0  0  0  0  0
   61.7570   33.2940   47.7960 C   0  0  0  0  0  0  0  0  0  0  0  0
   63.0120   32.4130   47.6820 C   0  0  0  0  0  0  0  0  0  0  0  0
   62.8080   31.2020   46.9650 O   0  0  0  0  0  0  0  0  0  0  0  0
   61.4540   30.7700   46.9400 C   0  0  0  0  0  0  0  0  0  0  0  0
   60.6820   31.1170   48.2260 C   0  0  0  0  0  0  0  0  0  0  0  0
   57.8320   32.0830   46.0170 C   0  0  0  0  0  0  0  0  0  0  0  0
   58.2701   29.7272   46.0193 H   0  0  0  0  0  0  0  0  0  0  0  0
   56.8286   29.3602   47.0524 H   0  0  0  0  0  0  0  0  0  0  0  0
   54.7690   27.0920   45.0950 H   0  0  0  0  0  0  0  0  0  0  0  0
   57.8162   32.6687   42.6468 H   0  0  0  0  0  0  0  0  0  0  0  0
   59.3626   34.4888   43.3630 H   0  0  0  0  0  0  0  0  0  0  0  0
   59.9379   34.7693   45.7729 H   0  0  0  0  0  0  0  0  0  0  0  0
   61.4150   33.5679   46.7871 H   0  0  0  0  0  0  0  0  0  0  0  0
   62.0093   34.1971   48.3711 H   0  0  0  0  0  0  0  0  0  0  0  0
   63.7943   32.9910   47.1683 H   0  0  0  0  0  0  0  0  0  0  0  0
   63.2958   32.1310   48.7067 H   0  0  0  0  0  0  0  0  0  0  0  0
   60.9494   31.2508   46.0890 H   0  0  0  0  0  0  0  0  0  0  0  0
   61.4626   29.6737   46.8501 H   0  0  0  0  0  0  0  0  0  0  0  0
   59.6431   30.7713   48.1204 H   0  0  0  0  0  0  0  0  0  0  0  0
   61.1843   30.6185   49.0681 H   0  0  0  0  0  0  0  0  0  0  0  0
   57.3748   31.4244   46.7701 H   0  0  0  0  0  0  0  0  0  0  0  0
  1  2  2  0
  2  3  1  0
  3  4  1  0
  4  5  1  0
  5  6  1  0
  6  7  2  0
  6  8  1  0
  8  9  1  0
  9 10  1  0
  2 11  1  0
 11 12  1  0
 12 13  2  0
 13 14  1  0
 14 15  2  0
 15 16  1  0
 16 17  1  0
 17 18  2  0
 17 19  2  0
 17 20  1  0
 20 21  1  0
 21 22  1  0
 22 23  1  0
 23 24  1  0
 24 25  1  0
 16 26  2  0
  9  4  2  0
 26 12  1  0
 25 20  1  0
  3 27  1  0
  3 28  1  0
 10 29  1  0
 13 30  1  0
 14 31  1  0
 15 32  1  0
 21 33  1  0
 21 34  1  0
 22 35  1  0
 22 36  1  0
 24 37  1  0
 24 38  1  0
 25 39  1  0
 25 40  1  0
 26 41  1  0
M  CHG  2   8  -1  11  -1
M  END
>  <UniqueID>  (93) 
88

>  <SMILES>  (93) 
O=C(Cc1sc(=O)[n-]c1O)[N-]c1cccc(S(=O)(=O)N2CCOCC2)c1

>  <Energy>  (93) 
88.48815318981231

>  <Genealogy>  (93) 
O=C(Cc1sc(=O)[n-]c1O)[N-]c1cccc(S(=O)(=O)N2CCOCC2)c1 (protonated)
O=C(Cc1sc(=O)[n-]c1O)[N-]c1cccc(S(=O)(=O)N2CCOCC2)c1 (3D coordinates assigned)
O=C(Cc1sc(=O)[n-]c1O)[N-]c1cccc(S(=O)(=O)N2CCOCC2)c1 (nonaromatic ring conformer: 88.48815318981231 kcal/mol)

>  <smiles>  (93) 
O=C(Cc1sc(=O)[nH]c1O)Nc1cccc(S(=O)(=O)N2CCOCC2)c1

>  <score_type>  (93) 
oracle

>  <origin>  (93) 
adg

>  <m_score__min__energy>  (93) 
-13.800000000000001

>  <m_primary>  (93) 
energy

$$$$
93:0
     RDKit          3D

 36 37  0  0  0  0  0  0  0  0999 V2000
   61.5960   33.9020   49.4870 C   0  0  0  0  0  0  0  0  0  0  0  0
   60.6160   33.6100   48.3820 C   0  0  0  0  0  0  0  0  0  0  0  0
   60.9410   33.9650   47.0610 C   0  0  0  0  0  0  0  0  0  0  0  0
   60.0530   33.7050   46.0170 C   0  0  0  0  0  0  0  0  0  0  0  0
   58.8250   33.0870   46.2730 C   0  0  0  0  0  0  0  0  0  0  0  0
   57.6970   32.7740   44.9580 S   0  0  0  0  0  0  0  0  0  0  0  0
   56.6260   33.8280   44.9140 O   0  0  0  0  0  0  0  0  0  0  0  0
   58.4520   32.7910   43.6580 O   0  0  0  0  0  0  0  0  0  0  0  0
   56.9540   31.2160   45.1570 N   0  0  0  0  0  0  0  0  0  0  0  0
   57.5540   30.0600   45.1200 C   0  0  0  0  0  0  0  0  0  0  0  0
   58.5790   29.7650   44.1980 C   0  0  0  0  0  0  0  0  0  0  0  0
   59.1740   28.5020   44.2160 C   0  0  0  0  0  0  0  0  0  0  0  0
   58.7530   27.5450   45.1380 C   0  0  0  0  0  0  0  0  0  0  0  0
   57.7260   27.8610   46.0350 C   0  0  0  0  0  0  0  0  0  0  0  0
   57.2710   26.8680   47.0620 C   0  0  0  0  0  0  0  0  0  0  0  0
   56.0880   26.1100   46.5540 C   0  0  0  0  0  0  0  0  0  0  0  0
   55.1420   26.7170   45.9870 O   0  0  0  0  0  0  0  0  0  0  0  0
   56.0050   24.7360   46.7500 O   0  0  0  0  0  0  0  0  0  0  0  0
   57.1670   29.1020   46.0070 N   0  0  0  0  0  0  0  0  0  0  0  0
   58.4960   32.7160   47.5820 C   0  0  0  0  0  0  0  0  0  0  0  0
   59.3810   32.9680   48.6440 C   0  0  0  0  0  0  0  0  0  0  0  0
   58.9900   32.5690   50.0430 C   0  0  0  0  0  0  0  0  0  0  0  0
   61.1052   33.7558   50.4605 H   0  0  0  0  0  0  0  0  0  0  0  0
   62.4559   33.2210   49.4039 H   0  0  0  0  0  0  0  0  0  0  0  0
   61.9429   34.9425   49.4039 H   0  0  0  0  0  0  0  0  0  0  0  0
   61.9041   34.4521   46.8488 H   0  0  0  0  0  0  0  0  0  0  0  0
   60.3199   33.9874   44.9879 H   0  0  0  0  0  0  0  0  0  0  0  0
   58.9069   30.5228   43.4712 H   0  0  0  0  0  0  0  0  0  0  0  0
   59.9756   28.2620   43.5020 H   0  0  0  0  0  0  0  0  0  0  0  0
   59.2234   26.5509   45.1604 H   0  0  0  0  0  0  0  0  0  0  0  0
   58.0894   26.1647   47.2758 H   0  0  0  0  0  0  0  0  0  0  0  0
   56.9884   27.4035   47.9804 H   0  0  0  0  0  0  0  0  0  0  0  0
   57.5338   32.2216   47.7816 H   0  0  0  0  0  0  0  0  0  0  0  0
   59.5689   33.1598   50.7681 H   0  0  0  0  0  0  0  0  0  0  0  0
   57.9163   32.7566   50.1912 H   0  0  0  0  0  0  0  0  0  0  0  0
   59.1993   31.4993   50.1912 H   0  0  0  0  0  0  0  0  0  0  0  0
  1  2  1  0
  2  3  2  0
  3  4  1  0
  4  5  2  0
  5  6  1  0
  6  7  2  0
  6  8  2  0
  6  9  1  0
  9 10  2  3
 10 11  1  0
 11 12  2  0
 12 13  1  0
 13 14  2  0
 14 15  1  0
 15 16  1  0
 16 17  2  0
 16 18  1  0
 14 19  1  0
  5 20  1  0
 20 21  2  0
 21 22  1  0
 21  2  1  0
 19 10  1  0
  1 23  1  0
  1 24  1  0
  1 25  1  0
  3 26  1  0
  4 27  1  0
 11 28  1  0
 12 29  1  0
 13 30  1  0
 15 31  1  0
 15 32  1  0
 20 33  1  0
 22 34  1  0
 22 35  1  0
 22 36  1  0
M  CHG  2  18  -1  19  -1
M  END
>  <UniqueID>  (94) 
89

>  <SMILES>  (94) 
Cc1ccc(S(=O)(=O)N=c2cccc(CC(=O)[O-])[n-]2)cc1C

>  <Energy>  (94) 
39.97178710036806

>  <Genealogy>  (94) 
Cc1ccc(S(=O)(=O)N=c2cccc(CC(=O)[O-])[n-]2)cc1C (protonated)
Cc1ccc(S(=O)(=O)N=c2cccc(CC(=O)[O-])[n-]2)cc1C (3D coordinates assigned)
Cc1ccc(S(=O)(=O)N=c2cccc(CC(=O)[O-])[n-]2)cc1C (optimized conformer: 39.97178710036806 kcal/mol)

>  <smiles>  (94) 
Cc1ccc(S(=O)(=O)N=c2cccc(CC(=O)O)[nH]2)cc1C

>  <score_type>  (94) 
oracle

>  <origin>  (94) 
adg

>  <m_score__min__energy>  (94) 
-12.619999999999999

>  <m_primary>  (94) 
energy

$$$$
94:0
     RDKit          3D

 38 40  0  0  0  0  0  0  0  0999 V2000
   59.3190   34.5000   45.1340 O   0  0  0  0  0  0  0  0  0  0  0  0
   58.9780   34.1210   46.2850 C   0  0  0  0  0  0  0  0  0  0  0  0
   59.5070   34.8540   47.4900 C   0  0  0  0  0  0  0  0  0  0  0  0
   60.8210   34.2970   47.9760 C   0  0  0  0  0  0  0  0  0  0  0  0
   61.0580   34.1440   49.3520 C   0  0  0  0  0  0  0  0  0  0  0  0
   62.2410   33.5540   49.8020 C   0  0  0  0  0  0  0  0  0  0  0  0
   63.1960   33.1060   48.8850 C   0  0  0  0  0  0  0  0  0  0  0  0
   64.3660   32.5100   49.3410 O   0  0  0  0  0  0  0  0  0  0  0  0
   62.9730   33.2560   47.5100 C   0  0  0  0  0  0  0  0  0  0  0  0
   63.9260   32.8010   46.6020 O   0  0  0  0  0  0  0  0  0  0  0  0
   61.7880   33.8560   47.0580 C   0  0  0  0  0  0  0  0  0  0  0  0
   57.9790   33.1030   46.4150 N   0  0  0  0  0  0  0  0  0  0  0  0
   57.8740   31.9710   45.5430 C   0  0  0  0  0  0  0  0  0  0  0  0
   57.3740   32.0990   44.2370 C   0  0  0  0  0  0  0  0  0  0  0  0
   57.3410   30.9930   43.3860 C   0  0  0  0  0  0  0  0  0  0  0  0
   57.7970   29.7510   43.8330 C   0  0  0  0  0  0  0  0  0  0  0  0
   58.2680   29.6020   45.1470 C   0  0  0  0  0  0  0  0  0  0  0  0
   58.8140   28.2820   45.6120 C   0  0  0  0  0  0  0  0  0  0  0  0
   57.6900   27.3650   45.9720 C   0  0  0  0  0  0  0  0  0  0  0  0
   56.4050   27.6100   45.6350 N   0  0  0  0  0  0  0  0  0  0  0  0
   55.7630   26.5260   46.0950 C   0  0  0  0  0  0  0  0  0  0  0  0
   54.3940   26.3280   45.9780 O   0  0  0  0  0  0  0  0  0  0  0  0
   56.6450   25.6560   46.6820 C   0  0  0  0  0  0  0  0  0  0  0  0
   57.8790   26.1810   46.5990 N   0  0  0  0  0  0  0  0  0  0  0  0
   58.3010   30.7190   45.9980 C   0  0  0  0  0  0  0  0  0  0  0  0
   59.6493   35.9120   47.2245 H   0  0  0  0  0  0  0  0  0  0  0  0
   58.7738   34.7347   48.3013 H   0  0  0  0  0  0  0  0  0  0  0  0
   60.3083   34.4905   50.0785 H   0  0  0  0  0  0  0  0  0  0  0  0
   62.4218   33.4415   50.8812 H   0  0  0  0  0  0  0  0  0  0  0  0
   64.7910   32.3730   46.9110 H   0  0  0  0  0  0  0  0  0  0  0  0
   61.6154   33.9816   45.9789 H   0  0  0  0  0  0  0  0  0  0  0  0
   57.0072   33.0739   43.8835 H   0  0  0  0  0  0  0  0  0  0  0  0
   56.9551   31.0999   42.3615 H   0  0  0  0  0  0  0  0  0  0  0  0
   57.7871   28.8864   43.1530 H   0  0  0  0  0  0  0  0  0  0  0  0
   59.4100   27.8294   44.8058 H   0  0  0  0  0  0  0  0  0  0  0  0
   59.4472   28.4435   46.4968 H   0  0  0  0  0  0  0  0  0  0  0  0
   56.3862   24.6913   47.1430 H   0  0  0  0  0  0  0  0  0  0  0  0
   58.6653   30.6084   47.0300 H   0  0  0  0  0  0  0  0  0  0  0  0
  1  2  2  0
  2  3  1  0
  3  4  1  0
  4  5  2  0
  5  6  1  0
  6  7  2  0
  7  8  1  0
  7  9  1  0
  9 10  1  0
  9 11  2  0
  2 12  1  0
 12 13  1  0
 13 14  2  0
 14 15  1  0
 15 16  2  0
 16 17  1  0
 17 18  1  0
 18 19  1  0
 19 20  2  0
 20 21  1  0
 21 22  1  0
 21 23  2  0
 23 24  1  0
 17 25  2  0
 11  4  1  0
 25 13  1  0
 24 19  1  0
  3 26  1  0
  3 27  1  0
  5 28  1  0
  6 29  1  0
 10 30  1  0
 11 31  1  0
 14 32  1  0
 15 33  1  0
 16 34  1  0
 18 35  1  0
 18 36  1  0
 23 37  1  0
 25 38  1  0
M  CHG  4   8  -1  12  -1  22  -1  24  -1
M  END
>  <UniqueID>  (95) 
90

>  <SMILES>  (95) 
O=C(Cc1ccc([O-])c(O)c1)[N-]c1cccc(Cc2nc([O-])c[n-]2)c1

>  <Energy>  (95) 
70.76555418669267

>  <Genealogy>  (95) 
O=C(Cc1ccc([O-])c(O)c1)[N-]c1cccc(Cc2nc([O-])c[n-]2)c1 (protonated)
O=C(Cc1ccc([O-])c(O)c1)[N-]c1cccc(Cc2nc([O-])c[n-]2)c1 (3D coordinates assigned)
O=C(Cc1ccc([O-])c(O)c1)[N-]c1cccc(Cc2nc([O-])c[n-]2)c1 (optimized conformer: 70.76555418669267 kcal/mol)

>  <smiles>  (95) 
O=C(Cc1ccc(O)c(O)c1)Nc1cccc(Cc2nc(O)c[nH]2)c1

>  <score_type>  (95) 
oracle

>  <origin>  (95) 
adg

>  <m_score__min__energy>  (95) 
-16.789999999999999

>  <m_primary>  (95) 
energy

$$$$
95:0
     RDKit          3D

 65 68  0  0  1  0  0  0  0  0999 V2000
   55.7430   29.2780   44.9090 O   0  0  0  0  0  0  0  0  0  0  0  0
   56.5600   29.5620   44.0090 C   0  0  0  0  0  0  0  0  0  0  0  0
   56.2780   30.4450   42.8880 C   0  0  0  0  0  0  0  0  0  0  0  0
   57.1700   31.2120   42.3020 C   0  0  0  0  0  0  0  0  0  0  0  0
   57.8090   32.3310   42.9600 C   0  0  0  0  0  0  0  0  0  0  0  0
   57.5700   32.5810   44.2300 C   0  0  0  0  0  0  0  0  0  0  0  0
   58.2370   31.9830   45.3930 C   0  0  0  0  0  0  0  0  0  0  0  0
   58.9930   32.9770   46.1220 N   0  0  0  0  0  0  0  0  0  0  0  0
   59.6910   33.9060   45.2990 C   0  0  0  0  0  0  0  0  0  0  0  0
   59.4540   35.2810   45.8950 C   0  0  0  0  0  0  0  0  0  0  0  0
   59.1500   34.9180   47.3410 C   0  0  0  0  0  0  0  0  0  0  0  0
   58.2930   33.6580   47.1530 C   0  0  0  0  0  0  0  0  0  0  0  0
   57.8400   28.9870   44.0930 N   0  0  0  0  0  0  0  0  0  0  0  0
   58.3190   28.1120   45.0800 C   0  0  0  0  0  0  0  0  0  0  0  0
   58.0270   26.7860   45.2140 C   0  0  0  0  0  0  0  0  0  0  0  0
   58.5420   25.9980   46.2490 C   0  0  0  0  0  0  0  0  0  0  0  0
   59.3770   26.5230   47.1930 C   0  0  0  0  0  0  0  0  0  0  0  0
   59.6870   27.8750   47.0760 C   0  0  0  0  0  0  0  0  0  0  0  0
   60.5150   28.4400   47.9990 O   0  0  0  0  0  0  0  0  0  0  0  0
   60.0390   29.1320   49.0890 C   0  0  0  0  0  0  0  0  0  0  0  0
   59.4980   30.3940   49.0580 C   0  0  0  0  0  0  0  0  0  0  0  0
   59.0560   30.9670   50.2420 C   0  0  0  0  0  0  0  0  0  0  0  0
   58.5360   32.1540   50.2670 N   0  0  0  0  0  0  0  0  0  0  0  0
   59.3850   33.2390   50.6220 C   0  0  0  0  0  0  0  0  0  0  0  0
   58.9540   34.2220   51.2990 O   0  0  0  0  0  0  0  0  0  0  0  0
   60.7930   33.2930   50.2380 C   0  0  0  0  0  0  0  0  0  0  0  0
   61.7430   33.4990   51.2140 C   0  0  0  0  0  0  0  0  0  0  0  0
   63.1080   33.5600   50.9020 C   0  0  0  0  0  0  0  0  0  0  0  0
   63.5410   33.4120   49.5840 C   0  0  0  0  0  0  0  0  0  0  0  0
   64.8490   33.4650   49.2420 F   0  0  0  0  0  0  0  0  0  0  0  0
   62.5470   33.2060   48.6260 C   0  0  0  0  0  0  0  0  0  0  0  0
   63.0100   33.0450   47.2120 C   0  0  0  0  0  0  0  0  0  0  0  0
   63.7040   34.1420   46.7970 F   0  0  0  0  0  0  0  0  0  0  0  0
   63.8050   31.9180   47.1970 F   0  0  0  0  0  0  0  0  0  0  0  0
   61.9420   32.7850   46.3770 F   0  0  0  0  0  0  0  0  0  0  0  0
   61.2210   33.1490   48.9450 C   0  0  0  0  0  0  0  0  0  0  0  0
   59.1690   30.2690   51.3910 N   0  0  0  0  0  0  0  0  0  0  0  0
   59.6950   29.0420   51.4190 C   0  0  0  0  0  0  0  0  0  0  0  0
   60.1190   28.4920   50.2890 N   0  0  0  0  0  0  0  0  0  0  0  0
   59.1710   28.6510   46.0460 C   0  0  0  0  0  0  0  0  0  0  0  0
   55.2474   30.4727   42.5044 H   0  0  0  0  0  0  0  0  0  0  0  0
   57.4443   30.9923   41.2597 H   0  0  0  0  0  0  0  0  0  0  0  0
   58.4983   32.9764   42.3958 H   0  0  0  0  0  0  0  0  0  0  0  0
   56.7835   33.3198   44.4435 H   0  0  0  0  0  0  0  0  0  0  0  0
   57.4776   31.5479   46.0594 H   0  0  0  0  0  0  0  0  0  0  0  0
   58.9292   31.2047   45.0394 H   0  0  0  0  0  0  0  0  0  0  0  0
   60.7665   33.6750   45.2946 H   0  0  0  0  0  0  0  0  0  0  0  0
   59.3348   33.8588   44.2594 H   0  0  0  0  0  0  0  0  0  0  0  0
   60.3491   35.9156   45.8168 H   0  0  0  0  0  0  0  0  0  0  0  0
   58.6648   35.8630   45.3965 H   0  0  0  0  0  0  0  0  0  0  0  0
   60.0692   34.7009   47.9048 H   0  0  0  0  0  0  0  0  0  0  0  0
   58.6603   35.7178   47.9159 H   0  0  0  0  0  0  0  0  0  0  0  0
   58.2559   33.0585   48.0745 H   0  0  0  0  0  0  0  0  0  0  0  0
   57.2409   33.8688   46.9108 H   0  0  0  0  0  0  0  0  0  0  0  0
   58.5190   29.2490   43.3170 H   0  0  0  0  0  0  0  0  0  0  0  0
   57.3585   26.3167   44.4772 H   0  0  0  0  0  0  0  0  0  0  0  0
   58.2686   24.9339   46.3033 H   0  0  0  0  0  0  0  0  0  0  0  0
   59.7855   25.9068   48.0075 H   0  0  0  0  0  0  0  0  0  0  0  0
   59.4162   30.9427   48.1081 H   0  0  0  0  0  0  0  0  0  0  0  0
   61.4237   33.6181   52.2599 H   0  0  0  0  0  0  0  0  0  0  0  0
   63.8438   33.7259   51.7027 H   0  0  0  0  0  0  0  0  0  0  0  0
   60.4814   32.9841   48.1476 H   0  0  0  0  0  0  0  0  0  0  0  0
   58.8480   30.6530   52.3260 H   0  0  0  0  0  0  0  0  0  0  0  0
   59.7758   28.4933   52.3689 H   0  0  0  0  0  0  0  0  0  0  0  0
   59.4401   29.7161   45.9900 H   0  0  0  0  0  0  0  0  0  0  0  0
  1  2  2  0
  2  3  1  0
  3  4  2  0
  4  5  1  0
  5  6  2  0
  6  7  1  0
  7  8  1  0
  8  9  1  0
  9 10  1  0
 10 11  1  0
 11 12  1  0
  2 13  1  0
 13 14  1  0
 14 15  2  0
 15 16  1  0
 16 17  2  0
 17 18  1  0
 18 19  1  0
 19 20  1  0
 20 21  2  0
 21 22  1  0
 22 23  2  0
 23 24  1  0
 24 25  2  0
 24 26  1  0
 26 27  2  0
 27 28  1  0
 28 29  2  0
 29 30  1  0
 29 31  1  0
 31 32  1  0
 32 33  1  0
 32 34  1  0
 32 35  1  0
 31 36  2  0
 22 37  1  0
 37 38  1  0
 38 39  2  0
 18 40  2  0
 12  8  1  0
 40 14  1  0
 39 20  1  0
 36 26  1  0
  3 41  1  0
  4 42  1  0
  5 43  1  0
  6 44  1  0
  7 45  1  0
  7 46  1  0
  9 47  1  0
  9 48  1  0
 10 49  1  0
 10 50  1  0
 11 51  1  0
 11 52  1  0
 12 53  1  0
 12 54  1  0
 13 55  1  0
 15 56  1  0
 16 57  1  0
 17 58  1  0
 21 59  1  0
 27 60  1  0
 28 61  1  0
 36 62  1  0
 37 63  1  0
 38 64  1  0
 40 65  1  0
M  END
>  <smiles>  (96) 
O=C(C=CC=CCN1CCCC1)Nc1cccc(Oc2cc(=NC(=O)c3ccc(F)c(C(F)(F)F)c3)[nH]cn2)c1

>  <score_type>  (96) 
oracle

>  <origin>  (96) 
adg

>  <m_score__min__energy>  (96) 
-9.7400000000000002

>  <m_primary>  (96) 
energy

$$$$
96:0
     RDKit          3D

 41 42  0  0  0  0  0  0  0  0999 V2000
   59.3330   31.6380   45.1830 H   0  0  0  0  0  0  0  0  0  0  0  0
   59.5800   30.7260   45.5450 O   0  0  0  0  0  0  0  0  0  0  0  0
   58.6650   29.6840   45.7280 C   0  0  0  0  0  0  0  0  0  0  0  0
   57.3470   29.8430   45.2430 C   0  0  0  0  0  0  0  0  0  0  0  0
   56.8520   31.0400   44.6920 O   0  0  0  0  0  0  0  0  0  0  0  0
   57.3800   31.7480   43.5760 C   0  0  0  0  0  0  0  0  0  0  0  0
   58.0022   32.5823   43.9321 H   0  0  0  0  0  0  0  0  0  0  0  0
   57.9929   31.0675   42.9667 H   0  0  0  0  0  0  0  0  0  0  0  0
   56.5530   32.1414   42.9667 H   0  0  0  0  0  0  0  0  0  0  0  0
   56.4590   28.7690   45.3000 C   0  0  0  0  0  0  0  0  0  0  0  0
   55.1460   28.9620   44.8780 O   0  0  0  0  0  0  0  0  0  0  0  0
   56.8780   27.5050   45.7380 C   0  0  0  0  0  0  0  0  0  0  0  0
   58.1960   27.3300   46.2380 C   0  0  0  0  0  0  0  0  0  0  0  0
   59.0390   28.4810   46.3930 C   0  0  0  0  0  0  0  0  0  0  0  0
   60.1110   28.5140   47.2380 C   0  0  0  0  0  0  0  0  0  0  0  0
   61.0932   28.2672   46.8086 H   0  0  0  0  0  0  0  0  0  0  0  0
   59.6080   30.0170   49.1600 C   0  0  0  0  0  0  0  0  0  0  0  0
   59.7285   25.9380   46.6540 H   0  0  0  0  0  0  0  0  0  0  0  0
   58.6540   26.0730   46.4610 C   0  0  0  0  0  0  0  0  0  0  0  0
   58.5350   30.0690   50.2190 C   0  0  0  0  0  0  0  0  0  0  0  0
   59.0014   30.0464   51.2150 H   0  0  0  0  0  0  0  0  0  0  0  0
   57.9541   30.9964   50.1071 H   0  0  0  0  0  0  0  0  0  0  0  0
   57.8671   29.2022   50.1071 H   0  0  0  0  0  0  0  0  0  0  0  0
   60.1470   31.2990   48.5870 C   0  0  0  0  0  0  0  0  0  0  0  0
   60.4315   31.9757   49.4062 H   0  0  0  0  0  0  0  0  0  0  0  0
   61.0298   31.0813   47.9679 H   0  0  0  0  0  0  0  0  0  0  0  0
   59.3739   31.7775   47.9679 H   0  0  0  0  0  0  0  0  0  0  0  0
   60.0730   28.8510   48.6770 C   0  0  0  0  0  0  0  0  0  0  0  0
   60.4466   28.1051   49.3940 H   0  0  0  0  0  0  0  0  0  0  0  0
   57.7720   24.8510   46.4590 C   0  0  1  0  0  0  0  0  0  0  0  0
   58.3558   23.9811   46.1237 H   0  0  0  0  0  0  0  0  0  0  0  0
   57.2800   24.5570   47.8820 C   0  0  0  0  0  0  0  0  0  0  0  0
   57.9882   24.9802   48.6096 H   0  0  0  0  0  0  0  0  0  0  0  0
   56.2888   25.0110   48.0284 H   0  0  0  0  0  0  0  0  0  0  0  0
   57.2102   23.4690   48.0284 H   0  0  0  0  0  0  0  0  0  0  0  0
   56.6170   25.0190   45.4660 C   0  0  0  0  0  0  0  0  0  0  0  0
   57.0164   24.9865   44.4416 H   0  0  0  0  0  0  0  0  0  0  0  0
   55.8970   24.2030   45.6263 H   0  0  0  0  0  0  0  0  0  0  0  0
   55.8980   26.3490   45.6790 C   0  0  0  0  0  0  0  0  0  0  0  0
   55.1985   26.5150   44.8464 H   0  0  0  0  0  0  0  0  0  0  0  0
   55.3602   26.3020   46.6374 H   0  0  0  0  0  0  0  0  0  0  0  0
  1  2  1  0
  2  3  1  0
  3  4  2  0
  4  5  1  0
  5  6  1  0
  6  7  1  0
  6  8  1  0
  6  9  1  0
  4 10  1  0
 10 11  1  0
 10 12  2  0
 12 13  1  0
 13 14  1  0
 14 15  2  0
 15 16  1  0
 15 17  1  0
 17 18  1  0
 17 19  2  3
 19 20  1  0
 20 21  1  0
 20 22  1  0
 20 23  1  0
 19 24  1  0
 24 25  1  0
 24 26  1  0
 24 27  1  0
 13 28  2  0
 28 29  1  0
 28 30  1  0
 30 31  1  6
 30 32  1  0
 32 33  1  0
 32 34  1  0
 32 35  1  0
 30 36  1  0
 36 37  1  0
 36 38  1  0
 36 39  1  0
 39 40  1  0
 39 41  1  0
 14  3  1  0
 39 12  1  0
M  CHG  1  11  -1
M  END
>  <UniqueID>  (97) 
91

>  <SMILES>  (97) 
COc1c([O-])c2c(/c(=C\C=C(C)C)c1O)=C[C@@H](C)CC2

>  <Energy>  (97) 
68.67778300058706

>  <Genealogy>  (97) 
COc1c([O-])c2c(c(=CC=C(C)C)c1O)=CC(C)CC2 (protonated)
COc1c([O-])c2c(c(=CC=C(C)C)c1O)=C[C@@H](C)CC2 (chirality)
COc1c([O-])c2c(/c(=C\C=C(C)C)c1O)=C[C@@H](C)CC2 (cis-trans isomerization)
COc1c([O-])c2c(/c(=C\C=C(C)C)c1O)=C[C@@H](C)CC2 (3D coordinates assigned)
COc1c([O-])c2c(/c(=C\C=C(C)C)c1O)=C[C@@H](C)CC2 (nonaromatic ring conformer: 68.67778300058706 kcal/mol)

>  <smiles>  (97) 
COc1c(O)c2c(c(=CC=C(C)C)c1O)=CC(C)CC2

>  <score_type>  (97) 
oracle

>  <origin>  (97) 
adg

>  <m_score__min__energy>  (97) 
-9.4800000000000004

>  <m_primary>  (97) 
energy

$$$$
