0:0
     RDKit          3D

 56 58  0  0  0  0  0  0  0  0999 V2000
   58.0620   32.3730   43.3320 C   0  0  0  0  0  0  0  0  0  0  0  0
   57.6130   33.1850   44.2930 C   0  0  0  0  0  0  0  0  0  0  0  0
   58.4650   34.2960   44.8440 C   0  0  0  0  0  0  0  0  0  0  0  0
   59.1910   33.8600   46.0570 N   0  0  0  0  0  0  0  0  0  0  0  0
   58.2720   33.6710   47.1990 C   0  0  0  0  0  0  0  0  0  0  0  0
   58.2210   32.2250   47.6230 C   0  0  0  0  0  0  0  0  0  0  0  0
   58.6320   31.9100   48.7700 O   0  0  0  0  0  0  0  0  0  0  0  0
   57.7710   31.1900   46.7400 N   0  0  0  0  0  0  0  0  0  0  0  0
   58.5920   30.1720   46.1470 C   0  0  0  0  0  0  0  0  0  0  0  0
   59.9910   30.2600   46.2440 C   0  0  0  0  0  0  0  0  0  0  0  0
   60.8070   29.3300   45.6010 C   0  0  0  0  0  0  0  0  0  0  0  0
   60.2380   28.3130   44.8360 C   0  0  0  0  0  0  0  0  0  0  0  0
   58.8500   28.2240   44.7130 C   0  0  0  0  0  0  0  0  0  0  0  0
   58.0100   29.1450   45.3640 C   0  0  0  0  0  0  0  0  0  0  0  0
   56.5400   28.9900   45.2420 C   0  0  0  0  0  0  0  0  0  0  0  0
   55.8430   29.9280   44.7660 O   0  0  0  0  0  0  0  0  0  0  0  0
   55.9130   27.7600   45.6130 N   0  0  0  0  0  0  0  0  0  0  0  0
   56.5950   26.6770   46.3050 C   0  0  0  0  0  0  0  0  0  0  0  0
   56.4130   25.4080   45.5260 C   0  0  0  0  0  0  0  0  0  0  0  0
   57.3800   25.0140   44.5850 C   0  0  0  0  0  0  0  0  0  0  0  0
   57.1730   23.8780   43.7970 C   0  0  0  0  0  0  0  0  0  0  0  0
   55.9970   23.1340   43.9330 C   0  0  0  0  0  0  0  0  0  0  0  0
   55.0240   23.5300   44.8540 C   0  0  0  0  0  0  0  0  0  0  0  0
   55.2270   24.6640   45.6460 C   0  0  0  0  0  0  0  0  0  0  0  0
   60.3700   34.7070   46.3810 C   0  0  0  0  0  0  0  0  0  0  0  0
   61.5050   33.9780   47.0680 C   0  0  0  0  0  0  0  0  0  0  0  0
   62.7240   33.7670   46.3980 C   0  0  0  0  0  0  0  0  0  0  0  0
   63.7840   33.1260   47.0440 C   0  0  0  0  0  0  0  0  0  0  0  0
   63.6410   32.6970   48.3670 C   0  0  0  0  0  0  0  0  0  0  0  0
   62.4390   32.9160   49.0460 C   0  0  0  0  0  0  0  0  0  0  0  0
   61.3780   33.5600   48.4040 C   0  0  0  0  0  0  0  0  0  0  0  0
   57.4185   31.5684   42.9467 H   0  0  0  0  0  0  0  0  0  0  0  0
   59.0752   32.5090   42.9260 H   0  0  0  0  0  0  0  0  0  0  0  0
   56.5978   33.0381   44.6903 H   0  0  0  0  0  0  0  0  0  0  0  0
   59.1943   34.6022   44.0796 H   0  0  0  0  0  0  0  0  0  0  0  0
   57.8099   35.1377   45.1130 H   0  0  0  0  0  0  0  0  0  0  0  0
   58.6207   34.2812   48.0452 H   0  0  0  0  0  0  0  0  0  0  0  0
   57.2626   33.9794   46.8891 H   0  0  0  0  0  0  0  0  0  0  0  0
   60.4466   31.0699   46.8326 H   0  0  0  0  0  0  0  0  0  0  0  0
   61.9006   29.3989   45.6975 H   0  0  0  0  0  0  0  0  0  0  0  0
   60.8829   27.5802   44.3289 H   0  0  0  0  0  0  0  0  0  0  0  0
   58.4086   27.4244   44.1000 H   0  0  0  0  0  0  0  0  0  0  0  0
   57.6672   26.9090   46.3867 H   0  0  0  0  0  0  0  0  0  0  0  0
   56.1735   26.5572   47.3140 H   0  0  0  0  0  0  0  0  0  0  0  0
   58.3026   25.6015   44.4683 H   0  0  0  0  0  0  0  0  0  0  0  0
   57.9369   23.5688   43.0684 H   0  0  0  0  0  0  0  0  0  0  0  0
   55.8381   22.2377   43.3154 H   0  0  0  0  0  0  0  0  0  0  0  0
   54.0961   22.9482   44.9562 H   0  0  0  0  0  0  0  0  0  0  0  0
   54.4555   24.9750   46.3657 H   0  0  0  0  0  0  0  0  0  0  0  0
   60.7546   35.1319   45.4421 H   0  0  0  0  0  0  0  0  0  0  0  0
   60.0177   35.4704   47.0902 H   0  0  0  0  0  0  0  0  0  0  0  0
   62.8432   34.1088   45.3593 H   0  0  0  0  0  0  0  0  0  0  0  0
   64.7318   32.9587   46.5114 H   0  0  0  0  0  0  0  0  0  0  0  0
   64.4740   32.1874   48.8733 H   0  0  0  0  0  0  0  0  0  0  0  0
   62.3281   32.5807   50.0878 H   0  0  0  0  0  0  0  0  0  0  0  0
   60.4386   33.7408   48.9469 H   0  0  0  0  0  0  0  0  0  0  0  0
  1  2  2  0
  2  3  1  0
  3  4  1  0
  4  5  1  0
  5  6  1  0
  6  7  2  0
  6  8  1  0
  8  9  1  0
  9 10  2  0
 10 11  1  0
 11 12  2  0
 12 13  1  0
 13 14  2  0
 14 15  1  0
 15 16  2  0
 15 17  1  0
 17 18  1  0
 18 19  1  0
 19 20  2  0
 20 21  1  0
 21 22  2  0
 22 23  1  0
 23 24  2  0
  4 25  1  0
 25 26  1  0
 26 27  2  0
 27 28  1  0
 28 29  2  0
 29 30  1  0
 30 31  2  0
 14  9  1  0
 24 19  1  0
 31 26  1  0
  1 32  1  0
  1 33  1  0
  2 34  1  0
  3 35  1  0
  3 36  1  0
  5 37  1  0
  5 38  1  0
 10 39  1  0
 11 40  1  0
 12 41  1  0
 13 42  1  0
 18 43  1  0
 18 44  1  0
 20 45  1  0
 21 46  1  0
 22 47  1  0
 23 48  1  0
 24 49  1  0
 25 50  1  0
 25 51  1  0
 27 52  1  0
 28 53  1  0
 29 54  1  0
 30 55  1  0
 31 56  1  0
M  CHG  2   8  -1  17  -1
M  END
>  <UniqueID>  (1) 
1

>  <SMILES>  (1) 
C=CCN(CC(=O)[N-]c1ccccc1C(=O)[N-]Cc1ccccc1)Cc1ccccc1

>  <Energy>  (1) 
57.92581258745697

>  <Genealogy>  (1) 
C=CCN(CC(=O)[N-]c1ccccc1C(=O)[N-]Cc1ccccc1)Cc1ccccc1 (protonated)
C=CCN(CC(=O)[N-]c1ccccc1C(=O)[N-]Cc1ccccc1)Cc1ccccc1 (3D coordinates assigned)
C=CCN(CC(=O)[N-]c1ccccc1C(=O)[N-]Cc1ccccc1)Cc1ccccc1 (optimized conformer: 57.92581258745697 kcal/mol)

>  <smiles>  (1) 
C=CCN(CC(=O)Nc1ccccc1C(=O)NCc1ccccc1)Cc1ccccc1

>  <score_type>  (1) 
oracle

>  <origin>  (1) 
adg

>  <m_score__min__energy>  (1) 
-14.06

>  <m_primary>  (1) 
energy

$$$$
1:0
     RDKit          3D

 45 47  0  0  0  0  0  0  0  0999 V2000
   64.4808   34.4587   46.9894 H   0  0  0  0  0  0  0  0  0  0  0  0
   63.7390   33.6820   47.2270 C   0  0  0  0  0  0  0  0  0  0  0  0
   63.9690   32.7950   48.2810 C   0  0  0  0  0  0  0  0  0  0  0  0
   64.8910   32.8759   48.8754 H   0  0  0  0  0  0  0  0  0  0  0  0
   63.0290   31.8040   48.5820 C   0  0  0  0  0  0  0  0  0  0  0  0
   63.2099   31.1126   49.4182 H   0  0  0  0  0  0  0  0  0  0  0  0
   61.8550   31.6890   47.8200 C   0  0  0  0  0  0  0  0  0  0  0  0
   60.8250   30.6530   48.1710 C   0  0  0  0  0  0  0  0  0  0  0  0
   60.0070   31.1276   48.7328 H   0  0  0  0  0  0  0  0  0  0  0  0
   61.2933   29.8705   48.7861 H   0  0  0  0  0  0  0  0  0  0  0  0
   60.2910   30.0520   46.9540 N   0  0  0  0  0  0  0  0  0  0  0  0
   60.9970   29.3780   46.0220 C   0  0  0  0  0  0  0  0  0  0  0  0
   62.0809   29.1926   46.0484 H   0  0  0  0  0  0  0  0  0  0  0  0
   60.1310   28.9590   45.0280 C   0  0  0  0  0  0  0  0  0  0  0  0
   60.3712   28.3871   44.1196 H   0  0  0  0  0  0  0  0  0  0  0  0
   58.8980   29.4220   45.4360 C   0  0  0  0  0  0  0  0  0  0  0  0
   57.7980   29.2860   44.7540 N   0  0  0  0  0  0  0  0  0  0  0  0
   57.2870   30.2250   43.7550 C   0  0  0  0  0  0  0  0  0  0  0  0
   56.5046   29.7259   43.1644 H   0  0  0  0  0  0  0  0  0  0  0  0
   58.1268   30.5353   43.1159 H   0  0  0  0  0  0  0  0  0  0  0  0
   56.6930   31.4810   44.4060 C   0  0  0  0  0  0  0  0  0  0  0  0
   55.6293   31.3014   44.6210 H   0  0  0  0  0  0  0  0  0  0  0  0
   56.8189   32.3206   43.7066 H   0  0  0  0  0  0  0  0  0  0  0  0
   57.3610   31.8140   45.6240 O   0  0  0  0  0  0  0  0  0  0  0  0
   58.0860   32.9900   45.8870 C   0  0  0  0  0  0  0  0  0  0  0  0
   58.5070   33.8710   44.8700 C   0  0  0  0  0  0  0  0  0  0  0  0
   58.2426   33.6635   43.8226 H   0  0  0  0  0  0  0  0  0  0  0  0
   59.2580   35.0060   45.1850 C   0  0  0  0  0  0  0  0  0  0  0  0
   59.5904   35.6839   44.3850 H   0  0  0  0  0  0  0  0  0  0  0  0
   59.5870   35.2810   46.5120 C   0  0  0  0  0  0  0  0  0  0  0  0
   60.1803   36.1744   46.7567 H   0  0  0  0  0  0  0  0  0  0  0  0
   59.1650   34.4250   47.5300 C   0  0  0  0  0  0  0  0  0  0  0  0
   59.4224   34.6494   48.5757 H   0  0  0  0  0  0  0  0  0  0  0  0
   58.4110   33.2750   47.2250 C   0  0  0  0  0  0  0  0  0  0  0  0
   57.9790   32.3830   48.2190 O   0  0  0  0  0  0  0  0  0  0  0  0
   58.5100   32.3260   49.5390 C   0  0  0  0  0  0  0  0  0  0  0  0
   57.6908   32.4139   50.2679 H   0  0  0  0  0  0  0  0  0  0  0  0
   59.0288   31.3670   49.6844 H   0  0  0  0  0  0  0  0  0  0  0  0
   59.2205   33.1530   49.6844 H   0  0  0  0  0  0  0  0  0  0  0  0
   59.0140   30.0690   46.6130 N   0  0  0  0  0  0  0  0  0  0  0  0
   58.2600   30.5330   47.1690 H   0  0  0  0  0  0  0  0  0  0  0  0
   61.6220   32.5940   46.7700 C   0  0  0  0  0  0  0  0  0  0  0  0
   60.6960   32.5244   46.1804 H   0  0  0  0  0  0  0  0  0  0  0  0
   62.5650   33.5820   46.4740 C   0  0  0  0  0  0  0  0  0  0  0  0
   62.3832   34.2831   45.6461 H   0  0  0  0  0  0  0  0  0  0  0  0
  1  2  1  0
  2  3  2  0
  3  4  1  0
  3  5  1  0
  5  6  1  0
  5  7  2  0
  7  8  1  0
  8  9  1  0
  8 10  1  0
  8 11  1  0
 11 12  1  0
 12 13  1  0
 12 14  2  0
 14 15  1  0
 14 16  1  0
 16 17  2  0
 17 18  1  0
 18 19  1  0
 18 20  1  0
 18 21  1  0
 21 22  1  0
 21 23  1  0
 21 24  1  0
 24 25  1  0
 25 26  2  0
 26 27  1  0
 26 28  1  0
 28 29  1  0
 28 30  2  0
 30 31  1  0
 30 32  1  0
 32 33  1  0
 32 34  2  0
 34 35  1  0
 35 36  1  0
 36 37  1  0
 36 38  1  0
 36 39  1  0
 16 40  1  0
 40 41  1  0
  7 42  1  0
 42 43  1  0
 42 44  2  0
 44 45  1  0
 44  2  1  0
 40 11  1  0
 34 25  1  0
M  END
>  <UniqueID>  (2) 
2

>  <SMILES>  (2) 
COc1ccccc1OCC/N=c1/ccn(Cc2ccccc2)[nH]1

>  <Energy>  (2) 
73.74832017418547

>  <Genealogy>  (2) 
COc1ccccc1OCC/N=c1/ccn(Cc2ccccc2)[nH]1 (cis-trans isomerization)
COc1ccccc1OCC/N=c1/ccn(Cc2ccccc2)[nH]1 (3D coordinates assigned)
COc1ccccc1OCC/N=c1/ccn(Cc2ccccc2)[nH]1 (optimized conformer: 73.74832017418547 kcal/mol)

>  <smiles>  (2) 
COc1ccccc1OCCN=c1ccn(Cc2ccccc2)[nH]1

>  <score_type>  (2) 
oracle

>  <origin>  (2) 
adg

>  <m_score__min__energy>  (2) 
-9.0299999999999994

>  <m_primary>  (2) 
energy

$$$$
2:0
     RDKit          3D

 52 55  0  0  0  0  0  0  0  0999 V2000
   56.2460   22.8030   41.6620 H   0  0  0  0  0  0  0  0  0  0  0  0
   55.9030   22.5670   42.6170 N   0  0  0  0  0  0  0  0  0  0  0  0
   56.6400   22.5540   43.6870 C   0  0  0  0  0  0  0  0  0  0  0  0
   57.2140   23.7200   44.0850 N   0  0  0  0  0  0  0  0  0  0  0  0
   58.0050   23.7950   45.1860 C   0  0  0  0  0  0  0  0  0  0  0  0
   58.5520   25.0670   45.5690 N   0  0  0  0  0  0  0  0  0  0  0  0
   59.3500   25.0640   46.2440 H   0  0  0  0  0  0  0  0  0  0  0  0
   58.0770   26.3380   45.0920 C   0  0  0  0  0  0  0  0  0  0  0  0
   57.5920   27.3140   45.9760 C   0  0  0  0  0  0  0  0  0  0  0  0
   57.5506   27.1020   47.0546 H   0  0  0  0  0  0  0  0  0  0  0  0
   57.1610   28.5540   45.4950 C   0  0  0  0  0  0  0  0  0  0  0  0
   56.7705   29.3060   46.1965 H   0  0  0  0  0  0  0  0  0  0  0  0
   57.2230   28.8470   44.1210 C   0  0  0  0  0  0  0  0  0  0  0  0
   56.7630   30.1610   43.6100 C   0  0  0  0  0  0  0  0  0  0  0  0
   56.5820   30.3260   42.3730 O   0  0  0  0  0  0  0  0  0  0  0  0
   56.4760   31.2270   44.5270 N   0  0  0  0  0  0  0  0  0  0  0  0
   57.4320   32.0440   45.2170 C   0  0  0  0  0  0  0  0  0  0  0  0
   58.5420   31.4950   45.8820 C   0  0  0  0  0  0  0  0  0  0  0  0
   58.7066   30.4075   45.8667 H   0  0  0  0  0  0  0  0  0  0  0  0
   59.4380   32.3250   46.5630 C   0  0  0  0  0  0  0  0  0  0  0  0
   60.3174   31.8895   47.0599 H   0  0  0  0  0  0  0  0  0  0  0  0
   59.2210   33.7130   46.6160 C   0  0  0  0  0  0  0  0  0  0  0  0
   60.1430   34.5890   47.2860 N   0  0  0  0  0  0  0  0  0  0  0  0
   59.8280   35.5660   47.4890 H   0  0  0  0  0  0  0  0  0  0  0  0
   61.4680   34.2140   47.6990 C   0  0  0  0  0  0  0  0  0  0  0  0
   61.7910   34.2090   49.0640 C   0  0  0  0  0  0  0  0  0  0  0  0
   61.0368   34.5124   49.8050 H   0  0  0  0  0  0  0  0  0  0  0  0
   63.0650   33.8210   49.4890 C   0  0  0  0  0  0  0  0  0  0  0  0
   63.3134   33.8303   50.5606 H   0  0  0  0  0  0  0  0  0  0  0  0
   64.0240   33.4210   48.5530 C   0  0  0  0  0  0  0  0  0  0  0  0
   65.0286   33.1230   48.8877 H   0  0  0  0  0  0  0  0  0  0  0  0
   63.7060   33.4000   47.1930 C   0  0  0  0  0  0  0  0  0  0  0  0
   64.4585   33.0787   46.4578 H   0  0  0  0  0  0  0  0  0  0  0  0
   62.4320   33.7870   46.7650 C   0  0  0  0  0  0  0  0  0  0  0  0
   62.1817   33.7578   45.6942 H   0  0  0  0  0  0  0  0  0  0  0  0
   58.1140   34.2560   45.9510 C   0  0  0  0  0  0  0  0  0  0  0  0
   57.9491   35.3435   45.9636 H   0  0  0  0  0  0  0  0  0  0  0  0
   57.2180   33.4270   45.2720 C   0  0  0  0  0  0  0  0  0  0  0  0
   56.3380   33.8635   44.7769 H   0  0  0  0  0  0  0  0  0  0  0  0
   57.7310   27.8740   43.2420 C   0  0  0  0  0  0  0  0  0  0  0  0
   57.7895   28.0895   42.1649 H   0  0  0  0  0  0  0  0  0  0  0  0
   58.1620   26.6360   43.7250 C   0  0  0  0  0  0  0  0  0  0  0  0
   58.5709   25.8899   43.0277 H   0  0  0  0  0  0  0  0  0  0  0  0
   58.2050   22.6470   45.9560 C   0  0  0  0  0  0  0  0  0  0  0  0
   58.8144   22.6852   46.8710 H   0  0  0  0  0  0  0  0  0  0  0  0
   57.6190   21.4540   45.5440 C   0  0  0  0  0  0  0  0  0  0  0  0
   57.7783   20.5394   46.1340 H   0  0  0  0  0  0  0  0  0  0  0  0
   56.8480   21.4030   44.4160 N   0  0  0  0  0  0  0  0  0  0  0  0
   56.2520   20.1190   44.0230 C   0  0  0  0  0  0  0  0  0  0  0  0
   55.9864   19.5469   44.9242 H   0  0  0  0  0  0  0  0  0  0  0  0
   55.3470   20.3025   43.4253 H   0  0  0  0  0  0  0  0  0  0  0  0
   56.9763   19.5462   43.4253 H   0  0  0  0  0  0  0  0  0  0  0  0
  1  2  1  0
  2  3  2  0
  3  4  1  0
  4  5  1  0
  5  6  1  0
  6  7  1  0
  6  8  1  0
  8  9  2  0
  9 10  1  0
  9 11  1  0
 11 12  1  0
 11 13  2  0
 13 14  1  0
 14 15  2  0
 14 16  1  0
 16 17  1  0
 17 18  2  0
 18 19  1  0
 18 20  1  0
 20 21  1  0
 20 22  2  0
 22 23  1  0
 23 24  1  0
 23 25  1  0
 25 26  2  0
 26 27  1  0
 26 28  1  0
 28 29  1  0
 28 30  2  0
 30 31  1  0
 30 32  1  0
 32 33  1  0
 32 34  2  0
 34 35  1  0
 22 36  1  0
 36 37  1  0
 36 38  2  0
 38 39  1  0
 13 40  1  0
 40 41  1  0
 40 42  2  0
 42 43  1  0
  5 44  2  0
 44 45  1  0
 44 46  1  0
 46 47  1  0
 46 48  2  0
 48 49  1  0
 49 50  1  0
 49 51  1  0
 49 52  1  0
 48  3  1  0
 42  8  1  0
 38 17  1  0
 34 25  1  0
M  CHG  3   4  -1  16  -1  48   1
M  END
>  <UniqueID>  (3) 
3

>  <SMILES>  (3) 
[H]/N=c1/[n-]c(Nc2ccc(C(=O)[N-]c3ccc(Nc4ccccc4)cc3)cc2)cc[n+]1C

>  <Energy>  (3) 
75.78325421806345

>  <Genealogy>  (3) 
C[n+]1ccc(Nc2ccc(C(=O)[N-]c3ccc(Nc4ccccc4)cc3)cc2)[n-]c1=N (protonated)
[H]/N=c1/[n-]c(Nc2ccc(C(=O)[N-]c3ccc(Nc4ccccc4)cc3)cc2)cc[n+]1C (cis-trans isomerization)
[H]/N=c1/[n-]c(Nc2ccc(C(=O)[N-]c3ccc(Nc4ccccc4)cc3)cc2)cc[n+]1C (3D coordinates assigned)
[H]/N=c1/[n-]c(Nc2ccc(C(=O)[N-]c3ccc(Nc4ccccc4)cc3)cc2)cc[n+]1C (optimized conformer: 75.78325421806345 kcal/mol)

>  <smiles>  (3) 
C[n+]1ccc(Nc2ccc(C(=O)Nc3ccc(Nc4ccccc4)cc3)cc2)[nH]c1=N

>  <score_type>  (3) 
oracle

>  <origin>  (3) 
adg

>  <m_score__min__energy>  (3) 
-10.369999999999999

>  <m_primary>  (3) 
energy

$$$$
3:0
     RDKit          3D

 51 54  0  0  1  0  0  0  0  0999 V2000
   58.9250   34.6180   47.1880 C   0  0  0  0  0  0  0  0  0  0  0  0
   58.5260   33.7100   46.0590 C   0  0  0  0  0  0  0  0  0  0  0  0
   58.4190   34.2460   44.7960 C   0  0  0  0  0  0  0  0  0  0  0  0
   58.0590   33.4500   43.7530 N   0  0  0  0  0  0  0  0  0  0  0  0
   57.8130   32.1460   43.9750 C   0  0  0  0  0  0  0  0  0  0  0  0
   57.9070   31.5610   45.2240 C   0  0  0  0  0  0  0  0  0  0  0  0
   57.6490   30.1670   45.4880 C   0  0  0  0  0  0  0  0  0  0  0  0
   56.4780   29.6650   45.3830 O   0  0  0  0  0  0  0  0  0  0  0  0
   58.6700   29.2620   45.8800 N   0  0  0  0  0  0  0  0  0  0  0  0
   58.3830   27.8770   46.1370 C   0  0  0  0  0  0  0  0  0  0  0  0
   57.7380   27.1290   45.1750 C   0  0  0  0  0  0  0  0  0  0  0  0
   57.4300   25.7830   45.3590 C   0  0  0  0  0  0  0  0  0  0  0  0
   56.7850   25.0120   44.3570 N   0  0  0  0  0  0  0  0  0  0  0  0
   56.6780   23.6010   44.3760 C   0  0  0  0  0  0  0  0  0  0  0  0
   57.7230   22.8960   43.7750 C   0  0  0  0  0  0  0  0  0  0  0  0
   57.7230   21.5180   43.7340 C   0  0  0  0  0  0  0  0  0  0  0  0
   56.6570   20.8590   44.3070 C   0  0  0  0  0  0  0  0  0  0  0  0
   55.6310   21.5660   44.8980 C   0  0  0  0  0  0  0  0  0  0  0  0
   55.6080   22.9530   44.9500 C   0  0  0  0  0  0  0  0  0  0  0  0
   54.4820   23.6480   45.5460 C   0  0  0  0  0  0  0  0  0  0  0  0
   54.4970   24.8120   45.9840 O   0  0  0  0  0  0  0  0  0  0  0  0
   53.2370   22.9450   45.6450 N   0  0  0  0  0  0  0  0  0  0  0  0
   52.1790   23.5220   45.1610 C   0  0  0  0  0  0  0  0  0  0  0  0
   50.9900   22.8970   44.8510 C   0  0  0  0  0  0  0  0  0  0  0  0
   50.1260   23.8830   44.3620 C   0  0  0  0  0  0  0  0  0  0  0  0
   50.8030   25.0470   44.3910 N   0  0  0  0  0  0  0  0  0  0  0  0
   52.0350   24.8380   44.8690 N   0  0  0  0  0  0  0  0  0  0  0  0
   57.8210   25.2450   46.5870 C   0  0  0  0  0  0  0  0  0  0  0  0
   58.4640   25.9840   47.5480 C   0  0  0  0  0  0  0  0  0  0  0  0
   58.7530   27.3160   47.3340 C   0  0  0  0  0  0  0  0  0  0  0  0
   59.3890   28.0090   48.3100 F   0  0  0  0  0  0  0  0  0  0  0  0
   58.2740   32.3750   46.2870 C   0  0  0  0  0  0  0  0  0  0  0  0
   58.7089   34.1262   48.1479 H   0  0  0  0  0  0  0  0  0  0  0  0
   60.0013   34.8349   47.1212 H   0  0  0  0  0  0  0  0  0  0  0  0
   58.3568   35.5575   47.1212 H   0  0  0  0  0  0  0  0  0  0  0  0
   58.6238   35.3140   44.6304 H   0  0  0  0  0  0  0  0  0  0  0  0
   57.5232   31.5151   43.1218 H   0  0  0  0  0  0  0  0  0  0  0  0
   59.6580   29.5750   45.9930 H   0  0  0  0  0  0  0  0  0  0  0  0
   57.4564   27.6126   44.2280 H   0  0  0  0  0  0  0  0  0  0  0  0
   56.3670   25.5380   43.5600 H   0  0  0  0  0  0  0  0  0  0  0  0
   58.5608   23.4499   43.3264 H   0  0  0  0  0  0  0  0  0  0  0  0
   58.5461   20.9633   43.2599 H   0  0  0  0  0  0  0  0  0  0  0  0
   56.6242   19.7596   44.2929 H   0  0  0  0  0  0  0  0  0  0  0  0
   54.7962   21.0077   45.3468 H   0  0  0  0  0  0  0  0  0  0  0  0
   50.7636   21.8267   44.9662 H   0  0  0  0  0  0  0  0  0  0  0  0
   49.0912   23.7356   44.0193 H   0  0  0  0  0  0  0  0  0  0  0  0
   50.4330   25.9670   44.0910 H   0  0  0  0  0  0  0  0  0  0  0  0
   52.7480   25.5910   44.9860 H   0  0  0  0  0  0  0  0  0  0  0  0
   57.6048   24.1861   46.7922 H   0  0  0  0  0  0  0  0  0  0  0  0
   58.7517   25.5099   48.4980 H   0  0  0  0  0  0  0  0  0  0  0  0
   58.3627   31.9582   47.3011 H   0  0  0  0  0  0  0  0  0  0  0  0
  1  2  1  0
  2  3  2  0
  3  4  1  0
  4  5  2  0
  5  6  1  0
  6  7  1  0
  7  8  2  0
  7  9  1  0
  9 10  1  0
 10 11  2  0
 11 12  1  0
 12 13  1  0
 13 14  1  0
 14 15  2  0
 15 16  1  0
 16 17  2  0
 17 18  1  0
 18 19  2  0
 19 20  1  0
 20 21  2  0
 20 22  1  0
 22 23  2  0
 23 24  1  0
 24 25  2  0
 25 26  1  0
 26 27  1  0
 12 28  2  0
 28 29  1  0
 29 30  2  0
 30 31  1  0
  6 32  2  0
 32  2  1  0
 30 10  1  0
 19 14  1  0
 27 23  1  0
  1 33  1  0
  1 34  1  0
  1 35  1  0
  3 36  1  0
  5 37  1  0
  9 38  1  0
 11 39  1  0
 13 40  1  0
 15 41  1  0
 16 42  1  0
 17 43  1  0
 18 44  1  0
 24 45  1  0
 25 46  1  0
 26 47  1  0
 27 48  1  0
 28 49  1  0
 29 50  1  0
 32 51  1  0
M  END
>  <smiles>  (4) 
Cc1cncc(C(=O)Nc2cc(Nc3ccccc3C(=O)N=c3cc[nH][nH]3)ccc2F)c1

>  <score_type>  (4) 
oracle

>  <origin>  (4) 
adg

>  <m_score__min__energy>  (4) 
-9.6699999999999999

>  <m_primary>  (4) 
energy

$$$$
4:0
     RDKit          3D

 37 39  0  0  1  0  0  0  0  0999 V2000
   58.1560   27.4720   43.7550 Cl  0  0  0  0  0  0  0  0  0  0  0  0
   58.7270   28.0500   45.3110 C   0  0  0  0  0  0  0  0  0  0  0  0
   59.7570   27.3950   45.9560 C   0  0  0  0  0  0  0  0  0  0  0  0
   60.2370   27.8120   47.1770 C   0  0  0  0  0  0  0  0  0  0  0  0
   59.6420   28.9290   47.7430 C   0  0  0  0  0  0  0  0  0  0  0  0
   58.6110   29.6130   47.1330 C   0  0  0  0  0  0  0  0  0  0  0  0
   58.1680   29.1590   45.9200 C   0  0  0  0  0  0  0  0  0  0  0  0
   57.1000   29.7940   45.1930 N   0  0  0  0  0  0  0  0  0  0  0  0
   57.4120   30.8780   44.5400 C   0  0  0  0  0  0  0  0  0  0  0  0
   57.3970   32.1090   45.1910 C   0  0  0  0  0  0  0  0  0  0  0  0
   57.7340   33.2220   44.4610 C   0  0  0  0  0  0  0  0  0  0  0  0
   57.7600   34.5950   45.0270 C   0  0  0  0  0  0  0  0  0  0  0  0
   59.0830   34.9970   45.4250 N   0  0  0  0  0  0  0  0  0  0  0  0
   59.7680   34.4070   46.5140 C   0  0  0  0  0  0  0  0  0  0  0  0
   59.0970   34.1530   47.6970 C   0  0  0  0  0  0  0  0  0  0  0  0
   59.7410   33.5760   48.7850 C   0  0  0  0  0  0  0  0  0  0  0  0
   61.0630   33.2590   48.6620 C   0  0  0  0  0  0  0  0  0  0  0  0
   61.7310   33.5080   47.4910 C   0  0  0  0  0  0  0  0  0  0  0  0
   63.5850   33.0730   47.2950 Br  0  0  0  0  0  0  0  0  0  0  0  0
   61.0910   34.0830   46.4120 C   0  0  0  0  0  0  0  0  0  0  0  0
   58.0570   33.0820   43.1700 N   0  0  0  0  0  0  0  0  0  0  0  0
   58.0800   31.9050   42.5150 C   0  0  0  0  0  0  0  0  0  0  0  0
   57.7480   30.8110   43.2410 N   0  0  0  0  0  0  0  0  0  0  0  0
   60.2083   26.5123   45.4794 H   0  0  0  0  0  0  0  0  0  0  0  0
   61.0577   27.2815   47.6820 H   0  0  0  0  0  0  0  0  0  0  0  0
   60.0068   29.2842   48.7180 H   0  0  0  0  0  0  0  0  0  0  0  0
   58.1586   30.4965   47.6070 H   0  0  0  0  0  0  0  0  0  0  0  0
   57.1245   32.1870   46.2538 H   0  0  0  0  0  0  0  0  0  0  0  0
   57.3906   35.2983   44.2661 H   0  0  0  0  0  0  0  0  0  0  0  0
   57.1226   34.6014   45.9235 H   0  0  0  0  0  0  0  0  0  0  0  0
   59.5360   35.7580   44.8710 H   0  0  0  0  0  0  0  0  0  0  0  0
   58.0313   34.4132   47.7781 H   0  0  0  0  0  0  0  0  0  0  0  0
   59.1990   33.3797   49.7218 H   0  0  0  0  0  0  0  0  0  0  0  0
   61.5959   32.8007   49.5081 H   0  0  0  0  0  0  0  0  0  0  0  0
   61.6406   34.2784   45.4794 H   0  0  0  0  0  0  0  0  0  0  0  0
   58.3528   31.8365   41.4516 H   0  0  0  0  0  0  0  0  0  0  0  0
   57.7640   29.9050   42.7430 H   0  0  0  0  0  0  0  0  0  0  0  0
  1  2  1  0
  2  3  2  0
  3  4  1  0
  4  5  2  0
  5  6  1  0
  6  7  2  0
  7  8  1  0
  8  9  2  0
  9 10  1  0
 10 11  2  0
 11 12  1  0
 12 13  1  0
 13 14  1  0
 14 15  2  0
 15 16  1  0
 16 17  2  0
 17 18  1  0
 18 19  1  0
 18 20  2  0
 11 21  1  0
 21 22  2  0
 22 23  1  0
  7  2  1  0
 23  9  1  0
 20 14  1  0
  3 24  1  0
  4 25  1  0
  5 26  1  0
  6 27  1  0
 10 28  1  0
 12 29  1  0
 12 30  1  0
 13 31  1  0
 15 32  1  0
 16 33  1  0
 17 34  1  0
 20 35  1  0
 22 36  1  0
 23 37  1  0
M  END
>  <smiles>  (5) 
Clc1ccccc1N=c1cc(CNc2cccc(Br)c2)nc[nH]1

>  <score_type>  (5) 
oracle

>  <origin>  (5) 
adg

>  <m_score__min__energy>  (5) 
-8.1999999999999993

>  <m_primary>  (5) 
energy

$$$$
5:0
     RDKit          3D

 49 52  0  0  0  0  0  0  0  0999 V2000
   55.3440   28.6130   45.7820 H   0  0  0  0  0  0  0  0  0  0  0  0
   55.6250   29.0600   44.8810 N   0  0  0  0  0  0  0  0  0  0  0  0
   57.2680   29.5730   45.0550 S   0  0  0  0  0  0  0  0  0  0  0  0
   57.3260   30.7110   46.0330 O   0  0  0  0  0  0  0  0  0  0  0  0
   57.7560   30.0400   43.7110 O   0  0  0  0  0  0  0  0  0  0  0  0
   58.2800   28.2370   45.6300 C   0  0  0  0  0  0  0  0  0  0  0  0
   58.3960   27.0820   44.8380 C   0  0  0  0  0  0  0  0  0  0  0  0
   57.8314   27.0076   43.8969 H   0  0  0  0  0  0  0  0  0  0  0  0
   59.2220   26.0270   45.2350 C   0  0  0  0  0  0  0  0  0  0  0  0
   59.3039   25.1274   44.6073 H   0  0  0  0  0  0  0  0  0  0  0  0
   59.9420   26.1130   46.4250 C   0  0  0  0  0  0  0  0  0  0  0  0
   60.5973   25.2844   46.7314 H   0  0  0  0  0  0  0  0  0  0  0  0
   59.8330   27.2480   47.2280 C   0  0  0  0  0  0  0  0  0  0  0  0
   60.4072   27.3112   48.1641 H   0  0  0  0  0  0  0  0  0  0  0  0
   58.9960   28.3110   46.8510 C   0  0  0  0  0  0  0  0  0  0  0  0
   58.8970   29.4780   47.7500 C   0  0  0  0  0  0  0  0  0  0  0  0
   58.2600   29.3710   48.9930 C   0  0  0  0  0  0  0  0  0  0  0  0
   57.8256   28.4103   49.3068 H   0  0  0  0  0  0  0  0  0  0  0  0
   58.1780   30.4530   49.8120 N   0  0  0  0  0  0  0  0  0  0  0  0
   58.7030   31.6620   49.4770 C   0  0  0  0  0  0  0  0  0  0  0  0
   58.5680   32.6500   50.3180 N   0  0  0  0  0  0  0  0  0  0  0  0
   58.5310   32.5710   51.7800 C   0  0  0  0  0  0  0  0  0  0  0  0
   59.5422   32.3544   52.1549 H   0  0  0  0  0  0  0  0  0  0  0  0
   58.1732   33.5330   52.1756 H   0  0  0  0  0  0  0  0  0  0  0  0
   57.5920   31.4830   52.2350 C   0  0  0  0  0  0  0  0  0  0  0  0
   58.1040   30.2920   52.7680 C   0  0  0  0  0  0  0  0  0  0  0  0
   59.1918   30.1551   52.8568 H   0  0  0  0  0  0  0  0  0  0  0  0
   57.2390   29.2780   53.1870 C   0  0  0  0  0  0  0  0  0  0  0  0
   57.6482   28.3443   53.6002 H   0  0  0  0  0  0  0  0  0  0  0  0
   55.8570   29.4460   53.0830 C   0  0  0  0  0  0  0  0  0  0  0  0
   55.1824   28.6410   53.4098 H   0  0  0  0  0  0  0  0  0  0  0  0
   55.3220   30.6380   52.5630 C   0  0  0  0  0  0  0  0  0  0  0  0
   53.8520   30.8190   52.4520 C   0  0  0  0  0  0  0  0  0  0  0  0
   52.9760   30.0900   53.2800 C   0  0  0  0  0  0  0  0  0  0  0  0
   53.3833   29.3795   54.0144 H   0  0  0  0  0  0  0  0  0  0  0  0
   51.5930   30.2630   53.1750 C   0  0  0  0  0  0  0  0  0  0  0  0
   50.9170   29.6905   53.8272 H   0  0  0  0  0  0  0  0  0  0  0  0
   51.0680   31.1610   52.2440 C   0  0  0  0  0  0  0  0  0  0  0  0
   49.9792   31.2938   52.1616 H   0  0  0  0  0  0  0  0  0  0  0  0
   51.9250   31.8910   51.4170 C   0  0  0  0  0  0  0  0  0  0  0  0
   51.4020   32.7880   50.4930 O   0  0  0  0  0  0  0  0  0  0  0  0
   53.3100   31.7210   51.5180 C   0  0  0  0  0  0  0  0  0  0  0  0
   53.9800   32.2967   50.8625 H   0  0  0  0  0  0  0  0  0  0  0  0
   56.2000   31.6570   52.1450 C   0  0  0  0  0  0  0  0  0  0  0  0
   55.7928   32.5972   51.7446 H   0  0  0  0  0  0  0  0  0  0  0  0
   59.3710   31.8010   48.2450 C   0  0  0  0  0  0  0  0  0  0  0  0
   59.8129   32.7672   47.9601 H   0  0  0  0  0  0  0  0  0  0  0  0
   59.4680   30.7030   47.3880 C   0  0  0  0  0  0  0  0  0  0  0  0
   59.9940   30.8012   46.4269 H   0  0  0  0  0  0  0  0  0  0  0  0
  1  2  1  0
  2  3  1  0
  3  4  2  0
  3  5  2  0
  3  6  1  0
  6  7  2  0
  7  8  1  0
  7  9  1  0
  9 10  1  0
  9 11  2  0
 11 12  1  0
 11 13  1  0
 13 14  1  0
 13 15  2  0
 15 16  1  0
 16 17  2  0
 17 18  1  0
 17 19  1  0
 19 20  1  0
 20 21  2  0
 21 22  1  0
 22 23  1  0
 22 24  1  0
 22 25  1  0
 25 26  2  0
 26 27  1  0
 26 28  1  0
 28 29  1  0
 28 30  2  0
 30 31  1  0
 30 32  1  0
 32 33  1  0
 33 34  2  0
 34 35  1  0
 34 36  1  0
 36 37  1  0
 36 38  2  0
 38 39  1  0
 38 40  1  0
 40 41  1  0
 40 42  2  0
 42 43  1  0
 32 44  2  0
 44 45  1  0
 20 46  1  0
 46 47  1  0
 46 48  2  0
 48 49  1  0
 15  6  1  0
 48 16  1  0
 44 25  1  0
 42 33  1  0
M  CHG  3   2  -1  19  -1  41  -1
M  END
>  <UniqueID>  (6) 
4

>  <SMILES>  (6) 
[NH-]S(=O)(=O)c1ccccc1-c1cc/c(=N\Cc2cccc(-c3cccc([O-])c3)c2)[n-]c1

>  <Energy>  (6) 
70.04504906336891

>  <Genealogy>  (6) 
[NH-]S(=O)(=O)c1ccccc1-c1ccc(=NCc2cccc(-c3cccc([O-])c3)c2)[n-]c1 (protonated)
[NH-]S(=O)(=O)c1ccccc1-c1cc/c(=N\Cc2cccc(-c3cccc([O-])c3)c2)[n-]c1 (cis-trans isomerization)
[NH-]S(=O)(=O)c1ccccc1-c1cc/c(=N\Cc2cccc(-c3cccc([O-])c3)c2)[n-]c1 (3D coordinates assigned)
[NH-]S(=O)(=O)c1ccccc1-c1cc/c(=N\Cc2cccc(-c3cccc([O-])c3)c2)[n-]c1 (optimized conformer: 70.04504906336891 kcal/mol)

>  <smiles>  (6) 
NS(=O)(=O)c1ccccc1-c1ccc(=NCc2cccc(-c3cccc(O)c3)c2)[nH]c1

>  <score_type>  (6) 
oracle

>  <origin>  (6) 
adg

>  <m_score__min__energy>  (6) 
-16.460000000000001

>  <m_primary>  (6) 
energy

$$$$
6:0
     RDKit          3D

 53 55  0  0  1  0  0  0  0  0999 V2000
   64.8760   32.7660   49.4680 C   0  0  0  0  0  0  0  0  0  0  0  0
   63.7020   33.3020   48.7390 C   0  0  0  0  0  0  0  0  0  0  0  0
   62.5780   33.7500   49.4400 C   0  0  0  0  0  0  0  0  0  0  0  0
   61.4870   34.2490   48.7460 C   0  0  0  0  0  0  0  0  0  0  0  0
   61.5320   34.2930   47.3540 C   0  0  0  0  0  0  0  0  0  0  0  0
   60.0850   34.9490   46.5340 S   0  0  0  0  0  0  0  0  0  0  0  0
   59.1470   33.5620   45.9120 C   0  0  0  0  0  0  0  0  0  0  0  0
   58.9070   33.3660   44.5630 C   0  0  0  0  0  0  0  0  0  0  0  0
   58.1650   32.2590   44.1370 C   0  0  0  0  0  0  0  0  0  0  0  0
   57.6720   31.3610   45.0610 C   0  0  0  0  0  0  0  0  0  0  0  0
   56.7330   29.9500   44.5970 S   0  0  0  0  0  0  0  0  0  0  0  0
   56.9960   29.5730   43.1650 O   0  0  0  0  0  0  0  0  0  0  0  0
   55.3030   30.2730   44.8220 O   0  0  0  0  0  0  0  0  0  0  0  0
   57.2530   28.6520   45.6070 N   0  0  0  0  0  0  0  0  0  0  0  0
   58.4900   28.8710   46.2300 C   0  0  0  0  0  0  0  0  0  0  0  0
   59.4410   27.7170   46.2960 C   0  0  0  0  0  0  0  0  0  0  0  0
   59.4150   26.8230   45.1080 C   0  0  0  0  0  0  0  0  0  0  0  0
   58.0870   26.6100   44.4860 C   0  0  2  0  0  0  0  0  0  0  0  0
   57.6750   25.1310   44.5230 C   0  0  0  0  0  0  0  0  0  0  0  0
   58.1970   26.9440   43.1370 O   0  0  0  0  0  0  0  0  0  0  0  0
   56.9380   27.3590   45.1200 C   0  0  1  0  0  0  0  0  0  0  0  0
   56.2000   26.5170   46.0960 C   0  0  0  0  0  0  0  0  0  0  0  0
   54.8150   26.3530   45.9950 O   0  0  0  0  0  0  0  0  0  0  0  0
   56.7710   25.8960   47.0740 N   0  0  0  0  0  0  0  0  0  0  0  0
   56.1330   24.8440   47.7300 O   0  0  0  0  0  0  0  0  0  0  0  0
   57.9240   31.5760   46.4210 C   0  0  0  0  0  0  0  0  0  0  0  0
   58.6570   32.6660   46.8580 C   0  0  0  0  0  0  0  0  0  0  0  0
   62.6440   33.8480   46.6610 C   0  0  0  0  0  0  0  0  0  0  0  0
   63.7450   33.3460   47.3500 C   0  0  0  0  0  0  0  0  0  0  0  0
   64.7024   32.8452   50.5513 H   0  0  0  0  0  0  0  0  0  0  0  0
   65.0254   31.7105   49.1968 H   0  0  0  0  0  0  0  0  0  0  0  0
   65.7714   33.3445   49.1968 H   0  0  0  0  0  0  0  0  0  0  0  0
   62.5598   33.7065   50.5390 H   0  0  0  0  0  0  0  0  0  0  0  0
   60.5978   34.6054   49.2866 H   0  0  0  0  0  0  0  0  0  0  0  0
   59.2999   34.0811   43.8253 H   0  0  0  0  0  0  0  0  0  0  0  0
   57.9746   32.1046   43.0647 H   0  0  0  0  0  0  0  0  0  0  0  0
   58.9942   29.6835   45.6863 H   0  0  0  0  0  0  0  0  0  0  0  0
   58.2420   29.0920   47.2787 H   0  0  0  0  0  0  0  0  0  0  0  0
   60.4599   28.1180   46.4011 H   0  0  0  0  0  0  0  0  0  0  0  0
   59.1272   27.1039   47.1537 H   0  0  0  0  0  0  0  0  0  0  0  0
   60.0785   27.2569   44.3454 H   0  0  0  0  0  0  0  0  0  0  0  0
   59.7345   25.8354   45.4722 H   0  0  0  0  0  0  0  0  0  0  0  0
   57.5833   24.8020   45.5686 H   0  0  0  0  0  0  0  0  0  0  0  0
   56.7081   25.0069   44.0134 H   0  0  0  0  0  0  0  0  0  0  0  0
   58.4385   24.5248   44.0134 H   0  0  0  0  0  0  0  0  0  0  0  0
   57.3730   27.4570   42.8970 H   0  0  0  0  0  0  0  0  0  0  0  0
   56.2460   27.5729   44.2922 H   0  0  0  0  0  0  0  0  0  0  0  0
   54.3470   25.5470   46.3980 H   0  0  0  0  0  0  0  0  0  0  0  0
   55.1240   24.8410   47.6610 H   0  0  0  0  0  0  0  0  0  0  0  0
   57.5304   30.8622   47.1597 H   0  0  0  0  0  0  0  0  0  0  0  0
   58.8482   32.8208   47.9301 H   0  0  0  0  0  0  0  0  0  0  0  0
   62.6583   33.8910   45.5619 H   0  0  0  0  0  0  0  0  0  0  0  0
   64.6323   32.9908   46.8055 H   0  0  0  0  0  0  0  0  0  0  0  0
  1  2  1  0
  2  3  2  0
  3  4  1  0
  4  5  2  0
  5  6  1  0
  6  7  1  0
  7  8  2  0
  8  9  1  0
  9 10  2  0
 10 11  1  0
 11 12  2  0
 11 13  2  0
 11 14  1  0
 14 15  1  0
 15 16  1  0
 16 17  1  0
 17 18  1  0
 18 19  1  0
 18 20  1  6
 18 21  1  0
 21 22  1  0
 22 23  1  0
 22 24  2  0
 24 25  1  0
 10 26  1  0
 26 27  2  0
  5 28  1  0
 28 29  2  0
 29  2  1  0
 27  7  1  0
 21 14  1  0
  1 30  1  0
  1 31  1  0
  1 32  1  0
  3 33  1  0
  4 34  1  0
  8 35  1  0
  9 36  1  0
 15 37  1  0
 15 38  1  0
 16 39  1  0
 16 40  1  0
 17 41  1  0
 17 42  1  0
 19 43  1  0
 19 44  1  0
 19 45  1  0
 20 46  1  0
 21 47  1  6
 23 48  1  0
 25 49  1  0
 26 50  1  0
 27 51  1  0
 28 52  1  0
 29 53  1  0
M  END
>  <smiles>  (7) 
Cc1ccc(Sc2ccc(S(=O)(=O)N3CCCC(C)(O)C3C(O)=NO)cc2)cc1

>  <score_type>  (7) 
oracle

>  <origin>  (7) 
adg

>  <m_score__min__energy>  (7) 
-11.51

>  <m_primary>  (7) 
energy

$$$$
7:0
     RDKit          3D

 54 56  0  0  0  0  0  0  0  0999 V2000
   59.5600   34.9540   46.7090 C   0  0  0  0  0  0  0  0  0  0  0  0
   59.0660   33.2070   46.8770 S   0  0  0  0  0  0  0  0  0  0  0  0
   57.3200   33.4530   46.3860 C   0  0  0  0  0  0  0  0  0  0  0  0
   57.2330   34.0550   44.9790 C   0  0  0  0  0  0  0  0  0  0  0  0
   58.1380   33.3640   43.9860 C   0  0  0  0  0  0  0  0  0  0  0  0
   59.2730   33.8540   43.7280 O   0  0  0  0  0  0  0  0  0  0  0  0
   57.7110   32.1640   43.3030 N   0  0  0  0  0  0  0  0  0  0  0  0
   57.5630   32.1460   41.8440 C   0  0  0  0  0  0  0  0  0  0  0  0
   57.5200   30.9450   44.0480 C   0  0  0  0  0  0  0  0  0  0  0  0
   56.2420   30.3840   44.1660 C   0  0  0  0  0  0  0  0  0  0  0  0
   56.0520   29.2010   44.8800 C   0  0  0  0  0  0  0  0  0  0  0  0
   57.1370   28.5580   45.5010 C   0  0  0  0  0  0  0  0  0  0  0  0
   56.9590   27.3110   46.1940 N   0  0  0  0  0  0  0  0  0  0  0  0
   56.0980   26.2320   45.8040 C   0  0  0  0  0  0  0  0  0  0  0  0
   54.8520   26.3250   45.9760 O   0  0  0  0  0  0  0  0  0  0  0  0
   56.6760   24.9870   45.2490 C   0  0  0  0  0  0  0  0  0  0  0  0
   55.9640   24.2220   44.3050 C   0  0  0  0  0  0  0  0  0  0  0  0
   56.5120   23.0430   43.7900 C   0  0  0  0  0  0  0  0  0  0  0  0
   57.7680   22.6100   44.2130 C   0  0  0  0  0  0  0  0  0  0  0  0
   58.4870   23.3610   45.1480 C   0  0  0  0  0  0  0  0  0  0  0  0
   57.9470   24.5430   45.6640 C   0  0  0  0  0  0  0  0  0  0  0  0
   58.4350   29.0970   45.3590 C   0  0  0  0  0  0  0  0  0  0  0  0
   59.6100   28.4450   45.9880 C   0  0  0  0  0  0  0  0  0  0  0  0
   60.4140   27.8000   45.2590 O   0  0  0  0  0  0  0  0  0  0  0  0
   59.8580   28.5120   47.4500 C   0  0  0  0  0  0  0  0  0  0  0  0
   60.4200   27.4230   48.1420 C   0  0  0  0  0  0  0  0  0  0  0  0
   60.6430   27.4970   49.5210 C   0  0  0  0  0  0  0  0  0  0  0  0
   60.2990   28.6530   50.2250 C   0  0  0  0  0  0  0  0  0  0  0  0
   60.5200   28.7250   51.5950 O   0  0  0  0  0  0  0  0  0  0  0  0
   59.7280   29.7360   49.5520 C   0  0  0  0  0  0  0  0  0  0  0  0
   59.5040   29.6660   48.1720 C   0  0  0  0  0  0  0  0  0  0  0  0
   58.6100   30.2970   44.6470 C   0  0  0  0  0  0  0  0  0  0  0  0
   59.6853   35.3973   47.7079 H   0  0  0  0  0  0  0  0  0  0  0  0
   60.5106   35.0150   46.1589 H   0  0  0  0  0  0  0  0  0  0  0  0
   58.7821   35.5037   46.1589 H   0  0  0  0  0  0  0  0  0  0  0  0
   56.8018   32.4828   46.3964 H   0  0  0  0  0  0  0  0  0  0  0  0
   56.8467   34.1459   47.0972 H   0  0  0  0  0  0  0  0  0  0  0  0
   56.1949   33.9711   44.6251 H   0  0  0  0  0  0  0  0  0  0  0  0
   57.5589   35.1033   45.0482 H   0  0  0  0  0  0  0  0  0  0  0  0
   56.5018   32.0169   41.5847 H   0  0  0  0  0  0  0  0  0  0  0  0
   57.9296   33.0954   41.4265 H   0  0  0  0  0  0  0  0  0  0  0  0
   58.1465   31.3122   41.4265 H   0  0  0  0  0  0  0  0  0  0  0  0
   55.3821   30.8800   43.6922 H   0  0  0  0  0  0  0  0  0  0  0  0
   55.0441   28.7672   44.9579 H   0  0  0  0  0  0  0  0  0  0  0  0
   54.9701   24.5541   43.9705 H   0  0  0  0  0  0  0  0  0  0  0  0
   55.9504   22.4554   43.0489 H   0  0  0  0  0  0  0  0  0  0  0  0
   58.1930   21.6783   43.8115 H   0  0  0  0  0  0  0  0  0  0  0  0
   59.4797   23.0211   45.4783 H   0  0  0  0  0  0  0  0  0  0  0  0
   58.5181   25.1298   46.3985 H   0  0  0  0  0  0  0  0  0  0  0  0
   60.6859   26.5068   47.5944 H   0  0  0  0  0  0  0  0  0  0  0  0
   61.0900   26.6434   50.0516 H   0  0  0  0  0  0  0  0  0  0  0  0
   59.4540   30.6451   50.1074 H   0  0  0  0  0  0  0  0  0  0  0  0
   59.0480   30.5193   47.6486 H   0  0  0  0  0  0  0  0  0  0  0  0
   59.6158   30.7335   44.5587 H   0  0  0  0  0  0  0  0  0  0  0  0
  1  2  1  0
  2  3  1  0
  3  4  1  0
  4  5  1  0
  5  6  2  0
  5  7  1  0
  7  8  1  0
  7  9  1  0
  9 10  2  0
 10 11  1  0
 11 12  2  0
 12 13  1  0
 13 14  1  0
 14 15  2  0
 14 16  1  0
 16 17  2  0
 17 18  1  0
 18 19  2  0
 19 20  1  0
 20 21  2  0
 12 22  1  0
 22 23  1  0
 23 24  2  0
 23 25  1  0
 25 26  2  0
 26 27  1  0
 27 28  2  0
 28 29  1  0
 28 30  1  0
 30 31  2  0
 22 32  2  0
 32  9  1  0
 21 16  1  0
 31 25  1  0
  1 33  1  0
  1 34  1  0
  1 35  1  0
  3 36  1  0
  3 37  1  0
  4 38  1  0
  4 39  1  0
  8 40  1  0
  8 41  1  0
  8 42  1  0
 10 43  1  0
 11 44  1  0
 17 45  1  0
 18 46  1  0
 19 47  1  0
 20 48  1  0
 21 49  1  0
 26 50  1  0
 27 51  1  0
 30 52  1  0
 31 53  1  0
 32 54  1  0
M  CHG  2  13  -1  29  -1
M  END
>  <UniqueID>  (8) 
5

>  <SMILES>  (8) 
CSCCC(=O)N(C)c1ccc([N-]C(=O)c2ccccc2)c(C(=O)c2ccc([O-])cc2)c1

>  <Energy>  (8) 
69.07812195563626

>  <Genealogy>  (8) 
CSCCC(=O)N(C)c1ccc([N-]C(=O)c2ccccc2)c(C(=O)c2ccc([O-])cc2)c1 (protonated)
CSCCC(=O)N(C)c1ccc([N-]C(=O)c2ccccc2)c(C(=O)c2ccc([O-])cc2)c1 (3D coordinates assigned)
CSCCC(=O)N(C)c1ccc([N-]C(=O)c2ccccc2)c(C(=O)c2ccc([O-])cc2)c1 (optimized conformer: 69.07812195563626 kcal/mol)

>  <smiles>  (8) 
CSCCC(=O)N(C)c1ccc(NC(=O)c2ccccc2)c(C(=O)c2ccc(O)cc2)c1

>  <score_type>  (8) 
oracle

>  <origin>  (8) 
adg

>  <m_score__min__energy>  (8) 
-11.82

>  <m_primary>  (8) 
energy

$$$$
8:0
     RDKit          3D

 39 41  0  0  0  0  0  0  0  0999 V2000
   61.0478   29.2592   48.8258 H   0  0  0  0  0  0  0  0  0  0  0  0
   60.5330   29.5880   47.9110 C   0  0  0  0  0  0  0  0  0  0  0  0
   59.2650   28.7850   47.1510 S   0  0  0  0  0  0  0  0  0  0  0  0
   59.1400   29.9220   45.9150 C   0  0  0  0  0  0  0  0  0  0  0  0
   58.2700   29.9210   44.9460 N   0  0  0  0  0  0  0  0  0  0  0  0
   57.3660   30.9800   44.6020 C   0  0  0  0  0  0  0  0  0  0  0  0
   56.1310   30.7920   44.7630 O   0  0  0  0  0  0  0  0  0  0  0  0
   57.8620   32.3660   44.2710 C   0  0  0  0  0  0  0  0  0  0  0  0
   58.9574   32.3341   44.1760 H   0  0  0  0  0  0  0  0  0  0  0  0
   57.3803   32.6750   43.3316 H   0  0  0  0  0  0  0  0  0  0  0  0
   57.4930   33.3990   45.3410 C   0  0  0  0  0  0  0  0  0  0  0  0
   56.6422   33.9972   44.9828 H   0  0  0  0  0  0  0  0  0  0  0  0
   57.2310   32.8624   46.2648 H   0  0  0  0  0  0  0  0  0  0  0  0
   58.8940   34.5140   45.7010 S   0  0  0  0  0  0  0  0  0  0  0  0
   59.0820   33.9330   47.3860 C   0  0  0  0  0  0  0  0  0  0  0  0
   59.9390   34.6040   48.2680 C   0  0  0  0  0  0  0  0  0  0  0  0
   60.4978   35.4878   47.9264 H   0  0  0  0  0  0  0  0  0  0  0  0
   60.0840   34.1500   49.5830 C   0  0  0  0  0  0  0  0  0  0  0  0
   60.7611   34.6738   50.2738 H   0  0  0  0  0  0  0  0  0  0  0  0
   59.3690   33.0310   50.0200 C   0  0  0  0  0  0  0  0  0  0  0  0
   59.4820   32.6764   51.0551 H   0  0  0  0  0  0  0  0  0  0  0  0
   58.5100   32.3620   49.1420 C   0  0  0  0  0  0  0  0  0  0  0  0
   57.9488   31.4807   49.4860 H   0  0  0  0  0  0  0  0  0  0  0  0
   58.3650   32.8140   47.8270 C   0  0  0  0  0  0  0  0  0  0  0  0
   57.6867   32.2898   47.1378 H   0  0  0  0  0  0  0  0  0  0  0  0
   60.0350   30.9190   46.0780 N   0  0  0  0  0  0  0  0  0  0  0  0
   60.1210   31.7190   45.4130 H   0  0  0  0  0  0  0  0  0  0  0  0
   60.8200   30.7440   47.1810 C   0  0  0  0  0  0  0  0  0  0  0  0
   61.8800   31.7100   47.5680 C   0  0  0  0  0  0  0  0  0  0  0  0
   62.1730   32.8200   46.7520 C   0  0  0  0  0  0  0  0  0  0  0  0
   61.6136   32.9741   45.8175 H   0  0  0  0  0  0  0  0  0  0  0  0
   63.1700   33.7270   47.1220 C   0  0  0  0  0  0  0  0  0  0  0  0
   63.3900   34.5923   46.4795 H   0  0  0  0  0  0  0  0  0  0  0  0
   63.8870   33.5380   48.3040 C   0  0  0  0  0  0  0  0  0  0  0  0
   64.6712   34.2533   48.5926 H   0  0  0  0  0  0  0  0  0  0  0  0
   63.6080   32.4400   49.1200 C   0  0  0  0  0  0  0  0  0  0  0  0
   64.1746   32.2903   50.0509 H   0  0  0  0  0  0  0  0  0  0  0  0
   62.6100   31.5300   48.7570 C   0  0  0  0  0  0  0  0  0  0  0  0
   62.3944   30.6679   49.4054 H   0  0  0  0  0  0  0  0  0  0  0  0
  1  2  1  0
  2  3  1  0
  3  4  1  0
  4  5  2  0
  5  6  1  0
  6  7  2  0
  6  8  1  0
  8  9  1  0
  8 10  1  0
  8 11  1  0
 11 12  1  0
 11 13  1  0
 11 14  1  0
 14 15  1  0
 15 16  2  0
 16 17  1  0
 16 18  1  0
 18 19  1  0
 18 20  2  0
 20 21  1  0
 20 22  1  0
 22 23  1  0
 22 24  2  0
 24 25  1  0
  4 26  1  0
 26 27  1  0
 26 28  1  0
 28 29  1  0
 29 30  2  0
 30 31  1  0
 30 32  1  0
 32 33  1  0
 32 34  2  0
 34 35  1  0
 34 36  1  0
 36 37  1  0
 36 38  2  0
 38 39  1  0
 28  2  2  0
 38 29  1  0
 24 15  1  0
M  END
>  <UniqueID>  (9) 
6

>  <SMILES>  (9) 
O=C(CCSc1ccccc1)/N=c1/[nH]c(-c2ccccc2)cs1

>  <Energy>  (9) 
76.25877572741504

>  <Genealogy>  (9) 
O=C(CCSc1ccccc1)/N=c1/[nH]c(-c2ccccc2)cs1 (cis-trans isomerization)
O=C(CCSc1ccccc1)/N=c1/[nH]c(-c2ccccc2)cs1 (3D coordinates assigned)
O=C(CCSc1ccccc1)/N=c1/[nH]c(-c2ccccc2)cs1 (optimized conformer: 76.25877572741504 kcal/mol)

>  <smiles>  (9) 
O=C(CCSc1ccccc1)N=c1[nH]c(-c2ccccc2)cs1

>  <score_type>  (9) 
oracle

>  <origin>  (9) 
adg

>  <m_score__min__energy>  (9) 
-7.5999999999999996

>  <m_primary>  (9) 
energy

$$$$
9:0
     RDKit          3D

 19 20  0  0  0  0  0  0  0  0999 V2000
   57.4980   31.9880   41.7690 S   0  0  0  0  0  0  0  0  0  0  0  0
   56.9680   30.9630   42.9100 C   0  0  0  0  0  0  0  0  0  0  0  0
   56.2250   29.8390   42.7490 N   0  0  0  0  0  0  0  0  0  0  0  0
   56.0390   29.3380   43.9500 N   0  0  0  0  0  0  0  0  0  0  0  0
   56.6480   30.1180   44.8800 C   0  0  0  0  0  0  0  0  0  0  0  0
   57.2210   31.1210   44.2220 N   0  0  0  0  0  0  0  0  0  0  0  0
   57.9710   32.1760   44.8480 C   0  0  0  0  0  0  0  0  0  0  0  0
   58.9190   31.7840   45.7710 C   0  0  0  0  0  0  0  0  0  0  0  0
   59.6520   32.7870   46.3850 C   0  0  0  0  0  0  0  0  0  0  0  0
   59.4190   34.1080   46.0650 C   0  0  0  0  0  0  0  0  0  0  0  0
   58.4720   34.5040   45.1420 C   0  0  0  0  0  0  0  0  0  0  0  0
   57.7370   33.4940   44.5260 C   0  0  0  0  0  0  0  0  0  0  0  0
   55.8700   29.4490   41.8400 H   0  0  0  0  0  0  0  0  0  0  0  0
   56.6641   29.9520   45.9673 H   0  0  0  0  0  0  0  0  0  0  0  0
   59.0854   30.7230   46.0087 H   0  0  0  0  0  0  0  0  0  0  0  0
   60.4206   32.5292   47.1285 H   0  0  0  0  0  0  0  0  0  0  0  0
   60.0158   34.8825   46.5689 H   0  0  0  0  0  0  0  0  0  0  0  0
   58.3060   35.5652   44.9047 H   0  0  0  0  0  0  0  0  0  0  0  0
   56.9687   33.7496   43.7814 H   0  0  0  0  0  0  0  0  0  0  0  0
  1  2  2  0
  2  3  1  0
  3  4  1  0
  4  5  2  0
  5  6  1  0
  6  7  1  0
  7  8  2  0
  8  9  1  0
  9 10  2  0
 10 11  1  0
 11 12  2  0
  6  2  1  0
 12  7  1  0
  3 13  1  0
  5 14  1  0
  8 15  1  0
  9 16  1  0
 10 17  1  0
 11 18  1  0
 12 19  1  0
M  END
>  <smiles>  (10) 
S=c1[nH]ncn1-c1ccccc1

>  <score_type>  (10) 
oracle

>  <origin>  (10) 
adg

>  <m_score__min__energy>  (10) 
-5.5300000000000002

>  <m_primary>  (10) 
energy

$$$$
10:0
     RDKit          3D

 88 92  0  0  0  0  0  0  0  0999 V2000
   63.7140   32.7690   46.9110 C   0  0  0  0  0  0  0  0  0  0  0  0
   62.5970   33.6540   46.9360 O   0  0  0  0  0  0  0  0  0  0  0  0
   61.4300   33.4380   47.6880 C   0  0  0  0  0  0  0  0  0  0  0  0
   61.0980   34.2220   48.8100 C   0  0  0  0  0  0  0  0  0  0  0  0
   59.9450   33.9360   49.5460 C   0  0  0  0  0  0  0  0  0  0  0  0
   59.1140   32.8760   49.1770 C   0  0  0  0  0  0  0  0  0  0  0  0
   59.4160   32.1030   48.0410 C   0  0  0  0  0  0  0  0  0  0  0  0
   58.5320   30.9530   47.6030 C   0  0  0  0  0  0  0  0  0  0  0  0
   58.8620   30.4760   46.2150 N   0  0  1  0  0  0  0  0  0  0  0  0
   59.8370   29.4040   46.3130 C   0  0  0  0  0  0  0  0  0  0  0  0
   61.0710   29.6650   46.2200 O   0  0  0  0  0  0  0  0  0  0  0  0
   59.4220   28.0600   46.6340 N   0  0  0  0  0  0  0  0  0  0  0  0
   58.7880   27.8070   47.9460 C   0  0  0  0  0  0  0  0  0  0  0  0
   59.4910   28.5640   49.0450 C   0  0  0  0  0  0  0  0  0  0  0  0
   60.8940   28.6390   49.0750 C   0  0  0  0  0  0  0  0  0  0  0  0
   61.5400   29.3810   50.0690 C   0  0  0  0  0  0  0  0  0  0  0  0
   60.7910   30.0690   51.0310 C   0  0  0  0  0  0  0  0  0  0  0  0
   59.3870   30.0140   51.0010 C   0  0  0  0  0  0  0  0  0  0  0  0
   58.5920   30.6820   51.9900 N   0  0  0  0  0  0  0  0  0  0  0  0
   57.2760   31.2050   51.7800 C   0  0  0  0  0  0  0  0  0  0  0  0
   57.1510   32.3990   51.4040 O   0  0  0  0  0  0  0  0  0  0  0  0
   56.0940   30.4250   52.0750 N   0  0  0  0  0  0  0  0  0  0  0  0
   56.1780   29.2430   52.9450 C   0  0  0  0  0  0  0  0  0  0  0  0
   54.7770   30.9220   51.6530 C   0  0  0  0  0  0  0  0  0  0  0  0
   58.7460   29.2540   50.0160 C   0  0  0  0  0  0  0  0  0  0  0  0
   59.3820   27.1050   45.5020 C   0  0  1  0  0  0  0  0  0  0  0  0
   59.4890   25.6150   45.9430 C   0  0  0  0  0  0  0  0  0  0  0  0
   58.1440   24.9540   46.1530 C   0  0  0  0  0  0  0  0  0  0  0  0
   57.3970   24.4830   45.0530 C   0  0  0  0  0  0  0  0  0  0  0  0
   56.1450   23.8850   45.2520 C   0  0  0  0  0  0  0  0  0  0  0  0
   55.6400   23.7380   46.5480 C   0  0  0  0  0  0  0  0  0  0  0  0
   56.3890   24.1720   47.6480 C   0  0  0  0  0  0  0  0  0  0  0  0
   57.6380   24.7730   47.4540 C   0  0  0  0  0  0  0  0  0  0  0  0
   58.1200   27.4450   44.6440 C   0  0  2  0  0  0  0  0  0  0  0  0
   58.1070   26.7110   43.4420 O   0  0  0  0  0  0  0  0  0  0  0  0
   58.0450   28.9550   44.2790 C   0  0  1  0  0  0  0  0  0  0  0  0
   57.1500   29.0760   43.1980 O   0  0  0  0  0  0  0  0  0  0  0  0
   57.6790   30.0260   45.4020 C   0  0  2  0  0  0  0  0  0  0  0  0
   56.9890   31.2480   44.6970 C   0  0  0  0  0  0  0  0  0  0  0  0
   57.6660   32.5730   44.9480 C   0  0  0  0  0  0  0  0  0  0  0  0
   58.6460   33.0530   44.0670 C   0  0  0  0  0  0  0  0  0  0  0  0
   59.2690   34.2810   44.3100 C   0  0  0  0  0  0  0  0  0  0  0  0
   58.9280   35.0350   45.4340 C   0  0  0  0  0  0  0  0  0  0  0  0
   57.9570   34.5620   46.3180 C   0  0  0  0  0  0  0  0  0  0  0  0
   57.3230   33.3390   46.0740 C   0  0  0  0  0  0  0  0  0  0  0  0
   60.5780   32.3960   47.3040 C   0  0  0  0  0  0  0  0  0  0  0  0
   64.0156   32.5300   47.9415 H   0  0  0  0  0  0  0  0  0  0  0  0
   63.4365   31.8430   46.3861 H   0  0  0  0  0  0  0  0  0  0  0  0
   64.5520   33.2510   46.3861 H   0  0  0  0  0  0  0  0  0  0  0  0
   61.7464   35.0595   49.1070 H   0  0  0  0  0  0  0  0  0  0  0  0
   59.6901   34.5502   50.4223 H   0  0  0  0  0  0  0  0  0  0  0  0
   58.2209   32.6449   49.7762 H   0  0  0  0  0  0  0  0  0  0  0  0
   58.6652   30.1170   48.3054 H   0  0  0  0  0  0  0  0  0  0  0  0
   57.4919   31.3111   47.5975 H   0  0  0  0  0  0  0  0  0  0  0  0
   59.3070   31.2710   45.7030 H   0  0  0  0  0  0  0  0  0  0  0  0
   57.7367   28.1280   47.9046 H   0  0  0  0  0  0  0  0  0  0  0  0
   58.8560   26.7311   48.1647 H   0  0  0  0  0  0  0  0  0  0  0  0
   61.4868   28.1116   48.3131 H   0  0  0  0  0  0  0  0  0  0  0  0
   62.6388   29.4241   50.0950 H   0  0  0  0  0  0  0  0  0  0  0  0
   61.3017   30.6530   51.8108 H   0  0  0  0  0  0  0  0  0  0  0  0
   56.1554   29.5604   53.9980 H   0  0  0  0  0  0  0  0  0  0  0  0
   55.3248   28.5784   52.7440 H   0  0  0  0  0  0  0  0  0  0  0  0
   57.1166   28.7057   52.7440 H   0  0  0  0  0  0  0  0  0  0  0  0
   54.1698   31.1512   52.5411 H   0  0  0  0  0  0  0  0  0  0  0  0
   54.9048   31.8337   51.0510 H   0  0  0  0  0  0  0  0  0  0  0  0
   54.2706   30.1531   51.0510 H   0  0  0  0  0  0  0  0  0  0  0  0
   57.6476   29.1963   50.0019 H   0  0  0  0  0  0  0  0  0  0  0  0
   60.2776   27.2240   44.8746 H   0  0  0  0  0  0  0  0  0  0  0  0
   60.0334   25.0591   45.1654 H   0  0  0  0  0  0  0  0  0  0  0  0
   60.0141   25.5985   46.9094 H   0  0  0  0  0  0  0  0  0  0  0  0
   57.7989   24.5855   44.0342 H   0  0  0  0  0  0  0  0  0  0  0  0
   55.5603   23.5317   44.3899 H   0  0  0  0  0  0  0  0  0  0  0  0
   54.6519   23.2802   46.7032 H   0  0  0  0  0  0  0  0  0  0  0  0
   55.9953   24.0405   48.6667 H   0  0  0  0  0  0  0  0  0  0  0  0
   58.2267   25.1053   48.3218 H   0  0  0  0  0  0  0  0  0  0  0  0
   57.2540   27.1767   45.2670 H   0  0  0  0  0  0  0  0  0  0  0  0
   57.2440   26.9060   42.9870 H   0  0  0  0  0  0  0  0  0  0  0  0
   59.0880   29.2273   44.0598 H   0  0  0  0  0  0  0  0  0  0  0  0
   56.5980   28.2480   43.1760 H   0  0  0  0  0  0  0  0  0  0  0  0
   57.0000   29.5484   46.1237 H   0  0  0  0  0  0  0  0  0  0  0  0
   56.9852   31.0630   43.6127 H   0  0  0  0  0  0  0  0  0  0  0  0
   55.9770   31.3260   45.1209 H   0  0  0  0  0  0  0  0  0  0  0  0
   58.9253   32.4618   43.1824 H   0  0  0  0  0  0  0  0  0  0  0  0
   60.0321   34.6549   43.6115 H   0  0  0  0  0  0  0  0  0  0  0  0
   59.4230   35.9991   45.6225 H   0  0  0  0  0  0  0  0  0  0  0  0
   57.6899   35.1515   47.2075 H   0  0  0  0  0  0  0  0  0  0  0  0
   56.5512   32.9752   46.7683 H   0  0  0  0  0  0  0  0  0  0  0  0
   60.8204   31.7977   46.4133 H   0  0  0  0  0  0  0  0  0  0  0  0
  1  2  1  0
  2  3  1  0
  3  4  2  0
  4  5  1  0
  5  6  2  0
  6  7  1  0
  7  8  1  0
  8  9  1  0
  9 10  1  0
 10 11  2  0
 10 12  1  0
 12 13  1  0
 13 14  1  0
 14 15  2  0
 15 16  1  0
 16 17  2  0
 17 18  1  0
 18 19  1  0
 19 20  1  0
 20 21  2  0
 20 22  1  0
 22 23  1  0
 22 24  1  0
 18 25  2  0
 12 26  1  0
 26 27  1  0
 27 28  1  0
 28 29  2  0
 29 30  1  0
 30 31  2  0
 31 32  1  0
 32 33  2  0
 26 34  1  0
 34 35  1  0
 34 36  1  0
 36 37  1  0
 36 38  1  0
 38 39  1  0
 39 40  1  0
 40 41  2  0
 41 42  1  0
 42 43  2  0
 43 44  1  0
 44 45  2  0
  7 46  2  0
 46  3  1  0
 38  9  1  0
 45 40  1  0
 25 14  1  0
 33 28  1  0
  1 47  1  0
  1 48  1  0
  1 49  1  0
  4 50  1  0
  5 51  1  0
  6 52  1  0
  8 53  1  0
  8 54  1  0
  9 55  1  6
 13 56  1  0
 13 57  1  0
 15 58  1  0
 16 59  1  0
 17 60  1  0
 23 61  1  0
 23 62  1  0
 23 63  1  0
 24 64  1  0
 24 65  1  0
 24 66  1  0
 25 67  1  0
 26 68  1  6
 27 69  1  0
 27 70  1  0
 29 71  1  0
 30 72  1  0
 31 73  1  0
 32 74  1  0
 33 75  1  0
 34 76  1  1
 35 77  1  0
 36 78  1  6
 37 79  1  0
 38 80  1  1
 39 81  1  0
 39 82  1  0
 41 83  1  0
 42 84  1  0
 43 85  1  0
 44 86  1  0
 45 87  1  0
 46 88  1  0
M  CHG  2   9   1  19  -1
M  END
>  <UniqueID>  (11) 
7

>  <SMILES>  (11) 
COc1cccc(C[N@H+]2C(=O)N(Cc3cccc([N-]C(=O)N(C)C)c3)[C@@H](Cc3ccccc3)C(O)C(O)C2Cc2ccccc2)c1

>  <Energy>  (11) 
129.249352471149

>  <Genealogy>  (11) 
COc1cccc(C[NH+]2C(=O)N(Cc3cccc([N-]C(=O)N(C)C)c3)C(Cc3ccccc3)C(O)C(O)C2Cc2ccccc2)c1 (protonated)
COc1cccc(C[N@H+]2C(=O)N(Cc3cccc([N-]C(=O)N(C)C)c3)[C@@H](Cc3ccccc3)C(O)C(O)C2Cc2ccccc2)c1 (chirality)
COc1cccc(C[N@H+]2C(=O)N(Cc3cccc([N-]C(=O)N(C)C)c3)[C@@H](Cc3ccccc3)C(O)C(O)C2Cc2ccccc2)c1 (3D coordinates assigned)
COc1cccc(C[N@H+]2C(=O)N(Cc3cccc([N-]C(=O)N(C)C)c3)[C@@H](Cc3ccccc3)C(O)C(O)C2Cc2ccccc2)c1 (nonaromatic ring conformer: 129.249352471149 kcal/mol)

>  <smiles>  (11) 
COc1cccc(CN2C(=O)N(Cc3cccc(NC(=O)N(C)C)c3)C(Cc3ccccc3)C(O)C(O)C2Cc2ccccc2)c1

>  <score_type>  (11) 
oracle

>  <origin>  (11) 
adg

>  <m_score__min__energy>  (11) 
-8.0800000000000001

>  <m_primary>  (11) 
energy

$$$$
11:0
     RDKit          3D

 45 47  0  0  0  0  0  0  0  0999 V2000
   59.9840   33.8820   48.7720 C   0  0  0  0  0  0  0  0  0  0  0  0
   59.1610   33.8360   47.7140 C   0  0  0  0  0  0  0  0  0  0  0  0
   59.2870   34.8860   46.6420 C   0  0  0  0  0  0  0  0  0  0  0  0
   58.1450   32.7220   47.5840 C   0  0  0  0  0  0  0  0  0  0  0  0
   58.8020   31.4430   47.2330 N   0  0  0  0  0  0  0  0  0  0  0  0
   59.0500   31.1240   45.9150 C   0  0  0  0  0  0  0  0  0  0  0  0
   58.7660   32.2950   44.5740 S   0  0  0  0  0  0  0  0  0  0  0  0
   56.9640   32.0020   44.4620 C   0  0  0  0  0  0  0  0  0  0  0  0
   56.6440   30.5470   44.2940 C   0  0  0  0  0  0  0  0  0  0  0  0
   55.4720   30.1430   44.5230 O   0  0  0  0  0  0  0  0  0  0  0  0
   57.6580   29.6330   43.8520 N   0  0  0  0  0  0  0  0  0  0  0  0
   57.5660   28.2020   43.9790 C   0  0  0  0  0  0  0  0  0  0  0  0
   57.8170   27.3960   42.8580 C   0  0  0  0  0  0  0  0  0  0  0  0
   57.7690   26.0030   42.9620 C   0  0  0  0  0  0  0  0  0  0  0  0
   57.4880   25.4010   44.1910 C   0  0  0  0  0  0  0  0  0  0  0  0
   57.2590   26.1930   45.3200 C   0  0  0  0  0  0  0  0  0  0  0  0
   56.9370   25.4390   46.8710 Cl  0  0  0  0  0  0  0  0  0  0  0  0
   57.2990   27.5880   45.2170 C   0  0  0  0  0  0  0  0  0  0  0  0
   59.5500   29.9060   45.5880 N   0  0  0  0  0  0  0  0  0  0  0  0
   59.8490   28.9810   46.5280 C   0  0  0  0  0  0  0  0  0  0  0  0
   60.3700   27.7390   46.1480 C   0  0  0  0  0  0  0  0  0  0  0  0
   60.6910   26.7870   47.1200 C   0  0  0  0  0  0  0  0  0  0  0  0
   60.4920   27.0750   48.4740 C   0  0  0  0  0  0  0  0  0  0  0  0
   59.9710   28.3130   48.8600 C   0  0  0  0  0  0  0  0  0  0  0  0
   59.6440   29.2770   47.8870 C   0  0  0  0  0  0  0  0  0  0  0  0
   59.1100   30.5340   48.2200 C   0  0  0  0  0  0  0  0  0  0  0  0
   58.9110   30.8190   49.4350 O   0  0  0  0  0  0  0  0  0  0  0  0
   59.9049   33.1225   49.5638 H   0  0  0  0  0  0  0  0  0  0  0  0
   60.7381   34.6793   48.8480 H   0  0  0  0  0  0  0  0  0  0  0  0
   59.4056   35.8747   47.1093 H   0  0  0  0  0  0  0  0  0  0  0  0
   60.1654   34.6681   46.0168 H   0  0  0  0  0  0  0  0  0  0  0  0
   58.3819   34.8822   46.0168 H   0  0  0  0  0  0  0  0  0  0  0  0
   57.6162   32.6039   48.5413 H   0  0  0  0  0  0  0  0  0  0  0  0
   57.4381   32.9842   46.7830 H   0  0  0  0  0  0  0  0  0  0  0  0
   56.4863   32.3672   45.3831 H   0  0  0  0  0  0  0  0  0  0  0  0
   56.5854   32.5386   43.5796 H   0  0  0  0  0  0  0  0  0  0  0  0
   58.5040   30.0320   43.3850 H   0  0  0  0  0  0  0  0  0  0  0  0
   58.0531   27.8637   41.8908 H   0  0  0  0  0  0  0  0  0  0  0  0
   57.9528   25.3796   42.0746 H   0  0  0  0  0  0  0  0  0  0  0  0
   57.4470   24.3046   44.2703 H   0  0  0  0  0  0  0  0  0  0  0  0
   57.1209   28.2078   46.1081 H   0  0  0  0  0  0  0  0  0  0  0  0
   60.5271   27.5116   45.0833 H   0  0  0  0  0  0  0  0  0  0  0  0
   61.1002   25.8111   46.8198 H   0  0  0  0  0  0  0  0  0  0  0  0
   60.7463   26.3249   49.2374 H   0  0  0  0  0  0  0  0  0  0  0  0
   59.8160   28.5349   49.9262 H   0  0  0  0  0  0  0  0  0  0  0  0
  1  2  2  0
  2  3  1  0
  2  4  1  0
  4  5  1  0
  5  6  1  0
  6  7  1  0
  7  8  1  0
  8  9  1  0
  9 10  2  0
  9 11  1  0
 11 12  1  0
 12 13  2  0
 13 14  1  0
 14 15  2  0
 15 16  1  0
 16 17  1  0
 16 18  2  0
  6 19  2  0
 19 20  1  0
 20 21  2  0
 21 22  1  0
 22 23  2  0
 23 24  1  0
 24 25  2  0
 25 26  1  0
 26 27  2  0
 26  5  1  0
 18 12  1  0
 25 20  1  0
  1 28  1  0
  1 29  1  0
  3 30  1  0
  3 31  1  0
  3 32  1  0
  4 33  1  0
  4 34  1  0
  8 35  1  0
  8 36  1  0
 11 37  1  0
 13 38  1  0
 14 39  1  0
 15 40  1  0
 18 41  1  0
 21 42  1  0
 22 43  1  0
 23 44  1  0
 24 45  1  0
M  END
>  <UniqueID>  (12) 
8

>  <SMILES>  (12) 
C=C(C)Cn1c(SCC(=O)Nc2cccc(Cl)c2)nc2ccccc2c1=O

>  <Energy>  (12) 
48.20618654434255

>  <Genealogy>  (12) 
C=C(C)Cn1c(SCC(=O)Nc2cccc(Cl)c2)nc2ccccc2c1=O (3D coordinates assigned)
C=C(C)Cn1c(SCC(=O)Nc2cccc(Cl)c2)nc2ccccc2c1=O (optimized conformer: 48.20618654434255 kcal/mol)

>  <smiles>  (12) 
C=C(C)Cn1c(SCC(=O)Nc2cccc(Cl)c2)nc2ccccc2c1=O

>  <score_type>  (12) 
oracle

>  <origin>  (12) 
adg

>  <m_score__min__energy>  (12) 
-7.9800000000000004

>  <m_primary>  (12) 
energy

$$$$
12:0
     RDKit          3D

 66 70  0  0  0  0  0  0  0  0999 V2000
   57.4240   30.4480   51.2470 C   0  0  0  0  0  0  0  0  0  0  0  0
   58.8700   30.0320   51.2500 C   0  0  0  0  0  0  0  0  0  0  0  0
   59.5640   29.9150   52.4670 C   0  0  0  0  0  0  0  0  0  0  0  0
   60.9030   29.5120   52.4810 C   0  0  0  0  0  0  0  0  0  0  0  0
   61.5550   29.2060   51.2850 C   0  0  0  0  0  0  0  0  0  0  0  0
   62.8480   28.7990   51.3050 F   0  0  0  0  0  0  0  0  0  0  0  0
   60.8720   29.3070   50.0700 C   0  0  0  0  0  0  0  0  0  0  0  0
   59.5340   29.7320   50.0420 C   0  0  0  0  0  0  0  0  0  0  0  0
   58.8340   29.8150   48.7970 N   0  0  0  0  0  0  0  0  0  0  0  0
   59.5430   29.3120   47.2980 S   0  0  0  0  0  0  0  0  0  0  0  0
   59.8160   27.8340   47.3480 O   0  0  0  0  0  0  0  0  0  0  0  0
   60.8480   30.0330   47.1110 O   0  0  0  0  0  0  0  0  0  0  0  0
   58.4830   29.6720   45.9370 C   0  0  0  0  0  0  0  0  0  0  0  0
   57.4960   28.7540   45.5590 C   0  0  0  0  0  0  0  0  0  0  0  0
   56.6360   29.0460   44.4980 C   0  0  0  0  0  0  0  0  0  0  0  0
   56.7590   30.2530   43.8050 C   0  0  0  0  0  0  0  0  0  0  0  0
   57.7470   31.1860   44.1710 C   0  0  0  0  0  0  0  0  0  0  0  0
   57.8830   32.4670   43.4440 C   0  0  0  0  0  0  0  0  0  0  0  0
   57.8300   32.4880   42.1830 O   0  0  0  0  0  0  0  0  0  0  0  0
   58.0710   33.6560   44.1580 O   0  0  0  0  0  0  0  0  0  0  0  0
   59.3140   34.0210   44.7520 C   0  0  0  0  0  0  0  0  0  0  0  0
   59.2720   33.7830   46.2030 N   0  0  0  0  0  0  0  0  0  0  0  0
   58.1290   33.3680   46.7680 N   0  0  0  0  0  0  0  0  0  0  0  0
   58.0500   33.1190   48.0750 N   0  0  0  0  0  0  0  0  0  0  0  0
   59.1230   33.2760   48.8870 C   0  0  0  0  0  0  0  0  0  0  0  0
   59.0150   33.0110   50.2560 C   0  0  0  0  0  0  0  0  0  0  0  0
   60.1230   33.1810   51.0890 C   0  0  0  0  0  0  0  0  0  0  0  0
   61.3450   33.6240   50.5620 C   0  0  0  0  0  0  0  0  0  0  0  0
   62.7390   33.8400   51.6190 S   0  0  0  0  0  0  0  0  0  0  0  0
   62.2560   34.0370   53.0300 O   0  0  0  0  0  0  0  0  0  0  0  0
   63.4660   35.0910   51.2100 O   0  0  0  0  0  0  0  0  0  0  0  0
   63.8590   32.4940   51.5690 N   0  0  0  0  0  0  0  0  0  0  0  0
   63.6710   31.6090   50.4050 C   0  0  0  0  0  0  0  0  0  0  0  0
   64.5310   32.0210   49.2020 C   0  0  0  0  0  0  0  0  0  0  0  0
   65.8840   32.1480   49.5760 O   0  0  0  0  0  0  0  0  0  0  0  0
   66.0100   33.2090   50.4990 C   0  0  0  0  0  0  0  0  0  0  0  0
   65.2620   32.8910   51.8010 C   0  0  0  0  0  0  0  0  0  0  0  0
   61.4580   33.8680   49.1850 C   0  0  0  0  0  0  0  0  0  0  0  0
   60.3430   33.7040   48.3430 C   0  0  0  0  0  0  0  0  0  0  0  0
   60.3960   33.9580   46.9640 C   0  0  0  0  0  0  0  0  0  0  0  0
   61.4740   34.3430   46.4310 O   0  0  0  0  0  0  0  0  0  0  0  0
   58.6040   30.8870   45.2460 C   0  0  0  0  0  0  0  0  0  0  0  0
   57.0696   30.5499   52.2834 H   0  0  0  0  0  0  0  0  0  0  0  0
   57.3209   31.4122   50.7277 H   0  0  0  0  0  0  0  0  0  0  0  0
   56.8243   29.6860   50.7277 H   0  0  0  0  0  0  0  0  0  0  0  0
   59.0510   30.1417   53.4133 H   0  0  0  0  0  0  0  0  0  0  0  0
   61.4435   29.4360   53.4360 H   0  0  0  0  0  0  0  0  0  0  0  0
   61.3851   29.0523   49.1309 H   0  0  0  0  0  0  0  0  0  0  0  0
   57.3976   27.8006   46.0988 H   0  0  0  0  0  0  0  0  0  0  0  0
   55.8593   28.3234   44.2070 H   0  0  0  0  0  0  0  0  0  0  0  0
   56.0798   30.4752   42.9687 H   0  0  0  0  0  0  0  0  0  0  0  0
   60.1200   33.4183   44.3080 H   0  0  0  0  0  0  0  0  0  0  0  0
   59.4999   35.0895   44.5684 H   0  0  0  0  0  0  0  0  0  0  0  0
   57.2720   33.2260   46.1880 H   0  0  0  0  0  0  0  0  0  0  0  0
   58.0578   32.6689   50.6764 H   0  0  0  0  0  0  0  0  0  0  0  0
   60.0369   32.9663   52.1644 H   0  0  0  0  0  0  0  0  0  0  0  0
   63.9412   30.5831   50.6957 H   0  0  0  0  0  0  0  0  0  0  0  0
   62.6167   31.6812   50.0998 H   0  0  0  0  0  0  0  0  0  0  0  0
   64.4439   31.2554   48.4169 H   0  0  0  0  0  0  0  0  0  0  0  0
   64.1748   32.9927   48.8293 H   0  0  0  0  0  0  0  0  0  0  0  0
   67.0751   33.3663   50.7243 H   0  0  0  0  0  0  0  0  0  0  0  0
   65.5743   34.1161   50.0548 H   0  0  0  0  0  0  0  0  0  0  0  0
   65.7809   32.0672   52.3129 H   0  0  0  0  0  0  0  0  0  0  0  0
   65.2520   33.8064   52.4109 H   0  0  0  0  0  0  0  0  0  0  0  0
   62.4216   34.1886   48.7624 H   0  0  0  0  0  0  0  0  0  0  0  0
   59.3750   31.6115   45.5471 H   0  0  0  0  0  0  0  0  0  0  0  0
  1  2  1  0
  2  3  2  0
  3  4  1  0
  4  5  2  0
  5  6  1  0
  5  7  1  0
  7  8  2  0
  8  9  1  0
  9 10  1  0
 10 11  2  0
 10 12  2  0
 10 13  1  0
 13 14  2  0
 14 15  1  0
 15 16  2  0
 16 17  1  0
 17 18  1  0
 18 19  2  0
 18 20  1  0
 20 21  1  0
 21 22  1  0
 22 23  1  0
 23 24  2  0
 24 25  1  0
 25 26  2  0
 26 27  1  0
 27 28  2  0
 28 29  1  0
 29 30  2  0
 29 31  2  0
 29 32  1  0
 32 33  1  0
 33 34  1  0
 34 35  1  0
 35 36  1  0
 36 37  1  0
 28 38  1  0
 38 39  2  0
 39 40  1  0
 40 41  2  0
 17 42  2  0
  8  2  1  0
 42 13  1  0
 40 22  1  0
 39 25  1  0
 37 32  1  0
  1 43  1  0
  1 44  1  0
  1 45  1  0
  3 46  1  0
  4 47  1  0
  7 48  1  0
 14 49  1  0
 15 50  1  0
 16 51  1  0
 21 52  1  0
 21 53  1  0
 23 54  1  0
 26 55  1  0
 27 56  1  0
 33 57  1  0
 33 58  1  0
 34 59  1  0
 34 60  1  0
 36 61  1  0
 36 62  1  0
 37 63  1  0
 37 64  1  0
 38 65  1  0
 42 66  1  0
M  CHG  2   9  -1  23   1
M  END
>  <UniqueID>  (13) 
9

>  <SMILES>  (13) 
Cc1ccc(F)cc1[N-]S(=O)(=O)c1cccc(C(=O)OCn2[nH+]nc3ccc(S(=O)(=O)N4CCOCC4)cc3c2=O)c1

>  <Energy>  (13) 
89.34934756691646

>  <Genealogy>  (13) 
Cc1ccc(F)cc1[N-]S(=O)(=O)c1cccc(C(=O)OCn2[nH+]nc3ccc(S(=O)(=O)N4CCOCC4)cc3c2=O)c1 (protonated)
Cc1ccc(F)cc1[N-]S(=O)(=O)c1cccc(C(=O)OCn2[nH+]nc3ccc(S(=O)(=O)N4CCOCC4)cc3c2=O)c1 (3D coordinates assigned)
Cc1ccc(F)cc1[N-]S(=O)(=O)c1cccc(C(=O)OCn2[nH+]nc3ccc(S(=O)(=O)N4CCOCC4)cc3c2=O)c1 (nonaromatic ring conformer: 89.34934756691646 kcal/mol)

>  <smiles>  (13) 
Cc1ccc(F)cc1NS(=O)(=O)c1cccc(C(=O)OCn2nnc3ccc(S(=O)(=O)N4CCOCC4)cc3c2=O)c1

>  <score_type>  (13) 
oracle

>  <origin>  (13) 
adg

>  <m_score__min__energy>  (13) 
-10.880000000000001

>  <m_primary>  (13) 
energy

$$$$
13:0
     RDKit          3D

 26 26  0  0  0  0  0  0  0  0999 V2000
   57.3930   27.7030   43.9990 N   0  0  0  0  0  0  0  0  0  0  0  0
   57.2890   29.1490   43.7630 C   0  0  2  0  0  0  0  0  0  0  0  0
   58.5830   29.9010   44.1470 C   0  0  0  0  0  0  0  0  0  0  0  0
   59.4160   29.2890   45.6180 S   0  0  0  0  0  0  0  0  0  0  0  0
   58.4120   28.5800   46.4820 O   0  0  0  0  0  0  0  0  0  0  0  0
   60.4860   28.3070   45.2320 O   0  0  0  0  0  0  0  0  0  0  0  0
   60.1110   30.6150   46.5500 C   0  0  0  0  0  0  0  0  0  0  0  0
   59.4080   31.8180   46.7190 C   0  0  0  0  0  0  0  0  0  0  0  0
   59.9670   32.8590   47.4670 C   0  0  0  0  0  0  0  0  0  0  0  0
   61.2310   32.7070   48.0460 C   0  0  0  0  0  0  0  0  0  0  0  0
   61.9930   34.1280   49.0680 Br  0  0  0  0  0  0  0  0  0  0  0  0
   61.9370   31.5110   47.8740 C   0  0  0  0  0  0  0  0  0  0  0  0
   61.3800   30.4690   47.1270 C   0  0  0  0  0  0  0  0  0  0  0  0
   56.0750   29.7460   44.4330 C   0  0  0  0  0  0  0  0  0  0  0  0
   55.1440   29.0140   44.8650 O   0  0  0  0  0  0  0  0  0  0  0  0
   55.9870   31.1230   44.5930 O   0  0  0  0  0  0  0  0  0  0  0  0
   57.4140   27.1730   43.0990 H   0  0  0  0  0  0  0  0  0  0  0  0
   56.5830   27.3740   44.5740 H   0  0  0  0  0  0  0  0  0  0  0  0
   58.2730   27.4980   44.5260 H   0  0  0  0  0  0  0  0  0  0  0  0
   57.1566   29.2791   42.6788 H   0  0  0  0  0  0  0  0  0  0  0  0
   59.2839   29.8253   43.3026 H   0  0  0  0  0  0  0  0  0  0  0  0
   58.2798   30.9335   44.3751 H   0  0  0  0  0  0  0  0  0  0  0  0
   58.4151   31.9423   46.2621 H   0  0  0  0  0  0  0  0  0  0  0  0
   59.4116   33.7991   47.6002 H   0  0  0  0  0  0  0  0  0  0  0  0
   62.9320   31.3907   48.3274 H   0  0  0  0  0  0  0  0  0  0  0  0
   61.9393   29.5315   46.9916 H   0  0  0  0  0  0  0  0  0  0  0  0
  1  2  1  0
  2  3  1  0
  3  4  1  0
  4  5  2  0
  4  6  2  0
  4  7  1  0
  7  8  2  0
  8  9  1  0
  9 10  2  0
 10 11  1  0
 10 12  1  0
 12 13  2  0
  2 14  1  0
 14 15  2  0
 14 16  1  0
 13  7  1  0
  1 17  1  0
  1 18  1  0
  1 19  1  0
  2 20  1  6
  3 21  1  0
  3 22  1  0
  8 23  1  0
  9 24  1  0
 12 25  1  0
 13 26  1  0
M  CHG  2   1   1  16  -1
M  END
>  <UniqueID>  (14) 
10

>  <SMILES>  (14) 
[NH3+][C@H](CS(=O)(=O)c1ccc(Br)cc1)C(=O)[O-]

>  <Energy>  (14) 
22.180279238935473

>  <Genealogy>  (14) 
[NH3+]C(CS(=O)(=O)c1ccc(Br)cc1)C(=O)[O-] (protonated)
[NH3+][C@H](CS(=O)(=O)c1ccc(Br)cc1)C(=O)[O-] (chirality)
[NH3+][C@H](CS(=O)(=O)c1ccc(Br)cc1)C(=O)[O-] (3D coordinates assigned)
[NH3+][C@H](CS(=O)(=O)c1ccc(Br)cc1)C(=O)[O-] (optimized conformer: 22.180279238935473 kcal/mol)

>  <smiles>  (14) 
NC(CS(=O)(=O)c1ccc(Br)cc1)C(=O)O

>  <score_type>  (14) 
oracle

>  <origin>  (14) 
adg

>  <m_score__min__energy>  (14) 
-7.8499999999999996

>  <m_primary>  (14) 
energy

$$$$
14:0
     RDKit          3D

 68 71  0  0  0  0  0  0  0  0999 V2000
   60.0380   33.9250   49.1830 C   0  0  0  0  0  0  0  0  0  0  0  0
   58.8660   33.4690   48.5140 O   0  0  0  0  0  0  0  0  0  0  0  0
   58.6940   33.4830   47.1220 C   0  0  0  0  0  0  0  0  0  0  0  0
   59.4130   34.3520   46.2790 C   0  0  0  0  0  0  0  0  0  0  0  0
   59.2070   34.3250   44.8980 C   0  0  0  0  0  0  0  0  0  0  0  0
   58.2960   33.4210   44.3420 C   0  0  0  0  0  0  0  0  0  0  0  0
   57.5890   32.5350   45.1710 C   0  0  0  0  0  0  0  0  0  0  0  0
   56.6500   31.5920   44.6350 N   0  0  0  0  0  0  0  0  0  0  0  0
   56.7270   30.1650   44.7540 C   0  0  0  0  0  0  0  0  0  0  0  0
   55.7330   29.5440   45.2150 O   0  0  0  0  0  0  0  0  0  0  0  0
   57.9320   29.4430   44.4290 N   0  0  0  0  0  0  0  0  0  0  0  0
   57.8270   28.0990   43.8450 C   0  0  0  0  0  0  0  0  0  0  0  0
   57.7480   27.0520   44.9230 C   0  0  0  0  0  0  0  0  0  0  0  0
   58.8590   26.2430   45.2040 C   0  0  0  0  0  0  0  0  0  0  0  0
   58.7610   25.2030   46.1310 C   0  0  0  0  0  0  0  0  0  0  0  0
   57.5420   24.9490   46.7860 C   0  0  0  0  0  0  0  0  0  0  0  0
   57.3750   23.8790   47.6810 O   0  0  0  0  0  0  0  0  0  0  0  0
   56.8320   22.6020   47.3450 C   0  0  0  0  0  0  0  0  0  0  0  0
   56.8540   22.3890   45.8530 C   0  0  0  0  0  0  0  0  0  0  0  0
   57.9050   21.6790   45.2460 C   0  0  0  0  0  0  0  0  0  0  0  0
   57.9260   21.5000   43.8600 C   0  0  0  0  0  0  0  0  0  0  0  0
   56.8950   22.0150   43.0700 C   0  0  0  0  0  0  0  0  0  0  0  0
   55.8370   22.7070   43.6680 C   0  0  0  0  0  0  0  0  0  0  0  0
   55.8150   22.8950   45.0540 C   0  0  0  0  0  0  0  0  0  0  0  0
   56.4480   25.7880   46.5400 C   0  0  0  0  0  0  0  0  0  0  0  0
   56.5450   26.8300   45.6140 C   0  0  0  0  0  0  0  0  0  0  0  0
   59.2600   30.0030   44.7390 C   0  0  0  0  0  0  0  0  0  0  0  0
   59.5460   29.9430   46.2200 C   0  0  0  0  0  0  0  0  0  0  0  0
   58.7170   29.2050   47.0790 C   0  0  0  0  0  0  0  0  0  0  0  0
   58.9800   29.1630   48.4500 C   0  0  0  0  0  0  0  0  0  0  0  0
   60.0650   29.8640   48.9770 C   0  0  0  0  0  0  0  0  0  0  0  0
   60.9010   30.6120   48.1380 C   0  0  0  0  0  0  0  0  0  0  0  0
   61.9960   31.3350   48.7210 N   0  0  0  0  0  0  0  0  0  0  0  0
   63.1000   32.3560   47.8610 S   0  0  0  0  0  0  0  0  0  0  0  0
   64.2940   33.0470   48.9910 C   0  0  0  0  0  0  0  0  0  0  0  0
   62.3280   33.4770   47.2300 O   0  0  0  0  0  0  0  0  0  0  0  0
   63.7830   31.5730   46.7770 O   0  0  0  0  0  0  0  0  0  0  0  0
   60.6410   30.6370   46.7560 C   0  0  0  0  0  0  0  0  0  0  0  0
   57.7740   32.5910   46.5580 C   0  0  0  0  0  0  0  0  0  0  0  0
   59.8858   33.8658   50.2708 H   0  0  0  0  0  0  0  0  0  0  0  0
   60.8923   33.2937   48.8974 H   0  0  0  0  0  0  0  0  0  0  0  0
   60.2410   34.9677   48.8974 H   0  0  0  0  0  0  0  0  0  0  0  0
   60.1404   35.0555   46.7103 H   0  0  0  0  0  0  0  0  0  0  0  0
   59.7621   35.0158   44.2464 H   0  0  0  0  0  0  0  0  0  0  0  0
   58.1332   33.4040   43.2543 H   0  0  0  0  0  0  0  0  0  0  0  0
   56.9209   28.0457   43.2236 H   0  0  0  0  0  0  0  0  0  0  0  0
   58.7221   27.9092   43.2344 H   0  0  0  0  0  0  0  0  0  0  0  0
   59.8139   26.4290   44.6907 H   0  0  0  0  0  0  0  0  0  0  0  0
   59.6406   24.5798   46.3500 H   0  0  0  0  0  0  0  0  0  0  0  0
   57.4296   21.8165   47.8306 H   0  0  0  0  0  0  0  0  0  0  0  0
   55.7894   22.5587   47.6929 H   0  0  0  0  0  0  0  0  0  0  0  0
   58.7139   21.2628   45.8644 H   0  0  0  0  0  0  0  0  0  0  0  0
   58.7562   20.9524   43.3900 H   0  0  0  0  0  0  0  0  0  0  0  0
   56.9155   21.8763   41.9790 H   0  0  0  0  0  0  0  0  0  0  0  0
   55.0204   23.1043   43.0472 H   0  0  0  0  0  0  0  0  0  0  0  0
   54.9814   23.4409   45.5199 H   0  0  0  0  0  0  0  0  0  0  0  0
   55.5039   25.6253   47.0806 H   0  0  0  0  0  0  0  0  0  0  0  0
   55.6767   27.4785   45.4255 H   0  0  0  0  0  0  0  0  0  0  0  0
   60.0270   29.4258   44.2018 H   0  0  0  0  0  0  0  0  0  0  0  0
   59.2757   31.0568   44.4238 H   0  0  0  0  0  0  0  0  0  0  0  0
   57.8555   28.6567   46.6702 H   0  0  0  0  0  0  0  0  0  0  0  0
   58.3303   28.5759   49.1157 H   0  0  0  0  0  0  0  0  0  0  0  0
   60.2653   29.8291   50.0581 H   0  0  0  0  0  0  0  0  0  0  0  0
   63.9707   32.8599   50.0256 H   0  0  0  0  0  0  0  0  0  0  0  0
   65.2738   32.5763   48.8222 H   0  0  0  0  0  0  0  0  0  0  0  0
   64.3740   34.1310   48.8222 H   0  0  0  0  0  0  0  0  0  0  0  0
   61.3036   31.2070   46.0881 H   0  0  0  0  0  0  0  0  0  0  0  0
   57.1899   31.9266   47.2118 H   0  0  0  0  0  0  0  0  0  0  0  0
  1  2  1  0
  2  3  1  0
  3  4  2  0
  4  5  1  0
  5  6  2  0
  6  7  1  0
  7  8  1  0
  8  9  1  0
  9 10  2  0
  9 11  1  0
 11 12  1  0
 12 13  1  0
 13 14  2  0
 14 15  1  0
 15 16  2  0
 16 17  1  0
 17 18  1  0
 18 19  1  0
 19 20  2  0
 20 21  1  0
 21 22  2  0
 22 23  1  0
 23 24  2  0
 16 25  1  0
 25 26  2  0
 11 27  1  0
 27 28  1  0
 28 29  2  0
 29 30  1  0
 30 31  2  0
 31 32  1  0
 32 33  1  0
 33 34  1  0
 34 35  1  0
 34 36  2  0
 34 37  2  0
 32 38  2  0
  7 39  2  0
 39  3  1  0
 26 13  1  0
 38 28  1  0
 24 19  1  0
  1 40  1  0
  1 41  1  0
  1 42  1  0
  4 43  1  0
  5 44  1  0
  6 45  1  0
 12 46  1  0
 12 47  1  0
 14 48  1  0
 15 49  1  0
 18 50  1  0
 18 51  1  0
 20 52  1  0
 21 53  1  0
 22 54  1  0
 23 55  1  0
 24 56  1  0
 25 57  1  0
 26 58  1  0
 27 59  1  0
 27 60  1  0
 29 61  1  0
 30 62  1  0
 31 63  1  0
 35 64  1  0
 35 65  1  0
 35 66  1  0
 38 67  1  0
 39 68  1  0
M  CHG  2   8  -1  33  -1
M  END
>  <UniqueID>  (15) 
11

>  <SMILES>  (15) 
COc1cccc([N-]C(=O)N(Cc2ccc(OCc3ccccc3)cc2)Cc2cccc([N-]S(C)(=O)=O)c2)c1

>  <Energy>  (15) 
69.1681526943674

>  <Genealogy>  (15) 
COc1cccc([N-]C(=O)N(Cc2ccc(OCc3ccccc3)cc2)Cc2cccc([N-]S(C)(=O)=O)c2)c1 (protonated)
COc1cccc([N-]C(=O)N(Cc2ccc(OCc3ccccc3)cc2)Cc2cccc([N-]S(C)(=O)=O)c2)c1 (3D coordinates assigned)
COc1cccc([N-]C(=O)N(Cc2ccc(OCc3ccccc3)cc2)Cc2cccc([N-]S(C)(=O)=O)c2)c1 (optimized conformer: 69.1681526943674 kcal/mol)

>  <smiles>  (15) 
COc1cccc(NC(=O)N(Cc2ccc(OCc3ccccc3)cc2)Cc2cccc(NS(C)(=O)=O)c2)c1

>  <score_type>  (15) 
oracle

>  <origin>  (15) 
adg

>  <m_score__min__energy>  (15) 
-12.800000000000001

>  <m_primary>  (15) 
energy

$$$$
15:0
     RDKit          3D

 50 52  0  0  0  0  0  0  0  0999 V2000
   57.7710   32.3270   41.1760 C   0  0  0  0  0  0  0  0  0  0  0  0
   57.5470   31.9160   42.4280 C   0  0  0  0  0  0  0  0  0  0  0  0
   56.6330   30.7620   42.7280 C   0  0  0  0  0  0  0  0  0  0  0  0
   57.1070   30.0130   43.9400 C   0  0  0  0  0  0  0  0  0  0  0  0
   57.1150   28.6120   43.9560 C   0  0  0  0  0  0  0  0  0  0  0  0
   57.5920   27.9350   45.0890 C   0  0  0  0  0  0  0  0  0  0  0  0
   57.6250   26.5370   45.1870 O   0  0  0  0  0  0  0  0  0  0  0  0
   56.3840   25.5510   45.8390 S   0  0  0  0  0  0  0  0  0  0  0  0
   56.8350   25.0490   47.1820 O   0  0  0  0  0  0  0  0  0  0  0  0
   55.1230   26.3480   46.0220 O   0  0  0  0  0  0  0  0  0  0  0  0
   56.0810   24.1460   44.7830 C   0  0  0  0  0  0  0  0  0  0  0  0
   56.6750   23.0240   45.3300 F   0  0  0  0  0  0  0  0  0  0  0  0
   54.7190   23.9340   44.6780 F   0  0  0  0  0  0  0  0  0  0  0  0
   56.6020   24.3680   43.5240 F   0  0  0  0  0  0  0  0  0  0  0  0
   58.0480   28.6790   46.1820 C   0  0  0  0  0  0  0  0  0  0  0  0
   58.0480   30.0840   46.1300 C   0  0  0  0  0  0  0  0  0  0  0  0
   58.5360   30.9090   47.2640 C   0  0  0  0  0  0  0  0  0  0  0  0
   58.4460   32.3100   47.1990 C   0  0  0  0  0  0  0  0  0  0  0  0
   58.9100   33.1030   48.2520 C   0  0  0  0  0  0  0  0  0  0  0  0
   59.4860   32.5170   49.3890 C   0  0  0  0  0  0  0  0  0  0  0  0
   59.9600   33.3660   50.4530 N   0  0  0  0  0  0  0  0  0  0  0  0
   61.3330   33.8580   50.5710 C   0  0  0  0  0  0  0  0  0  0  0  0
   62.1480   33.4580   49.3700 C   0  0  0  0  0  0  0  0  0  0  0  0
   62.0460   34.1730   48.1640 C   0  0  0  0  0  0  0  0  0  0  0  0
   62.8030   33.7910   47.0520 C   0  0  0  0  0  0  0  0  0  0  0  0
   63.6610   32.6900   47.1320 C   0  0  0  0  0  0  0  0  0  0  0  0
   63.7590   31.9660   48.3240 C   0  0  0  0  0  0  0  0  0  0  0  0
   63.0040   32.3450   49.4380 C   0  0  0  0  0  0  0  0  0  0  0  0
   59.5830   31.1150   49.4560 C   0  0  0  0  0  0  0  0  0  0  0  0
   59.1170   30.3210   48.4030 C   0  0  0  0  0  0  0  0  0  0  0  0
   57.5760   30.7030   45.0130 N   0  0  0  0  0  0  0  0  0  0  0  0
   58.4457   33.1752   40.9880 H   0  0  0  0  0  0  0  0  0  0  0  0
   57.2807   31.8170   40.3337 H   0  0  0  0  0  0  0  0  0  0  0  0
   58.0446   32.4360   43.2599 H   0  0  0  0  0  0  0  0  0  0  0  0
   55.6180   31.1435   42.9130 H   0  0  0  0  0  0  0  0  0  0  0  0
   56.6316   30.0778   41.8667 H   0  0  0  0  0  0  0  0  0  0  0  0
   56.7498   28.0464   43.0861 H   0  0  0  0  0  0  0  0  0  0  0  0
   58.4076   28.1635   47.0847 H   0  0  0  0  0  0  0  0  0  0  0  0
   58.0061   32.7870   46.3107 H   0  0  0  0  0  0  0  0  0  0  0  0
   58.8227   34.1977   48.1887 H   0  0  0  0  0  0  0  0  0  0  0  0
   59.2740   33.6930   51.1720 H   0  0  0  0  0  0  0  0  0  0  0  0
   61.3178   34.9552   50.6476 H   0  0  0  0  0  0  0  0  0  0  0  0
   61.7896   33.4183   51.4700 H   0  0  0  0  0  0  0  0  0  0  0  0
   61.3680   35.0364   48.0947 H   0  0  0  0  0  0  0  0  0  0  0  0
   62.7233   34.3578   46.1126 H   0  0  0  0  0  0  0  0  0  0  0  0
   64.2587   32.3935   46.2574 H   0  0  0  0  0  0  0  0  0  0  0  0
   64.4309   31.0972   48.3854 H   0  0  0  0  0  0  0  0  0  0  0  0
   63.0802   31.7694   50.3723 H   0  0  0  0  0  0  0  0  0  0  0  0
   60.0284   30.6400   50.3426 H   0  0  0  0  0  0  0  0  0  0  0  0
   59.2055   29.2264   48.4657 H   0  0  0  0  0  0  0  0  0  0  0  0
  1  2  2  0
  2  3  1  0
  3  4  1  0
  4  5  2  0
  5  6  1  0
  6  7  1  0
  7  8  1  0
  8  9  2  0
  8 10  2  0
  8 11  1  0
 11 12  1  0
 11 13  1  0
 11 14  1  0
  6 15  2  0
 15 16  1  0
 16 17  1  0
 17 18  2  0
 18 19  1  0
 19 20  2  0
 20 21  1  0
 21 22  1  0
 22 23  1  0
 23 24  2  0
 24 25  1  0
 25 26  2  0
 26 27  1  0
 27 28  2  0
 20 29  1  0
 29 30  2  0
 16 31  2  0
 31  4  1  0
 30 17  1  0
 28 23  1  0
  1 32  1  0
  1 33  1  0
  2 34  1  0
  3 35  1  0
  3 36  1  0
  5 37  1  0
 15 38  1  0
 18 39  1  0
 19 40  1  0
 21 41  1  0
 22 42  1  0
 22 43  1  0
 24 44  1  0
 25 45  1  0
 26 46  1  0
 27 47  1  0
 28 48  1  0
 29 49  1  0
 30 50  1  0
M  END
>  <UniqueID>  (16) 
12

>  <SMILES>  (16) 
C=CCc1cc(OS(=O)(=O)C(F)(F)F)cc(-c2ccc(NCc3ccccc3)cc2)n1

>  <Energy>  (16) 
48.44682975744225

>  <Genealogy>  (16) 
C=CCc1cc(OS(=O)(=O)C(F)(F)F)cc(-c2ccc(NCc3ccccc3)cc2)n1 (3D coordinates assigned)
C=CCc1cc(OS(=O)(=O)C(F)(F)F)cc(-c2ccc(NCc3ccccc3)cc2)n1 (optimized conformer: 48.44682975744225 kcal/mol)

>  <smiles>  (16) 
C=CCc1cc(OS(=O)(=O)C(F)(F)F)cc(-c2ccc(NCc3ccccc3)cc2)n1

>  <score_type>  (16) 
oracle

>  <origin>  (16) 
adg

>  <m_score__min__energy>  (16) 
-8.0199999999999996

>  <m_primary>  (16) 
energy

$$$$
16:0
     RDKit          3D

 35 37  0  0  0  0  0  0  0  0999 V2000
   56.2460   20.0910   43.0490 N   0  0  0  0  0  0  0  0  0  0  0  0
   56.5960   21.2870   43.4030 C   0  0  0  0  0  0  0  0  0  0  0  0
   57.7460   21.5070   44.1730 C   0  0  0  0  0  0  0  0  0  0  0  0
   58.0790   22.7770   44.5230 N   0  0  0  0  0  0  0  0  0  0  0  0
   57.3270   23.8480   44.1440 C   0  0  0  0  0  0  0  0  0  0  0  0
   57.7340   25.2170   44.5480 C   0  0  0  0  0  0  0  0  0  0  0  0
   57.8430   26.2440   43.5920 C   0  0  0  0  0  0  0  0  0  0  0  0
   58.2340   27.5300   43.9710 C   0  0  0  0  0  0  0  0  0  0  0  0
   58.5170   27.8170   45.3110 C   0  0  0  0  0  0  0  0  0  0  0  0
   58.9290   29.1790   45.6990 C   0  0  0  0  0  0  0  0  0  0  0  0
   60.1430   29.3400   46.3860 C   0  0  0  0  0  0  0  0  0  0  0  0
   60.5660   30.6080   46.7880 C   0  0  0  0  0  0  0  0  0  0  0  0
   59.7820   31.7260   46.5060 C   0  0  0  0  0  0  0  0  0  0  0  0
   58.5770   31.5830   45.8150 C   0  0  0  0  0  0  0  0  0  0  0  0
   58.1400   30.3150   45.3980 C   0  0  0  0  0  0  0  0  0  0  0  0
   56.6240   30.1840   44.4900 S   0  0  0  0  0  0  0  0  0  0  0  0
   55.6200   28.9580   45.1780 N   0  0  0  0  0  0  0  0  0  0  0  0
   55.9020   31.5010   44.5170 O   0  0  0  0  0  0  0  0  0  0  0  0
   56.9090   29.8160   43.0600 O   0  0  0  0  0  0  0  0  0  0  0  0
   58.4360   26.7950   46.2690 C   0  0  0  0  0  0  0  0  0  0  0  0
   58.7440   27.0480   47.5670 F   0  0  0  0  0  0  0  0  0  0  0  0
   58.0460   25.5050   45.8940 C   0  0  0  0  0  0  0  0  0  0  0  0
   57.9490   24.5460   46.8490 F   0  0  0  0  0  0  0  0  0  0  0  0
   56.1720   23.6180   43.3760 C   0  0  0  0  0  0  0  0  0  0  0  0
   55.8380   22.3480   43.0270 N   0  0  0  0  0  0  0  0  0  0  0  0
   56.6030   19.2370   43.5340 H   0  0  0  0  0  0  0  0  0  0  0  0
   58.3725   20.6605   44.4907 H   0  0  0  0  0  0  0  0  0  0  0  0
   57.6181   26.0318   42.5363 H   0  0  0  0  0  0  0  0  0  0  0  0
   58.3200   28.3216   43.2121 H   0  0  0  0  0  0  0  0  0  0  0  0
   60.7651   28.4606   46.6090 H   0  0  0  0  0  0  0  0  0  0  0  0
   61.5176   30.7252   47.3271 H   0  0  0  0  0  0  0  0  0  0  0  0
   60.1138   32.7238   46.8289 H   0  0  0  0  0  0  0  0  0  0  0  0
   57.9652   32.4704   45.5955 H   0  0  0  0  0  0  0  0  0  0  0  0
   54.6480   29.3390   45.2060 H   0  0  0  0  0  0  0  0  0  0  0  0
   55.5418   24.4621   43.0592 H   0  0  0  0  0  0  0  0  0  0  0  0
  1  2  2  3
  2  3  1  0
  3  4  2  0
  4  5  1  0
  5  6  1  0
  6  7  2  0
  7  8  1  0
  8  9  2  0
  9 10  1  0
 10 11  2  0
 11 12  1  0
 12 13  2  0
 13 14  1  0
 14 15  2  0
 15 16  1  0
 16 17  1  0
 16 18  2  0
 16 19  2  0
  9 20  1  0
 20 21  1  0
 20 22  2  0
 22 23  1  0
  5 24  2  0
 24 25  1  0
 25  2  1  0
 22  6  1  0
 15 10  1  0
  1 26  1  0
  3 27  1  0
  7 28  1  0
  8 29  1  0
 11 30  1  0
 12 31  1  0
 13 32  1  0
 14 33  1  0
 17 34  1  0
 24 35  1  0
M  CHG  2  17  -1  25  -1
M  END
>  <UniqueID>  (17) 
13

>  <SMILES>  (17) 
N=c1cnc(-c2ccc(-c3ccccc3S([NH-])(=O)=O)c(F)c2F)c[n-]1

>  <Energy>  (17) 
53.729723999981026

>  <Genealogy>  (17) 
N=c1cnc(-c2ccc(-c3ccccc3S([NH-])(=O)=O)c(F)c2F)c[n-]1 (protonated)
N=c1cnc(-c2ccc(-c3ccccc3S([NH-])(=O)=O)c(F)c2F)c[n-]1 (3D coordinates assigned)
N=c1cnc(-c2ccc(-c3ccccc3S([NH-])(=O)=O)c(F)c2F)c[n-]1 (optimized conformer: 53.729723999981026 kcal/mol)

>  <smiles>  (17) 
N=c1cnc(-c2ccc(-c3ccccc3S(N)(=O)=O)c(F)c2F)c[nH]1

>  <score_type>  (17) 
oracle

>  <origin>  (17) 
adg

>  <m_score__min__energy>  (17) 
-12.75

>  <m_primary>  (17) 
energy

$$$$
17:0
     RDKit          3D

 52 55  0  0  0  0  0  0  0  0999 V2000
   56.1530   30.2360   52.4790 C   0  0  0  0  0  0  0  0  0  0  0  0
   57.2630   30.0670   51.6040 O   0  0  0  0  0  0  0  0  0  0  0  0
   58.0870   31.1130   51.1570 C   0  0  0  0  0  0  0  0  0  0  0  0
   58.1620   32.3450   51.8310 C   0  0  0  0  0  0  0  0  0  0  0  0
   58.9760   33.3680   51.3440 C   0  0  0  0  0  0  0  0  0  0  0  0
   59.7130   33.1880   50.1730 C   0  0  0  0  0  0  0  0  0  0  0  0
   59.6550   31.9640   49.4800 C   0  0  0  0  0  0  0  0  0  0  0  0
   60.3650   31.7410   48.2810 C   0  0  0  0  0  0  0  0  0  0  0  0
   61.2940   33.0550   47.4610 S   0  0  0  0  0  0  0  0  0  0  0  0
   59.8320   33.8630   46.7020 C   0  0  2  0  0  0  0  0  0  0  0  0
   59.2720   34.9090   47.6660 C   0  0  0  0  0  0  0  0  0  0  0  0
   58.7810   32.8480   46.3170 C   0  0  0  0  0  0  0  0  0  0  0  0
   57.8080   32.6290   47.0870 O   0  0  0  0  0  0  0  0  0  0  0  0
   58.9040   32.1460   45.0660 N   0  0  0  0  0  0  0  0  0  0  0  0
   58.3570   30.8480   44.7520 C   0  0  0  0  0  0  0  0  0  0  0  0
   59.2440   29.7800   44.5260 C   0  0  0  0  0  0  0  0  0  0  0  0
   58.7640   28.4900   44.2840 C   0  0  0  0  0  0  0  0  0  0  0  0
   57.3900   28.2470   44.2640 C   0  0  0  0  0  0  0  0  0  0  0  0
   56.4950   29.2940   44.4890 C   0  0  0  0  0  0  0  0  0  0  0  0
   55.1610   29.0530   44.4910 F   0  0  0  0  0  0  0  0  0  0  0  0
   56.9700   30.5870   44.7370 C   0  0  0  0  0  0  0  0  0  0  0  0
   60.3120   30.4840   47.6700 C   0  0  0  0  0  0  0  0  0  0  0  0
   59.5020   29.4730   48.2110 C   0  0  0  0  0  0  0  0  0  0  0  0
   59.3880   28.1400   47.5700 C   0  0  0  0  0  0  0  0  0  0  0  0
   60.5360   27.5120   47.0510 C   0  0  0  0  0  0  0  0  0  0  0  0
   60.4460   26.2520   46.4510 C   0  0  0  0  0  0  0  0  0  0  0  0
   59.2140   25.6010   46.3700 C   0  0  0  0  0  0  0  0  0  0  0  0
   58.0690   26.2070   46.8930 C   0  0  0  0  0  0  0  0  0  0  0  0
   58.1530   27.4670   47.4930 C   0  0  0  0  0  0  0  0  0  0  0  0
   58.8010   29.7240   49.3500 N   0  0  0  0  0  0  0  0  0  0  0  0
   58.8510   30.9190   49.9960 C   0  0  0  0  0  0  0  0  0  0  0  0
   56.4973   30.1836   53.5224 H   0  0  0  0  0  0  0  0  0  0  0  0
   55.6872   31.2154   52.2954 H   0  0  0  0  0  0  0  0  0  0  0  0
   55.4168   29.4396   52.2954 H   0  0  0  0  0  0  0  0  0  0  0  0
   57.5752   32.5030   52.7479 H   0  0  0  0  0  0  0  0  0  0  0  0
   59.0372   34.3228   51.8868 H   0  0  0  0  0  0  0  0  0  0  0  0
   60.3416   34.0054   49.7900 H   0  0  0  0  0  0  0  0  0  0  0  0
   60.1434   34.3657   45.7745 H   0  0  0  0  0  0  0  0  0  0  0  0
   59.4464   34.5833   48.7021 H   0  0  0  0  0  0  0  0  0  0  0  0
   59.7752   35.8721   47.4948 H   0  0  0  0  0  0  0  0  0  0  0  0
   58.1915   35.0242   47.4948 H   0  0  0  0  0  0  0  0  0  0  0  0
   59.5150   32.5890   44.3430 H   0  0  0  0  0  0  0  0  0  0  0  0
   60.3287   29.9624   44.5399 H   0  0  0  0  0  0  0  0  0  0  0  0
   59.4703   27.6650   44.1090 H   0  0  0  0  0  0  0  0  0  0  0  0
   57.0129   27.2318   44.0712 H   0  0  0  0  0  0  0  0  0  0  0  0
   56.2579   31.4049   44.9214 H   0  0  0  0  0  0  0  0  0  0  0  0
   60.9054   30.2874   46.7649 H   0  0  0  0  0  0  0  0  0  0  0  0
   61.5113   28.0162   47.1179 H   0  0  0  0  0  0  0  0  0  0  0  0
   61.3479   25.7730   46.0421 H   0  0  0  0  0  0  0  0  0  0  0  0
   59.1446   24.6114   45.8947 H   0  0  0  0  0  0  0  0  0  0  0  0
   57.0991   25.6916   46.8326 H   0  0  0  0  0  0  0  0  0  0  0  0
   57.2485   27.9360   47.9077 H   0  0  0  0  0  0  0  0  0  0  0  0
  1  2  1  0
  2  3  1  0
  3  4  2  0
  4  5  1  0
  5  6  2  0
  6  7  1  0
  7  8  2  0
  8  9  1  0
  9 10  1  0
 10 11  1  0
 10 12  1  0
 12 13  2  0
 12 14  1  0
 14 15  1  0
 15 16  2  0
 16 17  1  0
 17 18  2  0
 18 19  1  0
 19 20  1  0
 19 21  2  0
  8 22  1  0
 22 23  2  0
 23 24  1  0
 24 25  2  0
 25 26  1  0
 26 27  2  0
 27 28  1  0
 28 29  2  0
 23 30  1  0
 30 31  2  0
 31  3  1  0
 31  7  1  0
 21 15  1  0
 29 24  1  0
  1 32  1  0
  1 33  1  0
  1 34  1  0
  4 35  1  0
  5 36  1  0
  6 37  1  0
 10 38  1  6
 11 39  1  0
 11 40  1  0
 11 41  1  0
 14 42  1  0
 16 43  1  0
 17 44  1  0
 18 45  1  0
 21 46  1  0
 22 47  1  0
 25 48  1  0
 26 49  1  0
 27 50  1  0
 28 51  1  0
 29 52  1  0
M  END
>  <UniqueID>  (18) 
14

>  <SMILES>  (18) 
COc1cccc2c(S[C@H](C)C(=O)Nc3cccc(F)c3)cc(-c3ccccc3)nc12

>  <Energy>  (18) 
57.71914693992115

>  <Genealogy>  (18) 
COc1cccc2c(S[C@H](C)C(=O)Nc3cccc(F)c3)cc(-c3ccccc3)nc12 (chirality)
COc1cccc2c(S[C@H](C)C(=O)Nc3cccc(F)c3)cc(-c3ccccc3)nc12 (3D coordinates assigned)
COc1cccc2c(S[C@H](C)C(=O)Nc3cccc(F)c3)cc(-c3ccccc3)nc12 (optimized conformer: 57.71914693992115 kcal/mol)

>  <smiles>  (18) 
COc1cccc2c(SC(C)C(=O)Nc3cccc(F)c3)cc(-c3ccccc3)nc12

>  <score_type>  (18) 
oracle

>  <origin>  (18) 
adg

>  <m_score__min__energy>  (18) 
-8.9299999999999997

>  <m_primary>  (18) 
energy

$$$$
18:0
     RDKit          3D

 42 43  0  0  0  0  0  0  0  0999 V2000
   57.3970   31.9630   41.8890 C   0  0  0  0  0  0  0  0  0  0  0  0
   58.1670   32.4940   43.1040 C   0  0  0  0  0  0  0  0  0  0  0  0
   57.7620   31.9250   44.4150 N   0  0  2  0  0  0  0  0  0  0  0  0
   56.3810   31.3700   44.4700 C   0  0  0  0  0  0  0  0  0  0  0  0
   56.2930   29.8560   44.5710 C   0  0  0  0  0  0  0  0  0  0  0  0
   55.1920   29.3220   44.8620 O   0  0  0  0  0  0  0  0  0  0  0  0
   57.4350   29.0060   44.3900 N   0  0  0  0  0  0  0  0  0  0  0  0
   57.8930   27.9870   45.2880 C   0  0  0  0  0  0  0  0  0  0  0  0
   56.9850   27.1330   45.9370 C   0  0  0  0  0  0  0  0  0  0  0  0
   57.4450   26.1620   46.8310 C   0  0  0  0  0  0  0  0  0  0  0  0
   58.8110   26.0550   47.1050 C   0  0  0  0  0  0  0  0  0  0  0  0
   59.7170   26.9270   46.4970 C   0  0  0  0  0  0  0  0  0  0  0  0
   59.2610   27.9030   45.6020 C   0  0  0  0  0  0  0  0  0  0  0  0
   60.4250   28.9910   44.8590 Cl  0  0  0  0  0  0  0  0  0  0  0  0
   58.0890   32.8030   45.5290 C   0  0  0  0  0  0  0  0  0  0  0  0
   57.9710   34.0150   45.4180 O   0  0  0  0  0  0  0  0  0  0  0  0
   58.5910   32.2450   46.8400 C   0  0  0  0  0  0  0  0  0  0  0  0
   60.0780   32.4610   46.9700 C   0  0  0  0  0  0  0  0  0  0  0  0
   60.6500   33.6220   46.4190 C   0  0  0  0  0  0  0  0  0  0  0  0
   62.0290   33.8370   46.4940 C   0  0  0  0  0  0  0  0  0  0  0  0
   62.8510   32.8940   47.1100 C   0  0  0  0  0  0  0  0  0  0  0  0
   62.2990   31.7310   47.6500 C   0  0  0  0  0  0  0  0  0  0  0  0
   60.9180   31.5030   47.5820 C   0  0  0  0  0  0  0  0  0  0  0  0
   60.2860   30.0130   48.2690 Cl  0  0  0  0  0  0  0  0  0  0  0  0
   56.5364   31.3695   42.2311 H   0  0  0  0  0  0  0  0  0  0  0  0
   57.0412   32.8087   41.2821 H   0  0  0  0  0  0  0  0  0  0  0  0
   58.0610   31.3299   41.2821 H   0  0  0  0  0  0  0  0  0  0  0  0
   59.2337   32.2720   42.9530 H   0  0  0  0  0  0  0  0  0  0  0  0
   57.9419   33.5693   43.1584 H   0  0  0  0  0  0  0  0  0  0  0  0
   58.3800   31.0860   44.5140 H   0  0  0  0  0  0  0  0  0  0  0  0
   55.8771   31.7991   45.3486 H   0  0  0  0  0  0  0  0  0  0  0  0
   55.9067   31.6392   43.5147 H   0  0  0  0  0  0  0  0  0  0  0  0
   55.9070   27.2292   45.7405 H   0  0  0  0  0  0  0  0  0  0  0  0
   56.7314   25.4818   47.3190 H   0  0  0  0  0  0  0  0  0  0  0  0
   59.1732   25.2833   47.8002 H   0  0  0  0  0  0  0  0  0  0  0  0
   60.7909   26.8470   46.7216 H   0  0  0  0  0  0  0  0  0  0  0  0
   58.0774   32.7523   47.6699 H   0  0  0  0  0  0  0  0  0  0  0  0
   58.3839   31.1651   46.8701 H   0  0  0  0  0  0  0  0  0  0  0  0
   60.0074   34.3660   45.9256 H   0  0  0  0  0  0  0  0  0  0  0  0
   62.4664   34.7513   46.0665 H   0  0  0  0  0  0  0  0  0  0  0  0
   63.9357   33.0667   47.1705 H   0  0  0  0  0  0  0  0  0  0  0  0
   62.9523   30.9888   48.1320 H   0  0  0  0  0  0  0  0  0  0  0  0
  1  2  1  0
  2  3  1  0
  3  4  1  0
  4  5  1  0
  5  6  2  0
  5  7  1  0
  7  8  1  0
  8  9  2  0
  9 10  1  0
 10 11  2  0
 11 12  1  0
 12 13  2  0
 13 14  1  0
  3 15  1  0
 15 16  2  0
 15 17  1  0
 17 18  1  0
 18 19  2  0
 19 20  1  0
 20 21  2  0
 21 22  1  0
 22 23  2  0
 23 24  1  0
 13  8  1  0
 23 18  1  0
  1 25  1  0
  1 26  1  0
  1 27  1  0
  2 28  1  0
  2 29  1  0
  3 30  1  1
  4 31  1  0
  4 32  1  0
  9 33  1  0
 10 34  1  0
 11 35  1  0
 12 36  1  0
 17 37  1  0
 17 38  1  0
 19 39  1  0
 20 40  1  0
 21 41  1  0
 22 42  1  0
M  CHG  2   3   1   7  -1
M  END
>  <UniqueID>  (19) 
15

>  <SMILES>  (19) 
CC[N@H+](CC(=O)[N-]c1ccccc1Cl)C(=O)Cc1ccccc1Cl

>  <Energy>  (19) 
55.34648518000935

>  <Genealogy>  (19) 
CC[NH+](CC(=O)[N-]c1ccccc1Cl)C(=O)Cc1ccccc1Cl (protonated)
CC[N@H+](CC(=O)[N-]c1ccccc1Cl)C(=O)Cc1ccccc1Cl (chirality)
CC[N@H+](CC(=O)[N-]c1ccccc1Cl)C(=O)Cc1ccccc1Cl (3D coordinates assigned)
CC[N@H+](CC(=O)[N-]c1ccccc1Cl)C(=O)Cc1ccccc1Cl (optimized conformer: 55.34648518000935 kcal/mol)

>  <smiles>  (19) 
CCN(CC(=O)Nc1ccccc1Cl)C(=O)Cc1ccccc1Cl

>  <score_type>  (19) 
oracle

>  <origin>  (19) 
adg

>  <m_score__min__energy>  (19) 
-8.0399999999999991

>  <m_primary>  (19) 
energy

$$$$
19:0
     RDKit          3D

 42 44  0  0  0  0  0  0  0  0999 V2000
   59.0599   34.0513   48.6980 H   0  0  0  0  0  0  0  0  0  0  0  0
   58.8920   34.0350   47.6110 C   0  0  0  0  0  0  0  0  0  0  0  0
   58.0780   33.0940   47.0630 N   0  0  0  0  0  0  0  0  0  0  0  0
   57.8480   33.0300   45.7200 C   0  0  0  0  0  0  0  0  0  0  0  0
   57.0560   32.1300   45.2110 N   0  0  0  0  0  0  0  0  0  0  0  0
   57.4490   30.9290   44.5250 C   0  0  0  0  0  0  0  0  0  0  0  0
   57.7250   31.0000   43.2990 O   0  0  0  0  0  0  0  0  0  0  0  0
   57.6230   29.6360   45.2330 C   0  0  0  0  0  0  0  0  0  0  0  0
   56.5320   28.7530   45.3040 C   0  0  0  0  0  0  0  0  0  0  0  0
   55.5757   29.0356   44.8397 H   0  0  0  0  0  0  0  0  0  0  0  0
   56.6430   27.5220   45.9550 C   0  0  0  0  0  0  0  0  0  0  0  0
   55.4990   26.6590   46.0080 N   0  0  0  0  0  0  0  0  0  0  0  0
   55.4720   25.2790   45.6300 C   0  0  0  0  0  0  0  0  0  0  0  0
   54.6800   24.5010   46.2240 O   0  0  0  0  0  0  0  0  0  0  0  0
   56.2570   24.8060   44.5230 N   0  0  0  0  0  0  0  0  0  0  0  0
   56.5470   25.5040   43.8020 H   0  0  0  0  0  0  0  0  0  0  0  0
   56.5590   23.4210   44.2860 C   0  0  0  0  0  0  0  0  0  0  0  0
   56.3420   22.8770   43.0090 C   0  0  0  0  0  0  0  0  0  0  0  0
   55.9261   23.5082   42.2098 H   0  0  0  0  0  0  0  0  0  0  0  0
   56.6510   21.5390   42.7470 C   0  0  0  0  0  0  0  0  0  0  0  0
   56.4695   21.1189   41.7467 H   0  0  0  0  0  0  0  0  0  0  0  0
   57.1900   20.7350   43.7540 C   0  0  0  0  0  0  0  0  0  0  0  0
   57.4256   19.6803   43.5488 H   0  0  0  0  0  0  0  0  0  0  0  0
   57.4300   21.2710   45.0230 C   0  0  0  0  0  0  0  0  0  0  0  0
   57.9720   20.4950   45.9930 F   0  0  0  0  0  0  0  0  0  0  0  0
   57.1230   22.6090   45.2880 C   0  0  0  0  0  0  0  0  0  0  0  0
   57.3232   23.0293   46.2846 H   0  0  0  0  0  0  0  0  0  0  0  0
   57.8450   27.1900   46.5970 C   0  0  0  0  0  0  0  0  0  0  0  0
   57.9286   26.2398   47.1449 H   0  0  0  0  0  0  0  0  0  0  0  0
   58.9350   28.0590   46.5440 C   0  0  0  0  0  0  0  0  0  0  0  0
   59.8735   27.7868   47.0492 H   0  0  0  0  0  0  0  0  0  0  0  0
   58.8460   29.2780   45.8520 C   0  0  0  0  0  0  0  0  0  0  0  0
   60.0530   30.1780   45.8010 C   0  0  0  0  0  0  0  0  0  0  0  0
   60.3749   30.4180   46.8251 H   0  0  0  0  0  0  0  0  0  0  0  0
   60.8696   29.6665   45.2703 H   0  0  0  0  0  0  0  0  0  0  0  0
   59.7958   31.1066   45.2703 H   0  0  0  0  0  0  0  0  0  0  0  0
   58.4490   33.9710   44.8730 C   0  0  0  0  0  0  0  0  0  0  0  0
   58.2616   33.9419   43.7895 H   0  0  0  0  0  0  0  0  0  0  0  0
   59.2880   34.9460   45.4170 C   0  0  0  0  0  0  0  0  0  0  0  0
   59.7697   35.6859   44.7609 H   0  0  0  0  0  0  0  0  0  0  0  0
   59.5150   34.9810   46.7940 C   0  0  0  0  0  0  0  0  0  0  0  0
   60.1763   35.7442   47.2301 H   0  0  0  0  0  0  0  0  0  0  0  0
  1  2  1  0
  2  3  1  0
  3  4  1  0
  4  5  2  0
  5  6  1  0
  6  7  2  0
  6  8  1  0
  8  9  2  0
  9 10  1  0
  9 11  1  0
 11 12  1  0
 12 13  1  0
 13 14  2  0
 13 15  1  0
 15 16  1  0
 15 17  1  0
 17 18  2  0
 18 19  1  0
 18 20  1  0
 20 21  1  0
 20 22  2  0
 22 23  1  0
 22 24  1  0
 24 25  1  0
 24 26  2  0
 26 27  1  0
 11 28  2  0
 28 29  1  0
 28 30  1  0
 30 31  1  0
 30 32  2  0
 32 33  1  0
 33 34  1  0
 33 35  1  0
 33 36  1  0
  4 37  1  0
 37 38  1  0
 37 39  2  0
 39 40  1  0
 39 41  1  0
 41 42  1  0
 41  2  2  0
 32  8  1  0
 26 17  1  0
M  CHG  2   3  -1  12  -1
M  END
>  <UniqueID>  (20) 
16

>  <SMILES>  (20) 
Cc1ccc([N-]C(=O)Nc2cccc(F)c2)cc1C(=O)/N=c1/cccc[n-]1

>  <Energy>  (20) 
61.81520229240521

>  <Genealogy>  (20) 
Cc1ccc([N-]C(=O)Nc2cccc(F)c2)cc1C(=O)N=c1cccc[n-]1 (protonated)
Cc1ccc([N-]C(=O)Nc2cccc(F)c2)cc1C(=O)/N=c1/cccc[n-]1 (cis-trans isomerization)
Cc1ccc([N-]C(=O)Nc2cccc(F)c2)cc1C(=O)/N=c1/cccc[n-]1 (3D coordinates assigned)
Cc1ccc([N-]C(=O)Nc2cccc(F)c2)cc1C(=O)/N=c1/cccc[n-]1 (optimized conformer: 61.81520229240521 kcal/mol)

>  <smiles>  (20) 
Cc1ccc(NC(=O)Nc2cccc(F)c2)cc1C(=O)N=c1cccc[nH]1

>  <score_type>  (20) 
oracle

>  <origin>  (20) 
adg

>  <m_score__min__energy>  (20) 
-11.050000000000001

>  <m_primary>  (20) 
energy

$$$$
20:0
     RDKit          3D

 59 62  0  0  0  0  0  0  0  0999 V2000
   55.1410   26.7160   45.9420 O   0  0  0  0  0  0  0  0  0  0  0  0
   56.1070   25.9210   46.0900 C   0  0  0  0  0  0  0  0  0  0  0  0
   56.2490   25.2290   47.2850 O   0  0  0  0  0  0  0  0  0  0  0  0
   57.0650   25.6790   44.9640 C   0  0  0  0  0  0  0  0  0  0  0  0
   58.3030   26.5830   45.0640 C   0  0  0  0  0  0  0  0  0  0  0  0
   57.9300   28.0420   44.9860 C   0  0  0  0  0  0  0  0  0  0  0  0
   57.3030   28.5500   43.8380 C   0  0  0  0  0  0  0  0  0  0  0  0
   56.9010   29.8890   43.7900 C   0  0  0  0  0  0  0  0  0  0  0  0
   57.1050   30.7260   44.8960 C   0  0  0  0  0  0  0  0  0  0  0  0
   56.6670   32.0850   44.8750 N   0  0  0  0  0  0  0  0  0  0  0  0
   57.7670   33.4060   44.6530 S   0  0  0  0  0  0  0  0  0  0  0  0
   58.4350   33.2790   43.3110 O   0  0  0  0  0  0  0  0  0  0  0  0
   56.9920   34.6950   44.6780 O   0  0  0  0  0  0  0  0  0  0  0  0
   58.9890   33.4380   45.9210 C   0  0  0  0  0  0  0  0  0  0  0  0
   60.2960   33.8480   45.6250 C   0  0  0  0  0  0  0  0  0  0  0  0
   61.2790   33.8320   46.6200 C   0  0  0  0  0  0  0  0  0  0  0  0
   60.9720   33.4020   47.9180 C   0  0  0  0  0  0  0  0  0  0  0  0
   61.9950   33.4250   48.9260 N   0  0  0  0  0  0  0  0  0  0  0  0
   63.2830   32.8030   48.7860 C   0  0  0  0  0  0  0  0  0  0  0  0
   63.6310   32.2790   47.6940 O   0  0  0  0  0  0  0  0  0  0  0  0
   64.2710   32.8730   49.9130 C   0  0  0  0  0  0  0  0  0  0  0  0
   63.8900   31.9110   51.0450 C   0  0  0  0  0  0  0  0  0  0  0  0
   62.4400   31.7520   51.1380 N   0  0  0  0  0  0  0  0  0  0  0  0
   61.5050   32.7370   51.5910 C   0  0  0  0  0  0  0  0  0  0  0  0
   61.8520   33.8860   51.9760 O   0  0  0  0  0  0  0  0  0  0  0  0
   60.1120   32.2780   51.5440 C   0  0  0  0  0  0  0  0  0  0  0  0
   58.9710   32.9840   51.9350 C   0  0  0  0  0  0  0  0  0  0  0  0
   57.7160   32.3640   51.8030 C   0  0  0  0  0  0  0  0  0  0  0  0
   57.6180   31.0590   51.2850 C   0  0  0  0  0  0  0  0  0  0  0  0
   58.7730   30.3630   50.8950 C   0  0  0  0  0  0  0  0  0  0  0  0
   60.0080   30.9900   51.0400 C   0  0  0  0  0  0  0  0  0  0  0  0
   61.5740   30.3430   50.6460 S   0  0  0  0  0  0  0  0  0  0  0  0
   61.9270   29.1470   51.4840 O   0  0  0  0  0  0  0  0  0  0  0  0
   61.7320   30.0800   49.1740 O   0  0  0  0  0  0  0  0  0  0  0  0
   59.6530   33.0180   48.2180 C   0  0  0  0  0  0  0  0  0  0  0  0
   58.6720   33.0250   47.2220 C   0  0  0  0  0  0  0  0  0  0  0  0
   57.7550   30.2300   46.0290 C   0  0  0  0  0  0  0  0  0  0  0  0
   58.1570   28.8920   46.0810 C   0  0  0  0  0  0  0  0  0  0  0  0
   57.3884   24.6280   44.9914 H   0  0  0  0  0  0  0  0  0  0  0  0
   56.5487   25.9094   44.0204 H   0  0  0  0  0  0  0  0  0  0  0  0
   58.8071   26.3938   46.0232 H   0  0  0  0  0  0  0  0  0  0  0  0
   58.9685   26.3514   44.2193 H   0  0  0  0  0  0  0  0  0  0  0  0
   57.1271   27.8933   42.9732 H   0  0  0  0  0  0  0  0  0  0  0  0
   56.4236   30.2862   42.8821 H   0  0  0  0  0  0  0  0  0  0  0  0
   60.5493   34.1830   44.6083 H   0  0  0  0  0  0  0  0  0  0  0  0
   62.3016   34.1597   46.3816 H   0  0  0  0  0  0  0  0  0  0  0  0
   61.8290   34.0190   49.7710 H   0  0  0  0  0  0  0  0  0  0  0  0
   65.2678   32.6038   49.5336 H   0  0  0  0  0  0  0  0  0  0  0  0
   64.2719   33.8979   50.3124 H   0  0  0  0  0  0  0  0  0  0  0  0
   64.3469   30.9294   50.8507 H   0  0  0  0  0  0  0  0  0  0  0  0
   64.2563   32.3281   51.9947 H   0  0  0  0  0  0  0  0  0  0  0  0
   59.0532   34.0042   52.3379 H   0  0  0  0  0  0  0  0  0  0  0  0
   56.8056   32.9019   52.1063 H   0  0  0  0  0  0  0  0  0  0  0  0
   56.6317   30.5822   51.1853 H   0  0  0  0  0  0  0  0  0  0  0  0
   58.7041   29.3450   50.4840 H   0  0  0  0  0  0  0  0  0  0  0  0
   59.3918   32.7106   49.2414 H   0  0  0  0  0  0  0  0  0  0  0  0
   57.6470   32.7050   47.4606 H   0  0  0  0  0  0  0  0  0  0  0  0
   57.9512   30.8947   46.8832 H   0  0  0  0  0  0  0  0  0  0  0  0
   58.6529   28.5035   46.9827 H   0  0  0  0  0  0  0  0  0  0  0  0
  1  2  2  0
  2  3  1  0
  2  4  1  0
  4  5  1  0
  5  6  1  0
  6  7  2  0
  7  8  1  0
  8  9  2  0
  9 10  1  0
 10 11  1  0
 11 12  2  0
 11 13  2  0
 11 14  1  0
 14 15  2  0
 15 16  1  0
 16 17  2  0
 17 18  1  0
 18 19  1  0
 19 20  2  0
 19 21  1  0
 21 22  1  0
 22 23  1  0
 23 24  1  0
 24 25  2  0
 24 26  1  0
 26 27  2  0
 27 28  1  0
 28 29  2  0
 29 30  1  0
 30 31  2  0
 31 32  1  0
 32 33  2  0
 32 34  2  0
 17 35  1  0
 35 36  2  0
  9 37  1  0
 37 38  2  0
 38  6  1  0
 36 14  1  0
 32 23  1  0
 31 26  1  0
  4 39  1  0
  4 40  1  0
  5 41  1  0
  5 42  1  0
  7 43  1  0
  8 44  1  0
 15 45  1  0
 16 46  1  0
 18 47  1  0
 21 48  1  0
 21 49  1  0
 22 50  1  0
 22 51  1  0
 27 52  1  0
 28 53  1  0
 29 54  1  0
 30 55  1  0
 35 56  1  0
 36 57  1  0
 37 58  1  0
 38 59  1  0
M  CHG  2   3  -1  10  -1
M  END
>  <UniqueID>  (21) 
17

>  <SMILES>  (21) 
O=C([O-])CCc1ccc([N-]S(=O)(=O)c2ccc(NC(=O)CCN3C(=O)c4ccccc4S3(=O)=O)cc2)cc1

>  <Energy>  (21) 
85.17588679500622

>  <Genealogy>  (21) 
O=C([O-])CCc1ccc([N-]S(=O)(=O)c2ccc(NC(=O)CCN3C(=O)c4ccccc4S3(=O)=O)cc2)cc1 (protonated)
O=C([O-])CCc1ccc([N-]S(=O)(=O)c2ccc(NC(=O)CCN3C(=O)c4ccccc4S3(=O)=O)cc2)cc1 (3D coordinates assigned)
O=C([O-])CCc1ccc([N-]S(=O)(=O)c2ccc(NC(=O)CCN3C(=O)c4ccccc4S3(=O)=O)cc2)cc1 (nonaromatic ring conformer: 85.17588679500622 kcal/mol)

>  <smiles>  (21) 
O=C(O)CCc1ccc(NS(=O)(=O)c2ccc(NC(=O)CCN3C(=O)c4ccccc4S3(=O)=O)cc2)cc1

>  <score_type>  (21) 
oracle

>  <origin>  (21) 
adg

>  <m_score__min__energy>  (21) 
-15.27

>  <m_primary>  (21) 
energy

$$$$
21:0
     RDKit          3D

 48 50  0  0  0  0  0  0  0  0999 V2000
   61.7400   30.5100   49.8820 C   0  0  0  0  0  0  0  0  0  0  0  0
   61.0630   30.0070   48.6720 N   0  0  0  0  0  0  0  0  0  0  0  0
   61.4700   30.8040   47.5030 C   0  0  0  0  0  0  0  0  0  0  0  0
   59.5930   30.0240   48.8390 C   0  0  0  0  0  0  0  0  0  0  0  0
   59.1700   31.2330   49.6810 C   0  0  0  0  0  0  0  0  0  0  0  0
   59.4120   32.4790   48.9480 N   0  0  0  0  0  0  0  0  0  0  0  0
   60.1830   33.5070   49.3730 C   0  0  0  0  0  0  0  0  0  0  0  0
   60.1590   34.5500   48.4550 C   0  0  0  0  0  0  0  0  0  0  0  0
   59.3220   34.1250   47.4460 C   0  0  0  0  0  0  0  0  0  0  0  0
   58.9330   34.7650   46.2720 C   0  0  0  0  0  0  0  0  0  0  0  0
   58.0510   34.0830   45.4160 C   0  0  0  0  0  0  0  0  0  0  0  0
   57.5770   32.7920   45.7400 C   0  0  0  0  0  0  0  0  0  0  0  0
   56.6880   32.1390   44.8240 N   0  0  0  0  0  0  0  0  0  0  0  0
   57.1520   30.9180   43.6810 S   0  0  0  0  0  0  0  0  0  0  0  0
   55.9300   30.4350   42.9490 O   0  0  0  0  0  0  0  0  0  0  0  0
   58.1090   31.5110   42.6860 O   0  0  0  0  0  0  0  0  0  0  0  0
   57.9520   29.5880   44.5150 C   0  0  0  0  0  0  0  0  0  0  0  0
   59.3270   29.6660   44.7760 C   0  0  0  0  0  0  0  0  0  0  0  0
   59.9690   28.6330   45.4680 C   0  0  0  0  0  0  0  0  0  0  0  0
   59.2410   27.5180   45.8990 C   0  0  0  0  0  0  0  0  0  0  0  0
   57.8680   27.4250   45.6280 C   0  0  0  0  0  0  0  0  0  0  0  0
   56.9640   26.0080   46.1460 S   0  0  0  0  0  0  0  0  0  0  0  0
   55.2710   26.3260   46.0310 N   0  0  0  0  0  0  0  0  0  0  0  0
   57.3180   25.6790   47.5700 O   0  0  0  0  0  0  0  0  0  0  0  0
   57.3100   24.8290   45.2770 O   0  0  0  0  0  0  0  0  0  0  0  0
   57.2250   28.4630   44.9370 C   0  0  0  0  0  0  0  0  0  0  0  0
   57.9960   32.1740   46.9430 C   0  0  0  0  0  0  0  0  0  0  0  0
   58.8790   32.8710   47.7720 C   0  0  0  0  0  0  0  0  0  0  0  0
   61.2254   30.1276   50.7758 H   0  0  0  0  0  0  0  0  0  0  0  0
   62.7854   30.1678   49.8863 H   0  0  0  0  0  0  0  0  0  0  0  0
   61.7141   31.6097   49.8863 H   0  0  0  0  0  0  0  0  0  0  0  0
   61.9459   31.7359   47.8423 H   0  0  0  0  0  0  0  0  0  0  0  0
   62.1840   30.2273   46.8966 H   0  0  0  0  0  0  0  0  0  0  0  0
   60.5842   31.0443   46.8966 H   0  0  0  0  0  0  0  0  0  0  0  0
   59.1156   30.0851   47.8499 H   0  0  0  0  0  0  0  0  0  0  0  0
   59.2792   29.1024   49.3511 H   0  0  0  0  0  0  0  0  0  0  0  0
   58.0983   31.1535   49.9158 H   0  0  0  0  0  0  0  0  0  0  0  0
   59.7615   31.2452   50.6083 H   0  0  0  0  0  0  0  0  0  0  0  0
   60.7505   33.5157   50.3153 H   0  0  0  0  0  0  0  0  0  0  0  0
   60.6935   35.5092   48.5198 H   0  0  0  0  0  0  0  0  0  0  0  0
   59.3035   35.7703   46.0229 H   0  0  0  0  0  0  0  0  0  0  0  0
   57.7251   34.5612   44.4805 H   0  0  0  0  0  0  0  0  0  0  0  0
   59.9020   30.5402   44.4365 H   0  0  0  0  0  0  0  0  0  0  0  0
   61.0477   28.6974   45.6736 H   0  0  0  0  0  0  0  0  0  0  0  0
   59.7469   26.7126   46.4516 H   0  0  0  0  0  0  0  0  0  0  0  0
   55.1480   27.0810   45.3130 H   0  0  0  0  0  0  0  0  0  0  0  0
   56.1477   28.3954   44.7250 H   0  0  0  0  0  0  0  0  0  0  0  0
   57.6359   31.1716   47.2178 H   0  0  0  0  0  0  0  0  0  0  0  0
  1  2  1  0
  2  3  1  0
  2  4  1  0
  4  5  1  0
  5  6  1  0
  6  7  1  0
  7  8  2  0
  8  9  1  0
  9 10  2  0
 10 11  1  0
 11 12  2  0
 12 13  1  0
 13 14  1  0
 14 15  2  0
 14 16  2  0
 14 17  1  0
 17 18  2  0
 18 19  1  0
 19 20  2  0
 20 21  1  0
 21 22  1  0
 22 23  1  0
 22 24  2  0
 22 25  2  0
 21 26  2  0
 12 27  1  0
 27 28  2  0
 28  6  1  0
 28  9  1  0
 26 17  1  0
  1 29  1  0
  1 30  1  0
  1 31  1  0
  3 32  1  0
  3 33  1  0
  3 34  1  0
  4 35  1  0
  4 36  1  0
  5 37  1  0
  5 38  1  0
  7 39  1  0
  8 40  1  0
 10 41  1  0
 11 42  1  0
 18 43  1  0
 19 44  1  0
 20 45  1  0
 23 46  1  0
 26 47  1  0
 27 48  1  0
M  CHG  2  13  -1  23  -1
M  END
>  <UniqueID>  (22) 
18

>  <SMILES>  (22) 
CN(C)CCn1ccc2ccc([N-]S(=O)(=O)c3cccc(S([NH-])(=O)=O)c3)cc21

>  <Energy>  (22) 
80.589671720816

>  <Genealogy>  (22) 
CN(C)CCn1ccc2ccc([N-]S(=O)(=O)c3cccc(S([NH-])(=O)=O)c3)cc21 (protonated)
CN(C)CCn1ccc2ccc([N-]S(=O)(=O)c3cccc(S([NH-])(=O)=O)c3)cc21 (3D coordinates assigned)
CN(C)CCn1ccc2ccc([N-]S(=O)(=O)c3cccc(S([NH-])(=O)=O)c3)cc21 (optimized conformer: 80.589671720816 kcal/mol)

>  <smiles>  (22) 
CN(C)CCn1ccc2ccc(NS(=O)(=O)c3cccc(S(N)(=O)=O)c3)cc21

>  <score_type>  (22) 
oracle

>  <origin>  (22) 
adg

>  <m_score__min__energy>  (22) 
-13.199999999999999

>  <m_primary>  (22) 
energy

$$$$
22:0
     RDKit          3D

 32 33  0  0  0  0  0  0  0  0999 V2000
   61.0730   32.5460   47.0700 C   0  0  0  0  0  0  0  0  0  0  0  0
   61.5880   31.1450   47.3820 C   0  0  0  0  0  0  0  0  0  0  0  0
   60.5770   30.1040   46.9860 C   0  0  0  0  0  0  0  0  0  0  0  0
   59.6100   29.6700   47.9080 C   0  0  0  0  0  0  0  0  0  0  0  0
   58.6510   28.7240   47.5300 C   0  0  0  0  0  0  0  0  0  0  0  0
   58.6510   28.1970   46.2270 C   0  0  0  0  0  0  0  0  0  0  0  0
   57.6650   27.2460   45.8040 N   0  0  0  0  0  0  0  0  0  0  0  0
   56.2710   27.5250   45.6380 C   0  0  0  0  0  0  0  0  0  0  0  0
   55.4280   26.6590   45.9840 O   0  0  0  0  0  0  0  0  0  0  0  0
   55.8100   28.7890   45.1460 N   0  0  0  0  0  0  0  0  0  0  0  0
   56.2110   29.3680   43.8710 C   0  0  0  0  0  0  0  0  0  0  0  0
   56.8790   30.6800   44.1140 C   0  0  0  0  0  0  0  0  0  0  0  0
   57.7020   31.3430   43.2270 C   0  0  0  0  0  0  0  0  0  0  0  0
   58.0590   32.5140   43.8590 C   0  0  0  0  0  0  0  0  0  0  0  0
   57.4290   32.4950   45.0870 C   0  0  0  0  0  0  0  0  0  0  0  0
   56.7300   31.3900   45.2090 O   0  0  0  0  0  0  0  0  0  0  0  0
   59.5930   28.6580   45.3000 C   0  0  0  0  0  0  0  0  0  0  0  0
   60.5510   29.6030   45.6760 C   0  0  0  0  0  0  0  0  0  0  0  0
   60.8760   33.0820   48.0101 H   0  0  0  0  0  0  0  0  0  0  0  0
   61.8288   33.0932   46.4874 H   0  0  0  0  0  0  0  0  0  0  0  0
   60.1428   32.4734   46.4874 H   0  0  0  0  0  0  0  0  0  0  0  0
   62.5211   30.9716   46.8258 H   0  0  0  0  0  0  0  0  0  0  0  0
   61.7677   31.0683   48.4645 H   0  0  0  0  0  0  0  0  0  0  0  0
   59.6068   30.0753   48.9306 H   0  0  0  0  0  0  0  0  0  0  0  0
   57.8940   28.3914   48.2555 H   0  0  0  0  0  0  0  0  0  0  0  0
   56.9103   28.6881   43.3623 H   0  0  0  0  0  0  0  0  0  0  0  0
   55.3235   29.5177   43.2387 H   0  0  0  0  0  0  0  0  0  0  0  0
   58.0087   31.0071   42.2254 H   0  0  0  0  0  0  0  0  0  0  0  0
   58.7141   33.3047   43.4645 H   0  0  0  0  0  0  0  0  0  0  0  0
   57.5015   33.2858   45.8482 H   0  0  0  0  0  0  0  0  0  0  0  0
   59.5790   28.2740   44.2693 H   0  0  0  0  0  0  0  0  0  0  0  0
   61.2890   29.9561   44.9407 H   0  0  0  0  0  0  0  0  0  0  0  0
  1  2  1  0
  2  3  1  0
  3  4  2  0
  4  5  1  0
  5  6  2  0
  6  7  1  0
  7  8  1  0
  8  9  2  0
  8 10  1  0
 10 11  1  0
 11 12  1  0
 12 13  2  0
 13 14  1  0
 14 15  2  0
 15 16  1  0
  6 17  1  0
 17 18  2  0
 18  3  1  0
 16 12  1  0
  1 19  1  0
  1 20  1  0
  1 21  1  0
  2 22  1  0
  2 23  1  0
  4 24  1  0
  5 25  1  0
 11 26  1  0
 11 27  1  0
 13 28  1  0
 14 29  1  0
 15 30  1  0
 17 31  1  0
 18 32  1  0
M  CHG  2   7  -1  10  -1
M  END
>  <UniqueID>  (23) 
19

>  <SMILES>  (23) 
CCc1ccc([N-]C(=O)[N-]Cc2ccco2)cc1

>  <Energy>  (23) 
57.965865694549485

>  <Genealogy>  (23) 
CCc1ccc([N-]C(=O)[N-]Cc2ccco2)cc1 (protonated)
CCc1ccc([N-]C(=O)[N-]Cc2ccco2)cc1 (3D coordinates assigned)
CCc1ccc([N-]C(=O)[N-]Cc2ccco2)cc1 (optimized conformer: 57.965865694549485 kcal/mol)

>  <smiles>  (23) 
CCc1ccc(NC(=O)NCc2ccco2)cc1

>  <score_type>  (23) 
oracle

>  <origin>  (23) 
adg

>  <m_score__min__energy>  (23) 
-10.210000000000001

>  <m_primary>  (23) 
energy

$$$$
23:0
     RDKit          3D

 72 75  0  0  0  0  0  0  0  0999 V2000
   57.0130   34.2640   44.9430 C   0  0  0  0  0  0  0  0  0  0  0  0
   57.5500   34.2290   46.2600 O   0  0  0  0  0  0  0  0  0  0  0  0
   58.8310   33.7580   46.5830 C   0  0  0  0  0  0  0  0  0  0  0  0
   59.9880   34.5430   46.4140 C   0  0  0  0  0  0  0  0  0  0  0  0
   61.2430   34.0260   46.7490 C   0  0  0  0  0  0  0  0  0  0  0  0
   61.3570   32.7260   47.2450 C   0  0  0  0  0  0  0  0  0  0  0  0
   60.2140   31.9290   47.4060 C   0  0  0  0  0  0  0  0  0  0  0  0
   60.3360   30.5350   47.8990 C   0  0  0  0  0  0  0  0  0  0  0  0
   60.4270   30.2380   49.2770 C   0  0  0  0  0  0  0  0  0  0  0  0
   60.4500   31.3730   50.2880 C   0  0  0  0  0  0  0  0  0  0  0  0
   60.4350   28.9210   49.6860 N   0  0  0  0  0  0  0  0  0  0  0  0
   60.4200   28.5730   51.1280 C   0  0  0  0  0  0  0  0  0  0  0  0
   61.7270   27.9800   51.6280 C   0  0  0  0  0  0  0  0  0  0  0  0
   62.8970   28.7530   51.8260 C   0  0  0  0  0  0  0  0  0  0  0  0
   62.9160   30.0910   51.5980 F   0  0  0  0  0  0  0  0  0  0  0  0
   64.0770   28.1430   52.2660 C   0  0  0  0  0  0  0  0  0  0  0  0
   64.1190   26.7660   52.4920 C   0  0  0  0  0  0  0  0  0  0  0  0
   62.9840   25.9890   52.2720 C   0  0  0  0  0  0  0  0  0  0  0  0
   61.7960   26.5860   51.8360 C   0  0  0  0  0  0  0  0  0  0  0  0
   60.7110   25.7980   51.6180 F   0  0  0  0  0  0  0  0  0  0  0  0
   60.4300   27.9080   48.7550 C   0  0  0  0  0  0  0  0  0  0  0  0
   60.4560   26.7030   49.1390 O   0  0  0  0  0  0  0  0  0  0  0  0
   60.4120   28.1850   47.4120 N   0  0  0  0  0  0  0  0  0  0  0  0
   60.3910   27.0790   46.4280 C   0  0  0  0  0  0  0  0  0  0  0  0
   59.0660   26.3140   46.5150 C   0  0  0  0  0  0  0  0  0  0  0  0
   58.2780   26.4890   45.2810 N   0  0  0  0  0  0  0  0  0  0  0  0
   58.6430   27.6180   44.4020 C   0  0  0  0  0  0  0  0  0  0  0  0
   57.4090   28.2310   43.7220 C   0  0  0  0  0  0  0  0  0  0  0  0
   56.7560   29.6300   44.6280 S   0  0  0  0  0  0  0  0  0  0  0  0
   57.0640   31.1480   43.7510 C   0  0  0  0  0  0  0  0  0  0  0  0
   57.3830   29.7000   45.9910 O   0  0  0  0  0  0  0  0  0  0  0  0
   55.2710   29.4560   44.7830 O   0  0  0  0  0  0  0  0  0  0  0  0
   57.2370   25.5340   44.9020 C   0  0  0  0  0  0  0  0  0  0  0  0
   57.3650   24.7300   43.7440 C   0  0  0  0  0  0  0  0  0  0  0  0
   56.3680   23.8190   43.3820 C   0  0  0  0  0  0  0  0  0  0  0  0
   55.2220   23.6870   44.1630 C   0  0  0  0  0  0  0  0  0  0  0  0
   55.0690   24.4650   45.3070 C   0  0  0  0  0  0  0  0  0  0  0  0
   56.0600   25.3790   45.6770 C   0  0  0  0  0  0  0  0  0  0  0  0
   60.3390   29.4800   46.9790 C   0  0  0  0  0  0  0  0  0  0  0  0
   60.2590   29.7330   45.7430 O   0  0  0  0  0  0  0  0  0  0  0  0
   58.9540   32.4560   47.0830 C   0  0  0  0  0  0  0  0  0  0  0  0
   55.9166   34.3355   44.9959 H   0  0  0  0  0  0  0  0  0  0  0  0
   57.4120   35.1380   44.4074 H   0  0  0  0  0  0  0  0  0  0  0  0
   57.2952   33.3456   44.4074 H   0  0  0  0  0  0  0  0  0  0  0  0
   59.9040   35.5656   46.0174 H   0  0  0  0  0  0  0  0  0  0  0  0
   62.1431   34.6453   46.6214 H   0  0  0  0  0  0  0  0  0  0  0  0
   62.3465   32.3254   47.5104 H   0  0  0  0  0  0  0  0  0  0  0  0
   60.4416   30.9572   51.3063 H   0  0  0  0  0  0  0  0  0  0  0  0
   61.3605   31.9734   50.1446 H   0  0  0  0  0  0  0  0  0  0  0  0
   59.5646   32.0098   50.1446 H   0  0  0  0  0  0  0  0  0  0  0  0
   60.2109   29.4869   51.7034 H   0  0  0  0  0  0  0  0  0  0  0  0
   59.6455   27.8039   51.2646 H   0  0  0  0  0  0  0  0  0  0  0  0
   64.9771   28.7523   52.4349 H   0  0  0  0  0  0  0  0  0  0  0  0
   65.0485   26.2945   52.8438 H   0  0  0  0  0  0  0  0  0  0  0  0
   63.0218   24.9028   52.4415 H   0  0  0  0  0  0  0  0  0  0  0  0
   60.5054   27.4924   45.4151 H   0  0  0  0  0  0  0  0  0  0  0  0
   61.2179   26.3881   46.6489 H   0  0  0  0  0  0  0  0  0  0  0  0
   59.2762   25.2440   46.6599 H   0  0  0  0  0  0  0  0  0  0  0  0
   58.4862   26.7086   47.3624 H   0  0  0  0  0  0  0  0  0  0  0  0
   59.1397   28.3928   45.0045 H   0  0  0  0  0  0  0  0  0  0  0  0
   59.3139   27.2385   43.6172 H   0  0  0  0  0  0  0  0  0  0  0  0
   57.6909   28.5643   42.7123 H   0  0  0  0  0  0  0  0  0  0  0  0
   56.6265   27.4587   43.6873 H   0  0  0  0  0  0  0  0  0  0  0  0
   57.2291   31.9615   44.4728 H   0  0  0  0  0  0  0  0  0  0  0  0
   57.9569   31.0317   43.1191 H   0  0  0  0  0  0  0  0  0  0  0  0
   56.1964   31.3889   43.1191 H   0  0  0  0  0  0  0  0  0  0  0  0
   58.2646   24.8236   43.1179 H   0  0  0  0  0  0  0  0  0  0  0  0
   56.4889   23.2046   42.4776 H   0  0  0  0  0  0  0  0  0  0  0  0
   54.4394   22.9692   43.8761 H   0  0  0  0  0  0  0  0  0  0  0  0
   54.1638   24.3601   45.9231 H   0  0  0  0  0  0  0  0  0  0  0  0
   55.9245   25.9873   46.5834 H   0  0  0  0  0  0  0  0  0  0  0  0
   58.0538   31.8398   47.2241 H   0  0  0  0  0  0  0  0  0  0  0  0
  1  2  1  0
  2  3  1  0
  3  4  2  0
  4  5  1  0
  5  6  2  0
  6  7  1  0
  7  8  1  0
  8  9  2  0
  9 10  1  0
  9 11  1  0
 11 12  1  0
 12 13  1  0
 13 14  2  0
 14 15  1  0
 14 16  1  0
 16 17  2  0
 17 18  1  0
 18 19  2  0
 19 20  1  0
 11 21  1  0
 21 22  2  0
 21 23  1  0
 23 24  1  0
 24 25  1  0
 25 26  1  0
 26 27  1  0
 27 28  1  0
 28 29  1  0
 29 30  1  0
 29 31  2  0
 29 32  2  0
 26 33  1  0
 33 34  2  0
 34 35  1  0
 35 36  2  0
 36 37  1  0
 37 38  2  0
 23 39  1  0
 39 40  2  0
  7 41  2  0
 41  3  1  0
 39  8  1  0
 19 13  1  0
 38 33  1  0
  1 42  1  0
  1 43  1  0
  1 44  1  0
  4 45  1  0
  5 46  1  0
  6 47  1  0
 10 48  1  0
 10 49  1  0
 10 50  1  0
 12 51  1  0
 12 52  1  0
 16 53  1  0
 17 54  1  0
 18 55  1  0
 24 56  1  0
 24 57  1  0
 25 58  1  0
 25 59  1  0
 27 60  1  0
 27 61  1  0
 28 62  1  0
 28 63  1  0
 30 64  1  0
 30 65  1  0
 30 66  1  0
 34 67  1  0
 35 68  1  0
 36 69  1  0
 37 70  1  0
 38 71  1  0
 41 72  1  0
M  END
>  <UniqueID>  (24) 
20

>  <SMILES>  (24) 
COc1cccc(-c2c(C)n(Cc3c(F)cccc3F)c(=O)n(CCN(CCS(C)(=O)=O)c3ccccc3)c2=O)c1

>  <Energy>  (24) 
90.23044991374081

>  <Genealogy>  (24) 
COc1cccc(-c2c(C)n(Cc3c(F)cccc3F)c(=O)n(CCN(CCS(C)(=O)=O)c3ccccc3)c2=O)c1 (3D coordinates assigned)
COc1cccc(-c2c(C)n(Cc3c(F)cccc3F)c(=O)n(CCN(CCS(C)(=O)=O)c3ccccc3)c2=O)c1 (optimized conformer: 90.23044991374081 kcal/mol)

>  <smiles>  (24) 
COc1cccc(-c2c(C)n(Cc3c(F)cccc3F)c(=O)n(CCN(CCS(C)(=O)=O)c3ccccc3)c2=O)c1

>  <score_type>  (24) 
oracle

>  <origin>  (24) 
adg

>  <m_score__min__energy>  (24) 
-9.5099999999999998

>  <m_primary>  (24) 
energy

$$$$
24:0
     RDKit          3D

 36 37  0  0  0  0  0  0  0  0999 V2000
   55.0910   22.1380   43.3440 H   0  0  0  0  0  0  0  0  0  0  0  0
   56.0490   22.4470   43.4580 O   0  0  0  0  0  0  0  0  0  0  0  0
   56.3870   23.4510   44.3620 C   0  0  0  0  0  0  0  0  0  0  0  0
   57.6700   23.5050   44.9220 C   0  0  0  0  0  0  0  0  0  0  0  0
   58.4187   22.7451   44.6538 H   0  0  0  0  0  0  0  0  0  0  0  0
   58.0000   24.5230   45.8210 C   0  0  0  0  0  0  0  0  0  0  0  0
   59.0012   24.5476   46.2760 H   0  0  0  0  0  0  0  0  0  0  0  0
   57.0620   25.5130   46.1460 C   0  0  0  0  0  0  0  0  0  0  0  0
   57.4420   26.5700   47.1040 C   0  0  0  0  0  0  0  0  0  0  0  0
   56.8031   26.7102   47.9884 H   0  0  0  0  0  0  0  0  0  0  0  0
   58.5150   27.3760   46.9740 C   0  0  0  0  0  0  0  0  0  0  0  0
   58.6050   28.5870   47.8620 C   0  0  0  0  0  0  0  0  0  0  0  0
   58.5816   28.2717   48.9156 H   0  0  0  0  0  0  0  0  0  0  0  0
   59.5453   29.1208   47.6599 H   0  0  0  0  0  0  0  0  0  0  0  0
   57.7539   29.2540   47.6599 H   0  0  0  0  0  0  0  0  0  0  0  0
   59.6810   27.0720   46.0500 C   0  0  0  0  0  0  0  0  0  0  0  0
   60.5853   27.5550   46.4486 H   0  0  0  0  0  0  0  0  0  0  0  0
   59.8015   25.9796   46.0028 H   0  0  0  0  0  0  0  0  0  0  0  0
   59.4330   27.5840   44.6240 C   0  0  0  0  0  0  0  0  0  0  0  0
   60.3874   27.9269   44.1979 H   0  0  0  0  0  0  0  0  0  0  0  0
   59.0100   26.7582   44.0332 H   0  0  0  0  0  0  0  0  0  0  0  0
   58.4510   28.7260   44.6020 C   0  0  0  0  0  0  0  0  0  0  0  0
   57.0700   28.4690   44.5690 C   0  0  0  0  0  0  0  0  0  0  0  0
   56.7058   27.4311   44.5738 H   0  0  0  0  0  0  0  0  0  0  0  0
   56.1560   29.5280   44.5300 C   0  0  0  0  0  0  0  0  0  0  0  0
   54.7920   29.2660   44.4930 O   0  0  0  0  0  0  0  0  0  0  0  0
   56.6160   30.8480   44.5220 C   0  0  0  0  0  0  0  0  0  0  0  0
   55.8969   31.6801   44.4984 H   0  0  0  0  0  0  0  0  0  0  0  0
   57.9880   31.1120   44.5440 C   0  0  0  0  0  0  0  0  0  0  0  0
   58.4430   32.4250   44.5250 O   0  0  0  0  0  0  0  0  0  0  0  0
   58.9050   30.0550   44.5800 C   0  0  0  0  0  0  0  0  0  0  0  0
   59.9845   30.2659   44.5911 H   0  0  0  0  0  0  0  0  0  0  0  0
   55.7590   25.4290   45.6200 C   0  0  0  0  0  0  0  0  0  0  0  0
   54.7820   26.3450   45.9960 O   0  0  0  0  0  0  0  0  0  0  0  0
   55.4330   24.4090   44.7190 C   0  0  0  0  0  0  0  0  0  0  0  0
   54.4214   24.3606   44.2896 H   0  0  0  0  0  0  0  0  0  0  0  0
  1  2  1  0
  2  3  1  0
  3  4  2  0
  4  5  1  0
  4  6  1  0
  6  7  1  0
  6  8  2  0
  8  9  1  0
  9 10  1  0
  9 11  2  0
 11 12  1  0
 12 13  1  0
 12 14  1  0
 12 15  1  0
 11 16  1  0
 16 17  1  0
 16 18  1  0
 16 19  1  0
 19 20  1  0
 19 21  1  0
 19 22  1  0
 22 23  2  0
 23 24  1  0
 23 25  1  0
 25 26  1  0
 25 27  2  0
 27 28  1  0
 27 29  1  0
 29 30  1  0
 29 31  2  0
 31 32  1  0
  8 33  1  0
 33 34  1  0
 33 35  2  0
 35 36  1  0
 35  3  1  0
 31 22  1  0
M  CHG  3  26  -1  30  -1  34  -1
M  END
>  <UniqueID>  (25) 
21

>  <SMILES>  (25) 
C/C(=C/c1ccc(O)cc1[O-])CCc1cc([O-])cc([O-])c1

>  <Energy>  (25) 
36.01447669778249

>  <Genealogy>  (25) 
CC(=Cc1ccc(O)cc1[O-])CCc1cc([O-])cc([O-])c1 (protonated)
C/C(=C/c1ccc(O)cc1[O-])CCc1cc([O-])cc([O-])c1 (cis-trans isomerization)
C/C(=C/c1ccc(O)cc1[O-])CCc1cc([O-])cc([O-])c1 (3D coordinates assigned)
C/C(=C/c1ccc(O)cc1[O-])CCc1cc([O-])cc([O-])c1 (optimized conformer: 36.01447669778249 kcal/mol)

>  <smiles>  (25) 
CC(=Cc1ccc(O)cc1O)CCc1cc(O)cc(O)c1

>  <score_type>  (25) 
oracle

>  <origin>  (25) 
adg

>  <m_score__min__energy>  (25) 
-15.050000000000001

>  <m_primary>  (25) 
energy

$$$$
25:0
     RDKit          3D

 35 36  0  0  0  0  0  0  0  0999 V2000
   60.0240   28.5290   46.6810 C   0  0  0  0  0  0  0  0  0  0  0  0
   59.3650   29.7720   46.1720 C   0  0  0  0  0  0  0  0  0  0  0  0
   58.6350   29.7480   44.9780 C   0  0  0  0  0  0  0  0  0  0  0  0
   58.0510   30.9220   44.4930 C   0  0  0  0  0  0  0  0  0  0  0  0
   57.3260   30.8870   43.2510 N   0  0  0  0  0  0  0  0  0  0  0  0
   57.6620   31.8470   42.2000 C   0  0  0  0  0  0  0  0  0  0  0  0
   56.4680   29.7390   42.9370 C   0  0  0  0  0  0  0  0  0  0  0  0
   55.1620   29.8050   43.7260 C   0  0  0  0  0  0  0  0  0  0  0  0
   55.3710   29.3410   45.0330 O   0  0  0  0  0  0  0  0  0  0  0  0
   58.2120   32.1280   45.2120 C   0  0  0  0  0  0  0  0  0  0  0  0
   57.6480   33.3380   44.7700 C   0  0  0  0  0  0  0  0  0  0  0  0
   57.8250   34.5100   45.5080 C   0  0  0  0  0  0  0  0  0  0  0  0
   58.5620   34.4910   46.6940 C   0  0  0  0  0  0  0  0  0  0  0  0
   59.1420   33.2960   47.1560 C   0  0  0  0  0  0  0  0  0  0  0  0
   59.9180   33.2880   48.4460 C   0  0  0  0  0  0  0  0  0  0  0  0
   58.9620   32.1110   46.4150 C   0  0  0  0  0  0  0  0  0  0  0  0
   59.5130   30.9430   46.8480 N   0  0  0  0  0  0  0  0  0  0  0  0
   60.0202   28.5361   47.7810 H   0  0  0  0  0  0  0  0  0  0  0  0
   59.4746   27.6478   46.3181 H   0  0  0  0  0  0  0  0  0  0  0  0
   61.0617   28.4892   46.3181 H   0  0  0  0  0  0  0  0  0  0  0  0
   58.5209   28.8060   44.4216 H   0  0  0  0  0  0  0  0  0  0  0  0
   57.9924   32.7911   42.6577 H   0  0  0  0  0  0  0  0  0  0  0  0
   58.4709   31.4393   41.5759 H   0  0  0  0  0  0  0  0  0  0  0  0
   56.7754   32.0327   41.5759 H   0  0  0  0  0  0  0  0  0  0  0  0
   56.2397   29.7433   41.8610 H   0  0  0  0  0  0  0  0  0  0  0  0
   56.9996   28.8162   43.2124 H   0  0  0  0  0  0  0  0  0  0  0  0
   54.8087   30.8462   43.7605 H   0  0  0  0  0  0  0  0  0  0  0  0
   54.4083   29.1733   43.2332 H   0  0  0  0  0  0  0  0  0  0  0  0
   55.1390   30.0920   45.6390 H   0  0  0  0  0  0  0  0  0  0  0  0
   57.0643   33.3613   43.8379 H   0  0  0  0  0  0  0  0  0  0  0  0
   57.3820   35.4524   45.1536 H   0  0  0  0  0  0  0  0  0  0  0  0
   58.6899   35.4184   47.2716 H   0  0  0  0  0  0  0  0  0  0  0  0
   59.2184   33.2952   49.2948 H   0  0  0  0  0  0  0  0  0  0  0  0
   60.5421   32.3834   48.4929 H   0  0  0  0  0  0  0  0  0  0  0  0
   60.5606   34.1796   48.4929 H   0  0  0  0  0  0  0  0  0  0  0  0
  1  2  1  0
  2  3  2  0
  3  4  1  0
  4  5  1  0
  5  6  1  0
  5  7  1  0
  7  8  1  0
  8  9  1  0
  4 10  2  0
 10 11  1  0
 11 12  2  0
 12 13  1  0
 13 14  2  0
 14 15  1  0
 14 16  1  0
 16 17  2  0
 17  2  1  0
 16 10  1  0
  1 18  1  0
  1 19  1  0
  1 20  1  0
  3 21  1  0
  6 22  1  0
  6 23  1  0
  6 24  1  0
  7 25  1  0
  7 26  1  0
  8 27  1  0
  8 28  1  0
  9 29  1  0
 11 30  1  0
 12 31  1  0
 13 32  1  0
 15 33  1  0
 15 34  1  0
 15 35  1  0
M  END
>  <UniqueID>  (26) 
22

>  <SMILES>  (26) 
Cc1cc(N(C)CCO)c2cccc(C)c2n1

>  <Energy>  (26) 
38.29107844674045

>  <Genealogy>  (26) 
Cc1cc(N(C)CCO)c2cccc(C)c2n1 (3D coordinates assigned)
Cc1cc(N(C)CCO)c2cccc(C)c2n1 (optimized conformer: 38.29107844674045 kcal/mol)

>  <smiles>  (26) 
Cc1cc(N(C)CCO)c2cccc(C)c2n1

>  <score_type>  (26) 
oracle

>  <origin>  (26) 
adg

>  <m_score__min__energy>  (26) 
-6.9900000000000002

>  <m_primary>  (26) 
energy

$$$$
26:0
     RDKit          3D

 35 36  0  0  0  0  0  0  0  0999 V2000
   58.1610   32.5740   43.1570 C   0  0  0  0  0  0  0  0  0  0  0  0
   57.8680   31.2630   43.8150 C   0  0  0  0  0  0  0  0  0  0  0  0
   56.5470   30.8630   44.0410 C   0  0  0  0  0  0  0  0  0  0  0  0
   56.3210   29.6200   44.6360 C   0  0  0  0  0  0  0  0  0  0  0  0
   55.1450   29.2310   44.8610 O   0  0  0  0  0  0  0  0  0  0  0  0
   57.3710   28.8260   44.9690 N   0  0  0  0  0  0  0  0  0  0  0  0
   58.6480   29.2230   44.7300 C   0  0  0  0  0  0  0  0  0  0  0  0
   60.0170   28.1430   45.1470 S   0  0  0  0  0  0  0  0  0  0  0  0
   59.8710   28.3890   46.9510 C   0  0  0  0  0  0  0  0  0  0  0  0
   59.1660   27.2330   47.5830 C   0  0  0  0  0  0  0  0  0  0  0  0
   59.7220   26.5970   48.5190 O   0  0  0  0  0  0  0  0  0  0  0  0
   57.8680   26.8570   47.1100 N   0  0  0  0  0  0  0  0  0  0  0  0
   57.5530   25.7320   46.2790 C   0  0  0  0  0  0  0  0  0  0  0  0
   56.2370   25.4550   45.8620 C   0  0  0  0  0  0  0  0  0  0  0  0
   55.9620   24.3050   45.1180 C   0  0  0  0  0  0  0  0  0  0  0  0
   56.9900   23.4130   44.7890 C   0  0  0  0  0  0  0  0  0  0  0  0
   56.6270   21.9350   43.9050 S   0  0  0  0  0  0  0  0  0  0  0  0
   58.0960   21.0930   43.5610 N   0  0  0  0  0  0  0  0  0  0  0  0
   55.7270   21.0590   44.7300 O   0  0  0  0  0  0  0  0  0  0  0  0
   55.9270   22.2680   42.6180 O   0  0  0  0  0  0  0  0  0  0  0  0
   58.2970   23.6760   45.2200 C   0  0  0  0  0  0  0  0  0  0  0  0
   58.5740   24.8270   45.9630 C   0  0  0  0  0  0  0  0  0  0  0  0
   58.8890   30.4330   44.1610 N   0  0  0  0  0  0  0  0  0  0  0  0
   58.3323   33.3406   43.9271 H   0  0  0  0  0  0  0  0  0  0  0  0
   59.0596   32.4769   42.5300 H   0  0  0  0  0  0  0  0  0  0  0  0
   57.3065   32.8686   42.5300 H   0  0  0  0  0  0  0  0  0  0  0  0
   55.7058   31.5123   43.7567 H   0  0  0  0  0  0  0  0  0  0  0  0
   60.8771   28.4809   47.3861 H   0  0  0  0  0  0  0  0  0  0  0  0
   59.2908   29.3045   47.1387 H   0  0  0  0  0  0  0  0  0  0  0  0
   55.4224   26.1466   46.1230 H   0  0  0  0  0  0  0  0  0  0  0  0
   54.9327   24.0992   44.7890 H   0  0  0  0  0  0  0  0  0  0  0  0
   57.8390   20.2460   43.0060 H   0  0  0  0  0  0  0  0  0  0  0  0
   58.4710   20.7490   44.4730 H   0  0  0  0  0  0  0  0  0  0  0  0
   59.1075   22.9746   44.9729 H   0  0  0  0  0  0  0  0  0  0  0  0
   59.6018   25.0235   46.3021 H   0  0  0  0  0  0  0  0  0  0  0  0
  1  2  1  0
  2  3  2  0
  3  4  1  0
  4  5  2  0
  4  6  1  0
  6  7  1  0
  7  8  1  0
  8  9  1  0
  9 10  1  0
 10 11  2  0
 10 12  1  0
 12 13  1  0
 13 14  2  0
 14 15  1  0
 15 16  2  0
 16 17  1  0
 17 18  1  0
 17 19  2  0
 17 20  2  0
 16 21  1  0
 21 22  2  0
  7 23  2  0
 23  2  1  0
 22 13  1  0
  1 24  1  0
  1 25  1  0
  1 26  1  0
  3 27  1  0
  9 28  1  0
  9 29  1  0
 14 30  1  0
 15 31  1  0
 18 32  1  0
 18 33  1  0
 21 34  1  0
 22 35  1  0
M  CHG  2   6  -1  12  -1
M  END
>  <UniqueID>  (27) 
23

>  <SMILES>  (27) 
Cc1cc(=O)[n-]c(SCC(=O)[N-]c2ccc(S(N)(=O)=O)cc2)n1

>  <Energy>  (27) 
29.187774264126332

>  <Genealogy>  (27) 
Cc1cc(=O)[n-]c(SCC(=O)[N-]c2ccc(S(N)(=O)=O)cc2)n1 (protonated)
Cc1cc(=O)[n-]c(SCC(=O)[N-]c2ccc(S(N)(=O)=O)cc2)n1 (3D coordinates assigned)
Cc1cc(=O)[n-]c(SCC(=O)[N-]c2ccc(S(N)(=O)=O)cc2)n1 (optimized conformer: 29.187774264126332 kcal/mol)

>  <smiles>  (27) 
Cc1cc(=O)[nH]c(SCC(=O)Nc2ccc(S(N)(=O)=O)cc2)n1

>  <score_type>  (27) 
oracle

>  <origin>  (27) 
adg

>  <m_score__min__energy>  (27) 
-10.880000000000001

>  <m_primary>  (27) 
energy

$$$$
27:0
     RDKit          3D

 35 35  0  0  0  0  0  0  0  0999 V2000
   58.5500   31.8220   48.0330 C   0  0  0  0  0  0  0  0  0  0  0  0
   58.6080   32.8450   46.9240 C   0  0  0  0  0  0  0  0  0  0  0  0
   59.4500   33.9720   47.0550 C   0  0  0  0  0  0  0  0  0  0  0  0
   60.4370   34.2290   48.4910 Cl  0  0  0  0  0  0  0  0  0  0  0  0
   59.5250   34.9170   46.0270 C   0  0  0  0  0  0  0  0  0  0  0  0
   58.7890   34.7430   44.8570 C   0  0  0  0  0  0  0  0  0  0  0  0
   57.9680   33.6260   44.7050 C   0  0  0  0  0  0  0  0  0  0  0  0
   57.8560   32.6750   45.7350 C   0  0  0  0  0  0  0  0  0  0  0  0
   57.0430   31.5020   45.5670 N   0  0  0  0  0  0  0  0  0  0  0  0
   56.7830   30.8110   44.3370 C   0  0  0  0  0  0  0  0  0  0  0  0
   57.3700   31.1630   43.2800 O   0  0  0  0  0  0  0  0  0  0  0  0
   55.7970   29.7100   44.3310 C   0  0  0  0  0  0  0  0  0  0  0  0
   54.8600   29.7520   43.4920 O   0  0  0  0  0  0  0  0  0  0  0  0
   55.8440   28.5950   45.2370 N   0  0  0  0  0  0  0  0  0  0  0  0
   56.9560   27.6760   45.4600 C   0  0  0  0  0  0  0  0  0  0  0  0
   58.0410   28.3380   46.3170 C   0  0  0  0  0  0  0  0  0  0  0  0
   59.3290   28.3730   45.5910 N   0  0  0  0  0  0  0  0  0  0  0  0
   59.9390   29.7130   45.6630 C   0  0  0  0  0  0  0  0  0  0  0  0
   59.1270   28.0060   44.1800 C   0  0  0  0  0  0  0  0  0  0  0  0
   58.5790   32.3341   49.0061 H   0  0  0  0  0  0  0  0  0  0  0  0
   57.6176   31.2442   47.9504 H   0  0  0  0  0  0  0  0  0  0  0  0
   59.4111   31.1425   47.9504 H   0  0  0  0  0  0  0  0  0  0  0  0
   60.1681   35.8019   46.1427 H   0  0  0  0  0  0  0  0  0  0  0  0
   58.8556   35.4886   44.0510 H   0  0  0  0  0  0  0  0  0  0  0  0
   57.4031   33.4876   43.7713 H   0  0  0  0  0  0  0  0  0  0  0  0
   56.5850   26.7786   45.9767 H   0  0  0  0  0  0  0  0  0  0  0  0
   57.3906   27.4032   44.4870 H   0  0  0  0  0  0  0  0  0  0  0  0
   57.7339   29.3664   46.5580 H   0  0  0  0  0  0  0  0  0  0  0  0
   58.1699   27.7531   47.2396 H   0  0  0  0  0  0  0  0  0  0  0  0
   60.0697   30.0002   46.7168 H   0  0  0  0  0  0  0  0  0  0  0  0
   60.9187   29.6973   45.1630 H   0  0  0  0  0  0  0  0  0  0  0  0
   59.2838   30.4415   45.1630 H   0  0  0  0  0  0  0  0  0  0  0  0
   58.5973   27.0436   44.1237 H   0  0  0  0  0  0  0  0  0  0  0  0
   58.5295   28.7831   43.6809 H   0  0  0  0  0  0  0  0  0  0  0  0
   60.1032   27.9170   43.6809 H   0  0  0  0  0  0  0  0  0  0  0  0
  1  2  1  0
  2  3  2  0
  3  4  1  0
  3  5  1  0
  5  6  2  0
  6  7  1  0
  7  8  2  0
  8  9  1  0
  9 10  1  0
 10 11  2  0
 10 12  1  0
 12 13  2  0
 12 14  1  0
 14 15  1  0
 15 16  1  0
 16 17  1  0
 17 18  1  0
 17 19  1  0
  8  2  1  0
  1 20  1  0
  1 21  1  0
  1 22  1  0
  5 23  1  0
  6 24  1  0
  7 25  1  0
 15 26  1  0
 15 27  1  0
 16 28  1  0
 16 29  1  0
 18 30  1  0
 18 31  1  0
 18 32  1  0
 19 33  1  0
 19 34  1  0
 19 35  1  0
M  CHG  2   9  -1  14  -1
M  END
>  <UniqueID>  (28) 
24

>  <SMILES>  (28) 
Cc1c(Cl)cccc1[N-]C(=O)C(=O)[N-]CCN(C)C

>  <Energy>  (28) 
37.24650147521443

>  <Genealogy>  (28) 
Cc1c(Cl)cccc1[N-]C(=O)C(=O)[N-]CCN(C)C (protonated)
Cc1c(Cl)cccc1[N-]C(=O)C(=O)[N-]CCN(C)C (3D coordinates assigned)
Cc1c(Cl)cccc1[N-]C(=O)C(=O)[N-]CCN(C)C (optimized conformer: 37.24650147521443 kcal/mol)

>  <smiles>  (28) 
Cc1c(Cl)cccc1NC(=O)C(=O)NCCN(C)C

>  <score_type>  (28) 
oracle

>  <origin>  (28) 
adg

>  <m_score__min__energy>  (28) 
-9.8499999999999996

>  <m_primary>  (28) 
energy

$$$$
28:0
     RDKit          3D

 47 49  0  0  0  0  0  0  0  0999 V2000
   59.0040   33.8070   51.6100 S   0  0  0  0  0  0  0  0  0  0  0  0
   60.3740   33.1110   51.1260 C   0  0  0  0  0  0  0  0  0  0  0  0
   61.4560   32.5570   50.7460 N   0  0  0  0  0  0  0  0  0  0  0  0
   62.0400   32.7280   49.4420 C   0  0  0  0  0  0  0  0  0  0  0  0
   62.8680   33.8340   49.1540 C   0  0  0  0  0  0  0  0  0  0  0  0
   63.3960   34.0120   47.8750 C   0  0  0  0  0  0  0  0  0  0  0  0
   63.1000   33.0990   46.8640 C   0  0  0  0  0  0  0  0  0  0  0  0
   62.2880   31.9970   47.1320 C   0  0  0  0  0  0  0  0  0  0  0  0
   61.7720   31.7820   48.4230 C   0  0  0  0  0  0  0  0  0  0  0  0
   60.9000   30.5660   48.6770 C   0  0  0  0  0  0  0  0  0  0  0  0
   60.4360   29.8630   47.3860 C   0  0  0  0  0  0  0  0  0  0  0  0
   58.9750   30.1530   46.9950 C   0  0  0  0  0  0  0  0  0  0  0  0
   58.5420   29.4190   45.7450 C   0  0  0  0  0  0  0  0  0  0  0  0
   59.1390   28.1880   45.4250 C   0  0  0  0  0  0  0  0  0  0  0  0
   58.7450   27.4840   44.2860 C   0  0  0  0  0  0  0  0  0  0  0  0
   57.7600   28.0060   43.4500 C   0  0  0  0  0  0  0  0  0  0  0  0
   57.1720   29.2370   43.7430 C   0  0  0  0  0  0  0  0  0  0  0  0
   57.5620   29.9630   44.8860 C   0  0  0  0  0  0  0  0  0  0  0  0
   57.0080   31.2170   45.1970 O   0  0  0  0  0  0  0  0  0  0  0  0
   57.3860   32.4610   44.6080 C   0  0  0  0  0  0  0  0  0  0  0  0
   58.2220   33.2710   45.5630 C   0  0  0  0  0  0  0  0  0  0  0  0
   59.1400   34.2200   45.0810 C   0  0  0  0  0  0  0  0  0  0  0  0
   59.9060   34.9740   45.9750 C   0  0  0  0  0  0  0  0  0  0  0  0
   59.7570   34.7950   47.3530 C   0  0  0  0  0  0  0  0  0  0  0  0
   58.8370   33.8610   47.8390 C   0  0  0  0  0  0  0  0  0  0  0  0
   58.0690   33.1050   46.9500 C   0  0  0  0  0  0  0  0  0  0  0  0
   63.0992   34.5624   49.9452 H   0  0  0  0  0  0  0  0  0  0  0  0
   64.0465   34.8736   47.6641 H   0  0  0  0  0  0  0  0  0  0  0  0
   63.5075   33.2479   45.8532 H   0  0  0  0  0  0  0  0  0  0  0  0
   62.0485   31.2885   46.3253 H   0  0  0  0  0  0  0  0  0  0  0  0
   61.4734   29.8458   49.2791 H   0  0  0  0  0  0  0  0  0  0  0  0
   59.9968   30.9179   49.1969 H   0  0  0  0  0  0  0  0  0  0  0  0
   61.0851   30.1935   46.5617 H   0  0  0  0  0  0  0  0  0  0  0  0
   60.5020   28.7815   47.5758 H   0  0  0  0  0  0  0  0  0  0  0  0
   58.3222   29.8465   47.8256 H   0  0  0  0  0  0  0  0  0  0  0  0
   58.8969   31.2306   46.7882 H   0  0  0  0  0  0  0  0  0  0  0  0
   59.9230   27.7758   46.0772 H   0  0  0  0  0  0  0  0  0  0  0  0
   59.2122   26.5169   44.0483 H   0  0  0  0  0  0  0  0  0  0  0  0
   57.4452   27.4463   42.5569 H   0  0  0  0  0  0  0  0  0  0  0  0
   56.3976   29.6441   43.0762 H   0  0  0  0  0  0  0  0  0  0  0  0
   57.9678   32.2660   43.6951 H   0  0  0  0  0  0  0  0  0  0  0  0
   56.4753   33.0288   44.3668 H   0  0  0  0  0  0  0  0  0  0  0  0
   59.2560   34.3698   43.9974 H   0  0  0  0  0  0  0  0  0  0  0  0
   60.6282   35.7104   45.5926 H   0  0  0  0  0  0  0  0  0  0  0  0
   60.3626   35.3880   48.0542 H   0  0  0  0  0  0  0  0  0  0  0  0
   58.7177   33.7212   48.9235 H   0  0  0  0  0  0  0  0  0  0  0  0
   57.3414   32.3767   47.3374 H   0  0  0  0  0  0  0  0  0  0  0  0
  1  2  2  0
  2  3  2  0
  3  4  1  0
  4  5  2  0
  5  6  1  0
  6  7  2  0
  7  8  1  0
  8  9  2  0
  9 10  1  0
 10 11  1  0
 11 12  1  0
 12 13  1  0
 13 14  2  0
 14 15  1  0
 15 16  2  0
 16 17  1  0
 17 18  2  0
 18 19  1  0
 19 20  1  0
 20 21  1  0
 21 22  2  0
 22 23  1  0
 23 24  2  0
 24 25  1  0
 25 26  2  0
  9  4  1  0
 18 13  1  0
 26 21  1  0
  5 27  1  0
  6 28  1  0
  7 29  1  0
  8 30  1  0
 10 31  1  0
 10 32  1  0
 11 33  1  0
 11 34  1  0
 12 35  1  0
 12 36  1  0
 14 37  1  0
 15 38  1  0
 16 39  1  0
 17 40  1  0
 20 41  1  0
 20 42  1  0
 22 43  1  0
 23 44  1  0
 24 45  1  0
 25 46  1  0
 26 47  1  0
M  END
>  <UniqueID>  (29) 
25

>  <SMILES>  (29) 
S=C=Nc1ccccc1CCCc1ccccc1OCc1ccccc1

>  <Energy>  (29) 
47.35493857669772

>  <Genealogy>  (29) 
S=C=Nc1ccccc1CCCc1ccccc1OCc1ccccc1 (3D coordinates assigned)
S=C=Nc1ccccc1CCCc1ccccc1OCc1ccccc1 (optimized conformer: 47.35493857669772 kcal/mol)

>  <smiles>  (29) 
S=C=Nc1ccccc1CCCc1ccccc1OCc1ccccc1

>  <score_type>  (29) 
oracle

>  <origin>  (29) 
adg

>  <m_score__min__energy>  (29) 
-8.2100000000000009

>  <m_primary>  (29) 
energy

$$$$
29:0
     RDKit          3D

 56 57  0  0  0  0  0  0  0  0999 V2000
   63.7130   31.0250   50.5400 C   0  0  0  0  0  0  0  0  0  0  0  0
   64.4500   32.0690   49.7460 C   0  0  0  0  0  0  0  0  0  0  0  0
   66.0690   32.7180   50.5600 Br  0  0  0  0  0  0  0  0  0  0  0  0
   63.9300   32.4560   48.5510 C   0  0  0  0  0  0  0  0  0  0  0  0
   62.4470   32.5850   48.1110 C   0  0  2  0  0  0  0  0  0  0  0  0
   61.8560   31.1680   47.8360 C   0  0  0  0  0  0  0  0  0  0  0  0
   62.2910   33.3650   46.7380 C   0  0  2  0  0  0  0  0  0  0  0  0
   63.4630   34.2400   46.2470 C   0  0  0  0  0  0  0  0  0  0  0  0
   61.0770   34.2090   46.9260 C   0  0  0  0  0  0  0  0  0  0  0  0
   60.6370   34.9310   46.0420 O   0  0  0  0  0  0  0  0  0  0  0  0
   60.4740   34.1570   48.2870 C   0  0  1  0  0  0  0  0  0  0  0  0
   59.0820   33.4760   48.2670 C   0  0  0  0  0  0  0  0  0  0  0  0
   58.7180   33.0600   46.9480 O   0  0  0  0  0  0  0  0  0  0  0  0
   58.3580   31.7600   46.5500 C   0  0  0  0  0  0  0  0  0  0  0  0
   58.5650   30.6270   47.3610 C   0  0  0  0  0  0  0  0  0  0  0  0
   58.1860   29.3570   46.9180 C   0  0  0  0  0  0  0  0  0  0  0  0
   58.4520   28.2760   47.6950 F   0  0  0  0  0  0  0  0  0  0  0  0
   57.5780   29.1990   45.6650 C   0  0  0  0  0  0  0  0  0  0  0  0
   57.1660   27.8690   45.1880 C   0  0  0  0  0  0  0  0  0  0  0  0
   57.8970   27.2630   44.3620 O   0  0  0  0  0  0  0  0  0  0  0  0
   55.9510   27.2490   45.6220 N   0  0  0  0  0  0  0  0  0  0  0  0
   55.7260   25.5410   45.8360 S   0  0  0  0  0  0  0  0  0  0  0  0
   56.6450   24.6250   44.6160 C   0  0  0  0  0  0  0  0  0  0  0  0
   56.2370   25.1580   47.1960 O   0  0  0  0  0  0  0  0  0  0  0  0
   54.2670   25.1940   45.7490 O   0  0  0  0  0  0  0  0  0  0  0  0
   57.3960   30.3190   44.8420 C   0  0  0  0  0  0  0  0  0  0  0  0
   57.7750   31.5910   45.2830 C   0  0  0  0  0  0  0  0  0  0  0  0
   57.5120   32.9740   44.2330 Cl  0  0  0  0  0  0  0  0  0  0  0  0
   61.5770   33.4430   49.1450 C   0  0  0  0  0  0  0  0  0  0  0  0
   60.9790   32.6260   50.3230 C   0  0  0  0  0  0  0  0  0  0  0  0
   62.4370   34.5600   49.8090 C   0  0  0  0  0  0  0  0  0  0  0  0
   63.8490   31.2177   51.6144 H   0  0  0  0  0  0  0  0  0  0  0  0
   62.6418   31.0650   50.2931 H   0  0  0  0  0  0  0  0  0  0  0  0
   64.1093   30.0290   50.2931 H   0  0  0  0  0  0  0  0  0  0  0  0
   64.6709   32.7167   47.7808 H   0  0  0  0  0  0  0  0  0  0  0  0
   61.6467   30.6661   48.7922 H   0  0  0  0  0  0  0  0  0  0  0  0
   60.9233   31.2650   47.2609 H   0  0  0  0  0  0  0  0  0  0  0  0
   62.5812   30.5735   47.2609 H   0  0  0  0  0  0  0  0  0  0  0  0
   62.2397   32.6067   45.9428 H   0  0  0  0  0  0  0  0  0  0  0  0
   64.0060   34.6454   47.1135 H   0  0  0  0  0  0  0  0  0  0  0  0
   64.1466   33.6295   45.6387 H   0  0  0  0  0  0  0  0  0  0  0  0
   63.0720   35.0689   45.6387 H   0  0  0  0  0  0  0  0  0  0  0  0
   60.2346   35.1390   48.7210 H   0  0  0  0  0  0  0  0  0  0  0  0
   59.1062   32.5950   48.9252 H   0  0  0  0  0  0  0  0  0  0  0  0
   58.3368   34.2064   48.6152 H   0  0  0  0  0  0  0  0  0  0  0  0
   59.0290   30.7429   48.3516 H   0  0  0  0  0  0  0  0  0  0  0  0
   57.3374   23.9349   45.1204 H   0  0  0  0  0  0  0  0  0  0  0  0
   55.9486   24.0511   43.9871 H   0  0  0  0  0  0  0  0  0  0  0  0
   57.2167   25.3233   43.9871 H   0  0  0  0  0  0  0  0  0  0  0  0
   56.9523   30.1967   43.8429 H   0  0  0  0  0  0  0  0  0  0  0  0
   61.3024   33.0678   51.2771 H   0  0  0  0  0  0  0  0  0  0  0  0
   59.8808   32.6463   50.2631 H   0  0  0  0  0  0  0  0  0  0  0  0
   61.3303   31.5853   50.2631 H   0  0  0  0  0  0  0  0  0  0  0  0
   62.3698   34.4727   50.9035 H   0  0  0  0  0  0  0  0  0  0  0  0
   63.4858   34.4500   49.4961 H   0  0  0  0  0  0  0  0  0  0  0  0
   62.0625   35.5458   49.4961 H   0  0  0  0  0  0  0  0  0  0  0  0
  1  2  1  0
  2  3  1  0
  2  4  2  3
  4  5  1  0
  5  6  1  6
  5  7  1  0
  7  8  1  0
  7  9  1  0
  9 10  2  0
  9 11  1  0
 11 12  1  0
 12 13  1  0
 13 14  1  0
 14 15  2  0
 15 16  1  0
 16 17  1  0
 16 18  2  0
 18 19  1  0
 19 20  2  0
 19 21  1  0
 21 22  1  0
 22 23  1  0
 22 24  2  0
 22 25  2  0
 18 26  1  0
 26 27  2  0
 27 28  1  0
 11 29  1  0
 29 30  1  0
 29 31  1  0
 29  5  1  0
 27 14  1  0
  1 32  1  0
  1 33  1  0
  1 34  1  0
  4 35  1  0
  6 36  1  0
  6 37  1  0
  6 38  1  0
  7 39  1  6
  8 40  1  0
  8 41  1  0
  8 42  1  0
 11 43  1  1
 12 44  1  0
 12 45  1  0
 15 46  1  0
 23 47  1  0
 23 48  1  0
 23 49  1  0
 26 50  1  0
 30 51  1  0
 30 52  1  0
 30 53  1  0
 31 54  1  0
 31 55  1  0
 31 56  1  0
M  CHG  1  21  -1
M  END
>  <UniqueID>  (30) 
26

>  <SMILES>  (30) 
CC(Br)=C[C@]1(C)[C@H](C)C(=O)C(COc2cc(F)c(C(=O)[N-]S(C)(=O)=O)cc2Cl)C1(C)C

>  <Energy>  (30) 
86.15680508270901

>  <Genealogy>  (30) 
CC(Br)=CC1(C)C(C)C(=O)C(COc2cc(F)c(C(=O)[N-]S(C)(=O)=O)cc2Cl)C1(C)C (protonated)
CC(Br)=C[C@]1(C)[C@H](C)C(=O)C(COc2cc(F)c(C(=O)[N-]S(C)(=O)=O)cc2Cl)C1(C)C (chirality)
CC(Br)=C[C@]1(C)[C@H](C)C(=O)C(COc2cc(F)c(C(=O)[N-]S(C)(=O)=O)cc2Cl)C1(C)C (3D coordinates assigned)
CC(Br)=C[C@]1(C)[C@H](C)C(=O)C(COc2cc(F)c(C(=O)[N-]S(C)(=O)=O)cc2Cl)C1(C)C (nonaromatic ring conformer: 86.15680508270901 kcal/mol)

>  <smiles>  (30) 
CC(Br)=CC1(C)C(C)C(=O)C(COc2cc(F)c(C(=O)NS(C)(=O)=O)cc2Cl)C1(C)C

>  <score_type>  (30) 
oracle

>  <origin>  (30) 
adg

>  <m_score__min__energy>  (30) 
-11.15

>  <m_primary>  (30) 
energy

$$$$
30:0
     RDKit          3D

 63 67  0  0  0  0  0  0  0  0999 V2000
   57.5267   31.0985   47.2650 H   0  0  0  0  0  0  0  0  0  0  0  0
   57.8010   31.7090   46.3920 C   0  0  0  0  0  0  0  0  0  0  0  0
   58.5140   32.8990   46.5720 C   0  0  0  0  0  0  0  0  0  0  0  0
   58.7619   33.2395   47.5882 H   0  0  0  0  0  0  0  0  0  0  0  0
   58.9160   33.6630   45.4610 C   0  0  0  0  0  0  0  0  0  0  0  0
   59.7210   34.8890   45.6510 C   0  0  0  0  0  0  0  0  0  0  0  0
   59.5770   35.8570   44.8590 O   0  0  0  0  0  0  0  0  0  0  0  0
   60.6300   34.9850   46.7570 N   0  0  0  0  0  0  0  0  0  0  0  0
   61.6470   34.0380   47.1050 C   0  0  0  0  0  0  0  0  0  0  0  0
   61.6930   33.1820   48.1940 C   0  0  0  0  0  0  0  0  0  0  0  0
   60.9262   33.0802   48.9761 H   0  0  0  0  0  0  0  0  0  0  0  0
   62.8520   32.4970   48.1170 N   0  0  0  0  0  0  0  0  0  0  0  0
   63.3640   31.5780   49.1250 C   0  0  0  0  0  0  0  0  0  0  0  0
   63.1436   31.9735   50.1275 H   0  0  0  0  0  0  0  0  0  0  0  0
   62.8829   30.5962   49.0043 H   0  0  0  0  0  0  0  0  0  0  0  0
   64.4520   31.4704   49.0043 H   0  0  0  0  0  0  0  0  0  0  0  0
   63.5400   32.9020   47.0590 N   0  0  0  0  0  0  0  0  0  0  0  0
   64.4990   32.5710   46.8020 H   0  0  0  0  0  0  0  0  0  0  0  0
   62.8280   33.8470   46.4150 C   0  0  0  0  0  0  0  0  0  0  0  0
   63.1339   34.3744   45.4994 H   0  0  0  0  0  0  0  0  0  0  0  0
   58.5720   33.2210   44.1690 C   0  0  0  0  0  0  0  0  0  0  0  0
   58.8914   33.8007   43.2904 H   0  0  0  0  0  0  0  0  0  0  0  0
   57.8270   32.0500   43.9950 C   0  0  0  0  0  0  0  0  0  0  0  0
   57.5475   31.7230   42.9826 H   0  0  0  0  0  0  0  0  0  0  0  0
   57.4350   31.2910   45.1090 C   0  0  0  0  0  0  0  0  0  0  0  0
   56.7530   30.0390   44.9560 N   0  0  0  0  0  0  0  0  0  0  0  0
   56.9840   28.9570   45.6390 C   0  0  0  0  0  0  0  0  0  0  0  0
   57.8550   28.9590   46.6850 N   0  0  0  0  0  0  0  0  0  0  0  0
   58.1550   27.8210   47.3650 C   0  0  0  0  0  0  0  0  0  0  0  0
   59.1690   27.8900   48.4310 C   0  0  0  0  0  0  0  0  0  0  0  0
   59.1800   28.9690   49.3280 C   0  0  0  0  0  0  0  0  0  0  0  0
   58.4382   29.7749   49.2263 H   0  0  0  0  0  0  0  0  0  0  0  0
   60.1340   29.0220   50.3530 C   0  0  0  0  0  0  0  0  0  0  0  0
   60.1256   29.8587   51.0671 H   0  0  0  0  0  0  0  0  0  0  0  0
   61.1050   28.0060   50.4720 C   0  0  0  0  0  0  0  0  0  0  0  0
   62.0990   28.0160   51.4670 O   0  0  0  0  0  0  0  0  0  0  0  0
   62.5930   29.1770   52.1310 C   0  0  0  0  0  0  0  0  0  0  0  0
   61.9000   29.3400   53.3150 F   0  0  0  0  0  0  0  0  0  0  0  0
   62.3970   30.2950   51.3370 F   0  0  0  0  0  0  0  0  0  0  0  0
   63.9390   29.0340   52.4180 F   0  0  0  0  0  0  0  0  0  0  0  0
   61.0950   26.9420   49.5610 C   0  0  0  0  0  0  0  0  0  0  0  0
   61.8538   26.1497   49.6409 H   0  0  0  0  0  0  0  0  0  0  0  0
   60.1310   26.8770   48.5520 C   0  0  0  0  0  0  0  0  0  0  0  0
   60.1266   26.0294   47.8509 H   0  0  0  0  0  0  0  0  0  0  0  0
   57.5380   26.6060   46.9900 C   0  0  0  0  0  0  0  0  0  0  0  0
   57.7680   25.3910   47.6630 C   0  0  0  0  0  0  0  0  0  0  0  0
   58.4549   25.3647   48.5217 H   0  0  0  0  0  0  0  0  0  0  0  0
   57.1260   24.2090   47.2460 C   0  0  0  0  0  0  0  0  0  0  0  0
   57.3340   22.9790   47.8950 O   0  0  0  0  0  0  0  0  0  0  0  0
   56.3660   22.3160   48.7010 C   0  0  0  0  0  0  0  0  0  0  0  0
   56.6011   22.4771   49.7634 H   0  0  0  0  0  0  0  0  0  0  0  0
   55.3669   22.7203   48.4812 H   0  0  0  0  0  0  0  0  0  0  0  0
   56.3819   21.2383   48.4812 H   0  0  0  0  0  0  0  0  0  0  0  0
   56.2440   24.2410   46.1550 C   0  0  0  0  0  0  0  0  0  0  0  0
   55.6200   23.0450   45.7660 O   0  0  0  0  0  0  0  0  0  0  0  0
   56.2280   22.0390   44.9650 C   0  0  0  0  0  0  0  0  0  0  0  0
   56.6868   21.2799   45.6156 H   0  0  0  0  0  0  0  0  0  0  0  0
   55.4650   21.5650   44.3300 H   0  0  0  0  0  0  0  0  0  0  0  0
   57.0024   22.4941   44.3300 H   0  0  0  0  0  0  0  0  0  0  0  0
   56.0060   25.4570   45.4880 C   0  0  0  0  0  0  0  0  0  0  0  0
   55.3136   25.4847   44.6337 H   0  0  0  0  0  0  0  0  0  0  0  0
   56.6430   26.6300   45.9030 C   0  0  0  0  0  0  0  0  0  0  0  0
   56.3970   27.7970   45.2530 N   0  0  0  0  0  0  0  0  0  0  0  0
  1  2  1  0
  2  3  2  0
  3  4  1  0
  3  5  1  0
  5  6  1  0
  6  7  2  0
  6  8  1  0
  8  9  1  0
  9 10  2  0
 10 11  1  0
 10 12  1  0
 12 13  1  0
 13 14  1  0
 13 15  1  0
 13 16  1  0
 12 17  1  0
 17 18  1  0
 17 19  2  0
 19 20  1  0
  5 21  2  0
 21 22  1  0
 21 23  1  0
 23 24  1  0
 23 25  2  0
 25 26  1  0
 26 27  2  0
 27 28  1  0
 28 29  2  0
 29 30  1  0
 30 31  2  0
 31 32  1  0
 31 33  1  0
 33 34  1  0
 33 35  2  0
 35 36  1  0
 36 37  1  0
 37 38  1  0
 37 39  1  0
 37 40  1  0
 35 41  1  0
 41 42  1  0
 41 43  2  0
 43 44  1  0
 29 45  1  0
 45 46  2  0
 46 47  1  0
 46 48  1  0
 48 49  1  0
 49 50  1  0
 50 51  1  0
 50 52  1  0
 50 53  1  0
 48 54  2  0
 54 55  1  0
 55 56  1  0
 56 57  1  0
 56 58  1  0
 56 59  1  0
 54 60  1  0
 60 61  1  0
 60 62  2  0
 62 63  1  0
 25  2  1  0
 63 27  1  0
 19  9  1  0
 43 30  1  0
 62 45  1  0
M  CHG  3   8  -1  17   1  63  -1
M  END
>  <UniqueID>  (31) 
27

>  <SMILES>  (31) 
COc1cc2[n-]/c(=N/c3ccc(C(=O)[N-]c4c[nH+]n(C)c4)cc3)nc(-c3ccc(OC(F)(F)F)cc3)c2cc1OC

>  <Energy>  (31) 
120.63293643536116

>  <Genealogy>  (31) 
COc1cc2[n-]c(=Nc3ccc(C(=O)[N-]c4c[nH+]n(C)c4)cc3)nc(-c3ccc(OC(F)(F)F)cc3)c2cc1OC (protonated)
COc1cc2[n-]/c(=N/c3ccc(C(=O)[N-]c4c[nH+]n(C)c4)cc3)nc(-c3ccc(OC(F)(F)F)cc3)c2cc1OC (cis-trans isomerization)
COc1cc2[n-]/c(=N/c3ccc(C(=O)[N-]c4c[nH+]n(C)c4)cc3)nc(-c3ccc(OC(F)(F)F)cc3)c2cc1OC (3D coordinates assigned)
COc1cc2[n-]/c(=N/c3ccc(C(=O)[N-]c4c[nH+]n(C)c4)cc3)nc(-c3ccc(OC(F)(F)F)cc3)c2cc1OC (optimized conformer: 120.63293643536116 kcal/mol)

>  <smiles>  (31) 
COc1cc2[nH]c(=Nc3ccc(C(=O)Nc4cnn(C)c4)cc3)nc(-c3ccc(OC(F)(F)F)cc3)c2cc1OC

>  <score_type>  (31) 
oracle

>  <origin>  (31) 
adg

>  <m_score__min__energy>  (31) 
-9.5399999999999991

>  <m_primary>  (31) 
energy

$$$$
31:0
     RDKit          3D

 77 80  0  0  0  0  0  0  0  0999 V2000
   56.2620   29.7270   42.6380 C   0  0  0  0  0  0  0  0  0  0  0  0
   56.2920   29.7420   44.1630 C   0  0  0  0  0  0  0  0  0  0  0  0
   57.0160   30.9930   44.6850 C   0  0  0  0  0  0  0  0  0  0  0  0
   57.5240   31.9000   43.5540 C   0  0  0  0  0  0  0  0  0  0  0  0
   58.4890   32.9870   44.0550 C   0  0  0  0  0  0  0  0  0  0  0  0
   57.7960   33.9260   45.0470 C   0  0  0  0  0  0  0  0  0  0  0  0
   58.4210   33.8230   46.4120 C   0  0  0  0  0  0  0  0  0  0  0  0
   57.9380   32.8990   47.3540 C   0  0  0  0  0  0  0  0  0  0  0  0
   58.5530   32.7810   48.6050 C   0  0  0  0  0  0  0  0  0  0  0  0
   59.6450   33.5970   48.9330 C   0  0  0  0  0  0  0  0  0  0  0  0
   60.3570   33.4160   50.2110 C   0  0  0  0  0  0  0  0  0  0  0  0
   60.0150   34.1240   51.1950 O   0  0  0  0  0  0  0  0  0  0  0  0
   61.4730   32.5030   50.3290 N   0  0  0  0  0  0  0  0  0  0  0  0
   61.8280   31.9100   51.6290 C   0  0  0  0  0  0  0  0  0  0  0  0
   61.0090   30.6410   51.8790 C   0  0  0  0  0  0  0  0  0  0  0  0
   59.6150   30.9920   52.3250 C   0  0  0  0  0  0  0  0  0  0  0  0
   59.3890   32.1430   53.0950 C   0  0  0  0  0  0  0  0  0  0  0  0
   58.0900   32.4870   53.4850 C   0  0  0  0  0  0  0  0  0  0  0  0
   57.0090   31.6900   53.0990 C   0  0  0  0  0  0  0  0  0  0  0  0
   57.2220   30.5480   52.3130 C   0  0  0  0  0  0  0  0  0  0  0  0
   56.1540   29.7540   51.9080 O   0  0  0  0  0  0  0  0  0  0  0  0
   58.5230   30.2020   51.9280 C   0  0  0  0  0  0  0  0  0  0  0  0
   62.2220   32.1020   49.1320 C   0  0  0  0  0  0  0  0  0  0  0  0
   61.3960   31.1750   48.2830 C   0  0  0  0  0  0  0  0  0  0  0  0
   61.2580   31.4140   46.9070 C   0  0  0  0  0  0  0  0  0  0  0  0
   60.5110   30.5430   46.1100 C   0  0  0  0  0  0  0  0  0  0  0  0
   59.8930   29.4160   46.6750 C   0  0  0  0  0  0  0  0  0  0  0  0
   59.1610   28.4560   45.8130 C   0  0  0  0  0  0  0  0  0  0  0  0
   59.4700   28.3390   44.4490 C   0  0  0  0  0  0  0  0  0  0  0  0
   58.7910   27.4210   43.6470 C   0  0  0  0  0  0  0  0  0  0  0  0
   57.8070   26.5980   44.2000 C   0  0  0  0  0  0  0  0  0  0  0  0
   57.5040   26.6740   45.5700 C   0  0  0  0  0  0  0  0  0  0  0  0
   56.4310   25.8020   46.1670 C   0  0  0  0  0  0  0  0  0  0  0  0
   56.7430   25.4710   47.4730 F   0  0  0  0  0  0  0  0  0  0  0  0
   55.2290   26.4810   46.1520 F   0  0  0  0  0  0  0  0  0  0  0  0
   56.2960   24.6280   45.4470 F   0  0  0  0  0  0  0  0  0  0  0  0
   58.1660   27.6290   46.3640 C   0  0  0  0  0  0  0  0  0  0  0  0
   60.0030   29.1990   48.0600 C   0  0  0  0  0  0  0  0  0  0  0  0
   60.7410   30.0770   48.8590 C   0  0  0  0  0  0  0  0  0  0  0  0
   60.0930   34.5580   48.0150 C   0  0  0  0  0  0  0  0  0  0  0  0
   59.4920   34.6630   46.7590 C   0  0  0  0  0  0  0  0  0  0  0  0
   55.3274   29.2597   42.2942 H   0  0  0  0  0  0  0  0  0  0  0  0
   56.3168   30.7586   42.2600 H   0  0  0  0  0  0  0  0  0  0  0  0
   57.1202   29.1520   42.2600 H   0  0  0  0  0  0  0  0  0  0  0  0
   55.2599   29.7381   44.5436 H   0  0  0  0  0  0  0  0  0  0  0  0
   56.8338   28.8508   44.5126 H   0  0  0  0  0  0  0  0  0  0  0  0
   56.3176   31.5683   45.3105 H   0  0  0  0  0  0  0  0  0  0  0  0
   57.8919   30.6548   45.2581 H   0  0  0  0  0  0  0  0  0  0  0  0
   58.0477   31.2786   42.8126 H   0  0  0  0  0  0  0  0  0  0  0  0
   56.6512   32.4061   43.1158 H   0  0  0  0  0  0  0  0  0  0  0  0
   59.3441   32.5064   44.5528 H   0  0  0  0  0  0  0  0  0  0  0  0
   58.8266   33.5790   43.1915 H   0  0  0  0  0  0  0  0  0  0  0  0
   57.8872   34.9613   44.6865 H   0  0  0  0  0  0  0  0  0  0  0  0
   56.7374   33.6369   45.1230 H   0  0  0  0  0  0  0  0  0  0  0  0
   57.0730   32.2660   47.1068 H   0  0  0  0  0  0  0  0  0  0  0  0
   58.1789   32.0462   49.3331 H   0  0  0  0  0  0  0  0  0  0  0  0
   62.8984   31.6567   51.6315 H   0  0  0  0  0  0  0  0  0  0  0  0
   61.6096   32.6378   52.4244 H   0  0  0  0  0  0  0  0  0  0  0  0
   60.9549   30.0561   50.9490 H   0  0  0  0  0  0  0  0  0  0  0  0
   61.4976   30.0525   52.6695 H   0  0  0  0  0  0  0  0  0  0  0  0
   60.2366   32.7776   53.3933 H   0  0  0  0  0  0  0  0  0  0  0  0
   57.9196   33.3857   54.0960 H   0  0  0  0  0  0  0  0  0  0  0  0
   55.9893   31.9587   53.4121 H   0  0  0  0  0  0  0  0  0  0  0  0
   55.5400   29.3130   52.5810 H   0  0  0  0  0  0  0  0  0  0  0  0
   58.6911   29.3068   51.3113 H   0  0  0  0  0  0  0  0  0  0  0  0
   62.4776   32.9980   48.5473 H   0  0  0  0  0  0  0  0  0  0  0  0
   63.1387   31.5795   49.4430 H   0  0  0  0  0  0  0  0  0  0  0  0
   61.7408   32.2922   46.4534 H   0  0  0  0  0  0  0  0  0  0  0  0
   60.4064   30.7414   45.0331 H   0  0  0  0  0  0  0  0  0  0  0  0
   60.2524   28.9750   44.0094 H   0  0  0  0  0  0  0  0  0  0  0  0
   59.0312   27.3452   42.5762 H   0  0  0  0  0  0  0  0  0  0  0  0
   57.2661   25.8862   43.5591 H   0  0  0  0  0  0  0  0  0  0  0  0
   57.9022   27.7296   47.4272 H   0  0  0  0  0  0  0  0  0  0  0  0
   59.5046   28.3319   48.5180 H   0  0  0  0  0  0  0  0  0  0  0  0
   60.8082   29.9060   49.9435 H   0  0  0  0  0  0  0  0  0  0  0  0
   60.9202   35.2309   48.2852 H   0  0  0  0  0  0  0  0  0  0  0  0
   59.8593   35.4076   46.0374 H   0  0  0  0  0  0  0  0  0  0  0  0
  1  2  1  0
  2  3  1  0
  3  4  1  0
  4  5  1  0
  5  6  1  0
  6  7  1  0
  7  8  2  0
  8  9  1  0
  9 10  2  0
 10 11  1  0
 11 12  2  0
 11 13  1  0
 13 14  1  0
 14 15  1  0
 15 16  1  0
 16 17  2  0
 17 18  1  0
 18 19  2  0
 19 20  1  0
 20 21  1  0
 20 22  2  0
 13 23  1  0
 23 24  1  0
 24 25  2  0
 25 26  1  0
 26 27  2  0
 27 28  1  0
 28 29  2  0
 29 30  1  0
 30 31  2  0
 31 32  1  0
 32 33  1  0
 33 34  1  0
 33 35  1  0
 33 36  1  0
 32 37  2  0
 27 38  1  0
 38 39  2  0
 10 40  1  0
 40 41  2  0
 41  7  1  0
 22 16  1  0
 39 24  1  0
 37 28  1  0
  1 42  1  0
  1 43  1  0
  1 44  1  0
  2 45  1  0
  2 46  1  0
  3 47  1  0
  3 48  1  0
  4 49  1  0
  4 50  1  0
  5 51  1  0
  5 52  1  0
  6 53  1  0
  6 54  1  0
  8 55  1  0
  9 56  1  0
 14 57  1  0
 14 58  1  0
 15 59  1  0
 15 60  1  0
 17 61  1  0
 18 62  1  0
 19 63  1  0
 21 64  1  0
 22 65  1  0
 23 66  1  0
 23 67  1  0
 25 68  1  0
 26 69  1  0
 29 70  1  0
 30 71  1  0
 31 72  1  0
 37 73  1  0
 38 74  1  0
 39 75  1  0
 40 76  1  0
 41 77  1  0
M  END
>  <UniqueID>  (32) 
28

>  <SMILES>  (32) 
CCCCCCc1ccc(C(=O)N(CCc2cccc(O)c2)Cc2ccc(-c3cccc(C(F)(F)F)c3)cc2)cc1

>  <Energy>  (32) 
76.33557951453537

>  <Genealogy>  (32) 
CCCCCCc1ccc(C(=O)N(CCc2cccc(O)c2)Cc2ccc(-c3cccc(C(F)(F)F)c3)cc2)cc1 (3D coordinates assigned)
CCCCCCc1ccc(C(=O)N(CCc2cccc(O)c2)Cc2ccc(-c3cccc(C(F)(F)F)c3)cc2)cc1 (optimized conformer: 76.33557951453537 kcal/mol)

>  <smiles>  (32) 
CCCCCCc1ccc(C(=O)N(CCc2cccc(O)c2)Cc2ccc(-c3cccc(C(F)(F)F)c3)cc2)cc1

>  <score_type>  (32) 
oracle

>  <origin>  (32) 
adg

>  <m_score__min__energy>  (32) 
-10.24

>  <m_primary>  (32) 
energy

$$$$
32:0
     RDKit          3D

 36 38  0  0  0  0  0  0  0  0999 V2000
   57.7400   26.5480   45.8260 O   0  0  0  0  0  0  0  0  0  0  0  0
   56.8130   27.3740   45.6960 N   0  0  0  0  0  0  0  0  0  0  0  0
   55.5250   26.9730   45.9640 O   0  0  0  0  0  0  0  0  0  0  0  0
   57.0870   28.7240   45.2760 C   0  0  0  0  0  0  0  0  0  0  0  0
   56.2950   29.3450   44.2940 C   0  0  0  0  0  0  0  0  0  0  0  0
   56.5660   30.6550   43.8880 C   0  0  0  0  0  0  0  0  0  0  0  0
   57.6360   31.3660   44.4520 C   0  0  0  0  0  0  0  0  0  0  0  0
   57.9370   32.7710   43.9950 C   0  0  0  0  0  0  0  0  0  0  0  0
   57.2760   33.8400   44.8810 C   0  0  0  0  0  0  0  0  0  0  0  0
   58.2580   34.4830   45.7810 N   0  0  0  0  0  0  0  0  0  0  0  0
   58.2920   33.8790   47.1380 C   0  0  0  0  0  0  0  0  0  0  0  0
   59.7220   33.6830   47.4490 C   0  0  0  0  0  0  0  0  0  0  0  0
   60.2920   33.2360   48.6430 C   0  0  0  0  0  0  0  0  0  0  0  0
   61.6890   33.1090   48.7110 C   0  0  0  0  0  0  0  0  0  0  0  0
   62.4830   33.4260   47.5920 C   0  0  0  0  0  0  0  0  0  0  0  0
   61.8790   33.8690   46.4020 C   0  0  0  0  0  0  0  0  0  0  0  0
   60.4890   33.9910   46.3670 C   0  0  0  0  0  0  0  0  0  0  0  0
   59.6370   34.4070   45.2360 C   0  0  0  0  0  0  0  0  0  0  0  0
   58.4230   30.7530   45.4380 C   0  0  0  0  0  0  0  0  0  0  0  0
   58.1530   29.4430   45.8450 C   0  0  0  0  0  0  0  0  0  0  0  0
   55.4559   28.7959   43.8419 H   0  0  0  0  0  0  0  0  0  0  0  0
   55.9366   31.1312   43.1218 H   0  0  0  0  0  0  0  0  0  0  0  0
   59.0264   32.9216   44.0159 H   0  0  0  0  0  0  0  0  0  0  0  0
   57.5291   32.8837   42.9797 H   0  0  0  0  0  0  0  0  0  0  0  0
   56.8250   34.6090   44.2366 H   0  0  0  0  0  0  0  0  0  0  0  0
   56.5108   33.3491   45.5004 H   0  0  0  0  0  0  0  0  0  0  0  0
   57.8287   34.5555   47.8712 H   0  0  0  0  0  0  0  0  0  0  0  0
   57.7333   32.9322   47.1765 H   0  0  0  0  0  0  0  0  0  0  0  0
   59.6615   32.9892   49.5099 H   0  0  0  0  0  0  0  0  0  0  0  0
   62.1639   32.7612   49.6402 H   0  0  0  0  0  0  0  0  0  0  0  0
   63.5771   33.3269   47.6489 H   0  0  0  0  0  0  0  0  0  0  0  0
   62.4878   34.1137   45.5191 H   0  0  0  0  0  0  0  0  0  0  0  0
   59.9547   35.3896   44.8572 H   0  0  0  0  0  0  0  0  0  0  0  0
   59.7038   33.7009   44.3952 H   0  0  0  0  0  0  0  0  0  0  0  0
   59.2575   31.3062   45.8937 H   0  0  0  0  0  0  0  0  0  0  0  0
   58.7794   28.9711   46.6164 H   0  0  0  0  0  0  0  0  0  0  0  0
  1  2  2  0
  2  3  1  0
  2  4  1  0
  4  5  2  0
  5  6  1  0
  6  7  2  0
  7  8  1  0
  8  9  1  0
  9 10  1  0
 10 11  1  0
 11 12  1  0
 12 13  2  0
 13 14  1  0
 14 15  2  0
 15 16  1  0
 16 17  2  0
 17 18  1  0
  7 19  1  0
 19 20  2  0
 20  4  1  0
 18 10  1  0
 17 12  1  0
  5 21  1  0
  6 22  1  0
  8 23  1  0
  8 24  1  0
  9 25  1  0
  9 26  1  0
 11 27  1  0
 11 28  1  0
 13 29  1  0
 14 30  1  0
 15 31  1  0
 16 32  1  0
 18 33  1  0
 18 34  1  0
 19 35  1  0
 20 36  1  0
M  CHG  2   2   1   3  -1
M  END
>  <UniqueID>  (33) 
29

>  <SMILES>  (33) 
O=[N+]([O-])c1ccc(CCN2Cc3ccccc3C2)cc1

>  <Energy>  (33) 
50.401228614661186

>  <Genealogy>  (33) 
O=[N+]([O-])c1ccc(CCN2Cc3ccccc3C2)cc1 (3D coordinates assigned)
O=[N+]([O-])c1ccc(CCN2Cc3ccccc3C2)cc1 (nonaromatic ring conformer: 50.401228614661186 kcal/mol)

>  <smiles>  (33) 
O=[N+]([O-])c1ccc(CCN2Cc3ccccc3C2)cc1

>  <score_type>  (33) 
oracle

>  <origin>  (33) 
adg

>  <m_score__min__energy>  (33) 
-7.7400000000000002

>  <m_primary>  (33) 
energy

$$$$
33:0
     RDKit          3D

 55 57  0  0  0  0  0  0  0  0999 V2000
   57.1151   22.4178   44.0997 H   0  0  0  0  0  0  0  0  0  0  0  0
   56.3250   23.0500   44.5310 C   0  0  0  0  0  0  0  0  0  0  0  0
   55.0370   22.6140   44.5430 N   0  0  0  0  0  0  0  0  0  0  0  0
   54.0240   23.3530   45.0730 C   0  0  0  0  0  0  0  0  0  0  0  0
   52.7920   22.9290   45.0680 N   0  0  0  0  0  0  0  0  0  0  0  0
   52.1450   22.0180   45.9750 C   0  0  0  0  0  0  0  0  0  0  0  0
   51.5280   21.0320   45.4870 O   0  0  0  0  0  0  0  0  0  0  0  0
   52.1530   22.2090   47.4700 C   0  0  0  0  0  0  0  0  0  0  0  0
   51.2696   21.7178   47.9041 H   0  0  0  0  0  0  0  0  0  0  0  0
   52.1317   23.2855   47.6951 H   0  0  0  0  0  0  0  0  0  0  0  0
   53.3280   21.6410   48.0290 O   0  0  0  0  0  0  0  0  0  0  0  0
   54.1050   22.6040   48.7160 C   0  0  0  0  0  0  0  0  0  0  0  0
   54.1100   22.3626   49.7892 H   0  0  0  0  0  0  0  0  0  0  0  0
   53.6627   23.5966   48.5456 H   0  0  0  0  0  0  0  0  0  0  0  0
   55.5450   22.6180   48.2000 C   0  0  0  0  0  0  0  0  0  0  0  0
   56.2400   22.6248   49.0526 H   0  0  0  0  0  0  0  0  0  0  0  0
   55.7240   21.7216   47.5882 H   0  0  0  0  0  0  0  0  0  0  0  0
   55.7065   23.5178   47.5882 H   0  0  0  0  0  0  0  0  0  0  0  0
   54.3070   24.6110   45.6200 C   0  0  0  0  0  0  0  0  0  0  0  0
   53.4983   25.2244   46.0440 H   0  0  0  0  0  0  0  0  0  0  0  0
   55.6210   25.0820   45.6240 C   0  0  0  0  0  0  0  0  0  0  0  0
   55.8517   26.0636   46.0637 H   0  0  0  0  0  0  0  0  0  0  0  0
   56.6470   24.3050   45.0680 C   0  0  0  0  0  0  0  0  0  0  0  0
   58.0740   24.7780   45.1020 C   0  0  0  0  0  0  0  0  0  0  0  0
   58.5415   24.4552   46.0440 H   0  0  0  0  0  0  0  0  0  0  0  0
   58.6156   24.3469   44.2471 H   0  0  0  0  0  0  0  0  0  0  0  0
   58.1260   26.2790   45.0100 C   0  0  0  0  0  0  0  0  0  0  0  0
   57.9080   26.9210   43.7820 C   0  0  0  0  0  0  0  0  0  0  0  0
   57.6651   26.3265   42.8889 H   0  0  0  0  0  0  0  0  0  0  0  0
   57.9980   28.3130   43.6880 C   0  0  0  0  0  0  0  0  0  0  0  0
   57.8289   28.8065   42.7195 H   0  0  0  0  0  0  0  0  0  0  0  0
   58.3020   29.0850   44.8180 C   0  0  0  0  0  0  0  0  0  0  0  0
   58.4160   30.5130   44.6870 N   0  0  0  0  0  0  0  0  0  0  0  0
   59.3560   30.9130   44.4660 H   0  0  0  0  0  0  0  0  0  0  0  0
   57.3020   31.4180   44.7460 C   0  0  0  0  0  0  0  0  0  0  0  0
   56.1360   31.0040   44.5150 O   0  0  0  0  0  0  0  0  0  0  0  0
   57.5090   32.8180   44.9660 N   0  0  0  0  0  0  0  0  0  0  0  0
   58.3910   33.3900   45.9410 C   0  0  0  0  0  0  0  0  0  0  0  0
   58.9170   34.6680   45.7060 C   0  0  0  0  0  0  0  0  0  0  0  0
   58.6180   35.3280   44.5600 F   0  0  0  0  0  0  0  0  0  0  0  0
   59.7630   35.2650   46.6440 C   0  0  0  0  0  0  0  0  0  0  0  0
   60.1814   36.2632   46.4479 H   0  0  0  0  0  0  0  0  0  0  0  0
   60.0790   34.5990   47.8290 C   0  0  0  0  0  0  0  0  0  0  0  0
   60.7490   35.0731   48.5613 H   0  0  0  0  0  0  0  0  0  0  0  0
   59.5460   33.3270   48.0910 C   0  0  0  0  0  0  0  0  0  0  0  0
   59.8430   32.6340   49.3900 C   0  0  0  0  0  0  0  0  0  0  0  0
   59.5622   33.2893   50.2277 H   0  0  0  0  0  0  0  0  0  0  0  0
   59.2666   31.6988   49.4468 H   0  0  0  0  0  0  0  0  0  0  0  0
   60.9177   32.4064   49.4468 H   0  0  0  0  0  0  0  0  0  0  0  0
   58.6830   32.7330   47.1530 C   0  0  0  0  0  0  0  0  0  0  0  0
   58.0920   31.5450   47.4490 F   0  0  0  0  0  0  0  0  0  0  0  0
   58.5520   28.4380   46.0410 C   0  0  0  0  0  0  0  0  0  0  0  0
   58.8200   29.0304   46.9283 H   0  0  0  0  0  0  0  0  0  0  0  0
   58.4620   27.0460   46.1360 C   0  0  0  0  0  0  0  0  0  0  0  0
   58.6556   26.5496   47.0983 H   0  0  0  0  0  0  0  0  0  0  0  0
  1  2  1  0
  2  3  1  0
  3  4  1  0
  4  5  2  0
  5  6  1  0
  6  7  2  0
  6  8  1  0
  8  9  1  0
  8 10  1  0
  8 11  1  0
 11 12  1  0
 12 13  1  0
 12 14  1  0
 12 15  1  0
 15 16  1  0
 15 17  1  0
 15 18  1  0
  4 19  1  0
 19 20  1  0
 19 21  2  0
 21 22  1  0
 21 23  1  0
 23 24  1  0
 24 25  1  0
 24 26  1  0
 24 27  1  0
 27 28  2  0
 28 29  1  0
 28 30  1  0
 30 31  1  0
 30 32  2  0
 32 33  1  0
 33 34  1  0
 33 35  1  0
 35 36  2  0
 35 37  1  0
 37 38  1  0
 38 39  2  0
 39 40  1  0
 39 41  1  0
 41 42  1  0
 41 43  2  0
 43 44  1  0
 43 45  1  0
 45 46  1  0
 46 47  1  0
 46 48  1  0
 46 49  1  0
 45 50  2  0
 50 51  1  0
 32 52  1  0
 52 53  1  0
 52 54  2  0
 54 55  1  0
 23  2  2  0
 54 27  1  0
 50 38  1  0
M  CHG  2   3  -1  37  -1
M  END
>  <UniqueID>  (34) 
30

>  <SMILES>  (34) 
CCOCC(=O)/N=c1/ccc(Cc2ccc(NC(=O)[N-]c3c(F)ccc(C)c3F)cc2)c[n-]1

>  <Energy>  (34) 
69.87270504842097

>  <Genealogy>  (34) 
CCOCC(=O)N=c1ccc(Cc2ccc(NC(=O)[N-]c3c(F)ccc(C)c3F)cc2)c[n-]1 (protonated)
CCOCC(=O)/N=c1/ccc(Cc2ccc(NC(=O)[N-]c3c(F)ccc(C)c3F)cc2)c[n-]1 (cis-trans isomerization)
CCOCC(=O)/N=c1/ccc(Cc2ccc(NC(=O)[N-]c3c(F)ccc(C)c3F)cc2)c[n-]1 (3D coordinates assigned)
CCOCC(=O)/N=c1/ccc(Cc2ccc(NC(=O)[N-]c3c(F)ccc(C)c3F)cc2)c[n-]1 (optimized conformer: 69.87270504842097 kcal/mol)

>  <smiles>  (34) 
CCOCC(=O)N=c1ccc(Cc2ccc(NC(=O)Nc3c(F)ccc(C)c3F)cc2)c[nH]1

>  <score_type>  (34) 
oracle

>  <origin>  (34) 
adg

>  <m_score__min__energy>  (34) 
-11.25

>  <m_primary>  (34) 
energy

$$$$
34:0
     RDKit          3D

 45 48  0  0  0  0  0  0  0  0999 V2000
   59.6610   34.5790   48.9620 C   0  0  0  0  0  0  0  0  0  0  0  0
   59.4130   33.6500   47.8170 C   0  0  0  0  0  0  0  0  0  0  0  0
   58.5590   34.0210   46.7780 C   0  0  0  0  0  0  0  0  0  0  0  0
   58.3380   33.1450   45.7040 C   0  0  0  0  0  0  0  0  0  0  0  0
   57.4240   33.5880   44.5910 C   0  0  0  0  0  0  0  0  0  0  0  0
   59.0020   31.8910   45.6790 C   0  0  0  0  0  0  0  0  0  0  0  0
   58.8120   30.9310   44.5160 C   0  0  0  0  0  0  0  0  0  0  0  0
   57.7900   29.9230   44.8270 N   0  0  0  0  0  0  0  0  0  0  0  0
   56.4410   30.0730   44.7860 C   0  0  0  0  0  0  0  0  0  0  0  0
   55.8730   31.1600   44.5030 O   0  0  0  0  0  0  0  0  0  0  0  0
   55.7470   28.9430   45.0710 N   0  0  0  0  0  0  0  0  0  0  0  0
   56.7270   28.0460   45.2880 C   0  0  0  0  0  0  0  0  0  0  0  0
   56.5790   26.7010   45.6160 C   0  0  0  0  0  0  0  0  0  0  0  0
   57.7460   25.9260   45.8020 C   0  0  0  0  0  0  0  0  0  0  0  0
   57.6280   24.4870   46.1380 C   0  0  0  0  0  0  0  0  0  0  0  0
   57.7390   24.1340   47.3440 O   0  0  0  0  0  0  0  0  0  0  0  0
   57.3860   23.4480   45.1080 C   0  0  0  0  0  0  0  0  0  0  0  0
   56.6040   23.7240   43.9710 C   0  0  0  0  0  0  0  0  0  0  0  0
   56.4000   22.7400   42.9980 C   0  0  0  0  0  0  0  0  0  0  0  0
   56.9790   21.4780   43.1450 C   0  0  0  0  0  0  0  0  0  0  0  0
   57.7700   21.1980   44.2610 C   0  0  0  0  0  0  0  0  0  0  0  0
   57.9780   22.1790   45.2370 C   0  0  0  0  0  0  0  0  0  0  0  0
   59.0200   26.5280   45.6190 C   0  0  0  0  0  0  0  0  0  0  0  0
   59.1340   27.8900   45.2860 C   0  0  0  0  0  0  0  0  0  0  0  0
   57.9550   28.6230   45.1330 C   0  0  0  0  0  0  0  0  0  0  0  0
   59.8640   31.5680   46.7550 C   0  0  0  0  0  0  0  0  0  0  0  0
   60.7500   30.0490   46.8400 Cl  0  0  0  0  0  0  0  0  0  0  0  0
   60.0390   32.4460   47.7760 N   0  0  0  0  0  0  0  0  0  0  0  0
   59.5170   34.0395   49.9097 H   0  0  0  0  0  0  0  0  0  0  0  0
   60.6920   34.9588   48.9093 H   0  0  0  0  0  0  0  0  0  0  0  0
   58.9565   35.4221   48.9093 H   0  0  0  0  0  0  0  0  0  0  0  0
   58.0587   35.0004   46.8006 H   0  0  0  0  0  0  0  0  0  0  0  0
   56.5122   34.0299   45.0192 H   0  0  0  0  0  0  0  0  0  0  0  0
   57.9380   34.3370   43.9706 H   0  0  0  0  0  0  0  0  0  0  0  0
   57.1545   32.7205   43.9706 H   0  0  0  0  0  0  0  0  0  0  0  0
   58.4982   31.4993   43.6280 H   0  0  0  0  0  0  0  0  0  0  0  0
   59.7657   30.4164   44.3270 H   0  0  0  0  0  0  0  0  0  0  0  0
   55.5803   26.2535   45.7274 H   0  0  0  0  0  0  0  0  0  0  0  0
   56.1509   24.7186   43.8468 H   0  0  0  0  0  0  0  0  0  0  0  0
   55.7821   22.9609   42.1152 H   0  0  0  0  0  0  0  0  0  0  0  0
   56.8119   20.7041   42.3814 H   0  0  0  0  0  0  0  0  0  0  0  0
   58.2302   20.2052   44.3731 H   0  0  0  0  0  0  0  0  0  0  0  0
   58.6084   21.9561   46.1104 H   0  0  0  0  0  0  0  0  0  0  0  0
   59.9293   25.9209   45.7393 H   0  0  0  0  0  0  0  0  0  0  0  0
   60.1184   28.3618   45.1507 H   0  0  0  0  0  0  0  0  0  0  0  0
  1  2  1  0
  2  3  2  0
  3  4  1  0
  4  5  1  0
  4  6  2  0
  6  7  1  0
  7  8  1  0
  8  9  1  0
  9 10  2  0
  9 11  1  0
 11 12  1  0
 12 13  2  0
 13 14  1  0
 14 15  1  0
 15 16  2  0
 15 17  1  0
 17 18  2  0
 18 19  1  0
 19 20  2  0
 20 21  1  0
 21 22  2  0
 14 23  2  0
 23 24  1  0
 24 25  2  0
  6 26  1  0
 26 27  1  0
 26 28  2  0
 28  2  1  0
 25  8  1  0
 25 12  1  0
 22 17  1  0
  1 29  1  0
  1 30  1  0
  1 31  1  0
  3 32  1  0
  5 33  1  0
  5 34  1  0
  5 35  1  0
  7 36  1  0
  7 37  1  0
 13 38  1  0
 18 39  1  0
 19 40  1  0
 20 41  1  0
 21 42  1  0
 22 43  1  0
 23 44  1  0
 24 45  1  0
M  CHG  1  11  -1
M  END
>  <UniqueID>  (35) 
31

>  <SMILES>  (35) 
Cc1cc(C)c(Cn2c(=O)[n-]c3cc(C(=O)c4ccccc4)ccc32)c(Cl)n1

>  <Energy>  (35) 
96.1740181918268

>  <Genealogy>  (35) 
Cc1cc(C)c(Cn2c(=O)[n-]c3cc(C(=O)c4ccccc4)ccc32)c(Cl)n1 (protonated)
Cc1cc(C)c(Cn2c(=O)[n-]c3cc(C(=O)c4ccccc4)ccc32)c(Cl)n1 (3D coordinates assigned)
Cc1cc(C)c(Cn2c(=O)[n-]c3cc(C(=O)c4ccccc4)ccc32)c(Cl)n1 (optimized conformer: 96.1740181918268 kcal/mol)

>  <smiles>  (35) 
Cc1cc(C)c(Cn2c(=O)[nH]c3cc(C(=O)c4ccccc4)ccc32)c(Cl)n1

>  <score_type>  (35) 
oracle

>  <origin>  (35) 
adg

>  <m_score__min__energy>  (35) 
-10.67

>  <m_primary>  (35) 
energy

$$$$
35:0
     RDKit          3D

 40 42  0  0  0  0  0  0  0  0999 V2000
   59.1600   22.5390   44.9950 C   0  0  0  0  0  0  0  0  0  0  0  0
   59.0620   23.5420   46.0000 O   0  0  0  0  0  0  0  0  0  0  0  0
   58.3400   24.7370   45.8600 C   0  0  0  0  0  0  0  0  0  0  0  0
   58.9670   25.9720   45.6190 C   0  0  0  0  0  0  0  0  0  0  0  0
   58.2040   27.1340   45.4910 C   0  0  0  0  0  0  0  0  0  0  0  0
   56.8120   27.0810   45.6040 C   0  0  0  0  0  0  0  0  0  0  0  0
   56.0530   28.2860   45.5040 N   0  0  0  0  0  0  0  0  0  0  0  0
   56.4130   29.4580   44.2830 S   0  0  0  0  0  0  0  0  0  0  0  0
   55.1340   30.1030   43.8270 O   0  0  0  0  0  0  0  0  0  0  0  0
   57.0560   28.7800   43.1060 O   0  0  0  0  0  0  0  0  0  0  0  0
   57.4920   30.6860   44.9350 C   0  0  0  0  0  0  0  0  0  0  0  0
   58.3640   30.3590   46.0050 C   0  0  0  0  0  0  0  0  0  0  0  0
   59.1790   31.3440   46.5920 C   0  0  0  0  0  0  0  0  0  0  0  0
   59.0890   32.6410   46.0860 C   0  0  0  0  0  0  0  0  0  0  0  0
   58.2550   32.9560   45.0510 C   0  0  0  0  0  0  0  0  0  0  0  0
   57.4370   32.0080   44.4450 C   0  0  0  0  0  0  0  0  0  0  0  0
   58.3730   34.2340   44.7740 O   0  0  0  0  0  0  0  0  0  0  0  0
   59.2690   34.7000   45.6260 C   0  0  0  0  0  0  0  0  0  0  0  0
   59.6470   35.9020   45.6420 O   0  0  0  0  0  0  0  0  0  0  0  0
   59.7390   33.7520   46.4740 N   0  0  0  0  0  0  0  0  0  0  0  0
   60.7700   33.8840   47.4990 C   0  0  0  0  0  0  0  0  0  0  0  0
   56.1690   25.8540   45.8340 C   0  0  0  0  0  0  0  0  0  0  0  0
   54.7680   25.8340   45.9290 O   0  0  0  0  0  0  0  0  0  0  0  0
   53.9530   24.7130   45.6040 C   0  0  0  0  0  0  0  0  0  0  0  0
   56.9450   24.6850   45.9650 C   0  0  0  0  0  0  0  0  0  0  0  0
   59.2565   21.5518   45.4704 H   0  0  0  0  0  0  0  0  0  0  0  0
   58.2558   22.5577   44.3689 H   0  0  0  0  0  0  0  0  0  0  0  0
   60.0435   22.7324   44.3689 H   0  0  0  0  0  0  0  0  0  0  0  0
   60.0623   26.0229   45.5310 H   0  0  0  0  0  0  0  0  0  0  0  0
   58.7011   28.0965   45.3002 H   0  0  0  0  0  0  0  0  0  0  0  0
   58.4033   29.3254   46.3793 H   0  0  0  0  0  0  0  0  0  0  0  0
   59.8619   31.1006   47.4193 H   0  0  0  0  0  0  0  0  0  0  0  0
   56.7706   32.2795   43.6130 H   0  0  0  0  0  0  0  0  0  0  0  0
   60.3067   33.8247   48.4949 H   0  0  0  0  0  0  0  0  0  0  0  0
   61.5042   33.0725   47.3872 H   0  0  0  0  0  0  0  0  0  0  0  0
   61.2761   34.8543   47.3872 H   0  0  0  0  0  0  0  0  0  0  0  0
   53.6038   24.2328   46.5300 H   0  0  0  0  0  0  0  0  0  0  0  0
   53.0862   25.0482   45.0154 H   0  0  0  0  0  0  0  0  0  0  0  0
   54.5391   23.9919   45.0154 H   0  0  0  0  0  0  0  0  0  0  0  0
   56.4491   23.7210   46.1518 H   0  0  0  0  0  0  0  0  0  0  0  0
  1  2  1  0
  2  3  1  0
  3  4  2  0
  4  5  1  0
  5  6  2  0
  6  7  1  0
  7  8  1  0
  8  9  2  0
  8 10  2  0
  8 11  1  0
 11 12  2  0
 12 13  1  0
 13 14  2  0
 14 15  1  0
 15 16  2  0
 15 17  1  0
 17 18  1  0
 18 19  2  0
 18 20  1  0
 20 21  1  0
  6 22  1  0
 22 23  1  0
 23 24  1  0
 22 25  2  0
 25  3  1  0
 16 11  1  0
 20 14  1  0
  1 26  1  0
  1 27  1  0
  1 28  1  0
  4 29  1  0
  5 30  1  0
 12 31  1  0
 13 32  1  0
 16 33  1  0
 21 34  1  0
 21 35  1  0
 21 36  1  0
 24 37  1  0
 24 38  1  0
 24 39  1  0
 25 40  1  0
M  CHG  1   7  -1
M  END
>  <UniqueID>  (36) 
32

>  <SMILES>  (36) 
COc1ccc([N-]S(=O)(=O)c2ccc3c(c2)oc(=O)n3C)c(OC)c1

>  <Energy>  (36) 
89.63764117048922

>  <Genealogy>  (36) 
COc1ccc([N-]S(=O)(=O)c2ccc3c(c2)oc(=O)n3C)c(OC)c1 (protonated)
COc1ccc([N-]S(=O)(=O)c2ccc3c(c2)oc(=O)n3C)c(OC)c1 (3D coordinates assigned)
COc1ccc([N-]S(=O)(=O)c2ccc3c(c2)oc(=O)n3C)c(OC)c1 (optimized conformer: 89.63764117048922 kcal/mol)

>  <smiles>  (36) 
COc1ccc(NS(=O)(=O)c2ccc3c(c2)oc(=O)n3C)c(OC)c1

>  <score_type>  (36) 
oracle

>  <origin>  (36) 
adg

>  <m_score__min__energy>  (36) 
-9.9499999999999993

>  <m_primary>  (36) 
energy

$$$$
36:0
     RDKit          3D

 33 34  0  0  0  0  0  0  0  0999 V2000
   55.0660   26.1700   46.0050 N   0  0  0  0  0  0  0  0  0  0  0  0
   56.7940   26.1550   45.9840 S   0  0  0  0  0  0  0  0  0  0  0  0
   57.2560   25.3330   44.8140 O   0  0  0  0  0  0  0  0  0  0  0  0
   57.3050   25.5420   47.2570 O   0  0  0  0  0  0  0  0  0  0  0  0
   57.4060   27.8000   45.8400 C   0  0  0  0  0  0  0  0  0  0  0  0
   58.4430   28.2380   46.6730 C   0  0  0  0  0  0  0  0  0  0  0  0
   58.9350   29.5410   46.5580 C   0  0  0  0  0  0  0  0  0  0  0  0
   58.4120   30.4170   45.5940 C   0  0  0  0  0  0  0  0  0  0  0  0
   58.9190   31.7600   45.5140 N   0  0  0  0  0  0  0  0  0  0  0  0
   58.0900   32.9320   45.4870 C   0  0  0  0  0  0  0  0  0  0  0  0
   56.8510   32.8390   45.2740 O   0  0  0  0  0  0  0  0  0  0  0  0
   58.6970   34.2830   45.7150 C   0  0  0  0  0  0  0  0  0  0  0  0
   59.8020   34.1820   46.7310 C   0  0  0  0  0  0  0  0  0  0  0  0
   59.5170   34.3160   48.1000 C   0  0  0  0  0  0  0  0  0  0  0  0
   60.5380   34.1860   49.0470 C   0  0  0  0  0  0  0  0  0  0  0  0
   61.8450   33.9140   48.6350 C   0  0  0  0  0  0  0  0  0  0  0  0
   62.1340   33.7670   47.2760 C   0  0  0  0  0  0  0  0  0  0  0  0
   61.1150   33.8960   46.3250 C   0  0  0  0  0  0  0  0  0  0  0  0
   57.3600   29.9780   44.7710 C   0  0  0  0  0  0  0  0  0  0  0  0
   56.8680   28.6750   44.8880 C   0  0  0  0  0  0  0  0  0  0  0  0
   54.7740   27.0970   46.3850 H   0  0  0  0  0  0  0  0  0  0  0  0
   58.8717   27.5542   47.4203 H   0  0  0  0  0  0  0  0  0  0  0  0
   59.7379   29.8826   47.2278 H   0  0  0  0  0  0  0  0  0  0  0  0
   59.9500   31.8900   45.4030 H   0  0  0  0  0  0  0  0  0  0  0  0
   59.1061   34.6638   44.7676 H   0  0  0  0  0  0  0  0  0  0  0  0
   57.9231   34.9699   46.0881 H   0  0  0  0  0  0  0  0  0  0  0  0
   58.4878   34.5238   48.4281 H   0  0  0  0  0  0  0  0  0  0  0  0
   60.3117   34.2981   50.1176 H   0  0  0  0  0  0  0  0  0  0  0  0
   62.6472   33.8155   49.3812 H   0  0  0  0  0  0  0  0  0  0  0  0
   63.1629   33.5498   46.9532 H   0  0  0  0  0  0  0  0  0  0  0  0
   61.3438   33.7729   45.2561 H   0  0  0  0  0  0  0  0  0  0  0  0
   56.9217   30.6638   44.0310 H   0  0  0  0  0  0  0  0  0  0  0  0
   56.0549   28.3354   44.2296 H   0  0  0  0  0  0  0  0  0  0  0  0
  1  2  1  0
  2  3  2  0
  2  4  2  0
  2  5  1  0
  5  6  2  0
  6  7  1  0
  7  8  2  0
  8  9  1  0
  9 10  1  0
 10 11  2  0
 10 12  1  0
 12 13  1  0
 13 14  2  0
 14 15  1  0
 15 16  2  0
 16 17  1  0
 17 18  2  0
  8 19  1  0
 19 20  2  0
 20  5  1  0
 18 13  1  0
  1 21  1  0
  6 22  1  0
  7 23  1  0
  9 24  1  0
 12 25  1  0
 12 26  1  0
 14 27  1  0
 15 28  1  0
 16 29  1  0
 17 30  1  0
 18 31  1  0
 19 32  1  0
 20 33  1  0
M  CHG  1   1  -1
M  END
>  <UniqueID>  (37) 
33

>  <SMILES>  (37) 
[NH-]S(=O)(=O)c1ccc(NC(=O)Cc2ccccc2)cc1

>  <Energy>  (37) 
34.371363309469395

>  <Genealogy>  (37) 
[NH-]S(=O)(=O)c1ccc(NC(=O)Cc2ccccc2)cc1 (protonated)
[NH-]S(=O)(=O)c1ccc(NC(=O)Cc2ccccc2)cc1 (3D coordinates assigned)
[NH-]S(=O)(=O)c1ccc(NC(=O)Cc2ccccc2)cc1 (optimized conformer: 34.371363309469395 kcal/mol)

>  <smiles>  (37) 
NS(=O)(=O)c1ccc(NC(=O)Cc2ccccc2)cc1

>  <score_type>  (37) 
oracle

>  <origin>  (37) 
adg

>  <m_score__min__energy>  (37) 
-10.470000000000001

>  <m_primary>  (37) 
energy

$$$$
37:0
     RDKit          3D

 45 47  0  0  0  0  0  0  0  0999 V2000
   56.9180   30.7800   43.9100 C   0  0  0  0  0  0  0  0  0  0  0  0
   56.7700   31.5520   45.0960 O   0  0  0  0  0  0  0  0  0  0  0  0
   57.3080   32.8370   45.2370 C   0  0  0  0  0  0  0  0  0  0  0  0
   56.6270   33.8440   44.8970 O   0  0  0  0  0  0  0  0  0  0  0  0
   58.6610   33.0210   45.8190 C   0  0  0  0  0  0  0  0  0  0  0  0
   59.2510   34.2990   45.7870 C   0  0  0  0  0  0  0  0  0  0  0  0
   60.5000   34.5220   46.3680 C   0  0  0  0  0  0  0  0  0  0  0  0
   61.1830   33.4740   46.9840 C   0  0  0  0  0  0  0  0  0  0  0  0
   60.6210   32.1980   47.0130 C   0  0  0  0  0  0  0  0  0  0  0  0
   59.3610   31.9560   46.4390 C   0  0  0  0  0  0  0  0  0  0  0  0
   58.8480   30.6160   46.4010 N   0  0  0  0  0  0  0  0  0  0  0  0
   59.6540   29.4830   46.0340 C   0  0  0  0  0  0  0  0  0  0  0  0
   60.8380   29.6600   45.6320 O   0  0  0  0  0  0  0  0  0  0  0  0
   59.1240   28.1000   46.1280 C   0  0  0  0  0  0  0  0  0  0  0  0
   60.0130   27.0130   46.1890 C   0  0  0  0  0  0  0  0  0  0  0  0
   59.5280   25.7050   46.2810 C   0  0  0  0  0  0  0  0  0  0  0  0
   58.1540   25.4680   46.3320 C   0  0  0  0  0  0  0  0  0  0  0  0
   57.2510   26.5450   46.3090 C   0  0  0  0  0  0  0  0  0  0  0  0
   55.8320   26.3370   46.3600 N   0  0  0  0  0  0  0  0  0  0  0  0
   55.1010   25.3190   45.6640 C   0  0  0  0  0  0  0  0  0  0  0  0
   53.8460   25.4090   45.6110 O   0  0  0  0  0  0  0  0  0  0  0  0
   55.7730   24.1390   45.0690 C   0  0  0  0  0  0  0  0  0  0  0  0
   56.0080   24.0790   43.6830 C   0  0  0  0  0  0  0  0  0  0  0  0
   56.6450   22.9710   43.1190 C   0  0  0  0  0  0  0  0  0  0  0  0
   57.0630   21.9150   43.9310 C   0  0  0  0  0  0  0  0  0  0  0  0
   56.8470   21.9670   45.3100 C   0  0  0  0  0  0  0  0  0  0  0  0
   56.2090   23.0740   45.8830 C   0  0  0  0  0  0  0  0  0  0  0  0
   55.9970   23.0890   47.2230 F   0  0  0  0  0  0  0  0  0  0  0  0
   57.7400   27.8520   46.1900 C   0  0  0  0  0  0  0  0  0  0  0  0
   57.1189   29.7321   44.1773 H   0  0  0  0  0  0  0  0  0  0  0  0
   55.9927   30.8365   43.3179 H   0  0  0  0  0  0  0  0  0  0  0  0
   57.7568   31.1747   43.3179 H   0  0  0  0  0  0  0  0  0  0  0  0
   58.7217   35.1306   45.2988 H   0  0  0  0  0  0  0  0  0  0  0  0
   60.9467   35.5268   46.3400 H   0  0  0  0  0  0  0  0  0  0  0  0
   62.1646   33.6536   47.4468 H   0  0  0  0  0  0  0  0  0  0  0  0
   61.1695   31.3724   47.4900 H   0  0  0  0  0  0  0  0  0  0  0  0
   57.8490   30.4770   46.6690 H   0  0  0  0  0  0  0  0  0  0  0  0
   61.0979   27.1927   46.1642 H   0  0  0  0  0  0  0  0  0  0  0  0
   60.2318   24.8602   46.3133 H   0  0  0  0  0  0  0  0  0  0  0  0
   57.7767   24.4364   46.3903 H   0  0  0  0  0  0  0  0  0  0  0  0
   55.6877   24.9110   43.0386 H   0  0  0  0  0  0  0  0  0  0  0  0
   56.8175   22.9305   42.0334 H   0  0  0  0  0  0  0  0  0  0  0  0
   57.5623   21.0423   43.4849 H   0  0  0  0  0  0  0  0  0  0  0  0
   57.1794   21.1351   45.9484 H   0  0  0  0  0  0  0  0  0  0  0  0
   57.0342   28.6945   46.1445 H   0  0  0  0  0  0  0  0  0  0  0  0
  1  2  1  0
  2  3  1  0
  3  4  2  0
  3  5  1  0
  5  6  2  0
  6  7  1  0
  7  8  2  0
  8  9  1  0
  9 10  2  0
 10 11  1  0
 11 12  1  0
 12 13  2  0
 12 14  1  0
 14 15  2  0
 15 16  1  0
 16 17  2  0
 17 18  1  0
 18 19  1  0
 19 20  1  0
 20 21  2  0
 20 22  1  0
 22 23  2  0
 23 24  1  0
 24 25  2  0
 25 26  1  0
 26 27  2  0
 27 28  1  0
 18 29  2  0
 10  5  1  0
 29 14  1  0
 27 22  1  0
  1 30  1  0
  1 31  1  0
  1 32  1  0
  6 33  1  0
  7 34  1  0
  8 35  1  0
  9 36  1  0
 11 37  1  0
 15 38  1  0
 16 39  1  0
 17 40  1  0
 23 41  1  0
 24 42  1  0
 25 43  1  0
 26 44  1  0
 29 45  1  0
M  CHG  1  19  -1
M  END
>  <UniqueID>  (38) 
34

>  <SMILES>  (38) 
COC(=O)c1ccccc1NC(=O)c1cccc([N-]C(=O)c2ccccc2F)c1

>  <Energy>  (38) 
63.20713853724477

>  <Genealogy>  (38) 
COC(=O)c1ccccc1NC(=O)c1cccc([N-]C(=O)c2ccccc2F)c1 (protonated)
COC(=O)c1ccccc1NC(=O)c1cccc([N-]C(=O)c2ccccc2F)c1 (3D coordinates assigned)
COC(=O)c1ccccc1NC(=O)c1cccc([N-]C(=O)c2ccccc2F)c1 (optimized conformer: 63.20713853724477 kcal/mol)

>  <smiles>  (38) 
COC(=O)c1ccccc1NC(=O)c1cccc(NC(=O)c2ccccc2F)c1

>  <score_type>  (38) 
oracle

>  <origin>  (38) 
adg

>  <m_score__min__energy>  (38) 
-10.640000000000001

>  <m_primary>  (38) 
energy

$$$$
38:0
     RDKit          3D

 45 48  0  0  0  0  0  0  0  0999 V2000
   57.5404   34.4509   45.8997 H   0  0  0  0  0  0  0  0  0  0  0  0
   58.3920   33.7740   45.7370 C   0  0  0  0  0  0  0  0  0  0  0  0
   59.5760   33.9040   46.6080 C   0  0  0  0  0  0  0  0  0  0  0  0
   59.4810   34.6080   47.6490 O   0  0  0  0  0  0  0  0  0  0  0  0
   60.8350   33.3010   46.2620 N   0  0  0  0  0  0  0  0  0  0  0  0
   61.0470   33.1510   45.2500 H   0  0  0  0  0  0  0  0  0  0  0  0
   61.8810   33.0360   47.2130 C   0  0  0  0  0  0  0  0  0  0  0  0
   63.0970   33.7530   47.1220 C   0  0  0  0  0  0  0  0  0  0  0  0
   63.2200   34.5148   46.3381 H   0  0  0  0  0  0  0  0  0  0  0  0
   64.1490   33.5060   48.0180 C   0  0  0  0  0  0  0  0  0  0  0  0
   65.0895   34.0722   47.9474 H   0  0  0  0  0  0  0  0  0  0  0  0
   63.9800   32.5300   48.9990 C   0  0  0  0  0  0  0  0  0  0  0  0
   64.9270   32.1860   49.9090 N   0  0  0  0  0  0  0  0  0  0  0  0
   64.4730   31.2140   50.7370 C   0  0  0  0  0  0  0  0  0  0  0  0
   65.3290   30.5690   51.6910 N   0  0  0  0  0  0  0  0  0  0  0  0
   65.8420   29.3730   51.6300 C   0  0  0  0  0  0  0  0  0  0  0  0
   65.1560   28.3490   52.2070 N   0  0  0  0  0  0  0  0  0  0  0  0
   65.6090   27.0670   52.1920 C   0  0  0  0  0  0  0  0  0  0  0  0
   65.0254   26.2722   52.6795 H   0  0  0  0  0  0  0  0  0  0  0  0
   66.8130   26.7590   51.5590 C   0  0  0  0  0  0  0  0  0  0  0  0
   67.1934   25.7269   51.5628 H   0  0  0  0  0  0  0  0  0  0  0  0
   67.5330   27.7740   50.9190 C   0  0  0  0  0  0  0  0  0  0  0  0
   68.8370   27.4670   50.2430 C   0  0  0  0  0  0  0  0  0  0  0  0
   69.6104   27.2849   51.0037 H   0  0  0  0  0  0  0  0  0  0  0  0
   68.7224   26.5713   49.6149 H   0  0  0  0  0  0  0  0  0  0  0  0
   69.1341   28.3198   49.6149 H   0  0  0  0  0  0  0  0  0  0  0  0
   67.0510   29.0900   50.9600 C   0  0  0  0  0  0  0  0  0  0  0  0
   67.6136   29.8992   50.4714 H   0  0  0  0  0  0  0  0  0  0  0  0
   62.9100   30.6940   50.3200 S   0  0  0  0  0  0  0  0  0  0  0  0
   62.7960   31.8160   49.0770 C   0  0  0  0  0  0  0  0  0  0  0  0
   61.7380   32.0360   48.2000 C   0  0  0  0  0  0  0  0  0  0  0  0
   60.8129   31.4454   48.2738 H   0  0  0  0  0  0  0  0  0  0  0  0
   58.3120   32.8640   44.7550 C   0  0  0  0  0  0  0  0  0  0  0  0
   58.7800   33.0997   43.7878 H   0  0  0  0  0  0  0  0  0  0  0  0
   57.6260   31.5560   44.9030 C   0  0  0  0  0  0  0  0  0  0  0  0
   58.0520   30.5780   45.8260 C   0  0  0  0  0  0  0  0  0  0  0  0
   58.9297   30.7698   46.4607 H   0  0  0  0  0  0  0  0  0  0  0  0
   57.3640   29.3660   45.9380 C   0  0  0  0  0  0  0  0  0  0  0  0
   57.7074   28.6046   46.6538 H   0  0  0  0  0  0  0  0  0  0  0  0
   56.2410   29.1190   45.1430 C   0  0  0  0  0  0  0  0  0  0  0  0
   55.5610   27.9120   45.2570 O   0  0  0  0  0  0  0  0  0  0  0  0
   55.8020   30.0870   44.2370 C   0  0  0  0  0  0  0  0  0  0  0  0
   54.9165   29.8940   43.6135 H   0  0  0  0  0  0  0  0  0  0  0  0
   56.4860   31.3010   44.1210 C   0  0  0  0  0  0  0  0  0  0  0  0
   56.1292   32.0627   43.4121 H   0  0  0  0  0  0  0  0  0  0  0  0
  1  2  1  0
  2  3  1  0
  3  4  2  0
  3  5  1  0
  5  6  1  0
  5  7  1  0
  7  8  2  0
  8  9  1  0
  8 10  1  0
 10 11  1  0
 10 12  2  0
 12 13  1  0
 13 14  2  0
 14 15  1  0
 15 16  2  0
 16 17  1  0
 17 18  1  0
 18 19  1  0
 18 20  2  0
 20 21  1  0
 20 22  1  0
 22 23  1  0
 23 24  1  0
 23 25  1  0
 23 26  1  0
 22 27  2  0
 27 28  1  0
 14 29  1  0
 29 30  1  0
 30 31  2  0
 31 32  1  0
  2 33  2  0
 33 34  1  0
 33 35  1  0
 35 36  2  0
 36 37  1  0
 36 38  1  0
 38 39  1  0
 38 40  2  0
 40 41  1  0
 40 42  1  0
 42 43  1  0
 42 44  2  0
 44 45  1  0
 31  7  1  0
 44 35  1  0
 30 12  1  0
 27 16  1  0
M  CHG  2  17  -1  41  -1
M  END
>  <UniqueID>  (39) 
35

>  <SMILES>  (39) 
Cc1cc[n-]/c(=N/c2nc3ccc(NC(=O)/C=C/c4ccc([O-])cc4)cc3s2)c1

>  <Energy>  (39) 
99.28894287825194

>  <Genealogy>  (39) 
Cc1cc[n-]c(=Nc2nc3ccc(NC(=O)C=Cc4ccc([O-])cc4)cc3s2)c1 (protonated)
Cc1cc[n-]/c(=N/c2nc3ccc(NC(=O)/C=C/c4ccc([O-])cc4)cc3s2)c1 (cis-trans isomerization)
Cc1cc[n-]/c(=N/c2nc3ccc(NC(=O)/C=C/c4ccc([O-])cc4)cc3s2)c1 (3D coordinates assigned)
Cc1cc[n-]/c(=N/c2nc3ccc(NC(=O)/C=C/c4ccc([O-])cc4)cc3s2)c1 (optimized conformer: 99.28894287825194 kcal/mol)

>  <smiles>  (39) 
Cc1cc[nH]c(=Nc2nc3ccc(NC(=O)C=Cc4ccc(O)cc4)cc3s2)c1

>  <score_type>  (39) 
oracle

>  <origin>  (39) 
adg

>  <m_score__min__energy>  (39) 
-13.58

>  <m_primary>  (39) 
energy

$$$$
39:0
     RDKit          3D

 53 56  0  0  0  0  0  0  0  0999 V2000
   57.2930   23.4900   48.3530 O   0  0  0  0  0  0  0  0  0  0  0  0
   57.1600   24.3510   47.4450 C   0  0  0  0  0  0  0  0  0  0  0  0
   56.0110   25.0280   47.2370 N   0  0  0  0  0  0  0  0  0  0  0  0
   56.1350   25.8900   46.1940 C   0  0  0  0  0  0  0  0  0  0  0  0
   55.0800   26.6970   45.7760 O   0  0  0  0  0  0  0  0  0  0  0  0
   57.3860   25.9030   45.5800 C   0  0  0  0  0  0  0  0  0  0  0  0
   57.7700   26.6900   44.3640 C   0  0  0  0  0  0  0  0  0  0  0  0
   57.6660   28.1690   44.6380 C   0  0  0  0  0  0  0  0  0  0  0  0
   58.1240   28.6970   45.8550 C   0  0  0  0  0  0  0  0  0  0  0  0
   57.9920   30.0610   46.1270 C   0  0  0  0  0  0  0  0  0  0  0  0
   57.4200   30.9210   45.1850 C   0  0  0  0  0  0  0  0  0  0  0  0
   57.2980   32.2770   45.5150 O   0  0  0  0  0  0  0  0  0  0  0  0
   58.1180   33.3160   44.9960 C   0  0  0  0  0  0  0  0  0  0  0  0
   58.5020   34.2910   46.1130 C   0  0  0  0  0  0  0  0  0  0  0  0
   59.6220   33.7890   46.9310 N   0  0  0  0  0  0  0  0  0  0  0  0
   60.9950   33.8290   46.3910 C   0  0  0  0  0  0  0  0  0  0  0  0
   61.9900   33.2710   47.3760 C   0  0  0  0  0  0  0  0  0  0  0  0
   62.0800   31.8830   47.5820 C   0  0  0  0  0  0  0  0  0  0  0  0
   62.9990   31.3670   48.4990 C   0  0  0  0  0  0  0  0  0  0  0  0
   63.8300   32.2290   49.2190 C   0  0  0  0  0  0  0  0  0  0  0  0
   63.7430   33.6090   49.0230 C   0  0  0  0  0  0  0  0  0  0  0  0
   62.8260   34.1300   48.1070 C   0  0  0  0  0  0  0  0  0  0  0  0
   59.3780   33.4050   48.3030 C   0  0  0  0  0  0  0  0  0  0  0  0
   58.7240   32.2000   48.6230 C   0  0  0  0  0  0  0  0  0  0  0  0
   58.5270   31.8560   49.9600 C   0  0  0  0  0  0  0  0  0  0  0  0
   58.9660   32.7100   50.9720 C   0  0  0  0  0  0  0  0  0  0  0  0
   59.5880   33.9090   50.6260 C   0  0  0  0  0  0  0  0  0  0  0  0
   59.7750   34.2280   49.3170 N   0  0  0  0  0  0  0  0  0  0  0  0
   56.9860   30.4000   43.9530 C   0  0  0  0  0  0  0  0  0  0  0  0
   57.1020   29.0310   43.6840 C   0  0  0  0  0  0  0  0  0  0  0  0
   58.3700   24.7780   46.3590 S   0  0  0  0  0  0  0  0  0  0  0  0
   54.7720   27.4780   46.3420 H   0  0  0  0  0  0  0  0  0  0  0  0
   58.8059   26.4452   44.0865 H   0  0  0  0  0  0  0  0  0  0  0  0
   57.0862   26.4314   43.5421 H   0  0  0  0  0  0  0  0  0  0  0  0
   58.5894   28.0334   46.5987 H   0  0  0  0  0  0  0  0  0  0  0  0
   58.3410   30.4615   47.0902 H   0  0  0  0  0  0  0  0  0  0  0  0
   59.0307   32.8784   44.5653 H   0  0  0  0  0  0  0  0  0  0  0  0
   57.5611   33.8600   44.2189 H   0  0  0  0  0  0  0  0  0  0  0  0
   58.7957   35.2497   45.6607 H   0  0  0  0  0  0  0  0  0  0  0  0
   57.6294   34.4095   46.7722 H   0  0  0  0  0  0  0  0  0  0  0  0
   61.0336   33.2334   45.4670 H   0  0  0  0  0  0  0  0  0  0  0  0
   61.2576   34.8782   46.1905 H   0  0  0  0  0  0  0  0  0  0  0  0
   61.4249   31.2015   47.0195 H   0  0  0  0  0  0  0  0  0  0  0  0
   63.0685   30.2803   48.6544 H   0  0  0  0  0  0  0  0  0  0  0  0
   64.5530   31.8206   49.9405 H   0  0  0  0  0  0  0  0  0  0  0  0
   64.3975   34.2867   49.5908 H   0  0  0  0  0  0  0  0  0  0  0  0
   62.7586   35.2178   47.9578 H   0  0  0  0  0  0  0  0  0  0  0  0
   58.3703   31.5334   47.8227 H   0  0  0  0  0  0  0  0  0  0  0  0
   58.0254   30.9112   50.2167 H   0  0  0  0  0  0  0  0  0  0  0  0
   58.8233   32.4410   52.0290 H   0  0  0  0  0  0  0  0  0  0  0  0
   59.9281   34.5982   51.4130 H   0  0  0  0  0  0  0  0  0  0  0  0
   56.5532   31.0715   43.1969 H   0  0  0  0  0  0  0  0  0  0  0  0
   56.7502   28.6295   42.7222 H   0  0  0  0  0  0  0  0  0  0  0  0
  1  2  2  0
  2  3  1  0
  3  4  1  0
  4  5  1  0
  4  6  2  0
  6  7  1  0
  7  8  1  0
  8  9  2  0
  9 10  1  0
 10 11  2  0
 11 12  1  0
 12 13  1  0
 13 14  1  0
 14 15  1  0
 15 16  1  0
 16 17  1  0
 17 18  2  0
 18 19  1  0
 19 20  2  0
 20 21  1  0
 21 22  2  0
 15 23  1  0
 23 24  2  0
 24 25  1  0
 25 26  2  0
 26 27  1  0
 27 28  2  0
 11 29  1  0
 29 30  2  0
  6 31  1  0
 31  2  1  0
 30  8  1  0
 22 17  1  0
 28 23  1  0
  5 32  1  0
  7 33  1  0
  7 34  1  0
  9 35  1  0
 10 36  1  0
 13 37  1  0
 13 38  1  0
 14 39  1  0
 14 40  1  0
 16 41  1  0
 16 42  1  0
 18 43  1  0
 19 44  1  0
 20 45  1  0
 21 46  1  0
 22 47  1  0
 24 48  1  0
 25 49  1  0
 26 50  1  0
 27 51  1  0
 29 52  1  0
 30 53  1  0
M  CHG  1   3  -1
M  END
>  <UniqueID>  (40) 
36

>  <SMILES>  (40) 
O=c1[n-]c(O)c(Cc2ccc(OCCN(Cc3ccccc3)c3ccccn3)cc2)s1

>  <Energy>  (40) 
87.6602192743013

>  <Genealogy>  (40) 
O=c1[n-]c(O)c(Cc2ccc(OCCN(Cc3ccccc3)c3ccccn3)cc2)s1 (protonated)
O=c1[n-]c(O)c(Cc2ccc(OCCN(Cc3ccccc3)c3ccccn3)cc2)s1 (3D coordinates assigned)
O=c1[n-]c(O)c(Cc2ccc(OCCN(Cc3ccccc3)c3ccccn3)cc2)s1 (optimized conformer: 87.6602192743013 kcal/mol)

>  <smiles>  (40) 
O=c1[nH]c(O)c(Cc2ccc(OCCN(Cc3ccccc3)c3ccccn3)cc2)s1

>  <score_type>  (40) 
oracle

>  <origin>  (40) 
adg

>  <m_score__min__energy>  (40) 
-12.32

>  <m_primary>  (40) 
energy

$$$$
40:0
     RDKit          3D

 44 46  0  0  0  0  0  0  0  0999 V2000
   61.5440   32.8820   53.1200 C   0  0  0  0  0  0  0  0  0  0  0  0
   62.3270   33.8270   52.3980 O   0  0  0  0  0  0  0  0  0  0  0  0
   62.7460   33.6570   51.0700 C   0  0  0  0  0  0  0  0  0  0  0  0
   64.1050   33.3470   50.8320 C   0  0  0  0  0  0  0  0  0  0  0  0
   64.5890   33.1800   49.5240 C   0  0  0  0  0  0  0  0  0  0  0  0
   63.6860   33.3120   48.4710 C   0  0  0  0  0  0  0  0  0  0  0  0
   63.9580   33.2350   47.1580 N   0  0  0  0  0  0  0  0  0  0  0  0
   62.7880   33.4670   46.5200 C   0  0  0  0  0  0  0  0  0  0  0  0
   61.7640   33.6730   47.4390 C   0  0  0  0  0  0  0  0  0  0  0  0
   60.3570   33.9660   47.1070 C   0  0  0  0  0  0  0  0  0  0  0  0
   59.9850   35.1680   47.0450 O   0  0  0  0  0  0  0  0  0  0  0  0
   59.3900   32.8970   46.7930 C   0  0  0  0  0  0  0  0  0  0  0  0
   58.1540   33.1200   46.9050 O   0  0  0  0  0  0  0  0  0  0  0  0
   59.8570   31.6090   46.3560 N   0  0  0  0  0  0  0  0  0  0  0  0
   59.0170   30.4470   46.2410 C   0  0  0  0  0  0  0  0  0  0  0  0
   59.4180   29.2490   46.8390 C   0  0  0  0  0  0  0  0  0  0  0  0
   58.6130   28.1110   46.7570 C   0  0  0  0  0  0  0  0  0  0  0  0
   57.3800   28.1580   46.0810 C   0  0  0  0  0  0  0  0  0  0  0  0
   56.5450   27.0340   45.9730 O   0  0  0  0  0  0  0  0  0  0  0  0
   56.9830   25.7400   45.5720 C   0  0  0  0  0  0  0  0  0  0  0  0
   56.9560   29.3630   45.4980 C   0  0  0  0  0  0  0  0  0  0  0  0
   55.7150   29.3830   44.8410 O   0  0  0  0  0  0  0  0  0  0  0  0
   55.5320   29.7230   43.4700 C   0  0  0  0  0  0  0  0  0  0  0  0
   57.7740   30.5060   45.5870 C   0  0  0  0  0  0  0  0  0  0  0  0
   62.3590   33.5850   48.6880 C   0  0  0  0  0  0  0  0  0  0  0  0
   61.8560   33.7890   49.9760 C   0  0  0  0  0  0  0  0  0  0  0  0
   61.6779   33.0436   54.1998 H   0  0  0  0  0  0  0  0  0  0  0  0
   60.4830   33.0092   52.8590 H   0  0  0  0  0  0  0  0  0  0  0  0
   61.8662   31.8631   52.8590 H   0  0  0  0  0  0  0  0  0  0  0  0
   64.7928   33.2351   51.6831 H   0  0  0  0  0  0  0  0  0  0  0  0
   65.6487   32.9519   49.3366 H   0  0  0  0  0  0  0  0  0  0  0  0
   64.8840   33.0520   46.7140 H   0  0  0  0  0  0  0  0  0  0  0  0
   62.6636   33.4896   45.4273 H   0  0  0  0  0  0  0  0  0  0  0  0
   60.8370   31.5390   45.9980 H   0  0  0  0  0  0  0  0  0  0  0  0
   60.3754   29.2023   47.3786 H   0  0  0  0  0  0  0  0  0  0  0  0
   58.9449   27.1719   47.2238 H   0  0  0  0  0  0  0  0  0  0  0  0
   57.1895   25.1301   46.4638 H   0  0  0  0  0  0  0  0  0  0  0  0
   56.1982   25.2571   44.9712 H   0  0  0  0  0  0  0  0  0  0  0  0
   57.8997   25.8330   44.9712 H   0  0  0  0  0  0  0  0  0  0  0  0
   55.0118   30.6895   43.3982 H   0  0  0  0  0  0  0  0  0  0  0  0
   56.5123   29.7967   42.9765 H   0  0  0  0  0  0  0  0  0  0  0  0
   54.9306   28.9453   42.9765 H   0  0  0  0  0  0  0  0  0  0  0  0
   57.4373   31.4534   45.1408 H   0  0  0  0  0  0  0  0  0  0  0  0
   60.7982   34.0450   50.1357 H   0  0  0  0  0  0  0  0  0  0  0  0
  1  2  1  0
  2  3  1  0
  3  4  2  0
  4  5  1  0
  5  6  2  0
  6  7  1  0
  7  8  1  0
  8  9  2  0
  9 10  1  0
 10 11  2  0
 10 12  1  0
 12 13  2  0
 12 14  1  0
 14 15  1  0
 15 16  2  0
 16 17  1  0
 17 18  2  0
 18 19  1  0
 19 20  1  0
 18 21  1  0
 21 22  1  0
 22 23  1  0
 21 24  2  0
  9 25  1  0
 25 26  2  0
 26  3  1  0
 25  6  1  0
 24 15  1  0
  1 27  1  0
  1 28  1  0
  1 29  1  0
  4 30  1  0
  5 31  1  0
  7 32  1  0
  8 33  1  0
 14 34  1  0
 16 35  1  0
 17 36  1  0
 20 37  1  0
 20 38  1  0
 20 39  1  0
 23 40  1  0
 23 41  1  0
 23 42  1  0
 24 43  1  0
 26 44  1  0
M  END
>  <UniqueID>  (41) 
37

>  <SMILES>  (41) 
COc1ccc2[nH]cc(C(=O)C(=O)Nc3ccc(OC)c(OC)c3)c2c1

>  <Energy>  (41) 
84.5238935726473

>  <Genealogy>  (41) 
COc1ccc2[nH]cc(C(=O)C(=O)Nc3ccc(OC)c(OC)c3)c2c1 (3D coordinates assigned)
COc1ccc2[nH]cc(C(=O)C(=O)Nc3ccc(OC)c(OC)c3)c2c1 (optimized conformer: 84.5238935726473 kcal/mol)

>  <smiles>  (41) 
COc1ccc2[nH]cc(C(=O)C(=O)Nc3ccc(OC)c(OC)c3)c2c1

>  <score_type>  (41) 
oracle

>  <origin>  (41) 
adg

>  <m_score__min__energy>  (41) 
-7.9500000000000002

>  <m_primary>  (41) 
energy

$$$$
41:0
     RDKit          3D

 42 44  0  0  0  0  0  0  0  0999 V2000
   59.4600   26.8771   47.0881 H   0  0  0  0  0  0  0  0  0  0  0  0
   59.1590   27.5600   46.2800 C   0  0  0  0  0  0  0  0  0  0  0  0
   57.5820   27.9020   45.8140 S   0  0  0  0  0  0  0  0  0  0  0  0
   57.9680   28.9740   44.5710 C   0  0  0  0  0  0  0  0  0  0  0  0
   56.9860   29.6830   43.7160 C   0  0  0  0  0  0  0  0  0  0  0  0
   56.3800   28.9690   42.6260 N   0  0  0  0  0  0  0  0  0  0  0  0
   55.9100   29.4630   41.8350 H   0  0  0  0  0  0  0  0  0  0  0  0
   56.4640   27.9320   42.5530 H   0  0  0  0  0  0  0  0  0  0  0  0
   56.7290   30.9510   43.9180 N   0  0  0  0  0  0  0  0  0  0  0  0
   55.8750   31.3790   43.4960 H   0  0  0  0  0  0  0  0  0  0  0  0
   57.5260   31.8260   44.7330 C   0  0  0  0  0  0  0  0  0  0  0  0
   57.7880   31.4750   46.0800 C   0  0  0  0  0  0  0  0  0  0  0  0
   57.4105   30.5202   46.4748 H   0  0  0  0  0  0  0  0  0  0  0  0
   58.5240   32.3300   46.9200 C   0  0  0  0  0  0  0  0  0  0  0  0
   58.7427   32.0542   47.9622 H   0  0  0  0  0  0  0  0  0  0  0  0
   58.9680   33.5430   46.3840 C   0  0  0  0  0  0  0  0  0  0  0  0
   58.6940   33.8940   45.0930 C   0  0  0  0  0  0  0  0  0  0  0  0
   59.2590   35.1370   44.9140 C   0  0  0  0  0  0  0  0  0  0  0  0
   59.2324   35.7294   43.9876 H   0  0  0  0  0  0  0  0  0  0  0  0
   59.8530   35.5050   46.0740 N   0  0  0  0  0  0  0  0  0  0  0  0
   59.6640   34.5400   46.9690 N   0  0  0  0  0  0  0  0  0  0  0  0
   60.2100   34.5830   48.3270 C   0  0  0  0  0  0  0  0  0  0  0  0
   59.5026   34.0900   49.0100 H   0  0  0  0  0  0  0  0  0  0  0  0
   60.3575   35.6381   48.6007 H   0  0  0  0  0  0  0  0  0  0  0  0
   61.5770   33.8690   48.4240 C   0  0  0  0  0  0  0  0  0  0  0  0
   61.5036   33.1013   49.2084 H   0  0  0  0  0  0  0  0  0  0  0  0
   62.3142   34.6558   48.6417 H   0  0  0  0  0  0  0  0  0  0  0  0
   62.0410   33.2090   47.1810 N   0  0  0  0  0  0  0  0  0  0  0  0
   62.0080   31.7400   47.2470 C   0  0  0  0  0  0  0  0  0  0  0  0
   62.0008   31.4203   48.2995 H   0  0  0  0  0  0  0  0  0  0  0  0
   61.1013   31.3707   46.7454 H   0  0  0  0  0  0  0  0  0  0  0  0
   62.8972   31.3304   46.7454 H   0  0  0  0  0  0  0  0  0  0  0  0
   63.3390   33.6990   46.6960 C   0  0  0  0  0  0  0  0  0  0  0  0
   63.9830   33.9421   47.5540 H   0  0  0  0  0  0  0  0  0  0  0  0
   63.8199   32.9205   46.0855 H   0  0  0  0  0  0  0  0  0  0  0  0
   63.1855   34.6011   46.0855 H   0  0  0  0  0  0  0  0  0  0  0  0
   57.9700   33.0740   44.2350 C   0  0  0  0  0  0  0  0  0  0  0  0
   57.7496   33.3850   43.2032 H   0  0  0  0  0  0  0  0  0  0  0  0
   59.3580   29.0780   44.5160 C   0  0  0  0  0  0  0  0  0  0  0  0
   59.8865   29.7182   43.7943 H   0  0  0  0  0  0  0  0  0  0  0  0
   60.0160   28.2890   45.4680 C   0  0  0  0  0  0  0  0  0  0  0  0
   61.1112   28.2508   45.5632 H   0  0  0  0  0  0  0  0  0  0  0  0
  1  2  1  0
  2  3  1  0
  3  4  1  0
  4  5  1  0
  5  6  1  0
  6  7  1  0
  6  8  1  0
  5  9  2  0
  9 10  1  0
  9 11  1  0
 11 12  2  0
 12 13  1  0
 12 14  1  0
 14 15  1  0
 14 16  2  0
 16 17  1  0
 17 18  1  0
 18 19  1  0
 18 20  2  0
 20 21  1  0
 21 22  1  0
 22 23  1  0
 22 24  1  0
 22 25  1  0
 25 26  1  0
 25 27  1  0
 25 28  1  0
 28 29  1  0
 29 30  1  0
 29 31  1  0
 29 32  1  0
 28 33  1  0
 33 34  1  0
 33 35  1  0
 33 36  1  0
 17 37  2  0
 37 38  1  0
  4 39  2  0
 39 40  1  0
 39 41  1  0
 41 42  1  0
 41  2  2  0
 37 11  1  0
 21 16  1  0
M  CHG  1   9   1
M  END
>  <UniqueID>  (42) 
38

>  <SMILES>  (42) 
CN(C)CCn1ncc2cc(/[NH+]=C(\N)c3cccs3)ccc21

>  <Energy>  (42) 
119.3257550557102

>  <Genealogy>  (42) 
CN(C)CCn1ncc2cc([NH+]=C(N)c3cccs3)ccc21 (protonated)
CN(C)CCn1ncc2cc(/[NH+]=C(\N)c3cccs3)ccc21 (cis-trans isomerization)
CN(C)CCn1ncc2cc(/[NH+]=C(\N)c3cccs3)ccc21 (3D coordinates assigned)
CN(C)CCn1ncc2cc(/[NH+]=C(\N)c3cccs3)ccc21 (optimized conformer: 119.3257550557102 kcal/mol)

>  <smiles>  (42) 
CN(C)CCn1ncc2cc(N=C(N)c3cccs3)ccc21

>  <score_type>  (42) 
oracle

>  <origin>  (42) 
adg

>  <m_score__min__energy>  (42) 
-6.0700000000000003

>  <m_primary>  (42) 
energy

$$$$
42:0
     RDKit          3D

 42 43  0  0  0  0  0  0  0  0999 V2000
   54.2170   23.7360   44.5320 C   0  0  0  0  0  0  0  0  0  0  0  0
   54.0840   24.8120   45.5990 C   0  0  0  0  0  0  0  0  0  0  0  0
   55.3020   24.9080   46.3040 O   0  0  0  0  0  0  0  0  0  0  0  0
   56.0750   23.7450   46.0890 C   0  0  0  0  0  0  0  0  0  0  0  0
   57.3040   23.8050   46.9500 C   0  0  0  0  0  0  0  0  0  0  0  0
   57.4030   23.0300   47.9380 O   0  0  0  0  0  0  0  0  0  0  0  0
   58.3870   24.6990   46.6560 N   0  0  0  0  0  0  0  0  0  0  0  0
   58.2260   26.0620   46.2500 C   0  0  0  0  0  0  0  0  0  0  0  0
   57.9520   26.3540   44.9090 C   0  0  0  0  0  0  0  0  0  0  0  0
   57.7350   27.6740   44.5070 C   0  0  0  0  0  0  0  0  0  0  0  0
   57.8200   28.7180   45.4380 C   0  0  0  0  0  0  0  0  0  0  0  0
   57.4900   30.3690   44.9260 S   0  0  0  0  0  0  0  0  0  0  0  0
   58.3580   30.7590   43.7600 O   0  0  0  0  0  0  0  0  0  0  0  0
   56.0510   30.4680   44.5050 O   0  0  0  0  0  0  0  0  0  0  0  0
   57.7730   31.4570   46.2460 N   0  0  0  0  0  0  0  0  0  0  0  0
   58.4130   32.7390   46.1550 C   0  0  0  0  0  0  0  0  0  0  0  0
   58.4300   33.4690   44.9510 C   0  0  0  0  0  0  0  0  0  0  0  0
   59.0340   34.7270   44.8940 C   0  0  0  0  0  0  0  0  0  0  0  0
   59.6250   35.2730   46.0330 C   0  0  0  0  0  0  0  0  0  0  0  0
   59.6210   34.5590   47.2330 C   0  0  0  0  0  0  0  0  0  0  0  0
   59.0270   33.2880   47.3030 C   0  0  0  0  0  0  0  0  0  0  0  0
   59.0010   32.5490   48.6120 C   0  0  0  0  0  0  0  0  0  0  0  0
   58.1460   28.4320   46.7710 C   0  0  0  0  0  0  0  0  0  0  0  0
   58.3480   27.1120   47.1740 C   0  0  0  0  0  0  0  0  0  0  0  0
   54.3383   22.7547   45.0140 H   0  0  0  0  0  0  0  0  0  0  0  0
   53.3131   23.7274   43.9052 H   0  0  0  0  0  0  0  0  0  0  0  0
   55.0958   23.9478   43.9052 H   0  0  0  0  0  0  0  0  0  0  0  0
   53.8551   25.7773   45.1237 H   0  0  0  0  0  0  0  0  0  0  0  0
   53.2710   24.5513   46.2925 H   0  0  0  0  0  0  0  0  0  0  0  0
   55.4836   22.8558   46.3528 H   0  0  0  0  0  0  0  0  0  0  0  0
   56.3672   23.6850   45.0302 H   0  0  0  0  0  0  0  0  0  0  0  0
   57.9074   25.5413   44.1691 H   0  0  0  0  0  0  0  0  0  0  0  0
   57.4966   27.8948   43.4561 H   0  0  0  0  0  0  0  0  0  0  0  0
   57.9643   33.0455   44.0489 H   0  0  0  0  0  0  0  0  0  0  0  0
   59.0436   35.2886   43.9482 H   0  0  0  0  0  0  0  0  0  0  0  0
   60.0946   36.2666   45.9861 H   0  0  0  0  0  0  0  0  0  0  0  0
   60.0861   34.9948   48.1295 H   0  0  0  0  0  0  0  0  0  0  0  0
   59.0264   33.2712   49.4413 H   0  0  0  0  0  0  0  0  0  0  0  0
   58.0812   31.9491   48.6762 H   0  0  0  0  0  0  0  0  0  0  0  0
   59.8764   31.8860   48.6762 H   0  0  0  0  0  0  0  0  0  0  0  0
   58.2427   29.2498   47.5003 H   0  0  0  0  0  0  0  0  0  0  0  0
   58.6042   26.8926   48.2210 H   0  0  0  0  0  0  0  0  0  0  0  0
  1  2  1  0
  2  3  1  0
  3  4  1  0
  4  5  1  0
  5  6  2  0
  5  7  1  0
  7  8  1  0
  8  9  2  0
  9 10  1  0
 10 11  2  0
 11 12  1  0
 12 13  2  0
 12 14  2  0
 12 15  1  0
 15 16  1  0
 16 17  2  0
 17 18  1  0
 18 19  2  0
 19 20  1  0
 20 21  2  0
 21 22  1  0
 11 23  1  0
 23 24  2  0
 24  8  1  0
 21 16  1  0
  1 25  1  0
  1 26  1  0
  1 27  1  0
  2 28  1  0
  2 29  1  0
  4 30  1  0
  4 31  1  0
  9 32  1  0
 10 33  1  0
 17 34  1  0
 18 35  1  0
 19 36  1  0
 20 37  1  0
 22 38  1  0
 22 39  1  0
 22 40  1  0
 23 41  1  0
 24 42  1  0
M  CHG  2   7  -1  15  -1
M  END
>  <UniqueID>  (43) 
39

>  <SMILES>  (43) 
CCOCC(=O)[N-]c1ccc(S(=O)(=O)[N-]c2ccccc2C)cc1

>  <Energy>  (43) 
44.92688974648888

>  <Genealogy>  (43) 
CCOCC(=O)[N-]c1ccc(S(=O)(=O)[N-]c2ccccc2C)cc1 (protonated)
CCOCC(=O)[N-]c1ccc(S(=O)(=O)[N-]c2ccccc2C)cc1 (3D coordinates assigned)
CCOCC(=O)[N-]c1ccc(S(=O)(=O)[N-]c2ccccc2C)cc1 (optimized conformer: 44.92688974648888 kcal/mol)

>  <smiles>  (43) 
CCOCC(=O)Nc1ccc(S(=O)(=O)Nc2ccccc2C)cc1

>  <score_type>  (43) 
oracle

>  <origin>  (43) 
adg

>  <m_score__min__energy>  (43) 
-10.07

>  <m_primary>  (43) 
energy

$$$$
43:0
     RDKit          3D

 54 57  0  0  0  0  0  0  0  0999 V2000
   57.4140   24.4480   46.8980 C   0  0  0  0  0  0  0  0  0  0  0  0
   57.7330   25.5200   47.7800 O   0  0  0  0  0  0  0  0  0  0  0  0
   58.6450   26.5500   47.4870 C   0  0  0  0  0  0  0  0  0  0  0  0
   59.8840   26.6550   48.1510 C   0  0  0  0  0  0  0  0  0  0  0  0
   60.7630   27.6970   47.8480 C   0  0  0  0  0  0  0  0  0  0  0  0
   60.4170   28.6460   46.8850 C   0  0  0  0  0  0  0  0  0  0  0  0
   59.1940   28.5540   46.2200 C   0  0  0  0  0  0  0  0  0  0  0  0
   58.3070   27.5020   46.5030 C   0  0  0  0  0  0  0  0  0  0  0  0
   56.9800   27.4350   45.7970 C   0  0  0  0  0  0  0  0  0  0  0  0
   57.0000   28.3310   44.6470 N   0  0  0  0  0  0  0  0  0  0  0  0
   56.3640   29.6150   44.5980 C   0  0  0  0  0  0  0  0  0  0  0  0
   55.1390   29.6940   44.8780 O   0  0  0  0  0  0  0  0  0  0  0  0
   57.0870   30.8350   44.1920 C   0  0  0  0  0  0  0  0  0  0  0  0
   57.3770   31.0850   42.8420 C   0  0  0  0  0  0  0  0  0  0  0  0
   58.0810   32.2340   42.4740 C   0  0  0  0  0  0  0  0  0  0  0  0
   58.5100   33.1380   43.4490 C   0  0  0  0  0  0  0  0  0  0  0  0
   58.2400   32.8920   44.8020 C   0  0  0  0  0  0  0  0  0  0  0  0
   58.8140   34.0070   46.0430 S   0  0  0  0  0  0  0  0  0  0  0  0
   59.1180   35.3370   45.4120 O   0  0  0  0  0  0  0  0  0  0  0  0
   57.7180   34.1840   47.0580 O   0  0  0  0  0  0  0  0  0  0  0  0
   60.2490   33.3910   46.8250 N   0  0  0  0  0  0  0  0  0  0  0  0
   61.5460   33.7720   46.2470 C   0  0  0  0  0  0  0  0  0  0  0  0
   62.7100   33.4450   47.1830 C   0  0  0  0  0  0  0  0  0  0  0  0
   62.6510   31.9810   47.6070 C   0  0  0  0  0  0  0  0  0  0  0  0
   61.3300   31.6770   48.2550 C   0  0  0  0  0  0  0  0  0  0  0  0
   61.2510   30.6660   49.2260 C   0  0  0  0  0  0  0  0  0  0  0  0
   60.0310   30.3670   49.8330 C   0  0  0  0  0  0  0  0  0  0  0  0
   58.8830   31.0690   49.4740 C   0  0  0  0  0  0  0  0  0  0  0  0
   58.9440   32.0650   48.4950 C   0  0  0  0  0  0  0  0  0  0  0  0
   60.1630   32.3690   47.8530 C   0  0  0  0  0  0  0  0  0  0  0  0
   57.5390   31.7360   45.1710 C   0  0  0  0  0  0  0  0  0  0  0  0
   57.1487   23.5565   47.4853 H   0  0  0  0  0  0  0  0  0  0  0  0
   56.5626   24.7360   46.2638 H   0  0  0  0  0  0  0  0  0  0  0  0
   58.2843   24.2236   46.2638 H   0  0  0  0  0  0  0  0  0  0  0  0
   60.1603   25.9112   48.9129 H   0  0  0  0  0  0  0  0  0  0  0  0
   61.7291   27.7698   48.3689 H   0  0  0  0  0  0  0  0  0  0  0  0
   61.1095   29.4677   46.6500 H   0  0  0  0  0  0  0  0  0  0  0  0
   58.9224   29.3104   45.4689 H   0  0  0  0  0  0  0  0  0  0  0  0
   56.7962   26.4051   45.4572 H   0  0  0  0  0  0  0  0  0  0  0  0
   56.1796   27.7395   46.4874 H   0  0  0  0  0  0  0  0  0  0  0  0
   57.0486   30.3732   42.0703 H   0  0  0  0  0  0  0  0  0  0  0  0
   58.2983   32.4277   41.4132 H   0  0  0  0  0  0  0  0  0  0  0  0
   59.0603   34.0438   43.1544 H   0  0  0  0  0  0  0  0  0  0  0  0
   61.6870   33.2274   45.3017 H   0  0  0  0  0  0  0  0  0  0  0  0
   61.5379   34.8597   46.0830 H   0  0  0  0  0  0  0  0  0  0  0  0
   63.6597   33.6340   46.6612 H   0  0  0  0  0  0  0  0  0  0  0  0
   62.6398   34.0806   48.0780 H   0  0  0  0  0  0  0  0  0  0  0  0
   62.7758   31.3415   46.7207 H   0  0  0  0  0  0  0  0  0  0  0  0
   63.4568   31.7858   48.3300 H   0  0  0  0  0  0  0  0  0  0  0  0
   62.1551   30.1072   49.5094 H   0  0  0  0  0  0  0  0  0  0  0  0
   59.9757   29.5763   50.5957 H   0  0  0  0  0  0  0  0  0  0  0  0
   57.9247   30.8389   49.9626 H   0  0  0  0  0  0  0  0  0  0  0  0
   58.0325   32.6172   48.2225 H   0  0  0  0  0  0  0  0  0  0  0  0
   57.3413   31.5326   46.2338 H   0  0  0  0  0  0  0  0  0  0  0  0
  1  2  1  0
  2  3  1  0
  3  4  2  0
  4  5  1  0
  5  6  2  0
  6  7  1  0
  7  8  2  0
  8  9  1  0
  9 10  1  0
 10 11  1  0
 11 12  2  0
 11 13  1  0
 13 14  2  0
 14 15  1  0
 15 16  2  0
 16 17  1  0
 17 18  1  0
 18 19  2  0
 18 20  2  0
 18 21  1  0
 21 22  1  0
 22 23  1  0
 23 24  1  0
 24 25  1  0
 25 26  2  0
 26 27  1  0
 27 28  2  0
 28 29  1  0
 29 30  2  0
 17 31  2  0
  8  3  1  0
 31 13  1  0
 30 21  1  0
 30 25  1  0
  1 32  1  0
  1 33  1  0
  1 34  1  0
  4 35  1  0
  5 36  1  0
  6 37  1  0
  7 38  1  0
  9 39  1  0
  9 40  1  0
 14 41  1  0
 15 42  1  0
 16 43  1  0
 22 44  1  0
 22 45  1  0
 23 46  1  0
 23 47  1  0
 24 48  1  0
 24 49  1  0
 26 50  1  0
 27 51  1  0
 28 52  1  0
 29 53  1  0
 31 54  1  0
M  CHG  1  10  -1
M  END
>  <UniqueID>  (44) 
40

>  <SMILES>  (44) 
COc1ccccc1C[N-]C(=O)c1cccc(S(=O)(=O)N2CCCc3ccccc32)c1

>  <Energy>  (44) 
64.95849409779694

>  <Genealogy>  (44) 
COc1ccccc1C[N-]C(=O)c1cccc(S(=O)(=O)N2CCCc3ccccc32)c1 (protonated)
COc1ccccc1C[N-]C(=O)c1cccc(S(=O)(=O)N2CCCc3ccccc32)c1 (3D coordinates assigned)
COc1ccccc1C[N-]C(=O)c1cccc(S(=O)(=O)N2CCCc3ccccc32)c1 (nonaromatic ring conformer: 64.95849409779694 kcal/mol)

>  <smiles>  (44) 
COc1ccccc1CNC(=O)c1cccc(S(=O)(=O)N2CCCc3ccccc32)c1

>  <score_type>  (44) 
oracle

>  <origin>  (44) 
adg

>  <m_score__min__energy>  (44) 
-12.07

>  <m_primary>  (44) 
energy

$$$$
44:0
     RDKit          3D

 34 37  0  0  0  0  0  0  0  0999 V2000
   59.1840   29.4280   44.8520 C   0  0  0  0  0  0  0  0  0  0  0  0
   57.7590   29.7390   44.7600 N   0  0  0  0  0  0  0  0  0  0  0  0
   57.1940   30.8890   44.3380 C   0  0  0  0  0  0  0  0  0  0  0  0
   58.0910   32.3340   43.7590 S   0  0  0  0  0  0  0  0  0  0  0  0
   57.5890   33.3930   45.1580 C   0  0  0  0  0  0  0  0  0  0  0  0
   58.7300   33.5950   46.1000 C   0  0  0  0  0  0  0  0  0  0  0  0
   60.0280   33.4490   45.7210 N   0  0  0  0  0  0  0  0  0  0  0  0
   60.6880   33.6710   46.8660 C   0  0  0  0  0  0  0  0  0  0  0  0
   62.0650   33.6460   47.0750 C   0  0  0  0  0  0  0  0  0  0  0  0
   62.5340   33.9040   48.3780 C   0  0  0  0  0  0  0  0  0  0  0  0
   61.6220   34.1740   49.4240 C   0  0  0  0  0  0  0  0  0  0  0  0
   60.2370   34.1890   49.1750 C   0  0  0  0  0  0  0  0  0  0  0  0
   59.8110   33.9310   47.8740 C   0  0  0  0  0  0  0  0  0  0  0  0
   58.5520   33.8860   47.4160 N   0  0  0  0  0  0  0  0  0  0  0  0
   55.8520   30.8360   44.4050 N   0  0  0  0  0  0  0  0  0  0  0  0
   55.5370   29.6390   44.8730 N   0  0  0  0  0  0  0  0  0  0  0  0
   56.6900   28.9720   45.0780 C   0  0  0  0  0  0  0  0  0  0  0  0
   56.7110   27.5920   45.6030 C   0  0  0  0  0  0  0  0  0  0  0  0
   57.8080   26.7680   45.7920 C   0  0  0  0  0  0  0  0  0  0  0  0
   57.3040   25.5820   46.2780 C   0  0  0  0  0  0  0  0  0  0  0  0
   55.9380   25.7460   46.3540 C   0  0  0  0  0  0  0  0  0  0  0  0
   55.6160   26.9500   45.9420 O   0  0  0  0  0  0  0  0  0  0  0  0
   59.4777   29.3639   45.9101 H   0  0  0  0  0  0  0  0  0  0  0  0
   59.3819   28.4655   44.3576 H   0  0  0  0  0  0  0  0  0  0  0  0
   59.7649   30.2205   44.3576 H   0  0  0  0  0  0  0  0  0  0  0  0
   57.2611   34.3697   44.7726 H   0  0  0  0  0  0  0  0  0  0  0  0
   56.7663   32.9012   45.6977 H   0  0  0  0  0  0  0  0  0  0  0  0
   62.7619   33.4322   46.2512 H   0  0  0  0  0  0  0  0  0  0  0  0
   63.6148   33.8954   48.5826 H   0  0  0  0  0  0  0  0  0  0  0  0
   61.9972   34.3736   50.4386 H   0  0  0  0  0  0  0  0  0  0  0  0
   59.5161   34.3971   49.9794 H   0  0  0  0  0  0  0  0  0  0  0  0
   58.8627   27.0104   45.5949 H   0  0  0  0  0  0  0  0  0  0  0  0
   57.8772   24.6837   46.5509 H   0  0  0  0  0  0  0  0  0  0  0  0
   55.2264   24.9846   46.7060 H   0  0  0  0  0  0  0  0  0  0  0  0
  1  2  1  0
  2  3  1  0
  3  4  1  0
  4  5  1  0
  5  6  1  0
  6  7  2  0
  7  8  1  0
  8  9  2  0
  9 10  1  0
 10 11  2  0
 11 12  1  0
 12 13  2  0
 13 14  1  0
  3 15  2  0
 15 16  1  0
 16 17  2  0
 17 18  1  0
 18 19  2  0
 19 20  1  0
 20 21  2  0
 21 22  1  0
 17  2  1  0
 22 18  1  0
 14  6  1  0
 13  8  1  0
  1 23  1  0
  1 24  1  0
  1 25  1  0
  5 26  1  0
  5 27  1  0
  9 28  1  0
 10 29  1  0
 11 30  1  0
 12 31  1  0
 19 32  1  0
 20 33  1  0
 21 34  1  0
M  CHG  1  14  -1
M  END
>  <UniqueID>  (45) 
41

>  <SMILES>  (45) 
Cn1c(SCc2nc3ccccc3[n-]2)nnc1-c1ccco1

>  <Energy>  (45) 
130.61661214664812

>  <Genealogy>  (45) 
Cn1c(SCc2nc3ccccc3[n-]2)nnc1-c1ccco1 (protonated)
Cn1c(SCc2nc3ccccc3[n-]2)nnc1-c1ccco1 (3D coordinates assigned)
Cn1c(SCc2nc3ccccc3[n-]2)nnc1-c1ccco1 (optimized conformer: 130.61661214664812 kcal/mol)

>  <smiles>  (45) 
Cn1c(SCc2nc3ccccc3[nH]2)nnc1-c1ccco1

>  <score_type>  (45) 
oracle

>  <origin>  (45) 
adg

>  <m_score__min__energy>  (45) 
-9.25

>  <m_primary>  (45) 
energy

$$$$
45:0
     RDKit          3D

 42 44  0  0  0  0  0  0  0  0999 V2000
   63.3050   34.8810   50.7500 H   0  0  0  0  0  0  0  0  0  0  0  0
   63.5620   34.3840   49.9060 O   0  0  0  0  0  0  0  0  0  0  0  0
   62.5860   33.9440   49.0410 N   0  0  0  0  0  0  0  0  0  0  0  0
   62.8020   33.0230   48.1510 C   0  0  0  0  0  0  0  0  0  0  0  0
   61.6940   32.2300   47.5640 C   0  0  0  0  0  0  0  0  0  0  0  0
   61.8420   30.8470   47.3810 C   0  0  0  0  0  0  0  0  0  0  0  0
   62.7861   30.3572   47.6615 H   0  0  0  0  0  0  0  0  0  0  0  0
   60.7990   30.0870   46.8450 C   0  0  0  0  0  0  0  0  0  0  0  0
   60.9318   29.0042   46.7036 H   0  0  0  0  0  0  0  0  0  0  0  0
   59.5800   30.6920   46.4840 C   0  0  0  0  0  0  0  0  0  0  0  0
   58.4840   29.8630   45.9160 C   0  0  0  0  0  0  0  0  0  0  0  0
   58.4730   28.5080   46.0630 N   0  0  0  0  0  0  0  0  0  0  0  0
   57.4070   27.9170   45.4760 C   0  0  0  0  0  0  0  0  0  0  0  0
   57.1680   26.4480   45.5230 C   0  0  0  0  0  0  0  0  0  0  0  0
   58.2510   25.5800   45.2880 C   0  0  0  0  0  0  0  0  0  0  0  0
   59.2441   25.9978   45.0662 H   0  0  0  0  0  0  0  0  0  0  0  0
   58.0800   24.1970   45.3330 C   0  0  0  0  0  0  0  0  0  0  0  0
   58.9382   23.5328   45.1530 H   0  0  0  0  0  0  0  0  0  0  0  0
   56.8270   23.6530   45.6050 C   0  0  0  0  0  0  0  0  0  0  0  0
   56.7013   22.5611   45.6488 H   0  0  0  0  0  0  0  0  0  0  0  0
   55.7260   24.4920   45.8230 C   0  0  0  0  0  0  0  0  0  0  0  0
   54.4020   23.9040   46.1270 C   0  0  0  0  0  0  0  0  0  0  0  0
   54.2750   22.8070   46.8180 N   0  0  0  0  0  0  0  0  0  0  0  0
   54.6670   22.6380   48.2140 C   0  0  0  0  0  0  0  0  0  0  0  0
   53.8547   22.9882   48.8679 H   0  0  0  0  0  0  0  0  0  0  0  0
   54.8653   21.5745   48.4130 H   0  0  0  0  0  0  0  0  0  0  0  0
   55.5764   23.2240   48.4130 H   0  0  0  0  0  0  0  0  0  0  0  0
   53.2300   24.5350   45.6120 N   0  0  0  0  0  0  0  0  0  0  0  0
   53.3010   25.4160   45.0550 H   0  0  0  0  0  0  0  0  0  0  0  0
   52.2850   24.1300   45.7940 H   0  0  0  0  0  0  0  0  0  0  0  0
   55.8930   25.8900   45.7880 C   0  0  0  0  0  0  0  0  0  0  0  0
   54.7850   26.7050   45.9970 O   0  0  0  0  0  0  0  0  0  0  0  0
   56.4270   29.0800   44.7520 S   0  0  0  0  0  0  0  0  0  0  0  0
   57.4010   30.3730   45.1950 C   0  0  0  0  0  0  0  0  0  0  0  0
   57.2194   31.4321   44.9599 H   0  0  0  0  0  0  0  0  0  0  0  0
   59.4290   32.0770   46.6890 C   0  0  0  0  0  0  0  0  0  0  0  0
   58.4800   32.5665   46.4250 H   0  0  0  0  0  0  0  0  0  0  0  0
   60.4740   32.8360   47.2250 C   0  0  0  0  0  0  0  0  0  0  0  0
   60.3390   33.9163   47.3822 H   0  0  0  0  0  0  0  0  0  0  0  0
   64.1410   32.7890   47.7120 N   0  0  0  0  0  0  0  0  0  0  0  0
   64.9290   33.3590   48.0940 H   0  0  0  0  0  0  0  0  0  0  0  0
   64.3590   32.0290   47.0290 H   0  0  0  0  0  0  0  0  0  0  0  0
  1  2  1  0
  2  3  1  0
  3  4  2  0
  4  5  1  0
  5  6  2  0
  6  7  1  0
  6  8  1  0
  8  9  1  0
  8 10  2  0
 10 11  1  0
 11 12  1  0
 12 13  2  0
 13 14  1  0
 14 15  2  0
 15 16  1  0
 15 17  1  0
 17 18  1  0
 17 19  2  0
 19 20  1  0
 19 21  1  0
 21 22  1  0
 22 23  2  0
 23 24  1  0
 24 25  1  0
 24 26  1  0
 24 27  1  0
 22 28  1  0
 28 29  1  0
 28 30  1  0
 21 31  2  0
 31 32  1  0
 13 33  1  0
 33 34  1  0
 34 35  1  0
 10 36  1  0
 36 37  1  0
 36 38  2  0
 38 39  1  0
  4 40  1  0
 40 41  1  0
 40 42  1  0
 38  5  1  0
 34 11  2  0
 31 14  1  0
M  CHG  1  32  -1
M  END
>  <UniqueID>  (46) 
42

>  <SMILES>  (46) 
C/N=C(/N)c1cccc(-c2nc(-c3ccc(/C(N)=N\O)cc3)cs2)c1[O-]

>  <Energy>  (46) 
88.38674362788474

>  <Genealogy>  (46) 
CN=C(N)c1cccc(-c2nc(-c3ccc(C(N)=NO)cc3)cs2)c1[O-] (protonated)
C/N=C(/N)c1cccc(-c2nc(-c3ccc(/C(N)=N\O)cc3)cs2)c1[O-] (cis-trans isomerization)
C/N=C(/N)c1cccc(-c2nc(-c3ccc(/C(N)=N\O)cc3)cs2)c1[O-] (3D coordinates assigned)
C/N=C(/N)c1cccc(-c2nc(-c3ccc(/C(N)=N\O)cc3)cs2)c1[O-] (optimized conformer: 88.38674362788474 kcal/mol)

>  <smiles>  (46) 
CN=C(N)c1cccc(-c2nc(-c3ccc(C(N)=NO)cc3)cs2)c1O

>  <score_type>  (46) 
oracle

>  <origin>  (46) 
adg

>  <m_score__min__energy>  (46) 
-10.890000000000001

>  <m_primary>  (46) 
energy

$$$$
46:0
     RDKit          3D

 51 53  0  0  0  0  0  0  0  0999 V2000
   60.7660   27.0960   48.8330 C   0  0  0  0  0  0  0  0  0  0  0  0
   60.9320   27.4290   47.4570 O   0  0  0  0  0  0  0  0  0  0  0  0
   60.0510   28.2440   46.7310 C   0  0  0  0  0  0  0  0  0  0  0  0
   60.4370   28.9160   45.5530 C   0  0  0  0  0  0  0  0  0  0  0  0
   59.5190   29.7120   44.8650 C   0  0  0  0  0  0  0  0  0  0  0  0
   58.2000   29.8360   45.3280 C   0  0  0  0  0  0  0  0  0  0  0  0
   57.0250   30.8070   44.4420 S   0  0  0  0  0  0  0  0  0  0  0  0
   55.6740   30.1460   44.4580 O   0  0  0  0  0  0  0  0  0  0  0  0
   57.4730   30.9280   43.0130 O   0  0  0  0  0  0  0  0  0  0  0  0
   56.8820   32.3940   45.1320 N   0  0  0  0  0  0  0  0  0  0  0  0
   57.8700   33.0240   45.9610 C   0  0  0  0  0  0  0  0  0  0  0  0
   58.6810   34.0230   45.4120 C   0  0  0  0  0  0  0  0  0  0  0  0
   59.6340   34.6740   46.2020 C   0  0  0  0  0  0  0  0  0  0  0  0
   59.8010   34.3160   47.5450 C   0  0  0  0  0  0  0  0  0  0  0  0
   59.0190   33.2930   48.0990 C   0  0  0  0  0  0  0  0  0  0  0  0
   59.2520   32.8300   49.4840 C   0  0  0  0  0  0  0  0  0  0  0  0
   59.3060   33.6630   50.4260 O   0  0  0  0  0  0  0  0  0  0  0  0
   59.3970   31.3910   49.7870 C   0  0  0  0  0  0  0  0  0  0  0  0
   60.4710   30.6690   49.4260 C   0  0  0  0  0  0  0  0  0  0  0  0
   61.8440   31.2170   49.4050 C   0  0  0  0  0  0  0  0  0  0  0  0
   62.6670   31.0970   50.5360 C   0  0  0  0  0  0  0  0  0  0  0  0
   63.9600   31.6180   50.5230 C   0  0  0  0  0  0  0  0  0  0  0  0
   64.4490   32.2690   49.3880 C   0  0  0  0  0  0  0  0  0  0  0  0
   65.7470   32.7810   49.4130 O   0  0  0  0  0  0  0  0  0  0  0  0
   63.6350   32.4050   48.2480 C   0  0  0  0  0  0  0  0  0  0  0  0
   64.1430   33.0970   47.1390 O   0  0  0  0  0  0  0  0  0  0  0  0
   63.3730   33.9560   46.3060 C   0  0  0  0  0  0  0  0  0  0  0  0
   62.3360   31.8530   48.2580 C   0  0  0  0  0  0  0  0  0  0  0  0
   58.0430   32.6680   47.3080 C   0  0  0  0  0  0  0  0  0  0  0  0
   57.8200   29.1840   46.5080 C   0  0  0  0  0  0  0  0  0  0  0  0
   58.7410   28.3920   47.2030 C   0  0  0  0  0  0  0  0  0  0  0  0
   61.1699   27.9063   49.4577 H   0  0  0  0  0  0  0  0  0  0  0  0
   59.6962   26.9630   49.0516 H   0  0  0  0  0  0  0  0  0  0  0  0
   61.3038   26.1617   49.0516 H   0  0  0  0  0  0  0  0  0  0  0  0
   61.4648   28.8128   45.1748 H   0  0  0  0  0  0  0  0  0  0  0  0
   59.8315   30.2449   43.9549 H   0  0  0  0  0  0  0  0  0  0  0  0
   58.5685   34.2981   44.3529 H   0  0  0  0  0  0  0  0  0  0  0  0
   60.2549   35.4706   45.7662 H   0  0  0  0  0  0  0  0  0  0  0  0
   60.5453   34.8371   48.1651 H   0  0  0  0  0  0  0  0  0  0  0  0
   58.5869   30.8868   50.3343 H   0  0  0  0  0  0  0  0  0  0  0  0
   60.3216   29.6196   49.1319 H   0  0  0  0  0  0  0  0  0  0  0  0
   62.2900   30.5897   51.4363 H   0  0  0  0  0  0  0  0  0  0  0  0
   64.5993   31.5158   51.4123 H   0  0  0  0  0  0  0  0  0  0  0  0
   66.2240   33.0940   48.5750 H   0  0  0  0  0  0  0  0  0  0  0  0
   62.7693   34.6294   46.9321 H   0  0  0  0  0  0  0  0  0  0  0  0
   64.0460   34.5508   45.6709 H   0  0  0  0  0  0  0  0  0  0  0  0
   62.7084   33.3518   45.6709 H   0  0  0  0  0  0  0  0  0  0  0  0
   61.7058   31.9227   47.3591 H   0  0  0  0  0  0  0  0  0  0  0  0
   57.4047   31.8884   47.7493 H   0  0  0  0  0  0  0  0  0  0  0  0
   56.7943   29.2948   46.8897 H   0  0  0  0  0  0  0  0  0  0  0  0
   58.4333   27.8816   48.1276 H   0  0  0  0  0  0  0  0  0  0  0  0
  1  2  1  0
  2  3  1  0
  3  4  2  0
  4  5  1  0
  5  6  2  0
  6  7  1  0
  7  8  2  0
  7  9  2  0
  7 10  1  0
 10 11  1  0
 11 12  2  0
 12 13  1  0
 13 14  2  0
 14 15  1  0
 15 16  1  0
 16 17  2  0
 16 18  1  0
 18 19  2  3
 19 20  1  0
 20 21  2  0
 21 22  1  0
 22 23  2  0
 23 24  1  0
 23 25  1  0
 25 26  1  0
 26 27  1  0
 25 28  2  0
 15 29  2  0
  6 30  1  0
 30 31  2  0
 31  3  1  0
 29 11  1  0
 28 20  1  0
  1 32  1  0
  1 33  1  0
  1 34  1  0
  4 35  1  0
  5 36  1  0
 12 37  1  0
 13 38  1  0
 14 39  1  0
 18 40  1  0
 19 41  1  0
 21 42  1  0
 22 43  1  0
 24 44  1  0
 27 45  1  0
 27 46  1  0
 27 47  1  0
 28 48  1  0
 29 49  1  0
 30 50  1  0
 31 51  1  0
M  CHG  1  10  -1
M  END
>  <UniqueID>  (47) 
43

>  <SMILES>  (47) 
COc1ccc(S(=O)(=O)[N-]c2cccc(C(=O)C=Cc3ccc(O)c(OC)c3)c2)cc1

>  <Energy>  (47) 
62.92671829446782

>  <Genealogy>  (47) 
COc1ccc(S(=O)(=O)[N-]c2cccc(C(=O)C=Cc3ccc(O)c(OC)c3)c2)cc1 (protonated)
COc1ccc(S(=O)(=O)[N-]c2cccc(C(=O)C=Cc3ccc(O)c(OC)c3)c2)cc1 (3D coordinates assigned)
COc1ccc(S(=O)(=O)[N-]c2cccc(C(=O)C=Cc3ccc(O)c(OC)c3)c2)cc1 (optimized conformer: 62.92671829446782 kcal/mol)

>  <smiles>  (47) 
COc1ccc(S(=O)(=O)Nc2cccc(C(=O)C=Cc3ccc(O)c(OC)c3)c2)cc1

>  <score_type>  (47) 
oracle

>  <origin>  (47) 
adg

>  <m_score__min__energy>  (47) 
-10.15

>  <m_primary>  (47) 
energy

$$$$
47:0
     RDKit          3D

 61 65  0  0  0  0  0  0  0  0999 V2000
   62.1460   30.8630   47.4730 C   0  0  0  0  0  0  0  0  0  0  0  0
   61.6200   30.8680   48.8900 C   0  0  0  0  0  0  0  0  0  0  0  0
   62.1910   31.7340   49.8490 C   0  0  0  0  0  0  0  0  0  0  0  0
   63.2040   32.6680   49.4730 N   0  0  0  0  0  0  0  0  0  0  0  0
   62.7620   34.1580   48.7140 S   0  0  0  0  0  0  0  0  0  0  0  0
   62.6420   35.2430   49.7460 O   0  0  0  0  0  0  0  0  0  0  0  0
   63.8270   34.5430   47.7260 O   0  0  0  0  0  0  0  0  0  0  0  0
   61.2250   33.9370   47.8820 C   0  0  0  0  0  0  0  0  0  0  0  0
   61.1810   33.9620   46.4810 C   0  0  0  0  0  0  0  0  0  0  0  0
   59.9570   33.8670   45.8130 C   0  0  0  0  0  0  0  0  0  0  0  0
   58.7710   33.7420   46.5420 C   0  0  0  0  0  0  0  0  0  0  0  0
   58.8090   33.7160   47.9400 C   0  0  0  0  0  0  0  0  0  0  0  0
   60.0320   33.8160   48.6100 C   0  0  0  0  0  0  0  0  0  0  0  0
   61.7200   31.7340   51.1660 C   0  0  0  0  0  0  0  0  0  0  0  0
   60.6790   30.8870   51.5420 C   0  0  0  0  0  0  0  0  0  0  0  0
   60.0790   30.0560   50.5980 C   0  0  0  0  0  0  0  0  0  0  0  0
   60.5200   30.0540   49.2650 C   0  0  0  0  0  0  0  0  0  0  0  0
   59.7870   29.2250   48.2820 C   0  0  0  0  0  0  0  0  0  0  0  0
   59.6640   27.8430   48.4760 C   0  0  0  0  0  0  0  0  0  0  0  0
   58.9830   27.0600   47.5440 C   0  0  0  0  0  0  0  0  0  0  0  0
   58.4260   27.6410   46.3950 C   0  0  0  0  0  0  0  0  0  0  0  0
   57.6690   26.8230   45.4910 N   0  0  0  0  0  0  0  0  0  0  0  0
   58.1440   26.4340   44.1670 C   0  0  0  0  0  0  0  0  0  0  0  0
   57.5620   25.0460   43.8220 C   0  0  0  0  0  0  0  0  0  0  0  0
   56.2550   24.8150   44.5880 C   0  0  0  0  0  0  0  0  0  0  0  0
   56.3990   25.8090   46.0330 S   0  0  0  0  0  0  0  0  0  0  0  0
   55.1390   26.5810   46.3070 O   0  0  0  0  0  0  0  0  0  0  0  0
   56.8210   24.9980   47.2270 O   0  0  0  0  0  0  0  0  0  0  0  0
   58.5640   29.0310   46.1790 C   0  0  0  0  0  0  0  0  0  0  0  0
   58.0290   29.6850   44.9630 C   0  0  0  0  0  0  0  0  0  0  0  0
   56.8700   29.1920   44.3370 C   0  0  0  0  0  0  0  0  0  0  0  0
   56.3670   29.8170   43.1930 C   0  0  0  0  0  0  0  0  0  0  0  0
   57.0180   30.9310   42.6570 C   0  0  0  0  0  0  0  0  0  0  0  0
   56.5290   31.5350   41.5470 F   0  0  0  0  0  0  0  0  0  0  0  0
   58.1780   31.4200   43.2640 C   0  0  0  0  0  0  0  0  0  0  0  0
   58.6850   30.7980   44.4100 C   0  0  0  0  0  0  0  0  0  0  0  0
   59.2440   29.8120   47.1300 C   0  0  0  0  0  0  0  0  0  0  0  0
   63.2458   30.8525   47.4902 H   0  0  0  0  0  0  0  0  0  0  0  0
   61.7790   29.9683   46.9488 H   0  0  0  0  0  0  0  0  0  0  0  0
   61.7960   31.7645   46.9488 H   0  0  0  0  0  0  0  0  0  0  0  0
   62.1135   34.0568   45.9052 H   0  0  0  0  0  0  0  0  0  0  0  0
   59.9270   33.8906   44.7137 H   0  0  0  0  0  0  0  0  0  0  0  0
   57.8079   33.6641   46.0164 H   0  0  0  0  0  0  0  0  0  0  0  0
   57.8753   33.6167   48.5131 H   0  0  0  0  0  0  0  0  0  0  0  0
   60.0588   33.7998   49.7096 H   0  0  0  0  0  0  0  0  0  0  0  0
   62.1737   32.4062   51.9091 H   0  0  0  0  0  0  0  0  0  0  0  0
   60.3306   30.8745   52.5853 H   0  0  0  0  0  0  0  0  0  0  0  0
   59.2526   29.3957   50.8998 H   0  0  0  0  0  0  0  0  0  0  0  0
   60.1063   27.3735   49.3670 H   0  0  0  0  0  0  0  0  0  0  0  0
   58.8818   25.9775   47.7114 H   0  0  0  0  0  0  0  0  0  0  0  0
   57.8099   27.1713   43.4222 H   0  0  0  0  0  0  0  0  0  0  0  0
   59.2432   26.3926   44.1597 H   0  0  0  0  0  0  0  0  0  0  0  0
   57.3639   24.9934   42.7413 H   0  0  0  0  0  0  0  0  0  0  0  0
   58.2880   24.2710   44.1088 H   0  0  0  0  0  0  0  0  0  0  0  0
   55.3912   25.1312   43.9847 H   0  0  0  0  0  0  0  0  0  0  0  0
   56.0968   23.7533   44.8285 H   0  0  0  0  0  0  0  0  0  0  0  0
   56.3574   28.3106   44.7498 H   0  0  0  0  0  0  0  0  0  0  0  0
   55.4557   29.4308   42.7129 H   0  0  0  0  0  0  0  0  0  0  0  0
   58.6929   32.2948   42.8403 H   0  0  0  0  0  0  0  0  0  0  0  0
   59.6020   31.1822   44.8807 H   0  0  0  0  0  0  0  0  0  0  0  0
   59.3512   30.8948   46.9687 H   0  0  0  0  0  0  0  0  0  0  0  0
  1  2  1  0
  2  3  2  0
  3  4  1  0
  4  5  1  0
  5  6  2  0
  5  7  2  0
  5  8  1  0
  8  9  2  0
  9 10  1  0
 10 11  2  0
 11 12  1  0
 12 13  2  0
  3 14  1  0
 14 15  2  0
 15 16  1  0
 16 17  2  0
 17 18  1  0
 18 19  2  0
 19 20  1  0
 20 21  2  0
 21 22  1  0
 22 23  1  0
 23 24  1  0
 24 25  1  0
 25 26  1  0
 26 27  2  0
 26 28  2  0
 21 29  1  0
 29 30  1  0
 30 31  2  0
 31 32  1  0
 32 33  2  0
 33 34  1  0
 33 35  1  0
 35 36  2  0
 29 37  2  0
 17  2  1  0
 37 18  1  0
 13  8  1  0
 26 22  1  0
 36 30  1  0
  1 38  1  0
  1 39  1  0
  1 40  1  0
  9 41  1  0
 10 42  1  0
 11 43  1  0
 12 44  1  0
 13 45  1  0
 14 46  1  0
 15 47  1  0
 16 48  1  0
 19 49  1  0
 20 50  1  0
 23 51  1  0
 23 52  1  0
 24 53  1  0
 24 54  1  0
 25 55  1  0
 25 56  1  0
 31 57  1  0
 32 58  1  0
 35 59  1  0
 36 60  1  0
 37 61  1  0
M  CHG  1   4  -1
M  END
>  <UniqueID>  (48) 
44

>  <SMILES>  (48) 
Cc1c([N-]S(=O)(=O)c2ccccc2)cccc1-c1ccc(N2CCCS2(=O)=O)c(-c2ccc(F)cc2)c1

>  <Energy>  (48) 
98.10130552286938

>  <Genealogy>  (48) 
Cc1c([N-]S(=O)(=O)c2ccccc2)cccc1-c1ccc(N2CCCS2(=O)=O)c(-c2ccc(F)cc2)c1 (protonated)
Cc1c([N-]S(=O)(=O)c2ccccc2)cccc1-c1ccc(N2CCCS2(=O)=O)c(-c2ccc(F)cc2)c1 (3D coordinates assigned)
Cc1c([N-]S(=O)(=O)c2ccccc2)cccc1-c1ccc(N2CCCS2(=O)=O)c(-c2ccc(F)cc2)c1 (nonaromatic ring conformer: 98.10130552286938 kcal/mol)

>  <smiles>  (48) 
Cc1c(NS(=O)(=O)c2ccccc2)cccc1-c1ccc(N2CCCS2(=O)=O)c(-c2ccc(F)cc2)c1

>  <score_type>  (48) 
oracle

>  <origin>  (48) 
adg

>  <m_score__min__energy>  (48) 
-11.51

>  <m_primary>  (48) 
energy

$$$$
48:0
     RDKit          3D

 43 45  0  0  0  0  0  0  0  0999 V2000
   60.4640   27.4650   47.7140 C   0  0  0  0  0  0  0  0  0  0  0  0
   59.1110   27.5410   47.0920 C   0  0  0  0  0  0  0  0  0  0  0  0
   58.1860   26.5040   47.0400 C   0  0  0  0  0  0  0  0  0  0  0  0
   57.0190   26.8320   46.3280 C   0  0  0  0  0  0  0  0  0  0  0  0
   55.8980   25.8870   46.1410 C   0  0  0  0  0  0  0  0  0  0  0  0
   54.7280   26.3210   45.9600 O   0  0  0  0  0  0  0  0  0  0  0  0
   56.1410   24.4750   46.2200 N   0  0  0  0  0  0  0  0  0  0  0  0
   56.3990   23.5860   45.1230 C   0  0  0  0  0  0  0  0  0  0  0  0
   55.6910   23.6750   43.9070 C   0  0  0  0  0  0  0  0  0  0  0  0
   55.9920   22.8060   42.8520 C   0  0  0  0  0  0  0  0  0  0  0  0
   57.0060   21.8570   42.9940 C   0  0  0  0  0  0  0  0  0  0  0  0
   57.7290   21.7790   44.1880 C   0  0  0  0  0  0  0  0  0  0  0  0
   57.4320   22.6440   45.2470 C   0  0  0  0  0  0  0  0  0  0  0  0
   58.1480   22.5640   46.3980 F   0  0  0  0  0  0  0  0  0  0  0  0
   57.0550   28.1270   45.8100 C   0  0  0  0  0  0  0  0  0  0  0  0
   56.0230   28.7060   45.0020 N   0  0  0  0  0  0  0  0  0  0  0  0
   56.1930   29.5940   43.8900 C   0  0  0  0  0  0  0  0  0  0  0  0
   56.2790   29.1510   42.7140 O   0  0  0  0  0  0  0  0  0  0  0  0
   56.2890   31.0730   44.1260 C   0  0  0  0  0  0  0  0  0  0  0  0
   57.0490   31.3620   45.3000 O   0  0  0  0  0  0  0  0  0  0  0  0
   57.4560   32.6550   45.6530 C   0  0  0  0  0  0  0  0  0  0  0  0
   56.6310   33.6090   45.6220 O   0  0  0  0  0  0  0  0  0  0  0  0
   58.8480   32.8950   46.0880 C   0  0  0  0  0  0  0  0  0  0  0  0
   59.5250   34.0660   45.7100 C   0  0  0  0  0  0  0  0  0  0  0  0
   60.8110   34.2700   46.1000 N   0  0  0  0  0  0  0  0  0  0  0  0
   61.4890   33.3640   46.8550 C   0  0  0  0  0  0  0  0  0  0  0  0
   63.1480   33.7150   47.3120 Cl  0  0  0  0  0  0  0  0  0  0  0  0
   60.8570   32.1780   47.2570 C   0  0  0  0  0  0  0  0  0  0  0  0
   61.6920   30.9700   48.2280 Cl  0  0  0  0  0  0  0  0  0  0  0  0
   59.5330   31.9490   46.8690 C   0  0  0  0  0  0  0  0  0  0  0  0
   58.5170   28.8540   46.2250 S   0  0  0  0  0  0  0  0  0  0  0  0
   60.3648   27.4706   48.8095 H   0  0  0  0  0  0  0  0  0  0  0  0
   60.9623   26.5374   47.3957 H   0  0  0  0  0  0  0  0  0  0  0  0
   61.0631   28.3309   47.3957 H   0  0  0  0  0  0  0  0  0  0  0  0
   58.3512   25.5232   47.5099 H   0  0  0  0  0  0  0  0  0  0  0  0
   54.8997   24.4297   43.7871 H   0  0  0  0  0  0  0  0  0  0  0  0
   55.4287   22.8709   41.9094 H   0  0  0  0  0  0  0  0  0  0  0  0
   57.2362   21.1703   42.1661 H   0  0  0  0  0  0  0  0  0  0  0  0
   58.5331   21.0360   44.2952 H   0  0  0  0  0  0  0  0  0  0  0  0
   56.7758   31.5435   43.2590 H   0  0  0  0  0  0  0  0  0  0  0  0
   55.2723   31.4697   44.2637 H   0  0  0  0  0  0  0  0  0  0  0  0
   59.0125   34.8211   45.0959 H   0  0  0  0  0  0  0  0  0  0  0  0
   59.0251   31.0231   47.1770 H   0  0  0  0  0  0  0  0  0  0  0  0
  1  2  1  0
  2  3  2  0
  3  4  1  0
  4  5  1  0
  5  6  2  0
  5  7  1  0
  7  8  1  0
  8  9  2  0
  9 10  1  0
 10 11  2  0
 11 12  1  0
 12 13  2  0
 13 14  1  0
  4 15  2  0
 15 16  1  0
 16 17  1  0
 17 18  2  0
 17 19  1  0
 19 20  1  0
 20 21  1  0
 21 22  2  0
 21 23  1  0
 23 24  2  0
 24 25  1  0
 25 26  2  0
 26 27  1  0
 26 28  1  0
 28 29  1  0
 28 30  2  0
 15 31  1  0
 31  2  1  0
 13  8  1  0
 30 23  1  0
  1 32  1  0
  1 33  1  0
  1 34  1  0
  3 35  1  0
  9 36  1  0
 10 37  1  0
 11 38  1  0
 12 39  1  0
 19 40  1  0
 19 41  1  0
 24 42  1  0
 30 43  1  0
M  CHG  2   7  -1  16  -1
M  END
>  <UniqueID>  (49) 
45

>  <SMILES>  (49) 
Cc1cc(C(=O)[N-]c2ccccc2F)c([N-]C(=O)COC(=O)c2cnc(Cl)c(Cl)c2)s1

>  <Energy>  (49) 
72.72094981730173

>  <Genealogy>  (49) 
Cc1cc(C(=O)[N-]c2ccccc2F)c([N-]C(=O)COC(=O)c2cnc(Cl)c(Cl)c2)s1 (protonated)
Cc1cc(C(=O)[N-]c2ccccc2F)c([N-]C(=O)COC(=O)c2cnc(Cl)c(Cl)c2)s1 (3D coordinates assigned)
Cc1cc(C(=O)[N-]c2ccccc2F)c([N-]C(=O)COC(=O)c2cnc(Cl)c(Cl)c2)s1 (optimized conformer: 72.72094981730173 kcal/mol)

>  <smiles>  (49) 
Cc1cc(C(=O)Nc2ccccc2F)c(NC(=O)COC(=O)c2cnc(Cl)c(Cl)c2)s1

>  <score_type>  (49) 
oracle

>  <origin>  (49) 
adg

>  <m_score__min__energy>  (49) 
-13.869999999999999

>  <m_primary>  (49) 
energy

$$$$
49:0
     RDKit          3D

 43 46  0  0  1  0  0  0  0  0999 V2000
   60.1150   22.1840   45.2390 N   0  0  0  0  0  0  0  0  0  0  0  0
   58.5420   22.8940   45.1970 S   0  0  0  0  0  0  0  0  0  0  0  0
   57.8670   22.5470   43.8790 O   0  0  0  0  0  0  0  0  0  0  0  0
   57.7450   22.2940   46.3200 O   0  0  0  0  0  0  0  0  0  0  0  0
   58.5410   24.5990   45.4380 C   0  0  0  0  0  0  0  0  0  0  0  0
   57.7710   25.5660   44.9900 N   0  0  0  0  0  0  0  0  0  0  0  0
   57.9500   26.8070   45.2990 C   0  0  0  0  0  0  0  0  0  0  0  0
   57.2160   27.8990   44.8970 N   0  0  0  0  0  0  0  0  0  0  0  0
   57.5460   29.1180   45.3180 C   0  0  0  0  0  0  0  0  0  0  0  0
   56.8240   30.1060   44.9110 N   0  0  0  0  0  0  0  0  0  0  0  0
   57.2440   31.3770   44.5320 C   0  0  1  0  0  0  0  0  0  0  0  0
   57.4310   32.4800   45.4750 C   0  0  0  0  0  0  0  0  0  0  0  0
   57.6360   33.6420   44.4900 C   0  0  0  0  0  0  0  0  0  0  0  0
   57.8660   33.0630   43.1900 N   0  0  0  0  0  0  0  0  0  0  0  0
   58.1490   31.6280   43.4060 C   0  0  0  0  0  0  0  0  0  0  0  0
   58.5660   29.4160   46.1330 N   0  0  0  0  0  0  0  0  0  0  0  0
   59.3210   28.3830   46.5600 C   0  0  0  0  0  0  0  0  0  0  0  0
   60.3270   28.5660   47.3480 N   0  0  0  0  0  0  0  0  0  0  0  0
   60.5650   29.9210   47.7270 C   0  0  0  0  0  0  0  0  0  0  0  0
   59.8430   30.4420   48.8040 C   0  0  0  0  0  0  0  0  0  0  0  0
   60.0470   31.7490   49.2000 C   0  0  0  0  0  0  0  0  0  0  0  0
   60.9610   32.5350   48.5340 C   0  0  0  0  0  0  0  0  0  0  0  0
   61.6630   31.9960   47.4730 C   0  0  0  0  0  0  0  0  0  0  0  0
   61.4860   30.6920   47.0470 C   0  0  0  0  0  0  0  0  0  0  0  0
   59.0040   27.1240   46.1430 C   0  0  0  0  0  0  0  0  0  0  0  0
   59.7490   25.5110   46.4800 S   0  0  0  0  0  0  0  0  0  0  0  0
   60.7620   22.5800   44.5450 H   0  0  0  0  0  0  0  0  0  0  0  0
   60.0730   21.1530   45.2470 H   0  0  0  0  0  0  0  0  0  0  0  0
   56.3860   27.7530   44.2480 H   0  0  0  0  0  0  0  0  0  0  0  0
   56.2017   31.3501   44.1816 H   0  0  0  0  0  0  0  0  0  0  0  0
   56.5433   32.6320   46.1065 H   0  0  0  0  0  0  0  0  0  0  0  0
   58.2468   32.3371   46.1989 H   0  0  0  0  0  0  0  0  0  0  0  0
   56.7391   34.2783   44.4659 H   0  0  0  0  0  0  0  0  0  0  0  0
   58.4880   34.2672   44.7954 H   0  0  0  0  0  0  0  0  0  0  0  0
   56.9620   33.0840   42.6670 H   0  0  0  0  0  0  0  0  0  0  0  0
   57.8898   31.0205   42.5264 H   0  0  0  0  0  0  0  0  0  0  0  0
   59.2050   31.3781   43.5858 H   0  0  0  0  0  0  0  0  0  0  0  0
   58.7450   30.3770   46.4030 H   0  0  0  0  0  0  0  0  0  0  0  0
   59.1139   29.8124   49.3351 H   0  0  0  0  0  0  0  0  0  0  0  0
   59.4797   32.1622   50.0470 H   0  0  0  0  0  0  0  0  0  0  0  0
   61.1298   33.5773   48.8424 H   0  0  0  0  0  0  0  0  0  0  0  0
   62.3918   32.6293   46.9460 H   0  0  0  0  0  0  0  0  0  0  0  0
   62.0570   30.2853   46.1993 H   0  0  0  0  0  0  0  0  0  0  0  0
  1  2  1  0
  2  3  2  0
  2  4  2  0
  2  5  1  0
  5  6  2  0
  6  7  1  0
  7  8  1  0
  8  9  1  0
  9 10  2  0
 10 11  1  0
 11 12  1  0
 12 13  1  0
 13 14  1  0
 14 15  1  0
  9 16  1  0
 16 17  1  0
 17 18  2  0
 18 19  1  0
 19 20  2  0
 20 21  1  0
 21 22  2  0
 22 23  1  0
 23 24  2  0
 17 25  1  0
 25 26  1  0
 26  5  1  0
 25  7  2  0
 15 11  1  0
 24 19  1  0
  1 27  1  0
  1 28  1  0
  8 29  1  0
 11 30  1  6
 12 31  1  0
 12 32  1  0
 13 33  1  0
 13 34  1  0
 14 35  1  0
 15 36  1  0
 15 37  1  0
 16 38  1  0
 20 39  1  0
 21 40  1  0
 22 41  1  0
 23 42  1  0
 24 43  1  0
M  END
>  <smiles>  (50) 
NS(=O)(=O)c1nc2[nH]c(=NC3CCNC3)[nH]c(=Nc3ccccc3)c2s1

>  <score_type>  (50) 
oracle

>  <origin>  (50) 
adg

>  <m_score__min__energy>  (50) 
-8.2200000000000006

>  <m_primary>  (50) 
energy

$$$$
50:0
     RDKit          3D

 24 26  0  0  0  0  0  0  0  0999 V2000
   55.3050   29.6540   44.8560 O   0  0  0  0  0  0  0  0  0  0  0  0
   56.2630   30.3180   44.3820 C   0  0  0  0  0  0  0  0  0  0  0  0
   57.6310   30.1550   44.8980 C   0  0  0  0  0  0  0  0  0  0  0  0
   58.3990   28.9860   45.0660 C   0  0  0  0  0  0  0  0  0  0  0  0
   58.0550   27.6190   44.6290 C   0  0  0  0  0  0  0  0  0  0  0  0
   58.1090   27.2950   43.2640 C   0  0  0  0  0  0  0  0  0  0  0  0
   57.7700   26.0100   42.8300 C   0  0  0  0  0  0  0  0  0  0  0  0
   57.3600   25.0450   43.7530 C   0  0  0  0  0  0  0  0  0  0  0  0
   57.2820   25.3660   45.1110 C   0  0  0  0  0  0  0  0  0  0  0  0
   57.6200   26.6490   45.5520 C   0  0  0  0  0  0  0  0  0  0  0  0
   57.4890   26.9540   46.8680 F   0  0  0  0  0  0  0  0  0  0  0  0
   59.5460   29.2850   45.7430 N   0  0  0  0  0  0  0  0  0  0  0  0
   59.4510   30.6100   45.9370 C   0  0  0  0  0  0  0  0  0  0  0  0
   60.3730   31.7200   46.7890 S   0  0  0  0  0  0  0  0  0  0  0  0
   59.1780   32.9100   46.4360 C   0  0  0  0  0  0  0  0  0  0  0  0
   59.2720   34.7180   47.0260 Br  0  0  0  0  0  0  0  0  0  0  0  0
   58.1330   32.4150   45.7170 N   0  0  0  0  0  0  0  0  0  0  0  0
   58.3520   31.1360   45.4560 N   0  0  0  0  0  0  0  0  0  0  0  0
   56.0743   31.0329   43.5675 H   0  0  0  0  0  0  0  0  0  0  0  0
   58.4195   28.0557   42.5326 H   0  0  0  0  0  0  0  0  0  0  0  0
   57.8262   25.7586   41.7606 H   0  0  0  0  0  0  0  0  0  0  0  0
   57.0986   24.0327   43.4111 H   0  0  0  0  0  0  0  0  0  0  0  0
   56.9535   24.6064   45.8356 H   0  0  0  0  0  0  0  0  0  0  0  0
   60.3070   28.6410   46.0540 H   0  0  0  0  0  0  0  0  0  0  0  0
  1  2  2  0
  2  3  1  0
  3  4  2  0
  4  5  1  0
  5  6  2  0
  6  7  1  0
  7  8  2  0
  8  9  1  0
  9 10  2  0
 10 11  1  0
  4 12  1  0
 12 13  2  0
 13 14  1  0
 14 15  1  0
 15 16  1  0
 15 17  2  0
 17 18  1  0
 18  3  1  0
 10  5  1  0
 18 13  1  0
  2 19  1  0
  6 20  1  0
  7 21  1  0
  8 22  1  0
  9 23  1  0
 12 24  1  0
M  CHG  1  12   1
M  END
>  <UniqueID>  (51) 
46

>  <SMILES>  (51) 
O=Cc1c(-c2ccccc2F)[nH+]c2sc(Br)nn12

>  <Energy>  (51) 
119.11037335113586

>  <Genealogy>  (51) 
O=Cc1c(-c2ccccc2F)[nH+]c2sc(Br)nn12 (protonated)
O=Cc1c(-c2ccccc2F)[nH+]c2sc(Br)nn12 (3D coordinates assigned)
O=Cc1c(-c2ccccc2F)[nH+]c2sc(Br)nn12 (optimized conformer: 119.11037335113586 kcal/mol)

>  <smiles>  (51) 
O=Cc1c(-c2ccccc2F)nc2sc(Br)nn12

>  <score_type>  (51) 
oracle

>  <origin>  (51) 
adg

>  <m_score__min__energy>  (51) 
-5.2999999999999998

>  <m_primary>  (51) 
energy

$$$$
51:0
     RDKit          3D

 48 51  0  0  0  0  0  0  0  0999 V2000
   63.7910   31.6880   49.4790 C   0  0  0  0  0  0  0  0  0  0  0  0
   62.4680   32.0020   48.9290 N   0  0  0  0  0  0  0  0  0  0  0  0
   61.3630   31.0660   49.0020 C   0  0  0  0  0  0  0  0  0  0  0  0
   61.4690   29.9280   49.8350 C   0  0  0  0  0  0  0  0  0  0  0  0
   60.4300   29.0070   49.9370 C   0  0  0  0  0  0  0  0  0  0  0  0
   59.2610   29.1950   49.2140 C   0  0  0  0  0  0  0  0  0  0  0  0
   59.1250   30.3020   48.3810 C   0  0  0  0  0  0  0  0  0  0  0  0
   60.1610   31.2550   48.2510 C   0  0  0  0  0  0  0  0  0  0  0  0
   59.9390   32.4060   47.3170 C   0  0  0  0  0  0  0  0  0  0  0  0
   58.8400   32.4030   46.5100 N   0  0  0  0  0  0  0  0  0  0  0  0
   58.5730   33.4230   45.6540 C   0  0  0  0  0  0  0  0  0  0  0  0
   57.1140   33.3650   44.6230 S   0  0  0  0  0  0  0  0  0  0  0  0
   57.7630   32.0210   43.5810 C   0  0  0  0  0  0  0  0  0  0  0  0
   57.6230   30.7210   44.3070 C   0  0  0  0  0  0  0  0  0  0  0  0
   56.5990   30.5160   45.0150 O   0  0  0  0  0  0  0  0  0  0  0  0
   58.6450   29.7180   44.1860 N   0  0  0  0  0  0  0  0  0  0  0  0
   58.7240   28.5440   45.0110 C   0  0  0  0  0  0  0  0  0  0  0  0
   59.8910   28.2990   45.7490 C   0  0  0  0  0  0  0  0  0  0  0  0
   59.9820   27.1780   46.5770 C   0  0  0  0  0  0  0  0  0  0  0  0
   58.9040   26.2970   46.6860 C   0  0  0  0  0  0  0  0  0  0  0  0
   57.7250   26.5360   45.9690 C   0  0  0  0  0  0  0  0  0  0  0  0
   56.3540   25.4440   46.1370 S   0  0  0  0  0  0  0  0  0  0  0  0
   54.8830   26.3410   46.0050 N   0  0  0  0  0  0  0  0  0  0  0  0
   56.4090   24.7610   47.4750 O   0  0  0  0  0  0  0  0  0  0  0  0
   56.3990   24.3970   45.0590 O   0  0  0  0  0  0  0  0  0  0  0  0
   57.6310   27.6660   45.1430 C   0  0  0  0  0  0  0  0  0  0  0  0
   59.4130   34.4850   45.5820 N   0  0  0  0  0  0  0  0  0  0  0  0
   60.5220   34.5420   46.3600 C   0  0  0  0  0  0  0  0  0  0  0  0
   60.8110   33.5000   47.2450 C   0  0  0  0  0  0  0  0  0  0  0  0
   62.2380   33.5660   48.2330 S   0  0  0  0  0  0  0  0  0  0  0  0
   63.4170   33.9190   47.3700 O   0  0  0  0  0  0  0  0  0  0  0  0
   62.0640   34.5880   49.3210 O   0  0  0  0  0  0  0  0  0  0  0  0
   63.7434   31.6993   50.5779 H   0  0  0  0  0  0  0  0  0  0  0  0
   64.1035   30.6907   49.1358 H   0  0  0  0  0  0  0  0  0  0  0  0
   64.5183   32.4385   49.1358 H   0  0  0  0  0  0  0  0  0  0  0  0
   62.3906   29.7674   50.4137 H   0  0  0  0  0  0  0  0  0  0  0  0
   60.5361   28.1293   50.5915 H   0  0  0  0  0  0  0  0  0  0  0  0
   58.4400   28.4679   49.2991 H   0  0  0  0  0  0  0  0  0  0  0  0
   58.1930   30.4379   47.8127 H   0  0  0  0  0  0  0  0  0  0  0  0
   57.1954   31.9791   42.6397 H   0  0  0  0  0  0  0  0  0  0  0  0
   58.8243   32.2066   43.3590 H   0  0  0  0  0  0  0  0  0  0  0  0
   59.3280   29.8140   43.4010 H   0  0  0  0  0  0  0  0  0  0  0  0
   60.7402   28.9943   45.6753 H   0  0  0  0  0  0  0  0  0  0  0  0
   60.9050   26.9886   47.1446 H   0  0  0  0  0  0  0  0  0  0  0  0
   58.9811   25.4133   47.3365 H   0  0  0  0  0  0  0  0  0  0  0  0
   55.1390   27.3530   46.0520 H   0  0  0  0  0  0  0  0  0  0  0  0
   56.6984   27.8673   44.5955 H   0  0  0  0  0  0  0  0  0  0  0  0
   61.1950   35.4096   46.2944 H   0  0  0  0  0  0  0  0  0  0  0  0
  1  2  1  0
  2  3  1  0
  3  4  2  0
  4  5  1  0
  5  6  2  0
  6  7  1  0
  7  8  2  0
  8  9  1  0
  9 10  2  0
 10 11  1  0
 11 12  1  0
 12 13  1  0
 13 14  1  0
 14 15  2  0
 14 16  1  0
 16 17  1  0
 17 18  2  0
 18 19  1  0
 19 20  2  0
 20 21  1  0
 21 22  1  0
 22 23  1  0
 22 24  2  0
 22 25  2  0
 21 26  2  0
 11 27  2  0
 27 28  1  0
 28 29  2  0
 29 30  1  0
 30 31  2  0
 30 32  2  0
 30  2  1  0
  8  3  1  0
 29  9  1  0
 26 17  1  0
  1 33  1  0
  1 34  1  0
  1 35  1  0
  4 36  1  0
  5 37  1  0
  6 38  1  0
  7 39  1  0
 13 40  1  0
 13 41  1  0
 16 42  1  0
 18 43  1  0
 19 44  1  0
 20 45  1  0
 23 46  1  0
 26 47  1  0
 28 48  1  0
M  CHG  1  23  -1
M  END
>  <UniqueID>  (52) 
47

>  <SMILES>  (52) 
CN1c2ccccc2-c2nc(SCC(=O)Nc3cccc(S([NH-])(=O)=O)c3)ncc2S1(=O)=O

>  <Energy>  (52) 
60.73725499532239

>  <Genealogy>  (52) 
CN1c2ccccc2-c2nc(SCC(=O)Nc3cccc(S([NH-])(=O)=O)c3)ncc2S1(=O)=O (protonated)
CN1c2ccccc2-c2nc(SCC(=O)Nc3cccc(S([NH-])(=O)=O)c3)ncc2S1(=O)=O (3D coordinates assigned)
CN1c2ccccc2-c2nc(SCC(=O)Nc3cccc(S([NH-])(=O)=O)c3)ncc2S1(=O)=O (nonaromatic ring conformer: 60.73725499532239 kcal/mol)

>  <smiles>  (52) 
CN1c2ccccc2-c2nc(SCC(=O)Nc3cccc(S(N)(=O)=O)c3)ncc2S1(=O)=O

>  <score_type>  (52) 
oracle

>  <origin>  (52) 
adg

>  <m_score__min__energy>  (52) 
-14.02

>  <m_primary>  (52) 
energy

$$$$
52:0
     RDKit          3D

 49 52  0  0  0  0  0  0  0  0999 V2000
   66.2850   31.3110   50.8950 C   0  0  0  0  0  0  0  0  0  0  0  0
   65.7890   32.5220   50.1700 C   0  0  0  0  0  0  0  0  0  0  0  0
   66.4650   33.5870   50.2180 O   0  0  0  0  0  0  0  0  0  0  0  0
   64.5230   32.4790   49.4080 C   0  0  0  0  0  0  0  0  0  0  0  0
   63.3930   31.8200   49.9140 C   0  0  0  0  0  0  0  0  0  0  0  0
   62.2140   31.8000   49.1660 C   0  0  0  0  0  0  0  0  0  0  0  0
   62.1630   32.4250   47.9110 C   0  0  0  0  0  0  0  0  0  0  0  0
   60.9100   32.4150   47.1220 C   0  0  0  0  0  0  0  0  0  0  0  0
   60.4470   33.4730   46.3480 C   0  0  0  0  0  0  0  0  0  0  0  0
   59.3020   33.1000   45.7580 N   0  0  0  0  0  0  0  0  0  0  0  0
   58.5320   33.8350   44.9610 N   0  0  0  0  0  0  0  0  0  0  0  0
   57.3710   33.3000   44.4950 C   0  0  0  0  0  0  0  0  0  0  0  0
   57.0080   32.0390   44.8680 N   0  0  0  0  0  0  0  0  0  0  0  0
   57.7980   31.2810   45.6850 C   0  0  0  0  0  0  0  0  0  0  0  0
   57.4190   30.1050   46.0950 N   0  0  0  0  0  0  0  0  0  0  0  0
   57.5880   28.8540   45.4090 C   0  0  0  0  0  0  0  0  0  0  0  0
   58.0840   28.8690   44.1010 C   0  0  0  0  0  0  0  0  0  0  0  0
   58.2430   27.6760   43.3900 C   0  0  0  0  0  0  0  0  0  0  0  0
   57.8850   26.4590   43.9740 C   0  0  0  0  0  0  0  0  0  0  0  0
   57.3420   26.4290   45.2680 C   0  0  0  0  0  0  0  0  0  0  0  0
   56.9570   25.1160   45.9020 C   0  0  0  0  0  0  0  0  0  0  0  0
   55.4690   24.8170   45.7110 C   0  0  0  0  0  0  0  0  0  0  0  0
   55.2880   24.1290   44.5250 F   0  0  0  0  0  0  0  0  0  0  0  0
   55.0010   24.0370   46.7540 F   0  0  0  0  0  0  0  0  0  0  0  0
   54.7460   25.9940   45.6600 F   0  0  0  0  0  0  0  0  0  0  0  0
   57.1920   27.6300   45.9810 C   0  0  0  0  0  0  0  0  0  0  0  0
   59.0010   31.8460   46.1270 C   0  0  0  0  0  0  0  0  0  0  0  0
   59.9920   31.3640   46.9780 C   0  0  0  0  0  0  0  0  0  0  0  0
   60.0340   30.0610   47.6650 C   0  0  0  0  0  0  0  0  0  0  0  0
   58.8660   29.5260   48.2880 N   0  0  0  0  0  0  0  0  0  0  0  0
   61.1000   29.3920   47.6680 O   0  0  0  0  0  0  0  0  0  0  0  0
   63.3110   33.0860   47.4470 C   0  0  0  0  0  0  0  0  0  0  0  0
   64.4460   33.0950   48.1950 N   0  0  0  0  0  0  0  0  0  0  0  0
   66.2161   31.4793   51.9799 H   0  0  0  0  0  0  0  0  0  0  0  0
   65.6707   30.4412   50.6191 H   0  0  0  0  0  0  0  0  0  0  0  0
   67.3329   31.1221   50.6191 H   0  0  0  0  0  0  0  0  0  0  0  0
   63.4353   31.3220   50.8939 H   0  0  0  0  0  0  0  0  0  0  0  0
   61.3221   31.2924   49.5622 H   0  0  0  0  0  0  0  0  0  0  0  0
   60.9374   34.4515   46.2381 H   0  0  0  0  0  0  0  0  0  0  0  0
   56.7271   33.8824   43.8196 H   0  0  0  0  0  0  0  0  0  0  0  0
   58.3507   29.8260   43.6288 H   0  0  0  0  0  0  0  0  0  0  0  0
   58.6509   27.6958   42.3686 H   0  0  0  0  0  0  0  0  0  0  0  0
   58.0290   25.5208   43.4181 H   0  0  0  0  0  0  0  0  0  0  0  0
   57.5459   24.3097   45.4403 H   0  0  0  0  0  0  0  0  0  0  0  0
   57.1606   25.1806   46.9811 H   0  0  0  0  0  0  0  0  0  0  0  0
   56.7621   27.6140   46.9934 H   0  0  0  0  0  0  0  0  0  0  0  0
   58.9090   28.6150   48.7950 H   0  0  0  0  0  0  0  0  0  0  0  0
   57.9440   30.0090   48.1970 H   0  0  0  0  0  0  0  0  0  0  0  0
   63.2921   33.5989   46.4741 H   0  0  0  0  0  0  0  0  0  0  0  0
  1  2  1  0
  2  3  2  0
  2  4  1  0
  4  5  2  0
  5  6  1  0
  6  7  2  0
  7  8  1  0
  8  9  2  0
  9 10  1  0
 10 11  1  0
 11 12  2  0
 12 13  1  0
 13 14  1  0
 14 15  2  3
 15 16  1  0
 16 17  2  0
 17 18  1  0
 18 19  2  0
 19 20  1  0
 20 21  1  0
 21 22  1  0
 22 23  1  0
 22 24  1  0
 22 25  1  0
 20 26  2  0
 14 27  1  0
 27 28  2  0
 28 29  1  0
 29 30  1  0
 29 31  2  0
  7 32  1  0
 32 33  2  0
 33  4  1  0
 28  8  1  0
 27 10  1  0
 26 16  1  0
  1 34  1  0
  1 35  1  0
  1 36  1  0
  5 37  1  0
  6 38  1  0
  9 39  1  0
 12 40  1  0
 17 41  1  0
 18 42  1  0
 19 43  1  0
 21 44  1  0
 21 45  1  0
 26 46  1  0
 30 47  1  0
 30 48  1  0
 32 49  1  0
M  CHG  1  13  -1
M  END
>  <UniqueID>  (53) 
48

>  <SMILES>  (53) 
CC(=O)c1ccc(-c2cn3nc[n-]c(=Nc4cccc(CC(F)(F)F)c4)c3c2C(N)=O)cn1

>  <Energy>  (53) 
99.66367988739314

>  <Genealogy>  (53) 
CC(=O)c1ccc(-c2cn3nc[n-]c(=Nc4cccc(CC(F)(F)F)c4)c3c2C(N)=O)cn1 (protonated)
CC(=O)c1ccc(-c2cn3nc[n-]c(=Nc4cccc(CC(F)(F)F)c4)c3c2C(N)=O)cn1 (3D coordinates assigned)
CC(=O)c1ccc(-c2cn3nc[n-]c(=Nc4cccc(CC(F)(F)F)c4)c3c2C(N)=O)cn1 (optimized conformer: 99.66367988739314 kcal/mol)

>  <smiles>  (53) 
CC(=O)c1ccc(-c2cn3nc[nH]c(=Nc4cccc(CC(F)(F)F)c4)c3c2C(N)=O)cn1

>  <score_type>  (53) 
oracle

>  <origin>  (53) 
adg

>  <m_score__min__energy>  (53) 
-9.0899999999999999

>  <m_primary>  (53) 
energy

$$$$
53:0
     RDKit          3D

 37 39  0  0  0  0  0  0  0  0999 V2000
   56.7830   31.9720   51.3180 N   0  0  0  0  0  0  0  0  0  0  0  0
   57.8850   30.6450   51.4160 S   0  0  0  0  0  0  0  0  0  0  0  0
   57.1340   29.3940   51.7760 O   0  0  0  0  0  0  0  0  0  0  0  0
   58.9040   30.9190   52.4870 O   0  0  0  0  0  0  0  0  0  0  0  0
   58.6940   30.4310   49.8660 C   0  0  0  0  0  0  0  0  0  0  0  0
   59.1220   29.1580   49.4650 C   0  0  0  0  0  0  0  0  0  0  0  0
   59.7520   28.9860   48.2300 C   0  0  0  0  0  0  0  0  0  0  0  0
   59.9680   30.0820   47.3800 C   0  0  0  0  0  0  0  0  0  0  0  0
   60.6260   29.8730   46.1170 N   0  0  0  0  0  0  0  0  0  0  0  0
   60.1380   28.9710   45.0710 C   0  0  0  0  0  0  0  0  0  0  0  0
   58.6370   28.7870   45.1710 C   0  0  0  0  0  0  0  0  0  0  0  0
   57.8010   29.8500   44.7890 C   0  0  0  0  0  0  0  0  0  0  0  0
   56.4140   29.7010   44.8290 C   0  0  0  0  0  0  0  0  0  0  0  0
   55.6670   30.6510   44.4790 O   0  0  0  0  0  0  0  0  0  0  0  0
   55.8670   28.5320   45.2430 N   0  0  0  0  0  0  0  0  0  0  0  0
   56.6300   27.4790   45.6360 C   0  0  0  0  0  0  0  0  0  0  0  0
   56.0090   26.3000   46.0610 C   0  0  0  0  0  0  0  0  0  0  0  0
   56.7780   25.2120   46.4780 C   0  0  0  0  0  0  0  0  0  0  0  0
   58.1710   25.2990   46.4780 C   0  0  0  0  0  0  0  0  0  0  0  0
   58.8050   26.4710   46.0560 C   0  0  0  0  0  0  0  0  0  0  0  0
   58.0450   27.5780   45.6200 C   0  0  0  0  0  0  0  0  0  0  0  0
   59.5150   31.3540   47.7780 C   0  0  0  0  0  0  0  0  0  0  0  0
   58.8850   31.5240   49.0140 C   0  0  0  0  0  0  0  0  0  0  0  0
   55.8240   31.5660   51.2340 H   0  0  0  0  0  0  0  0  0  0  0  0
   56.9790   32.4650   50.4180 H   0  0  0  0  0  0  0  0  0  0  0  0
   58.9615   28.2923   50.1243 H   0  0  0  0  0  0  0  0  0  0  0  0
   60.0816   27.9831   47.9210 H   0  0  0  0  0  0  0  0  0  0  0  0
   61.4670   30.4520   45.8970 H   0  0  0  0  0  0  0  0  0  0  0  0
   60.3838   29.3953   44.0863 H   0  0  0  0  0  0  0  0  0  0  0  0
   60.6210   27.9911   45.1992 H   0  0  0  0  0  0  0  0  0  0  0  0
   58.2411   30.8021   44.4576 H   0  0  0  0  0  0  0  0  0  0  0  0
   54.9113   26.2298   46.0667 H   0  0  0  0  0  0  0  0  0  0  0  0
   56.2855   24.2851   46.8070 H   0  0  0  0  0  0  0  0  0  0  0  0
   58.7729   24.4409   46.8118 H   0  0  0  0  0  0  0  0  0  0  0  0
   59.9033   26.5312   46.0636 H   0  0  0  0  0  0  0  0  0  0  0  0
   59.6576   32.2185   47.1129 H   0  0  0  0  0  0  0  0  0  0  0  0
   58.5376   32.5223   49.3184 H   0  0  0  0  0  0  0  0  0  0  0  0
  1  2  1  0
  2  3  2  0
  2  4  2  0
  2  5  1  0
  5  6  2  0
  6  7  1  0
  7  8  2  0
  8  9  1  0
  9 10  1  0
 10 11  1  0
 11 12  2  0
 12 13  1  0
 13 14  2  0
 13 15  1  0
 15 16  1  0
 16 17  2  0
 17 18  1  0
 18 19  2  0
 19 20  1  0
 20 21  2  0
  8 22  1  0
 22 23  2  0
 23  5  1  0
 21 11  1  0
 21 16  1  0
  1 24  1  0
  1 25  1  0
  6 26  1  0
  7 27  1  0
  9 28  1  0
 10 29  1  0
 10 30  1  0
 12 31  1  0
 17 32  1  0
 18 33  1  0
 19 34  1  0
 20 35  1  0
 22 36  1  0
 23 37  1  0
M  CHG  1  15  -1
M  END
>  <UniqueID>  (54) 
49

>  <SMILES>  (54) 
NS(=O)(=O)c1ccc(NCc2cc(=O)[n-]c3ccccc23)cc1

>  <Energy>  (54) 
43.314812489029435

>  <Genealogy>  (54) 
NS(=O)(=O)c1ccc(NCc2cc(=O)[n-]c3ccccc23)cc1 (protonated)
NS(=O)(=O)c1ccc(NCc2cc(=O)[n-]c3ccccc23)cc1 (3D coordinates assigned)
NS(=O)(=O)c1ccc(NCc2cc(=O)[n-]c3ccccc23)cc1 (optimized conformer: 43.314812489029435 kcal/mol)

>  <smiles>  (54) 
NS(=O)(=O)c1ccc(NCc2cc(=O)[nH]c3ccccc23)cc1

>  <score_type>  (54) 
oracle

>  <origin>  (54) 
adg

>  <m_score__min__energy>  (54) 
-9.9199999999999999

>  <m_primary>  (54) 
energy

$$$$
54:0
     RDKit          3D

 33 34  0  0  0  0  0  0  0  0999 V2000
   54.9300   26.3020   45.9960 N   0  0  0  0  0  0  0  0  0  0  0  0
   56.6380   26.0380   45.9830 S   0  0  0  0  0  0  0  0  0  0  0  0
   57.0380   25.4290   44.6690 O   0  0  0  0  0  0  0  0  0  0  0  0
   57.0100   25.0890   47.0860 O   0  0  0  0  0  0  0  0  0  0  0  0
   57.4710   27.5720   46.2080 C   0  0  0  0  0  0  0  0  0  0  0  0
   57.1980   28.6560   45.3640 C   0  0  0  0  0  0  0  0  0  0  0  0
   57.8500   29.8780   45.5530 C   0  0  0  0  0  0  0  0  0  0  0  0
   58.7910   30.0300   46.5830 C   0  0  0  0  0  0  0  0  0  0  0  0
   59.4280   31.3050   46.7730 N   0  0  0  0  0  0  0  0  0  0  0  0
   58.7340   32.5610   46.7400 C   0  0  0  0  0  0  0  0  0  0  0  0
   57.4800   32.6040   46.8610 O   0  0  0  0  0  0  0  0  0  0  0  0
   59.4970   33.8410   46.5660 C   0  0  0  0  0  0  0  0  0  0  0  0
   60.8570   33.7260   47.2090 C   0  0  0  0  0  0  0  0  0  0  0  0
   61.9930   33.5980   46.3900 C   0  0  0  0  0  0  0  0  0  0  0  0
   63.2630   33.4570   46.9570 C   0  0  0  0  0  0  0  0  0  0  0  0
   63.4120   33.4310   48.3430 C   0  0  0  0  0  0  0  0  0  0  0  0
   62.2910   33.5420   49.1690 C   0  0  0  0  0  0  0  0  0  0  0  0
   61.0130   33.6850   48.6130 C   0  0  0  0  0  0  0  0  0  0  0  0
   59.6400   33.8030   49.7080 Cl  0  0  0  0  0  0  0  0  0  0  0  0
   59.0400   28.9490   47.4480 C   0  0  0  0  0  0  0  0  0  0  0  0
   58.3870   27.7280   47.2580 C   0  0  0  0  0  0  0  0  0  0  0  0
   54.7440   27.0510   46.7020 H   0  0  0  0  0  0  0  0  0  0  0  0
   56.4675   28.5452   44.5491 H   0  0  0  0  0  0  0  0  0  0  0  0
   57.6240   30.7261   44.8900 H   0  0  0  0  0  0  0  0  0  0  0  0
   60.4470   31.3140   47.0080 H   0  0  0  0  0  0  0  0  0  0  0  0
   59.6185   34.0490   45.4927 H   0  0  0  0  0  0  0  0  0  0  0  0
   58.9404   34.6597   47.0455 H   0  0  0  0  0  0  0  0  0  0  0  0
   61.8815   33.6089   45.2957 H   0  0  0  0  0  0  0  0  0  0  0  0
   64.1467   33.3664   46.3082 H   0  0  0  0  0  0  0  0  0  0  0  0
   64.4129   33.3230   48.7863 H   0  0  0  0  0  0  0  0  0  0  0  0
   62.4123   33.5170   50.2620 H   0  0  0  0  0  0  0  0  0  0  0  0
   59.7523   29.0653   48.2782 H   0  0  0  0  0  0  0  0  0  0  0  0
   58.5926   26.8858   47.9351 H   0  0  0  0  0  0  0  0  0  0  0  0
  1  2  1  0
  2  3  2  0
  2  4  2  0
  2  5  1  0
  5  6  2  0
  6  7  1  0
  7  8  2  0
  8  9  1  0
  9 10  1  0
 10 11  2  0
 10 12  1  0
 12 13  1  0
 13 14  2  0
 14 15  1  0
 15 16  2  0
 16 17  1  0
 17 18  2  0
 18 19  1  0
  8 20  1  0
 20 21  2  0
 21  5  1  0
 18 13  1  0
  1 22  1  0
  6 23  1  0
  7 24  1  0
  9 25  1  0
 12 26  1  0
 12 27  1  0
 14 28  1  0
 15 29  1  0
 16 30  1  0
 17 31  1  0
 20 32  1  0
 21 33  1  0
M  CHG  1   1  -1
M  END
>  <UniqueID>  (55) 
50

>  <SMILES>  (55) 
[NH-]S(=O)(=O)c1ccc(NC(=O)Cc2ccccc2Cl)cc1

>  <Energy>  (55) 
35.85488930988007

>  <Genealogy>  (55) 
[NH-]S(=O)(=O)c1ccc(NC(=O)Cc2ccccc2Cl)cc1 (protonated)
[NH-]S(=O)(=O)c1ccc(NC(=O)Cc2ccccc2Cl)cc1 (3D coordinates assigned)
[NH-]S(=O)(=O)c1ccc(NC(=O)Cc2ccccc2Cl)cc1 (optimized conformer: 35.85488930988007 kcal/mol)

>  <smiles>  (55) 
NS(=O)(=O)c1ccc(NC(=O)Cc2ccccc2Cl)cc1

>  <score_type>  (55) 
oracle

>  <origin>  (55) 
adg

>  <m_score__min__energy>  (55) 
-10.460000000000001

>  <m_primary>  (55) 
energy

$$$$
55:0
     RDKit          3D

 42 44  0  0  0  0  0  0  0  0999 V2000
   62.2100   33.7940   46.7640 C   0  0  0  0  0  0  0  0  0  0  0  0
   60.8240   33.8430   47.2470 N   0  0  0  0  0  0  0  0  0  0  0  0
   60.4940   33.2330   48.5410 C   0  0  0  0  0  0  0  0  0  0  0  0
   60.1440   31.7910   48.3510 C   0  0  0  0  0  0  0  0  0  0  0  0
   58.9080   31.2160   48.6180 C   0  0  0  0  0  0  0  0  0  0  0  0
   58.8930   29.8300   48.4220 C   0  0  0  0  0  0  0  0  0  0  0  0
   60.1170   29.3120   48.0150 C   0  0  0  0  0  0  0  0  0  0  0  0
   61.2170   30.5790   47.9040 S   0  0  0  0  0  0  0  0  0  0  0  0
   59.7770   34.4350   46.4420 C   0  0  0  0  0  0  0  0  0  0  0  0
   59.8650   35.6410   46.0830 O   0  0  0  0  0  0  0  0  0  0  0  0
   58.5830   33.6440   45.9910 C   0  0  0  0  0  0  0  0  0  0  0  0
   58.8910   32.9620   44.7320 N   0  0  0  0  0  0  0  0  0  0  0  0
   57.5440   31.9810   44.2450 S   0  0  0  0  0  0  0  0  0  0  0  0
   57.3720   32.0720   42.7550 O   0  0  0  0  0  0  0  0  0  0  0  0
   56.2850   32.4760   44.9050 O   0  0  0  0  0  0  0  0  0  0  0  0
   57.8540   30.3050   44.6870 C   0  0  0  0  0  0  0  0  0  0  0  0
   59.1570   29.7860   44.6540 C   0  0  0  0  0  0  0  0  0  0  0  0
   59.3890   28.4410   44.9590 C   0  0  0  0  0  0  0  0  0  0  0  0
   58.3160   27.6040   45.2950 C   0  0  0  0  0  0  0  0  0  0  0  0
   58.5180   26.2500   45.5980 C   0  0  0  0  0  0  0  0  0  0  0  0
   57.4250   25.4430   45.9230 C   0  0  0  0  0  0  0  0  0  0  0  0
   56.1410   25.9960   45.9410 C   0  0  0  0  0  0  0  0  0  0  0  0
   55.1480   25.2790   46.2310 O   0  0  0  0  0  0  0  0  0  0  0  0
   55.9600   27.3110   45.6440 N   0  0  0  0  0  0  0  0  0  0  0  0
   57.0040   28.1230   45.3250 C   0  0  0  0  0  0  0  0  0  0  0  0
   56.7800   29.4700   45.0220 C   0  0  0  0  0  0  0  0  0  0  0  0
   62.8969   33.7697   47.6228 H   0  0  0  0  0  0  0  0  0  0  0  0
   62.3539   32.8902   46.1537 H   0  0  0  0  0  0  0  0  0  0  0  0
   62.4173   34.6854   46.1537 H   0  0  0  0  0  0  0  0  0  0  0  0
   61.3612   33.3121   49.2130 H   0  0  0  0  0  0  0  0  0  0  0  0
   59.6335   33.7592   48.9799 H   0  0  0  0  0  0  0  0  0  0  0  0
   58.0308   31.7909   48.9495 H   0  0  0  0  0  0  0  0  0  0  0  0
   57.9976   29.2097   48.5755 H   0  0  0  0  0  0  0  0  0  0  0  0
   60.3297   28.2540   47.8019 H   0  0  0  0  0  0  0  0  0  0  0  0
   58.3272   32.8982   46.7580 H   0  0  0  0  0  0  0  0  0  0  0  0
   57.7315   34.3236   45.8389 H   0  0  0  0  0  0  0  0  0  0  0  0
   59.0320   33.6890   43.9920 H   0  0  0  0  0  0  0  0  0  0  0  0
   60.0001   30.4401   44.3870 H   0  0  0  0  0  0  0  0  0  0  0  0
   60.4131   28.0401   44.9352 H   0  0  0  0  0  0  0  0  0  0  0  0
   59.5325   25.8251   45.5799 H   0  0  0  0  0  0  0  0  0  0  0  0
   57.5735   24.3798   46.1631 H   0  0  0  0  0  0  0  0  0  0  0  0
   55.7576   29.8750   45.0468 H   0  0  0  0  0  0  0  0  0  0  0  0
  1  2  1  0
  2  3  1  0
  3  4  1  0
  4  5  2  0
  5  6  1  0
  6  7  2  0
  7  8  1  0
  2  9  1  0
  9 10  2  0
  9 11  1  0
 11 12  1  0
 12 13  1  0
 13 14  2  0
 13 15  2  0
 13 16  1  0
 16 17  2  0
 17 18  1  0
 18 19  2  0
 19 20  1  0
 20 21  2  0
 21 22  1  0
 22 23  2  0
 22 24  1  0
 24 25  1  0
 25 26  2  0
  8  4  1  0
 26 16  1  0
 25 19  1  0
  1 27  1  0
  1 28  1  0
  1 29  1  0
  3 30  1  0
  3 31  1  0
  5 32  1  0
  6 33  1  0
  7 34  1  0
 11 35  1  0
 11 36  1  0
 12 37  1  0
 17 38  1  0
 18 39  1  0
 20 40  1  0
 21 41  1  0
 26 42  1  0
M  CHG  1  24  -1
M  END
>  <UniqueID>  (56) 
51

>  <SMILES>  (56) 
CN(Cc1cccs1)C(=O)CNS(=O)(=O)c1ccc2ccc(=O)[n-]c2c1

>  <Energy>  (56) 
65.8530116357465

>  <Genealogy>  (56) 
CN(Cc1cccs1)C(=O)CNS(=O)(=O)c1ccc2ccc(=O)[n-]c2c1 (protonated)
CN(Cc1cccs1)C(=O)CNS(=O)(=O)c1ccc2ccc(=O)[n-]c2c1 (3D coordinates assigned)
CN(Cc1cccs1)C(=O)CNS(=O)(=O)c1ccc2ccc(=O)[n-]c2c1 (optimized conformer: 65.8530116357465 kcal/mol)

>  <smiles>  (56) 
CN(Cc1cccs1)C(=O)CNS(=O)(=O)c1ccc2ccc(=O)[nH]c2c1

>  <score_type>  (56) 
oracle

>  <origin>  (56) 
adg

>  <m_score__min__energy>  (56) 
-10.65

>  <m_primary>  (56) 
energy

$$$$
56:0
     RDKit          3D

 72 76  0  0  0  0  0  0  0  0999 V2000
   59.9130   33.4270   52.6290 C   0  0  0  0  0  0  0  0  0  0  0  0
   59.4240   33.2710   51.2550 N   0  0  0  0  0  0  0  0  0  0  0  0
   58.6530   32.0270   51.0850 C   0  0  0  0  0  0  0  0  0  0  0  0
   59.4890   30.9270   50.4760 C   0  0  0  0  0  0  0  0  0  0  0  0
   60.8210   30.7340   50.8760 C   0  0  0  0  0  0  0  0  0  0  0  0
   61.5820   29.7030   50.3180 C   0  0  0  0  0  0  0  0  0  0  0  0
   61.0230   28.8610   49.3520 C   0  0  0  0  0  0  0  0  0  0  0  0
   59.6960   29.0480   48.9330 C   0  0  0  0  0  0  0  0  0  0  0  0
   59.1060   28.1620   47.9030 C   0  0  0  0  0  0  0  0  0  0  0  0
   59.1880   26.7560   48.0180 C   0  0  0  0  0  0  0  0  0  0  0  0
   58.5880   25.9430   47.0920 N   0  0  0  0  0  0  0  0  0  0  0  0
   57.9020   26.4450   46.0220 C   0  0  0  0  0  0  0  0  0  0  0  0
   57.3360   25.6510   45.1720 N   0  0  0  0  0  0  0  0  0  0  0  0
   57.8290   27.8290   45.8760 C   0  0  0  0  0  0  0  0  0  0  0  0
   57.2000   28.5280   44.9140 N   0  0  0  0  0  0  0  0  0  0  0  0
   57.4020   29.8310   45.2210 C   0  0  0  0  0  0  0  0  0  0  0  0
   56.7830   30.9500   44.4950 C   0  0  0  0  0  0  0  0  0  0  0  0
   55.5300   31.0030   44.3760 O   0  0  0  0  0  0  0  0  0  0  0  0
   57.5950   31.9890   43.9340 N   0  0  0  0  0  0  0  0  0  0  0  0
   57.7020   33.3370   44.5040 C   0  0  2  0  0  0  0  0  0  0  0  0
   59.1890   33.7460   44.6320 C   0  0  0  0  0  0  0  0  0  0  0  0
   59.4340   34.8230   45.6980 C   0  0  0  0  0  0  0  0  0  0  0  0
   58.8510   34.4600   47.0920 C   0  0  2  0  0  0  0  0  0  0  0  0
   59.9170   34.2330   48.1490 C   0  0  0  0  0  0  0  0  0  0  0  0
   59.8000   34.8460   49.2460 O   0  0  0  0  0  0  0  0  0  0  0  0
   61.0210   33.3210   47.9810 N   0  0  0  0  0  0  0  0  0  0  0  0
   60.9140   31.9470   47.5170 C   0  0  0  0  0  0  0  0  0  0  0  0
   62.3250   31.5380   47.1220 C   0  0  0  0  0  0  0  0  0  0  0  0
   63.2560   32.5220   47.8280 C   0  0  2  0  0  0  0  0  0  0  0  0
   63.6300   31.9770   49.0820 O   0  0  0  0  0  0  0  0  0  0  0  0
   64.7190   32.6960   49.6210 C   0  0  0  0  0  0  0  0  0  0  0  0
   62.4020   33.7710   48.0360 C   0  0  0  0  0  0  0  0  0  0  0  0
   57.8100   33.3210   47.0600 C   0  0  0  0  0  0  0  0  0  0  0  0
   56.9070   33.4540   45.8300 C   0  0  0  0  0  0  0  0  0  0  0  0
   58.1770   29.9560   46.3710 C   0  0  0  0  0  0  0  0  0  0  0  0
   58.4200   28.6610   46.7880 C   0  0  0  0  0  0  0  0  0  0  0  0
   58.9280   30.0730   49.5140 C   0  0  0  0  0  0  0  0  0  0  0  0
   59.1097   33.1707   53.3354 H   0  0  0  0  0  0  0  0  0  0  0  0
   60.7710   32.7580   52.7910 H   0  0  0  0  0  0  0  0  0  0  0  0
   60.2251   34.4693   52.7910 H   0  0  0  0  0  0  0  0  0  0  0  0
   60.2490   33.2450   50.6120 H   0  0  0  0  0  0  0  0  0  0  0  0
   58.8380   34.0990   50.9990 H   0  0  0  0  0  0  0  0  0  0  0  0
   58.2909   31.6954   52.0693 H   0  0  0  0  0  0  0  0  0  0  0  0
   57.8143   32.2353   50.4044 H   0  0  0  0  0  0  0  0  0  0  0  0
   61.2675   31.3970   51.6317 H   0  0  0  0  0  0  0  0  0  0  0  0
   62.6233   29.5537   50.6397 H   0  0  0  0  0  0  0  0  0  0  0  0
   61.6251   28.0489   48.9185 H   0  0  0  0  0  0  0  0  0  0  0  0
   59.7388   26.3096   48.8590 H   0  0  0  0  0  0  0  0  0  0  0  0
   56.6060   25.9970   44.5080 H   0  0  0  0  0  0  0  0  0  0  0  0
   56.6390   28.1450   44.1200 H   0  0  0  0  0  0  0  0  0  0  0  0
   57.2340   34.0590   43.8186 H   0  0  0  0  0  0  0  0  0  0  0  0
   59.5293   34.1331   43.6602 H   0  0  0  0  0  0  0  0  0  0  0  0
   59.7475   32.8499   44.9405 H   0  0  0  0  0  0  0  0  0  0  0  0
   58.9684   35.7603   45.3593 H   0  0  0  0  0  0  0  0  0  0  0  0
   60.5234   34.9175   45.8177 H   0  0  0  0  0  0  0  0  0  0  0  0
   58.2967   35.3599   47.3969 H   0  0  0  0  0  0  0  0  0  0  0  0
   60.5371   31.2983   48.3214 H   0  0  0  0  0  0  0  0  0  0  0  0
   60.2126   31.8551   46.6747 H   0  0  0  0  0  0  0  0  0  0  0  0
   62.5325   30.5096   47.4527 H   0  0  0  0  0  0  0  0  0  0  0  0
   62.4631   31.5613   46.0309 H   0  0  0  0  0  0  0  0  0  0  0  0
   64.1741   32.7359   47.2611 H   0  0  0  0  0  0  0  0  0  0  0  0
   64.6714   32.6646   50.7195 H   0  0  0  0  0  0  0  0  0  0  0  0
   65.6619   32.2423   49.2817 H   0  0  0  0  0  0  0  0  0  0  0  0
   64.6722   33.7413   49.2817 H   0  0  0  0  0  0  0  0  0  0  0  0
   62.6184   34.2242   49.0147 H   0  0  0  0  0  0  0  0  0  0  0  0
   62.6094   34.5347   47.2720 H   0  0  0  0  0  0  0  0  0  0  0  0
   57.1927   33.3691   47.9692 H   0  0  0  0  0  0  0  0  0  0  0  0
   58.3383   32.3574   47.0110 H   0  0  0  0  0  0  0  0  0  0  0  0
   56.4102   34.4350   45.8597 H   0  0  0  0  0  0  0  0  0  0  0  0
   56.1751   32.6334   45.8583 H   0  0  0  0  0  0  0  0  0  0  0  0
   58.5220   30.8863   46.8459 H   0  0  0  0  0  0  0  0  0  0  0  0
   57.8788   30.2064   49.2118 H   0  0  0  0  0  0  0  0  0  0  0  0
  1  2  1  0
  2  3  1  0
  3  4  1  0
  4  5  2  0
  5  6  1  0
  6  7  2  0
  7  8  1  0
  8  9  1  0
  9 10  2  0
 10 11  1  0
 11 12  1  0
 12 13  2  3
 12 14  1  0
 14 15  1  0
 15 16  1  0
 16 17  1  0
 17 18  2  0
 17 19  1  0
 19 20  1  0
 20 21  1  0
 21 22  1  0
 22 23  1  0
 23 24  1  0
 24 25  2  0
 24 26  1  0
 26 27  1  0
 27 28  1  0
 28 29  1  0
 29 30  1  0
 30 31  1  0
 29 32  1  0
 23 33  1  0
 33 34  1  0
 16 35  2  0
 35 36  1  0
  8 37  2  0
 37  4  1  0
 36  9  1  0
 36 14  2  0
 34 20  1  0
 32 26  1  0
  1 38  1  0
  1 39  1  0
  1 40  1  0
  2 41  1  0
  2 42  1  0
  3 43  1  0
  3 44  1  0
  5 45  1  0
  6 46  1  0
  7 47  1  0
 10 48  1  0
 13 49  1  0
 15 50  1  0
 20 51  1  6
 21 52  1  0
 21 53  1  0
 22 54  1  0
 22 55  1  0
 23 56  1  1
 27 57  1  0
 27 58  1  0
 28 59  1  0
 28 60  1  0
 29 61  1  6
 31 62  1  0
 31 63  1  0
 31 64  1  0
 32 65  1  0
 32 66  1  0
 33 67  1  0
 33 68  1  0
 34 69  1  0
 34 70  1  0
 35 71  1  0
 37 72  1  0
M  CHG  3   2   1  11  -1  19  -1
M  END
>  <UniqueID>  (57) 
52

>  <SMILES>  (57) 
C[NH2+]Cc1cccc(-c2c[n-]c(=N)c3[nH]c(C(=O)[N-]C4CCC(C(=O)N5CC[C@H](OC)C5)CC4)cc23)c1

>  <Energy>  (57) 
124.814537797715

>  <Genealogy>  (57) 
C[NH2+]Cc1cccc(-c2c[n-]c(=N)c3[nH]c(C(=O)[N-]C4CCC(C(=O)N5CCC(OC)C5)CC4)cc23)c1 (protonated)
C[NH2+]Cc1cccc(-c2c[n-]c(=N)c3[nH]c(C(=O)[N-]C4CCC(C(=O)N5CC[C@H](OC)C5)CC4)cc23)c1 (chirality)
C[NH2+]Cc1cccc(-c2c[n-]c(=N)c3[nH]c(C(=O)[N-]C4CCC(C(=O)N5CC[C@H](OC)C5)CC4)cc23)c1 (3D coordinates assigned)
C[NH2+]Cc1cccc(-c2c[n-]c(=N)c3[nH]c(C(=O)[N-]C4CCC(C(=O)N5CC[C@H](OC)C5)CC4)cc23)c1 (nonaromatic ring conformer: 124.814537797715 kcal/mol)

>  <smiles>  (57) 
CNCc1cccc(-c2c[nH]c(=N)c3[nH]c(C(=O)NC4CCC(C(=O)N5CCC(OC)C5)CC4)cc23)c1

>  <score_type>  (57) 
oracle

>  <origin>  (57) 
adg

>  <m_score__min__energy>  (57) 
-10.779999999999999

>  <m_primary>  (57) 
energy

$$$$
57:0
     RDKit          3D

 70 75  0  0  0  0  0  0  0  0999 V2000
   61.2830   33.4320   52.1480 C   0  0  0  0  0  0  0  0  0  0  0  0
   60.4340   32.9160   51.1200 N   0  0  0  0  0  0  0  0  0  0  0  0
   59.6980   33.8910   50.3800 C   0  0  0  0  0  0  0  0  0  0  0  0
   60.1630   33.9700   48.9710 C   0  0  0  0  0  0  0  0  0  0  0  0
   59.2730   34.4220   48.0070 C   0  0  0  0  0  0  0  0  0  0  0  0
   59.6060   34.5340   46.6740 C   0  0  0  0  0  0  0  0  0  0  0  0
   60.8970   34.1710   46.3180 C   0  0  0  0  0  0  0  0  0  0  0  0
   61.8200   33.7150   47.2470 C   0  0  0  0  0  0  0  0  0  0  0  0
   61.4530   33.6110   48.5910 C   0  0  0  0  0  0  0  0  0  0  0  0
   59.7050   31.7330   51.4420 C   0  0  0  0  0  0  0  0  0  0  0  0
   59.6790   30.7020   50.3850 C   0  0  0  0  0  0  0  0  0  0  0  0
   59.8630   29.3820   50.8000 C   0  0  0  0  0  0  0  0  0  0  0  0
   59.8540   28.3320   49.9070 C   0  0  0  0  0  0  0  0  0  0  0  0
   59.6520   28.6290   48.5540 C   0  0  0  0  0  0  0  0  0  0  0  0
   59.6440   27.4920   47.6440 C   0  0  0  0  0  0  0  0  0  0  0  0
   60.7470   27.0570   46.9480 C   0  0  0  0  0  0  0  0  0  0  0  0
   60.6000   25.9510   46.1120 C   0  0  0  0  0  0  0  0  0  0  0  0
   59.3750   25.3020   45.9820 C   0  0  0  0  0  0  0  0  0  0  0  0
   58.2670   25.7360   46.6790 C   0  0  0  0  0  0  0  0  0  0  0  0
   56.9590   25.0880   46.5810 C   0  0  0  0  0  0  0  0  0  0  0  0
   55.9350   25.4120   45.7720 N   0  0  0  0  0  0  0  0  0  0  0  0
   54.8810   24.5720   45.9690 C   0  0  0  0  0  0  0  0  0  0  0  0
   53.6210   24.4490   45.4300 C   0  0  0  0  0  0  0  0  0  0  0  0
   52.7500   23.4440   45.8660 C   0  0  0  0  0  0  0  0  0  0  0  0
   53.1740   22.5580   46.8620 C   0  0  0  0  0  0  0  0  0  0  0  0
   54.4470   22.7140   47.3770 C   0  0  0  0  0  0  0  0  0  0  0  0
   55.3150   23.7010   46.9580 C   0  0  0  0  0  0  0  0  0  0  0  0
   56.5650   24.0160   47.3220 N   0  0  0  0  0  0  0  0  0  0  0  0
   58.4240   26.8310   47.5020 C   0  0  0  0  0  0  0  0  0  0  0  0
   59.4700   29.9330   48.1440 C   0  0  0  0  0  0  0  0  0  0  0  0
   59.2610   30.2170   46.7280 C   0  0  0  0  0  0  0  0  0  0  0  0
   60.1170   29.8580   45.8890 O   0  0  0  0  0  0  0  0  0  0  0  0
   58.0630   30.9070   46.3710 N   0  0  0  0  0  0  0  0  0  0  0  0
   57.8230   31.2040   44.9980 C   0  0  0  0  0  0  0  0  0  0  0  0
   58.3460   32.3960   44.5010 C   0  0  0  0  0  0  0  0  0  0  0  0
   58.1490   32.7510   43.1610 C   0  0  0  0  0  0  0  0  0  0  0  0
   57.4270   31.8990   42.3370 C   0  0  0  0  0  0  0  0  0  0  0  0
   57.2000   32.3680   40.6740 Cl  0  0  0  0  0  0  0  0  0  0  0  0
   56.9250   30.7270   42.8670 C   0  0  0  0  0  0  0  0  0  0  0  0
   57.1010   30.3500   44.1790 C   0  0  0  0  0  0  0  0  0  0  0  0
   59.4790   30.9890   49.0420 C   0  0  0  0  0  0  0  0  0  0  0  0
   60.8635   33.1770   53.1324 H   0  0  0  0  0  0  0  0  0  0  0  0
   62.2859   32.9905   52.0513 H   0  0  0  0  0  0  0  0  0  0  0  0
   61.3529   34.5255   52.0513 H   0  0  0  0  0  0  0  0  0  0  0  0
   58.6325   33.6179   50.3900 H   0  0  0  0  0  0  0  0  0  0  0  0
   59.8550   34.8726   50.8509 H   0  0  0  0  0  0  0  0  0  0  0  0
   58.2568   34.7034   48.3204 H   0  0  0  0  0  0  0  0  0  0  0  0
   58.8824   34.8941   45.9278 H   0  0  0  0  0  0  0  0  0  0  0  0
   61.1986   34.2476   45.2629 H   0  0  0  0  0  0  0  0  0  0  0  0
   62.8352   33.4368   46.9276 H   0  0  0  0  0  0  0  0  0  0  0  0
   62.1741   33.2501   49.3392 H   0  0  0  0  0  0  0  0  0  0  0  0
   60.1583   31.2880   52.3401 H   0  0  0  0  0  0  0  0  0  0  0  0
   58.6610   32.0481   51.5862 H   0  0  0  0  0  0  0  0  0  0  0  0
   60.0194   29.1741   51.8688 H   0  0  0  0  0  0  0  0  0  0  0  0
   60.0006   27.2959   50.2460 H   0  0  0  0  0  0  0  0  0  0  0  0
   61.7168   27.5665   47.0478 H   0  0  0  0  0  0  0  0  0  0  0  0
   61.4680   25.5842   45.5445 H   0  0  0  0  0  0  0  0  0  0  0  0
   59.2899   24.4317   45.3146 H   0  0  0  0  0  0  0  0  0  0  0  0
   53.2943   25.1490   44.6469 H   0  0  0  0  0  0  0  0  0  0  0  0
   51.7440   23.3519   45.4307 H   0  0  0  0  0  0  0  0  0  0  0  0
   52.5119   21.7584   47.2256 H   0  0  0  0  0  0  0  0  0  0  0  0
   54.7844   22.0175   48.1587 H   0  0  0  0  0  0  0  0  0  0  0  0
   57.0930   23.5000   48.0450 H   0  0  0  0  0  0  0  0  0  0  0  0
   57.5546   27.1970   48.0678 H   0  0  0  0  0  0  0  0  0  0  0  0
   57.3440   31.2100   47.0630 H   0  0  0  0  0  0  0  0  0  0  0  0
   58.9168   33.0618   45.1650 H   0  0  0  0  0  0  0  0  0  0  0  0
   58.5607   33.6919   42.7669 H   0  0  0  0  0  0  0  0  0  0  0  0
   56.3540   30.0590   42.2054 H   0  0  0  0  0  0  0  0  0  0  0  0
   56.6846   29.4070   44.5629 H   0  0  0  0  0  0  0  0  0  0  0  0
   59.3319   32.0241   48.7001 H   0  0  0  0  0  0  0  0  0  0  0  0
  1  2  1  0
  2  3  1  0
  3  4  1  0
  4  5  2  0
  5  6  1  0
  6  7  2  0
  7  8  1  0
  8  9  2  0
  2 10  1  0
 10 11  1  0
 11 12  2  0
 12 13  1  0
 13 14  2  0
 14 15  1  0
 15 16  2  0
 16 17  1  0
 17 18  2  0
 18 19  1  0
 19 20  1  0
 20 21  2  0
 21 22  1  0
 22 23  2  0
 23 24  1  0
 24 25  2  0
 25 26  1  0
 26 27  2  0
 27 28  1  0
 19 29  2  0
 14 30  1  0
 30 31  1  0
 31 32  2  0
 31 33  1  0
 33 34  1  0
 34 35  2  0
 35 36  1  0
 36 37  2  0
 37 38  1  0
 37 39  1  0
 39 40  2  0
 30 41  2  0
  9  4  1  0
 41 11  1  0
 29 15  1  0
 40 34  1  0
 28 20  1  0
 27 22  1  0
  1 42  1  0
  1 43  1  0
  1 44  1  0
  3 45  1  0
  3 46  1  0
  5 47  1  0
  6 48  1  0
  7 49  1  0
  8 50  1  0
  9 51  1  0
 10 52  1  0
 10 53  1  0
 12 54  1  0
 13 55  1  0
 16 56  1  0
 17 57  1  0
 18 58  1  0
 23 59  1  0
 24 60  1  0
 25 61  1  0
 26 62  1  0
 28 63  1  0
 29 64  1  0
 33 65  1  0
 35 66  1  0
 36 67  1  0
 39 68  1  0
 40 69  1  0
 41 70  1  0
M  END
>  <smiles>  (58) 
CN(Cc1ccccc1)Cc1ccc(-c2cccc(-c3nc4ccccc4[nH]3)c2)c(C(=O)Nc2ccc(Cl)cc2)c1

>  <score_type>  (58) 
oracle

>  <origin>  (58) 
adg

>  <m_score__min__energy>  (58) 
-10.49

>  <m_primary>  (58) 
energy

$$$$
58:0
     RDKit          3D

 38 41  0  0  0  0  0  0  0  0999 V2000
   51.0210   31.6500   49.8900 O   0  0  0  0  0  0  0  0  0  0  0  0
   51.4690   31.9420   51.0310 C   0  0  0  0  0  0  0  0  0  0  0  0
   51.0110   33.0950   51.6590 O   0  0  0  0  0  0  0  0  0  0  0  0
   52.4650   31.0720   51.6950 C   0  0  0  0  0  0  0  0  0  0  0  0
   53.7500   31.5580   51.9790 C   0  0  0  0  0  0  0  0  0  0  0  0
   54.7010   30.7540   52.6210 C   0  0  0  0  0  0  0  0  0  0  0  0
   55.9900   31.3150   52.9130 N   0  0  0  0  0  0  0  0  0  0  0  0
   57.0810   31.3380   51.9740 C   0  0  0  0  0  0  0  0  0  0  0  0
   57.5880   30.1530   51.4010 C   0  0  0  0  0  0  0  0  0  0  0  0
   58.6550   30.2030   50.4970 C   0  0  0  0  0  0  0  0  0  0  0  0
   59.2270   31.4310   50.1640 C   0  0  0  0  0  0  0  0  0  0  0  0
   58.7180   32.6150   50.7110 C   0  0  0  0  0  0  0  0  0  0  0  0
   57.6630   32.5690   51.6270 C   0  0  0  0  0  0  0  0  0  0  0  0
   59.2810   33.8380   50.3300 O   0  0  0  0  0  0  0  0  0  0  0  0
   60.1590   33.9280   49.2050 C   0  0  0  0  0  0  0  0  0  0  0  0
   61.0800   32.7010   49.1510 C   0  0  0  0  0  0  0  0  0  0  0  0
   60.3140   31.5000   49.2850 O   0  0  0  0  0  0  0  0  0  0  0  0
   54.3810   29.4170   52.9470 C   0  0  0  0  0  0  0  0  0  0  0  0
   55.3200   28.5430   53.5240 C   0  0  0  0  0  0  0  0  0  0  0  0
   54.9560   27.2340   53.8380 C   0  0  0  0  0  0  0  0  0  0  0  0
   53.6610   26.7960   53.5660 C   0  0  0  0  0  0  0  0  0  0  0  0
   52.7590   27.6350   52.9900 N   0  0  0  0  0  0  0  0  0  0  0  0
   53.0840   28.9220   52.6680 C   0  0  0  0  0  0  0  0  0  0  0  0
   52.1370   29.7530   52.0510 C   0  0  0  0  0  0  0  0  0  0  0  0
   54.0151   32.5866   51.6931 H   0  0  0  0  0  0  0  0  0  0  0  0
   56.1800   31.5910   53.9030 H   0  0  0  0  0  0  0  0  0  0  0  0
   57.1417   29.1833   51.6665 H   0  0  0  0  0  0  0  0  0  0  0  0
   59.0420   29.2756   50.0497 H   0  0  0  0  0  0  0  0  0  0  0  0
   57.2872   33.4995   52.0776 H   0  0  0  0  0  0  0  0  0  0  0  0
   59.5628   33.9756   48.2818 H   0  0  0  0  0  0  0  0  0  0  0  0
   60.7745   34.8345   49.3020 H   0  0  0  0  0  0  0  0  0  0  0  0
   61.6107   32.6875   48.1876 H   0  0  0  0  0  0  0  0  0  0  0  0
   61.8029   32.7590   49.9781 H   0  0  0  0  0  0  0  0  0  0  0  0
   56.3429   28.8926   53.7278 H   0  0  0  0  0  0  0  0  0  0  0  0
   55.6862   26.5515   54.2974 H   0  0  0  0  0  0  0  0  0  0  0  0
   53.3672   25.7665   53.8185 H   0  0  0  0  0  0  0  0  0  0  0  0
   51.8010   27.2680   52.7910 H   0  0  0  0  0  0  0  0  0  0  0  0
   51.1276   29.3681   51.8439 H   0  0  0  0  0  0  0  0  0  0  0  0
  1  2  2  0
  2  3  1  0
  2  4  1  0
  4  5  2  0
  5  6  1  0
  6  7  1  0
  7  8  1  0
  8  9  2  0
  9 10  1  0
 10 11  2  0
 11 12  1  0
 12 13  2  0
 12 14  1  0
 14 15  1  0
 15 16  1  0
 16 17  1  0
  6 18  2  0
 18 19  1  0
 19 20  2  0
 20 21  1  0
 21 22  2  0
 22 23  1  0
 23 24  2  0
 24  4  1  0
 13  8  1  0
 23 18  1  0
 17 11  1  0
  5 25  1  0
  7 26  1  0
  9 27  1  0
 10 28  1  0
 13 29  1  0
 15 30  1  0
 15 31  1  0
 16 32  1  0
 16 33  1  0
 19 34  1  0
 20 35  1  0
 21 36  1  0
 22 37  1  0
 24 38  1  0
M  CHG  2   3  -1  22   1
M  END
>  <UniqueID>  (59) 
53

>  <SMILES>  (59) 
O=C([O-])c1cc(Nc2ccc3c(c2)OCCO3)c2ccc[nH+]c2c1

>  <Energy>  (59) 
54.90797831638657

>  <Genealogy>  (59) 
O=C([O-])c1cc(Nc2ccc3c(c2)OCCO3)c2ccc[nH+]c2c1 (protonated)
O=C([O-])c1cc(Nc2ccc3c(c2)OCCO3)c2ccc[nH+]c2c1 (3D coordinates assigned)
O=C([O-])c1cc(Nc2ccc3c(c2)OCCO3)c2ccc[nH+]c2c1 (nonaromatic ring conformer: 54.90797831638657 kcal/mol)

>  <smiles>  (59) 
O=C(O)c1cc(Nc2ccc3c(c2)OCCO3)c2cccnc2c1

>  <score_type>  (59) 
oracle

>  <origin>  (59) 
adg

>  <m_score__min__energy>  (59) 
-8.5800000000000001

>  <m_primary>  (59) 
energy

$$$$
59:0
     RDKit          3D

 48 50  0  0  0  0  0  0  0  0999 V2000
   56.2670   29.7250   42.6300 C   0  0  0  0  0  0  0  0  0  0  0  0
   56.4950   29.5930   44.0960 C   0  0  0  0  0  0  0  0  0  0  0  0
   55.5150   29.6650   44.8860 O   0  0  0  0  0  0  0  0  0  0  0  0
   57.7990   29.4260   44.5780 O   0  0  0  0  0  0  0  0  0  0  0  0
   58.3160   30.0880   45.7360 C   0  0  1  0  0  0  0  0  0  0  0  0
   59.7970   29.7310   45.9480 C   0  0  0  0  0  0  0  0  0  0  0  0
   60.0260   29.1950   47.2930 N   0  0  0  0  0  0  0  0  0  0  0  0
   60.1990   27.8920   47.5890 C   0  0  0  0  0  0  0  0  0  0  0  0
   60.4330   27.7740   48.9420 C   0  0  0  0  0  0  0  0  0  0  0  0
   60.4230   29.0070   49.4850 N   0  0  0  0  0  0  0  0  0  0  0  0
   60.5830   29.3180   50.9020 C   0  0  0  0  0  0  0  0  0  0  0  0
   60.1680   29.8610   48.4670 C   0  0  0  0  0  0  0  0  0  0  0  0
   60.0390   31.3570   48.6360 C   0  0  0  0  0  0  0  0  0  0  0  0
   61.1990   32.0710   47.9940 C   0  0  0  0  0  0  0  0  0  0  0  0
   60.9770   33.1780   47.1550 C   0  0  0  0  0  0  0  0  0  0  0  0
   62.0550   33.8350   46.5560 C   0  0  0  0  0  0  0  0  0  0  0  0
   63.3620   33.3970   46.7900 C   0  0  0  0  0  0  0  0  0  0  0  0
   63.5920   32.3010   47.6240 C   0  0  0  0  0  0  0  0  0  0  0  0
   62.5150   31.6390   48.2260 C   0  0  0  0  0  0  0  0  0  0  0  0
   58.1750   31.5820   45.5580 C   0  0  0  0  0  0  0  0  0  0  0  0
   58.3920   32.1680   44.2980 C   0  0  0  0  0  0  0  0  0  0  0  0
   58.2320   33.5460   44.1250 C   0  0  0  0  0  0  0  0  0  0  0  0
   57.8430   34.3490   45.2010 C   0  0  0  0  0  0  0  0  0  0  0  0
   57.6110   33.7730   46.4530 C   0  0  0  0  0  0  0  0  0  0  0  0
   57.7700   32.3960   46.6320 C   0  0  0  0  0  0  0  0  0  0  0  0
   55.3275   30.2689   42.4526 H   0  0  0  0  0  0  0  0  0  0  0  0
   57.1026   30.2791   42.1774 H   0  0  0  0  0  0  0  0  0  0  0  0
   56.2026   28.7245   42.1774 H   0  0  0  0  0  0  0  0  0  0  0  0
   57.7478   29.7595   46.6187 H   0  0  0  0  0  0  0  0  0  0  0  0
   60.0938   28.9757   45.2055 H   0  0  0  0  0  0  0  0  0  0  0  0
   60.3960   30.6462   45.8312 H   0  0  0  0  0  0  0  0  0  0  0  0
   60.1600   27.0604   46.8700 H   0  0  0  0  0  0  0  0  0  0  0  0
   60.5997   26.8327   49.4863 H   0  0  0  0  0  0  0  0  0  0  0  0
   60.1626   28.5008   51.5065 H   0  0  0  0  0  0  0  0  0  0  0  0
   61.6522   29.4329   51.1337 H   0  0  0  0  0  0  0  0  0  0  0  0
   60.0549   30.2547   51.1337 H   0  0  0  0  0  0  0  0  0  0  0  0
   59.1035   31.6935   48.1653 H   0  0  0  0  0  0  0  0  0  0  0  0
   60.0332   31.5906   49.7109 H   0  0  0  0  0  0  0  0  0  0  0  0
   59.9507   33.5279   46.9697 H   0  0  0  0  0  0  0  0  0  0  0  0
   61.8750   34.6986   45.8990 H   0  0  0  0  0  0  0  0  0  0  0  0
   64.2090   33.9157   46.3172 H   0  0  0  0  0  0  0  0  0  0  0  0
   64.6205   31.9572   47.8083 H   0  0  0  0  0  0  0  0  0  0  0  0
   62.7005   30.7768   48.8835 H   0  0  0  0  0  0  0  0  0  0  0  0
   58.6888   31.5396   43.4453 H   0  0  0  0  0  0  0  0  0  0  0  0
   58.4127   33.9996   43.1393 H   0  0  0  0  0  0  0  0  0  0  0  0
   57.7196   35.4332   45.0624 H   0  0  0  0  0  0  0  0  0  0  0  0
   57.3027   34.4046   47.2992 H   0  0  0  0  0  0  0  0  0  0  0  0
   57.5776   31.9464   47.6173 H   0  0  0  0  0  0  0  0  0  0  0  0
  1  2  1  0
  2  3  2  0
  2  4  1  0
  4  5  1  0
  5  6  1  0
  6  7  1  0
  7  8  1  0
  8  9  2  0
  9 10  1  0
 10 11  1  0
 10 12  2  0
 12 13  1  0
 13 14  1  0
 14 15  2  0
 15 16  1  0
 16 17  2  0
 17 18  1  0
 18 19  2  0
  5 20  1  0
 20 21  2  0
 21 22  1  0
 22 23  2  0
 23 24  1  0
 24 25  2  0
 12  7  1  0
 19 14  1  0
 25 20  1  0
  1 26  1  0
  1 27  1  0
  1 28  1  0
  5 29  1  1
  6 30  1  0
  6 31  1  0
  8 32  1  0
  9 33  1  0
 11 34  1  0
 11 35  1  0
 11 36  1  0
 13 37  1  0
 13 38  1  0
 15 39  1  0
 16 40  1  0
 17 41  1  0
 18 42  1  0
 19 43  1  0
 21 44  1  0
 22 45  1  0
 23 46  1  0
 24 47  1  0
 25 48  1  0
M  CHG  1  10   1
M  END
>  <UniqueID>  (60) 
54

>  <SMILES>  (60) 
CC(=O)O[C@@H](Cn1cc[n+](C)c1Cc1ccccc1)c1ccccc1

>  <Energy>  (60) 
73.29057931081651

>  <Genealogy>  (60) 
CC(=O)O[C@@H](Cn1cc[n+](C)c1Cc1ccccc1)c1ccccc1 (chirality)
CC(=O)O[C@@H](Cn1cc[n+](C)c1Cc1ccccc1)c1ccccc1 (3D coordinates assigned)
CC(=O)O[C@@H](Cn1cc[n+](C)c1Cc1ccccc1)c1ccccc1 (optimized conformer: 73.29057931081651 kcal/mol)

>  <smiles>  (60) 
CC(=O)OC(Cn1cc[n+](C)c1Cc1ccccc1)c1ccccc1

>  <score_type>  (60) 
oracle

>  <origin>  (60) 
adg

>  <m_score__min__energy>  (60) 
-6.8300000000000001

>  <m_primary>  (60) 
energy

$$$$
60:0
     RDKit          3D

 36 38  0  0  0  0  0  0  0  0999 V2000
   57.7130   34.1930   46.3860 C   0  0  0  0  0  0  0  0  0  0  0  0
   58.8810   33.5550   45.7540 N   0  0  0  0  0  0  0  0  0  0  0  0
   58.6440   33.2500   44.3230 C   0  0  0  0  0  0  0  0  0  0  0  0
   57.8100   32.0060   44.0960 C   0  0  0  0  0  0  0  0  0  0  0  0
   57.4270   31.6240   42.8020 C   0  0  0  0  0  0  0  0  0  0  0  0
   56.6530   30.4790   42.6110 C   0  0  0  0  0  0  0  0  0  0  0  0
   56.2690   29.7200   43.7180 C   0  0  0  0  0  0  0  0  0  0  0  0
   56.6520   30.0950   44.9660 N   0  0  0  0  0  0  0  0  0  0  0  0
   57.4070   31.2060   45.1780 C   0  0  0  0  0  0  0  0  0  0  0  0
   60.1180   34.3350   45.9670 C   0  0  0  0  0  0  0  0  0  0  0  0
   61.1850   33.4770   46.5980 C   0  0  0  0  0  0  0  0  0  0  0  0
   62.5460   33.8280   46.4610 C   0  0  0  0  0  0  0  0  0  0  0  0
   63.5600   33.0250   47.0250 C   0  0  0  0  0  0  0  0  0  0  0  0
   63.2330   31.8520   47.7250 C   0  0  0  0  0  0  0  0  0  0  0  0
   61.8860   31.5170   47.8380 C   0  0  0  0  0  0  0  0  0  0  0  0
   61.2880   30.4320   48.4410 C   0  0  0  0  0  0  0  0  0  0  0  0
   59.9270   30.6040   48.2290 C   0  0  0  0  0  0  0  0  0  0  0  0
   59.6880   31.7370   47.5300 N   0  0  0  0  0  0  0  0  0  0  0  0
   60.8920   32.2920   47.2950 C   0  0  0  0  0  0  0  0  0  0  0  0
   57.8127   34.1385   47.4801 H   0  0  0  0  0  0  0  0  0  0  0  0
   57.6577   35.2466   46.0749 H   0  0  0  0  0  0  0  0  0  0  0  0
   56.7966   33.6702   46.0749 H   0  0  0  0  0  0  0  0  0  0  0  0
   58.1235   34.1051   43.8672 H   0  0  0  0  0  0  0  0  0  0  0  0
   59.6276   33.0656   43.8662 H   0  0  0  0  0  0  0  0  0  0  0  0
   57.7373   32.2279   41.9365 H   0  0  0  0  0  0  0  0  0  0  0  0
   56.3483   30.1772   41.5980 H   0  0  0  0  0  0  0  0  0  0  0  0
   55.6557   28.8174   43.5794 H   0  0  0  0  0  0  0  0  0  0  0  0
   57.7035   31.4794   46.2014 H   0  0  0  0  0  0  0  0  0  0  0  0
   60.4809   34.7088   44.9982 H   0  0  0  0  0  0  0  0  0  0  0  0
   59.8952   35.1758   46.6403 H   0  0  0  0  0  0  0  0  0  0  0  0
   62.8190   34.7387   45.9077 H   0  0  0  0  0  0  0  0  0  0  0  0
   64.6141   33.3198   46.9157 H   0  0  0  0  0  0  0  0  0  0  0  0
   64.0151   31.2188   48.1693 H   0  0  0  0  0  0  0  0  0  0  0  0
   61.7825   29.6073   48.9752 H   0  0  0  0  0  0  0  0  0  0  0  0
   59.1480   29.9122   48.5819 H   0  0  0  0  0  0  0  0  0  0  0  0
   58.7500   32.0860   47.2340 H   0  0  0  0  0  0  0  0  0  0  0  0
  1  2  1  0
  2  3  1  0
  3  4  1  0
  4  5  2  0
  5  6  1  0
  6  7  2  0
  7  8  1  0
  8  9  2  0
  2 10  1  0
 10 11  1  0
 11 12  2  0
 12 13  1  0
 13 14  2  0
 14 15  1  0
 15 16  1  0
 16 17  2  0
 17 18  1  0
 18 19  1  0
  9  4  1  0
 19 11  1  0
 19 15  2  0
  1 20  1  0
  1 21  1  0
  1 22  1  0
  3 23  1  0
  3 24  1  0
  5 25  1  0
  6 26  1  0
  7 27  1  0
  9 28  1  0
 10 29  1  0
 10 30  1  0
 12 31  1  0
 13 32  1  0
 14 33  1  0
 16 34  1  0
 17 35  1  0
 18 36  1  0
M  END
>  <UniqueID>  (61) 
55

>  <SMILES>  (61) 
CN(Cc1cccnc1)Cc1cccc2cc[nH]c12

>  <Energy>  (61) 
74.31427469710349

>  <Genealogy>  (61) 
CN(Cc1cccnc1)Cc1cccc2cc[nH]c12 (3D coordinates assigned)
CN(Cc1cccnc1)Cc1cccc2cc[nH]c12 (optimized conformer: 74.31427469710349 kcal/mol)

>  <smiles>  (61) 
CN(Cc1cccnc1)Cc1cccc2cc[nH]c12

>  <score_type>  (61) 
oracle

>  <origin>  (61) 
adg

>  <m_score__min__energy>  (61) 
-6.6699999999999999

>  <m_primary>  (61) 
energy

$$$$
61:0
     RDKit          3D

 47 50  0  0  1  0  0  0  0  0999 V2000
   57.3980   29.8650   52.4570 C   0  0  0  0  0  0  0  0  0  0  0  0
   57.7940   29.7020   51.1110 O   0  0  0  0  0  0  0  0  0  0  0  0
   58.6840   30.6320   50.5850 C   0  0  0  0  0  0  0  0  0  0  0  0
   58.4940   31.9970   50.6990 C   0  0  0  0  0  0  0  0  0  0  0  0
   59.3610   32.9200   50.1870 C   0  0  0  0  0  0  0  0  0  0  0  0
   60.4860   32.4660   49.5230 C   0  0  0  0  0  0  0  0  0  0  0  0
   61.6570   33.5720   48.8310 Cl  0  0  0  0  0  0  0  0  0  0  0  0
   58.3890   33.8480   44.4920 C   0  0  0  0  0  0  0  0  0  0  0  0
   57.5990   33.1040   45.3660 C   0  0  0  0  0  0  0  0  0  0  0  0
   60.0680   28.7660   49.7670 N   0  0  0  0  0  0  0  0  0  0  0  0
   59.8980   28.1620   48.6380 C   0  0  0  0  0  0  0  0  0  0  0  0
   59.1720   28.7920   47.6660 N   0  0  0  0  0  0  0  0  0  0  0  0
   58.9580   28.2180   46.4680 C   0  0  0  0  0  0  0  0  0  0  0  0
   58.1740   28.9630   45.4920 C   0  0  0  0  0  0  0  0  0  0  0  0
   57.7830   28.3000   44.3460 C   0  0  0  0  0  0  0  0  0  0  0  0
   57.0300   28.9810   43.3830 C   0  0  0  0  0  0  0  0  0  0  0  0
   56.6710   30.2670   43.5400 N   0  0  0  0  0  0  0  0  0  0  0  0
   57.0660   30.8880   44.6680 C   0  0  0  0  0  0  0  0  0  0  0  0
   56.7130   32.1220   44.8010 N   0  0  0  0  0  0  0  0  0  0  0  0
   59.8080   30.1680   49.9220 C   0  0  0  0  0  0  0  0  0  0  0  0
   57.6690   33.3070   46.7360 C   0  0  0  0  0  0  0  0  0  0  0  0
   59.2560   34.8050   44.9900 C   0  0  0  0  0  0  0  0  0  0  0  0
   59.3180   34.9990   46.3550 C   0  0  0  0  0  0  0  0  0  0  0  0
   58.5370   34.2630   47.2250 C   0  0  0  0  0  0  0  0  0  0  0  0
   60.6830   31.1250   49.4050 C   0  0  0  0  0  0  0  0  0  0  0  0
   57.8080   30.2790   45.6520 C   0  0  0  0  0  0  0  0  0  0  0  0
   59.4860   26.9670   46.2250 C   0  0  0  0  0  0  0  0  0  0  0  0
   60.2130   26.3540   47.2260 C   0  0  0  0  0  0  0  0  0  0  0  0
   60.4230   26.9420   48.4290 N   0  0  0  0  0  0  0  0  0  0  0  0
   58.2091   29.5311   53.1208 H   0  0  0  0  0  0  0  0  0  0  0  0
   57.1801   30.9259   52.6492 H   0  0  0  0  0  0  0  0  0  0  0  0
   56.4964   29.2649   52.6492 H   0  0  0  0  0  0  0  0  0  0  0  0
   57.5998   32.3576   51.2286 H   0  0  0  0  0  0  0  0  0  0  0  0
   59.1692   33.9972   50.3000 H   0  0  0  0  0  0  0  0  0  0  0  0
   58.3237   33.6750   43.4077 H   0  0  0  0  0  0  0  0  0  0  0  0
   58.0606   27.2469   44.1914 H   0  0  0  0  0  0  0  0  0  0  0  0
   56.7228   28.4485   42.4708 H   0  0  0  0  0  0  0  0  0  0  0  0
   56.1040   30.7690   42.8090 H   0  0  0  0  0  0  0  0  0  0  0  0
   57.0436   32.7164   47.4216 H   0  0  0  0  0  0  0  0  0  0  0  0
   59.8840   35.3999   44.3105 H   0  0  0  0  0  0  0  0  0  0  0  0
   60.0050   35.7570   46.7595 H   0  0  0  0  0  0  0  0  0  0  0  0
   58.6067   34.4388   48.3086 H   0  0  0  0  0  0  0  0  0  0  0  0
   61.5805   30.7759   48.8733 H   0  0  0  0  0  0  0  0  0  0  0  0
   58.1044   30.8356   46.5533 H   0  0  0  0  0  0  0  0  0  0  0  0
   59.3314   26.4694   45.2563 H   0  0  0  0  0  0  0  0  0  0  0  0
   60.6357   25.3555   47.0411 H   0  0  0  0  0  0  0  0  0  0  0  0
   60.9720   26.4810   49.1810 H   0  0  0  0  0  0  0  0  0  0  0  0
  1  2  1  0
  2  3  1  0
  3  4  2  0
  4  5  1  0
  5  6  2  0
  6  7  1  0
  6  8  1  0
  8  9  2  0
  9 10  1  0
 10 11  2  0
 11 12  1  0
 12 13  2  0
 13 14  1  0
 14 15  1  0
 15 16  2  0
 16 17  1  0
 17 18  1  0
 18 19  2  0
 19 20  1  0
 20 21  2  0
 21 22  1  0
 22 23  2  0
 23 24  1  0
 24 25  2  0
 18 26  1  0
 13 27  1  0
 27 28  2  0
 28 29  1  0
  9  3  1  0
 29 11  1  0
 26 14  2  0
 25 20  1  0
  1 30  1  0
  1 31  1  0
  1 32  1  0
  4 33  1  0
  5 34  1  0
  8 35  1  0
 15 36  1  0
 16 37  1  0
 17 38  1  0
 21 39  1  0
 22 40  1  0
 23 41  1  0
 24 42  1  0
 25 43  1  0
 26 44  1  0
 27 45  1  0
 28 46  1  0
 29 47  1  0
M  END
>  <smiles>  (62) 
COc1ccc(Cl)cc1N=c1nc(-c2cc[nH]c(=Nc3ccccc3)c2)cc[nH]1

>  <score_type>  (62) 
oracle

>  <origin>  (62) 
adg

>  <m_score__min__energy>  (62) 
-10.94

>  <m_primary>  (62) 
energy

$$$$
62:0
     RDKit          3D

 86 91  0  0  0  0  0  0  0  0999 V2000
   61.9700   19.4900   50.7870 C   0  0  0  0  0  0  0  0  0  0  0  0
   61.5030   20.2920   52.0010 C   0  0  2  0  0  0  0  0  0  0  0  0
   60.1710   20.9950   51.6920 C   0  0  0  0  0  0  0  0  0  0  0  0
   59.6500   21.6140   52.9140 N   0  0  0  0  0  0  0  0  0  0  0  0
   58.3390   22.7230   52.5790 S   0  0  0  0  0  0  0  0  0  0  0  0
   57.6110   23.0340   53.8560 O   0  0  0  0  0  0  0  0  0  0  0  0
   58.9170   24.0160   52.0560 O   0  0  0  0  0  0  0  0  0  0  0  0
   57.1830   22.0890   51.4030 C   0  0  0  0  0  0  0  0  0  0  0  0
   55.8660   21.7980   51.7900 C   0  0  0  0  0  0  0  0  0  0  0  0
   54.9380   21.3540   50.8430 C   0  0  0  0  0  0  0  0  0  0  0  0
   55.3170   21.2040   49.5020 C   0  0  0  0  0  0  0  0  0  0  0  0
   56.6360   21.4650   49.1100 C   0  0  0  0  0  0  0  0  0  0  0  0
   57.0180   21.3110   47.7380 N   0  0  0  0  0  0  0  0  0  0  0  0
   57.1730   22.4280   46.8560 C   0  0  0  0  0  0  0  0  0  0  0  0
   57.6270   22.2460   45.6860 O   0  0  0  0  0  0  0  0  0  0  0  0
   56.7730   23.7330   47.2800 N   0  0  0  0  0  0  0  0  0  0  0  0
   57.2030   24.8950   46.5640 C   0  0  0  0  0  0  0  0  0  0  0  0
   58.5440   25.0230   46.1630 C   0  0  0  0  0  0  0  0  0  0  0  0
   59.0000   26.2210   45.6050 C   0  0  0  0  0  0  0  0  0  0  0  0
   58.1260   27.3140   45.4610 C   0  0  0  0  0  0  0  0  0  0  0  0
   58.6500   28.6480   44.9970 C   0  0  0  0  0  0  0  0  0  0  0  0
   58.1430   29.7710   45.8570 C   0  0  0  0  0  0  0  0  0  0  0  0
   57.0940   30.3720   45.5170 O   0  0  0  0  0  0  0  0  0  0  0  0
   58.8720   30.2460   46.9980 N   0  0  0  0  0  0  0  0  0  0  0  0
   59.4090   29.4240   48.0430 C   0  0  0  0  0  0  0  0  0  0  0  0
   60.1170   28.2740   47.6860 C   0  0  0  0  0  0  0  0  0  0  0  0
   60.6780   27.4520   48.6650 C   0  0  0  0  0  0  0  0  0  0  0  0
   60.5400   27.7790   50.0160 C   0  0  0  0  0  0  0  0  0  0  0  0
   61.2730   26.7560   51.2370 Cl  0  0  0  0  0  0  0  0  0  0  0  0
   59.8540   28.9390   50.3880 C   0  0  0  0  0  0  0  0  0  0  0  0
   59.3050   29.7840   49.4080 C   0  0  0  0  0  0  0  0  0  0  0  0
   58.7110   31.0630   49.8400 C   0  0  0  0  0  0  0  0  0  0  0  0
   58.0910   31.1010   50.9390 O   0  0  0  0  0  0  0  0  0  0  0  0
   58.8790   32.2690   49.0620 N   0  0  0  0  0  0  0  0  0  0  0  0
   60.1710   32.9820   49.1440 C   0  0  0  0  0  0  0  0  0  0  0  0
   60.1140   34.3850   48.5300 C   0  0  0  0  0  0  0  0  0  0  0  0
   59.4580   34.3360   47.1820 C   0  0  0  0  0  0  0  0  0  0  0  0
   59.9260   35.1230   46.1150 C   0  0  0  0  0  0  0  0  0  0  0  0
   59.2770   35.0840   44.8760 C   0  0  0  0  0  0  0  0  0  0  0  0
   58.1450   34.2810   44.7050 C   0  0  0  0  0  0  0  0  0  0  0  0
   57.6600   33.5180   45.7710 C   0  0  0  0  0  0  0  0  0  0  0  0
   58.3240   33.5290   47.0070 C   0  0  0  0  0  0  0  0  0  0  0  0
   57.7960   32.7250   48.1660 C   0  0  0  0  0  0  0  0  0  0  0  0
   56.7730   27.1650   45.8180 C   0  0  0  0  0  0  0  0  0  0  0  0
   56.3120   25.9550   46.3520 C   0  0  0  0  0  0  0  0  0  0  0  0
   57.5610   21.9220   50.0630 C   0  0  0  0  0  0  0  0  0  0  0  0
   60.6890   22.1820   53.8020 C   0  0  0  0  0  0  0  0  0  0  0  0
   62.0920   22.3160   53.1520 C   0  0  2  0  0  0  0  0  0  0  0  0
   62.2240   23.6000   52.3300 C   0  0  0  0  0  0  0  0  0  0  0  0
   62.5280   21.2020   52.3700 O   0  0  0  0  0  0  0  0  0  0  0  0
   62.4967   18.5856   51.1256 H   0  0  0  0  0  0  0  0  0  0  0  0
   61.0986   19.2016   50.1808 H   0  0  0  0  0  0  0  0  0  0  0  0
   62.6509   20.1055   50.1808 H   0  0  0  0  0  0  0  0  0  0  0  0
   61.3155   19.6255   52.8558 H   0  0  0  0  0  0  0  0  0  0  0  0
   60.3341   21.7704   50.9290 H   0  0  0  0  0  0  0  0  0  0  0  0
   59.4459   20.2579   51.3167 H   0  0  0  0  0  0  0  0  0  0  0  0
   55.5630   21.9194   52.8405 H   0  0  0  0  0  0  0  0  0  0  0  0
   53.9079   21.1218   51.1512 H   0  0  0  0  0  0  0  0  0  0  0  0
   54.5766   20.8805   48.7555 H   0  0  0  0  0  0  0  0  0  0  0  0
   56.4700   23.8480   48.2730 H   0  0  0  0  0  0  0  0  0  0  0  0
   59.2369   24.1779   46.2886 H   0  0  0  0  0  0  0  0  0  0  0  0
   60.0463   26.3094   45.2772 H   0  0  0  0  0  0  0  0  0  0  0  0
   59.7491   28.6341   45.0394 H   0  0  0  0  0  0  0  0  0  0  0  0
   58.2986   28.8168   43.9684 H   0  0  0  0  0  0  0  0  0  0  0  0
   60.2336   28.0137   46.6236 H   0  0  0  0  0  0  0  0  0  0  0  0
   61.2291   26.5461   48.3723 H   0  0  0  0  0  0  0  0  0  0  0  0
   59.7433   29.1917   51.4529 H   0  0  0  0  0  0  0  0  0  0  0  0
   60.4560   33.0727   50.2026 H   0  0  0  0  0  0  0  0  0  0  0  0
   60.9081   32.3994   48.5720 H   0  0  0  0  0  0  0  0  0  0  0  0
   59.5360   35.0474   49.1912 H   0  0  0  0  0  0  0  0  0  0  0  0
   61.1388   34.7680   48.4160 H   0  0  0  0  0  0  0  0  0  0  0  0
   60.8041   35.7707   46.2545 H   0  0  0  0  0  0  0  0  0  0  0  0
   59.6572   35.6849   44.0367 H   0  0  0  0  0  0  0  0  0  0  0  0
   57.6357   34.2498   43.7305 H   0  0  0  0  0  0  0  0  0  0  0  0
   56.7547   32.9069   45.6405 H   0  0  0  0  0  0  0  0  0  0  0  0
   57.0974   33.3493   48.7424 H   0  0  0  0  0  0  0  0  0  0  0  0
   57.2926   31.8348   47.7609 H   0  0  0  0  0  0  0  0  0  0  0  0
   56.0742   28.0027   45.6770 H   0  0  0  0  0  0  0  0  0  0  0  0
   55.2481   25.8368   46.6054 H   0  0  0  0  0  0  0  0  0  0  0  0
   58.5919   22.1511   49.7553 H   0  0  0  0  0  0  0  0  0  0  0  0
   60.3603   23.1830   54.1181 H   0  0  0  0  0  0  0  0  0  0  0  0
   60.8001   21.4793   54.6410 H   0  0  0  0  0  0  0  0  0  0  0  0
   62.7629   22.3510   54.0230 H   0  0  0  0  0  0  0  0  0  0  0  0
   62.3126   24.4618   53.0078 H   0  0  0  0  0  0  0  0  0  0  0  0
   63.1206   23.5387   51.6957 H   0  0  0  0  0  0  0  0  0  0  0  0
   61.3337   23.7224   51.6957 H   0  0  0  0  0  0  0  0  0  0  0  0
  1  2  1  0
  2  3  1  0
  3  4  1  0
  4  5  1  0
  5  6  2  0
  5  7  2  0
  5  8  1  0
  8  9  2  0
  9 10  1  0
 10 11  2  0
 11 12  1  0
 12 13  1  0
 13 14  1  0
 14 15  2  0
 14 16  1  0
 16 17  1  0
 17 18  2  0
 18 19  1  0
 19 20  2  0
 20 21  1  0
 21 22  1  0
 22 23  2  0
 22 24  1  0
 24 25  1  0
 25 26  2  0
 26 27  1  0
 27 28  2  0
 28 29  1  0
 28 30  1  0
 30 31  2  0
 31 32  1  0
 32 33  2  0
 32 34  1  0
 34 35  1  0
 35 36  1  0
 36 37  1  0
 37 38  2  0
 38 39  1  0
 39 40  2  0
 40 41  1  0
 41 42  2  0
 42 43  1  0
 20 44  1  0
 44 45  2  0
 12 46  2  0
  4 47  1  0
 47 48  1  0
 48 49  1  0
 48 50  1  0
 50  2  1  0
 46  8  1  0
 45 17  1  0
 31 25  1  0
 43 34  1  0
 42 37  1  0
  1 51  1  0
  1 52  1  0
  1 53  1  0
  2 54  1  1
  3 55  1  0
  3 56  1  0
  9 57  1  0
 10 58  1  0
 11 59  1  0
 16 60  1  0
 18 61  1  0
 19 62  1  0
 21 63  1  0
 21 64  1  0
 26 65  1  0
 27 66  1  0
 30 67  1  0
 35 68  1  0
 35 69  1  0
 36 70  1  0
 36 71  1  0
 38 72  1  0
 39 73  1  0
 40 74  1  0
 41 75  1  0
 43 76  1  0
 43 77  1  0
 44 78  1  0
 45 79  1  0
 46 80  1  0
 47 81  1  0
 47 82  1  0
 48 83  1  1
 49 84  1  0
 49 85  1  0
 49 86  1  0
M  CHG  2  13  -1  24  -1
M  END
>  <UniqueID>  (63) 
56

>  <SMILES>  (63) 
C[C@@H]1CN(S(=O)(=O)c2cccc([N-]C(=O)Nc3ccc(CC(=O)[N-]c4ccc(Cl)cc4C(=O)N4CCc5ccccc5C4)cc3)c2)C[C@H](C)O1

>  <Energy>  (63) 
130.6394488777245

>  <Genealogy>  (63) 
CC1CN(S(=O)(=O)c2cccc([N-]C(=O)Nc3ccc(CC(=O)[N-]c4ccc(Cl)cc4C(=O)N4CCc5ccccc5C4)cc3)c2)CC(C)O1 (protonated)
C[C@@H]1CN(S(=O)(=O)c2cccc([N-]C(=O)Nc3ccc(CC(=O)[N-]c4ccc(Cl)cc4C(=O)N4CCc5ccccc5C4)cc3)c2)C[C@H](C)O1 (chirality)
C[C@@H]1CN(S(=O)(=O)c2cccc([N-]C(=O)Nc3ccc(CC(=O)[N-]c4ccc(Cl)cc4C(=O)N4CCc5ccccc5C4)cc3)c2)C[C@H](C)O1 (3D coordinates assigned)
C[C@@H]1CN(S(=O)(=O)c2cccc([N-]C(=O)Nc3ccc(CC(=O)[N-]c4ccc(Cl)cc4C(=O)N4CCc5ccccc5C4)cc3)c2)C[C@H](C)O1 (nonaromatic ring conformer: 130.6394488777245 kcal/mol)

>  <smiles>  (63) 
CC1CN(S(=O)(=O)c2cccc(NC(=O)Nc3ccc(CC(=O)Nc4ccc(Cl)cc4C(=O)N4CCc5ccccc5C4)cc3)c2)CC(C)O1

>  <score_type>  (63) 
oracle

>  <origin>  (63) 
adg

>  <m_score__min__energy>  (63) 
-13.31

>  <m_primary>  (63) 
energy

$$$$
63:0
     RDKit          3D

 37 39  0  0  0  0  0  0  0  0999 V2000
   61.0226   27.5490   46.4571 H   0  0  0  0  0  0  0  0  0  0  0  0
   60.1220   28.0310   46.0490 C   0  0  0  0  0  0  0  0  0  0  0  0
   60.2370   28.9690   45.0180 C   0  0  0  0  0  0  0  0  0  0  0  0
   61.2283   29.2239   44.6151 H   0  0  0  0  0  0  0  0  0  0  0  0
   59.0930   29.5830   44.4990 C   0  0  0  0  0  0  0  0  0  0  0  0
   59.1859   30.3237   43.6910 H   0  0  0  0  0  0  0  0  0  0  0  0
   57.8270   29.2560   45.0070 C   0  0  0  0  0  0  0  0  0  0  0  0
   56.3900   30.0300   44.3450 S   0  0  0  0  0  0  0  0  0  0  0  0
   55.1730   29.3230   44.8670 O   0  0  0  0  0  0  0  0  0  0  0  0
   56.3920   29.9600   42.8420 O   0  0  0  0  0  0  0  0  0  0  0  0
   56.3360   31.6920   44.8340 N   0  0  0  0  0  0  0  0  0  0  0  0
   57.4160   32.4070   45.4470 C   0  0  0  0  0  0  0  0  0  0  0  0
   58.0910   31.9170   46.5810 C   0  0  0  0  0  0  0  0  0  0  0  0
   57.7961   30.9526   47.0202 H   0  0  0  0  0  0  0  0  0  0  0  0
   59.1350   32.6520   47.1510 C   0  0  0  0  0  0  0  0  0  0  0  0
   59.6731   32.2518   48.0229 H   0  0  0  0  0  0  0  0  0  0  0  0
   59.4990   33.8930   46.6190 C   0  0  0  0  0  0  0  0  0  0  0  0
   60.6050   34.6050   47.1930 N   0  0  0  0  0  0  0  0  0  0  0  0
   61.7110   34.0960   47.6620 C   0  0  0  0  0  0  0  0  0  0  0  0
   62.5860   33.4620   46.7710 C   0  0  0  0  0  0  0  0  0  0  0  0
   62.3377   33.4034   45.7010 H   0  0  0  0  0  0  0  0  0  0  0  0
   63.7740   32.9050   47.2460 C   0  0  0  0  0  0  0  0  0  0  0  0
   64.4701   32.4143   46.5498 H   0  0  0  0  0  0  0  0  0  0  0  0
   64.0760   32.9720   48.6040 C   0  0  0  0  0  0  0  0  0  0  0  0
   65.0147   32.5447   48.9865 H   0  0  0  0  0  0  0  0  0  0  0  0
   63.1750   33.5870   49.4740 C   0  0  0  0  0  0  0  0  0  0  0  0
   63.4003   33.6371   50.5495 H   0  0  0  0  0  0  0  0  0  0  0  0
   62.0170   34.1260   48.9980 N   0  0  0  0  0  0  0  0  0  0  0  0
   61.3580   34.5300   49.6980 H   0  0  0  0  0  0  0  0  0  0  0  0
   58.8520   34.3670   45.4660 C   0  0  0  0  0  0  0  0  0  0  0  0
   59.1638   35.3202   45.0141 H   0  0  0  0  0  0  0  0  0  0  0  0
   57.8130   33.6300   44.8920 C   0  0  0  0  0  0  0  0  0  0  0  0
   57.3024   34.0137   43.9964 H   0  0  0  0  0  0  0  0  0  0  0  0
   57.7150   28.3180   46.0430 C   0  0  0  0  0  0  0  0  0  0  0  0
   56.7250   28.0630   46.4489 H   0  0  0  0  0  0  0  0  0  0  0  0
   58.8620   27.7060   46.5610 C   0  0  0  0  0  0  0  0  0  0  0  0
   58.7723   26.9683   47.3720 H   0  0  0  0  0  0  0  0  0  0  0  0
  1  2  1  0
  2  3  2  0
  3  4  1  0
  3  5  1  0
  5  6  1  0
  5  7  2  0
  7  8  1  0
  8  9  2  0
  8 10  2  0
  8 11  1  0
 11 12  1  0
 12 13  2  0
 13 14  1  0
 13 15  1  0
 15 16  1  0
 15 17  2  0
 17 18  1  0
 18 19  2  0
 19 20  1  0
 20 21  1  0
 20 22  2  0
 22 23  1  0
 22 24  1  0
 24 25  1  0
 24 26  2  0
 26 27  1  0
 26 28  1  0
 28 29  1  0
 17 30  1  0
 30 31  1  0
 30 32  2  0
 32 33  1  0
  7 34  1  0
 34 35  1  0
 34 36  2  0
 36 37  1  0
 36  2  1  0
 32 12  1  0
 28 19  1  0
M  CHG  1  11  -1
M  END
>  <UniqueID>  (64) 
57

>  <SMILES>  (64) 
O=S(=O)([N-]c1ccc(/N=c2/cccc[nH]2)cc1)c1ccccc1

>  <Energy>  (64) 
52.09586736262109

>  <Genealogy>  (64) 
O=S(=O)([N-]c1ccc(N=c2cccc[nH]2)cc1)c1ccccc1 (protonated)
O=S(=O)([N-]c1ccc(/N=c2/cccc[nH]2)cc1)c1ccccc1 (cis-trans isomerization)
O=S(=O)([N-]c1ccc(/N=c2/cccc[nH]2)cc1)c1ccccc1 (3D coordinates assigned)
O=S(=O)([N-]c1ccc(/N=c2/cccc[nH]2)cc1)c1ccccc1 (optimized conformer: 52.09586736262109 kcal/mol)

>  <smiles>  (64) 
O=S(=O)(Nc1ccc(N=c2cccc[nH]2)cc1)c1ccccc1

>  <score_type>  (64) 
oracle

>  <origin>  (64) 
adg

>  <m_score__min__energy>  (64) 
-9.9299999999999997

>  <m_primary>  (64) 
energy

$$$$
64:0
     RDKit          3D

 43 46  0  0  1  0  0  0  0  0999 V2000
   56.5400   29.3730   42.6120 N   0  0  0  0  0  0  0  0  0  0  0  0
   56.4970   29.7630   44.2890 S   0  0  0  0  0  0  0  0  0  0  0  0
   55.1850   29.3280   44.8680 O   0  0  0  0  0  0  0  0  0  0  0  0
   56.6320   31.2480   44.4970 O   0  0  0  0  0  0  0  0  0  0  0  0
   57.7530   28.9260   45.1900 C   0  0  0  0  0  0  0  0  0  0  0  0
   59.0940   29.2580   45.0380 C   0  0  0  0  0  0  0  0  0  0  0  0
   60.0650   28.5880   45.7580 C   0  0  0  0  0  0  0  0  0  0  0  0
   59.7090   27.5830   46.6320 C   0  0  0  0  0  0  0  0  0  0  0  0
   60.7380   26.8290   47.4330 C   0  0  0  0  0  0  0  0  0  0  0  0
   60.4170   27.1200   48.8180 N   0  0  0  0  0  0  0  0  0  0  0  0
   60.7830   28.2710   49.2790 C   0  0  0  0  0  0  0  0  0  0  0  0
   61.1710   28.3180   50.5960 C   0  0  0  0  0  0  0  0  0  0  0  0
   61.5600   29.5350   51.0920 C   0  0  0  0  0  0  0  0  0  0  0  0
   61.5590   30.6530   50.3030 N   0  0  0  0  0  0  0  0  0  0  0  0
   61.1840   30.5830   49.0350 C   0  0  0  0  0  0  0  0  0  0  0  0
   61.2540   31.7610   48.0990 C   0  0  0  0  0  0  0  0  0  0  0  0
   62.5430   32.2810   47.9260 C   0  0  0  0  0  0  0  0  0  0  0  0
   62.3490   33.7060   46.7840 S   0  0  0  0  0  0  0  0  0  0  0  0
   60.5230   33.4550   46.6580 C   0  0  0  0  0  0  0  0  0  0  0  0
   59.6600   34.2220   45.9450 C   0  0  0  0  0  0  0  0  0  0  0  0
   58.3160   33.9150   45.9980 C   0  0  0  0  0  0  0  0  0  0  0  0
   57.9680   32.8440   46.7780 C   0  0  0  0  0  0  0  0  0  0  0  0
   58.8720   32.0750   47.4970 C   0  0  0  0  0  0  0  0  0  0  0  0
   60.2590   32.3780   47.4480 C   0  0  0  0  0  0  0  0  0  0  0  0
   60.8020   29.3850   48.5560 N   0  0  0  0  0  0  0  0  0  0  0  0
   58.3900   27.2650   46.7730 C   0  0  0  0  0  0  0  0  0  0  0  0
   57.3890   27.9080   46.0760 C   0  0  0  0  0  0  0  0  0  0  0  0
   57.4850   29.6510   42.2070 H   0  0  0  0  0  0  0  0  0  0  0  0
   56.4940   28.3410   42.5100 H   0  0  0  0  0  0  0  0  0  0  0  0
   59.3840   30.0581   44.3411 H   0  0  0  0  0  0  0  0  0  0  0  0
   61.1242   28.8572   45.6334 H   0  0  0  0  0  0  0  0  0  0  0  0
   60.6659   25.7489   47.2374 H   0  0  0  0  0  0  0  0  0  0  0  0
   61.7649   27.1263   47.1738 H   0  0  0  0  0  0  0  0  0  0  0  0
   61.1695   27.4164   51.2262 H   0  0  0  0  0  0  0  0  0  0  0  0
   61.8784   29.6144   52.1419 H   0  0  0  0  0  0  0  0  0  0  0  0
   61.8190   31.5150   50.7890 H   0  0  0  0  0  0  0  0  0  0  0  0
   63.4755   31.9131   48.3790 H   0  0  0  0  0  0  0  0  0  0  0  0
   60.0226   35.0665   45.3405 H   0  0  0  0  0  0  0  0  0  0  0  0
   57.5653   34.4981   45.4445 H   0  0  0  0  0  0  0  0  0  0  0  0
   56.9028   32.5762   46.8383 H   0  0  0  0  0  0  0  0  0  0  0  0
   58.5146   31.2308   48.1049 H   0  0  0  0  0  0  0  0  0  0  0  0
   58.1133   26.4620   47.4720 H   0  0  0  0  0  0  0  0  0  0  0  0
   56.3342   27.6279   46.2133 H   0  0  0  0  0  0  0  0  0  0  0  0
  1  2  1  0
  2  3  2  0
  2  4  2  0
  2  5  1  0
  5  6  2  0
  6  7  1  0
  7  8  2  0
  8  9  1  0
  9 10  1  0
 10 11  2  0
 11 12  1  0
 12 13  2  0
 13 14  1  0
 14 15  1  0
 15 16  1  0
 16 17  2  0
 17 18  1  0
 18 19  1  0
 19 20  2  0
 20 21  1  0
 21 22  2  0
 22 23  1  0
 23 24  2  0
 15 25  2  0
  8 26  1  0
 26 27  2  0
 27  5  1  0
 25 11  1  0
 24 16  1  0
 24 19  1  0
  1 28  1  0
  1 29  1  0
  6 30  1  0
  7 31  1  0
  9 32  1  0
  9 33  1  0
 12 34  1  0
 13 35  1  0
 14 36  1  0
 17 37  1  0
 20 38  1  0
 21 39  1  0
 22 40  1  0
 23 41  1  0
 26 42  1  0
 27 43  1  0
M  END
>  <smiles>  (65) 
NS(=O)(=O)c1ccc(CN=c2cc[nH]c(-c3csc4ccccc34)n2)cc1

>  <score_type>  (65) 
oracle

>  <origin>  (65) 
adg

>  <m_score__min__energy>  (65) 
-10.16

>  <m_primary>  (65) 
energy

$$$$
65:0
     RDKit          3D

 49 51  0  0  0  0  0  0  0  0999 V2000
   59.1650   27.7690   47.6460 C   0  0  0  0  0  0  0  0  0  0  0  0
   58.3720   28.6640   46.7190 C   0  0  0  0  0  0  0  0  0  0  0  0
   58.6800   30.0490   46.6130 C   0  0  0  0  0  0  0  0  0  0  0  0
   59.6900   30.6750   47.4210 N   0  0  0  0  0  0  0  0  0  0  0  0
   61.0630   30.7980   47.0140 C   0  0  0  0  0  0  0  0  0  0  0  0
   61.5150   30.0390   46.1130 O   0  0  0  0  0  0  0  0  0  0  0  0
   61.9690   31.7760   47.6720 C   0  0  0  0  0  0  0  0  0  0  0  0
   63.0870   32.2560   46.9650 C   0  0  0  0  0  0  0  0  0  0  0  0
   63.9810   33.1460   47.5660 C   0  0  0  0  0  0  0  0  0  0  0  0
   63.7670   33.5730   48.8760 C   0  0  0  0  0  0  0  0  0  0  0  0
   62.6570   33.1180   49.5880 C   0  0  0  0  0  0  0  0  0  0  0  0
   61.7500   32.2230   48.9980 C   0  0  0  0  0  0  0  0  0  0  0  0
   60.5810   31.8120   49.7150 N   0  0  0  0  0  0  0  0  0  0  0  0
   59.1960   32.8250   49.9590 S   0  0  0  0  0  0  0  0  0  0  0  0
   59.5750   34.2470   49.6450 O   0  0  0  0  0  0  0  0  0  0  0  0
   58.0730   32.4100   49.0500 O   0  0  0  0  0  0  0  0  0  0  0  0
   58.7060   32.7100   51.6590 C   0  0  0  0  0  0  0  0  0  0  0  0
   59.0160   33.7860   52.5120 C   0  0  0  0  0  0  0  0  0  0  0  0
   58.7720   33.7050   53.8830 C   0  0  0  0  0  0  0  0  0  0  0  0
   58.2190   32.5500   54.4260 C   0  0  0  0  0  0  0  0  0  0  0  0
   57.8900   31.4760   53.5980 C   0  0  0  0  0  0  0  0  0  0  0  0
   58.1100   31.5400   52.2060 C   0  0  0  0  0  0  0  0  0  0  0  0
   57.7180   30.4190   51.3890 N   0  0  0  0  0  0  0  0  0  0  0  0
   56.6550   29.8100   51.6360 O   0  0  0  0  0  0  0  0  0  0  0  0
   58.3600   30.1530   50.2020 O   0  0  0  0  0  0  0  0  0  0  0  0
   58.0280   30.8330   45.6530 C   0  0  0  0  0  0  0  0  0  0  0  0
   57.0320   30.2900   44.8480 C   0  0  0  0  0  0  0  0  0  0  0  0
   56.6690   28.9540   44.9940 C   0  0  0  0  0  0  0  0  0  0  0  0
   57.3170   28.1310   45.9270 C   0  0  0  0  0  0  0  0  0  0  0  0
   56.7930   26.4440   46.0620 S   0  0  0  0  0  0  0  0  0  0  0  0
   55.0670   26.3680   46.0090 N   0  0  0  0  0  0  0  0  0  0  0  0
   57.3730   25.6360   44.9360 O   0  0  0  0  0  0  0  0  0  0  0  0
   57.2680   25.8550   47.3610 O   0  0  0  0  0  0  0  0  0  0  0  0
   58.9358   28.0277   48.6903 H   0  0  0  0  0  0  0  0  0  0  0  0
   58.8956   26.7187   47.4608 H   0  0  0  0  0  0  0  0  0  0  0  0
   60.2401   27.9099   47.4608 H   0  0  0  0  0  0  0  0  0  0  0  0
   59.4650   30.8560   48.4260 H   0  0  0  0  0  0  0  0  0  0  0  0
   63.2588   31.9275   45.9294 H   0  0  0  0  0  0  0  0  0  0  0  0
   64.8544   33.5101   47.0051 H   0  0  0  0  0  0  0  0  0  0  0  0
   64.4747   34.2699   49.3489 H   0  0  0  0  0  0  0  0  0  0  0  0
   62.4910   33.4629   50.6193 H   0  0  0  0  0  0  0  0  0  0  0  0
   59.4563   34.7024   52.0921 H   0  0  0  0  0  0  0  0  0  0  0  0
   59.0173   34.5558   54.5357 H   0  0  0  0  0  0  0  0  0  0  0  0
   58.0408   32.4831   55.5094 H   0  0  0  0  0  0  0  0  0  0  0  0
   57.4530   30.5669   54.0368 H   0  0  0  0  0  0  0  0  0  0  0  0
   58.3068   31.8904   45.5342 H   0  0  0  0  0  0  0  0  0  0  0  0
   56.5309   30.9167   44.0956 H   0  0  0  0  0  0  0  0  0  0  0  0
   55.8640   28.5385   44.3700 H   0  0  0  0  0  0  0  0  0  0  0  0
   54.7760   26.7050   45.0650 H   0  0  0  0  0  0  0  0  0  0  0  0
  1  2  1  0
  2  3  2  0
  3  4  1  0
  4  5  1  0
  5  6  2  0
  5  7  1  0
  7  8  2  0
  8  9  1  0
  9 10  2  0
 10 11  1  0
 11 12  2  0
 12 13  1  0
 13 14  1  0
 14 15  2  0
 14 16  2  0
 14 17  1  0
 17 18  2  0
 18 19  1  0
 19 20  2  0
 20 21  1  0
 21 22  2  0
 22 23  1  0
 23 24  2  0
 23 25  1  0
  3 26  1  0
 26 27  2  0
 27 28  1  0
 28 29  2  0
 29 30  1  0
 30 31  1  0
 30 32  2  0
 30 33  2  0
 29  2  1  0
 12  7  1  0
 22 17  1  0
  1 34  1  0
  1 35  1  0
  1 36  1  0
  4 37  1  0
  8 38  1  0
  9 39  1  0
 10 40  1  0
 11 41  1  0
 18 42  1  0
 19 43  1  0
 20 44  1  0
 21 45  1  0
 26 46  1  0
 27 47  1  0
 28 48  1  0
 31 49  1  0
M  CHG  4  13  -1  23   1  25  -1  31  -1
M  END
>  <UniqueID>  (66) 
58

>  <SMILES>  (66) 
Cc1c(NC(=O)c2ccccc2[N-]S(=O)(=O)c2ccccc2[N+](=O)[O-])cccc1S([NH-])(=O)=O

>  <Energy>  (66) 
74.12491323968828

>  <Genealogy>  (66) 
Cc1c(NC(=O)c2ccccc2[N-]S(=O)(=O)c2ccccc2[N+](=O)[O-])cccc1S([NH-])(=O)=O (protonated)
Cc1c(NC(=O)c2ccccc2[N-]S(=O)(=O)c2ccccc2[N+](=O)[O-])cccc1S([NH-])(=O)=O (3D coordinates assigned)
Cc1c(NC(=O)c2ccccc2[N-]S(=O)(=O)c2ccccc2[N+](=O)[O-])cccc1S([NH-])(=O)=O (optimized conformer: 74.12491323968828 kcal/mol)

>  <smiles>  (66) 
Cc1c(NC(=O)c2ccccc2NS(=O)(=O)c2ccccc2[N+](=O)[O-])cccc1S(N)(=O)=O

>  <score_type>  (66) 
oracle

>  <origin>  (66) 
adg

>  <m_score__min__energy>  (66) 
-12.98

>  <m_primary>  (66) 
energy

$$$$
66:0
     RDKit          3D

 49 51  0  0  0  0  0  0  0  0999 V2000
   63.7140   32.2050   48.4570 C   0  0  0  0  0  0  0  0  0  0  0  0
   62.2280   32.3570   48.3850 C   0  0  0  0  0  0  0  0  0  0  0  0
   61.5910   32.9040   47.3310 N   0  0  0  0  0  0  0  0  0  0  0  0
   60.2910   32.8940   47.5910 N   0  0  0  0  0  0  0  0  0  0  0  0
   59.3150   33.4050   46.6700 C   0  0  0  0  0  0  0  0  0  0  0  0
   59.7350   34.0820   45.5120 C   0  0  0  0  0  0  0  0  0  0  0  0
   58.7960   34.6110   44.6200 C   0  0  0  0  0  0  0  0  0  0  0  0
   57.4300   34.4790   44.8840 C   0  0  0  0  0  0  0  0  0  0  0  0
   57.0010   33.8260   46.0440 C   0  0  0  0  0  0  0  0  0  0  0  0
   57.9390   33.2980   46.9380 C   0  0  0  0  0  0  0  0  0  0  0  0
   60.0740   32.3180   48.7980 C   0  0  0  0  0  0  0  0  0  0  0  0
   58.7300   32.1100   49.4360 C   0  0  0  0  0  0  0  0  0  0  0  0
   61.3010   31.9720   49.3430 C   0  0  0  0  0  0  0  0  0  0  0  0
   61.5660   31.2610   50.6450 C   0  0  0  0  0  0  0  0  0  0  0  0
   61.9300   29.7840   50.4360 C   0  0  0  0  0  0  0  0  0  0  0  0
   60.8460   29.0410   49.7120 C   0  0  0  0  0  0  0  0  0  0  0  0
   60.0830   28.2760   50.3650 O   0  0  0  0  0  0  0  0  0  0  0  0
   60.6240   29.2810   48.3140 N   0  0  0  0  0  0  0  0  0  0  0  0
   59.5830   28.6430   47.5540 C   0  0  0  0  0  0  0  0  0  0  0  0
   59.3100   27.2720   47.6970 C   0  0  0  0  0  0  0  0  0  0  0  0
   58.2910   26.6760   46.9470 C   0  0  0  0  0  0  0  0  0  0  0  0
   57.5470   27.4360   46.0420 C   0  0  0  0  0  0  0  0  0  0  0  0
   57.8290   28.7980   45.8710 C   0  0  0  0  0  0  0  0  0  0  0  0
   56.8900   29.7640   44.7380 S   0  0  0  0  0  0  0  0  0  0  0  0
   55.2180   29.3440   44.8700 N   0  0  0  0  0  0  0  0  0  0  0  0
   57.3580   29.5070   43.3340 O   0  0  0  0  0  0  0  0  0  0  0  0
   57.0680   31.2240   45.0460 O   0  0  0  0  0  0  0  0  0  0  0  0
   58.8480   29.3960   46.6270 C   0  0  0  0  0  0  0  0  0  0  0  0
   64.0287   32.1728   49.5105 H   0  0  0  0  0  0  0  0  0  0  0  0
   64.0118   31.2717   47.9567 H   0  0  0  0  0  0  0  0  0  0  0  0
   64.1946   33.0587   47.9567 H   0  0  0  0  0  0  0  0  0  0  0  0
   60.8094   34.1967   45.3057 H   0  0  0  0  0  0  0  0  0  0  0  0
   59.1328   35.1308   43.7109 H   0  0  0  0  0  0  0  0  0  0  0  0
   56.6918   34.8889   44.1790 H   0  0  0  0  0  0  0  0  0  0  0  0
   55.9257   33.7274   46.2536 H   0  0  0  0  0  0  0  0  0  0  0  0
   57.5979   32.7964   47.8556 H   0  0  0  0  0  0  0  0  0  0  0  0
   58.8372   32.1266   50.5306 H   0  0  0  0  0  0  0  0  0  0  0  0
   58.0469   32.9131   49.1223 H   0  0  0  0  0  0  0  0  0  0  0  0
   58.3217   31.1380   49.1223 H   0  0  0  0  0  0  0  0  0  0  0  0
   62.3997   31.7620   51.1588 H   0  0  0  0  0  0  0  0  0  0  0  0
   60.6446   31.3000   51.2446 H   0  0  0  0  0  0  0  0  0  0  0  0
   62.8569   29.7255   49.8465 H   0  0  0  0  0  0  0  0  0  0  0  0
   62.0610   29.3205   51.4249 H   0  0  0  0  0  0  0  0  0  0  0  0
   61.1320   30.0790   47.8710 H   0  0  0  0  0  0  0  0  0  0  0  0
   59.8994   26.6659   48.4007 H   0  0  0  0  0  0  0  0  0  0  0  0
   58.0748   25.6045   47.0705 H   0  0  0  0  0  0  0  0  0  0  0  0
   56.7389   26.9652   45.4629 H   0  0  0  0  0  0  0  0  0  0  0  0
   55.1400   28.6420   45.6400 H   0  0  0  0  0  0  0  0  0  0  0  0
   59.0724   30.4643   46.4916 H   0  0  0  0  0  0  0  0  0  0  0  0
  1  2  1  0
  2  3  2  0
  3  4  1  0
  4  5  1  0
  5  6  2  0
  6  7  1  0
  7  8  2  0
  8  9  1  0
  9 10  2  0
  4 11  1  0
 11 12  1  0
 11 13  2  0
 13 14  1  0
 14 15  1  0
 15 16  1  0
 16 17  2  0
 16 18  1  0
 18 19  1  0
 19 20  2  0
 20 21  1  0
 21 22  2  0
 22 23  1  0
 23 24  1  0
 24 25  1  0
 24 26  2  0
 24 27  2  0
 23 28  2  0
 13  2  1  0
 28 19  1  0
 10  5  1  0
  1 29  1  0
  1 30  1  0
  1 31  1  0
  6 32  1  0
  7 33  1  0
  8 34  1  0
  9 35  1  0
 10 36  1  0
 12 37  1  0
 12 38  1  0
 12 39  1  0
 14 40  1  0
 14 41  1  0
 15 42  1  0
 15 43  1  0
 18 44  1  0
 20 45  1  0
 21 46  1  0
 22 47  1  0
 25 48  1  0
 28 49  1  0
M  CHG  1  25  -1
M  END
>  <UniqueID>  (67) 
59

>  <SMILES>  (67) 
Cc1nn(-c2ccccc2)c(C)c1CCC(=O)Nc1cccc(S([NH-])(=O)=O)c1

>  <Energy>  (67) 
82.84896633661432

>  <Genealogy>  (67) 
Cc1nn(-c2ccccc2)c(C)c1CCC(=O)Nc1cccc(S([NH-])(=O)=O)c1 (protonated)
Cc1nn(-c2ccccc2)c(C)c1CCC(=O)Nc1cccc(S([NH-])(=O)=O)c1 (3D coordinates assigned)
Cc1nn(-c2ccccc2)c(C)c1CCC(=O)Nc1cccc(S([NH-])(=O)=O)c1 (optimized conformer: 82.84896633661432 kcal/mol)

>  <smiles>  (67) 
Cc1nn(-c2ccccc2)c(C)c1CCC(=O)Nc1cccc(S(N)(=O)=O)c1

>  <score_type>  (67) 
oracle

>  <origin>  (67) 
adg

>  <m_score__min__energy>  (67) 
-12.779999999999999

>  <m_primary>  (67) 
energy

$$$$
67:0
     RDKit          3D

 54 58  0  0  0  0  0  0  0  0999 V2000
   63.6530   30.9900   50.4250 O   0  0  0  0  0  0  0  0  0  0  0  0
   62.9900   31.4460   49.4510 C   0  0  0  0  0  0  0  0  0  0  0  0
   61.5600   31.0760   49.3490 C   0  0  0  0  0  0  0  0  0  0  0  0
   61.1920   30.1250   48.3870 C   0  0  0  0  0  0  0  0  0  0  0  0
   59.8400   29.8440   48.1660 C   0  0  0  0  0  0  0  0  0  0  0  0
   59.4440   28.9140   47.1100 C   0  0  0  0  0  0  0  0  0  0  0  0
   58.2450   28.2130   47.0620 C   0  0  0  0  0  0  0  0  0  0  0  0
   58.1010   27.4770   45.8820 C   0  0  0  0  0  0  0  0  0  0  0  0
   59.1690   27.6090   44.9980 C   0  0  0  0  0  0  0  0  0  0  0  0
   60.2890   28.6640   45.6810 S   0  0  0  0  0  0  0  0  0  0  0  0
   58.8850   30.4750   48.8980 N   0  0  0  0  0  0  0  0  0  0  0  0
   59.2000   31.3790   49.8630 C   0  0  0  0  0  0  0  0  0  0  0  0
   58.1790   31.9780   50.6140 C   0  0  0  0  0  0  0  0  0  0  0  0
   58.4930   32.8860   51.6280 C   0  0  0  0  0  0  0  0  0  0  0  0
   59.8280   33.1960   51.9030 C   0  0  0  0  0  0  0  0  0  0  0  0
   60.8560   32.6050   51.1600 C   0  0  0  0  0  0  0  0  0  0  0  0
   60.5570   31.7000   50.1230 C   0  0  0  0  0  0  0  0  0  0  0  0
   63.5870   32.3740   48.4980 N   0  0  0  0  0  0  0  0  0  0  0  0
   63.3750   33.7860   48.8870 C   0  0  0  0  0  0  0  0  0  0  0  0
   61.9280   34.2280   48.6560 C   0  0  0  0  0  0  0  0  0  0  0  0
   61.5630   34.0380   47.2430 N   0  0  0  0  0  0  0  0  0  0  0  0
   59.9150   34.5700   46.9840 S   0  0  0  0  0  0  0  0  0  0  0  0
   59.2150   34.6250   48.3140 O   0  0  0  0  0  0  0  0  0  0  0  0
   59.9030   35.9530   46.3930 O   0  0  0  0  0  0  0  0  0  0  0  0
   59.0380   33.4740   45.9110 C   0  0  0  0  0  0  0  0  0  0  0  0
   58.8470   33.8110   44.5610 C   0  0  0  0  0  0  0  0  0  0  0  0
   58.1230   32.9600   43.7210 C   0  0  0  0  0  0  0  0  0  0  0  0
   57.5810   31.7720   44.2250 C   0  0  0  0  0  0  0  0  0  0  0  0
   57.7680   31.4330   45.5680 C   0  0  0  0  0  0  0  0  0  0  0  0
   58.4930   32.2820   46.4110 C   0  0  0  0  0  0  0  0  0  0  0  0
   61.7080   32.6280   46.8540 C   0  0  0  0  0  0  0  0  0  0  0  0
   63.1490   32.1490   47.0990 C   0  0  0  0  0  0  0  0  0  0  0  0
   61.9656   29.6006   47.8068 H   0  0  0  0  0  0  0  0  0  0  0  0
   57.4923   28.2348   47.8639 H   0  0  0  0  0  0  0  0  0  0  0  0
   57.2225   26.8496   45.6707 H   0  0  0  0  0  0  0  0  0  0  0  0
   59.2642   27.1102   44.0222 H   0  0  0  0  0  0  0  0  0  0  0  0
   57.1275   31.7323   50.4042 H   0  0  0  0  0  0  0  0  0  0  0  0
   57.6884   33.3579   52.2110 H   0  0  0  0  0  0  0  0  0  0  0  0
   60.0713   33.9070   52.7063 H   0  0  0  0  0  0  0  0  0  0  0  0
   61.9043   32.8488   51.3873 H   0  0  0  0  0  0  0  0  0  0  0  0
   64.6210   32.2100   48.5170 H   0  0  0  0  0  0  0  0  0  0  0  0
   63.6166   33.9015   49.9539 H   0  0  0  0  0  0  0  0  0  0  0  0
   64.0281   34.4142   48.2635 H   0  0  0  0  0  0  0  0  0  0  0  0
   61.2582   33.6275   49.2891 H   0  0  0  0  0  0  0  0  0  0  0  0
   61.8302   35.2928   48.9141 H   0  0  0  0  0  0  0  0  0  0  0  0
   59.2680   34.7465   44.1639 H   0  0  0  0  0  0  0  0  0  0  0  0
   57.9791   33.2242   42.6629 H   0  0  0  0  0  0  0  0  0  0  0  0
   57.0079   31.1051   43.5641 H   0  0  0  0  0  0  0  0  0  0  0  0
   57.3446   30.4976   45.9626 H   0  0  0  0  0  0  0  0  0  0  0  0
   58.6360   32.0143   47.4683 H   0  0  0  0  0  0  0  0  0  0  0  0
   61.0161   32.0147   47.4499 H   0  0  0  0  0  0  0  0  0  0  0  0
   61.4761   32.5278   45.7834 H   0  0  0  0  0  0  0  0  0  0  0  0
   63.2061   31.0727   46.8793 H   0  0  0  0  0  0  0  0  0  0  0  0
   63.8128   32.7292   46.4412 H   0  0  0  0  0  0  0  0  0  0  0  0
  1  2  2  0
  2  3  1  0
  3  4  2  0
  4  5  1  0
  5  6  1  0
  6  7  2  0
  7  8  1  0
  8  9  2  0
  9 10  1  0
  5 11  2  0
 11 12  1  0
 12 13  2  0
 13 14  1  0
 14 15  2  0
 15 16  1  0
 16 17  2  0
  2 18  1  0
 18 19  1  0
 19 20  1  0
 20 21  1  0
 21 22  1  0
 22 23  2  0
 22 24  2  0
 22 25  1  0
 25 26  2  0
 26 27  1  0
 27 28  2  0
 28 29  1  0
 29 30  2  0
 21 31  1  0
 31 32  1  0
 17  3  1  0
 32 18  1  0
 10  6  1  0
 17 12  1  0
 30 25  1  0
  4 33  1  0
  7 34  1  0
  8 35  1  0
  9 36  1  0
 13 37  1  0
 14 38  1  0
 15 39  1  0
 16 40  1  0
 18 41  1  0
 19 42  1  0
 19 43  1  0
 20 44  1  0
 20 45  1  0
 26 46  1  0
 27 47  1  0
 28 48  1  0
 29 49  1  0
 30 50  1  0
 31 51  1  0
 31 52  1  0
 32 53  1  0
 32 54  1  0
M  CHG  1  18   1
M  END
>  <UniqueID>  (68) 
60

>  <SMILES>  (68) 
O=C(c1cc(-c2cccs2)nc2ccccc12)[NH+]1CCN(S(=O)(=O)c2ccccc2)CC1

>  <Energy>  (68) 
108.59036878825238

>  <Genealogy>  (68) 
O=C(c1cc(-c2cccs2)nc2ccccc12)[NH+]1CCN(S(=O)(=O)c2ccccc2)CC1 (protonated)
O=C(c1cc(-c2cccs2)nc2ccccc12)[NH+]1CCN(S(=O)(=O)c2ccccc2)CC1 (3D coordinates assigned)
O=C(c1cc(-c2cccs2)nc2ccccc12)[NH+]1CCN(S(=O)(=O)c2ccccc2)CC1 (nonaromatic ring conformer: 108.59036878825238 kcal/mol)

>  <smiles>  (68) 
O=C(c1cc(-c2cccs2)nc2ccccc12)N1CCN(S(=O)(=O)c2ccccc2)CC1

>  <score_type>  (68) 
oracle

>  <origin>  (68) 
adg

>  <m_score__min__energy>  (68) 
-9.1500000000000004

>  <m_primary>  (68) 
energy

$$$$
68:0
     RDKit          3D

 59 62  0  0  0  0  0  0  0  0999 V2000
   55.1600   28.9690   44.8700 O   0  0  0  0  0  0  0  0  0  0  0  0
   56.3580   28.9760   45.2580 C   0  0  0  0  0  0  0  0  0  0  0  0
   57.0940   30.1460   45.1360 O   0  0  0  0  0  0  0  0  0  0  0  0
   56.9520   27.7640   45.8690 C   0  0  0  0  0  0  0  0  0  0  0  0
   56.3260   26.5170   45.6780 C   0  0  0  0  0  0  0  0  0  0  0  0
   56.8190   25.3640   46.2990 C   0  0  0  0  0  0  0  0  0  0  0  0
   55.9460   23.6850   46.0360 Br  0  0  0  0  0  0  0  0  0  0  0  0
   57.9400   25.4430   47.1200 C   0  0  0  0  0  0  0  0  0  0  0  0
   58.5840   26.6680   47.3070 C   0  0  0  0  0  0  0  0  0  0  0  0
   58.1150   27.8250   46.6740 C   0  0  0  0  0  0  0  0  0  0  0  0
   58.8600   29.0400   46.8300 N   0  0  0  0  0  0  0  0  0  0  0  0
   59.4530   29.3910   48.0890 C   0  0  0  0  0  0  0  0  0  0  0  0
   59.5420   28.5270   49.0060 O   0  0  0  0  0  0  0  0  0  0  0  0
   59.9010   30.8180   48.3520 C   0  0  2  0  0  0  0  0  0  0  0  0
   61.3760   30.7760   48.8470 C   0  0  0  0  0  0  0  0  0  0  0  0
   62.2250   31.9320   48.3620 C   0  0  0  0  0  0  0  0  0  0  0  0
   63.3160   32.3940   49.1180 C   0  0  0  0  0  0  0  0  0  0  0  0
   64.1080   33.4470   48.6440 C   0  0  0  0  0  0  0  0  0  0  0  0
   63.8080   34.0600   47.4250 C   0  0  0  0  0  0  0  0  0  0  0  0
   62.7110   33.6250   46.6780 C   0  0  0  0  0  0  0  0  0  0  0  0
   61.9240   32.5650   47.1420 C   0  0  0  0  0  0  0  0  0  0  0  0
   58.9840   31.5490   49.2870 N   0  0  0  0  0  0  0  0  0  0  0  0
   59.0600   33.0350   49.1290 C   0  0  0  0  0  0  0  0  0  0  0  0
   58.7790   33.4280   47.6990 C   0  0  0  0  0  0  0  0  0  0  0  0
   57.7950   32.7500   46.9580 C   0  0  0  0  0  0  0  0  0  0  0  0
   57.5300   33.1170   45.6350 C   0  0  0  0  0  0  0  0  0  0  0  0
   58.2300   34.1700   45.0460 C   0  0  0  0  0  0  0  0  0  0  0  0
   59.1960   34.8620   45.7810 C   0  0  0  0  0  0  0  0  0  0  0  0
   59.4620   34.5010   47.1040 C   0  0  0  0  0  0  0  0  0  0  0  0
   59.2730   31.1850   50.7030 C   0  0  0  0  0  0  0  0  0  0  0  0
   58.0200   30.8840   51.4890 C   0  0  0  0  0  0  0  0  0  0  0  0
   57.7750   29.6540   52.1230 C   0  0  0  0  0  0  0  0  0  0  0  0
   56.5420   29.5940   52.7550 C   0  0  0  0  0  0  0  0  0  0  0  0
   55.7680   31.0690   52.5330 S   0  0  0  0  0  0  0  0  0  0  0  0
   56.9810   31.7990   51.6340 C   0  0  0  0  0  0  0  0  0  0  0  0
   55.4381   26.4485   45.0323 H   0  0  0  0  0  0  0  0  0  0  0  0
   58.3188   24.5404   47.6217 H   0  0  0  0  0  0  0  0  0  0  0  0
   59.4687   26.7242   47.9583 H   0  0  0  0  0  0  0  0  0  0  0  0
   58.7240   29.7860   46.1090 H   0  0  0  0  0  0  0  0  0  0  0  0
   59.8509   31.3996   47.4197 H   0  0  0  0  0  0  0  0  0  0  0  0
   61.3715   30.7886   49.9469 H   0  0  0  0  0  0  0  0  0  0  0  0
   61.8228   29.8597   48.4339 H   0  0  0  0  0  0  0  0  0  0  0  0
   63.5487   31.9264   50.0861 H   0  0  0  0  0  0  0  0  0  0  0  0
   64.9697   33.7929   49.2337 H   0  0  0  0  0  0  0  0  0  0  0  0
   64.4350   34.8842   47.0540 H   0  0  0  0  0  0  0  0  0  0  0  0
   62.4656   34.1158   45.7246 H   0  0  0  0  0  0  0  0  0  0  0  0
   61.0632   32.2239   46.5482 H   0  0  0  0  0  0  0  0  0  0  0  0
   58.3165   33.5078   49.7875 H   0  0  0  0  0  0  0  0  0  0  0  0
   60.0722   33.3708   49.3986 H   0  0  0  0  0  0  0  0  0  0  0  0
   57.2310   31.9270   47.4212 H   0  0  0  0  0  0  0  0  0  0  0  0
   56.7676   32.5739   45.0572 H   0  0  0  0  0  0  0  0  0  0  0  0
   58.0218   34.4552   44.0042 H   0  0  0  0  0  0  0  0  0  0  0  0
   59.7481   35.6926   45.3170 H   0  0  0  0  0  0  0  0  0  0  0  0
   60.2111   35.0607   47.6833 H   0  0  0  0  0  0  0  0  0  0  0  0
   59.9187   30.2946   50.7137 H   0  0  0  0  0  0  0  0  0  0  0  0
   59.7657   32.0472   51.1762 H   0  0  0  0  0  0  0  0  0  0  0  0
   58.4918   28.8196   52.1184 H   0  0  0  0  0  0  0  0  0  0  0  0
   56.1404   28.7308   53.3060 H   0  0  0  0  0  0  0  0  0  0  0  0
   56.9594   32.8218   51.2297 H   0  0  0  0  0  0  0  0  0  0  0  0
  1  2  2  0
  2  3  1  0
  2  4  1  0
  4  5  2  0
  5  6  1  0
  6  7  1  0
  6  8  2  0
  8  9  1  0
  9 10  2  0
 10 11  1  0
 11 12  1  0
 12 13  2  0
 12 14  1  0
 14 15  1  0
 15 16  1  0
 16 17  2  0
 17 18  1  0
 18 19  2  0
 19 20  1  0
 20 21  2  0
 14 22  1  0
 22 23  1  0
 23 24  1  0
 24 25  2  0
 25 26  1  0
 26 27  2  0
 27 28  1  0
 28 29  2  0
 22 30  1  0
 30 31  1  0
 31 32  1  0
 32 33  2  0
 33 34  1  0
 34 35  1  0
 10  4  1  0
 21 16  1  0
 29 24  1  0
 35 31  2  0
  5 36  1  0
  8 37  1  0
  9 38  1  0
 11 39  1  0
 14 40  1  6
 15 41  1  0
 15 42  1  0
 17 43  1  0
 18 44  1  0
 19 45  1  0
 20 46  1  0
 21 47  1  0
 23 48  1  0
 23 49  1  0
 25 50  1  0
 26 51  1  0
 27 52  1  0
 28 53  1  0
 29 54  1  0
 30 55  1  0
 30 56  1  0
 32 57  1  0
 33 58  1  0
 35 59  1  0
M  CHG  1   3  -1
M  END
>  <UniqueID>  (69) 
61

>  <SMILES>  (69) 
O=C([O-])c1cc(Br)ccc1NC(=O)[C@H](Cc1ccccc1)N(Cc1ccccc1)Cc1ccsc1

>  <Energy>  (69) 
103.51641769563986

>  <Genealogy>  (69) 
O=C([O-])c1cc(Br)ccc1NC(=O)C(Cc1ccccc1)N(Cc1ccccc1)Cc1ccsc1 (protonated)
O=C([O-])c1cc(Br)ccc1NC(=O)[C@H](Cc1ccccc1)N(Cc1ccccc1)Cc1ccsc1 (chirality)
O=C([O-])c1cc(Br)ccc1NC(=O)[C@H](Cc1ccccc1)N(Cc1ccccc1)Cc1ccsc1 (3D coordinates assigned)
O=C([O-])c1cc(Br)ccc1NC(=O)[C@H](Cc1ccccc1)N(Cc1ccccc1)Cc1ccsc1 (optimized conformer: 103.51641769563986 kcal/mol)

>  <smiles>  (69) 
O=C(O)c1cc(Br)ccc1NC(=O)C(Cc1ccccc1)N(Cc1ccccc1)Cc1ccsc1

>  <score_type>  (69) 
oracle

>  <origin>  (69) 
adg

>  <m_score__min__energy>  (69) 
-12.609999999999999

>  <m_primary>  (69) 
energy

$$$$
69:0
     RDKit          3D

 55 58  0  0  0  0  0  0  0  0999 V2000
   60.8260   34.2280   49.7370 C   0  0  0  0  0  0  0  0  0  0  0  0
   59.6310   34.6140   49.0660 O   0  0  0  0  0  0  0  0  0  0  0  0
   59.3460   34.3650   47.7150 C   0  0  0  0  0  0  0  0  0  0  0  0
   59.5480   35.3650   46.7420 C   0  0  0  0  0  0  0  0  0  0  0  0
   59.2630   35.1210   45.4010 C   0  0  0  0  0  0  0  0  0  0  0  0
   58.7740   33.8810   45.0050 C   0  0  0  0  0  0  0  0  0  0  0  0
   58.5760   32.8610   45.9460 C   0  0  0  0  0  0  0  0  0  0  0  0
   58.0020   31.5440   45.4850 C   0  0  0  0  0  0  0  0  0  0  0  0
   58.7160   30.4300   46.1070 N   0  0  0  0  0  0  0  0  0  0  0  0
   59.0690   29.2560   45.3660 C   0  0  0  0  0  0  0  0  0  0  0  0
   58.8860   29.2080   44.1200 O   0  0  0  0  0  0  0  0  0  0  0  0
   59.6930   28.0940   46.0660 C   0  0  0  0  0  0  0  0  0  0  0  0
   58.7680   27.7430   47.6010 S   0  0  0  0  0  0  0  0  0  0  0  0
   59.9450   28.5480   48.6810 C   0  0  0  0  0  0  0  0  0  0  0  0
   60.1850   28.0450   49.9170 N   0  0  0  0  0  0  0  0  0  0  0  0
   61.0930   28.6280   50.7370 C   0  0  0  0  0  0  0  0  0  0  0  0
   61.7970   29.7570   50.3070 C   0  0  0  0  0  0  0  0  0  0  0  0
   61.5420   30.2760   49.0300 C   0  0  0  0  0  0  0  0  0  0  0  0
   60.6150   29.6470   48.2530 N   0  0  0  0  0  0  0  0  0  0  0  0
   62.2380   31.4910   48.5010 C   0  0  0  0  0  0  0  0  0  0  0  0
   61.7410   32.0770   47.3160 C   0  0  0  0  0  0  0  0  0  0  0  0
   62.3520   33.1960   46.7520 C   0  0  0  0  0  0  0  0  0  0  0  0
   61.8540   33.7390   45.6140 F   0  0  0  0  0  0  0  0  0  0  0  0
   63.4710   33.7560   47.3560 C   0  0  0  0  0  0  0  0  0  0  0  0
   63.9830   33.2040   48.5280 C   0  0  0  0  0  0  0  0  0  0  0  0
   63.3850   32.0720   49.1260 C   0  0  0  0  0  0  0  0  0  0  0  0
   63.9440   31.5300   50.3470 N   0  0  0  0  0  0  0  0  0  0  0  0
   65.2980   31.8610   50.7960 C   0  0  0  0  0  0  0  0  0  0  0  0
   62.9750   30.5040   51.3450 S   0  0  0  0  0  0  0  0  0  0  0  0
   63.8290   29.4390   51.9760 O   0  0  0  0  0  0  0  0  0  0  0  0
   62.2910   31.3200   52.4050 O   0  0  0  0  0  0  0  0  0  0  0  0
   58.8460   33.0970   47.3140 C   0  0  0  0  0  0  0  0  0  0  0  0
   58.5980   32.0390   48.2140 O   0  0  0  0  0  0  0  0  0  0  0  0
   58.4250   32.1430   49.6220 C   0  0  0  0  0  0  0  0  0  0  0  0
   60.6687   34.2788   50.8245 H   0  0  0  0  0  0  0  0  0  0  0  0
   61.0902   33.1988   49.4524 H   0  0  0  0  0  0  0  0  0  0  0  0
   61.6424   34.9081   49.4524 H   0  0  0  0  0  0  0  0  0  0  0  0
   59.9350   36.3489   47.0455 H   0  0  0  0  0  0  0  0  0  0  0  0
   59.4251   35.9111   44.6531 H   0  0  0  0  0  0  0  0  0  0  0  0
   58.5408   33.6991   43.9455 H   0  0  0  0  0  0  0  0  0  0  0  0
   56.9393   31.4943   45.7645 H   0  0  0  0  0  0  0  0  0  0  0  0
   58.1099   31.4710   44.3927 H   0  0  0  0  0  0  0  0  0  0  0  0
   58.9590   30.4690   47.1240 H   0  0  0  0  0  0  0  0  0  0  0  0
   59.6639   27.2115   45.4100 H   0  0  0  0  0  0  0  0  0  0  0  0
   60.7382   28.3317   46.3129 H   0  0  0  0  0  0  0  0  0  0  0  0
   61.2759   28.2136   51.7394 H   0  0  0  0  0  0  0  0  0  0  0  0
   60.8555   31.6425   46.8291 H   0  0  0  0  0  0  0  0  0  0  0  0
   63.9536   34.6370   46.9078 H   0  0  0  0  0  0  0  0  0  0  0  0
   64.8689   33.6576   48.9965 H   0  0  0  0  0  0  0  0  0  0  0  0
   65.3281   31.8684   51.8956 H   0  0  0  0  0  0  0  0  0  0  0  0
   66.0047   31.1092   50.4149 H   0  0  0  0  0  0  0  0  0  0  0  0
   65.5782   32.8541   50.4149 H   0  0  0  0  0  0  0  0  0  0  0  0
   59.2603   31.6409   50.1321 H   0  0  0  0  0  0  0  0  0  0  0  0
   58.4032   33.2040   49.9114 H   0  0  0  0  0  0  0  0  0  0  0  0
   57.4777   31.6645   49.9114 H   0  0  0  0  0  0  0  0  0  0  0  0
  1  2  1  0
  2  3  1  0
  3  4  2  0
  4  5  1  0
  5  6  2  0
  6  7  1  0
  7  8  1  0
  8  9  1  0
  9 10  1  0
 10 11  2  0
 10 12  1  0
 12 13  1  0
 13 14  1  0
 14 15  2  0
 15 16  1  0
 16 17  2  0
 17 18  1  0
 18 19  2  0
 18 20  1  0
 20 21  2  0
 21 22  1  0
 22 23  1  0
 22 24  2  0
 24 25  1  0
 25 26  2  0
 26 27  1  0
 27 28  1  0
 27 29  1  0
 29 30  2  0
 29 31  2  0
  7 32  2  0
 32 33  1  0
 33 34  1  0
 32  3  1  0
 19 14  1  0
 26 20  1  0
 29 17  1  0
  1 35  1  0
  1 36  1  0
  1 37  1  0
  4 38  1  0
  5 39  1  0
  6 40  1  0
  8 41  1  0
  8 42  1  0
  9 43  1  0
 12 44  1  0
 12 45  1  0
 16 46  1  0
 21 47  1  0
 24 48  1  0
 25 49  1  0
 28 50  1  0
 28 51  1  0
 28 52  1  0
 34 53  1  0
 34 54  1  0
 34 55  1  0
M  END
>  <UniqueID>  (70) 
62

>  <SMILES>  (70) 
COc1cccc(CNC(=O)CSc2ncc3c(n2)-c2cc(F)ccc2N(C)S3(=O)=O)c1OC

>  <Energy>  (70) 
66.21316960416391

>  <Genealogy>  (70) 
COc1cccc(CNC(=O)CSc2ncc3c(n2)-c2cc(F)ccc2N(C)S3(=O)=O)c1OC (3D coordinates assigned)
COc1cccc(CNC(=O)CSc2ncc3c(n2)-c2cc(F)ccc2N(C)S3(=O)=O)c1OC (nonaromatic ring conformer: 66.21316960416391 kcal/mol)

>  <smiles>  (70) 
COc1cccc(CNC(=O)CSc2ncc3c(n2)-c2cc(F)ccc2N(C)S3(=O)=O)c1OC

>  <score_type>  (70) 
oracle

>  <origin>  (70) 
adg

>  <m_score__min__energy>  (70) 
-8.9900000000000002

>  <m_primary>  (70) 
energy

$$$$
70:0
     RDKit          3D

 44 46  0  0  0  0  0  0  0  0999 V2000
   59.3886   30.2922   47.1871 H   0  0  0  0  0  0  0  0  0  0  0  0
   58.5220   30.2240   46.5130 C   0  0  0  0  0  0  0  0  0  0  0  0
   57.8910   29.0380   46.3290 N   0  0  0  0  0  0  0  0  0  0  0  0
   56.8210   28.9400   45.5040 C   0  0  0  0  0  0  0  0  0  0  0  0
   56.2240   27.7940   45.3610 N   0  0  0  0  0  0  0  0  0  0  0  0
   56.8580   26.4880   45.5430 C   0  0  0  0  0  0  0  0  0  0  0  0
   56.7125   25.8910   44.6306 H   0  0  0  0  0  0  0  0  0  0  0  0
   57.9276   26.6509   45.7414 H   0  0  0  0  0  0  0  0  0  0  0  0
   56.2610   25.7280   46.7350 C   0  0  0  0  0  0  0  0  0  0  0  0
   57.0735   25.4240   47.4113 H   0  0  0  0  0  0  0  0  0  0  0  0
   55.5545   26.3913   47.2555 H   0  0  0  0  0  0  0  0  0  0  0  0
   55.5390   24.5360   46.2880 N   0  0  0  0  0  0  0  0  0  0  0  0
   55.8870   23.7750   45.2920 C   0  0  0  0  0  0  0  0  0  0  0  0
   55.1800   23.7770   44.1240 N   0  0  0  0  0  0  0  0  0  0  0  0
   55.5220   22.9870   43.0730 C   0  0  0  0  0  0  0  0  0  0  0  0
   54.9252   23.0111   42.1493 H   0  0  0  0  0  0  0  0  0  0  0  0
   56.6320   22.1440   43.1660 C   0  0  0  0  0  0  0  0  0  0  0  0
   56.9154   21.5014   42.3194 H   0  0  0  0  0  0  0  0  0  0  0  0
   57.3770   22.1270   44.3460 C   0  0  0  0  0  0  0  0  0  0  0  0
   58.2544   21.4694   44.4335 H   0  0  0  0  0  0  0  0  0  0  0  0
   57.0080   22.9450   45.4150 C   0  0  0  0  0  0  0  0  0  0  0  0
   57.5930   22.9377   46.3465 H   0  0  0  0  0  0  0  0  0  0  0  0
   56.3760   30.0510   44.8580 N   0  0  0  0  0  0  0  0  0  0  0  0
   56.9800   31.2270   45.0230 N   0  0  0  0  0  0  0  0  0  0  0  0
   58.0610   31.3630   45.8370 C   0  0  0  0  0  0  0  0  0  0  0  0
   58.6970   32.6960   46.0030 C   0  0  0  0  0  0  0  0  0  0  0  0
   58.4140   33.7220   45.0840 C   0  0  0  0  0  0  0  0  0  0  0  0
   57.7208   33.5336   44.2510 H   0  0  0  0  0  0  0  0  0  0  0  0
   59.0070   34.9780   45.2220 C   0  0  0  0  0  0  0  0  0  0  0  0
   58.7785   35.7744   44.4985 H   0  0  0  0  0  0  0  0  0  0  0  0
   59.8890   35.2270   46.2750 C   0  0  0  0  0  0  0  0  0  0  0  0
   60.3516   36.2199   46.3762 H   0  0  0  0  0  0  0  0  0  0  0  0
   60.1900   34.2210   47.2050 C   0  0  0  0  0  0  0  0  0  0  0  0
   61.1110   34.5100   48.2730 N   0  0  0  0  0  0  0  0  0  0  0  0
   60.8660   35.2600   48.9580 H   0  0  0  0  0  0  0  0  0  0  0  0
   62.5420   33.5880   48.6100 S   0  0  0  0  0  0  0  0  0  0  0  0
   62.1370   32.2080   49.0460 O   0  0  0  0  0  0  0  0  0  0  0  0
   63.3240   34.2340   49.7190 O   0  0  0  0  0  0  0  0  0  0  0  0
   63.5430   33.4440   47.1440 C   0  0  0  0  0  0  0  0  0  0  0  0
   64.5941   33.2928   47.4311 H   0  0  0  0  0  0  0  0  0  0  0  0
   63.1987   32.5861   46.5477 H   0  0  0  0  0  0  0  0  0  0  0  0
   63.4545   34.3641   46.5477 H   0  0  0  0  0  0  0  0  0  0  0  0
   59.6000   32.9510   47.0530 C   0  0  0  0  0  0  0  0  0  0  0  0
   59.8477   32.1485   47.7633 H   0  0  0  0  0  0  0  0  0  0  0  0
  1  2  1  0
  2  3  2  0
  3  4  1  0
  4  5  2  3
  5  6  1  0
  6  7  1  0
  6  8  1  0
  6  9  1  0
  9 10  1  0
  9 11  1  0
  9 12  1  0
 12 13  2  0
 13 14  1  0
 14 15  1  0
 15 16  1  0
 15 17  2  0
 17 18  1  0
 17 19  1  0
 19 20  1  0
 19 21  2  0
 21 22  1  0
  4 23  1  0
 23 24  1  0
 24 25  2  0
 25 26  1  0
 26 27  2  0
 27 28  1  0
 27 29  1  0
 29 30  1  0
 29 31  2  0
 31 32  1  0
 31 33  1  0
 33 34  1  0
 34 35  1  0
 34 36  1  0
 36 37  2  0
 36 38  2  0
 36 39  1  0
 39 40  1  0
 39 41  1  0
 39 42  1  0
 33 43  2  0
 43 44  1  0
 25  2  1  0
 43 26  1  0
 21 13  1  0
M  CHG  2  14  -1  23  -1
M  END
>  <UniqueID>  (71) 
63

>  <SMILES>  (71) 
CS(=O)(=O)Nc1cccc(-c2cnc(=NCC/N=c3/cccc[n-]3)[n-]n2)c1

>  <Energy>  (71) 
49.465071175607456

>  <Genealogy>  (71) 
CS(=O)(=O)Nc1cccc(-c2cnc(=NCCN=c3cccc[n-]3)[n-]n2)c1 (protonated)
CS(=O)(=O)Nc1cccc(-c2cnc(=NCC/N=c3/cccc[n-]3)[n-]n2)c1 (cis-trans isomerization)
CS(=O)(=O)Nc1cccc(-c2cnc(=NCC/N=c3/cccc[n-]3)[n-]n2)c1 (3D coordinates assigned)
CS(=O)(=O)Nc1cccc(-c2cnc(=NCC/N=c3/cccc[n-]3)[n-]n2)c1 (optimized conformer: 49.465071175607456 kcal/mol)

>  <smiles>  (71) 
CS(=O)(=O)Nc1cccc(-c2cnc(=NCCN=c3cccc[nH]3)[nH]n2)c1

>  <score_type>  (71) 
oracle

>  <origin>  (71) 
adg

>  <m_score__min__energy>  (71) 
-11.609999999999999

>  <m_primary>  (71) 
energy

$$$$
71:0
     RDKit          3D

 59 62  0  0  0  0  0  0  0  0999 V2000
   63.4890   31.9290   48.8020 C   0  0  0  0  0  0  0  0  0  0  0  0
   62.0890   32.2170   49.3340 C   0  0  0  0  0  0  0  0  0  0  0  0
   61.7580   33.6510   49.1670 N   0  0  0  0  0  0  0  0  0  0  0  0
   60.3140   33.9340   49.3950 C   0  0  0  0  0  0  0  0  0  0  0  0
   59.5250   34.2610   48.1120 C   0  0  0  0  0  0  0  0  0  0  0  0
   60.0630   33.5080   46.9760 N   0  0  0  0  0  0  0  0  0  0  0  0
   59.2260   32.5950   46.2460 C   0  0  0  0  0  0  0  0  0  0  0  0
   58.1840   33.1000   45.4530 C   0  0  0  0  0  0  0  0  0  0  0  0
   57.3550   32.2360   44.7350 C   0  0  0  0  0  0  0  0  0  0  0  0
   57.5650   30.8540   44.7900 C   0  0  0  0  0  0  0  0  0  0  0  0
   56.5470   29.7570   43.8650 S   0  0  0  0  0  0  0  0  0  0  0  0
   55.1490   29.3490   44.7960 N   0  0  0  0  0  0  0  0  0  0  0  0
   57.3100   28.5050   43.5310 O   0  0  0  0  0  0  0  0  0  0  0  0
   56.1240   30.4210   42.5840 O   0  0  0  0  0  0  0  0  0  0  0  0
   58.6120   30.3440   45.5650 C   0  0  0  0  0  0  0  0  0  0  0  0
   59.4300   31.2020   46.3230 C   0  0  0  0  0  0  0  0  0  0  0  0
   60.5160   30.6870   47.1100 N   0  0  0  0  0  0  0  0  0  0  0  0
   60.5200   29.4580   47.8500 C   0  0  0  0  0  0  0  0  0  0  0  0
   60.8750   29.4780   49.0570 O   0  0  0  0  0  0  0  0  0  0  0  0
   60.1160   28.1740   47.2460 C   0  0  0  0  0  0  0  0  0  0  0  0
   59.2610   26.9800   48.0680 S   0  0  0  0  0  0  0  0  0  0  0  0
   59.2680   25.9280   46.7480 C   0  0  0  0  0  0  0  0  0  0  0  0
   58.7170   24.7500   46.7010 N   0  0  0  0  0  0  0  0  0  0  0  0
   58.0520   24.1660   45.5710 C   0  0  0  0  0  0  0  0  0  0  0  0
   58.2040   22.8050   45.2490 C   0  0  0  0  0  0  0  0  0  0  0  0
   57.5900   22.2770   44.1090 C   0  0  0  0  0  0  0  0  0  0  0  0
   56.8390   23.1070   43.2720 C   0  0  0  0  0  0  0  0  0  0  0  0
   56.7090   24.4660   43.5690 C   0  0  0  0  0  0  0  0  0  0  0  0
   57.3240   24.9970   44.7080 C   0  0  0  0  0  0  0  0  0  0  0  0
   59.8770   26.4750   45.6770 N   0  0  0  0  0  0  0  0  0  0  0  0
   60.3500   27.7240   45.9400 C   0  0  0  0  0  0  0  0  0  0  0  0
   61.0360   28.5220   44.8760 C   0  0  0  0  0  0  0  0  0  0  0  0
   61.5000   33.5790   46.6900 C   0  0  0  0  0  0  0  0  0  0  0  0
   62.2580   34.1850   47.8820 C   0  0  0  0  0  0  0  0  0  0  0  0
   64.1799   31.7869   49.6460 H   0  0  0  0  0  0  0  0  0  0  0  0
   63.4674   31.0165   48.1881 H   0  0  0  0  0  0  0  0  0  0  0  0
   63.8294   32.7759   48.1881 H   0  0  0  0  0  0  0  0  0  0  0  0
   61.3585   31.6095   48.7796 H   0  0  0  0  0  0  0  0  0  0  0  0
   62.0553   31.9653   50.4043 H   0  0  0  0  0  0  0  0  0  0  0  0
   59.8588   33.0493   49.8641 H   0  0  0  0  0  0  0  0  0  0  0  0
   60.2637   34.8280   50.0340 H   0  0  0  0  0  0  0  0  0  0  0  0
   58.4684   33.9918   48.2576 H   0  0  0  0  0  0  0  0  0  0  0  0
   59.6152   35.3370   47.9019 H   0  0  0  0  0  0  0  0  0  0  0  0
   58.0190   34.1861   45.3967 H   0  0  0  0  0  0  0  0  0  0  0  0
   56.5351   32.6428   44.1248 H   0  0  0  0  0  0  0  0  0  0  0  0
   54.4230   29.0150   44.1240 H   0  0  0  0  0  0  0  0  0  0  0  0
   58.7979   29.2600   45.5820 H   0  0  0  0  0  0  0  0  0  0  0  0
   58.8085   22.1533   45.8969 H   0  0  0  0  0  0  0  0  0  0  0  0
   57.6981   21.2085   43.8710 H   0  0  0  0  0  0  0  0  0  0  0  0
   56.3501   22.6901   42.3791 H   0  0  0  0  0  0  0  0  0  0  0  0
   56.1223   25.1194   42.9065 H   0  0  0  0  0  0  0  0  0  0  0  0
   57.2359   26.0713   44.9273 H   0  0  0  0  0  0  0  0  0  0  0  0
   61.6848   29.2767   45.3446 H   0  0  0  0  0  0  0  0  0  0  0  0
   61.6448   27.8525   44.2507 H   0  0  0  0  0  0  0  0  0  0  0  0
   60.2827   29.0234   44.2507 H   0  0  0  0  0  0  0  0  0  0  0  0
   61.8809   32.5653   46.4966 H   0  0  0  0  0  0  0  0  0  0  0  0
   61.6556   34.2178   45.8081 H   0  0  0  0  0  0  0  0  0  0  0  0
   63.3270   33.9443   47.7861 H   0  0  0  0  0  0  0  0  0  0  0  0
   62.1009   35.2737   47.8749 H   0  0  0  0  0  0  0  0  0  0  0  0
  1  2  1  0
  2  3  1  0
  3  4  1  0
  4  5  1  0
  5  6  1  0
  6  7  1  0
  7  8  2  0
  8  9  1  0
  9 10  2  0
 10 11  1  0
 11 12  1  0
 11 13  2  0
 11 14  2  0
 10 15  1  0
 15 16  2  0
 16 17  1  0
 17 18  1  0
 18 19  2  0
 18 20  1  0
 20 21  1  0
 21 22  1  0
 22 23  2  3
 23 24  1  0
 24 25  2  0
 25 26  1  0
 26 27  2  0
 27 28  1  0
 28 29  2  0
 22 30  1  0
 30 31  1  0
 31 32  1  0
  6 33  1  0
 33 34  1  0
 34  3  1  0
 16  7  1  0
 31 20  2  0
 29 24  1  0
  1 35  1  0
  1 36  1  0
  1 37  1  0
  2 38  1  0
  2 39  1  0
  4 40  1  0
  4 41  1  0
  5 42  1  0
  5 43  1  0
  8 44  1  0
  9 45  1  0
 12 46  1  0
 15 47  1  0
 25 48  1  0
 26 49  1  0
 27 50  1  0
 28 51  1  0
 29 52  1  0
 32 53  1  0
 32 54  1  0
 32 55  1  0
 33 56  1  0
 33 57  1  0
 34 58  1  0
 34 59  1  0
M  CHG  3  12  -1  17  -1  30  -1
M  END
>  <UniqueID>  (72) 
64

>  <SMILES>  (72) 
CCN1CCN(c2ccc(S([NH-])(=O)=O)cc2[N-]C(=O)c2sc(=Nc3ccccc3)[n-]c2C)CC1

>  <Energy>  (72) 
114.87894063824267

>  <Genealogy>  (72) 
CCN1CCN(c2ccc(S([NH-])(=O)=O)cc2[N-]C(=O)c2sc(=Nc3ccccc3)[n-]c2C)CC1 (protonated)
CCN1CCN(c2ccc(S([NH-])(=O)=O)cc2[N-]C(=O)c2sc(=Nc3ccccc3)[n-]c2C)CC1 (3D coordinates assigned)
CCN1CCN(c2ccc(S([NH-])(=O)=O)cc2[N-]C(=O)c2sc(=Nc3ccccc3)[n-]c2C)CC1 (nonaromatic ring conformer: 114.87894063824267 kcal/mol)

>  <smiles>  (72) 
CCN1CCN(c2ccc(S(N)(=O)=O)cc2NC(=O)c2sc(=Nc3ccccc3)[nH]c2C)CC1

>  <score_type>  (72) 
oracle

>  <origin>  (72) 
adg

>  <m_score__min__energy>  (72) 
-13.5

>  <m_primary>  (72) 
energy

$$$$
72:0
     RDKit          3D

 61 65  0  0  0  0  0  0  0  0999 V2000
   62.6080   32.2320   53.4690 C   0  0  0  0  0  0  0  0  0  0  0  0
   62.5600   33.4000   52.5920 N   0  0  0  0  0  0  0  0  0  0  0  0
   62.7910   33.3330   51.1720 C   0  0  0  0  0  0  0  0  0  0  0  0
   64.1240   33.3530   50.6850 C   0  0  0  0  0  0  0  0  0  0  0  0
   64.3890   33.2930   49.3010 C   0  0  0  0  0  0  0  0  0  0  0  0
   63.3060   33.2000   48.4340 C   0  0  0  0  0  0  0  0  0  0  0  0
   63.3340   33.1220   47.0890 N   0  0  0  0  0  0  0  0  0  0  0  0
   62.0200   33.0310   46.7610 C   0  0  0  0  0  0  0  0  0  0  0  0
   61.1950   33.0330   47.8380 N   0  0  0  0  0  0  0  0  0  0  0  0
   59.7320   32.9410   47.8140 C   0  0  0  0  0  0  0  0  0  0  0  0
   59.2600   31.7140   47.0320 C   0  0  0  0  0  0  0  0  0  0  0  0
   59.2720   30.4410   47.6720 C   0  0  0  0  0  0  0  0  0  0  0  0
   59.8470   30.2490   49.0240 C   0  0  0  0  0  0  0  0  0  0  0  0
   59.0540   30.4610   50.1670 C   0  0  0  0  0  0  0  0  0  0  0  0
   59.6030   30.2970   51.4430 C   0  0  0  0  0  0  0  0  0  0  0  0
   60.9400   29.9110   51.5870 C   0  0  0  0  0  0  0  0  0  0  0  0
   61.7310   29.6910   50.4550 C   0  0  0  0  0  0  0  0  0  0  0  0
   61.1850   29.8540   49.1760 C   0  0  0  0  0  0  0  0  0  0  0  0
   58.7160   29.3400   47.0070 C   0  0  0  0  0  0  0  0  0  0  0  0
   58.2280   29.4560   45.7560 N   0  0  0  0  0  0  0  0  0  0  0  0
   58.2520   30.6370   45.0770 C   0  0  0  0  0  0  0  0  0  0  0  0
   57.8120   30.6850   43.8940 O   0  0  0  0  0  0  0  0  0  0  0  0
   58.7770   31.8000   45.6840 C   0  0  0  0  0  0  0  0  0  0  0  0
   58.8940   33.0430   44.8060 C   0  0  0  0  0  0  0  0  0  0  0  0
   58.3280   34.2120   45.5100 N   0  0  0  0  0  0  0  0  0  0  0  0
   57.0410   34.6140   44.9060 C   0  0  0  0  0  0  0  0  0  0  0  0
   59.2710   35.3430   45.4630 C   0  0  0  0  0  0  0  0  0  0  0  0
   57.7170   28.2120   45.1900 C   0  0  2  0  0  0  0  0  0  0  0  0
   56.2150   28.2000   45.2530 C   0  0  0  0  0  0  0  0  0  0  0  0
   55.5580   29.2140   44.8910 O   0  0  0  0  0  0  0  0  0  0  0  0
   55.5380   27.0670   45.6910 O   0  0  0  0  0  0  0  0  0  0  0  0
   58.3100   27.0630   46.0190 C   0  0  0  0  0  0  0  0  0  0  0  0
   58.6620   27.6880   47.6930 S   0  0  0  0  0  0  0  0  0  0  0  0
   62.0220   33.1640   48.8900 C   0  0  0  0  0  0  0  0  0  0  0  0
   61.7170   33.2450   50.2510 C   0  0  0  0  0  0  0  0  0  0  0  0
   62.5945   32.5608   54.5186 H   0  0  0  0  0  0  0  0  0  0  0  0
   61.7354   31.5911   53.2743 H   0  0  0  0  0  0  0  0  0  0  0  0
   63.5302   31.6649   53.2743 H   0  0  0  0  0  0  0  0  0  0  0  0
   62.3550   34.3290   53.0280 H   0  0  0  0  0  0  0  0  0  0  0  0
   64.9610   33.4161   51.3959 H   0  0  0  0  0  0  0  0  0  0  0  0
   65.4204   33.3190   48.9194 H   0  0  0  0  0  0  0  0  0  0  0  0
   61.6595   32.9624   45.7240 H   0  0  0  0  0  0  0  0  0  0  0  0
   59.3613   32.8706   48.8473 H   0  0  0  0  0  0  0  0  0  0  0  0
   59.3379   33.8396   47.3168 H   0  0  0  0  0  0  0  0  0  0  0  0
   58.0001   30.7563   50.0568 H   0  0  0  0  0  0  0  0  0  0  0  0
   58.9827   30.4718   52.3344 H   0  0  0  0  0  0  0  0  0  0  0  0
   61.3693   29.7805   52.5913 H   0  0  0  0  0  0  0  0  0  0  0  0
   62.7827   29.3897   50.5694 H   0  0  0  0  0  0  0  0  0  0  0  0
   61.8070   29.6718   48.2872 H   0  0  0  0  0  0  0  0  0  0  0  0
   59.9540   33.2314   44.5802 H   0  0  0  0  0  0  0  0  0  0  0  0
   58.3377   32.8794   43.8713 H   0  0  0  0  0  0  0  0  0  0  0  0
   56.3169   34.8402   45.7026 H   0  0  0  0  0  0  0  0  0  0  0  0
   57.1917   35.5079   44.2829 H   0  0  0  0  0  0  0  0  0  0  0  0
   56.6562   33.7933   44.2829 H   0  0  0  0  0  0  0  0  0  0  0  0
   59.5269   35.6499   46.4879 H   0  0  0  0  0  0  0  0  0  0  0  0
   60.1849   35.0366   44.9330 H   0  0  0  0  0  0  0  0  0  0  0  0
   58.8053   36.1869   44.9330 H   0  0  0  0  0  0  0  0  0  0  0  0
   58.0034   28.1068   44.1332 H   0  0  0  0  0  0  0  0  0  0  0  0
   57.5888   26.2343   46.0754 H   0  0  0  0  0  0  0  0  0  0  0  0
   59.2343   26.6949   45.5498 H   0  0  0  0  0  0  0  0  0  0  0  0
   60.6732   33.2406   50.5980 H   0  0  0  0  0  0  0  0  0  0  0  0
  1  2  1  0
  2  3  1  0
  3  4  2  0
  4  5  1  0
  5  6  2  0
  6  7  1  0
  7  8  2  0
  8  9  1  0
  9 10  1  0
 10 11  1  0
 11 12  1  0
 12 13  1  0
 13 14  2  0
 14 15  1  0
 15 16  2  0
 16 17  1  0
 17 18  2  0
 12 19  2  0
 19 20  1  0
 20 21  1  0
 21 22  2  0
 21 23  1  0
 23 24  1  0
 24 25  1  0
 25 26  1  0
 25 27  1  0
 20 28  1  0
 28 29  1  0
 29 30  2  0
 29 31  1  0
 28 32  1  0
 32 33  1  0
  9 34  1  0
 34 35  2  0
 35  3  1  0
 34  6  1  0
 23 11  2  0
 18 13  1  0
 33 19  1  0
  1 36  1  0
  1 37  1  0
  1 38  1  0
  2 39  1  0
  4 40  1  0
  5 41  1  0
  8 42  1  0
 10 43  1  0
 10 44  1  0
 14 45  1  0
 15 46  1  0
 16 47  1  0
 17 48  1  0
 18 49  1  0
 24 50  1  0
 24 51  1  0
 26 52  1  0
 26 53  1  0
 26 54  1  0
 27 55  1  0
 27 56  1  0
 27 57  1  0
 28 58  1  6
 32 59  1  0
 32 60  1  0
 35 61  1  0
M  CHG  1  31  -1
M  END
>  <UniqueID>  (73) 
65

>  <SMILES>  (73) 
CNc1ccc2ncn(Cc3c(-c4ccccc4)c4n(c(=O)c3CN(C)C)[C@H](C(=O)[O-])CS4)c2c1

>  <Energy>  (73) 
122.69117466175781

>  <Genealogy>  (73) 
CNc1ccc2ncn(Cc3c(-c4ccccc4)c4n(c(=O)c3CN(C)C)C(C(=O)[O-])CS4)c2c1 (protonated)
CNc1ccc2ncn(Cc3c(-c4ccccc4)c4n(c(=O)c3CN(C)C)[C@H](C(=O)[O-])CS4)c2c1 (chirality)
CNc1ccc2ncn(Cc3c(-c4ccccc4)c4n(c(=O)c3CN(C)C)[C@H](C(=O)[O-])CS4)c2c1 (3D coordinates assigned)
CNc1ccc2ncn(Cc3c(-c4ccccc4)c4n(c(=O)c3CN(C)C)[C@H](C(=O)[O-])CS4)c2c1 (nonaromatic ring conformer: 122.69117466175781 kcal/mol)

>  <smiles>  (73) 
CNc1ccc2ncn(Cc3c(-c4ccccc4)c4n(c(=O)c3CN(C)C)C(C(=O)O)CS4)c2c1

>  <score_type>  (73) 
oracle

>  <origin>  (73) 
adg

>  <m_score__min__energy>  (73) 
-11.130000000000001

>  <m_primary>  (73) 
energy

$$$$
73:0
     RDKit          3D

 33 34  0  0  0  0  0  0  0  0999 V2000
   59.4890   35.0040   46.9320 C   0  0  0  0  0  0  0  0  0  0  0  0
   58.8820   33.8720   46.1570 C   0  0  0  0  0  0  0  0  0  0  0  0
   58.3600   34.0950   44.8730 C   0  0  0  0  0  0  0  0  0  0  0  0
   57.7600   33.0490   44.1650 C   0  0  0  0  0  0  0  0  0  0  0  0
   57.6610   31.7740   44.7400 C   0  0  0  0  0  0  0  0  0  0  0  0
   56.8920   30.4590   43.8580 S   0  0  0  0  0  0  0  0  0  0  0  0
   55.5840   30.0870   44.5000 O   0  0  0  0  0  0  0  0  0  0  0  0
   56.6340   30.9010   42.4460 O   0  0  0  0  0  0  0  0  0  0  0  0
   57.9260   29.0680   43.8370 N   0  0  0  0  0  0  0  0  0  0  0  0
   57.8970   28.0270   44.8170 C   0  0  0  0  0  0  0  0  0  0  0  0
   58.9850   27.6490   45.3280 O   0  0  0  0  0  0  0  0  0  0  0  0
   56.6550   27.4440   45.2510 N   0  0  0  0  0  0  0  0  0  0  0  0
   56.5630   26.2200   45.9980 C   0  0  0  0  0  0  0  0  0  0  0  0
   55.6050   25.2610   45.6340 C   0  0  0  0  0  0  0  0  0  0  0  0
   55.5110   24.0530   46.3310 C   0  0  0  0  0  0  0  0  0  0  0  0
   56.3820   23.7860   47.3910 C   0  0  0  0  0  0  0  0  0  0  0  0
   56.2650   22.2680   48.2640 Cl  0  0  0  0  0  0  0  0  0  0  0  0
   57.3550   24.7240   47.7480 C   0  0  0  0  0  0  0  0  0  0  0  0
   57.4510   25.9340   47.0520 C   0  0  0  0  0  0  0  0  0  0  0  0
   58.1710   31.5540   46.0260 C   0  0  0  0  0  0  0  0  0  0  0  0
   58.7700   32.5990   46.7340 C   0  0  0  0  0  0  0  0  0  0  0  0
   59.3842   34.8085   48.0094 H   0  0  0  0  0  0  0  0  0  0  0  0
   60.5555   35.0923   46.6774 H   0  0  0  0  0  0  0  0  0  0  0  0
   58.9724   35.9412   46.6774 H   0  0  0  0  0  0  0  0  0  0  0  0
   58.4232   35.0964   44.4222 H   0  0  0  0  0  0  0  0  0  0  0  0
   57.3645   33.2269   43.1541 H   0  0  0  0  0  0  0  0  0  0  0  0
   55.7750   27.9850   45.1090 H   0  0  0  0  0  0  0  0  0  0  0  0
   54.9233   25.4614   44.7943 H   0  0  0  0  0  0  0  0  0  0  0  0
   54.7505   23.3115   46.0449 H   0  0  0  0  0  0  0  0  0  0  0  0
   58.0459   24.5106   48.5769 H   0  0  0  0  0  0  0  0  0  0  0  0
   58.2242   26.6654   47.3299 H   0  0  0  0  0  0  0  0  0  0  0  0
   58.0996   30.5547   46.4802 H   0  0  0  0  0  0  0  0  0  0  0  0
   59.1556   32.4222   47.7489 H   0  0  0  0  0  0  0  0  0  0  0  0
  1  2  1  0
  2  3  2  0
  3  4  1  0
  4  5  2  0
  5  6  1  0
  6  7  2  0
  6  8  2  0
  6  9  1  0
  9 10  1  0
 10 11  2  0
 10 12  1  0
 12 13  1  0
 13 14  2  0
 14 15  1  0
 15 16  2  0
 16 17  1  0
 16 18  1  0
 18 19  2  0
  5 20  1  0
 20 21  2  0
 21  2  1  0
 19 13  1  0
  1 22  1  0
  1 23  1  0
  1 24  1  0
  3 25  1  0
  4 26  1  0
 12 27  1  0
 14 28  1  0
 15 29  1  0
 18 30  1  0
 19 31  1  0
 20 32  1  0
 21 33  1  0
M  CHG  1   9  -1
M  END
>  <UniqueID>  (74) 
66

>  <SMILES>  (74) 
Cc1ccc(S(=O)(=O)[N-]C(=O)Nc2ccc(Cl)cc2)cc1

>  <Energy>  (74) 
38.085624682224484

>  <Genealogy>  (74) 
Cc1ccc(S(=O)(=O)[N-]C(=O)Nc2ccc(Cl)cc2)cc1 (protonated)
Cc1ccc(S(=O)(=O)[N-]C(=O)Nc2ccc(Cl)cc2)cc1 (3D coordinates assigned)
Cc1ccc(S(=O)(=O)[N-]C(=O)Nc2ccc(Cl)cc2)cc1 (optimized conformer: 38.085624682224484 kcal/mol)

>  <smiles>  (74) 
Cc1ccc(S(=O)(=O)NC(=O)Nc2ccc(Cl)cc2)cc1

>  <score_type>  (74) 
oracle

>  <origin>  (74) 
adg

>  <m_score__min__energy>  (74) 
-9.0500000000000007

>  <m_primary>  (74) 
energy

$$$$
74:0
     RDKit          3D

 32 35  0  0  0  0  0  0  0  0999 V2000
   55.1956   20.6533   45.1058 H   0  0  0  0  0  0  0  0  0  0  0  0
   55.1400   21.7400   45.2670 C   0  0  0  0  0  0  0  0  0  0  0  0
   54.1460   22.2740   46.0910 C   0  0  0  0  0  0  0  0  0  0  0  0
   53.4245   21.6063   46.5846 H   0  0  0  0  0  0  0  0  0  0  0  0
   54.0670   23.6550   46.2890 C   0  0  0  0  0  0  0  0  0  0  0  0
   53.2939   24.0701   46.9524 H   0  0  0  0  0  0  0  0  0  0  0  0
   54.9740   24.5180   45.6420 C   0  0  0  0  0  0  0  0  0  0  0  0
   54.9520   25.9410   45.8450 N   0  0  0  0  0  0  0  0  0  0  0  0
   55.9780   26.7230   46.0080 C   0  0  0  0  0  0  0  0  0  0  0  0
   56.9940   26.3940   46.8730 N   0  0  0  0  0  0  0  0  0  0  0  0
   58.0630   27.2190   47.0680 C   0  0  0  0  0  0  0  0  0  0  0  0
   58.9850   26.8960   47.8600 O   0  0  0  0  0  0  0  0  0  0  0  0
   58.0950   28.4180   46.3700 C   0  0  0  0  0  0  0  0  0  0  0  0
   59.0010   29.4550   46.3380 C   0  0  0  0  0  0  0  0  0  0  0  0
   59.9445   29.5369   46.8975 H   0  0  0  0  0  0  0  0  0  0  0  0
   58.4630   30.3780   45.4430 C   0  0  0  0  0  0  0  0  0  0  0  0
   58.9332   31.3361   45.1765 H   0  0  0  0  0  0  0  0  0  0  0  0
   57.2770   29.9340   44.9430 N   0  0  0  0  0  0  0  0  0  0  0  0
   56.3670   30.5730   43.9800 C   0  0  0  0  0  0  0  0  0  0  0  0
   55.6442   30.9225   44.7319 H   0  0  0  0  0  0  0  0  0  0  0  0
   57.0390   31.1910   42.7640 C   0  0  0  0  0  0  0  0  0  0  0  0
   56.6377   32.1161   42.3245 H   0  0  0  0  0  0  0  0  0  0  0  0
   58.0606   31.5197   42.5227 H   0  0  0  0  0  0  0  0  0  0  0  0
   56.2660   29.8840   42.6270 C   0  0  0  0  0  0  0  0  0  0  0  0
   55.3067   29.8658   42.0890 H   0  0  0  0  0  0  0  0  0  0  0  0
   56.4982   28.8785   42.2462 H   0  0  0  0  0  0  0  0  0  0  0  0
   57.0770   28.7370   45.5240 C   0  0  0  0  0  0  0  0  0  0  0  0
   56.0170   27.9120   45.3340 N   0  0  0  0  0  0  0  0  0  0  0  0
   55.9860   23.9680   44.8430 C   0  0  0  0  0  0  0  0  0  0  0  0
   56.7249   24.6287   44.3660 H   0  0  0  0  0  0  0  0  0  0  0  0
   56.0630   22.5860   44.6480 C   0  0  0  0  0  0  0  0  0  0  0  0
   56.8510   22.1645   44.0066 H   0  0  0  0  0  0  0  0  0  0  0  0
  1  2  1  0
  2  3  2  0
  3  4  1  0
  3  5  1  0
  5  6  1  0
  5  7  2  0
  7  8  1  0
  8  9  2  0
  9 10  1  0
 10 11  1  0
 11 12  2  0
 11 13  1  0
 13 14  1  0
 14 15  1  0
 14 16  2  0
 16 17  1  0
 16 18  1  0
 18 19  1  0
 19 20  1  0
 19 21  1  0
 21 22  1  0
 21 23  1  0
 21 24  1  0
 24 25  1  0
 24 26  1  0
 18 27  1  0
 27 28  1  0
  7 29  1  0
 29 30  1  0
 29 31  2  0
 31 32  1  0
 31  2  1  0
 28  9  1  0
 27 13  2  0
 24 19  1  0
M  CHG  2  10  -1  28  -1
M  END
>  <UniqueID>  (75) 
67

>  <SMILES>  (75) 
O=c1[n-]/c(=N\c2ccccc2)[n-]c2c1ccn2C1CC1

>  <Energy>  (75) 
346.1555817488844

>  <Genealogy>  (75) 
O=c1[n-]c(=Nc2ccccc2)[n-]c2c1ccn2C1CC1 (protonated)
O=c1[n-]/c(=N\c2ccccc2)[n-]c2c1ccn2C1CC1 (cis-trans isomerization)
O=c1[n-]/c(=N\c2ccccc2)[n-]c2c1ccn2C1CC1 (3D coordinates assigned)
O=c1[n-]/c(=N\c2ccccc2)[n-]c2c1ccn2C1CC1 (nonaromatic ring conformer: 346.1555817488844 kcal/mol)

>  <smiles>  (75) 
O=c1[nH]c(=Nc2ccccc2)[nH]c2c1ccn2C1CC1

>  <score_type>  (75) 
oracle

>  <origin>  (75) 
adg

>  <m_score__min__energy>  (75) 
-10.720000000000001

>  <m_primary>  (75) 
energy

$$$$
75:0
     RDKit          3D

 43 45  0  0  1  0  0  0  0  0999 V2000
   60.8570   29.3840   47.3710 N   0  0  0  0  0  0  0  0  0  0  0  0
   60.5000   30.6050   47.9680 C   0  0  0  0  0  0  0  0  0  0  0  0
   59.3770   30.7650   48.5580 O   0  0  0  0  0  0  0  0  0  0  0  0
   61.4440   31.7370   47.9140 C   0  0  0  0  0  0  0  0  0  0  0  0
   62.8220   31.4940   47.8870 C   0  0  0  0  0  0  0  0  0  0  0  0
   63.7190   32.5510   47.8370 C   0  0  0  0  0  0  0  0  0  0  0  0
   63.2330   33.8560   47.8130 C   0  0  0  0  0  0  0  0  0  0  0  0
   61.8590   34.0790   47.8400 C   0  0  0  0  0  0  0  0  0  0  0  0
   60.9490   33.0400   47.8900 C   0  0  0  0  0  0  0  0  0  0  0  0
   56.6130   31.3750   44.8610 N   0  0  0  0  0  0  0  0  0  0  0  0
   57.4060   32.3030   45.2800 C   0  0  0  0  0  0  0  0  0  0  0  0
   59.0080   34.3340   45.9790 C   0  0  0  0  0  0  0  0  0  0  0  0
   58.3350   34.4240   44.7710 C   0  0  0  0  0  0  0  0  0  0  0  0
   57.5380   33.3780   44.4600 N   0  0  0  0  0  0  0  0  0  0  0  0
   58.8790   33.2490   46.8140 C   0  0  0  0  0  0  0  0  0  0  0  0
   59.5410   33.2460   47.9190 N   0  0  0  0  0  0  0  0  0  0  0  0
   57.1700   30.0740   44.6960 C   0  0  0  0  0  0  0  0  0  0  0  0
   57.2170   29.4220   43.4800 C   0  0  0  0  0  0  0  0  0  0  0  0
   57.7650   28.1620   43.3650 C   0  0  0  0  0  0  0  0  0  0  0  0
   58.2920   27.5110   44.4850 C   0  0  0  0  0  0  0  0  0  0  0  0
   58.2480   28.1570   45.7040 C   0  0  0  0  0  0  0  0  0  0  0  0
   58.9190   27.3130   47.1010 S   0  0  0  0  0  0  0  0  0  0  0  0
   58.6390   28.3200   48.4770 N   0  0  0  0  0  0  0  0  0  0  0  0
   58.1400   26.0400   47.3120 O   0  0  0  0  0  0  0  0  0  0  0  0
   60.3640   27.0100   46.9510 O   0  0  0  0  0  0  0  0  0  0  0  0
   57.6990   29.4090   45.7950 C   0  0  0  0  0  0  0  0  0  0  0  0
   58.0700   32.2380   46.4490 N   0  0  0  0  0  0  0  0  0  0  0  0
   60.4310   29.1700   46.4230 H   0  0  0  0  0  0  0  0  0  0  0  0
   61.5060   28.6910   47.8050 H   0  0  0  0  0  0  0  0  0  0  0  0
   63.1957   30.4596   47.9055 H   0  0  0  0  0  0  0  0  0  0  0  0
   64.8022   32.3606   47.8165 H   0  0  0  0  0  0  0  0  0  0  0  0
   63.9307   34.7055   47.7729 H   0  0  0  0  0  0  0  0  0  0  0  0
   61.4863   35.1138   47.8210 H   0  0  0  0  0  0  0  0  0  0  0  0
   59.6690   35.1599   46.2807 H   0  0  0  0  0  0  0  0  0  0  0  0
   58.4429   35.2936   44.1060 H   0  0  0  0  0  0  0  0  0  0  0  0
   57.0330   33.4510   43.5470 H   0  0  0  0  0  0  0  0  0  0  0  0
   56.8096   29.9170   42.5861 H   0  0  0  0  0  0  0  0  0  0  0  0
   57.7879   27.6647   42.3841 H   0  0  0  0  0  0  0  0  0  0  0  0
   58.7317   26.5066   44.3964 H   0  0  0  0  0  0  0  0  0  0  0  0
   58.0230   29.1060   48.2420 H   0  0  0  0  0  0  0  0  0  0  0  0
   59.5330   28.6090   48.9360 H   0  0  0  0  0  0  0  0  0  0  0  0
   57.6762   29.9066   46.7757 H   0  0  0  0  0  0  0  0  0  0  0  0
   57.9570   31.4040   47.0660 H   0  0  0  0  0  0  0  0  0  0  0  0
  1  2  1  0
  2  3  2  0
  2  4  1  0
  4  5  2  0
  5  6  1  0
  6  7  2  0
  7  8  1  0
  8  9  2  0
  9 10  1  0
 10 11  2  0
 11 12  1  0
 12 13  2  0
 13 14  1  0
 14 15  1  0
 15 16  2  0
 16 17  1  0
 17 18  2  0
 18 19  1  0
 19 20  2  0
 20 21  1  0
 21 22  1  0
 22 23  1  0
 22 24  2  0
 22 25  2  0
 21 26  2  0
 15 27  1  0
  9  4  1  0
 27 11  1  0
 26 17  1  0
  1 28  1  0
  1 29  1  0
  5 30  1  0
  6 31  1  0
  7 32  1  0
  8 33  1  0
 12 34  1  0
 13 35  1  0
 14 36  1  0
 18 37  1  0
 19 38  1  0
 20 39  1  0
 23 40  1  0
 23 41  1  0
 26 42  1  0
 27 43  1  0
M  END
>  <smiles>  (76) 
NC(=O)c1ccccc1N=c1cc[nH]c(=Nc2cccc(S(N)(=O)=O)c2)[nH]1

>  <score_type>  (76) 
oracle

>  <origin>  (76) 
adg

>  <m_score__min__energy>  (76) 
-9.6799999999999997

>  <m_primary>  (76) 
energy

$$$$
76:0
     RDKit          3D

 57 59  0  0  0  0  0  0  0  0999 V2000
   56.3230   29.8750   43.9290 C   0  0  0  0  0  0  0  0  0  0  0  0
   56.8090   29.6780   45.2520 O   0  0  0  0  0  0  0  0  0  0  0  0
   58.1360   29.8850   45.6640 C   0  0  0  0  0  0  0  0  0  0  0  0
   58.4600   30.9000   46.5900 C   0  0  0  0  0  0  0  0  0  0  0  0
   59.7900   31.1230   46.9920 C   0  0  0  0  0  0  0  0  0  0  0  0
   60.1400   32.1950   47.9660 C   0  0  0  0  0  0  0  0  0  0  0  0
   61.3060   32.2280   48.4430 O   0  0  0  0  0  0  0  0  0  0  0  0
   59.1220   33.2300   48.3980 C   0  0  0  0  0  0  0  0  0  0  0  0
   58.5760   34.0470   47.2950 N   0  0  0  0  0  0  0  0  0  0  0  0
   59.5580   34.5980   46.3350 C   0  0  0  0  0  0  0  0  0  0  0  0
   59.5700   33.8940   44.9550 C   0  0  0  0  0  0  0  0  0  0  0  0
   58.3550   33.0970   44.6830 N   0  0  0  0  0  0  0  0  0  0  0  0
   58.1830   32.8910   43.2370 C   0  0  0  0  0  0  0  0  0  0  0  0
   57.1650   33.7310   45.2600 C   0  0  0  0  0  0  0  0  0  0  0  0
   57.2540   33.6280   46.7810 C   0  0  0  0  0  0  0  0  0  0  0  0
   60.8000   30.3100   46.4560 C   0  0  0  0  0  0  0  0  0  0  0  0
   60.4920   29.3030   45.5430 C   0  0  0  0  0  0  0  0  0  0  0  0
   59.1730   29.0720   45.1410 C   0  0  0  0  0  0  0  0  0  0  0  0
   58.9680   28.0240   44.2260 O   0  0  0  0  0  0  0  0  0  0  0  0
   58.0250   26.9640   44.3500 C   0  0  0  0  0  0  0  0  0  0  0  0
   58.4130   26.0530   45.5170 C   0  0  0  0  0  0  0  0  0  0  0  0
   57.3470   26.0080   46.6230 C   0  0  0  0  0  0  0  0  0  0  0  0
   56.3680   24.9480   46.3770 N   0  0  0  0  0  0  0  0  0  0  0  0
   55.0860   25.1050   45.9930 C   0  0  0  0  0  0  0  0  0  0  0  0
   54.4970   26.3360   45.7290 O   0  0  0  0  0  0  0  0  0  0  0  0
   54.4440   23.8860   45.9030 C   0  0  0  0  0  0  0  0  0  0  0  0
   55.3800   22.9320   46.2570 C   0  0  0  0  0  0  0  0  0  0  0  0
   56.5430   23.6230   46.5430 C   0  0  0  0  0  0  0  0  0  0  0  0
   57.7400   23.0430   46.9570 O   0  0  0  0  0  0  0  0  0  0  0  0
   55.3043   30.2879   43.9703 H   0  0  0  0  0  0  0  0  0  0  0  0
   56.9819   30.5770   43.3971 H   0  0  0  0  0  0  0  0  0  0  0  0
   56.3071   28.9123   43.3971 H   0  0  0  0  0  0  0  0  0  0  0  0
   57.6580   31.5282   47.0050 H   0  0  0  0  0  0  0  0  0  0  0  0
   58.2858   32.7074   48.8855 H   0  0  0  0  0  0  0  0  0  0  0  0
   59.6462   33.9233   49.0722 H   0  0  0  0  0  0  0  0  0  0  0  0
   59.3246   35.6612   46.1766 H   0  0  0  0  0  0  0  0  0  0  0  0
   60.5524   34.4379   46.7772 H   0  0  0  0  0  0  0  0  0  0  0  0
   59.6629   34.6629   44.1739 H   0  0  0  0  0  0  0  0  0  0  0  0
   60.4188   33.1943   44.9588 H   0  0  0  0  0  0  0  0  0  0  0  0
   57.4866   32.0569   43.0657 H   0  0  0  0  0  0  0  0  0  0  0  0
   57.7775   33.8066   42.7819 H   0  0  0  0  0  0  0  0  0  0  0  0
   59.1563   32.6554   42.7819 H   0  0  0  0  0  0  0  0  0  0  0  0
   57.1256   34.7888   44.9609 H   0  0  0  0  0  0  0  0  0  0  0  0
   56.2559   33.2274   44.8995 H   0  0  0  0  0  0  0  0  0  0  0  0
   56.4812   34.2726   47.2251 H   0  0  0  0  0  0  0  0  0  0  0  0
   57.1043   32.5736   47.0565 H   0  0  0  0  0  0  0  0  0  0  0  0
   61.8453   30.4689   46.7593 H   0  0  0  0  0  0  0  0  0  0  0  0
   61.2999   28.6798   45.1320 H   0  0  0  0  0  0  0  0  0  0  0  0
   57.0254   27.3851   44.5331 H   0  0  0  0  0  0  0  0  0  0  0  0
   58.0173   26.3765   43.4200 H   0  0  0  0  0  0  0  0  0  0  0  0
   58.5616   25.0335   45.1316 H   0  0  0  0  0  0  0  0  0  0  0  0
   59.3323   26.4615   45.9621 H   0  0  0  0  0  0  0  0  0  0  0  0
   57.8404   25.8227   47.5885 H   0  0  0  0  0  0  0  0  0  0  0  0
   56.8182   26.9725   46.6342 H   0  0  0  0  0  0  0  0  0  0  0  0
   53.3988   23.7095   45.6090 H   0  0  0  0  0  0  0  0  0  0  0  0
   55.2298   21.8432   46.3020 H   0  0  0  0  0  0  0  0  0  0  0  0
   57.7430   22.2520   47.5910 H   0  0  0  0  0  0  0  0  0  0  0  0
  1  2  1  0
  2  3  1  0
  3  4  2  0
  4  5  1  0
  5  6  1  0
  6  7  2  0
  6  8  1  0
  8  9  1  0
  9 10  1  0
 10 11  1  0
 11 12  1  0
 12 13  1  0
 12 14  1  0
 14 15  1  0
  5 16  2  0
 16 17  1  0
 17 18  2  0
 18 19  1  0
 19 20  1  0
 20 21  1  0
 21 22  1  0
 22 23  1  0
 23 24  1  0
 24 25  1  0
 24 26  2  0
 26 27  1  0
 27 28  2  0
 28 29  1  0
 18  3  1  0
 28 23  1  0
 15  9  1  0
  1 30  1  0
  1 31  1  0
  1 32  1  0
  4 33  1  0
  8 34  1  0
  8 35  1  0
 10 36  1  0
 10 37  1  0
 11 38  1  0
 11 39  1  0
 13 40  1  0
 13 41  1  0
 13 42  1  0
 14 43  1  0
 14 44  1  0
 15 45  1  0
 15 46  1  0
 16 47  1  0
 17 48  1  0
 20 49  1  0
 20 50  1  0
 21 51  1  0
 21 52  1  0
 22 53  1  0
 22 54  1  0
 26 55  1  0
 27 56  1  0
 29 57  1  0
M  CHG  1  25  -1
M  END
>  <UniqueID>  (77) 
68

>  <SMILES>  (77) 
COc1cc(C(=O)CN2CCN(C)CC2)ccc1OCCCn1c([O-])ccc1O

>  <Energy>  (77) 
101.34590050784129

>  <Genealogy>  (77) 
COc1cc(C(=O)CN2CCN(C)CC2)ccc1OCCCn1c([O-])ccc1O (protonated)
COc1cc(C(=O)CN2CCN(C)CC2)ccc1OCCCn1c([O-])ccc1O (3D coordinates assigned)
COc1cc(C(=O)CN2CCN(C)CC2)ccc1OCCCn1c([O-])ccc1O (nonaromatic ring conformer: 101.34590050784129 kcal/mol)

>  <smiles>  (77) 
COc1cc(C(=O)CN2CCN(C)CC2)ccc1OCCCn1c(O)ccc1O

>  <score_type>  (77) 
oracle

>  <origin>  (77) 
adg

>  <m_score__min__energy>  (77) 
-11.19

>  <m_primary>  (77) 
energy

$$$$
77:0
     RDKit          3D

 60 64  0  0  0  0  0  0  0  0999 V2000
   56.1829   29.4827   42.3676 H   0  0  0  0  0  0  0  0  0  0  0  0
   56.8900   29.5670   43.2060 C   0  0  0  0  0  0  0  0  0  0  0  0
   57.3890   28.4080   43.6740 C   0  0  0  0  0  0  0  0  0  0  0  0
   57.6078   27.6373   42.9202 H   0  0  0  0  0  0  0  0  0  0  0  0
   57.6790   28.0440   45.0770 C   0  0  0  0  0  0  0  0  0  0  0  0
   56.9990   27.1450   45.8260 N   0  0  0  0  0  0  0  0  0  0  0  0
   57.4560   27.1720   47.0760 N   0  0  0  0  0  0  0  0  0  0  0  0
   58.4140   28.1100   47.1250 C   0  0  0  0  0  0  0  0  0  0  0  0
   59.1620   28.5090   48.2300 C   0  0  0  0  0  0  0  0  0  0  0  0
   59.0189   28.0339   49.2117 H   0  0  0  0  0  0  0  0  0  0  0  0
   60.1120   29.5440   48.0530 C   0  0  0  0  0  0  0  0  0  0  0  0
   60.9060   30.0010   49.1700 N   0  0  0  0  0  0  0  0  0  0  0  0
   61.8660   29.5830   49.1390 H   0  0  0  0  0  0  0  0  0  0  0  0
   60.9930   31.0370   49.0530 H   0  0  0  0  0  0  0  0  0  0  0  0
   60.3160   29.6920   50.4650 C   0  0  0  0  0  0  0  0  0  0  0  0
   60.7050   28.5360   51.1870 C   0  0  0  0  0  0  0  0  0  0  0  0
   61.5024   27.8916   50.7884 H   0  0  0  0  0  0  0  0  0  0  0  0
   60.0930   28.2030   52.3940 C   0  0  0  0  0  0  0  0  0  0  0  0
   60.3845   27.2829   52.9217 H   0  0  0  0  0  0  0  0  0  0  0  0
   59.1140   29.0320   52.9330 C   0  0  0  0  0  0  0  0  0  0  0  0
   58.6098   28.7504   53.8692 H   0  0  0  0  0  0  0  0  0  0  0  0
   58.7720   30.2180   52.2880 C   0  0  0  0  0  0  0  0  0  0  0  0
   58.0128   30.8776   52.7336 H   0  0  0  0  0  0  0  0  0  0  0  0
   59.3830   30.5850   51.0750 C   0  0  0  0  0  0  0  0  0  0  0  0
   59.0670   31.9230   50.5120 C   0  0  0  0  0  0  0  0  0  0  0  0
   57.8720   32.3220   50.4500 O   0  0  0  0  0  0  0  0  0  0  0  0
   60.1250   32.7610   50.0360 N   0  0  0  0  0  0  0  0  0  0  0  0
   60.2090   33.3990   48.7500 C   0  0  0  0  0  0  0  0  0  0  0  0
   59.2640   34.3600   48.3370 C   0  0  0  0  0  0  0  0  0  0  0  0
   58.4434   34.6455   49.0117 H   0  0  0  0  0  0  0  0  0  0  0  0
   59.3640   34.9520   47.0750 C   0  0  0  0  0  0  0  0  0  0  0  0
   58.6307   35.7109   46.7646 H   0  0  0  0  0  0  0  0  0  0  0  0
   60.3920   34.5820   46.2090 C   0  0  0  0  0  0  0  0  0  0  0  0
   60.4766   35.0595   45.2216 H   0  0  0  0  0  0  0  0  0  0  0  0
   61.3130   33.6080   46.5920 C   0  0  0  0  0  0  0  0  0  0  0  0
   62.1157   33.3129   45.9003 H   0  0  0  0  0  0  0  0  0  0  0  0
   61.2220   32.9980   47.8620 C   0  0  0  0  0  0  0  0  0  0  0  0
   62.1150   31.9930   48.2710 O   0  0  0  0  0  0  0  0  0  0  0  0
   63.5300   32.0560   48.1140 C   0  0  0  0  0  0  0  0  0  0  0  0
   63.7832   32.0072   47.0446 H   0  0  0  0  0  0  0  0  0  0  0  0
   63.9961   31.2093   48.6391 H   0  0  0  0  0  0  0  0  0  0  0  0
   64.0440   33.3590   48.6970 C   0  0  0  0  0  0  0  0  0  0  0  0
   64.0220   33.3032   49.7954 H   0  0  0  0  0  0  0  0  0  0  0  0
   65.0768   33.5297   48.3592 H   0  0  0  0  0  0  0  0  0  0  0  0
   63.4058   34.1888   48.3592 H   0  0  0  0  0  0  0  0  0  0  0  0
   60.2690   30.1410   46.7710 C   0  0  0  0  0  0  0  0  0  0  0  0
   61.0039   30.9479   46.6338 H   0  0  0  0  0  0  0  0  0  0  0  0
   59.4960   29.7120   45.6770 C   0  0  0  0  0  0  0  0  0  0  0  0
   59.6124   30.1676   44.6826 H   0  0  0  0  0  0  0  0  0  0  0  0
   58.5770   28.6880   45.9000 C   0  0  0  0  0  0  0  0  0  0  0  0
   57.1740   30.9430   43.6790 C   0  0  0  0  0  0  0  0  0  0  0  0
   56.7230   31.3960   44.8810 N   0  0  0  0  0  0  0  0  0  0  0  0
   57.0110   32.6410   45.3440 C   0  0  0  0  0  0  0  0  0  0  0  0
   56.6183   32.9709   46.3171 H   0  0  0  0  0  0  0  0  0  0  0  0
   57.8050   33.5000   44.5840 C   0  0  0  0  0  0  0  0  0  0  0  0
   58.0401   34.5104   44.9497 H   0  0  0  0  0  0  0  0  0  0  0  0
   58.2970   33.0620   43.3550 C   0  0  0  0  0  0  0  0  0  0  0  0
   58.9270   33.7266   42.7456 H   0  0  0  0  0  0  0  0  0  0  0  0
   57.9890   31.7790   42.8990 C   0  0  0  0  0  0  0  0  0  0  0  0
   58.3824   31.4252   41.9346 H   0  0  0  0  0  0  0  0  0  0  0  0
  1  2  1  0
  2  3  2  0
  3  4  1  0
  3  5  1  0
  5  6  1  0
  6  7  1  0
  7  8  2  0
  8  9  1  0
  9 10  1  0
  9 11  2  0
 11 12  1  0
 12 13  1  0
 12 14  1  0
 12 15  1  0
 15 16  2  0
 16 17  1  0
 16 18  1  0
 18 19  1  0
 18 20  2  0
 20 21  1  0
 20 22  1  0
 22 23  1  0
 22 24  2  0
 24 25  1  0
 25 26  2  0
 25 27  1  0
 27 28  1  0
 28 29  2  0
 29 30  1  0
 29 31  1  0
 31 32  1  0
 31 33  2  0
 33 34  1  0
 33 35  1  0
 35 36  1  0
 35 37  2  0
 37 38  1  0
 38 39  1  0
 39 40  1  0
 39 41  1  0
 39 42  1  0
 42 43  1  0
 42 44  1  0
 42 45  1  0
 11 46  1  0
 46 47  1  0
 46 48  2  0
 48 49  1  0
 48 50  1  0
  2 51  1  0
 51 52  2  0
 52 53  1  0
 53 54  1  0
 53 55  2  0
 55 56  1  0
 55 57  1  0
 57 58  1  0
 57 59  2  0
 59 60  1  0
 50  5  2  0
 59 51  1  0
 50  8  1  0
 24 15  1  0
 37 28  1  0
M  CHG  3   6  -1  12   1  27  -1
M  END
>  <UniqueID>  (78) 
69

>  <SMILES>  (78) 
CCOc1ccccc1[N-]C(=O)c1ccccc1[NH2+]c1ccc2c(/C=C\c3ccccn3)[n-]nc2c1

>  <Energy>  (78) 
127.30685285529961

>  <Genealogy>  (78) 
CCOc1ccccc1[N-]C(=O)c1ccccc1[NH2+]c1ccc2c(C=Cc3ccccn3)[n-]nc2c1 (protonated)
CCOc1ccccc1[N-]C(=O)c1ccccc1[NH2+]c1ccc2c(/C=C\c3ccccn3)[n-]nc2c1 (cis-trans isomerization)
CCOc1ccccc1[N-]C(=O)c1ccccc1[NH2+]c1ccc2c(/C=C\c3ccccn3)[n-]nc2c1 (3D coordinates assigned)
CCOc1ccccc1[N-]C(=O)c1ccccc1[NH2+]c1ccc2c(/C=C\c3ccccn3)[n-]nc2c1 (optimized conformer: 127.30685285529961 kcal/mol)

>  <smiles>  (78) 
CCOc1ccccc1NC(=O)c1ccccc1Nc1ccc2c(C=Cc3ccccn3)[nH]nc2c1

>  <score_type>  (78) 
oracle

>  <origin>  (78) 
adg

>  <m_score__min__energy>  (78) 
-11.390000000000001

>  <m_primary>  (78) 
energy

$$$$
78:0
     RDKit          3D

 55 58  0  0  0  0  0  0  0  0999 V2000
   55.4390   28.8420   51.6260 H   0  0  0  0  0  0  0  0  0  0  0  0
   56.1220   29.1860   52.2920 O   0  0  0  0  0  0  0  0  0  0  0  0
   56.9370   30.2780   52.0010 C   0  0  0  0  0  0  0  0  0  0  0  0
   56.5250   31.5630   52.3640 C   0  0  0  0  0  0  0  0  0  0  0  0
   55.5624   31.7050   52.8770 H   0  0  0  0  0  0  0  0  0  0  0  0
   57.3310   32.6690   52.0780 C   0  0  0  0  0  0  0  0  0  0  0  0
   57.0032   33.6761   52.3750 H   0  0  0  0  0  0  0  0  0  0  0  0
   58.5580   32.5010   51.4130 C   0  0  0  0  0  0  0  0  0  0  0  0
   59.4110   33.6770   51.1150 C   0  0  0  0  0  0  0  0  0  0  0  0
   59.5860   34.5530   52.0030 O   0  0  0  0  0  0  0  0  0  0  0  0
   60.0860   33.8280   49.8600 N   0  0  0  0  0  0  0  0  0  0  0  0
   59.6700   33.2670   48.6060 C   0  0  0  0  0  0  0  0  0  0  0  0
   58.6940   33.8800   47.8060 C   0  0  0  0  0  0  0  0  0  0  0  0
   58.2184   34.8142   48.1394 H   0  0  0  0  0  0  0  0  0  0  0  0
   58.3350   33.3220   46.6200 N   0  0  0  0  0  0  0  0  0  0  0  0
   58.8920   32.1710   46.1570 C   0  0  0  0  0  0  0  0  0  0  0  0
   58.4850   31.7000   45.0110 N   0  0  0  0  0  0  0  0  0  0  0  0
   57.4220   30.7610   44.7830 C   0  0  0  0  0  0  0  0  0  0  0  0
   56.3310   31.1890   44.3240 O   0  0  0  0  0  0  0  0  0  0  0  0
   57.5490   29.3320   45.1720 C   0  0  0  0  0  0  0  0  0  0  0  0
   58.8150   28.7960   45.4650 C   0  0  0  0  0  0  0  0  0  0  0  0
   59.7053   29.4394   45.4068 H   0  0  0  0  0  0  0  0  0  0  0  0
   58.9540   27.4560   45.8290 C   0  0  0  0  0  0  0  0  0  0  0  0
   59.9530   27.0504   46.0470 H   0  0  0  0  0  0  0  0  0  0  0  0
   57.8290   26.6220   45.9190 C   0  0  0  0  0  0  0  0  0  0  0  0
   57.9740   25.2330   46.2770 N   0  0  0  0  0  0  0  0  0  0  0  0
   59.2180   24.5060   46.0110 C   0  0  0  0  0  0  0  0  0  0  0  0
   59.6723   24.2023   46.9656 H   0  0  0  0  0  0  0  0  0  0  0  0
   59.9061   25.1632   45.4591 H   0  0  0  0  0  0  0  0  0  0  0  0
   58.9320   23.2520   45.1620 C   0  0  0  0  0  0  0  0  0  0  0  0
   59.7026   22.4995   45.3854 H   0  0  0  0  0  0  0  0  0  0  0  0
   58.9444   23.5701   44.1091 H   0  0  0  0  0  0  0  0  0  0  0  0
   57.5990   22.6450   45.4130 N   0  0  0  0  0  0  0  0  0  0  0  0
   56.6510   22.9340   44.3230 C   0  0  0  0  0  0  0  0  0  0  0  0
   55.6811   23.2297   44.7494 H   0  0  0  0  0  0  0  0  0  0  0  0
   57.0439   23.7532   43.7029 H   0  0  0  0  0  0  0  0  0  0  0  0
   56.5201   22.0349   43.7029 H   0  0  0  0  0  0  0  0  0  0  0  0
   57.0350   22.9930   46.7360 C   0  0  0  0  0  0  0  0  0  0  0  0
   57.7130   22.6243   47.5199 H   0  0  0  0  0  0  0  0  0  0  0  0
   56.0429   22.5249   46.8177 H   0  0  0  0  0  0  0  0  0  0  0  0
   56.8610   24.5110   46.9030 C   0  0  0  0  0  0  0  0  0  0  0  0
   56.8299   24.7550   47.9751 H   0  0  0  0  0  0  0  0  0  0  0  0
   55.9234   24.8151   46.4148 H   0  0  0  0  0  0  0  0  0  0  0  0
   56.5620   27.1510   45.6240 C   0  0  0  0  0  0  0  0  0  0  0  0
   55.6741   26.5043   45.6828 H   0  0  0  0  0  0  0  0  0  0  0  0
   56.4190   28.4930   45.2560 C   0  0  0  0  0  0  0  0  0  0  0  0
   55.1470   28.9770   44.9620 O   0  0  0  0  0  0  0  0  0  0  0  0
   59.9090   31.5520   46.9140 C   0  0  0  0  0  0  0  0  0  0  0  0
   60.3962   30.6375   46.5447 H   0  0  0  0  0  0  0  0  0  0  0  0
   60.2920   32.1090   48.1350 C   0  0  0  0  0  0  0  0  0  0  0  0
   61.0869   31.6339   48.7286 H   0  0  0  0  0  0  0  0  0  0  0  0
   58.9740   31.2030   51.0650 C   0  0  0  0  0  0  0  0  0  0  0  0
   59.9416   31.0554   50.5629 H   0  0  0  0  0  0  0  0  0  0  0  0
   58.1660   30.1000   51.3530 C   0  0  0  0  0  0  0  0  0  0  0  0
   58.4959   29.0895   51.0702 H   0  0  0  0  0  0  0  0  0  0  0  0
  1  2  1  0
  2  3  1  0
  3  4  2  0
  4  5  1  0
  4  6  1  0
  6  7  1  0
  6  8  2  0
  8  9  1  0
  9 10  2  0
  9 11  1  0
 11 12  1  0
 12 13  2  0
 13 14  1  0
 13 15  1  0
 15 16  1  0
 16 17  2  0
 17 18  1  0
 18 19  2  0
 18 20  1  0
 20 21  2  0
 21 22  1  0
 21 23  1  0
 23 24  1  0
 23 25  2  0
 25 26  1  0
 26 27  1  0
 27 28  1  0
 27 29  1  0
 27 30  1  0
 30 31  1  0
 30 32  1  0
 30 33  1  0
 33 34  1  0
 34 35  1  0
 34 36  1  0
 34 37  1  0
 33 38  1  0
 38 39  1  0
 38 40  1  0
 38 41  1  0
 41 42  1  0
 41 43  1  0
 25 44  1  0
 44 45  1  0
 44 46  2  0
 46 47  1  0
 16 48  1  0
 48 49  1  0
 48 50  2  0
 50 51  1  0
  8 52  1  0
 52 53  1  0
 52 54  2  0
 54 55  1  0
 54  3  1  0
 50 12  1  0
 46 20  1  0
 41 26  1  0
M  CHG  3  11  -1  15  -1  47  -1
M  END
>  <UniqueID>  (79) 
70

>  <SMILES>  (79) 
CN1CCN(c2ccc(C(=O)/N=c3\ccc([N-]C(=O)c4ccc(O)cc4)c[n-]3)c([O-])c2)CC1

>  <Energy>  (79) 
88.99784494113342

>  <Genealogy>  (79) 
CN1CCN(c2ccc(C(=O)N=c3ccc([N-]C(=O)c4ccc(O)cc4)c[n-]3)c([O-])c2)CC1 (protonated)
CN1CCN(c2ccc(C(=O)/N=c3\ccc([N-]C(=O)c4ccc(O)cc4)c[n-]3)c([O-])c2)CC1 (cis-trans isomerization)
CN1CCN(c2ccc(C(=O)/N=c3\ccc([N-]C(=O)c4ccc(O)cc4)c[n-]3)c([O-])c2)CC1 (3D coordinates assigned)
CN1CCN(c2ccc(C(=O)/N=c3\ccc([N-]C(=O)c4ccc(O)cc4)c[n-]3)c([O-])c2)CC1 (nonaromatic ring conformer: 88.99784494113342 kcal/mol)

>  <smiles>  (79) 
CN1CCN(c2ccc(C(=O)N=c3ccc(NC(=O)c4ccc(O)cc4)c[nH]3)c(O)c2)CC1

>  <score_type>  (79) 
oracle

>  <origin>  (79) 
adg

>  <m_score__min__energy>  (79) 
-14.15

>  <m_primary>  (79) 
energy

$$$$
79:0
     RDKit          3D

 45 47  0  0  0  0  0  0  0  0999 V2000
   55.7720   30.5310   52.4110 C   0  0  0  0  0  0  0  0  0  0  0  0
   56.9230   30.0220   51.7320 O   0  0  0  0  0  0  0  0  0  0  0  0
   57.8760   30.8180   51.0650 C   0  0  0  0  0  0  0  0  0  0  0  0
   58.0780   32.1770   51.3800 C   0  0  0  0  0  0  0  0  0  0  0  0
   59.0340   32.9280   50.6900 C   0  0  0  0  0  0  0  0  0  0  0  0
   59.8060   32.3380   49.6720 C   0  0  0  0  0  0  0  0  0  0  0  0
   60.7860   33.0880   48.9340 N   0  0  0  0  0  0  0  0  0  0  0  0
   61.1770   32.8090   47.2710 S   0  0  0  0  0  0  0  0  0  0  0  0
   62.1920   33.8230   46.8250 O   0  0  0  0  0  0  0  0  0  0  0  0
   61.7670   31.4240   47.1160 O   0  0  0  0  0  0  0  0  0  0  0  0
   59.7160   33.0020   46.2990 C   0  0  0  0  0  0  0  0  0  0  0  0
   59.4310   34.2130   45.6440 C   0  0  0  0  0  0  0  0  0  0  0  0
   58.2720   34.3420   44.8800 C   0  0  0  0  0  0  0  0  0  0  0  0
   57.3990   33.2590   44.7410 C   0  0  0  0  0  0  0  0  0  0  0  0
   57.6570   32.0540   45.4080 C   0  0  0  0  0  0  0  0  0  0  0  0
   56.7410   30.9620   45.2410 N   0  0  0  0  0  0  0  0  0  0  0  0
   56.7060   30.0370   44.1400 C   0  0  0  0  0  0  0  0  0  0  0  0
   55.8050   30.1070   43.2600 O   0  0  0  0  0  0  0  0  0  0  0  0
   57.7750   28.9990   44.0070 C   0  0  0  0  0  0  0  0  0  0  0  0
   58.4440   28.5480   45.6530 S   0  0  0  0  0  0  0  0  0  0  0  0
   57.3260   27.1610   45.9080 C   0  0  0  0  0  0  0  0  0  0  0  0
   55.9830   27.3510   45.7970 N   0  0  0  0  0  0  0  0  0  0  0  0
   55.1270   26.3410   45.9850 N   0  0  0  0  0  0  0  0  0  0  0  0
   55.5750   25.0940   46.2990 C   0  0  0  0  0  0  0  0  0  0  0  0
   54.7550   24.1550   46.4720 O   0  0  0  0  0  0  0  0  0  0  0  0
   56.9070   24.8710   46.4300 N   0  0  0  0  0  0  0  0  0  0  0  0
   57.7960   25.8810   46.2430 C   0  0  0  0  0  0  0  0  0  0  0  0
   59.0310   25.6590   46.3810 O   0  0  0  0  0  0  0  0  0  0  0  0
   58.8380   31.9190   46.1660 C   0  0  0  0  0  0  0  0  0  0  0  0
   59.6050   30.9780   49.3730 C   0  0  0  0  0  0  0  0  0  0  0  0
   58.6470   30.2290   50.0600 C   0  0  0  0  0  0  0  0  0  0  0  0
   55.9272   30.4623   53.4978 H   0  0  0  0  0  0  0  0  0  0  0  0
   55.6149   31.5825   52.1287 H   0  0  0  0  0  0  0  0  0  0  0  0
   54.8884   29.9397   52.1287 H   0  0  0  0  0  0  0  0  0  0  0  0
   57.4799   32.6492   52.1733 H   0  0  0  0  0  0  0  0  0  0  0  0
   59.1839   33.9876   50.9445 H   0  0  0  0  0  0  0  0  0  0  0  0
   61.3130   33.8520   49.4140 H   0  0  0  0  0  0  0  0  0  0  0  0
   60.1249   35.0617   45.7347 H   0  0  0  0  0  0  0  0  0  0  0  0
   58.0440   35.2978   44.3856 H   0  0  0  0  0  0  0  0  0  0  0  0
   56.5061   33.3532   44.1055 H   0  0  0  0  0  0  0  0  0  0  0  0
   57.3512   28.1025   43.5309 H   0  0  0  0  0  0  0  0  0  0  0  0
   58.5908   29.4066   43.3920 H   0  0  0  0  0  0  0  0  0  0  0  0
   59.0704   30.9610   46.6540 H   0  0  0  0  0  0  0  0  0  0  0  0
   60.2096   30.4989   48.5888 H   0  0  0  0  0  0  0  0  0  0  0  0
   58.4987   29.1686   49.8081 H   0  0  0  0  0  0  0  0  0  0  0  0
  1  2  1  0
  2  3  1  0
  3  4  2  0
  4  5  1  0
  5  6  2  0
  6  7  1  0
  7  8  1  0
  8  9  2  0
  8 10  2  0
  8 11  1  0
 11 12  2  0
 12 13  1  0
 13 14  2  0
 14 15  1  0
 15 16  1  0
 16 17  1  0
 17 18  2  0
 17 19  1  0
 19 20  1  0
 20 21  1  0
 21 22  2  0
 22 23  1  0
 23 24  1  0
 24 25  2  0
 24 26  1  0
 26 27  1  0
 27 28  2  0
 15 29  2  0
  6 30  1  0
 30 31  2  0
 31  3  1  0
 29 11  1  0
 27 21  1  0
  1 32  1  0
  1 33  1  0
  1 34  1  0
  4 35  1  0
  5 36  1  0
  7 37  1  0
 12 38  1  0
 13 39  1  0
 14 40  1  0
 19 41  1  0
 19 42  1  0
 29 43  1  0
 30 44  1  0
 31 45  1  0
M  CHG  3  16  -1  23  -1  26  -1
M  END
>  <UniqueID>  (80) 
71

>  <SMILES>  (80) 
COc1ccc(NS(=O)(=O)c2cccc([N-]C(=O)CSc3n[n-]c(=O)[n-]c3=O)c2)cc1

>  <Energy>  (80) 
48.98662704849079

>  <Genealogy>  (80) 
COc1ccc(NS(=O)(=O)c2cccc([N-]C(=O)CSc3n[n-]c(=O)[n-]c3=O)c2)cc1 (protonated)
COc1ccc(NS(=O)(=O)c2cccc([N-]C(=O)CSc3n[n-]c(=O)[n-]c3=O)c2)cc1 (3D coordinates assigned)
COc1ccc(NS(=O)(=O)c2cccc([N-]C(=O)CSc3n[n-]c(=O)[n-]c3=O)c2)cc1 (optimized conformer: 48.98662704849079 kcal/mol)

>  <smiles>  (80) 
COc1ccc(NS(=O)(=O)c2cccc(NC(=O)CSc3n[nH]c(=O)[nH]c3=O)c2)cc1

>  <score_type>  (80) 
oracle

>  <origin>  (80) 
adg

>  <m_score__min__energy>  (80) 
-15.380000000000001

>  <m_primary>  (80) 
energy

$$$$
80:0
     RDKit          3D

 42 43  0  0  0  0  0  0  0  0999 V2000
   63.1970   32.6590   47.1920 C   0  0  0  0  0  0  0  0  0  0  0  0
   62.4600   33.8470   46.9210 O   0  0  0  0  0  0  0  0  0  0  0  0
   61.0610   33.9180   46.8510 C   0  0  0  0  0  0  0  0  0  0  0  0
   60.3810   33.8210   45.6210 C   0  0  0  0  0  0  0  0  0  0  0  0
   58.9910   33.9090   45.5720 C   0  0  0  0  0  0  0  0  0  0  0  0
   58.2610   34.0870   46.7440 C   0  0  0  0  0  0  0  0  0  0  0  0
   58.9180   34.1700   47.9730 C   0  0  0  0  0  0  0  0  0  0  0  0
   60.3200   34.0980   48.0400 C   0  0  0  0  0  0  0  0  0  0  0  0
   61.0010   34.1160   49.3920 C   0  0  0  0  0  0  0  0  0  0  0  0
   60.1760   33.4510   50.4630 C   0  0  0  0  0  0  0  0  0  0  0  0
   59.7540   34.1450   51.4250 O   0  0  0  0  0  0  0  0  0  0  0  0
   59.8170   32.0630   50.4060 N   0  0  0  0  0  0  0  0  0  0  0  0
   58.8620   31.4620   49.4800 C   0  0  0  0  0  0  0  0  0  0  0  0
   58.6580   30.0220   49.8240 C   0  0  0  0  0  0  0  0  0  0  0  0
   58.0110   29.7170   50.8630 O   0  0  0  0  0  0  0  0  0  0  0  0
   59.1270   29.0070   48.9320 N   0  0  0  0  0  0  0  0  0  0  0  0
   59.2350   29.1110   47.5060 C   0  0  0  0  0  0  0  0  0  0  0  0
   60.4700   29.0080   46.8410 C   0  0  0  0  0  0  0  0  0  0  0  0
   60.5400   29.1910   45.4570 C   0  0  0  0  0  0  0  0  0  0  0  0
   59.3880   29.4940   44.7300 C   0  0  0  0  0  0  0  0  0  0  0  0
   58.1570   29.6250   45.3850 C   0  0  0  0  0  0  0  0  0  0  0  0
   56.7050   30.0740   44.4920 S   0  0  0  0  0  0  0  0  0  0  0  0
   55.4220   28.9810   44.8750 N   0  0  0  0  0  0  0  0  0  0  0  0
   56.9710   30.0190   43.0130 O   0  0  0  0  0  0  0  0  0  0  0  0
   56.3050   31.4760   44.8610 O   0  0  0  0  0  0  0  0  0  0  0  0
   58.0860   29.4310   46.7710 C   0  0  0  0  0  0  0  0  0  0  0  0
   63.2827   32.5208   48.2799 H   0  0  0  0  0  0  0  0  0  0  0  0
   62.6756   31.7958   46.7527 H   0  0  0  0  0  0  0  0  0  0  0  0
   64.2020   32.7427   46.7527 H   0  0  0  0  0  0  0  0  0  0  0  0
   60.9516   33.6747   44.6920 H   0  0  0  0  0  0  0  0  0  0  0  0
   58.4699   33.8377   44.6059 H   0  0  0  0  0  0  0  0  0  0  0  0
   57.1644   34.1624   46.7016 H   0  0  0  0  0  0  0  0  0  0  0  0
   58.3334   34.2928   48.8967 H   0  0  0  0  0  0  0  0  0  0  0  0
   61.9629   33.5887   49.3094 H   0  0  0  0  0  0  0  0  0  0  0  0
   61.1397   35.1679   49.6821 H   0  0  0  0  0  0  0  0  0  0  0  0
   57.9015   31.9935   49.5505 H   0  0  0  0  0  0  0  0  0  0  0  0
   59.2543   31.5377   48.4551 H   0  0  0  0  0  0  0  0  0  0  0  0
   61.3832   28.7829   47.4115 H   0  0  0  0  0  0  0  0  0  0  0  0
   61.5059   29.0959   44.9394 H   0  0  0  0  0  0  0  0  0  0  0  0
   59.4469   29.6303   43.6401 H   0  0  0  0  0  0  0  0  0  0  0  0
   54.6700   29.5420   45.3350 H   0  0  0  0  0  0  0  0  0  0  0  0
   57.1194   29.5309   47.2865 H   0  0  0  0  0  0  0  0  0  0  0  0
  1  2  1  0
  2  3  1  0
  3  4  2  0
  4  5  1  0
  5  6  2  0
  6  7  1  0
  7  8  2  0
  8  9  1  0
  9 10  1  0
 10 11  2  0
 10 12  1  0
 12 13  1  0
 13 14  1  0
 14 15  2  0
 14 16  1  0
 16 17  1  0
 17 18  2  0
 18 19  1  0
 19 20  2  0
 20 21  1  0
 21 22  1  0
 22 23  1  0
 22 24  2  0
 22 25  2  0
 21 26  2  0
  8  3  1  0
 26 17  1  0
  1 27  1  0
  1 28  1  0
  1 29  1  0
  4 30  1  0
  5 31  1  0
  6 32  1  0
  7 33  1  0
  9 34  1  0
  9 35  1  0
 13 36  1  0
 13 37  1  0
 18 38  1  0
 19 39  1  0
 20 40  1  0
 23 41  1  0
 26 42  1  0
M  CHG  3  12  -1  16  -1  23  -1
M  END
>  <UniqueID>  (81) 
72

>  <SMILES>  (81) 
COc1ccccc1CC(=O)[N-]CC(=O)[N-]c1cccc(S([NH-])(=O)=O)c1

>  <Energy>  (81) 
38.372908255575375

>  <Genealogy>  (81) 
COc1ccccc1CC(=O)[N-]CC(=O)[N-]c1cccc(S([NH-])(=O)=O)c1 (protonated)
COc1ccccc1CC(=O)[N-]CC(=O)[N-]c1cccc(S([NH-])(=O)=O)c1 (3D coordinates assigned)
COc1ccccc1CC(=O)[N-]CC(=O)[N-]c1cccc(S([NH-])(=O)=O)c1 (optimized conformer: 38.372908255575375 kcal/mol)

>  <smiles>  (81) 
COc1ccccc1CC(=O)NCC(=O)Nc1cccc(S(N)(=O)=O)c1

>  <score_type>  (81) 
oracle

>  <origin>  (81) 
adg

>  <m_score__min__energy>  (81) 
-13.17

>  <m_primary>  (81) 
energy

$$$$
81:0
     RDKit          3D

 41 43  0  0  0  0  0  0  0  0999 V2000
   62.5430   33.8080   53.1570 C   0  0  0  0  0  0  0  0  0  0  0  0
   63.1010   33.6180   51.7770 C   0  0  0  0  0  0  0  0  0  0  0  0
   64.4390   33.2370   51.6030 C   0  0  0  0  0  0  0  0  0  0  0  0
   64.9740   33.0910   50.3150 C   0  0  0  0  0  0  0  0  0  0  0  0
   66.3860   32.6170   50.1340 C   0  0  0  0  0  0  0  0  0  0  0  0
   64.1590   33.3210   49.1970 C   0  0  0  0  0  0  0  0  0  0  0  0
   62.8280   33.7450   49.3590 C   0  0  0  0  0  0  0  0  0  0  0  0
   61.9750   33.9830   48.2250 N   0  0  0  0  0  0  0  0  0  0  0  0
   60.5680   33.6920   48.2050 C   0  0  0  0  0  0  0  0  0  0  0  0
   60.0490   32.9970   49.1200 O   0  0  0  0  0  0  0  0  0  0  0  0
   59.7240   34.1960   47.1050 C   0  0  0  0  0  0  0  0  0  0  0  0
   59.7550   35.4210   46.8110 O   0  0  0  0  0  0  0  0  0  0  0  0
   58.7860   33.3160   46.3860 C   0  0  0  0  0  0  0  0  0  0  0  0
   57.5740   33.7110   45.8390 C   0  0  0  0  0  0  0  0  0  0  0  0
   56.9540   32.6650   45.2510 N   0  0  0  0  0  0  0  0  0  0  0  0
   57.7660   31.6000   45.4100 C   0  0  0  0  0  0  0  0  0  0  0  0
   57.5870   30.2900   44.9210 C   0  0  0  0  0  0  0  0  0  0  0  0
   56.3510   29.8410   44.2400 C   0  0  0  0  0  0  0  0  0  0  0  0
   55.4120   28.9990   44.9030 N   0  0  0  0  0  0  0  0  0  0  0  0
   56.1420   30.1660   43.0400 O   0  0  0  0  0  0  0  0  0  0  0  0
   58.6500   29.3780   45.1160 C   0  0  0  0  0  0  0  0  0  0  0  0
   59.8300   29.7710   45.7750 C   0  0  0  0  0  0  0  0  0  0  0  0
   59.9750   31.0780   46.2620 C   0  0  0  0  0  0  0  0  0  0  0  0
   61.1440   31.4640   46.8310 F   0  0  0  0  0  0  0  0  0  0  0  0
   58.9130   31.9680   46.0830 C   0  0  0  0  0  0  0  0  0  0  0  0
   62.3040   33.8810   50.6520 C   0  0  0  0  0  0  0  0  0  0  0  0
   63.3095   33.5470   53.9016 H   0  0  0  0  0  0  0  0  0  0  0  0
   62.2447   34.8583   53.2905 H   0  0  0  0  0  0  0  0  0  0  0  0
   61.6657   33.1579   53.2905 H   0  0  0  0  0  0  0  0  0  0  0  0
   65.0732   33.0514   52.4824 H   0  0  0  0  0  0  0  0  0  0  0  0
   66.8497   32.4614   51.1193 H   0  0  0  0  0  0  0  0  0  0  0  0
   66.3859   31.6696   49.5750 H   0  0  0  0  0  0  0  0  0  0  0  0
   66.9576   33.3725   49.5750 H   0  0  0  0  0  0  0  0  0  0  0  0
   64.5640   33.1686   48.1857 H   0  0  0  0  0  0  0  0  0  0  0  0
   62.4250   34.2890   47.3320 H   0  0  0  0  0  0  0  0  0  0  0  0
   57.1732   34.7346   45.8786 H   0  0  0  0  0  0  0  0  0  0  0  0
   56.0470   32.7160   44.7410 H   0  0  0  0  0  0  0  0  0  0  0  0
   54.4750   29.3610   45.1880 H   0  0  0  0  0  0  0  0  0  0  0  0
   58.5533   28.3462   44.7472 H   0  0  0  0  0  0  0  0  0  0  0  0
   60.6463   29.0460   45.9093 H   0  0  0  0  0  0  0  0  0  0  0  0
   61.2588   34.1967   50.7862 H   0  0  0  0  0  0  0  0  0  0  0  0
  1  2  1  0
  2  3  2  0
  3  4  1  0
  4  5  1  0
  4  6  2  0
  6  7  1  0
  7  8  1  0
  8  9  1  0
  9 10  2  0
  9 11  1  0
 11 12  2  0
 11 13  1  0
 13 14  2  0
 14 15  1  0
 15 16  1  0
 16 17  2  0
 17 18  1  0
 18 19  1  0
 18 20  2  0
 17 21  1  0
 21 22  2  0
 22 23  1  0
 23 24  1  0
 23 25  2  0
  7 26  2  0
 26  2  1  0
 25 13  1  0
 25 16  1  0
  1 27  1  0
  1 28  1  0
  1 29  1  0
  3 30  1  0
  5 31  1  0
  5 32  1  0
  5 33  1  0
  6 34  1  0
  8 35  1  0
 14 36  1  0
 15 37  1  0
 19 38  1  0
 21 39  1  0
 22 40  1  0
 26 41  1  0
M  CHG  1  19  -1
M  END
>  <UniqueID>  (82) 
73

>  <SMILES>  (82) 
Cc1cc(C)cc(NC(=O)C(=O)c2c[nH]c3c(C([NH-])=O)ccc(F)c23)c1

>  <Energy>  (82) 
86.41819805381385

>  <Genealogy>  (82) 
Cc1cc(C)cc(NC(=O)C(=O)c2c[nH]c3c(C([NH-])=O)ccc(F)c23)c1 (protonated)
Cc1cc(C)cc(NC(=O)C(=O)c2c[nH]c3c(C([NH-])=O)ccc(F)c23)c1 (3D coordinates assigned)
Cc1cc(C)cc(NC(=O)C(=O)c2c[nH]c3c(C([NH-])=O)ccc(F)c23)c1 (optimized conformer: 86.41819805381385 kcal/mol)

>  <smiles>  (82) 
Cc1cc(C)cc(NC(=O)C(=O)c2c[nH]c3c(C(N)=O)ccc(F)c23)c1

>  <score_type>  (82) 
oracle

>  <origin>  (82) 
adg

>  <m_score__min__energy>  (82) 
-12.390000000000001

>  <m_primary>  (82) 
energy

$$$$
82:0
     RDKit          3D

 45 48  0  0  0  0  0  0  0  0999 V2000
   58.8350   29.1450   44.1400 O   0  0  0  0  0  0  0  0  0  0  0  0
   57.6290   29.1640   44.3700 C   0  0  0  0  0  0  0  0  0  0  0  0
   56.6760   29.7650   43.3620 C   0  0  0  0  0  0  0  0  0  0  0  0
   57.3340   31.3410   42.6870 S   0  0  0  0  0  0  0  0  0  0  0  0
   57.6350   32.0920   44.2950 C   0  0  0  0  0  0  0  0  0  0  0  0
   56.6690   32.3560   45.1840 N   0  0  0  0  0  0  0  0  0  0  0  0
   57.2700   32.8430   46.2600 N   0  0  0  0  0  0  0  0  0  0  0  0
   58.5870   32.8670   45.9930 C   0  0  0  0  0  0  0  0  0  0  0  0
   59.6200   33.3150   46.9540 C   0  0  0  0  0  0  0  0  0  0  0  0
   59.2500   33.7550   48.2390 C   0  0  0  0  0  0  0  0  0  0  0  0
   60.2250   34.1970   49.1430 C   0  0  0  0  0  0  0  0  0  0  0  0
   61.5780   34.1950   48.7700 C   0  0  0  0  0  0  0  0  0  0  0  0
   61.9600   33.7440   47.5000 C   0  0  0  0  0  0  0  0  0  0  0  0
   60.9870   33.3060   46.5960 C   0  0  0  0  0  0  0  0  0  0  0  0
   58.8640   32.3920   44.7570 N   0  0  0  0  0  0  0  0  0  0  0  0
   57.1170   28.5820   45.6710 C   0  0  0  0  0  0  0  0  0  0  0  0
   57.1440   27.1180   45.6350 N   0  0  0  0  0  0  0  0  0  0  0  0
   56.0870   26.2860   45.7890 C   0  0  0  0  0  0  0  0  0  0  0  0
   54.7830   26.7150   46.0100 O   0  0  0  0  0  0  0  0  0  0  0  0
   56.4940   24.9680   45.6940 C   0  0  0  0  0  0  0  0  0  0  0  0
   57.8590   24.9890   45.5110 C   0  0  0  0  0  0  0  0  0  0  0  0
   58.2310   26.3230   45.4560 C   0  0  0  0  0  0  0  0  0  0  0  0
   59.5230   26.8030   45.2350 O   0  0  0  0  0  0  0  0  0  0  0  0
   58.6870   23.7600   45.2600 C   0  0  0  0  0  0  0  0  0  0  0  0
   57.9030   22.4830   45.6580 C   0  0  0  0  0  0  0  0  0  0  0  0
   56.4390   22.5360   45.1740 C   0  0  0  0  0  0  0  0  0  0  0  0
   55.6840   23.7090   45.8320 C   0  0  0  0  0  0  0  0  0  0  0  0
   56.5311   29.0532   42.5360 H   0  0  0  0  0  0  0  0  0  0  0  0
   55.7205   29.9729   43.8657 H   0  0  0  0  0  0  0  0  0  0  0  0
   58.1905   33.7518   48.5348 H   0  0  0  0  0  0  0  0  0  0  0  0
   59.9303   34.5452   50.1440 H   0  0  0  0  0  0  0  0  0  0  0  0
   62.3418   34.5491   49.4780 H   0  0  0  0  0  0  0  0  0  0  0  0
   63.0223   33.7344   47.2146 H   0  0  0  0  0  0  0  0  0  0  0  0
   61.2880   32.9519   45.5990 H   0  0  0  0  0  0  0  0  0  0  0  0
   57.7520   28.9337   46.4975 H   0  0  0  0  0  0  0  0  0  0  0  0
   56.0777   28.9109   45.8183 H   0  0  0  0  0  0  0  0  0  0  0  0
   59.6830   27.6740   44.7380 H   0  0  0  0  0  0  0  0  0  0  0  0
   58.9430   23.7087   44.1914 H   0  0  0  0  0  0  0  0  0  0  0  0
   59.6017   23.8184   45.8682 H   0  0  0  0  0  0  0  0  0  0  0  0
   58.3953   21.6082   45.2083 H   0  0  0  0  0  0  0  0  0  0  0  0
   57.8981   22.4127   46.7557 H   0  0  0  0  0  0  0  0  0  0  0  0
   56.4252   22.6662   44.0818 H   0  0  0  0  0  0  0  0  0  0  0  0
   55.9416   21.5960   45.4551 H   0  0  0  0  0  0  0  0  0  0  0  0
   54.7112   23.8429   45.3362 H   0  0  0  0  0  0  0  0  0  0  0  0
   55.5256   23.4904   46.8984 H   0  0  0  0  0  0  0  0  0  0  0  0
  1  2  2  0
  2  3  1  0
  3  4  1  0
  4  5  1  0
  5  6  2  0
  6  7  1  0
  7  8  1  0
  8  9  1  0
  9 10  2  0
 10 11  1  0
 11 12  2  0
 12 13  1  0
 13 14  2  0
  8 15  2  0
  2 16  1  0
 16 17  1  0
 17 18  1  0
 18 19  1  0
 18 20  2  0
 20 21  1  0
 21 22  2  0
 22 23  1  0
 21 24  1  0
 24 25  1  0
 25 26  1  0
 26 27  1  0
 15  5  1  0
 22 17  1  0
 14  9  1  0
 27 20  1  0
  3 28  1  0
  3 29  1  0
 10 30  1  0
 11 31  1  0
 12 32  1  0
 13 33  1  0
 14 34  1  0
 16 35  1  0
 16 36  1  0
 23 37  1  0
 24 38  1  0
 24 39  1  0
 25 40  1  0
 25 41  1  0
 26 42  1  0
 26 43  1  0
 27 44  1  0
 27 45  1  0
M  CHG  2   7  -1  19  -1
M  END
>  <UniqueID>  (83) 
74

>  <SMILES>  (83) 
O=C(CSc1n[n-]c(-c2ccccc2)n1)Cn1c([O-])c2c(c1O)CCCC2

>  <Energy>  (83) 
103.89975913383024

>  <Genealogy>  (83) 
O=C(CSc1n[n-]c(-c2ccccc2)n1)Cn1c([O-])c2c(c1O)CCCC2 (protonated)
O=C(CSc1n[n-]c(-c2ccccc2)n1)Cn1c([O-])c2c(c1O)CCCC2 (3D coordinates assigned)
O=C(CSc1n[n-]c(-c2ccccc2)n1)Cn1c([O-])c2c(c1O)CCCC2 (nonaromatic ring conformer: 103.89975913383024 kcal/mol)

>  <smiles>  (83) 
O=C(CSc1n[nH]c(-c2ccccc2)n1)Cn1c(O)c2c(c1O)CCCC2

>  <score_type>  (83) 
oracle

>  <origin>  (83) 
adg

>  <m_score__min__energy>  (83) 
-13.75

>  <m_primary>  (83) 
energy

$$$$
83:0
     RDKit          3D

 48 50  0  0  0  0  0  0  0  0999 V2000
   59.7710   34.1220   49.5950 C   0  0  0  0  0  0  0  0  0  0  0  0
   59.3760   33.4240   48.3780 N   0  0  0  0  0  0  0  0  0  0  0  0
   58.9610   34.1360   47.2050 C   0  0  0  0  0  0  0  0  0  0  0  0
   59.0350   35.3930   47.1680 O   0  0  0  0  0  0  0  0  0  0  0  0
   58.4210   33.4150   46.0460 C   0  0  0  0  0  0  0  0  0  0  0  0
   58.7010   33.7140   44.7610 N   0  0  0  0  0  0  0  0  0  0  0  0
   58.0370   32.8410   44.0190 N   0  0  0  0  0  0  0  0  0  0  0  0
   57.3880   32.0430   44.8850 C   0  0  0  0  0  0  0  0  0  0  0  0
   56.6250   31.0600   44.5140 N   0  0  0  0  0  0  0  0  0  0  0  0
   56.7180   29.7190   45.0170 C   0  0  0  0  0  0  0  0  0  0  0  0
   55.7580   28.9290   44.8090 O   0  0  0  0  0  0  0  0  0  0  0  0
   57.9250   29.2240   45.7200 C   0  0  0  0  0  0  0  0  0  0  0  0
   58.6530   28.1420   45.1980 C   0  0  0  0  0  0  0  0  0  0  0  0
   59.7900   27.6700   45.8610 C   0  0  0  0  0  0  0  0  0  0  0  0
   60.2170   28.2810   47.0410 C   0  0  0  0  0  0  0  0  0  0  0  0
   59.5180   29.3770   47.5610 C   0  0  0  0  0  0  0  0  0  0  0  0
   60.0650   30.1370   49.0550 S   0  0  0  0  0  0  0  0  0  0  0  0
   60.6860   29.1060   49.9570 O   0  0  0  0  0  0  0  0  0  0  0  0
   58.8670   30.7190   49.7540 O   0  0  0  0  0  0  0  0  0  0  0  0
   61.2230   31.3990   48.6980 N   0  0  0  0  0  0  0  0  0  0  0  0
   61.5400   31.4330   47.2490 C   0  0  0  0  0  0  0  0  0  0  0  0
   62.2110   32.7340   46.7490 C   0  0  0  0  0  0  0  0  0  0  0  0
   62.4090   33.8490   47.8100 C   0  0  0  0  0  0  0  0  0  0  0  0
   63.4570   33.5510   48.8950 C   0  0  0  0  0  0  0  0  0  0  0  0
   62.9650   32.6310   50.0320 C   0  0  0  0  0  0  0  0  0  0  0  0
   62.3850   31.2720   49.5990 C   0  0  0  0  0  0  0  0  0  0  0  0
   58.3750   29.8480   46.8980 C   0  0  0  0  0  0  0  0  0  0  0  0
   57.6100   32.3880   46.1310 O   0  0  0  0  0  0  0  0  0  0  0  0
   59.4439   33.5439   50.4718 H   0  0  0  0  0  0  0  0  0  0  0  0
   60.8653   34.2321   49.6158 H   0  0  0  0  0  0  0  0  0  0  0  0
   59.3020   35.1168   49.6158 H   0  0  0  0  0  0  0  0  0  0  0  0
   59.3500   32.3800   48.3870 H   0  0  0  0  0  0  0  0  0  0  0  0
   58.3269   27.6635   44.2627 H   0  0  0  0  0  0  0  0  0  0  0  0
   60.3490   26.8155   45.4518 H   0  0  0  0  0  0  0  0  0  0  0  0
   61.1062   27.8999   47.5645 H   0  0  0  0  0  0  0  0  0  0  0  0
   62.2181   30.5951   47.0298 H   0  0  0  0  0  0  0  0  0  0  0  0
   60.5750   31.3680   46.7251 H   0  0  0  0  0  0  0  0  0  0  0  0
   63.2013   32.4698   46.3497 H   0  0  0  0  0  0  0  0  0  0  0  0
   61.5218   33.1547   46.0020 H   0  0  0  0  0  0  0  0  0  0  0  0
   62.7157   34.7658   47.2852 H   0  0  0  0  0  0  0  0  0  0  0  0
   61.4471   33.9401   48.3358 H   0  0  0  0  0  0  0  0  0  0  0  0
   64.3207   33.0689   48.4138 H   0  0  0  0  0  0  0  0  0  0  0  0
   63.7041   34.5161   49.3614 H   0  0  0  0  0  0  0  0  0  0  0  0
   63.8174   32.4357   50.6993 H   0  0  0  0  0  0  0  0  0  0  0  0
   62.1330   33.1694   50.5094 H   0  0  0  0  0  0  0  0  0  0  0  0
   63.1713   30.7056   49.0785 H   0  0  0  0  0  0  0  0  0  0  0  0
   62.0403   30.7578   50.5083 H   0  0  0  0  0  0  0  0  0  0  0  0
   57.8265   30.7116   47.3021 H   0  0  0  0  0  0  0  0  0  0  0  0
  1  2  1  0
  2  3  1  0
  3  4  2  0
  3  5  1  0
  5  6  2  0
  6  7  1  0
  7  8  1  0
  8  9  2  3
  9 10  1  0
 10 11  2  0
 10 12  1  0
 12 13  2  0
 13 14  1  0
 14 15  2  0
 15 16  1  0
 16 17  1  0
 17 18  2  0
 17 19  2  0
 17 20  1  0
 20 21  1  0
 21 22  1  0
 22 23  1  0
 23 24  1  0
 24 25  1  0
 25 26  1  0
 16 27  2  0
  8 28  1  0
 28  5  1  0
 27 12  1  0
 26 20  1  0
  1 29  1  0
  1 30  1  0
  1 31  1  0
  2 32  1  0
 13 33  1  0
 14 34  1  0
 15 35  1  0
 21 36  1  0
 21 37  1  0
 22 38  1  0
 22 39  1  0
 23 40  1  0
 23 41  1  0
 24 42  1  0
 24 43  1  0
 25 44  1  0
 25 45  1  0
 26 46  1  0
 26 47  1  0
 27 48  1  0
M  CHG  1   7  -1
M  END
>  <UniqueID>  (84) 
75

>  <SMILES>  (84) 
CNC(=O)c1n[n-]c(=NC(=O)c2cccc(S(=O)(=O)N3CCCCCC3)c2)o1

>  <Energy>  (84) 
95.42492601993446

>  <Genealogy>  (84) 
CNC(=O)c1n[n-]c(=NC(=O)c2cccc(S(=O)(=O)N3CCCCCC3)c2)o1 (protonated)
CNC(=O)c1n[n-]c(=NC(=O)c2cccc(S(=O)(=O)N3CCCCCC3)c2)o1 (3D coordinates assigned)
CNC(=O)c1n[n-]c(=NC(=O)c2cccc(S(=O)(=O)N3CCCCCC3)c2)o1 (nonaromatic ring conformer: 95.42492601993446 kcal/mol)

>  <smiles>  (84) 
CNC(=O)c1n[nH]c(=NC(=O)c2cccc(S(=O)(=O)N3CCCCCC3)c2)o1

>  <score_type>  (84) 
oracle

>  <origin>  (84) 
adg

>  <m_score__min__energy>  (84) 
-10.4

>  <m_primary>  (84) 
energy

$$$$
84:0
     RDKit          3D

 19 19  0  0  1  0  0  0  0  0999 V2000
   56.6510   30.4790   43.0340 C   0  0  0  0  0  0  0  0  0  0  0  0
   56.4290   30.3510   44.4800 N   0  0  0  0  0  0  0  0  0  0  0  0
   56.8670   29.3410   45.1340 C   0  0  0  0  0  0  0  0  0  0  0  0
   58.1500   29.4500   45.6610 C   0  0  0  0  0  0  0  0  0  0  0  0
   58.6530   28.3690   46.3750 C   0  0  0  0  0  0  0  0  0  0  0  0
   59.9540   28.4320   46.9320 N   0  0  0  0  0  0  0  0  0  0  0  0
   57.8630   27.2850   46.5130 N   0  0  0  0  0  0  0  0  0  0  0  0
   56.6240   27.2140   45.9900 C   0  0  0  0  0  0  0  0  0  0  0  0
   55.9320   26.1310   46.1700 N   0  0  0  0  0  0  0  0  0  0  0  0
   56.1100   28.2450   45.2910 N   0  0  0  0  0  0  0  0  0  0  0  0
   57.5911   31.0210   42.8539 H   0  0  0  0  0  0  0  0  0  0  0  0
   56.7127   29.4778   42.5825 H   0  0  0  0  0  0  0  0  0  0  0  0
   55.8155   31.0340   42.5825 H   0  0  0  0  0  0  0  0  0  0  0  0
   58.7471   30.3626   45.5171 H   0  0  0  0  0  0  0  0  0  0  0  0
   60.8300   28.2050   46.4110 H   0  0  0  0  0  0  0  0  0  0  0  0
   60.0260   28.7300   47.9410 H   0  0  0  0  0  0  0  0  0  0  0  0
   58.2430   26.4780   47.0500 H   0  0  0  0  0  0  0  0  0  0  0  0
   55.0820   26.1530   46.7500 H   0  0  0  0  0  0  0  0  0  0  0  0
   55.1480   28.1990   44.8810 H   0  0  0  0  0  0  0  0  0  0  0  0
  1  2  1  0
  2  3  2  0
  3  4  1  0
  4  5  2  0
  5  6  1  0
  5  7  1  0
  7  8  1  0
  8  9  2  3
  8 10  1  0
 10  3  1  0
  1 11  1  0
  1 12  1  0
  1 13  1  0
  4 14  1  0
  6 15  1  0
  6 16  1  0
  7 17  1  0
  9 18  1  0
 10 19  1  0
M  END
>  <smiles>  (85) 
CN=c1cc(N)[nH]c(=N)[nH]1

>  <score_type>  (85) 
oracle

>  <origin>  (85) 
adg

>  <m_score__min__energy>  (85) 
-4.3099999999999996

>  <m_primary>  (85) 
energy

$$$$
85:0
     RDKit          3D

 52 53  0  0  0  0  0  0  0  0999 V2000
   57.1550   26.6040   46.3400 C   0  0  0  0  0  0  0  0  0  0  0  0
   58.2900   26.3950   45.3410 C   0  0  0  0  0  0  0  0  0  0  0  0
   58.6490   27.7080   44.6200 C   0  0  0  0  0  0  0  0  0  0  0  0
   58.8830   28.9050   45.5380 C   0  0  0  0  0  0  0  0  0  0  0  0
   59.8830   28.8340   46.5300 C   0  0  0  0  0  0  0  0  0  0  0  0
   60.1920   29.9400   47.3300 C   0  0  0  0  0  0  0  0  0  0  0  0
   61.1730   29.9020   48.3340 O   0  0  0  0  0  0  0  0  0  0  0  0
   61.0240   30.4060   49.6630 C   0  0  0  0  0  0  0  0  0  0  0  0
   62.0550   31.5010   49.9680 C   0  0  0  0  0  0  0  0  0  0  0  0
   62.3520   32.3310   48.7460 C   0  0  0  0  0  0  0  0  0  0  0  0
   63.4850   32.0550   47.9620 C   0  0  0  0  0  0  0  0  0  0  0  0
   63.7360   32.7990   46.8060 C   0  0  0  0  0  0  0  0  0  0  0  0
   62.8590   33.8160   46.4200 C   0  0  0  0  0  0  0  0  0  0  0  0
   61.7240   34.0900   47.1900 C   0  0  0  0  0  0  0  0  0  0  0  0
   61.4700   33.3500   48.3490 C   0  0  0  0  0  0  0  0  0  0  0  0
   59.5140   31.1350   47.1270 C   0  0  0  0  0  0  0  0  0  0  0  0
   58.4670   31.2330   46.2000 C   0  0  0  0  0  0  0  0  0  0  0  0
   57.8030   32.5870   46.0670 C   0  0  0  0  0  0  0  0  0  0  0  0
   58.3270   33.5680   47.1250 C   0  0  0  0  0  0  0  0  0  0  0  0
   58.7680   34.7630   46.5090 O   0  0  0  0  0  0  0  0  0  0  0  0
   58.9110   34.5740   45.1180 C   0  0  0  0  0  0  0  0  0  0  0  0
   58.0790   30.0840   45.4510 C   0  0  0  0  0  0  0  0  0  0  0  0
   56.6130   30.1260   44.4200 S   0  0  0  0  0  0  0  0  0  0  0  0
   55.5200   28.8870   44.9270 N   0  0  0  0  0  0  0  0  0  0  0  0
   56.9670   29.9070   42.9770 O   0  0  0  0  0  0  0  0  0  0  0  0
   55.9240   31.4590   44.5010 O   0  0  0  0  0  0  0  0  0  0  0  0
   57.5499   26.5313   47.3641 H   0  0  0  0  0  0  0  0  0  0  0  0
   56.7112   27.5990   46.1879 H   0  0  0  0  0  0  0  0  0  0  0  0
   56.3859   25.8324   46.1879 H   0  0  0  0  0  0  0  0  0  0  0  0
   59.1767   26.0268   45.8778 H   0  0  0  0  0  0  0  0  0  0  0  0
   57.9600   25.6641   44.5880 H   0  0  0  0  0  0  0  0  0  0  0  0
   59.5679   27.5383   44.0396 H   0  0  0  0  0  0  0  0  0  0  0  0
   57.7796   27.9640   43.9966 H   0  0  0  0  0  0  0  0  0  0  0  0
   60.4305   27.8914   46.6777 H   0  0  0  0  0  0  0  0  0  0  0  0
   60.0133   30.8255   49.7750 H   0  0  0  0  0  0  0  0  0  0  0  0
   61.1836   29.5759   50.3669 H   0  0  0  0  0  0  0  0  0  0  0  0
   61.6587   32.1559   50.7580 H   0  0  0  0  0  0  0  0  0  0  0  0
   62.9879   31.0176   50.2938 H   0  0  0  0  0  0  0  0  0  0  0  0
   64.1756   31.2519   48.2587 H   0  0  0  0  0  0  0  0  0  0  0  0
   64.6269   32.5833   46.1979 H   0  0  0  0  0  0  0  0  0  0  0  0
   63.0612   34.4010   45.5107 H   0  0  0  0  0  0  0  0  0  0  0  0
   61.0311   34.8876   46.8839 H   0  0  0  0  0  0  0  0  0  0  0  0
   60.5761   33.5666   48.9523 H   0  0  0  0  0  0  0  0  0  0  0  0
   59.8049   32.0238   47.7062 H   0  0  0  0  0  0  0  0  0  0  0  0
   58.0126   32.9928   45.0663 H   0  0  0  0  0  0  0  0  0  0  0  0
   56.7204   32.4603   46.2150 H   0  0  0  0  0  0  0  0  0  0  0  0
   57.5199   33.8018   47.8348 H   0  0  0  0  0  0  0  0  0  0  0  0
   59.1722   33.1052   47.6556 H   0  0  0  0  0  0  0  0  0  0  0  0
   59.5650   33.7096   44.9307 H   0  0  0  0  0  0  0  0  0  0  0  0
   57.9235   34.3906   44.6694 H   0  0  0  0  0  0  0  0  0  0  0  0
   59.3560   35.4744   44.6694 H   0  0  0  0  0  0  0  0  0  0  0  0
   54.6360   29.3560   45.2250 H   0  0  0  0  0  0  0  0  0  0  0  0
  1  2  1  0
  2  3  1  0
  3  4  1  0
  4  5  2  0
  5  6  1  0
  6  7  1  0
  7  8  1  0
  8  9  1  0
  9 10  1  0
 10 11  2  0
 11 12  1  0
 12 13  2  0
 13 14  1  0
 14 15  2  0
  6 16  2  0
 16 17  1  0
 17 18  1  0
 18 19  1  0
 19 20  1  0
 20 21  1  0
 17 22  2  0
 22 23  1  0
 23 24  1  0
 23 25  2  0
 23 26  2  0
 22  4  1  0
 15 10  1  0
  1 27  1  0
  1 28  1  0
  1 29  1  0
  2 30  1  0
  2 31  1  0
  3 32  1  0
  3 33  1  0
  5 34  1  0
  8 35  1  0
  8 36  1  0
  9 37  1  0
  9 38  1  0
 11 39  1  0
 12 40  1  0
 13 41  1  0
 14 42  1  0
 15 43  1  0
 16 44  1  0
 18 45  1  0
 18 46  1  0
 19 47  1  0
 19 48  1  0
 21 49  1  0
 21 50  1  0
 21 51  1  0
 24 52  1  0
M  CHG  1  24  -1
M  END
>  <UniqueID>  (86) 
76

>  <SMILES>  (86) 
CCCc1cc(OCCc2ccccc2)cc(CCOC)c1S([NH-])(=O)=O

>  <Energy>  (86) 
55.593896418165215

>  <Genealogy>  (86) 
CCCc1cc(OCCc2ccccc2)cc(CCOC)c1S([NH-])(=O)=O (protonated)
CCCc1cc(OCCc2ccccc2)cc(CCOC)c1S([NH-])(=O)=O (3D coordinates assigned)
CCCc1cc(OCCc2ccccc2)cc(CCOC)c1S([NH-])(=O)=O (optimized conformer: 55.593896418165215 kcal/mol)

>  <smiles>  (86) 
CCCc1cc(OCCc2ccccc2)cc(CCOC)c1S(N)(=O)=O

>  <score_type>  (86) 
oracle

>  <origin>  (86) 
adg

>  <m_score__min__energy>  (86) 
-10.890000000000001

>  <m_primary>  (86) 
energy

$$$$
86:0
     RDKit          3D

 24 24  0  0  0  0  0  0  0  0999 V2000
   54.8660   24.5720   45.6040 C   0  0  0  0  0  0  0  0  0  0  0  0
   55.3350   25.8550   46.0010 O   0  0  0  0  0  0  0  0  0  0  0  0
   56.6430   26.2850   45.7620 C   0  0  0  0  0  0  0  0  0  0  0  0
   57.5910   25.4580   45.6810 O   0  0  0  0  0  0  0  0  0  0  0  0
   56.9090   27.6850   45.6080 C   0  0  0  0  0  0  0  0  0  0  0  0
   57.1320   28.8630   45.4780 C   0  0  0  0  0  0  0  0  0  0  0  0
   57.3960   30.2670   45.3260 C   0  0  0  0  0  0  0  0  0  0  0  0
   56.5650   30.9830   44.7070 O   0  0  0  0  0  0  0  0  0  0  0  0
   58.6170   30.8240   45.8350 N   0  0  0  0  0  0  0  0  0  0  0  0
   58.8950   32.2330   45.9020 C   0  0  0  0  0  0  0  0  0  0  0  0
   58.5000   33.0630   44.8400 C   0  0  0  0  0  0  0  0  0  0  0  0
   58.7770   34.4330   44.8700 C   0  0  0  0  0  0  0  0  0  0  0  0
   59.4640   34.9850   45.9550 C   0  0  0  0  0  0  0  0  0  0  0  0
   59.7340   36.3130   45.9820 F   0  0  0  0  0  0  0  0  0  0  0  0
   59.8820   34.1640   47.0070 C   0  0  0  0  0  0  0  0  0  0  0  0
   59.6050   32.7940   46.9800 C   0  0  0  0  0  0  0  0  0  0  0  0
   54.6457   23.9695   46.4976 H   0  0  0  0  0  0  0  0  0  0  0  0
   53.9512   24.6856   45.0037 H   0  0  0  0  0  0  0  0  0  0  0  0
   55.6384   24.0689   45.0037 H   0  0  0  0  0  0  0  0  0  0  0  0
   59.3820   30.1590   46.0930 H   0  0  0  0  0  0  0  0  0  0  0  0
   57.9689   32.6320   43.9785 H   0  0  0  0  0  0  0  0  0  0  0  0
   58.4540   35.0772   44.0389 H   0  0  0  0  0  0  0  0  0  0  0  0
   60.4296   34.5969   47.8571 H   0  0  0  0  0  0  0  0  0  0  0  0
   59.9438   32.1510   47.8057 H   0  0  0  0  0  0  0  0  0  0  0  0
  1  2  1  0
  2  3  1  0
  3  4  2  0
  3  5  1  0
  5  6  3  0
  6  7  1  0
  7  8  2  0
  7  9  1  0
  9 10  1  0
 10 11  2  0
 11 12  1  0
 12 13  2  0
 13 14  1  0
 13 15  1  0
 15 16  2  0
 16 10  1  0
  1 17  1  0
  1 18  1  0
  1 19  1  0
  9 20  1  0
 11 21  1  0
 12 22  1  0
 15 23  1  0
 16 24  1  0
M  END
>  <UniqueID>  (87) 
77

>  <SMILES>  (87) 
COC(=O)C#CC(=O)Nc1ccc(F)cc1

>  <Energy>  (87) 
18.741024787083226

>  <Genealogy>  (87) 
COC(=O)C#CC(=O)Nc1ccc(F)cc1 (3D coordinates assigned)
COC(=O)C#CC(=O)Nc1ccc(F)cc1 (optimized conformer: 18.741024787083226 kcal/mol)

>  <smiles>  (87) 
COC(=O)C#CC(=O)Nc1ccc(F)cc1

>  <score_type>  (87) 
oracle

>  <origin>  (87) 
adg

>  <m_score__min__energy>  (87) 
-5.2300000000000004

>  <m_primary>  (87) 
energy

$$$$
87:0
     RDKit          3D

 44 45  0  0  0  0  0  0  0  0999 V2000
   54.7580   28.9660   45.6030 H   0  0  0  0  0  0  0  0  0  0  0  0
   55.4510   29.2160   44.9100 O   0  0  0  0  0  0  0  0  0  0  0  0
   55.5780   30.5240   44.5040 N   0  0  0  0  0  0  0  0  0  0  0  0
   56.6990   31.0240   44.0770 C   0  0  0  0  0  0  0  0  0  0  0  0
   56.9721   30.8689   43.0228 H   0  0  0  0  0  0  0  0  0  0  0  0
   57.6260   31.7910   44.9370 C   0  0  0  0  0  0  0  0  0  0  0  0
   57.5230   33.1840   45.0730 C   0  0  0  0  0  0  0  0  0  0  0  0
   56.7332   33.7295   44.5357 H   0  0  0  0  0  0  0  0  0  0  0  0
   58.4170   33.8800   45.8860 C   0  0  0  0  0  0  0  0  0  0  0  0
   58.3193   34.9704   45.9929 H   0  0  0  0  0  0  0  0  0  0  0  0
   59.4410   33.2040   46.5700 C   0  0  0  0  0  0  0  0  0  0  0  0
   60.3030   33.9310   47.4750 N   0  0  0  0  0  0  0  0  0  0  0  0
   60.5370   34.8740   47.0850 H   0  0  0  0  0  0  0  0  0  0  0  0
   61.2090   33.4180   47.5820 H   0  0  0  0  0  0  0  0  0  0  0  0
   59.6830   34.0860   48.8030 C   0  0  0  0  0  0  0  0  0  0  0  0
   58.6249   34.3569   48.6721 H   0  0  0  0  0  0  0  0  0  0  0  0
   60.2295   34.8720   49.3447 H   0  0  0  0  0  0  0  0  0  0  0  0
   59.7650   32.8110   49.6170 C   0  0  0  0  0  0  0  0  0  0  0  0
   58.5800   32.2140   50.0780 C   0  0  0  0  0  0  0  0  0  0  0  0
   57.6131   32.6998   49.8803 H   0  0  0  0  0  0  0  0  0  0  0  0
   58.6170   31.0010   50.7900 C   0  0  0  0  0  0  0  0  0  0  0  0
   57.4580   30.3740   51.2690 O   0  0  0  0  0  0  0  0  0  0  0  0
   56.6100   30.9120   52.2780 C   0  0  0  0  0  0  0  0  0  0  0  0
   57.0123   30.6568   53.2695 H   0  0  0  0  0  0  0  0  0  0  0  0
   56.5624   32.0059   52.1721 H   0  0  0  0  0  0  0  0  0  0  0  0
   55.6001   30.4891   52.1721 H   0  0  0  0  0  0  0  0  0  0  0  0
   59.8510   30.3900   51.0310 C   0  0  0  0  0  0  0  0  0  0  0  0
   59.8900   29.4438   51.5907 H   0  0  0  0  0  0  0  0  0  0  0  0
   61.0330   30.9680   50.5690 C   0  0  0  0  0  0  0  0  0  0  0  0
   61.9954   30.4731   50.7660 H   0  0  0  0  0  0  0  0  0  0  0  0
   61.0050   32.1790   49.8530 C   0  0  0  0  0  0  0  0  0  0  0  0
   62.1780   32.7710   49.3580 O   0  0  0  0  0  0  0  0  0  0  0  0
   63.2930   32.0510   48.8430 C   0  0  0  0  0  0  0  0  0  0  0  0
   63.8953   31.6621   49.6772 H   0  0  0  0  0  0  0  0  0  0  0  0
   62.9354   31.2128   48.2269 H   0  0  0  0  0  0  0  0  0  0  0  0
   63.9098   32.7218   48.2269 H   0  0  0  0  0  0  0  0  0  0  0  0
   59.5740   31.8070   46.4130 C   0  0  0  0  0  0  0  0  0  0  0  0
   60.6030   31.1430   47.1010 O   0  0  0  0  0  0  0  0  0  0  0  0
   60.7450   29.7290   47.1780 C   0  0  0  0  0  0  0  0  0  0  0  0
   60.7760   29.4205   48.2334 H   0  0  0  0  0  0  0  0  0  0  0  0
   59.8907   29.2470   46.6801 H   0  0  0  0  0  0  0  0  0  0  0  0
   61.6780   29.4265   46.6801 H   0  0  0  0  0  0  0  0  0  0  0  0
   58.6700   31.1150   45.5840 C   0  0  0  0  0  0  0  0  0  0  0  0
   58.7845   30.0302   45.4423 H   0  0  0  0  0  0  0  0  0  0  0  0
  1  2  1  0
  2  3  1  0
  3  4  2  0
  4  5  1  0
  4  6  1  0
  6  7  2  0
  7  8  1  0
  7  9  1  0
  9 10  1  0
  9 11  2  0
 11 12  1  0
 12 13  1  0
 12 14  1  0
 12 15  1  0
 15 16  1  0
 15 17  1  0
 15 18  1  0
 18 19  2  0
 19 20  1  0
 19 21  1  0
 21 22  1  0
 22 23  1  0
 23 24  1  0
 23 25  1  0
 23 26  1  0
 21 27  2  0
 27 28  1  0
 27 29  1  0
 29 30  1  0
 29 31  2  0
 31 32  1  0
 32 33  1  0
 33 34  1  0
 33 35  1  0
 33 36  1  0
 11 37  1  0
 37 38  1  0
 38 39  1  0
 39 40  1  0
 39 41  1  0
 39 42  1  0
 37 43  2  0
 43 44  1  0
 43  6  1  0
 31 18  1  0
M  CHG  1  12   1
M  END
>  <UniqueID>  (88) 
78

>  <SMILES>  (88) 
COc1ccc(OC)c(C[NH2+]c2ccc(/C=N\O)cc2OC)c1

>  <Energy>  (88) 
45.342638373334815

>  <Genealogy>  (88) 
COc1ccc(OC)c(C[NH2+]c2ccc(C=NO)cc2OC)c1 (protonated)
COc1ccc(OC)c(C[NH2+]c2ccc(/C=N\O)cc2OC)c1 (cis-trans isomerization)
COc1ccc(OC)c(C[NH2+]c2ccc(/C=N\O)cc2OC)c1 (3D coordinates assigned)
COc1ccc(OC)c(C[NH2+]c2ccc(/C=N\O)cc2OC)c1 (optimized conformer: 45.342638373334815 kcal/mol)

>  <smiles>  (88) 
COc1ccc(OC)c(CNc2ccc(C=NO)cc2OC)c1

>  <score_type>  (88) 
oracle

>  <origin>  (88) 
adg

>  <m_score__min__energy>  (88) 
-6.1299999999999999

>  <m_primary>  (88) 
energy

$$$$
88:0
     RDKit          3D

 43 46  0  0  0  0  0  0  0  0999 V2000
   65.8990   32.8420   49.8110 C   0  0  0  0  0  0  0  0  0  0  0  0
   64.4130   33.0420   49.7820 C   0  0  0  0  0  0  0  0  0  0  0  0
   63.7630   33.6720   50.8540 C   0  0  0  0  0  0  0  0  0  0  0  0
   62.3740   33.8240   50.8460 C   0  0  0  0  0  0  0  0  0  0  0  0
   61.6100   33.3390   49.7720 C   0  0  0  0  0  0  0  0  0  0  0  0
   60.1070   33.4810   49.7670 C   0  0  0  0  0  0  0  0  0  0  0  0
   59.5210   32.8800   48.5430 N   0  0  0  0  0  0  0  0  0  0  0  0
   59.0550   31.5890   48.6300 C   0  0  0  0  0  0  0  0  0  0  0  0
   59.1240   30.9470   49.7140 O   0  0  0  0  0  0  0  0  0  0  0  0
   58.5160   30.9720   47.5530 N   0  0  0  0  0  0  0  0  0  0  0  0
   58.3980   31.5780   46.3520 C   0  0  0  0  0  0  0  0  0  0  0  0
   57.8370   30.7850   45.2380 C   0  0  0  0  0  0  0  0  0  0  0  0
   56.7990   31.3010   44.4430 C   0  0  0  0  0  0  0  0  0  0  0  0
   56.3000   30.5570   43.3680 C   0  0  0  0  0  0  0  0  0  0  0  0
   56.8430   29.3040   43.0700 C   0  0  0  0  0  0  0  0  0  0  0  0
   56.3590   28.5870   42.0280 F   0  0  0  0  0  0  0  0  0  0  0  0
   57.8910   28.7950   43.8440 C   0  0  0  0  0  0  0  0  0  0  0  0
   58.3920   29.5350   44.9190 C   0  0  0  0  0  0  0  0  0  0  0  0
   58.8140   32.9170   46.2160 C   0  0  0  0  0  0  0  0  0  0  0  0
   58.6330   33.6260   45.0100 C   0  0  0  0  0  0  0  0  0  0  0  0
   59.0560   34.9470   44.8930 C   0  0  0  0  0  0  0  0  0  0  0  0
   59.6500   35.5850   45.9750 C   0  0  0  0  0  0  0  0  0  0  0  0
   59.8170   34.9130   47.1860 C   0  0  0  0  0  0  0  0  0  0  0  0
   59.3950   33.5670   47.3440 C   0  0  0  0  0  0  0  0  0  0  0  0
   62.2630   32.6920   48.7090 C   0  0  0  0  0  0  0  0  0  0  0  0
   63.6530   32.5380   48.7170 C   0  0  0  0  0  0  0  0  0  0  0  0
   66.2424   32.7958   50.8550 H   0  0  0  0  0  0  0  0  0  0  0  0
   66.1525   31.9016   49.2996 H   0  0  0  0  0  0  0  0  0  0  0  0
   66.3921   33.6819   49.2996 H   0  0  0  0  0  0  0  0  0  0  0  0
   64.3498   34.0481   51.7050 H   0  0  0  0  0  0  0  0  0  0  0  0
   61.8752   34.3274   51.6873 H   0  0  0  0  0  0  0  0  0  0  0  0
   59.6945   32.9722   50.6507 H   0  0  0  0  0  0  0  0  0  0  0  0
   59.8557   34.5517   49.7871 H   0  0  0  0  0  0  0  0  0  0  0  0
   56.3778   32.2923   44.6665 H   0  0  0  0  0  0  0  0  0  0  0  0
   55.4789   30.9590   42.7563 H   0  0  0  0  0  0  0  0  0  0  0  0
   58.3216   27.8110   43.6065 H   0  0  0  0  0  0  0  0  0  0  0  0
   59.2244   29.1365   45.5175 H   0  0  0  0  0  0  0  0  0  0  0  0
   58.1528   33.1301   44.1536 H   0  0  0  0  0  0  0  0  0  0  0  0
   58.9200   35.4859   43.9438 H   0  0  0  0  0  0  0  0  0  0  0  0
   59.9906   36.6262   45.8761 H   0  0  0  0  0  0  0  0  0  0  0  0
   60.2841   35.4356   48.0337 H   0  0  0  0  0  0  0  0  0  0  0  0
   61.6760   32.3035   47.8637 H   0  0  0  0  0  0  0  0  0  0  0  0
   64.1518   32.0196   47.8848 H   0  0  0  0  0  0  0  0  0  0  0  0
  1  2  1  0
  2  3  2  0
  3  4  1  0
  4  5  2  0
  5  6  1  0
  6  7  1  0
  7  8  1  0
  8  9  2  0
  8 10  1  0
 10 11  2  0
 11 12  1  0
 12 13  2  0
 13 14  1  0
 14 15  2  0
 15 16  1  0
 15 17  1  0
 17 18  2  0
 11 19  1  0
 19 20  2  0
 20 21  1  0
 21 22  2  0
 22 23  1  0
 23 24  2  0
  5 25  1  0
 25 26  2  0
 26  2  1  0
 24  7  1  0
 18 12  1  0
 24 19  1  0
  1 27  1  0
  1 28  1  0
  1 29  1  0
  3 30  1  0
  4 31  1  0
  6 32  1  0
  6 33  1  0
 13 34  1  0
 14 35  1  0
 17 36  1  0
 18 37  1  0
 20 38  1  0
 21 39  1  0
 22 40  1  0
 23 41  1  0
 25 42  1  0
 26 43  1  0
M  END
>  <UniqueID>  (89) 
79

>  <SMILES>  (89) 
Cc1ccc(Cn2c(=O)nc(-c3ccc(F)cc3)c3ccccc32)cc1

>  <Energy>  (89) 
67.42047795354169

>  <Genealogy>  (89) 
Cc1ccc(Cn2c(=O)nc(-c3ccc(F)cc3)c3ccccc32)cc1 (3D coordinates assigned)
Cc1ccc(Cn2c(=O)nc(-c3ccc(F)cc3)c3ccccc32)cc1 (optimized conformer: 67.42047795354169 kcal/mol)

>  <smiles>  (89) 
Cc1ccc(Cn2c(=O)nc(-c3ccc(F)cc3)c3ccccc32)cc1

>  <score_type>  (89) 
oracle

>  <origin>  (89) 
adg

>  <m_score__min__energy>  (89) 
-8.0999999999999996

>  <m_primary>  (89) 
energy

$$$$
89:0
     RDKit          3D

 54 58  0  0  0  0  0  0  0  0999 V2000
   58.7780   26.3800   47.9530 O   0  0  0  0  0  0  0  0  0  0  0  0
   58.9820   27.5220   47.4540 C   0  0  0  0  0  0  0  0  0  0  0  0
   58.3630   27.8700   46.1510 C   0  0  0  0  0  0  0  0  0  0  0  0
   59.1110   27.8230   44.9620 C   0  0  0  0  0  0  0  0  0  0  0  0
   58.5170   28.1650   43.7480 C   0  0  0  0  0  0  0  0  0  0  0  0
   57.1810   28.5700   43.7280 C   0  0  0  0  0  0  0  0  0  0  0  0
   56.4650   28.6310   44.8850 N   0  0  0  0  0  0  0  0  0  0  0  0
   55.1550   29.0470   44.8450 O   0  0  0  0  0  0  0  0  0  0  0  0
   57.0250   28.2950   46.0820 C   0  0  0  0  0  0  0  0  0  0  0  0
   59.7720   28.4790   48.1820 N   0  0  0  0  0  0  0  0  0  0  0  0
   59.6530   28.5690   49.6400 C   0  0  0  0  0  0  0  0  0  0  0  0
   59.7650   30.0380   50.1040 C   0  0  0  0  0  0  0  0  0  0  0  0
   59.9520   30.9510   48.9570 N   0  0  0  0  0  0  0  0  0  0  0  0
   59.9280   32.3970   49.3090 C   0  0  2  0  0  0  0  0  0  0  0  0
   59.6850   33.3100   48.0930 C   0  0  0  0  0  0  0  0  0  0  0  0
   58.3410   33.5430   47.7200 C   0  0  0  0  0  0  0  0  0  0  0  0
   58.0200   34.2210   46.5450 C   0  0  0  0  0  0  0  0  0  0  0  0
   59.0320   34.6880   45.7110 C   0  0  0  0  0  0  0  0  0  0  0  0
   58.7200   35.3400   44.5650 F   0  0  0  0  0  0  0  0  0  0  0  0
   60.3660   34.5070   46.0700 C   0  0  0  0  0  0  0  0  0  0  0  0
   60.7090   33.8350   47.2600 C   0  0  0  0  0  0  0  0  0  0  0  0
   62.1440   33.8510   47.6930 C   0  0  0  0  0  0  0  0  0  0  0  0
   62.2550   34.5790   49.0290 C   0  0  0  0  0  0  0  0  0  0  0  0
   62.0890   33.6440   50.1970 C   0  0  0  0  0  0  0  0  0  0  0  0
   63.0180   33.7560   51.2500 C   0  0  0  0  0  0  0  0  0  0  0  0
   62.9240   32.9420   52.3740 C   0  0  0  0  0  0  0  0  0  0  0  0
   63.8300   33.0490   53.3780 F   0  0  0  0  0  0  0  0  0  0  0  0
   61.8900   32.0190   52.4570 C   0  0  0  0  0  0  0  0  0  0  0  0
   60.9890   31.9220   51.4490 N   0  0  0  0  0  0  0  0  0  0  0  0
   61.0350   32.6930   50.3210 C   0  0  0  0  0  0  0  0  0  0  0  0
   61.1240   30.5510   48.1500 C   0  0  0  0  0  0  0  0  0  0  0  0
   60.9040   29.1560   47.5360 C   0  0  0  0  0  0  0  0  0  0  0  0
   60.1669   27.5158   44.9894 H   0  0  0  0  0  0  0  0  0  0  0  0
   59.0959   28.1162   42.8139 H   0  0  0  0  0  0  0  0  0  0  0  0
   56.7048   28.8409   42.7741 H   0  0  0  0  0  0  0  0  0  0  0  0
   56.4245   28.3571   47.0015 H   0  0  0  0  0  0  0  0  0  0  0  0
   58.6774   28.1655   49.9488 H   0  0  0  0  0  0  0  0  0  0  0  0
   60.4669   27.9886   50.0991 H   0  0  0  0  0  0  0  0  0  0  0  0
   58.8440   30.3165   50.6371 H   0  0  0  0  0  0  0  0  0  0  0  0
   60.6397   30.1274   50.7650 H   0  0  0  0  0  0  0  0  0  0  0  0
   59.0274   32.6830   49.8721 H   0  0  0  0  0  0  0  0  0  0  0  0
   57.5314   33.1815   48.3710 H   0  0  0  0  0  0  0  0  0  0  0  0
   56.9662   34.3871   46.2767 H   0  0  0  0  0  0  0  0  0  0  0  0
   61.1616   34.8936   45.4161 H   0  0  0  0  0  0  0  0  0  0  0  0
   62.5063   32.8185   47.8051 H   0  0  0  0  0  0  0  0  0  0  0  0
   62.7530   34.3689   46.9374 H   0  0  0  0  0  0  0  0  0  0  0  0
   63.2448   35.0547   49.0929 H   0  0  0  0  0  0  0  0  0  0  0  0
   61.4499   35.3270   49.0759 H   0  0  0  0  0  0  0  0  0  0  0  0
   63.8283   34.4968   51.1825 H   0  0  0  0  0  0  0  0  0  0  0  0
   61.8022   31.3677   53.3391 H   0  0  0  0  0  0  0  0  0  0  0  0
   61.2744   31.2826   47.3424 H   0  0  0  0  0  0  0  0  0  0  0  0
   62.0101   30.5180   48.8009 H   0  0  0  0  0  0  0  0  0  0  0  0
   60.6956   29.2630   46.4612 H   0  0  0  0  0  0  0  0  0  0  0  0
   61.8117   28.5539   47.6898 H   0  0  0  0  0  0  0  0  0  0  0  0
  1  2  2  0
  2  3  1  0
  3  4  2  0
  4  5  1  0
  5  6  2  0
  6  7  1  0
  7  8  1  0
  7  9  2  0
  2 10  1  0
 10 11  1  0
 11 12  1  0
 12 13  1  0
 13 14  1  0
 14 15  1  0
 15 16  2  0
 16 17  1  0
 17 18  2  0
 18 19  1  0
 18 20  1  0
 20 21  2  0
 21 22  1  0
 22 23  1  0
 23 24  1  0
 24 25  2  0
 25 26  1  0
 26 27  1  0
 26 28  2  0
 28 29  1  0
 29 30  2  0
 13 31  1  0
 31 32  1  0
  9  3  1  0
 32 10  1  0
 30 14  1  0
 21 15  1  0
 30 24  1  0
  4 33  1  0
  5 34  1  0
  6 35  1  0
  9 36  1  0
 11 37  1  0
 11 38  1  0
 12 39  1  0
 12 40  1  0
 14 41  1  1
 16 42  1  0
 17 43  1  0
 20 44  1  0
 22 45  1  0
 22 46  1  0
 23 47  1  0
 23 48  1  0
 25 49  1  0
 28 50  1  0
 31 51  1  0
 31 52  1  0
 32 53  1  0
 32 54  1  0
M  CHG  2   7   1   8  -1
M  END
>  <UniqueID>  (90) 
80

>  <SMILES>  (90) 
O=C(c1ccc[n+]([O-])c1)N1CCN([C@@H]2c3ccc(F)cc3CCc3cc(F)cnc32)CC1

>  <Energy>  (90) 
94.76862917476147

>  <Genealogy>  (90) 
O=C(c1ccc[n+]([O-])c1)N1CCN([C@@H]2c3ccc(F)cc3CCc3cc(F)cnc32)CC1 (chirality)
O=C(c1ccc[n+]([O-])c1)N1CCN([C@@H]2c3ccc(F)cc3CCc3cc(F)cnc32)CC1 (3D coordinates assigned)
O=C(c1ccc[n+]([O-])c1)N1CCN([C@@H]2c3ccc(F)cc3CCc3cc(F)cnc32)CC1 (nonaromatic ring conformer: 94.76862917476147 kcal/mol)

>  <smiles>  (90) 
O=C(c1ccc[n+]([O-])c1)N1CCN(C2c3ccc(F)cc3CCc3cc(F)cnc32)CC1

>  <score_type>  (90) 
oracle

>  <origin>  (90) 
adg

>  <m_score__min__energy>  (90) 
-7.9900000000000002

>  <m_primary>  (90) 
energy

$$$$
90:0
     RDKit          3D

 61 63  0  0  0  0  0  0  0  0999 V2000
   66.2390   31.9440   50.7820 C   0  0  0  0  0  0  0  0  0  0  0  0
   64.8940   32.1350   50.1530 C   0  0  0  0  0  0  0  0  0  0  0  0
   63.8910   31.5480   50.6500 O   0  0  0  0  0  0  0  0  0  0  0  0
   64.7720   32.8930   48.9390 N   0  0  0  0  0  0  0  0  0  0  0  0
   63.5200   33.2160   48.3150 C   0  0  0  0  0  0  0  0  0  0  0  0
   63.2630   32.8890   46.9720 C   0  0  0  0  0  0  0  0  0  0  0  0
   62.0390   33.2200   46.3870 C   0  0  0  0  0  0  0  0  0  0  0  0
   61.0530   33.8720   47.1350 C   0  0  0  0  0  0  0  0  0  0  0  0
   59.5090   34.2870   46.3960 S   0  0  0  0  0  0  0  0  0  0  0  0
   58.4100   34.0460   47.3910 O   0  0  0  0  0  0  0  0  0  0  0  0
   59.5000   35.7430   46.0190 O   0  0  0  0  0  0  0  0  0  0  0  0
   59.2060   33.3310   44.9840 N   0  0  0  0  0  0  0  0  0  0  0  0
   58.3640   32.1760   45.0000 C   0  0  0  0  0  0  0  0  0  0  0  0
   58.5110   31.2310   46.0200 C   0  0  0  0  0  0  0  0  0  0  0  0
   57.7290   30.0690   46.0240 C   0  0  0  0  0  0  0  0  0  0  0  0
   56.8190   29.8230   44.9810 C   0  0  0  0  0  0  0  0  0  0  0  0
   56.0240   28.6260   44.9380 N   0  0  0  0  0  0  0  0  0  0  0  0
   56.2810   27.4050   45.6470 C   0  0  0  0  0  0  0  0  0  0  0  0
   55.3040   26.6870   45.9870 O   0  0  0  0  0  0  0  0  0  0  0  0
   57.6820   26.9200   45.9260 C   0  0  0  0  0  0  0  0  0  0  0  0
   58.6150   27.1780   44.7330 C   0  0  0  0  0  0  0  0  0  0  0  0
   59.9090   27.6490   45.2090 N   0  0  0  0  0  0  0  0  0  0  0  0
   60.3570   27.4810   46.5580 C   0  0  0  0  0  0  0  0  0  0  0  0
   60.9560   26.4180   46.8890 O   0  0  0  0  0  0  0  0  0  0  0  0
   60.1170   28.5440   47.5640 C   0  0  0  0  0  0  0  0  0  0  0  0
   59.1190   28.3880   48.5440 C   0  0  0  0  0  0  0  0  0  0  0  0
   58.8850   29.3980   49.4810 C   0  0  0  0  0  0  0  0  0  0  0  0
   59.6510   30.5730   49.4620 C   0  0  0  0  0  0  0  0  0  0  0  0
   59.3500   31.8420   50.6450 S   0  0  0  0  0  0  0  0  0  0  0  0
   60.8360   32.1560   51.5570 C   0  0  0  0  0  0  0  0  0  0  0  0
   58.2670   31.4180   51.5950 O   0  0  0  0  0  0  0  0  0  0  0  0
   58.9130   33.0960   49.9430 O   0  0  0  0  0  0  0  0  0  0  0  0
   60.6410   30.7380   48.4860 C   0  0  0  0  0  0  0  0  0  0  0  0
   60.8760   29.7310   47.5470 C   0  0  0  0  0  0  0  0  0  0  0  0
   56.6560   30.7810   43.9740 C   0  0  0  0  0  0  0  0  0  0  0  0
   57.4350   31.9450   43.9730 C   0  0  0  0  0  0  0  0  0  0  0  0
   61.2890   34.1650   48.4850 C   0  0  0  0  0  0  0  0  0  0  0  0
   62.5120   33.8310   49.0730 C   0  0  0  0  0  0  0  0  0  0  0  0
   66.1370   31.9585   51.8772 H   0  0  0  0  0  0  0  0  0  0  0  0
   66.6579   30.9774   50.4655 H   0  0  0  0  0  0  0  0  0  0  0  0
   66.9104   32.7558   50.4655 H   0  0  0  0  0  0  0  0  0  0  0  0
   65.6520   33.1130   48.4190 H   0  0  0  0  0  0  0  0  0  0  0  0
   64.0302   32.3697   46.3789 H   0  0  0  0  0  0  0  0  0  0  0  0
   61.8493   32.9669   45.3334 H   0  0  0  0  0  0  0  0  0  0  0  0
   59.2438   31.4008   46.8226 H   0  0  0  0  0  0  0  0  0  0  0  0
   57.8273   29.3457   46.8469 H   0  0  0  0  0  0  0  0  0  0  0  0
   58.0743   27.4484   46.8074 H   0  0  0  0  0  0  0  0  0  0  0  0
   57.6426   25.8354   46.1051 H   0  0  0  0  0  0  0  0  0  0  0  0
   58.7519   26.2440   44.1682 H   0  0  0  0  0  0  0  0  0  0  0  0
   58.1677   27.9436   44.0821 H   0  0  0  0  0  0  0  0  0  0  0  0
   58.5198   27.4659   48.5725 H   0  0  0  0  0  0  0  0  0  0  0  0
   58.0963   29.2710   50.2372 H   0  0  0  0  0  0  0  0  0  0  0  0
   60.6212   32.1106   52.6349 H   0  0  0  0  0  0  0  0  0  0  0  0
   61.5904   31.3974   51.3012 H   0  0  0  0  0  0  0  0  0  0  0  0
   61.2191   33.1549   51.3012 H   0  0  0  0  0  0  0  0  0  0  0  0
   61.2354   31.6632   48.4585 H   0  0  0  0  0  0  0  0  0  0  0  0
   61.6604   29.8658   46.7877 H   0  0  0  0  0  0  0  0  0  0  0  0
   55.9126   30.6191   43.1795 H   0  0  0  0  0  0  0  0  0  0  0  0
   57.3184   32.6813   43.1641 H   0  0  0  0  0  0  0  0  0  0  0  0
   60.5095   34.6592   49.0834 H   0  0  0  0  0  0  0  0  0  0  0  0
   62.6855   34.0516   50.1366 H   0  0  0  0  0  0  0  0  0  0  0  0
  1  2  1  0
  2  3  2  0
  2  4  1  0
  4  5  1  0
  5  6  2  0
  6  7  1  0
  7  8  2  0
  8  9  1  0
  9 10  2  0
  9 11  2  0
  9 12  1  0
 12 13  1  0
 13 14  2  0
 14 15  1  0
 15 16  2  0
 16 17  1  0
 17 18  1  0
 18 19  2  0
 18 20  1  0
 20 21  1  0
 21 22  1  0
 22 23  1  0
 23 24  2  0
 23 25  1  0
 25 26  2  0
 26 27  1  0
 27 28  2  0
 28 29  1  0
 29 30  1  0
 29 31  2  0
 29 32  2  0
 28 33  1  0
 33 34  2  0
 16 35  1  0
 35 36  2  0
  8 37  1  0
 37 38  2  0
 38  5  1  0
 36 13  1  0
 34 25  1  0
  1 39  1  0
  1 40  1  0
  1 41  1  0
  4 42  1  0
  6 43  1  0
  7 44  1  0
 14 45  1  0
 15 46  1  0
 20 47  1  0
 20 48  1  0
 21 49  1  0
 21 50  1  0
 26 51  1  0
 27 52  1  0
 30 53  1  0
 30 54  1  0
 30 55  1  0
 33 56  1  0
 34 57  1  0
 35 58  1  0
 36 59  1  0
 37 60  1  0
 38 61  1  0
M  CHG  3  12  -1  17  -1  22  -1
M  END
>  <UniqueID>  (91) 
81

>  <SMILES>  (91) 
CC(=O)Nc1ccc(S(=O)(=O)[N-]c2ccc([N-]C(=O)CC[N-]C(=O)c3ccc(S(C)(=O)=O)cc3)cc2)cc1

>  <Energy>  (91) 
73.95371442864014

>  <Genealogy>  (91) 
CC(=O)Nc1ccc(S(=O)(=O)[N-]c2ccc([N-]C(=O)CC[N-]C(=O)c3ccc(S(C)(=O)=O)cc3)cc2)cc1 (protonated)
CC(=O)Nc1ccc(S(=O)(=O)[N-]c2ccc([N-]C(=O)CC[N-]C(=O)c3ccc(S(C)(=O)=O)cc3)cc2)cc1 (3D coordinates assigned)
CC(=O)Nc1ccc(S(=O)(=O)[N-]c2ccc([N-]C(=O)CC[N-]C(=O)c3ccc(S(C)(=O)=O)cc3)cc2)cc1 (optimized conformer: 73.95371442864014 kcal/mol)

>  <smiles>  (91) 
CC(=O)Nc1ccc(S(=O)(=O)Nc2ccc(NC(=O)CCNC(=O)c3ccc(S(C)(=O)=O)cc3)cc2)cc1

>  <score_type>  (91) 
oracle

>  <origin>  (91) 
adg

>  <m_score__min__energy>  (91) 
-13.779999999999999

>  <m_primary>  (91) 
energy

$$$$
91:0
     RDKit          3D

 32 33  0  0  0  0  0  0  0  0999 V2000
   55.1300   26.6930   45.9830 O   0  0  0  0  0  0  0  0  0  0  0  0
   55.6630   25.4220   45.7980 C   0  0  0  0  0  0  0  0  0  0  0  0
   55.0120   24.5240   44.9440 C   0  0  0  0  0  0  0  0  0  0  0  0
   55.5390   23.2470   44.7320 C   0  0  0  0  0  0  0  0  0  0  0  0
   56.7220   22.8650   45.3690 C   0  0  0  0  0  0  0  0  0  0  0  0
   57.3770   23.7560   46.2240 C   0  0  0  0  0  0  0  0  0  0  0  0
   56.8470   25.0360   46.4580 C   0  0  0  0  0  0  0  0  0  0  0  0
   57.5800   26.0010   47.3540 C   0  0  0  0  0  0  0  0  0  0  0  0
   58.6390   26.6880   46.6130 N   0  0  0  0  0  0  0  0  0  0  0  0
   58.3900   27.5070   45.4570 C   0  0  0  0  0  0  0  0  0  0  0  0
   59.6530   27.8890   44.4780 S   0  0  0  0  0  0  0  0  0  0  0  0
   57.0830   28.0510   45.1770 N   0  0  0  0  0  0  0  0  0  0  0  0
   57.2110   29.3450   44.5550 C   0  0  0  0  0  0  0  0  0  0  0  0
   57.7690   30.4260   45.2640 C   0  0  0  0  0  0  0  0  0  0  0  0
   57.8700   31.6860   44.6690 C   0  0  0  0  0  0  0  0  0  0  0  0
   57.4140   31.8840   43.3630 C   0  0  0  0  0  0  0  0  0  0  0  0
   56.8540   30.8200   42.6510 C   0  0  0  0  0  0  0  0  0  0  0  0
   56.7500   29.5570   43.2420 C   0  0  0  0  0  0  0  0  0  0  0  0
   54.0826   24.8244   44.4381 H   0  0  0  0  0  0  0  0  0  0  0  0
   55.0222   22.5427   44.0635 H   0  0  0  0  0  0  0  0  0  0  0  0
   57.1388   21.8616   45.1976 H   0  0  0  0  0  0  0  0  0  0  0  0
   58.3128   23.4533   46.7165 H   0  0  0  0  0  0  0  0  0  0  0  0
   56.8691   26.7452   47.7424 H   0  0  0  0  0  0  0  0  0  0  0  0
   58.0342   25.4398   48.1839 H   0  0  0  0  0  0  0  0  0  0  0  0
   59.6360   26.4960   46.8660 H   0  0  0  0  0  0  0  0  0  0  0  0
   56.5700   27.3950   44.5420 H   0  0  0  0  0  0  0  0  0  0  0  0
   56.5070   28.1310   46.0440 H   0  0  0  0  0  0  0  0  0  0  0  0
   58.1278   30.2774   46.2932 H   0  0  0  0  0  0  0  0  0  0  0  0
   58.3094   32.5241   45.2298 H   0  0  0  0  0  0  0  0  0  0  0  0
   57.4958   32.8765   42.8959 H   0  0  0  0  0  0  0  0  0  0  0  0
   56.4942   30.9763   41.6233 H   0  0  0  0  0  0  0  0  0  0  0  0
   56.3053   28.7242   42.6775 H   0  0  0  0  0  0  0  0  0  0  0  0
  1  2  1  0
  2  3  2  0
  3  4  1  0
  4  5  2  0
  5  6  1  0
  6  7  2  0
  7  8  1  0
  8  9  1  0
  9 10  1  0
 10 11  2  0
 10 12  1  0
 12 13  1  0
 13 14  2  0
 14 15  1  0
 15 16  2  0
 16 17  1  0
 17 18  2  0
  7  2  1  0
 18 13  1  0
  3 19  1  0
  4 20  1  0
  5 21  1  0
  6 22  1  0
  8 23  1  0
  8 24  1  0
  9 25  1  0
 12 26  1  0
 12 27  1  0
 14 28  1  0
 15 29  1  0
 16 30  1  0
 17 31  1  0
 18 32  1  0
M  CHG  2   1  -1  12   1
M  END
>  <UniqueID>  (92) 
82

>  <SMILES>  (92) 
[O-]c1ccccc1CNC(=S)[NH2+]c1ccccc1

>  <Energy>  (92) 
33.81237386113275

>  <Genealogy>  (92) 
[O-]c1ccccc1CNC(=S)[NH2+]c1ccccc1 (protonated)
[O-]c1ccccc1CNC(=S)[NH2+]c1ccccc1 (3D coordinates assigned)
[O-]c1ccccc1CNC(=S)[NH2+]c1ccccc1 (optimized conformer: 33.81237386113275 kcal/mol)

>  <smiles>  (92) 
Oc1ccccc1CNC(=S)Nc1ccccc1

>  <score_type>  (92) 
oracle

>  <origin>  (92) 
adg

>  <m_score__min__energy>  (92) 
-9.5299999999999994

>  <m_primary>  (92) 
energy

$$$$
92:0
     RDKit          3D

 40 42  0  0  0  0  0  0  0  0999 V2000
   55.9790   26.6670   45.1110 H   0  0  0  0  0  0  0  0  0  0  0  0
   56.3090   27.5160   45.6210 N   0  0  0  0  0  0  0  0  0  0  0  0
   56.4020   28.6610   45.0260 C   0  0  0  0  0  0  0  0  0  0  0  0
   57.5720   29.3120   44.8570 N   0  0  0  0  0  0  0  0  0  0  0  0
   57.2110   30.4210   44.1760 C   0  0  0  0  0  0  0  0  0  0  0  0
   58.1620   31.5040   43.7570 C   0  0  0  0  0  0  0  0  0  0  0  0
   59.1326   31.0542   43.5009 H   0  0  0  0  0  0  0  0  0  0  0  0
   57.7438   32.0264   42.8840 H   0  0  0  0  0  0  0  0  0  0  0  0
   58.3550   32.4970   44.8720 C   0  0  0  0  0  0  0  0  0  0  0  0
   58.8940   33.7640   44.5980 C   0  0  0  0  0  0  0  0  0  0  0  0
   59.1194   34.0510   43.5603 H   0  0  0  0  0  0  0  0  0  0  0  0
   59.1450   34.6610   45.6380 C   0  0  0  0  0  0  0  0  0  0  0  0
   59.5505   35.6592   45.4162 H   0  0  0  0  0  0  0  0  0  0  0  0
   58.8820   34.2930   46.9600 C   0  0  0  0  0  0  0  0  0  0  0  0
   59.0816   35.0038   47.7754 H   0  0  0  0  0  0  0  0  0  0  0  0
   58.3660   33.0250   47.2530 C   0  0  0  0  0  0  0  0  0  0  0  0
   58.1080   32.6890   48.6260 N   0  0  0  0  0  0  0  0  0  0  0  0
   59.0650   32.3170   49.6290 C   0  0  0  0  0  0  0  0  0  0  0  0
   58.6360   31.8280   50.7080 O   0  0  0  0  0  0  0  0  0  0  0  0
   60.5230   32.5360   49.4670 C   0  0  0  0  0  0  0  0  0  0  0  0
   61.1710   33.6230   50.0790 C   0  0  0  0  0  0  0  0  0  0  0  0
   60.5923   34.3254   50.6969 H   0  0  0  0  0  0  0  0  0  0  0  0
   62.5450   33.8190   49.9090 C   0  0  0  0  0  0  0  0  0  0  0  0
   63.0370   34.6841   50.3776 H   0  0  0  0  0  0  0  0  0  0  0  0
   63.3020   32.9130   49.1400 C   0  0  0  0  0  0  0  0  0  0  0  0
   64.6850   33.0530   48.9400 O   0  0  0  0  0  0  0  0  0  0  0  0
   65.6870   32.8550   49.9340 C   0  0  0  0  0  0  0  0  0  0  0  0
   66.9420   33.0290   49.3820 F   0  0  0  0  0  0  0  0  0  0  0  0
   65.5030   33.7370   50.9820 F   0  0  0  0  0  0  0  0  0  0  0  0
   65.5890   31.5640   50.4160 F   0  0  0  0  0  0  0  0  0  0  0  0
   62.6590   31.8210   48.5490 C   0  0  0  0  0  0  0  0  0  0  0  0
   63.2413   31.1051   47.9504 H   0  0  0  0  0  0  0  0  0  0  0  0
   61.2850   31.6300   48.7110 C   0  0  0  0  0  0  0  0  0  0  0  0
   60.7957   30.7632   48.2428 H   0  0  0  0  0  0  0  0  0  0  0  0
   58.0750   32.1390   46.2000 C   0  0  0  0  0  0  0  0  0  0  0  0
   57.6251   31.1593   46.4187 H   0  0  0  0  0  0  0  0  0  0  0  0
   55.8460   30.4270   43.9730 C   0  0  0  0  0  0  0  0  0  0  0  0
   55.2724   31.2133   43.4605 H   0  0  0  0  0  0  0  0  0  0  0  0
   55.3410   29.3060   44.5100 N   0  0  0  0  0  0  0  0  0  0  0  0
   54.3410   29.0040   44.5180 H   0  0  0  0  0  0  0  0  0  0  0  0
  1  2  1  0
  2  3  2  0
  3  4  1  0
  4  5  1  0
  5  6  1  0
  6  7  1  0
  6  8  1  0
  6  9  1  0
  9 10  2  0
 10 11  1  0
 10 12  1  0
 12 13  1  0
 12 14  2  0
 14 15  1  0
 14 16  1  0
 16 17  1  0
 17 18  1  0
 18 19  2  0
 18 20  1  0
 20 21  2  0
 21 22  1  0
 21 23  1  0
 23 24  1  0
 23 25  2  0
 25 26  1  0
 26 27  1  0
 27 28  1  0
 27 29  1  0
 27 30  1  0
 25 31  1  0
 31 32  1  0
 31 33  2  0
 33 34  1  0
 16 35  2  0
 35 36  1  0
  5 37  2  0
 37 38  1  0
 37 39  1  0
 39 40  1  0
 39  3  1  0
 35  9  1  0
 33 20  1  0
M  CHG  2   4  -1  17  -1
M  END
>  <UniqueID>  (93) 
83

>  <SMILES>  (93) 
[H]/N=c1\[n-]c(Cc2cccc([N-]C(=O)c3ccc(OC(F)(F)F)cc3)c2)c[nH]1

>  <Energy>  (93) 
75.89217721936252

>  <Genealogy>  (93) 
N=c1[n-]c(Cc2cccc([N-]C(=O)c3ccc(OC(F)(F)F)cc3)c2)c[nH]1 (protonated)
[H]/N=c1\[n-]c(Cc2cccc([N-]C(=O)c3ccc(OC(F)(F)F)cc3)c2)c[nH]1 (cis-trans isomerization)
[H]/N=c1\[n-]c(Cc2cccc([N-]C(=O)c3ccc(OC(F)(F)F)cc3)c2)c[nH]1 (3D coordinates assigned)
[H]/N=c1\[n-]c(Cc2cccc([N-]C(=O)c3ccc(OC(F)(F)F)cc3)c2)c[nH]1 (optimized conformer: 75.89217721936252 kcal/mol)

>  <smiles>  (93) 
N=c1[nH]cc(Cc2cccc(NC(=O)c3ccc(OC(F)(F)F)cc3)c2)[nH]1

>  <score_type>  (93) 
oracle

>  <origin>  (93) 
adg

>  <m_score__min__energy>  (93) 
-10.35

>  <m_primary>  (93) 
energy

$$$$
93:0
     RDKit          3D

 35 37  0  0  0  0  0  0  0  0999 V2000
   56.6130   29.3330   42.7740 C   0  0  0  0  0  0  0  0  0  0  0  0
   56.8460   30.6580   43.4170 C   0  0  0  0  0  0  0  0  0  0  0  0
   57.1540   31.6510   42.7040 O   0  0  0  0  0  0  0  0  0  0  0  0
   56.7630   30.7720   44.8090 O   0  0  0  0  0  0  0  0  0  0  0  0
   57.9040   30.9060   45.6530 C   0  0  0  0  0  0  0  0  0  0  0  0
   58.4030   32.3270   45.6360 C   0  0  0  0  0  0  0  0  0  0  0  0
   57.7380   33.2730   44.9030 N   0  0  0  0  0  0  0  0  0  0  0  0
   58.1450   34.5790   44.8660 C   0  0  0  0  0  0  0  0  0  0  0  0
   59.2720   34.9970   45.5890 C   0  0  0  0  0  0  0  0  0  0  0  0
   59.9590   34.0480   46.3410 C   0  0  0  0  0  0  0  0  0  0  0  0
   61.0600   34.3160   47.0870 N   0  0  0  0  0  0  0  0  0  0  0  0
   61.5080   33.1980   47.7080 C   0  0  0  0  0  0  0  0  0  0  0  0
   62.6580   33.1860   48.5630 N   0  0  0  0  0  0  0  0  0  0  0  0
   62.6310   33.6560   49.9350 C   0  0  0  0  0  0  0  0  0  0  0  0
   64.0790   33.6180   50.4070 C   0  0  0  0  0  0  0  0  0  0  0  0
   64.8250   32.7380   49.4060 C   0  0  0  0  0  0  0  0  0  0  0  0
   63.9650   32.7090   48.1500 C   0  0  0  0  0  0  0  0  0  0  0  0
   60.5570   31.8390   47.3530 S   0  0  0  0  0  0  0  0  0  0  0  0
   59.5290   32.7310   46.3630 C   0  0  0  0  0  0  0  0  0  0  0  0
   56.4782   28.5667   43.5516 H   0  0  0  0  0  0  0  0  0  0  0  0
   55.7099   29.3830   42.1480 H   0  0  0  0  0  0  0  0  0  0  0  0
   57.4790   29.0719   42.1480 H   0  0  0  0  0  0  0  0  0  0  0  0
   57.6287   30.6304   46.6817 H   0  0  0  0  0  0  0  0  0  0  0  0
   58.7008   30.2426   45.2854 H   0  0  0  0  0  0  0  0  0  0  0  0
   56.8910   33.0000   44.3530 H   0  0  0  0  0  0  0  0  0  0  0  0
   57.5830   35.3079   44.2636 H   0  0  0  0  0  0  0  0  0  0  0  0
   59.6037   36.0455   45.5625 H   0  0  0  0  0  0  0  0  0  0  0  0
   62.2382   34.6824   49.9821 H   0  0  0  0  0  0  0  0  0  0  0  0
   61.9795   33.0342   50.5666 H   0  0  0  0  0  0  0  0  0  0  0  0
   64.5048   34.6322   50.4160 H   0  0  0  0  0  0  0  0  0  0  0  0
   64.1591   33.2217   51.4300 H   0  0  0  0  0  0  0  0  0  0  0  0
   65.8132   33.1664   49.1827 H   0  0  0  0  0  0  0  0  0  0  0  0
   64.9906   31.7261   49.8043 H   0  0  0  0  0  0  0  0  0  0  0  0
   64.3889   33.3689   47.3787 H   0  0  0  0  0  0  0  0  0  0  0  0
   63.9122   31.7000   47.7152 H   0  0  0  0  0  0  0  0  0  0  0  0
  1  2  1  0
  2  3  2  0
  2  4  1  0
  4  5  1  0
  5  6  1  0
  6  7  2  0
  7  8  1  0
  8  9  2  0
  9 10  1  0
 10 11  1  0
 11 12  2  0
 12 13  1  0
 13 14  1  0
 14 15  1  0
 15 16  1  0
 16 17  1  0
 12 18  1  0
 18 19  1  0
 19  6  1  0
 19 10  2  0
 17 13  1  0
  1 20  1  0
  1 21  1  0
  1 22  1  0
  5 23  1  0
  5 24  1  0
  7 25  1  0
  8 26  1  0
  9 27  1  0
 14 28  1  0
 14 29  1  0
 15 30  1  0
 15 31  1  0
 16 32  1  0
 16 33  1  0
 17 34  1  0
 17 35  1  0
M  CHG  1   7   1
M  END
>  <UniqueID>  (94) 
84

>  <SMILES>  (94) 
CC(=O)OCc1[nH+]ccc2nc(N3CCCC3)sc12

>  <Energy>  (94) 
66.20727095329678

>  <Genealogy>  (94) 
CC(=O)OCc1[nH+]ccc2nc(N3CCCC3)sc12 (protonated)
CC(=O)OCc1[nH+]ccc2nc(N3CCCC3)sc12 (3D coordinates assigned)
CC(=O)OCc1[nH+]ccc2nc(N3CCCC3)sc12 (nonaromatic ring conformer: 66.20727095329678 kcal/mol)

>  <smiles>  (94) 
CC(=O)OCc1nccc2nc(N3CCCC3)sc12

>  <score_type>  (94) 
oracle

>  <origin>  (94) 
adg

>  <m_score__min__energy>  (94) 
-5.3499999999999996

>  <m_primary>  (94) 
energy

$$$$
94:0
     RDKit          3D

 73 77  0  0  0  0  0  0  0  0999 V2000
   52.1170   31.8670   51.4920 C   0  0  0  0  0  0  0  0  0  0  0  0
   52.6560   30.4710   51.5980 C   0  0  0  0  0  0  0  0  0  0  0  0
   51.8840   29.5060   51.3450 O   0  0  0  0  0  0  0  0  0  0  0  0
   54.0290   30.2150   51.9620 N   0  0  0  0  0  0  0  0  0  0  0  0
   54.4210   28.8600   52.3720 C   0  0  0  0  0  0  0  0  0  0  0  0
   55.7490   28.8890   53.1310 C   0  0  0  0  0  0  0  0  0  0  0  0
   56.8190   29.5130   52.3170 N   0  0  0  0  0  0  0  0  0  0  0  0
   58.0500   29.7140   53.1140 C   0  0  0  0  0  0  0  0  0  0  0  0
   59.2710   29.2450   52.3630 C   0  0  0  0  0  0  0  0  0  0  0  0
   60.3050   28.5710   53.0340 C   0  0  0  0  0  0  0  0  0  0  0  0
   61.4340   28.1390   52.3340 C   0  0  0  0  0  0  0  0  0  0  0  0
   61.5290   28.3500   50.9550 C   0  0  0  0  0  0  0  0  0  0  0  0
   60.4980   29.0100   50.2690 C   0  0  0  0  0  0  0  0  0  0  0  0
   60.6060   29.2400   48.7870 C   0  0  0  0  0  0  0  0  0  0  0  0
   59.2820   29.2560   48.1800 N   0  0  0  0  0  0  0  0  0  0  0  0
   58.7210   30.3940   47.5190 C   0  0  0  0  0  0  0  0  0  0  0  0
   57.8950   30.2440   46.5770 O   0  0  0  0  0  0  0  0  0  0  0  0
   59.1200   31.7730   47.9610 C   0  0  2  0  0  0  0  0  0  0  0  0
   58.4500   32.1190   49.2280 N   0  0  0  0  0  0  0  0  0  0  0  0
   59.3820   33.2540   50.1690 S   0  0  0  0  0  0  0  0  0  0  0  0
   58.6600   33.5820   51.4480 O   0  0  0  0  0  0  0  0  0  0  0  0
   59.5300   34.5090   49.3590 O   0  0  0  0  0  0  0  0  0  0  0  0
   61.0030   32.6490   50.5690 C   0  0  0  0  0  0  0  0  0  0  0  0
   61.2600   32.0370   51.8090 C   0  0  0  0  0  0  0  0  0  0  0  0
   62.5450   31.5880   52.1280 C   0  0  0  0  0  0  0  0  0  0  0  0
   63.5920   31.7360   51.2180 C   0  0  0  0  0  0  0  0  0  0  0  0
   63.3560   32.3300   49.9720 C   0  0  0  0  0  0  0  0  0  0  0  0
   64.3890   32.4760   49.0360 C   0  0  0  0  0  0  0  0  0  0  0  0
   64.1270   33.0600   47.7960 C   0  0  0  0  0  0  0  0  0  0  0  0
   62.8350   33.5020   47.5020 C   0  0  0  0  0  0  0  0  0  0  0  0
   62.5860   34.0220   46.3820 O   0  0  0  0  0  0  0  0  0  0  0  0
   61.8430   33.3610   48.4230 N   0  0  0  0  0  0  0  0  0  0  0  0
   62.0580   32.7900   49.6420 C   0  0  0  0  0  0  0  0  0  0  0  0
   58.7630   32.7660   46.8740 C   0  0  0  0  0  0  0  0  0  0  0  0
   59.7730   33.3330   46.0770 C   0  0  0  0  0  0  0  0  0  0  0  0
   59.4490   34.2370   45.0610 C   0  0  0  0  0  0  0  0  0  0  0  0
   58.1150   34.5790   44.8250 C   0  0  0  0  0  0  0  0  0  0  0  0
   57.1020   34.0160   45.6040 C   0  0  0  0  0  0  0  0  0  0  0  0
   57.4200   33.1080   46.6200 C   0  0  0  0  0  0  0  0  0  0  0  0
   59.3800   29.4730   50.9810 C   0  0  0  0  0  0  0  0  0  0  0  0
   56.4110   30.7610   51.6140 C   0  0  0  0  0  0  0  0  0  0  0  0
   55.0260   31.2920   52.0190 C   0  0  0  0  0  0  0  0  0  0  0  0
   51.9589   32.2766   52.5006 H   0  0  0  0  0  0  0  0  0  0  0  0
   52.8363   32.4975   50.9488 H   0  0  0  0  0  0  0  0  0  0  0  0
   51.1606   31.8505   50.9488 H   0  0  0  0  0  0  0  0  0  0  0  0
   53.6411   28.4400   53.0243 H   0  0  0  0  0  0  0  0  0  0  0  0
   54.5407   28.2384   51.4724 H   0  0  0  0  0  0  0  0  0  0  0  0
   55.6199   29.4674   54.0577 H   0  0  0  0  0  0  0  0  0  0  0  0
   56.0431   27.8535   53.3574 H   0  0  0  0  0  0  0  0  0  0  0  0
   58.1586   30.7846   53.3419 H   0  0  0  0  0  0  0  0  0  0  0  0
   57.9644   29.1261   54.0398 H   0  0  0  0  0  0  0  0  0  0  0  0
   60.2252   28.3827   54.1148 H   0  0  0  0  0  0  0  0  0  0  0  0
   62.2503   27.6316   52.8689 H   0  0  0  0  0  0  0  0  0  0  0  0
   62.4147   27.9975   50.4062 H   0  0  0  0  0  0  0  0  0  0  0  0
   61.1004   30.2056   48.6047 H   0  0  0  0  0  0  0  0  0  0  0  0
   61.1945   28.4250   48.3404 H   0  0  0  0  0  0  0  0  0  0  0  0
   60.2058   31.8047   48.1342 H   0  0  0  0  0  0  0  0  0  0  0  0
   57.5310   32.5780   49.0330 H   0  0  0  0  0  0  0  0  0  0  0  0
   60.4427   31.9105   52.5343 H   0  0  0  0  0  0  0  0  0  0  0  0
   62.7318   31.1148   53.1033 H   0  0  0  0  0  0  0  0  0  0  0  0
   64.6018   31.3865   51.4789 H   0  0  0  0  0  0  0  0  0  0  0  0
   65.4048   32.1307   49.2785 H   0  0  0  0  0  0  0  0  0  0  0  0
   64.9324   33.1715   47.0551 H   0  0  0  0  0  0  0  0  0  0  0  0
   60.8247   33.0636   46.2540 H   0  0  0  0  0  0  0  0  0  0  0  0
   60.2461   34.6801   44.4460 H   0  0  0  0  0  0  0  0  0  0  0  0
   57.8628   35.2915   44.0258 H   0  0  0  0  0  0  0  0  0  0  0  0
   56.0521   34.2868   45.4186 H   0  0  0  0  0  0  0  0  0  0  0  0
   56.6174   32.6589   47.2235 H   0  0  0  0  0  0  0  0  0  0  0  0
   58.5837   30.0182   50.4530 H   0  0  0  0  0  0  0  0  0  0  0  0
   57.1562   31.5396   51.8340 H   0  0  0  0  0  0  0  0  0  0  0  0
   56.3530   30.5147   50.5435 H   0  0  0  0  0  0  0  0  0  0  0  0
   55.0748   31.6871   53.0444 H   0  0  0  0  0  0  0  0  0  0  0  0
   54.7309   32.0892   51.3209 H   0  0  0  0  0  0  0  0  0  0  0  0
  1  2  1  0
  2  3  2  0
  2  4  1  0
  4  5  1  0
  5  6  1  0
  6  7  1  0
  7  8  1  0
  8  9  1  0
  9 10  2  0
 10 11  1  0
 11 12  2  0
 12 13  1  0
 13 14  1  0
 14 15  1  0
 15 16  1  0
 16 17  2  0
 16 18  1  0
 18 19  1  0
 19 20  1  0
 20 21  2  0
 20 22  2  0
 20 23  1  0
 23 24  2  0
 24 25  1  0
 25 26  2  0
 26 27  1  0
 27 28  1  0
 28 29  2  0
 29 30  1  0
 30 31  2  0
 30 32  1  0
 32 33  1  0
 18 34  1  0
 34 35  2  0
 35 36  1  0
 36 37  2  0
 37 38  1  0
 38 39  2  0
 13 40  2  0
  7 41  1  0
 41 42  1  0
 42  4  1  0
 40  9  1  0
 33 23  1  0
 39 34  1  0
 33 27  2  0
  1 43  1  0
  1 44  1  0
  1 45  1  0
  5 46  1  0
  5 47  1  0
  6 48  1  0
  6 49  1  0
  8 50  1  0
  8 51  1  0
 10 52  1  0
 11 53  1  0
 12 54  1  0
 14 55  1  0
 14 56  1  0
 18 57  1  1
 19 58  1  0
 24 59  1  0
 25 60  1  0
 26 61  1  0
 28 62  1  0
 29 63  1  0
 35 64  1  0
 36 65  1  0
 37 66  1  0
 38 67  1  0
 39 68  1  0
 40 69  1  0
 41 70  1  0
 41 71  1  0
 42 72  1  0
 42 73  1  0
M  CHG  2  15  -1  32  -1
M  END
>  <UniqueID>  (95) 
85

>  <SMILES>  (95) 
CC(=O)N1CCN(Cc2cccc(C[N-]C(=O)[C@H](NS(=O)(=O)c3cccc4ccc(=O)[n-]c34)c3ccccc3)c2)CC1

>  <Energy>  (95) 
86.34315722847559

>  <Genealogy>  (95) 
CC(=O)N1CCN(Cc2cccc(C[N-]C(=O)C(NS(=O)(=O)c3cccc4ccc(=O)[n-]c34)c3ccccc3)c2)CC1 (protonated)
CC(=O)N1CCN(Cc2cccc(C[N-]C(=O)[C@H](NS(=O)(=O)c3cccc4ccc(=O)[n-]c34)c3ccccc3)c2)CC1 (chirality)
CC(=O)N1CCN(Cc2cccc(C[N-]C(=O)[C@H](NS(=O)(=O)c3cccc4ccc(=O)[n-]c34)c3ccccc3)c2)CC1 (3D coordinates assigned)
CC(=O)N1CCN(Cc2cccc(C[N-]C(=O)[C@H](NS(=O)(=O)c3cccc4ccc(=O)[n-]c34)c3ccccc3)c2)CC1 (nonaromatic ring conformer: 86.34315722847559 kcal/mol)

>  <smiles>  (95) 
CC(=O)N1CCN(Cc2cccc(CNC(=O)C(NS(=O)(=O)c3cccc4ccc(=O)[nH]c34)c3ccccc3)c2)CC1

>  <score_type>  (95) 
oracle

>  <origin>  (95) 
adg

>  <m_score__min__energy>  (95) 
-14.050000000000001

>  <m_primary>  (95) 
energy

$$$$
95:0
     RDKit          3D

 40 41  0  0  0  0  0  0  0  0999 V2000
   58.5430   30.9820   47.0430 C   0  0  0  0  0  0  0  0  0  0  0  0
   58.5990   32.2990   46.3200 C   0  0  0  0  0  0  0  0  0  0  0  0
   59.5380   33.2720   46.7000 C   0  0  0  0  0  0  0  0  0  0  0  0
   59.5890   34.5020   46.0400 C   0  0  0  0  0  0  0  0  0  0  0  0
   58.7080   34.7700   44.9920 C   0  0  0  0  0  0  0  0  0  0  0  0
   57.7690   33.8110   44.6050 C   0  0  0  0  0  0  0  0  0  0  0  0
   57.6900   32.5810   45.2790 C   0  0  0  0  0  0  0  0  0  0  0  0
   56.7490   31.5820   44.8600 N   0  0  0  0  0  0  0  0  0  0  0  0
   56.7680   30.8940   43.6010 C   0  0  0  0  0  0  0  0  0  0  0  0
   57.0790   31.5350   42.5630 O   0  0  0  0  0  0  0  0  0  0  0  0
   56.5680   29.4070   43.5110 C   0  0  0  0  0  0  0  0  0  0  0  0
   57.0410   28.7230   44.8000 C   0  0  0  0  0  0  0  0  0  0  0  0
   58.4990   28.2750   44.6990 C   0  0  0  0  0  0  0  0  0  0  0  0
   58.6670   26.9950   45.3750 N   0  0  0  0  0  0  0  0  0  0  0  0
   57.6700   26.4060   46.2140 C   0  0  0  0  0  0  0  0  0  0  0  0
   57.5710   26.7730   47.4160 O   0  0  0  0  0  0  0  0  0  0  0  0
   56.7740   25.3480   45.6830 C   0  0  0  0  0  0  0  0  0  0  0  0
   57.3240   24.1360   45.2260 C   0  0  0  0  0  0  0  0  0  0  0  0
   56.5040   23.1330   44.6990 C   0  0  0  0  0  0  0  0  0  0  0  0
   57.2720   21.5000   44.0740 Br  0  0  0  0  0  0  0  0  0  0  0  0
   55.1230   23.3270   44.6240 C   0  0  0  0  0  0  0  0  0  0  0  0
   54.5610   24.5190   45.0820 C   0  0  0  0  0  0  0  0  0  0  0  0
   55.3710   25.5250   45.6170 C   0  0  0  0  0  0  0  0  0  0  0  0
   54.7690   26.6830   46.0940 O   0  0  0  0  0  0  0  0  0  0  0  0
   58.5505   31.1591   48.1286 H   0  0  0  0  0  0  0  0  0  0  0  0
   57.6214   30.4498   46.7647 H   0  0  0  0  0  0  0  0  0  0  0  0
   59.4161   30.3735   46.7647 H   0  0  0  0  0  0  0  0  0  0  0  0
   60.2378   33.0640   47.5228 H   0  0  0  0  0  0  0  0  0  0  0  0
   60.3246   35.2601   46.3469 H   0  0  0  0  0  0  0  0  0  0  0  0
   58.7528   35.7372   44.4700 H   0  0  0  0  0  0  0  0  0  0  0  0
   57.0873   34.0202   43.7674 H   0  0  0  0  0  0  0  0  0  0  0  0
   55.4996   29.1939   43.3590 H   0  0  0  0  0  0  0  0  0  0  0  0
   57.1557   29.0192   42.6659 H   0  0  0  0  0  0  0  0  0  0  0  0
   56.9425   29.4309   45.6362 H   0  0  0  0  0  0  0  0  0  0  0  0
   56.4184   27.8311   44.9637 H   0  0  0  0  0  0  0  0  0  0  0  0
   58.7763   28.1684   43.6399 H   0  0  0  0  0  0  0  0  0  0  0  0
   59.1451   29.0267   45.1760 H   0  0  0  0  0  0  0  0  0  0  0  0
   58.4107   23.9757   45.2839 H   0  0  0  0  0  0  0  0  0  0  0  0
   54.4788   22.5405   44.2041 H   0  0  0  0  0  0  0  0  0  0  0  0
   53.4728   24.6683   45.0217 H   0  0  0  0  0  0  0  0  0  0  0  0
  1  2  1  0
  2  3  2  0
  3  4  1  0
  4  5  2  0
  5  6  1  0
  6  7  2  0
  7  8  1  0
  8  9  1  0
  9 10  2  0
  9 11  1  0
 11 12  1  0
 12 13  1  0
 13 14  1  0
 14 15  1  0
 15 16  2  0
 15 17  1  0
 17 18  2  0
 18 19  1  0
 19 20  1  0
 19 21  2  0
 21 22  1  0
 22 23  2  0
 23 24  1  0
  7  2  1  0
 23 17  1  0
  1 25  1  0
  1 26  1  0
  1 27  1  0
  3 28  1  0
  4 29  1  0
  5 30  1  0
  6 31  1  0
 11 32  1  0
 11 33  1  0
 12 34  1  0
 12 35  1  0
 13 36  1  0
 13 37  1  0
 18 38  1  0
 21 39  1  0
 22 40  1  0
M  CHG  3   8  -1  14  -1  24  -1
M  END
>  <UniqueID>  (96) 
86

>  <SMILES>  (96) 
Cc1ccccc1[N-]C(=O)CCC[N-]C(=O)c1cc(Br)ccc1[O-]

>  <Energy>  (96) 
39.4896986510447

>  <Genealogy>  (96) 
Cc1ccccc1[N-]C(=O)CCC[N-]C(=O)c1cc(Br)ccc1[O-] (protonated)
Cc1ccccc1[N-]C(=O)CCC[N-]C(=O)c1cc(Br)ccc1[O-] (3D coordinates assigned)
Cc1ccccc1[N-]C(=O)CCC[N-]C(=O)c1cc(Br)ccc1[O-] (optimized conformer: 39.4896986510447 kcal/mol)

>  <smiles>  (96) 
Cc1ccccc1NC(=O)CCCNC(=O)c1cc(Br)ccc1O

>  <score_type>  (96) 
oracle

>  <origin>  (96) 
adg

>  <m_score__min__energy>  (96) 
-14.77

>  <m_primary>  (96) 
energy

$$$$
