0:0
     RDKit          3D

 52 54  0  0  0  0  0  0  0  0999 V2000
   63.0960   33.7230   46.4030 C   0  0  0  0  0  0  0  0  0  0  0  0
   62.7430   32.8350   47.5670 C   0  0  0  0  0  0  0  0  0  0  0  0
   61.4830   32.2490   47.6500 C   0  0  0  0  0  0  0  0  0  0  0  0
   61.1590   31.4350   48.7020 N   0  0  0  0  0  0  0  0  0  0  0  0
   59.8350   30.7950   48.7180 C   0  0  0  0  0  0  0  0  0  0  0  0
   59.7680   29.7110   47.6780 C   0  0  0  0  0  0  0  0  0  0  0  0
   60.2410   28.4210   47.9670 C   0  0  0  0  0  0  0  0  0  0  0  0
   60.2080   27.4260   46.9870 C   0  0  0  0  0  0  0  0  0  0  0  0
   59.6950   27.7040   45.7170 C   0  0  0  0  0  0  0  0  0  0  0  0
   59.2030   28.9850   45.4200 C   0  0  0  0  0  0  0  0  0  0  0  0
   58.6450   29.2870   44.1360 N   0  0  0  0  0  0  0  0  0  0  0  0
   57.1180   30.0920   43.9330 S   0  0  0  0  0  0  0  0  0  0  0  0
   56.4630   29.5940   42.6790 O   0  0  0  0  0  0  0  0  0  0  0  0
   56.2120   29.8250   45.0980 O   0  0  0  0  0  0  0  0  0  0  0  0
   57.3870   31.8580   43.8110 C   0  0  0  0  0  0  0  0  0  0  0  0
   56.8060   32.6240   45.0100 C   0  0  0  0  0  0  0  0  0  0  0  0
   57.8530   33.4270   45.7370 C   0  0  0  0  0  0  0  0  0  0  0  0
   58.6980   34.2950   45.0250 C   0  0  0  0  0  0  0  0  0  0  0  0
   59.6480   35.0660   45.7030 C   0  0  0  0  0  0  0  0  0  0  0  0
   59.7550   34.9800   47.0890 C   0  0  0  0  0  0  0  0  0  0  0  0
   58.9290   34.1090   47.8040 C   0  0  0  0  0  0  0  0  0  0  0  0
   57.9900   33.3300   47.1320 C   0  0  0  0  0  0  0  0  0  0  0  0
   59.2730   29.9920   46.3940 C   0  0  0  0  0  0  0  0  0  0  0  0
   62.0760   31.1990   49.6960 C   0  0  0  0  0  0  0  0  0  0  0  0
   61.7740   30.4340   50.6580 O   0  0  0  0  0  0  0  0  0  0  0  0
   63.3170   31.7880   49.6550 N   0  0  0  0  0  0  0  0  0  0  0  0
   64.3070   31.4960   50.7060 C   0  0  0  0  0  0  0  0  0  0  0  0
   63.6650   32.5780   48.5900 C   0  0  0  0  0  0  0  0  0  0  0  0
   64.8230   33.0800   48.5200 O   0  0  0  0  0  0  0  0  0  0  0  0
   63.4781   34.6841   46.7777 H   0  0  0  0  0  0  0  0  0  0  0  0
   63.8685   33.2350   45.7906 H   0  0  0  0  0  0  0  0  0  0  0  0
   62.1993   33.8985   45.7906 H   0  0  0  0  0  0  0  0  0  0  0  0
   60.7400   32.4420   46.8622 H   0  0  0  0  0  0  0  0  0  0  0  0
   59.6554   30.3571   49.7110 H   0  0  0  0  0  0  0  0  0  0  0  0
   59.0684   31.5521   48.4963 H   0  0  0  0  0  0  0  0  0  0  0  0
   60.6384   28.1934   48.9671 H   0  0  0  0  0  0  0  0  0  0  0  0
   60.5875   26.4192   47.2159 H   0  0  0  0  0  0  0  0  0  0  0  0
   59.6767   26.9173   44.9483 H   0  0  0  0  0  0  0  0  0  0  0  0
   59.2730   29.2610   43.3020 H   0  0  0  0  0  0  0  0  0  0  0  0
   58.4694   32.0478   43.7616 H   0  0  0  0  0  0  0  0  0  0  0  0
   56.8734   32.2134   42.9055 H   0  0  0  0  0  0  0  0  0  0  0  0
   56.0241   33.3077   44.6478 H   0  0  0  0  0  0  0  0  0  0  0  0
   56.3982   31.8853   45.7157 H   0  0  0  0  0  0  0  0  0  0  0  0
   58.6122   34.3684   43.9308 H   0  0  0  0  0  0  0  0  0  0  0  0
   60.3109   35.7406   45.1413 H   0  0  0  0  0  0  0  0  0  0  0  0
   60.4915   35.5992   47.6220 H   0  0  0  0  0  0  0  0  0  0  0  0
   59.0203   34.0384   48.8979 H   0  0  0  0  0  0  0  0  0  0  0  0
   57.3518   32.6346   47.6969 H   0  0  0  0  0  0  0  0  0  0  0  0
   58.9373   31.0107   46.1500 H   0  0  0  0  0  0  0  0  0  0  0  0
   63.8437   31.6326   51.6943 H   0  0  0  0  0  0  0  0  0  0  0  0
   64.6542   30.4572   50.6043 H   0  0  0  0  0  0  0  0  0  0  0  0
   65.1624   32.1801   50.6043 H   0  0  0  0  0  0  0  0  0  0  0  0
  1  2  1  0
  2  3  2  0
  3  4  1  0
  4  5  1  0
  5  6  1  0
  6  7  2  0
  7  8  1  0
  8  9  2  0
  9 10  1  0
 10 11  1  0
 11 12  1  0
 12 13  2  0
 12 14  2  0
 12 15  1  0
 15 16  1  0
 16 17  1  0
 17 18  2  0
 18 19  1  0
 19 20  2  0
 20 21  1  0
 21 22  2  0
 10 23  2  0
  4 24  1  0
 24 25  2  0
 24 26  1  0
 26 27  1  0
 26 28  1  0
 28 29  2  0
 28  2  1  0
 23  6  1  0
 22 17  1  0
  1 30  1  0
  1 31  1  0
  1 32  1  0
  3 33  1  0
  5 34  1  0
  5 35  1  0
  7 36  1  0
  8 37  1  0
  9 38  1  0
 11 39  1  0
 15 40  1  0
 15 41  1  0
 16 42  1  0
 16 43  1  0
 18 44  1  0
 19 45  1  0
 20 46  1  0
 21 47  1  0
 22 48  1  0
 23 49  1  0
 27 50  1  0
 27 51  1  0
 27 52  1  0
M  END
>  <UniqueID>  (1) 
1

>  <SMILES>  (1) 
Cc1cn(Cc2cccc(NS(=O)(=O)CCc3ccccc3)c2)c(=O)n(C)c1=O

>  <Energy>  (1) 
55.990289611850635

>  <Genealogy>  (1) 
Cc1cn(Cc2cccc(NS(=O)(=O)CCc3ccccc3)c2)c(=O)n(C)c1=O (3D coordinates assigned)
Cc1cn(Cc2cccc(NS(=O)(=O)CCc3ccccc3)c2)c(=O)n(C)c1=O (optimized conformer: 55.990289611850635 kcal/mol)

>  <smiles>  (1) 
Cc1cn(Cc2cccc(NS(=O)(=O)CCc3ccccc3)c2)c(=O)n(C)c1=O

>  <score_type>  (1) 
oracle

>  <origin>  (1) 
adg

>  <m_score__min__energy>  (1) 
-10.789999999999999

>  <m_primary>  (1) 
energy

$$$$
1:0
     RDKit          3D

 34 35  0  0  0  0  0  0  0  0999 V2000
   57.0390   24.2620   43.8760 C   0  0  0  0  0  0  0  0  0  0  0  0
   56.7290   24.2420   45.6690 S   0  0  0  0  0  0  0  0  0  0  0  0
   56.3610   26.0000   45.7390 C   0  0  0  0  0  0  0  0  0  0  0  0
   55.1750   26.3430   45.9950 O   0  0  0  0  0  0  0  0  0  0  0  0
   57.3890   27.0390   45.4740 C   0  0  0  0  0  0  0  0  0  0  0  0
   56.9800   28.3100   45.0230 C   0  0  0  0  0  0  0  0  0  0  0  0
   57.9220   29.3100   44.7460 C   0  0  0  0  0  0  0  0  0  0  0  0
   57.4050   30.8930   44.1700 S   0  0  0  0  0  0  0  0  0  0  0  0
   57.2300   30.8550   42.6770 O   0  0  0  0  0  0  0  0  0  0  0  0
   56.0870   31.2240   44.8120 O   0  0  0  0  0  0  0  0  0  0  0  0
   58.6080   32.0890   44.6050 N   0  0  0  0  0  0  0  0  0  0  0  0
   58.2390   33.4410   44.1300 C   0  0  0  0  0  0  0  0  0  0  0  0
   57.6340   34.3170   45.2400 C   0  0  0  0  0  0  0  0  0  0  0  0
   56.9020   33.5210   46.1440 O   0  0  0  0  0  0  0  0  0  0  0  0
   57.7780   32.6980   46.8940 C   0  0  0  0  0  0  0  0  0  0  0  0
   58.9070   32.0620   46.0480 C   0  0  0  0  0  0  0  0  0  0  0  0
   59.2830   29.0520   44.9350 C   0  0  0  0  0  0  0  0  0  0  0  0
   59.7020   27.8030   45.3910 C   0  0  0  0  0  0  0  0  0  0  0  0
   58.7680   26.7970   45.6620 C   0  0  0  0  0  0  0  0  0  0  0  0
   59.2220   25.6130   46.1400 F   0  0  0  0  0  0  0  0  0  0  0  0
   58.1212   24.3318   43.6918 H   0  0  0  0  0  0  0  0  0  0  0  0
   56.6494   23.3369   43.4262 H   0  0  0  0  0  0  0  0  0  0  0  0
   56.5338   25.1294   43.4262 H   0  0  0  0  0  0  0  0  0  0  0  0
   55.9088   28.5196   44.8868 H   0  0  0  0  0  0  0  0  0  0  0  0
   59.1419   33.9366   43.7437 H   0  0  0  0  0  0  0  0  0  0  0  0
   57.4742   33.3207   43.3486 H   0  0  0  0  0  0  0  0  0  0  0  0
   58.4436   34.8294   45.7803 H   0  0  0  0  0  0  0  0  0  0  0  0
   56.9588   35.0569   44.7853 H   0  0  0  0  0  0  0  0  0  0  0  0
   58.2380   33.3093   47.6844 H   0  0  0  0  0  0  0  0  0  0  0  0
   57.1756   31.8724   47.3008 H   0  0  0  0  0  0  0  0  0  0  0  0
   59.8390   32.6183   46.2266 H   0  0  0  0  0  0  0  0  0  0  0  0
   59.0029   31.0092   46.3520 H   0  0  0  0  0  0  0  0  0  0  0  0
   60.0248   29.8362   44.7235 H   0  0  0  0  0  0  0  0  0  0  0  0
   60.7743   27.6070   45.5388 H   0  0  0  0  0  0  0  0  0  0  0  0
  1  2  1  0
  2  3  1  0
  3  4  2  0
  3  5  1  0
  5  6  2  0
  6  7  1  0
  7  8  1  0
  8  9  2  0
  8 10  2  0
  8 11  1  0
 11 12  1  0
 12 13  1  0
 13 14  1  0
 14 15  1  0
 15 16  1  0
  7 17  2  0
 17 18  1  0
 18 19  2  0
 19 20  1  0
 19  5  1  0
 16 11  1  0
  1 21  1  0
  1 22  1  0
  1 23  1  0
  6 24  1  0
 12 25  1  0
 12 26  1  0
 13 27  1  0
 13 28  1  0
 15 29  1  0
 15 30  1  0
 16 31  1  0
 16 32  1  0
 17 33  1  0
 18 34  1  0
M  END
>  <UniqueID>  (2) 
2

>  <SMILES>  (2) 
CSC(=O)c1cc(S(=O)(=O)N2CCOCC2)ccc1F

>  <Energy>  (2) 
43.671760699162824

>  <Genealogy>  (2) 
CSC(=O)c1cc(S(=O)(=O)N2CCOCC2)ccc1F (3D coordinates assigned)
CSC(=O)c1cc(S(=O)(=O)N2CCOCC2)ccc1F (nonaromatic ring conformer: 43.671760699162824 kcal/mol)

>  <smiles>  (2) 
CSC(=O)c1cc(S(=O)(=O)N2CCOCC2)ccc1F

>  <score_type>  (2) 
oracle

>  <origin>  (2) 
adg

>  <m_score__min__energy>  (2) 
-7.6500000000000004

>  <m_primary>  (2) 
energy

$$$$
2:0
     RDKit          3D

 65 69  0  0  0  0  0  0  0  0999 V2000
   63.2230   25.7660   51.9920 C   0  0  0  0  0  0  0  0  0  0  0  0
   62.1620   26.8080   52.1990 C   0  0  0  0  0  0  0  0  0  0  0  0
   61.0260   26.5220   52.9710 C   0  0  0  0  0  0  0  0  0  0  0  0
   60.0280   27.4840   53.1330 C   0  0  0  0  0  0  0  0  0  0  0  0
   60.1460   28.7320   52.5170 C   0  0  0  0  0  0  0  0  0  0  0  0
   61.2700   29.0360   51.7250 C   0  0  0  0  0  0  0  0  0  0  0  0
   61.3790   30.3350   51.0740 N   0  0  2  0  0  0  0  0  0  0  0  0
   61.2870   30.1720   49.5890 C   0  0  0  0  0  0  0  0  0  0  0  0
   62.2380   31.0840   48.8000 C   0  0  0  0  0  0  0  0  0  0  0  0
   62.3240   32.4000   49.4320 N   0  0  0  0  0  0  0  0  0  0  0  0
   62.0260   33.5920   48.6840 C   0  0  0  0  0  0  0  0  0  0  0  0
   62.9010   34.4930   48.5670 O   0  0  0  0  0  0  0  0  0  0  0  0
   60.7290   33.7680   48.0090 C   0  0  0  0  0  0  0  0  0  0  0  0
   60.5510   34.1700   46.7020 C   0  0  0  0  0  0  0  0  0  0  0  0
   59.2370   34.1040   46.4200 N   0  0  0  0  0  0  0  0  0  0  0  0
   58.6320   34.3360   45.1140 C   0  0  0  0  0  0  0  0  0  0  0  0
   58.1530   33.0330   44.5380 C   0  0  0  0  0  0  0  0  0  0  0  0
   58.1230   32.8390   43.1480 C   0  0  0  0  0  0  0  0  0  0  0  0
   57.7160   31.6110   42.6170 C   0  0  0  0  0  0  0  0  0  0  0  0
   57.3490   30.5650   43.4690 C   0  0  0  0  0  0  0  0  0  0  0  0
   57.3930   30.7460   44.8540 C   0  0  0  0  0  0  0  0  0  0  0  0
   57.7990   31.9720   45.3880 C   0  0  0  0  0  0  0  0  0  0  0  0
   58.5620   33.6780   47.4780 N   0  0  0  0  0  0  0  0  0  0  0  0
   59.4480   33.4810   48.4750 C   0  0  0  0  0  0  0  0  0  0  0  0
   59.0510   33.0470   49.8310 C   0  0  0  0  0  0  0  0  0  0  0  0
   58.3240   31.8570   49.9980 C   0  0  0  0  0  0  0  0  0  0  0  0
   57.9640   31.4220   51.2770 C   0  0  0  0  0  0  0  0  0  0  0  0
   58.3140   32.1780   52.3990 C   0  0  0  0  0  0  0  0  0  0  0  0
   57.8710   31.6260   54.0040 Cl  0  0  0  0  0  0  0  0  0  0  0  0
   59.0160   33.3770   52.2410 C   0  0  0  0  0  0  0  0  0  0  0  0
   59.3740   33.8160   50.9630 C   0  0  0  0  0  0  0  0  0  0  0  0
   62.6030   32.4860   50.8700 C   0  0  0  0  0  0  0  0  0  0  0  0
   62.5840   31.0880   51.5240 C   0  0  1  0  0  0  0  0  0  0  0  0
   62.6320   31.2490   53.0570 C   0  0  0  0  0  0  0  0  0  0  0  0
   62.2720   28.0550   51.5680 C   0  0  0  0  0  0  0  0  0  0  0  0
   63.5841   25.4114   52.9686 H   0  0  0  0  0  0  0  0  0  0  0  0
   62.8018   24.9208   51.4279 H   0  0  0  0  0  0  0  0  0  0  0  0
   64.0604   26.2024   51.4279 H   0  0  0  0  0  0  0  0  0  0  0  0
   60.9217   25.5372   53.4498 H   0  0  0  0  0  0  0  0  0  0  0  0
   59.1446   27.2584   53.7485 H   0  0  0  0  0  0  0  0  0  0  0  0
   59.3543   29.4837   52.6517 H   0  0  0  0  0  0  0  0  0  0  0  0
   60.5520   30.9150   51.3570 H   0  0  0  0  0  0  0  0  0  0  0  0
   61.5244   29.1271   49.3404 H   0  0  0  0  0  0  0  0  0  0  0  0
   60.2636   30.4542   49.3008 H   0  0  0  0  0  0  0  0  0  0  0  0
   63.2388   30.6283   48.7742 H   0  0  0  0  0  0  0  0  0  0  0  0
   61.8506   31.2040   47.7775 H   0  0  0  0  0  0  0  0  0  0  0  0
   61.3448   34.4890   46.0105 H   0  0  0  0  0  0  0  0  0  0  0  0
   57.7797   35.0228   45.2228 H   0  0  0  0  0  0  0  0  0  0  0  0
   59.3800   34.7788   44.4399 H   0  0  0  0  0  0  0  0  0  0  0  0
   58.4207   33.6558   42.4741 H   0  0  0  0  0  0  0  0  0  0  0  0
   57.6845   31.4677   41.5268 H   0  0  0  0  0  0  0  0  0  0  0  0
   57.0260   29.6007   43.0497 H   0  0  0  0  0  0  0  0  0  0  0  0
   57.1077   29.9223   45.5249 H   0  0  0  0  0  0  0  0  0  0  0  0
   57.8416   32.1068   46.4789 H   0  0  0  0  0  0  0  0  0  0  0  0
   58.0362   31.2638   49.1175 H   0  0  0  0  0  0  0  0  0  0  0  0
   57.4043   30.4831   51.4003 H   0  0  0  0  0  0  0  0  0  0  0  0
   59.2868   33.9754   53.1234 H   0  0  0  0  0  0  0  0  0  0  0  0
   59.9113   34.7682   50.8423 H   0  0  0  0  0  0  0  0  0  0  0  0
   63.5950   32.9381   51.0171 H   0  0  0  0  0  0  0  0  0  0  0  0
   61.8235   33.1028   51.3410 H   0  0  0  0  0  0  0  0  0  0  0  0
   63.4651   30.5065   51.2149 H   0  0  0  0  0  0  0  0  0  0  0  0
   62.3489   30.2993   53.5345 H   0  0  0  0  0  0  0  0  0  0  0  0
   63.6514   31.5246   53.3650 H   0  0  0  0  0  0  0  0  0  0  0  0
   61.9300   32.0379   53.3650 H   0  0  0  0  0  0  0  0  0  0  0  0
   63.1506   28.2715   50.9425 H   0  0  0  0  0  0  0  0  0  0  0  0
  1  2  1  0
  2  3  2  0
  3  4  1  0
  4  5  2  0
  5  6  1  0
  6  7  1  0
  7  8  1  0
  8  9  1  0
  9 10  1  0
 10 11  1  0
 11 12  2  0
 11 13  1  0
 13 14  2  0
 14 15  1  0
 15 16  1  0
 16 17  1  0
 17 18  2  0
 18 19  1  0
 19 20  2  0
 20 21  1  0
 21 22  2  0
 15 23  1  0
 23 24  2  0
 24 25  1  0
 25 26  2  0
 26 27  1  0
 27 28  2  0
 28 29  1  0
 28 30  1  0
 30 31  2  0
 10 32  1  0
 32 33  1  0
 33 34  1  0
  6 35  2  0
 35  2  1  0
 33  7  1  0
 24 13  1  0
 31 25  1  0
 22 17  1  0
  1 36  1  0
  1 37  1  0
  1 38  1  0
  3 39  1  0
  4 40  1  0
  5 41  1  0
  7 42  1  1
  8 43  1  0
  8 44  1  0
  9 45  1  0
  9 46  1  0
 14 47  1  0
 16 48  1  0
 16 49  1  0
 18 50  1  0
 19 51  1  0
 20 52  1  0
 21 53  1  0
 22 54  1  0
 26 55  1  0
 27 56  1  0
 30 57  1  0
 31 58  1  0
 32 59  1  0
 32 60  1  0
 33 61  1  6
 34 62  1  0
 34 63  1  0
 34 64  1  0
 35 65  1  0
M  CHG  1   7   1
M  END
>  <UniqueID>  (3) 
3

>  <SMILES>  (3) 
Cc1cccc([N@@H+]2CCN(C(=O)c3cn(Cc4ccccc4)nc3-c3ccc(Cl)cc3)C[C@H]2C)c1

>  <Energy>  (3) 
114.9651765204817

>  <Genealogy>  (3) 
Cc1cccc([NH+]2CCN(C(=O)c3cn(Cc4ccccc4)nc3-c3ccc(Cl)cc3)CC2C)c1 (protonated)
Cc1cccc([N@@H+]2CCN(C(=O)c3cn(Cc4ccccc4)nc3-c3ccc(Cl)cc3)C[C@H]2C)c1 (chirality)
Cc1cccc([N@@H+]2CCN(C(=O)c3cn(Cc4ccccc4)nc3-c3ccc(Cl)cc3)C[C@H]2C)c1 (3D coordinates assigned)
Cc1cccc([N@@H+]2CCN(C(=O)c3cn(Cc4ccccc4)nc3-c3ccc(Cl)cc3)C[C@H]2C)c1 (nonaromatic ring conformer: 114.9651765204817 kcal/mol)

>  <smiles>  (3) 
Cc1cccc(N2CCN(C(=O)c3cn(Cc4ccccc4)nc3-c3ccc(Cl)cc3)CC2C)c1

>  <score_type>  (3) 
oracle

>  <origin>  (3) 
adg

>  <m_score__min__energy>  (3) 
-8.5800000000000001

>  <m_primary>  (3) 
energy

$$$$
3:0
     RDKit          3D

 55 58  0  0  0  0  0  0  0  0999 V2000
   55.9580   30.5790   44.5300 O   0  0  0  0  0  0  0  0  0  0  0  0
   57.0040   31.2330   44.7870 C   0  0  0  0  0  0  0  0  0  0  0  0
   58.3450   30.5820   44.6590 C   0  0  0  0  0  0  0  0  0  0  0  0
   58.3950   29.3630   45.4950 N   0  0  0  0  0  0  0  0  0  0  0  0
   57.8220   28.1990   45.0440 C   0  0  0  0  0  0  0  0  0  0  0  0
   57.2190   28.1880   43.9340 O   0  0  0  0  0  0  0  0  0  0  0  0
   57.8990   27.0430   45.7840 N   0  0  0  0  0  0  0  0  0  0  0  0
   57.2570   25.8070   45.2920 C   0  0  0  0  0  0  0  0  0  0  0  0
   55.8700   25.6820   45.8640 C   0  0  0  0  0  0  0  0  0  0  0  0
   55.1720   26.7200   46.0020 O   0  0  0  0  0  0  0  0  0  0  0  0
   55.3700   24.4410   46.3760 N   0  0  0  0  0  0  0  0  0  0  0  0
   55.8880   23.1380   46.0820 C   0  0  0  0  0  0  0  0  0  0  0  0
   56.4510   22.3830   47.1190 C   0  0  0  0  0  0  0  0  0  0  0  0
   56.9500   21.1010   46.8680 C   0  0  0  0  0  0  0  0  0  0  0  0
   56.8680   20.5580   45.5840 C   0  0  0  0  0  0  0  0  0  0  0  0
   56.2750   21.2900   44.5520 C   0  0  0  0  0  0  0  0  0  0  0  0
   55.7740   22.5730   44.7980 C   0  0  0  0  0  0  0  0  0  0  0  0
   55.1470   23.2420   43.7980 F   0  0  0  0  0  0  0  0  0  0  0  0
   58.5380   27.0430   46.9960 C   0  0  0  0  0  0  0  0  0  0  0  0
   58.5910   25.9880   47.6910 O   0  0  0  0  0  0  0  0  0  0  0  0
   59.1430   28.2110   47.4720 C   0  0  0  0  0  0  0  0  0  0  0  0
   59.8320   28.2550   48.6970 C   0  0  0  0  0  0  0  0  0  0  0  0
   60.4350   29.4400   49.1170 C   0  0  0  0  0  0  0  0  0  0  0  0
   60.3460   30.5730   48.3110 C   0  0  0  0  0  0  0  0  0  0  0  0
   59.6740   30.5180   47.1320 N   0  0  0  0  0  0  0  0  0  0  0  0
   59.0680   29.3780   46.6890 C   0  0  0  0  0  0  0  0  0  0  0  0
   56.9200   32.5860   45.2380 N   0  0  0  0  0  0  0  0  0  0  0  0
   58.0280   33.5270   45.1470 C   0  0  0  0  0  0  0  0  0  0  0  0
   58.1730   34.2960   46.4610 C   0  0  0  0  0  0  0  0  0  0  0  0
   59.5490   34.1260   47.0480 C   0  0  0  0  0  0  0  0  0  0  0  0
   59.7460   34.2180   48.4370 C   0  0  0  0  0  0  0  0  0  0  0  0
   61.0210   34.0300   48.9810 C   0  0  0  0  0  0  0  0  0  0  0  0
   62.1040   33.7450   48.1450 C   0  0  0  0  0  0  0  0  0  0  0  0
   61.9140   33.6410   46.7650 C   0  0  0  0  0  0  0  0  0  0  0  0
   60.6400   33.8270   46.2170 C   0  0  0  0  0  0  0  0  0  0  0  0
   58.5197   30.3104   43.6075 H   0  0  0  0  0  0  0  0  0  0  0  0
   59.1219   31.2841   44.9959 H   0  0  0  0  0  0  0  0  0  0  0  0
   57.1962   25.8407   44.1942 H   0  0  0  0  0  0  0  0  0  0  0  0
   57.8561   24.9399   45.6071 H   0  0  0  0  0  0  0  0  0  0  0  0
   56.5008   22.8005   48.1355 H   0  0  0  0  0  0  0  0  0  0  0  0
   57.4074   20.5200   47.6824 H   0  0  0  0  0  0  0  0  0  0  0  0
   57.2703   19.5538   45.3850 H   0  0  0  0  0  0  0  0  0  0  0  0
   56.2019   20.8565   43.5437 H   0  0  0  0  0  0  0  0  0  0  0  0
   59.8953   27.3538   49.3245 H   0  0  0  0  0  0  0  0  0  0  0  0
   60.9752   29.4799   50.0744 H   0  0  0  0  0  0  0  0  0  0  0  0
   60.8204   31.5128   48.6298 H   0  0  0  0  0  0  0  0  0  0  0  0
   58.9579   32.9757   44.9435 H   0  0  0  0  0  0  0  0  0  0  0  0
   57.8296   34.2394   44.3327 H   0  0  0  0  0  0  0  0  0  0  0  0
   57.9941   35.3647   46.2718 H   0  0  0  0  0  0  0  0  0  0  0  0
   57.4393   33.8983   47.1776 H   0  0  0  0  0  0  0  0  0  0  0  0
   58.8949   34.4385   49.0981 H   0  0  0  0  0  0  0  0  0  0  0  0
   61.1713   34.1066   50.0680 H   0  0  0  0  0  0  0  0  0  0  0  0
   63.1068   33.6025   48.5740 H   0  0  0  0  0  0  0  0  0  0  0  0
   62.7666   33.4127   46.1085 H   0  0  0  0  0  0  0  0  0  0  0  0
   60.4929   33.7385   45.1305 H   0  0  0  0  0  0  0  0  0  0  0  0
  1  2  2  0
  2  3  1  0
  3  4  1  0
  4  5  1  0
  5  6  2  0
  5  7  1  0
  7  8  1  0
  8  9  1  0
  9 10  2  0
  9 11  1  0
 11 12  1  0
 12 13  2  0
 13 14  1  0
 14 15  2  0
 15 16  1  0
 16 17  2  0
 17 18  1  0
  7 19  1  0
 19 20  2  0
 19 21  1  0
 21 22  2  0
 22 23  1  0
 23 24  2  0
 24 25  1  0
 25 26  2  0
  2 27  1  0
 27 28  1  0
 28 29  1  0
 29 30  1  0
 30 31  2  0
 31 32  1  0
 32 33  2  0
 33 34  1  0
 34 35  2  0
 26  4  1  0
 35 30  1  0
 17 12  1  0
 26 21  1  0
  3 36  1  0
  3 37  1  0
  8 38  1  0
  8 39  1  0
 13 40  1  0
 14 41  1  0
 15 42  1  0
 16 43  1  0
 22 44  1  0
 23 45  1  0
 24 46  1  0
 28 47  1  0
 28 48  1  0
 29 49  1  0
 29 50  1  0
 31 51  1  0
 32 52  1  0
 33 53  1  0
 34 54  1  0
 35 55  1  0
M  CHG  2  11  -1  27  -1
M  END
>  <UniqueID>  (4) 
4

>  <SMILES>  (4) 
O=C(Cn1c(=O)n(CC(=O)[N-]c2ccccc2F)c(=O)c2cccnc21)[N-]CCc1ccccc1

>  <Energy>  (4) 
70.43933052584183

>  <Genealogy>  (4) 
O=C(Cn1c(=O)n(CC(=O)[N-]c2ccccc2F)c(=O)c2cccnc21)[N-]CCc1ccccc1 (protonated)
O=C(Cn1c(=O)n(CC(=O)[N-]c2ccccc2F)c(=O)c2cccnc21)[N-]CCc1ccccc1 (3D coordinates assigned)
O=C(Cn1c(=O)n(CC(=O)[N-]c2ccccc2F)c(=O)c2cccnc21)[N-]CCc1ccccc1 (optimized conformer: 70.43933052584183 kcal/mol)

>  <smiles>  (4) 
O=C(Cn1c(=O)n(CC(=O)Nc2ccccc2F)c(=O)c2cccnc21)NCCc1ccccc1

>  <score_type>  (4) 
oracle

>  <origin>  (4) 
adg

>  <m_score__min__energy>  (4) 
-11.960000000000001

>  <m_primary>  (4) 
energy

$$$$
4:0
     RDKit          3D

 41 43  0  0  0  0  0  0  0  0999 V2000
   55.5260   28.1690   45.5320 H   0  0  0  0  0  0  0  0  0  0  0  0
   56.0600   28.8070   44.9010 N   0  0  0  0  0  0  0  0  0  0  0  0
   57.1310   29.4570   45.2420 C   0  0  0  0  0  0  0  0  0  0  0  0
   57.0200   30.7730   45.5580 N   0  0  0  0  0  0  0  0  0  0  0  0
   58.0790   31.5030   45.9890 C   0  0  0  0  0  0  0  0  0  0  0  0
   57.9562   32.5699   46.2269 H   0  0  0  0  0  0  0  0  0  0  0  0
   59.3310   30.8880   46.1290 C   0  0  0  0  0  0  0  0  0  0  0  0
   60.5210   31.6370   46.5990 C   0  0  0  0  0  0  0  0  0  0  0  0
   61.6290   30.9430   47.1200 C   0  0  0  0  0  0  0  0  0  0  0  0
   61.6044   29.8453   47.1859 H   0  0  0  0  0  0  0  0  0  0  0  0
   62.7600   31.6390   47.5540 C   0  0  0  0  0  0  0  0  0  0  0  0
   63.6250   31.0879   47.9515 H   0  0  0  0  0  0  0  0  0  0  0  0
   62.7940   33.0330   47.4840 C   0  0  0  0  0  0  0  0  0  0  0  0
   63.6869   33.5787   47.8229 H   0  0  0  0  0  0  0  0  0  0  0  0
   61.6950   33.7350   46.9840 C   0  0  0  0  0  0  0  0  0  0  0  0
   61.7203   34.8337   46.9364 H   0  0  0  0  0  0  0  0  0  0  0  0
   60.5630   33.0430   46.5440 C   0  0  0  0  0  0  0  0  0  0  0  0
   59.6995   33.6006   46.1523 H   0  0  0  0  0  0  0  0  0  0  0  0
   59.4510   29.5750   45.7980 N   0  0  0  0  0  0  0  0  0  0  0  0
   58.4000   28.8390   45.3450 C   0  0  0  0  0  0  0  0  0  0  0  0
   58.6430   27.4290   44.9900 C   0  0  0  0  0  0  0  0  0  0  0  0
   59.0710   27.1510   43.8390 O   0  0  0  0  0  0  0  0  0  0  0  0
   58.3370   26.3760   45.9130 N   0  0  0  0  0  0  0  0  0  0  0  0
   57.7990   26.6110   46.7780 H   0  0  0  0  0  0  0  0  0  0  0  0
   58.8200   25.0090   45.7020 C   0  0  0  0  0  0  0  0  0  0  0  0
   59.7241   25.0387   45.0761 H   0  0  0  0  0  0  0  0  0  0  0  0
   59.0459   24.5602   46.6805 H   0  0  0  0  0  0  0  0  0  0  0  0
   57.7680   24.1670   45.0140 C   0  0  0  0  0  0  0  0  0  0  0  0
   58.1960   23.1660   44.1210 C   0  0  0  0  0  0  0  0  0  0  0  0
   59.2686   23.0525   43.9052 H   0  0  0  0  0  0  0  0  0  0  0  0
   57.2760   22.3170   43.5070 C   0  0  0  0  0  0  0  0  0  0  0  0
   57.6254   21.5426   42.8083 H   0  0  0  0  0  0  0  0  0  0  0  0
   55.9170   22.4470   43.7760 C   0  0  0  0  0  0  0  0  0  0  0  0
   55.1926   21.7859   43.2778 H   0  0  0  0  0  0  0  0  0  0  0  0
   55.4720   23.4150   44.6770 C   0  0  0  0  0  0  0  0  0  0  0  0
   54.3976   23.4976   44.8978 H   0  0  0  0  0  0  0  0  0  0  0  0
   56.3790   24.2870   45.3070 C   0  0  0  0  0  0  0  0  0  0  0  0
   55.8430   25.2560   46.2920 C   0  0  0  0  0  0  0  0  0  0  0  0
   56.2430   25.2570   47.4880 O   0  0  0  0  0  0  0  0  0  0  0  0
   54.8560   26.2000   45.8850 N   0  0  0  0  0  0  0  0  0  0  0  0
   54.7420   27.1080   46.3870 H   0  0  0  0  0  0  0  0  0  0  0  0
  1  2  1  0
  2  3  2  0
  3  4  1  0
  4  5  1  0
  5  6  1  0
  5  7  2  0
  7  8  1  0
  8  9  2  0
  9 10  1  0
  9 11  1  0
 11 12  1  0
 11 13  2  0
 13 14  1  0
 13 15  1  0
 15 16  1  0
 15 17  2  0
 17 18  1  0
  7 19  1  0
 19 20  2  0
 20 21  1  0
 21 22  2  0
 21 23  1  0
 23 24  1  0
 23 25  1  0
 25 26  1  0
 25 27  1  0
 25 28  1  0
 28 29  2  0
 29 30  1  0
 29 31  1  0
 31 32  1  0
 31 33  2  0
 33 34  1  0
 33 35  1  0
 35 36  1  0
 35 37  2  0
 37 38  1  0
 38 39  2  0
 38 40  1  0
 40 41  1  0
 20  3  1  0
 37 28  1  0
 17  8  1  0
M  CHG  2   4  -1  40  -1
M  END
>  <UniqueID>  (5) 
5

>  <SMILES>  (5) 
[H]/N=c1/[n-]cc(-c2ccccc2)nc1C(=O)NCc1ccccc1C([NH-])=O

>  <Energy>  (5) 
60.16225029241478

>  <Genealogy>  (5) 
N=c1[n-]cc(-c2ccccc2)nc1C(=O)NCc1ccccc1C([NH-])=O (protonated)
[H]/N=c1/[n-]cc(-c2ccccc2)nc1C(=O)NCc1ccccc1C([NH-])=O (cis-trans isomerization)
[H]/N=c1/[n-]cc(-c2ccccc2)nc1C(=O)NCc1ccccc1C([NH-])=O (3D coordinates assigned)
[H]/N=c1/[n-]cc(-c2ccccc2)nc1C(=O)NCc1ccccc1C([NH-])=O (optimized conformer: 60.16225029241478 kcal/mol)

>  <smiles>  (5) 
N=c1[nH]cc(-c2ccccc2)nc1C(=O)NCc1ccccc1C(N)=O

>  <score_type>  (5) 
oracle

>  <origin>  (5) 
adg

>  <m_score__min__energy>  (5) 
-13.710000000000001

>  <m_primary>  (5) 
energy

$$$$
5:0
     RDKit          3D

 52 54  0  0  0  0  0  0  0  0999 V2000
   62.4730   33.8600   48.5760 C   0  0  0  0  0  0  0  0  0  0  0  0
   61.1500   34.3040   49.1980 C   0  0  0  0  0  0  0  0  0  0  0  0
   59.9580   33.8670   48.4420 N   0  0  0  0  0  0  0  0  0  0  0  0
   59.9350   32.4600   48.0000 C   0  0  0  0  0  0  0  0  0  0  0  0
   60.2940   32.2860   46.5170 C   0  0  0  0  0  0  0  0  0  0  0  0
   59.5610   33.2080   45.6360 N   0  0  0  0  0  0  0  0  0  0  0  0
   57.8880   32.7550   45.3890 S   0  0  0  0  0  0  0  0  0  0  0  0
   57.0140   33.2510   46.5070 O   0  0  0  0  0  0  0  0  0  0  0  0
   57.3910   33.3530   44.1010 O   0  0  0  0  0  0  0  0  0  0  0  0
   57.7580   31.0020   45.2740 C   0  0  0  0  0  0  0  0  0  0  0  0
   58.2210   30.1980   46.3230 C   0  0  0  0  0  0  0  0  0  0  0  0
   58.1050   28.8070   46.2500 C   0  0  0  0  0  0  0  0  0  0  0  0
   57.5070   28.2020   45.1290 C   0  0  0  0  0  0  0  0  0  0  0  0
   57.3990   26.7730   45.0170 N   0  0  0  0  0  0  0  0  0  0  0  0
   58.2970   25.8480   45.6490 C   0  0  0  0  0  0  0  0  0  0  0  0
   59.0090   26.2130   46.6240 O   0  0  0  0  0  0  0  0  0  0  0  0
   58.3380   24.4180   45.2040 C   0  0  0  0  0  0  0  0  0  0  0  0
   57.0960   24.0590   44.5140 N   0  0  0  0  0  0  0  0  0  0  0  0
   57.0310   23.2960   43.4030 C   0  0  0  0  0  0  0  0  0  0  0  0
   55.7150   23.0850   43.0430 C   0  0  0  0  0  0  0  0  0  0  0  0
   54.9380   23.7410   43.9750 C   0  0  0  0  0  0  0  0  0  0  0  0
   55.8150   24.3300   44.8690 C   0  0  0  0  0  0  0  0  0  0  0  0
   55.4060   25.0970   46.0140 N   0  0  0  0  0  0  0  0  0  0  0  0
   55.5500   24.6240   47.1610 O   0  0  0  0  0  0  0  0  0  0  0  0
   54.8130   26.3290   45.8790 O   0  0  0  0  0  0  0  0  0  0  0  0
   57.0610   29.0110   44.0740 C   0  0  0  0  0  0  0  0  0  0  0  0
   57.1760   30.4030   44.1490 C   0  0  0  0  0  0  0  0  0  0  0  0
   59.7230   34.6110   46.0480 C   0  0  0  0  0  0  0  0  0  0  0  0
   59.3610   34.8540   47.5220 C   0  0  0  0  0  0  0  0  0  0  0  0
   63.1908   33.6191   49.3740 H   0  0  0  0  0  0  0  0  0  0  0  0
   62.3046   32.9691   47.9531 H   0  0  0  0  0  0  0  0  0  0  0  0
   62.8761   34.6721   47.9531 H   0  0  0  0  0  0  0  0  0  0  0  0
   61.0878   33.8876   50.2142 H   0  0  0  0  0  0  0  0  0  0  0  0
   61.1470   35.4040   49.1922 H   0  0  0  0  0  0  0  0  0  0  0  0
   60.6581   31.8920   48.6038 H   0  0  0  0  0  0  0  0  0  0  0  0
   58.9068   32.0923   48.1328 H   0  0  0  0  0  0  0  0  0  0  0  0
   61.3721   32.4663   46.3939 H   0  0  0  0  0  0  0  0  0  0  0  0
   60.0132   31.2623   46.2285 H   0  0  0  0  0  0  0  0  0  0  0  0
   58.6782   30.6634   47.2087 H   0  0  0  0  0  0  0  0  0  0  0  0
   58.4829   28.1823   47.0727 H   0  0  0  0  0  0  0  0  0  0  0  0
   56.5880   26.3800   44.4890 H   0  0  0  0  0  0  0  0  0  0  0  0
   59.1867   24.2764   44.5187 H   0  0  0  0  0  0  0  0  0  0  0  0
   58.4527   23.7736   46.0881 H   0  0  0  0  0  0  0  0  0  0  0  0
   57.9022   22.8988   42.8614 H   0  0  0  0  0  0  0  0  0  0  0  0
   55.3555   22.5057   42.1798 H   0  0  0  0  0  0  0  0  0  0  0  0
   53.8393   23.7869   44.0022 H   0  0  0  0  0  0  0  0  0  0  0  0
   56.6173   28.5474   43.1806 H   0  0  0  0  0  0  0  0  0  0  0  0
   56.8085   31.0291   43.3226 H   0  0  0  0  0  0  0  0  0  0  0  0
   60.7724   34.9021   45.8930 H   0  0  0  0  0  0  0  0  0  0  0  0
   59.0333   35.2129   45.4381 H   0  0  0  0  0  0  0  0  0  0  0  0
   59.7150   35.8556   47.8075 H   0  0  0  0  0  0  0  0  0  0  0  0
   58.2685   34.7592   47.6081 H   0  0  0  0  0  0  0  0  0  0  0  0
  1  2  1  0
  2  3  1  0
  3  4  1  0
  4  5  1  0
  5  6  1  0
  6  7  1  0
  7  8  2  0
  7  9  2  0
  7 10  1  0
 10 11  2  0
 11 12  1  0
 12 13  2  0
 13 14  1  0
 14 15  1  0
 15 16  2  0
 15 17  1  0
 17 18  1  0
 18 19  1  0
 19 20  2  0
 20 21  1  0
 21 22  2  0
 22 23  1  0
 23 24  2  0
 23 25  1  0
 13 26  1  0
 26 27  2  0
  6 28  1  0
 28 29  1  0
 29  3  1  0
 27 10  1  0
 22 18  1  0
  1 30  1  0
  1 31  1  0
  1 32  1  0
  2 33  1  0
  2 34  1  0
  4 35  1  0
  4 36  1  0
  5 37  1  0
  5 38  1  0
 11 39  1  0
 12 40  1  0
 14 41  1  0
 17 42  1  0
 17 43  1  0
 19 44  1  0
 20 45  1  0
 21 46  1  0
 26 47  1  0
 27 48  1  0
 28 49  1  0
 28 50  1  0
 29 51  1  0
 29 52  1  0
M  CHG  2  23   1  25  -1
M  END
>  <UniqueID>  (6) 
6

>  <SMILES>  (6) 
CCN1CCN(S(=O)(=O)c2ccc(NC(=O)Cn3cccc3[N+](=O)[O-])cc2)CC1

>  <Energy>  (6) 
93.85060485299564

>  <Genealogy>  (6) 
CCN1CCN(S(=O)(=O)c2ccc(NC(=O)Cn3cccc3[N+](=O)[O-])cc2)CC1 (3D coordinates assigned)
CCN1CCN(S(=O)(=O)c2ccc(NC(=O)Cn3cccc3[N+](=O)[O-])cc2)CC1 (nonaromatic ring conformer: 93.85060485299564 kcal/mol)

>  <smiles>  (6) 
CCN1CCN(S(=O)(=O)c2ccc(NC(=O)Cn3cccc3[N+](=O)[O-])cc2)CC1

>  <score_type>  (6) 
oracle

>  <origin>  (6) 
adg

>  <m_score__min__energy>  (6) 
-9.8800000000000008

>  <m_primary>  (6) 
energy

$$$$
6:0
     RDKit          3D

 60 62  0  0  0  0  0  0  0  0999 V2000
   55.9040   29.9410   44.0760 C   0  0  0  0  0  0  0  0  0  0  0  0
   57.0460   30.8090   43.5390 C   0  0  0  0  0  0  0  0  0  0  0  0
   57.5900   31.7440   44.6350 C   0  0  0  0  0  0  0  0  0  0  0  0
   57.8830   33.1680   44.1160 C   0  0  0  0  0  0  0  0  0  0  0  0
   57.8920   34.2560   45.2060 C   0  0  0  0  0  0  0  0  0  0  0  0
   59.0640   34.1130   46.1430 C   0  0  0  0  0  0  0  0  0  0  0  0
   58.8890   34.2990   47.5230 C   0  0  0  0  0  0  0  0  0  0  0  0
   59.9840   34.2340   48.3870 C   0  0  0  0  0  0  0  0  0  0  0  0
   61.2760   33.9940   47.8860 C   0  0  0  0  0  0  0  0  0  0  0  0
   62.4470   33.9930   48.7910 C   0  0  0  0  0  0  0  0  0  0  0  0
   62.6350   34.9660   49.5710 O   0  0  0  0  0  0  0  0  0  0  0  0
   63.3730   32.8970   48.7920 N   0  0  0  0  0  0  0  0  0  0  0  0
   64.1930   32.5840   49.9300 C   0  0  0  0  0  0  0  0  0  0  0  0
   65.5770   32.4430   49.7530 C   0  0  0  0  0  0  0  0  0  0  0  0
   66.4020   32.1380   50.8380 C   0  0  0  0  0  0  0  0  0  0  0  0
   65.8480   31.9430   52.1030 C   0  0  0  0  0  0  0  0  0  0  0  0
   64.4670   32.0490   52.2890 C   0  0  0  0  0  0  0  0  0  0  0  0
   63.6280   32.3810   51.2130 C   0  0  0  0  0  0  0  0  0  0  0  0
   62.1590   32.3940   51.4080 C   0  0  0  0  0  0  0  0  0  0  0  0
   61.6740   33.2330   52.2230 O   0  0  0  0  0  0  0  0  0  0  0  0
   61.2880   31.4550   50.7340 N   0  0  0  0  0  0  0  0  0  0  0  0
   61.8530   30.2950   50.0220 C   0  0  0  0  0  0  0  0  0  0  0  0
   60.7460   29.3870   49.4680 C   0  0  0  0  0  0  0  0  0  0  0  0
   59.6610   30.1680   48.8410 N   0  0  0  0  0  0  0  0  0  0  0  0
   60.1040   30.8240   47.5950 C   0  0  0  0  0  0  0  0  0  0  0  0
   59.0160   31.1310   49.7710 C   0  0  0  0  0  0  0  0  0  0  0  0
   59.8470   31.4590   51.0290 C   0  0  0  0  0  0  0  0  0  0  0  0
   61.4470   33.8100   46.5030 C   0  0  0  0  0  0  0  0  0  0  0  0
   60.3500   33.8600   45.6400 C   0  0  0  0  0  0  0  0  0  0  0  0
   55.9201   29.9532   45.1758 H   0  0  0  0  0  0  0  0  0  0  0  0
   54.9424   30.3382   43.7189 H   0  0  0  0  0  0  0  0  0  0  0  0
   56.0294   28.9081   43.7189 H   0  0  0  0  0  0  0  0  0  0  0  0
   57.8586   30.1568   43.1865 H   0  0  0  0  0  0  0  0  0  0  0  0
   56.6602   31.4243   42.7128 H   0  0  0  0  0  0  0  0  0  0  0  0
   56.8452   31.8104   45.4417 H   0  0  0  0  0  0  0  0  0  0  0  0
   58.5404   31.3193   44.9906 H   0  0  0  0  0  0  0  0  0  0  0  0
   58.8699   33.1603   43.6302 H   0  0  0  0  0  0  0  0  0  0  0  0
   57.0656   33.4236   43.4257 H   0  0  0  0  0  0  0  0  0  0  0  0
   57.9438   35.2423   44.7217 H   0  0  0  0  0  0  0  0  0  0  0  0
   56.9711   34.1488   45.7980 H   0  0  0  0  0  0  0  0  0  0  0  0
   57.8847   34.4969   47.9258 H   0  0  0  0  0  0  0  0  0  0  0  0
   59.8349   34.3716   49.4681 H   0  0  0  0  0  0  0  0  0  0  0  0
   63.5850   32.4310   47.8810 H   0  0  0  0  0  0  0  0  0  0  0  0
   66.0159   32.5735   48.7528 H   0  0  0  0  0  0  0  0  0  0  0  0
   67.4892   32.0516   50.6947 H   0  0  0  0  0  0  0  0  0  0  0  0
   66.4998   31.7051   52.9566 H   0  0  0  0  0  0  0  0  0  0  0  0
   64.0344   31.8712   53.2846 H   0  0  0  0  0  0  0  0  0  0  0  0
   62.4730   30.6541   49.1874 H   0  0  0  0  0  0  0  0  0  0  0  0
   62.4570   29.7119   50.7328 H   0  0  0  0  0  0  0  0  0  0  0  0
   61.1811   28.7133   48.7151 H   0  0  0  0  0  0  0  0  0  0  0  0
   60.3181   28.8178   50.3064 H   0  0  0  0  0  0  0  0  0  0  0  0
   60.7039   31.7124   47.8416 H   0  0  0  0  0  0  0  0  0  0  0  0
   60.7134   30.1216   47.0074 H   0  0  0  0  0  0  0  0  0  0  0  0
   59.2248   31.1269   47.0074 H   0  0  0  0  0  0  0  0  0  0  0  0
   58.8354   32.0683   49.2244 H   0  0  0  0  0  0  0  0  0  0  0  0
   58.0897   30.6536   50.1233 H   0  0  0  0  0  0  0  0  0  0  0  0
   59.5597   32.4544   51.3986 H   0  0  0  0  0  0  0  0  0  0  0  0
   59.6460   30.6888   51.7882 H   0  0  0  0  0  0  0  0  0  0  0  0
   62.4526   33.6252   46.0973 H   0  0  0  0  0  0  0  0  0  0  0  0
   60.4943   33.7004   44.5612 H   0  0  0  0  0  0  0  0  0  0  0  0
  1  2  1  0
  2  3  1  0
  3  4  1  0
  4  5  1  0
  5  6  1  0
  6  7  2  0
  7  8  1  0
  8  9  2  0
  9 10  1  0
 10 11  2  0
 10 12  1  0
 12 13  1  0
 13 14  2  0
 14 15  1  0
 15 16  2  0
 16 17  1  0
 17 18  2  0
 18 19  1  0
 19 20  2  0
 19 21  1  0
 21 22  1  0
 22 23  1  0
 23 24  1  0
 24 25  1  0
 24 26  1  0
 26 27  1  0
  9 28  1  0
 28 29  2  0
 29  6  1  0
 18 13  1  0
 27 21  1  0
  1 30  1  0
  1 31  1  0
  1 32  1  0
  2 33  1  0
  2 34  1  0
  3 35  1  0
  3 36  1  0
  4 37  1  0
  4 38  1  0
  5 39  1  0
  5 40  1  0
  7 41  1  0
  8 42  1  0
 12 43  1  0
 14 44  1  0
 15 45  1  0
 16 46  1  0
 17 47  1  0
 22 48  1  0
 22 49  1  0
 23 50  1  0
 23 51  1  0
 25 52  1  0
 25 53  1  0
 25 54  1  0
 26 55  1  0
 26 56  1  0
 27 57  1  0
 27 58  1  0
 28 59  1  0
 29 60  1  0
M  END
>  <UniqueID>  (7) 
7

>  <SMILES>  (7) 
CCCCCc1ccc(C(=O)Nc2ccccc2C(=O)N2CCN(C)CC2)cc1

>  <Energy>  (7) 
73.45204891160324

>  <Genealogy>  (7) 
CCCCCc1ccc(C(=O)Nc2ccccc2C(=O)N2CCN(C)CC2)cc1 (3D coordinates assigned)
CCCCCc1ccc(C(=O)Nc2ccccc2C(=O)N2CCN(C)CC2)cc1 (nonaromatic ring conformer: 73.45204891160324 kcal/mol)

>  <smiles>  (7) 
CCCCCc1ccc(C(=O)Nc2ccccc2C(=O)N2CCN(C)CC2)cc1

>  <score_type>  (7) 
oracle

>  <origin>  (7) 
adg

>  <m_score__min__energy>  (7) 
-8.1400000000000006

>  <m_primary>  (7) 
energy

$$$$
7:0
     RDKit          3D

 55 58  0  0  0  0  0  0  0  0999 V2000
   54.7740   27.1140   45.0130 H   0  0  0  0  0  0  0  0  0  0  0  0
   55.1370   26.6800   45.8550 O   0  0  0  0  0  0  0  0  0  0  0  0
   56.5000   26.4570   46.0390 C   0  0  0  0  0  0  0  0  0  0  0  0
   56.9160   25.5260   47.0020 C   0  0  0  0  0  0  0  0  0  0  0  0
   56.1696   25.0198   47.6319 H   0  0  0  0  0  0  0  0  0  0  0  0
   58.2690   25.2390   47.1650 C   0  0  0  0  0  0  0  0  0  0  0  0
   58.5963   24.5110   47.9219 H   0  0  0  0  0  0  0  0  0  0  0  0
   59.2030   25.8850   46.3580 C   0  0  0  0  0  0  0  0  0  0  0  0
   60.2737   25.6570   46.4661 H   0  0  0  0  0  0  0  0  0  0  0  0
   58.7930   26.7960   45.4380 N   0  0  0  0  0  0  0  0  0  0  0  0
   57.4830   27.1210   45.2590 C   0  0  0  0  0  0  0  0  0  0  0  0
   57.2010   28.0240   44.3580 N   0  0  0  0  0  0  0  0  0  0  0  0
   56.4710   29.2470   44.5260 C   0  0  0  0  0  0  0  0  0  0  0  0
   55.2660   29.1850   44.8920 O   0  0  0  0  0  0  0  0  0  0  0  0
   57.0760   30.5630   44.1960 C   0  0  0  0  0  0  0  0  0  0  0  0
   57.3060   30.9210   42.8560 C   0  0  0  0  0  0  0  0  0  0  0  0
   57.0457   30.2187   42.0504 H   0  0  0  0  0  0  0  0  0  0  0  0
   57.8630   32.1630   42.5410 C   0  0  0  0  0  0  0  0  0  0  0  0
   58.0348   32.4362   41.4894 H   0  0  0  0  0  0  0  0  0  0  0  0
   58.2020   33.0580   43.5570 C   0  0  0  0  0  0  0  0  0  0  0  0
   58.6330   34.0378   43.3037 H   0  0  0  0  0  0  0  0  0  0  0  0
   57.9950   32.7120   44.8970 C   0  0  0  0  0  0  0  0  0  0  0  0
   58.4510   33.8320   46.1800 S   0  0  0  0  0  0  0  0  0  0  0  0
   57.3770   33.8530   47.2320 O   0  0  0  0  0  0  0  0  0  0  0  0
   58.5700   35.2140   45.5970 O   0  0  0  0  0  0  0  0  0  0  0  0
   59.9790   33.3520   46.8790 N   0  0  0  0  0  0  0  0  0  0  0  0
   60.1010   33.8910   48.2390 C   0  0  0  0  0  0  0  0  0  0  0  0
   60.1583   34.9884   48.1890 H   0  0  0  0  0  0  0  0  0  0  0  0
   59.2216   33.5816   48.8229 H   0  0  0  0  0  0  0  0  0  0  0  0
   61.3660   33.3500   48.9250 C   0  0  0  0  0  0  0  0  0  0  0  0
   61.7916   34.1479   49.5513 H   0  0  0  0  0  0  0  0  0  0  0  0
   61.0651   32.4733   49.5173 H   0  0  0  0  0  0  0  0  0  0  0  0
   62.4020   32.8990   47.9720 N   0  0  0  0  0  0  0  0  0  0  0  0
   62.5670   31.4330   47.8470 C   0  0  0  0  0  0  0  0  0  0  0  0
   63.1489   31.2260   46.9367 H   0  0  0  0  0  0  0  0  0  0  0  0
   63.0758   31.0892   48.7597 H   0  0  0  0  0  0  0  0  0  0  0  0
   61.2620   30.6770   47.7600 C   0  0  0  0  0  0  0  0  0  0  0  0
   60.5420   30.3570   48.9250 C   0  0  0  0  0  0  0  0  0  0  0  0
   60.9266   30.6653   49.9084 H   0  0  0  0  0  0  0  0  0  0  0  0
   59.3400   29.6490   48.8390 C   0  0  0  0  0  0  0  0  0  0  0  0
   58.7804   29.4039   49.7538 H   0  0  0  0  0  0  0  0  0  0  0  0
   58.8480   29.2520   47.5930 C   0  0  0  0  0  0  0  0  0  0  0  0
   57.9030   28.6929   47.5277 H   0  0  0  0  0  0  0  0  0  0  0  0
   59.5560   29.5650   46.4300 C   0  0  0  0  0  0  0  0  0  0  0  0
   59.1644   29.2582   45.4489 H   0  0  0  0  0  0  0  0  0  0  0  0
   60.7620   30.2680   46.5120 C   0  0  0  0  0  0  0  0  0  0  0  0
   61.3223   30.5021   45.5948 H   0  0  0  0  0  0  0  0  0  0  0  0
   62.4600   33.6580   46.7070 C   0  0  0  0  0  0  0  0  0  0  0  0
   62.8868   34.6501   46.9156 H   0  0  0  0  0  0  0  0  0  0  0  0
   63.0790   33.0757   46.0086 H   0  0  0  0  0  0  0  0  0  0  0  0
   61.0800   33.8500   46.0390 C   0  0  0  0  0  0  0  0  0  0  0  0
   60.9242   34.9225   45.8508 H   0  0  0  0  0  0  0  0  0  0  0  0
   61.0762   33.2732   45.1024 H   0  0  0  0  0  0  0  0  0  0  0  0
   57.4310   31.4690   45.2140 C   0  0  0  0  0  0  0  0  0  0  0  0
   57.2641   31.1986   46.2671 H   0  0  0  0  0  0  0  0  0  0  0  0
  1  2  1  0
  2  3  1  0
  3  4  2  0
  4  5  1  0
  4  6  1  0
  6  7  1  0
  6  8  2  0
  8  9  1  0
  8 10  1  0
 10 11  1  0
 11 12  2  0
 12 13  1  0
 13 14  2  0
 13 15  1  0
 15 16  2  0
 16 17  1  0
 16 18  1  0
 18 19  1  0
 18 20  2  0
 20 21  1  0
 20 22  1  0
 22 23  1  0
 23 24  2  0
 23 25  2  0
 23 26  1  0
 26 27  1  0
 27 28  1  0
 27 29  1  0
 27 30  1  0
 30 31  1  0
 30 32  1  0
 30 33  1  0
 33 34  1  0
 34 35  1  0
 34 36  1  0
 34 37  1  0
 37 38  2  0
 38 39  1  0
 38 40  1  0
 40 41  1  0
 40 42  2  0
 42 43  1  0
 42 44  1  0
 44 45  1  0
 44 46  2  0
 46 47  1  0
 33 48  1  0
 48 49  1  0
 48 50  1  0
 48 51  1  0
 51 52  1  0
 51 53  1  0
 22 54  2  0
 54 55  1  0
 11  3  1  0
 54 15  1  0
 51 26  1  0
 46 37  1  0
M  CHG  1  10  -1
M  END
>  <UniqueID>  (8) 
8

>  <SMILES>  (8) 
O=C(/N=c1/[n-]cccc1O)c1cccc(S(=O)(=O)N2CCN(Cc3ccccc3)CC2)c1

>  <Energy>  (8) 
81.93781882738655

>  <Genealogy>  (8) 
O=C(N=c1[n-]cccc1O)c1cccc(S(=O)(=O)N2CCN(Cc3ccccc3)CC2)c1 (protonated)
O=C(/N=c1/[n-]cccc1O)c1cccc(S(=O)(=O)N2CCN(Cc3ccccc3)CC2)c1 (cis-trans isomerization)
O=C(/N=c1/[n-]cccc1O)c1cccc(S(=O)(=O)N2CCN(Cc3ccccc3)CC2)c1 (3D coordinates assigned)
O=C(/N=c1/[n-]cccc1O)c1cccc(S(=O)(=O)N2CCN(Cc3ccccc3)CC2)c1 (nonaromatic ring conformer: 81.93781882738655 kcal/mol)

>  <smiles>  (8) 
O=C(N=c1[nH]cccc1O)c1cccc(S(=O)(=O)N2CCN(Cc3ccccc3)CC2)c1

>  <score_type>  (8) 
oracle

>  <origin>  (8) 
adg

>  <m_score__min__energy>  (8) 
-12.59

>  <m_primary>  (8) 
energy

$$$$
8:0
     RDKit          3D

 54 57  0  0  0  0  0  0  0  0999 V2000
   55.2480   29.2850   44.9600 O   0  0  0  0  0  0  0  0  0  0  0  0
   56.3760   29.6670   44.5530 C   0  0  0  0  0  0  0  0  0  0  0  0
   57.4290   28.6360   44.2390 C   0  0  0  0  0  0  0  0  0  0  0  0
   57.8070   27.8520   45.4610 C   0  0  0  0  0  0  0  0  0  0  0  0
   59.3460   27.7880   46.1450 S   0  0  0  0  0  0  0  0  0  0  0  0
   58.8420   26.7820   47.3930 C   0  0  0  0  0  0  0  0  0  0  0  0
   59.5950   26.3480   48.3030 O   0  0  0  0  0  0  0  0  0  0  0  0
   57.5270   26.4810   47.3190 N   0  0  0  0  0  0  0  0  0  0  0  0
   56.9500   27.0790   46.2430 C   0  0  0  0  0  0  0  0  0  0  0  0
   55.6000   26.9200   45.9520 O   0  0  0  0  0  0  0  0  0  0  0  0
   56.5620   31.0570   44.2570 N   0  0  0  0  0  0  0  0  0  0  0  0
   57.2590   32.0170   45.0620 C   0  0  0  0  0  0  0  0  0  0  0  0
   56.7620   33.3170   45.2440 C   0  0  0  0  0  0  0  0  0  0  0  0
   57.4800   34.2460   46.0010 C   0  0  0  0  0  0  0  0  0  0  0  0
   58.7100   33.8950   46.5620 C   0  0  0  0  0  0  0  0  0  0  0  0
   59.4120   34.8240   47.2610 F   0  0  0  0  0  0  0  0  0  0  0  0
   59.2340   32.6060   46.3610 C   0  0  0  0  0  0  0  0  0  0  0  0
   60.5190   32.2490   46.9000 N   0  0  0  0  0  0  0  0  0  0  0  0
   60.8280   30.8520   47.2190 C   0  0  0  0  0  0  0  0  0  0  0  0
   61.4680   30.7720   48.6060 C   0  0  0  0  0  0  0  0  0  0  0  0
   62.5680   31.7400   48.7490 N   0  0  0  0  0  0  0  0  0  0  0  0
   63.4320   31.6280   49.8980 C   0  0  0  0  0  0  0  0  0  0  0  0
   62.9550   31.2340   50.9980 O   0  0  0  0  0  0  0  0  0  0  0  0
   64.9130   31.8820   49.8070 C   0  0  0  0  0  0  0  0  0  0  0  0
   65.2900   33.0290   50.7040 C   0  0  0  0  0  0  0  0  0  0  0  0
   66.6410   33.3570   50.9130 C   0  0  0  0  0  0  0  0  0  0  0  0
   66.9840   34.4420   51.7280 C   0  0  0  0  0  0  0  0  0  0  0  0
   65.9840   35.2110   52.3290 C   0  0  0  0  0  0  0  0  0  0  0  0
   64.6390   34.8980   52.1150 C   0  0  0  0  0  0  0  0  0  0  0  0
   64.2900   33.8150   51.3030 C   0  0  0  0  0  0  0  0  0  0  0  0
   62.8290   32.7330   47.6970 C   0  0  0  0  0  0  0  0  0  0  0  0
   61.5160   33.3010   47.1400 C   0  0  0  0  0  0  0  0  0  0  0  0
   58.5060   31.6770   45.6000 C   0  0  0  0  0  0  0  0  0  0  0  0
   57.0382   27.9455   43.4771 H   0  0  0  0  0  0  0  0  0  0  0  0
   58.3250   29.1566   43.8700 H   0  0  0  0  0  0  0  0  0  0  0  0
   55.1460   27.5040   45.2570 H   0  0  0  0  0  0  0  0  0  0  0  0
   55.8031   33.6055   44.7887 H   0  0  0  0  0  0  0  0  0  0  0  0
   57.0754   35.2571   46.1557 H   0  0  0  0  0  0  0  0  0  0  0  0
   59.9007   30.2604   47.2090 H   0  0  0  0  0  0  0  0  0  0  0  0
   61.5277   30.4524   46.4702 H   0  0  0  0  0  0  0  0  0  0  0  0
   60.7022   30.9863   49.3660 H   0  0  0  0  0  0  0  0  0  0  0  0
   61.8789   29.7603   48.7388 H   0  0  0  0  0  0  0  0  0  0  0  0
   65.4581   30.9793   50.1201 H   0  0  0  0  0  0  0  0  0  0  0  0
   65.1751   32.1322   48.7684 H   0  0  0  0  0  0  0  0  0  0  0  0
   67.4308   32.7592   50.4346 H   0  0  0  0  0  0  0  0  0  0  0  0
   68.0425   34.6897   51.8957 H   0  0  0  0  0  0  0  0  0  0  0  0
   66.2554   36.0625   52.9703 H   0  0  0  0  0  0  0  0  0  0  0  0
   63.8527   35.5055   52.5868 H   0  0  0  0  0  0  0  0  0  0  0  0
   63.2297   33.5770   51.1322 H   0  0  0  0  0  0  0  0  0  0  0  0
   63.4267   33.5548   48.1181 H   0  0  0  0  0  0  0  0  0  0  0  0
   63.3740   32.2413   46.8778 H   0  0  0  0  0  0  0  0  0  0  0  0
   61.1055   34.0210   47.8632 H   0  0  0  0  0  0  0  0  0  0  0  0
   61.7368   33.7857   46.1775 H   0  0  0  0  0  0  0  0  0  0  0  0
   58.9194   30.6728   45.4250 H   0  0  0  0  0  0  0  0  0  0  0  0
  1  2  2  0
  2  3  1  0
  3  4  1  0
  4  5  1  0
  5  6  1  0
  6  7  2  0
  6  8  1  0
  8  9  1  0
  9 10  1  0
  2 11  1  0
 11 12  1  0
 12 13  2  0
 13 14  1  0
 14 15  2  0
 15 16  1  0
 15 17  1  0
 17 18  1  0
 18 19  1  0
 19 20  1  0
 20 21  1  0
 21 22  1  0
 22 23  2  0
 22 24  1  0
 24 25  1  0
 25 26  2  0
 26 27  1  0
 27 28  2  0
 28 29  1  0
 29 30  2  0
 21 31  1  0
 31 32  1  0
 17 33  2  0
  9  4  2  0
 33 12  1  0
 32 18  1  0
 30 25  1  0
  3 34  1  0
  3 35  1  0
 10 36  1  0
 13 37  1  0
 14 38  1  0
 19 39  1  0
 19 40  1  0
 20 41  1  0
 20 42  1  0
 24 43  1  0
 24 44  1  0
 26 45  1  0
 27 46  1  0
 28 47  1  0
 29 48  1  0
 30 49  1  0
 31 50  1  0
 31 51  1  0
 32 52  1  0
 32 53  1  0
 33 54  1  0
M  CHG  2   8  -1  11  -1
M  END
>  <UniqueID>  (9) 
9

>  <SMILES>  (9) 
O=C(Cc1sc(=O)[n-]c1O)[N-]c1ccc(F)c(N2CCN(C(=O)Cc3ccccc3)CC2)c1

>  <Energy>  (9) 
97.18845503162323

>  <Genealogy>  (9) 
O=C(Cc1sc(=O)[n-]c1O)[N-]c1ccc(F)c(N2CCN(C(=O)Cc3ccccc3)CC2)c1 (protonated)
O=C(Cc1sc(=O)[n-]c1O)[N-]c1ccc(F)c(N2CCN(C(=O)Cc3ccccc3)CC2)c1 (3D coordinates assigned)
O=C(Cc1sc(=O)[n-]c1O)[N-]c1ccc(F)c(N2CCN(C(=O)Cc3ccccc3)CC2)c1 (nonaromatic ring conformer: 97.18845503162323 kcal/mol)

>  <smiles>  (9) 
O=C(Cc1sc(=O)[nH]c1O)Nc1ccc(F)c(N2CCN(C(=O)Cc3ccccc3)CC2)c1

>  <score_type>  (9) 
oracle

>  <origin>  (9) 
adg

>  <m_score__min__energy>  (9) 
-13.31

>  <m_primary>  (9) 
energy

$$$$
9:0
     RDKit          3D

 56 58  0  0  0  0  0  0  0  0999 V2000
   54.7400   25.9660   46.4250 H   0  0  0  0  0  0  0  0  0  0  0  0
   55.4900   26.5640   46.0120 N   0  0  0  0  0  0  0  0  0  0  0  0
   56.5680   26.0630   45.4920 C   0  0  0  0  0  0  0  0  0  0  0  0
   57.5020   26.9060   44.7950 N   0  0  0  0  0  0  0  0  0  0  0  0
   58.1990   26.4460   44.1620 H   0  0  0  0  0  0  0  0  0  0  0  0
   57.4970   28.3420   44.8620 C   0  0  0  0  0  0  0  0  0  0  0  0
   58.4680   29.0420   45.6000 C   0  0  0  0  0  0  0  0  0  0  0  0
   59.2299   28.4868   46.1668 H   0  0  0  0  0  0  0  0  0  0  0  0
   58.4700   30.4390   45.6170 C   0  0  0  0  0  0  0  0  0  0  0  0
   59.2317   30.9776   46.1999 H   0  0  0  0  0  0  0  0  0  0  0  0
   57.5050   31.1600   44.8940 C   0  0  0  0  0  0  0  0  0  0  0  0
   57.5520   32.6640   44.8590 C   0  0  0  0  0  0  0  0  0  0  0  0
   56.5405   33.0646   45.0213 H   0  0  0  0  0  0  0  0  0  0  0  0
   57.9286   32.9922   43.8790 H   0  0  0  0  0  0  0  0  0  0  0  0
   58.4690   33.1720   45.9380 C   0  0  0  0  0  0  0  0  0  0  0  0
   58.1400   32.9900   47.2930 C   0  0  0  0  0  0  0  0  0  0  0  0
   57.2400   32.4196   47.5663 H   0  0  0  0  0  0  0  0  0  0  0  0
   58.9520   33.5310   48.2940 C   0  0  0  0  0  0  0  0  0  0  0  0
   58.7022   33.3658   49.3524 H   0  0  0  0  0  0  0  0  0  0  0  0
   60.0830   34.2830   47.9520 C   0  0  0  0  0  0  0  0  0  0  0  0
   60.8970   34.8420   48.9890 N   0  0  0  0  0  0  0  0  0  0  0  0
   61.6330   34.1700   49.8310 C   0  0  0  0  0  0  0  0  0  0  0  0
   61.0230   33.2320   50.8590 C   0  0  0  0  0  0  0  0  0  0  0  0
   60.9468   32.2243   50.4245 H   0  0  0  0  0  0  0  0  0  0  0  0
   60.0278   33.6135   51.1312 H   0  0  0  0  0  0  0  0  0  0  0  0
   61.8790   33.1660   52.1250 C   0  0  0  0  0  0  0  0  0  0  0  0
   61.4482   32.4223   52.8115 H   0  0  0  0  0  0  0  0  0  0  0  0
   61.8901   34.1622   52.5913 H   0  0  0  0  0  0  0  0  0  0  0  0
   63.3170   32.7680   51.7970 C   0  0  0  0  0  0  0  0  0  0  0  0
   63.3268   31.7566   51.3647 H   0  0  0  0  0  0  0  0  0  0  0  0
   63.9178   32.7820   52.7183 H   0  0  0  0  0  0  0  0  0  0  0  0
   63.8990   33.7390   50.8090 C   0  0  0  0  0  0  0  0  0  0  0  0
   65.0400   34.1480   50.9680 O   0  0  0  0  0  0  0  0  0  0  0  0
   63.1260   34.1310   49.5750 C   0  0  1  0  0  0  0  0  0  0  0  0
   63.4251   35.1502   49.2892 H   0  0  0  0  0  0  0  0  0  0  0  0
   63.4550   33.1840   48.4560 C   0  0  0  0  0  0  0  0  0  0  0  0
   63.1100   31.9730   48.5460 O   0  0  0  0  0  0  0  0  0  0  0  0
   64.0910   33.6540   47.3020 O   0  0  0  0  0  0  0  0  0  0  0  0
   63.4000   33.8710   46.0790 C   0  0  0  0  0  0  0  0  0  0  0  0
   62.3704   34.1943   46.2920 H   0  0  0  0  0  0  0  0  0  0  0  0
   63.9165   34.6502   45.4993 H   0  0  0  0  0  0  0  0  0  0  0  0
   63.3783   32.9364   45.4993 H   0  0  0  0  0  0  0  0  0  0  0  0
   60.4300   34.4480   46.6020 C   0  0  0  0  0  0  0  0  0  0  0  0
   61.3386   35.0062   46.3321 H   0  0  0  0  0  0  0  0  0  0  0  0
   59.6210   33.9030   45.6000 C   0  0  0  0  0  0  0  0  0  0  0  0
   59.8874   34.0470   44.5425 H   0  0  0  0  0  0  0  0  0  0  0  0
   56.5550   30.4620   44.1340 C   0  0  0  0  0  0  0  0  0  0  0  0
   55.8069   31.0173   43.5492 H   0  0  0  0  0  0  0  0  0  0  0  0
   56.5540   29.0640   44.1160 C   0  0  0  0  0  0  0  0  0  0  0  0
   55.8081   28.5264   43.5123 H   0  0  0  0  0  0  0  0  0  0  0  0
   56.8600   24.5940   45.6240 C   0  0  0  0  0  0  0  0  0  0  0  0
   57.5058   24.2741   44.7930 H   0  0  0  0  0  0  0  0  0  0  0  0
   57.3691   24.4098   46.5816 H   0  0  0  0  0  0  0  0  0  0  0  0
   55.6160   23.8380   45.5880 N   0  0  0  0  0  0  0  0  0  0  0  0
   54.7070   24.0890   46.4100 O   0  0  0  0  0  0  0  0  0  0  0  0
   55.3590   22.9980   44.5280 O   0  0  0  0  0  0  0  0  0  0  0  0
  1  2  1  0
  2  3  2  3
  3  4  1  0
  4  5  1  0
  4  6  1  0
  6  7  2  0
  7  8  1  0
  7  9  1  0
  9 10  1  0
  9 11  2  0
 11 12  1  0
 12 13  1  0
 12 14  1  0
 12 15  1  0
 15 16  2  0
 16 17  1  0
 16 18  1  0
 18 19  1  0
 18 20  2  0
 20 21  1  0
 21 22  2  0
 22 23  1  0
 23 24  1  0
 23 25  1  0
 23 26  1  0
 26 27  1  0
 26 28  1  0
 26 29  1  0
 29 30  1  0
 29 31  1  0
 29 32  1  0
 32 33  2  0
 32 34  1  0
 34 35  1  6
 34 36  1  0
 36 37  2  0
 36 38  1  0
 38 39  1  0
 39 40  1  0
 39 41  1  0
 39 42  1  0
 20 43  1  0
 43 44  1  0
 43 45  2  0
 45 46  1  0
 11 47  1  0
 47 48  1  0
 47 49  2  0
 49 50  1  0
  3 51  1  0
 51 52  1  0
 51 53  1  0
 51 54  1  0
 54 55  2  0
 54 56  1  0
 49  6  1  0
 45 15  1  0
 34 22  1  0
M  CHG  2  54   1  56  -1
M  END
>  <UniqueID>  (10) 
10

>  <SMILES>  (10) 
COC(=O)[C@@H]1C(=O)CCC/C1=N\c1ccc(Cc2ccc(NC(=N)C[N+](=O)[O-])cc2)cc1

>  <Energy>  (10) 
60.82927621612888

>  <Genealogy>  (10) 
COC(=O)[C@@H]1C(=O)CCCC1=Nc1ccc(Cc2ccc(NC(=N)C[N+](=O)[O-])cc2)cc1 (chirality)
COC(=O)[C@@H]1C(=O)CCC/C1=N\c1ccc(Cc2ccc(NC(=N)C[N+](=O)[O-])cc2)cc1 (cis-trans isomerization)
COC(=O)[C@@H]1C(=O)CCC/C1=N\c1ccc(Cc2ccc(NC(=N)C[N+](=O)[O-])cc2)cc1 (3D coordinates assigned)
COC(=O)[C@@H]1C(=O)CCC/C1=N\c1ccc(Cc2ccc(NC(=N)C[N+](=O)[O-])cc2)cc1 (nonaromatic ring conformer: 60.82927621612888 kcal/mol)

>  <smiles>  (10) 
COC(=O)C1C(=O)CCCC1=Nc1ccc(Cc2ccc(NC(=N)C[N+](=O)[O-])cc2)cc1

>  <score_type>  (10) 
oracle

>  <origin>  (10) 
adg

>  <m_score__min__energy>  (10) 
-9.3699999999999992

>  <m_primary>  (10) 
energy

$$$$
10:0
     RDKit          3D

 32 34  0  0  0  0  0  0  0  0999 V2000
   58.9170   35.8000   54.1780 O   0  0  0  0  0  0  0  0  0  0  0  0
   59.2750   34.6110   54.3000 N   0  0  0  0  0  0  0  0  0  0  0  0
   58.5670   33.5390   53.6670 C   0  0  0  0  0  0  0  0  0  0  0  0
   58.2960   32.3760   54.3960 C   0  0  0  0  0  0  0  0  0  0  0  0
   57.6050   31.3150   53.8030 C   0  0  0  0  0  0  0  0  0  0  0  0
   57.1900   31.3990   52.4620 C   0  0  0  0  0  0  0  0  0  0  0  0
   56.4550   30.3320   51.8380 N   0  0  0  0  0  0  0  0  0  0  0  0
   55.3270   29.6700   52.4370 C   0  0  0  0  0  0  0  0  0  0  0  0
   55.4720   28.4690   53.1630 C   0  0  0  0  0  0  0  0  0  0  0  0
   54.3470   27.8190   53.7100 C   0  0  0  0  0  0  0  0  0  0  0  0
   53.0460   28.3460   53.5360 C   0  0  0  0  0  0  0  0  0  0  0  0
   51.8970   27.6830   54.0960 N   0  0  0  0  0  0  0  0  0  0  0  0
   51.4790   27.9930   55.2300 O   0  0  0  0  0  0  0  0  0  0  0  0
   51.2350   26.7000   53.3950 O   0  0  0  0  0  0  0  0  0  0  0  0
   52.9310   29.5320   52.7930 C   0  0  0  0  0  0  0  0  0  0  0  0
   51.7980   30.2020   52.5030 N   0  0  0  0  0  0  0  0  0  0  0  0
   52.2050   31.2700   51.7770 C   0  0  0  0  0  0  0  0  0  0  0  0
   51.2810   32.2810   51.2490 C   0  0  0  0  0  0  0  0  0  0  0  0
   50.7240   33.0970   52.0300 O   0  0  0  0  0  0  0  0  0  0  0  0
   51.0140   32.3440   49.8870 O   0  0  0  0  0  0  0  0  0  0  0  0
   53.5830   31.2840   51.6050 C   0  0  0  0  0  0  0  0  0  0  0  0
   54.0310   30.1610   52.2610 C   0  0  0  0  0  0  0  0  0  0  0  0
   57.4430   32.5760   51.7410 C   0  0  0  0  0  0  0  0  0  0  0  0
   58.1340   33.6370   52.3350 C   0  0  0  0  0  0  0  0  0  0  0  0
   58.6284   32.2959   55.4415 H   0  0  0  0  0  0  0  0  0  0  0  0
   57.3849   30.4100   54.3883 H   0  0  0  0  0  0  0  0  0  0  0  0
   56.7730   30.0050   50.8980 H   0  0  0  0  0  0  0  0  0  0  0  0
   56.4731   28.0354   53.3037 H   0  0  0  0  0  0  0  0  0  0  0  0
   54.4829   26.8884   54.2805 H   0  0  0  0  0  0  0  0  0  0  0  0
   54.1840   32.0292   51.0633 H   0  0  0  0  0  0  0  0  0  0  0  0
   57.0953   32.6648   50.7012 H   0  0  0  0  0  0  0  0  0  0  0  0
   58.3387   34.5504   51.7573 H   0  0  0  0  0  0  0  0  0  0  0  0
  1  2  2  0
  2  3  1  0
  3  4  2  0
  4  5  1  0
  5  6  2  0
  6  7  1  0
  7  8  1  0
  8  9  2  0
  9 10  1  0
 10 11  2  0
 11 12  1  0
 12 13  2  0
 12 14  1  0
 11 15  1  0
 15 16  1  0
 16 17  1  0
 17 18  1  0
 18 19  2  0
 18 20  1  0
 17 21  2  0
 21 22  1  0
  6 23  1  0
 23 24  2  0
 24  3  1  0
 22  8  1  0
 22 15  2  0
  4 25  1  0
  5 26  1  0
  7 27  1  0
  9 28  1  0
 10 29  1  0
 21 30  1  0
 23 31  1  0
 24 32  1  0
M  CHG  4  12   1  14  -1  16  -1  20  -1
M  END
>  <UniqueID>  (11) 
11

>  <SMILES>  (11) 
O=Nc1ccc(Nc2ccc([N+](=O)[O-])c3[n-]c(C(=O)[O-])cc23)cc1

>  <Energy>  (11) 
73.04841468536657

>  <Genealogy>  (11) 
O=Nc1ccc(Nc2ccc([N+](=O)[O-])c3[n-]c(C(=O)[O-])cc23)cc1 (protonated)
O=Nc1ccc(Nc2ccc([N+](=O)[O-])c3[n-]c(C(=O)[O-])cc23)cc1 (3D coordinates assigned)
O=Nc1ccc(Nc2ccc([N+](=O)[O-])c3[n-]c(C(=O)[O-])cc23)cc1 (optimized conformer: 73.04841468536657 kcal/mol)

>  <smiles>  (11) 
O=Nc1ccc(Nc2ccc([N+](=O)[O-])c3[nH]c(C(=O)O)cc23)cc1

>  <score_type>  (11) 
oracle

>  <origin>  (11) 
adg

>  <m_score__min__energy>  (11) 
-11.109999999999999

>  <m_primary>  (11) 
energy

$$$$
11:0
     RDKit          3D

 51 53  0  0  0  0  0  0  0  0999 V2000
   59.1433   27.2179   43.1896 H   0  0  0  0  0  0  0  0  0  0  0  0
   58.1350   27.2980   43.6220 C   0  0  0  0  0  0  0  0  0  0  0  0
   57.2561   27.0147   43.0243 H   0  0  0  0  0  0  0  0  0  0  0  0
   57.9780   27.7390   44.8720 C   0  0  0  0  0  0  0  0  0  0  0  0
   58.8655   28.0189   45.4585 H   0  0  0  0  0  0  0  0  0  0  0  0
   56.6160   27.8620   45.4970 C   0  0  0  0  0  0  0  0  0  0  0  0
   56.0218   26.9714   45.2445 H   0  0  0  0  0  0  0  0  0  0  0  0
   56.7352   27.9469   46.5872 H   0  0  0  0  0  0  0  0  0  0  0  0
   55.9240   29.0550   45.0070 N   0  0  0  0  0  0  0  0  0  0  0  0
   56.5100   30.0880   44.4800 C   0  0  0  0  0  0  0  0  0  0  0  0
   57.2000   30.9420   45.2790 N   0  0  0  0  0  0  0  0  0  0  0  0
   57.8290   32.0410   44.7800 C   0  0  0  0  0  0  0  0  0  0  0  0
   58.5750   32.9360   45.7030 C   0  0  0  0  0  0  0  0  0  0  0  0
   58.5900   34.3310   45.5190 C   0  0  0  0  0  0  0  0  0  0  0  0
   58.0538   34.7752   44.6674 H   0  0  0  0  0  0  0  0  0  0  0  0
   59.2810   35.1560   46.4100 C   0  0  0  0  0  0  0  0  0  0  0  0
   59.2835   36.2456   46.2590 H   0  0  0  0  0  0  0  0  0  0  0  0
   59.9680   34.6020   47.4910 C   0  0  0  0  0  0  0  0  0  0  0  0
   60.5078   35.2577   48.1901 H   0  0  0  0  0  0  0  0  0  0  0  0
   59.9740   33.2130   47.6910 C   0  0  0  0  0  0  0  0  0  0  0  0
   60.6970   32.6330   48.8440 C   0  0  0  0  0  0  0  0  0  0  0  0
   60.0740   32.4500   49.9260 O   0  0  0  0  0  0  0  0  0  0  0  0
   62.0960   32.2970   48.7640 N   0  0  0  0  0  0  0  0  0  0  0  0
   62.6500   31.2110   49.5780 C   0  0  0  0  0  0  0  0  0  0  0  0
   61.8369   30.7364   50.1470 H   0  0  0  0  0  0  0  0  0  0  0  0
   63.1288   30.4798   48.9100 H   0  0  0  0  0  0  0  0  0  0  0  0
   63.7110   31.7480   50.5640 C   0  0  0  0  0  0  0  0  0  0  0  0
   63.2207   31.9352   51.5307 H   0  0  0  0  0  0  0  0  0  0  0  0
   64.4996   30.9838   50.6283 H   0  0  0  0  0  0  0  0  0  0  0  0
   64.3710   33.0110   50.1210 N   0  0  0  0  0  0  0  0  0  0  0  0
   65.3620   32.9730   50.4640 H   0  0  0  0  0  0  0  0  0  0  0  0
   63.7390   34.1940   50.7630 C   0  0  0  0  0  0  0  0  0  0  0  0
   64.5135   34.7495   51.3122 H   0  0  0  0  0  0  0  0  0  0  0  0
   63.2870   34.7984   49.9627 H   0  0  0  0  0  0  0  0  0  0  0  0
   62.6190   33.8220   51.7420 C   0  0  0  0  0  0  0  0  0  0  0  0
   62.9796   33.9418   52.7743 H   0  0  0  0  0  0  0  0  0  0  0  0
   61.7539   34.4810   51.5770 H   0  0  0  0  0  0  0  0  0  0  0  0
   62.3201   32.7763   51.5770 H   0  0  0  0  0  0  0  0  0  0  0  0
   64.4300   33.0990   48.6410 C   0  0  0  0  0  0  0  0  0  0  0  0
   64.9790   34.0099   48.3602 H   0  0  0  0  0  0  0  0  0  0  0  0
   64.9385   32.1988   48.2653 H   0  0  0  0  0  0  0  0  0  0  0  0
   63.0270   33.1510   48.0150 C   0  0  0  0  0  0  0  0  0  0  0  0
   62.6610   34.1882   48.0333 H   0  0  0  0  0  0  0  0  0  0  0  0
   63.0869   32.7874   46.9785 H   0  0  0  0  0  0  0  0  0  0  0  0
   59.2590   32.3890   46.8050 C   0  0  0  0  0  0  0  0  0  0  0  0
   59.2336   31.3025   46.9749 H   0  0  0  0  0  0  0  0  0  0  0  0
   57.7710   32.2880   43.3990 C   0  0  0  0  0  0  0  0  0  0  0  0
   58.2778   33.1617   42.9634 H   0  0  0  0  0  0  0  0  0  0  0  0
   57.0570   31.4020   42.5900 C   0  0  0  0  0  0  0  0  0  0  0  0
   56.9860   31.5960   41.3480 O   0  0  0  0  0  0  0  0  0  0  0  0
   56.4420   30.3250   43.1410 N   0  0  0  0  0  0  0  0  0  0  0  0
  1  2  1  0
  2  3  1  0
  2  4  2  0
  4  5  1  0
  4  6  1  0
  6  7  1  0
  6  8  1  0
  6  9  1  0
  9 10  2  0
 10 11  1  0
 11 12  1  0
 12 13  1  0
 13 14  2  0
 14 15  1  0
 14 16  1  0
 16 17  1  0
 16 18  2  0
 18 19  1  0
 18 20  1  0
 20 21  1  0
 21 22  2  0
 21 23  1  0
 23 24  1  0
 24 25  1  0
 24 26  1  0
 24 27  1  0
 27 28  1  0
 27 29  1  0
 27 30  1  0
 30 31  1  0
 30 32  1  0
 32 33  1  0
 32 34  1  0
 32 35  1  0
 35 36  1  0
 35 37  1  0
 35 38  1  0
 30 39  1  0
 39 40  1  0
 39 41  1  0
 39 42  1  0
 42 43  1  0
 42 44  1  0
 20 45  2  0
 45 46  1  0
 12 47  2  0
 47 48  1  0
 47 49  1  0
 49 50  2  0
 49 51  1  0
 51 10  1  0
 45 13  1  0
 42 23  1  0
M  CHG  3  11  -1  30   1  51  -1
M  END
>  <UniqueID>  (12) 
12

>  <SMILES>  (12) 
C=CC/N=c1/[n-]c(-c2cccc(C(=O)N3CC[NH+](CC)CC3)c2)cc(=O)[n-]1

>  <Energy>  (12) 
67.21244547499893

>  <Genealogy>  (12) 
C=CCN=c1[n-]c(-c2cccc(C(=O)N3CC[NH+](CC)CC3)c2)cc(=O)[n-]1 (protonated)
C=CC/N=c1/[n-]c(-c2cccc(C(=O)N3CC[NH+](CC)CC3)c2)cc(=O)[n-]1 (cis-trans isomerization)
C=CC/N=c1/[n-]c(-c2cccc(C(=O)N3CC[NH+](CC)CC3)c2)cc(=O)[n-]1 (3D coordinates assigned)
C=CC/N=c1/[n-]c(-c2cccc(C(=O)N3CC[NH+](CC)CC3)c2)cc(=O)[n-]1 (nonaromatic ring conformer: 67.21244547499893 kcal/mol)

>  <smiles>  (12) 
C=CCN=c1[nH]c(-c2cccc(C(=O)N3CCN(CC)CC3)c2)cc(=O)[nH]1

>  <score_type>  (12) 
oracle

>  <origin>  (12) 
adg

>  <m_score__min__energy>  (12) 
-11.390000000000001

>  <m_primary>  (12) 
energy

$$$$
12:0
     RDKit          3D

 42 43  0  0  0  0  0  0  0  0999 V2000
   55.1470   26.7200   45.9550 O   0  0  0  0  0  0  0  0  0  0  0  0
   55.6140   25.5530   46.0220 C   0  0  0  0  0  0  0  0  0  0  0  0
   54.7500   24.4650   46.0300 O   0  0  0  0  0  0  0  0  0  0  0  0
   57.0830   25.3400   46.1510 C   0  0  0  0  0  0  0  0  0  0  0  0
   57.7080   26.5600   46.6390 N   0  0  0  0  0  0  0  0  0  0  0  0
   58.2720   27.5450   45.7690 C   0  0  0  0  0  0  0  0  0  0  0  0
   59.1260   28.3640   46.2030 O   0  0  0  0  0  0  0  0  0  0  0  0
   57.8260   27.6150   44.3440 C   0  0  0  0  0  0  0  0  0  0  0  0
   57.6610   29.0100   43.9450 N   0  0  0  0  0  0  0  0  0  0  0  0
   56.5770   29.8230   44.4210 C   0  0  0  0  0  0  0  0  0  0  0  0
   55.5380   29.2830   44.8820 O   0  0  0  0  0  0  0  0  0  0  0  0
   56.6320   31.2500   44.3240 N   0  0  0  0  0  0  0  0  0  0  0  0
   57.4860   32.1080   45.0930 C   0  0  0  0  0  0  0  0  0  0  0  0
   58.1370   31.6550   46.2520 C   0  0  0  0  0  0  0  0  0  0  0  0
   58.9370   32.5270   46.9960 C   0  0  0  0  0  0  0  0  0  0  0  0
   59.0880   33.8630   46.6080 C   0  0  0  0  0  0  0  0  0  0  0  0
   59.9110   34.6920   47.3870 O   0  0  0  0  0  0  0  0  0  0  0  0
   60.4010   34.3790   48.6910 C   0  0  0  0  0  0  0  0  0  0  0  0
   61.8320   33.9170   48.6310 C   0  0  0  0  0  0  0  0  0  0  0  0
   62.4230   33.5790   47.4010 C   0  0  0  0  0  0  0  0  0  0  0  0
   63.7560   33.1610   47.3520 C   0  0  0  0  0  0  0  0  0  0  0  0
   64.5120   33.0870   48.5250 C   0  0  0  0  0  0  0  0  0  0  0  0
   63.9350   33.4350   49.7510 C   0  0  0  0  0  0  0  0  0  0  0  0
   62.6020   33.8520   49.8050 C   0  0  0  0  0  0  0  0  0  0  0  0
   58.4100   34.3230   45.4620 C   0  0  0  0  0  0  0  0  0  0  0  0
   57.6100   33.4500   44.7180 C   0  0  0  0  0  0  0  0  0  0  0  0
   57.2741   24.5210   46.8600 H   0  0  0  0  0  0  0  0  0  0  0  0
   57.5038   25.0795   45.1686 H   0  0  0  0  0  0  0  0  0  0  0  0
   58.5808   27.1382   43.7013 H   0  0  0  0  0  0  0  0  0  0  0  0
   56.8646   27.0910   44.2383 H   0  0  0  0  0  0  0  0  0  0  0  0
   58.4140   29.4500   43.3700 H   0  0  0  0  0  0  0  0  0  0  0  0
   58.0170   30.6105   46.5754 H   0  0  0  0  0  0  0  0  0  0  0  0
   59.4529   32.1594   47.8953 H   0  0  0  0  0  0  0  0  0  0  0  0
   60.3386   35.2764   49.3240 H   0  0  0  0  0  0  0  0  0  0  0  0
   59.7876   33.5685   49.1115 H   0  0  0  0  0  0  0  0  0  0  0  0
   61.8344   33.6437   46.4740 H   0  0  0  0  0  0  0  0  0  0  0  0
   64.2109   32.8897   46.3879 H   0  0  0  0  0  0  0  0  0  0  0  0
   65.5600   32.7554   48.4843 H   0  0  0  0  0  0  0  0  0  0  0  0
   64.5312   33.3804   50.6738 H   0  0  0  0  0  0  0  0  0  0  0  0
   62.1538   34.1304   50.7702 H   0  0  0  0  0  0  0  0  0  0  0  0
   58.5103   35.3734   45.1511 H   0  0  0  0  0  0  0  0  0  0  0  0
   57.0745   33.8211   43.8317 H   0  0  0  0  0  0  0  0  0  0  0  0
  1  2  2  0
  2  3  1  0
  2  4  1  0
  4  5  1  0
  5  6  1  0
  6  7  2  0
  6  8  1  0
  8  9  1  0
  9 10  1  0
 10 11  2  0
 10 12  1  0
 12 13  1  0
 13 14  2  0
 14 15  1  0
 15 16  2  0
 16 17  1  0
 17 18  1  0
 18 19  1  0
 19 20  2  0
 20 21  1  0
 21 22  2  0
 22 23  1  0
 23 24  2  0
 16 25  1  0
 25 26  2  0
 26 13  1  0
 24 19  1  0
  4 27  1  0
  4 28  1  0
  8 29  1  0
  8 30  1  0
  9 31  1  0
 14 32  1  0
 15 33  1  0
 18 34  1  0
 18 35  1  0
 20 36  1  0
 21 37  1  0
 22 38  1  0
 23 39  1  0
 24 40  1  0
 25 41  1  0
 26 42  1  0
M  CHG  3   3  -1   5  -1  12  -1
M  END
>  <UniqueID>  (13) 
13

>  <SMILES>  (13) 
O=C([O-])C[N-]C(=O)CNC(=O)[N-]c1ccc(OCc2ccccc2)cc1

>  <Energy>  (13) 
38.998248003351655

>  <Genealogy>  (13) 
O=C([O-])C[N-]C(=O)CNC(=O)[N-]c1ccc(OCc2ccccc2)cc1 (protonated)
O=C([O-])C[N-]C(=O)CNC(=O)[N-]c1ccc(OCc2ccccc2)cc1 (3D coordinates assigned)
O=C([O-])C[N-]C(=O)CNC(=O)[N-]c1ccc(OCc2ccccc2)cc1 (optimized conformer: 38.998248003351655 kcal/mol)

>  <smiles>  (13) 
O=C(O)CNC(=O)CNC(=O)Nc1ccc(OCc2ccccc2)cc1

>  <score_type>  (13) 
oracle

>  <origin>  (13) 
adg

>  <m_score__min__energy>  (13) 
-14.44

>  <m_primary>  (13) 
energy

$$$$
13:0
     RDKit          3D

 33 35  0  0  0  0  0  0  0  0999 V2000
   61.8880   30.2770   49.8500 C   0  0  0  0  0  0  0  0  0  0  0  0
   61.0550   29.2530   49.2050 N   0  0  0  0  0  0  0  0  0  0  0  0
   60.8160   28.0740   49.8520 C   0  0  0  0  0  0  0  0  0  0  0  0
   60.0690   27.1050   49.2670 N   0  0  0  0  0  0  0  0  0  0  0  0
   59.5440   27.2720   48.0280 C   0  0  0  0  0  0  0  0  0  0  0  0
   58.7740   26.2540   47.4540 C   0  0  0  0  0  0  0  0  0  0  0  0
   58.2260   26.4160   46.1690 C   0  0  0  0  0  0  0  0  0  0  0  0
   57.4310   25.3900   45.5550 N   0  0  0  0  0  0  0  0  0  0  0  0
   55.8200   24.9540   46.0190 S   0  0  0  0  0  0  0  0  0  0  0  0
   54.7850   26.3220   45.8140 N   0  0  0  0  0  0  0  0  0  0  0  0
   55.3250   23.8320   45.1500 O   0  0  0  0  0  0  0  0  0  0  0  0
   55.7990   24.5330   47.4620 O   0  0  0  0  0  0  0  0  0  0  0  0
   58.4640   27.6100   45.4640 C   0  0  0  0  0  0  0  0  0  0  0  0
   57.7910   27.8530   43.8170 S   0  0  0  0  0  0  0  0  0  0  0  0
   57.3810   29.5660   44.1390 C   0  0  0  0  0  0  0  0  0  0  0  0
   58.4470   30.8600   43.9900 S   0  0  0  0  0  0  0  0  0  0  0  0
   57.2750   31.9720   44.4580 C   0  0  0  0  0  0  0  0  0  0  0  0
   57.4720   33.2110   44.5530 O   0  0  0  0  0  0  0  0  0  0  0  0
   56.0830   31.3960   44.7250 N   0  0  0  0  0  0  0  0  0  0  0  0
   56.1440   30.0500   44.5450 C   0  0  0  0  0  0  0  0  0  0  0  0
   55.0440   29.2260   44.7580 O   0  0  0  0  0  0  0  0  0  0  0  0
   59.2300   28.6290   46.0420 C   0  0  0  0  0  0  0  0  0  0  0  0
   59.7760   28.4670   47.3260 C   0  0  0  0  0  0  0  0  0  0  0  0
   60.5570   29.4610   47.9450 C   0  0  0  0  0  0  0  0  0  0  0  0
   60.7970   30.5430   47.3380 O   0  0  0  0  0  0  0  0  0  0  0  0
   61.8086   30.1794   50.9428 H   0  0  0  0  0  0  0  0  0  0  0  0
   62.9363   30.1424   49.5451 H   0  0  0  0  0  0  0  0  0  0  0  0
   61.5428   31.2759   49.5451 H   0  0  0  0  0  0  0  0  0  0  0  0
   61.2331   27.9090   50.8564 H   0  0  0  0  0  0  0  0  0  0  0  0
   58.5965   25.3222   48.0109 H   0  0  0  0  0  0  0  0  0  0  0  0
   55.3520   27.0630   45.3430 H   0  0  0  0  0  0  0  0  0  0  0  0
   55.1600   28.2250   44.8660 H   0  0  0  0  0  0  0  0  0  0  0  0
   59.4055   29.5625   45.4872 H   0  0  0  0  0  0  0  0  0  0  0  0
  1  2  1  0
  2  3  1  0
  3  4  2  0
  4  5  1  0
  5  6  2  0
  6  7  1  0
  7  8  1  0
  8  9  1  0
  9 10  1  0
  9 11  2  0
  9 12  2  0
  7 13  2  0
 13 14  1  0
 14 15  1  0
 15 16  1  0
 16 17  1  0
 17 18  2  0
 17 19  1  0
 19 20  1  0
 20 21  1  0
 13 22  1  0
 22 23  2  0
 23 24  1  0
 24 25  2  0
 24  2  1  0
 23  5  1  0
 20 15  2  0
  1 26  1  0
  1 27  1  0
  1 28  1  0
  3 29  1  0
  6 30  1  0
 10 31  1  0
 21 32  1  0
 22 33  1  0
M  CHG  3   8  -1  10  -1  19  -1
M  END
>  <UniqueID>  (14) 
14

>  <SMILES>  (14) 
Cn1cnc2cc([N-]S([NH-])(=O)=O)c(Sc3sc(=O)[n-]c3O)cc2c1=O

>  <Energy>  (14) 
68.91687388982069

>  <Genealogy>  (14) 
Cn1cnc2cc([N-]S([NH-])(=O)=O)c(Sc3sc(=O)[n-]c3O)cc2c1=O (protonated)
Cn1cnc2cc([N-]S([NH-])(=O)=O)c(Sc3sc(=O)[n-]c3O)cc2c1=O (3D coordinates assigned)
Cn1cnc2cc([N-]S([NH-])(=O)=O)c(Sc3sc(=O)[n-]c3O)cc2c1=O (optimized conformer: 68.91687388982069 kcal/mol)

>  <smiles>  (14) 
Cn1cnc2cc(NS(N)(=O)=O)c(Sc3sc(=O)[nH]c3O)cc2c1=O

>  <score_type>  (14) 
oracle

>  <origin>  (14) 
adg

>  <m_score__min__energy>  (14) 
-15.26

>  <m_primary>  (14) 
energy

$$$$
14:0
     RDKit          3D

 43 45  0  0  0  0  0  0  0  0999 V2000
   55.1490   27.4710   45.3570 H   0  0  0  0  0  0  0  0  0  0  0  0
   54.9670   26.6890   45.9740 O   0  0  0  0  0  0  0  0  0  0  0  0
   55.9800   25.7910   46.2970 C   0  0  0  0  0  0  0  0  0  0  0  0
   55.7770   24.6320   46.9460 N   0  0  0  0  0  0  0  0  0  0  0  0
   57.0200   24.1040   46.9990 C   0  0  0  0  0  0  0  0  0  0  0  0
   57.2610   22.9920   47.5350 O   0  0  0  0  0  0  0  0  0  0  0  0
   57.9810   24.8580   46.4210 N   0  0  0  0  0  0  0  0  0  0  0  0
   57.3110   25.9470   46.0030 C   0  0  0  0  0  0  0  0  0  0  0  0
   57.8910   27.0160   45.1760 C   0  0  0  0  0  0  0  0  0  0  0  0
   58.3200   26.7210   44.2070 H   0  0  0  0  0  0  0  0  0  0  0  0
   57.9450   28.3250   45.4970 C   0  0  0  0  0  0  0  0  0  0  0  0
   57.2900   29.2960   44.7550 C   0  0  0  0  0  0  0  0  0  0  0  0
   56.6179   29.1257   43.9010 H   0  0  0  0  0  0  0  0  0  0  0  0
   57.6420   30.5150   45.2920 C   0  0  0  0  0  0  0  0  0  0  0  0
   57.2600   31.8530   44.7200 C   0  0  0  0  0  0  0  0  0  0  0  0
   56.1634   31.9387   44.7145 H   0  0  0  0  0  0  0  0  0  0  0  0
   57.7128   32.6361   45.3460 H   0  0  0  0  0  0  0  0  0  0  0  0
   57.7760   32.0240   43.2970 C   0  0  0  0  0  0  0  0  0  0  0  0
   58.8198   32.3699   43.3246 H   0  0  0  0  0  0  0  0  0  0  0  0
   57.7229   31.0602   42.7694 H   0  0  0  0  0  0  0  0  0  0  0  0
   57.1579   32.7653   42.7694 H   0  0  0  0  0  0  0  0  0  0  0  0
   58.4090   30.3400   46.3840 N   0  0  0  0  0  0  0  0  0  0  0  0
   58.8660   31.3880   47.1690 O   0  0  0  0  0  0  0  0  0  0  0  0
   60.1430   31.9690   47.0810 C   0  0  0  0  0  0  0  0  0  0  0  0
   61.2370   31.1430   47.3670 C   0  0  0  0  0  0  0  0  0  0  0  0
   61.0701   30.0798   47.5945 H   0  0  0  0  0  0  0  0  0  0  0  0
   62.5360   31.6520   47.3670 C   0  0  0  0  0  0  0  0  0  0  0  0
   63.3850   30.9928   47.6006 H   0  0  0  0  0  0  0  0  0  0  0  0
   62.7580   32.9960   47.0710 C   0  0  0  0  0  0  0  0  0  0  0  0
   63.7804   33.4013   47.0913 H   0  0  0  0  0  0  0  0  0  0  0  0
   61.6850   33.8280   46.7490 C   0  0  0  0  0  0  0  0  0  0  0  0
   61.8692   34.8860   46.5106 H   0  0  0  0  0  0  0  0  0  0  0  0
   60.3700   33.3280   46.7260 C   0  0  0  0  0  0  0  0  0  0  0  0
   59.2810   34.2280   46.2850 C   0  0  0  0  0  0  0  0  0  0  0  0
   58.3670   34.5440   47.0880 O   0  0  0  0  0  0  0  0  0  0  0  0
   59.2010   34.7080   44.8700 C   0  0  0  0  0  0  0  0  0  0  0  0
   59.0202   35.7930   44.8605 H   0  0  0  0  0  0  0  0  0  0  0  0
   60.1479   34.4896   44.3546 H   0  0  0  0  0  0  0  0  0  0  0  0
   58.3761   34.1943   44.3546 H   0  0  0  0  0  0  0  0  0  0  0  0
   58.6380   29.0050   46.5160 C   0  0  0  0  0  0  0  0  0  0  0  0
   59.3820   28.4670   47.4930 C   0  0  0  0  0  0  0  0  0  0  0  0
   59.8737   29.1173   48.2315 H   0  0  0  0  0  0  0  0  0  0  0  0
   59.5007   27.3753   47.5561 H   0  0  0  0  0  0  0  0  0  0  0  0
  1  2  1  0
  2  3  1  0
  3  4  1  0
  4  5  1  0
  5  6  2  0
  5  7  1  0
  7  8  1  0
  8  9  1  0
  9 10  1  0
  9 11  2  0
 11 12  1  0
 12 13  1  0
 12 14  2  0
 14 15  1  0
 15 16  1  0
 15 17  1  0
 15 18  1  0
 18 19  1  0
 18 20  1  0
 18 21  1  0
 14 22  1  0
 22 23  1  0
 23 24  1  0
 24 25  2  0
 25 26  1  0
 25 27  1  0
 27 28  1  0
 27 29  2  0
 29 30  1  0
 29 31  1  0
 31 32  1  0
 31 33  2  0
 33 34  1  0
 34 35  2  0
 34 36  1  0
 36 37  1  0
 36 38  1  0
 36 39  1  0
 22 40  1  0
 40 41  2  0
 41 42  1  0
 41 43  1  0
  8  3  2  0
 40 11  1  0
 33 24  1  0
M  CHG  2   4  -1   7  -1
M  END
>  <UniqueID>  (15) 
15

>  <SMILES>  (15) 
C=c1/c(=C\c2[n-]c(=O)[n-]c2O)cc(CC)n1Oc1ccccc1C(C)=O

>  <Energy>  (15) 
122.9698138105871

>  <Genealogy>  (15) 
C=c1c(=Cc2[n-]c(=O)[n-]c2O)cc(CC)n1Oc1ccccc1C(C)=O (protonated)
C=c1/c(=C\c2[n-]c(=O)[n-]c2O)cc(CC)n1Oc1ccccc1C(C)=O (cis-trans isomerization)
C=c1/c(=C\c2[n-]c(=O)[n-]c2O)cc(CC)n1Oc1ccccc1C(C)=O (3D coordinates assigned)
C=c1/c(=C\c2[n-]c(=O)[n-]c2O)cc(CC)n1Oc1ccccc1C(C)=O (optimized conformer: 122.9698138105871 kcal/mol)

>  <smiles>  (15) 
C=c1c(=Cc2[nH]c(=O)[nH]c2O)cc(CC)n1Oc1ccccc1C(C)=O

>  <score_type>  (15) 
oracle

>  <origin>  (15) 
adg

>  <m_score__min__energy>  (15) 
-13.26

>  <m_primary>  (15) 
energy

$$$$
15:0
     RDKit          3D

 34 36  0  0  0  0  0  0  0  0999 V2000
   52.9143   29.9287   55.0209 H   0  0  0  0  0  0  0  0  0  0  0  0
   54.0040   29.8690   54.8830 C   0  0  0  0  0  0  0  0  0  0  0  0
   54.6488   29.5671   55.7215 H   0  0  0  0  0  0  0  0  0  0  0  0
   54.5440   30.1630   53.6980 C   0  0  0  0  0  0  0  0  0  0  0  0
   55.8380   30.1070   53.4830 O   0  0  0  0  0  0  0  0  0  0  0  0
   56.0740   30.4300   52.2330 C   0  0  0  0  0  0  0  0  0  0  0  0
   57.4300   30.4800   51.6610 C   0  0  0  0  0  0  0  0  0  0  0  0
   57.8640   29.4650   51.0600 O   0  0  0  0  0  0  0  0  0  0  0  0
   58.2740   31.6360   51.7550 N   0  0  0  0  0  0  0  0  0  0  0  0
   58.5360   32.6220   50.7070 C   0  0  0  0  0  0  0  0  0  0  0  0
   57.6751   33.3027   50.6332 H   0  0  0  0  0  0  0  0  0  0  0  0
   59.4496   33.1740   50.9727 H   0  0  0  0  0  0  0  0  0  0  0  0
   58.7580   31.9500   49.3470 C   0  0  0  0  0  0  0  0  0  0  0  0
   59.7410   31.4564   49.3514 H   0  0  0  0  0  0  0  0  0  0  0  0
   57.9473   31.2229   49.1918 H   0  0  0  0  0  0  0  0  0  0  0  0
   58.7170   32.9340   48.2200 C   0  0  0  0  0  0  0  0  0  0  0  0
   57.8380   32.8510   47.1990 N   0  0  0  0  0  0  0  0  0  0  0  0
   58.1350   33.9150   46.4340 C   0  0  0  0  0  0  0  0  0  0  0  0
   57.6272   34.1866   45.4968 H   0  0  0  0  0  0  0  0  0  0  0  0
   59.1720   34.6100   47.0060 C   0  0  0  0  0  0  0  0  0  0  0  0
   59.6244   35.5267   46.5997 H   0  0  0  0  0  0  0  0  0  0  0  0
   59.5470   33.9950   48.1390 N   0  0  0  0  0  0  0  0  0  0  0  0
   54.8910   30.7400   51.5900 C   0  0  0  0  0  0  0  0  0  0  0  0
   54.7703   31.0673   50.5468 H   0  0  0  0  0  0  0  0  0  0  0  0
   53.8850   30.5540   52.5300 C   0  0  0  0  0  0  0  0  0  0  0  0
   52.5590   30.7330   52.3690 C   0  0  0  0  0  0  0  0  0  0  0  0
   51.9270   30.6613   53.2665 H   0  0  0  0  0  0  0  0  0  0  0  0
   51.8840   31.0180   51.0840 C   0  0  0  0  0  0  0  0  0  0  0  0
   51.7940   30.1780   50.0360 N   0  0  0  0  0  0  0  0  0  0  0  0
   51.0540   30.8670   49.1420 C   0  0  0  0  0  0  0  0  0  0  0  0
   50.7550   30.4040   48.0100 O   0  0  0  0  0  0  0  0  0  0  0  0
   50.6570   32.0880   49.5550 N   0  0  0  0  0  0  0  0  0  0  0  0
   51.1860   32.1660   50.7870 C   0  0  0  0  0  0  0  0  0  0  0  0
   51.0330   33.2640   51.6240 O   0  0  0  0  0  0  0  0  0  0  0  0
  1  2  1  0
  2  3  1  0
  2  4  2  0
  4  5  1  0
  5  6  1  0
  6  7  1  0
  7  8  2  0
  7  9  1  0
  9 10  1  0
 10 11  1  0
 10 12  1  0
 10 13  1  0
 13 14  1  0
 13 15  1  0
 13 16  1  0
 16 17  2  0
 17 18  1  0
 18 19  1  0
 18 20  2  0
 20 21  1  0
 20 22  1  0
  6 23  2  0
 23 24  1  0
 23 25  1  0
 25 26  2  0
 26 27  1  0
 26 28  1  0
 28 29  1  0
 29 30  1  0
 30 31  2  0
 30 32  1  0
 32 33  1  0
 33 34  1  0
 25  4  1  0
 33 28  2  0
 22 16  1  0
M  CHG  5   9  -1  22  -1  29  -1  32  -1  34  -1
M  END
>  <UniqueID>  (16) 
16

>  <SMILES>  (16) 
C=c1oc(C(=O)[N-]CCc2ncc[n-]2)c/c1=C\c1[n-]c(=O)[n-]c1[O-]

>  <Energy>  (16) 
121.94439225212672

>  <Genealogy>  (16) 
C=c1oc(C(=O)[N-]CCc2ncc[n-]2)cc1=Cc1[n-]c(=O)[n-]c1[O-] (protonated)
C=c1oc(C(=O)[N-]CCc2ncc[n-]2)c/c1=C\c1[n-]c(=O)[n-]c1[O-] (cis-trans isomerization)
C=c1oc(C(=O)[N-]CCc2ncc[n-]2)c/c1=C\c1[n-]c(=O)[n-]c1[O-] (3D coordinates assigned)
C=c1oc(C(=O)[N-]CCc2ncc[n-]2)c/c1=C\c1[n-]c(=O)[n-]c1[O-] (optimized conformer: 121.94439225212672 kcal/mol)

>  <smiles>  (16) 
C=c1oc(C(=O)NCCc2ncc[nH]2)cc1=Cc1[nH]c(=O)[nH]c1O

>  <score_type>  (16) 
oracle

>  <origin>  (16) 
adg

>  <m_score__min__energy>  (16) 
-17.899999999999999

>  <m_primary>  (16) 
energy

$$$$
16:0
     RDKit          3D

 63 66  0  0  0  0  0  0  0  0999 V2000
   64.0660   34.4630   51.5230 C   0  0  0  0  0  0  0  0  0  0  0  0
   62.8210   34.2070   50.8810 O   0  0  0  0  0  0  0  0  0  0  0  0
   61.9440   33.1680   51.2290 C   0  0  0  0  0  0  0  0  0  0  0  0
   60.7580   33.4020   51.9520 C   0  0  0  0  0  0  0  0  0  0  0  0
   59.9120   32.3430   52.2840 C   0  0  0  0  0  0  0  0  0  0  0  0
   60.2320   31.0340   51.9020 C   0  0  0  0  0  0  0  0  0  0  0  0
   59.2980   29.8980   52.2290 C   0  0  0  0  0  0  0  0  0  0  0  0
   58.1390   29.8370   51.2660 C   0  0  0  0  0  0  0  0  0  0  0  0
   57.0250   30.3200   51.6020 O   0  0  0  0  0  0  0  0  0  0  0  0
   58.3030   29.3680   49.9210 N   0  0  0  0  0  0  0  0  0  0  0  0
   59.1250   29.9930   48.9310 C   0  0  0  0  0  0  0  0  0  0  0  0
   59.2000   31.3920   48.9070 C   0  0  0  0  0  0  0  0  0  0  0  0
   60.0530   32.0430   48.0070 C   0  0  0  0  0  0  0  0  0  0  0  0
   60.1570   33.8010   47.9940 S   0  0  0  0  0  0  0  0  0  0  0  0
   59.7590   34.3200   49.3460 O   0  0  0  0  0  0  0  0  0  0  0  0
   61.5700   34.2240   47.6990 O   0  0  0  0  0  0  0  0  0  0  0  0
   59.0790   34.4450   46.7800 N   0  0  0  0  0  0  0  0  0  0  0  0
   57.7840   33.7600   46.7910 C   0  0  0  0  0  0  0  0  0  0  0  0
   57.2510   33.7910   45.3640 C   0  0  0  0  0  0  0  0  0  0  0  0
   58.4250   34.2220   44.4990 C   0  0  0  0  0  0  0  0  0  0  0  0
   59.6180   34.2450   45.4370 C   0  0  0  0  0  0  0  0  0  0  0  0
   60.8220   31.2900   47.1140 C   0  0  0  0  0  0  0  0  0  0  0  0
   60.7310   29.8970   47.1100 C   0  0  0  0  0  0  0  0  0  0  0  0
   59.8600   29.2380   47.9860 C   0  0  0  0  0  0  0  0  0  0  0  0
   59.7530   27.8100   47.8900 N   0  0  0  0  0  0  0  0  0  0  0  0
   59.1430   27.0680   46.8230 C   0  0  0  0  0  0  0  0  0  0  0  0
   59.2740   25.8150   46.8130 O   0  0  0  0  0  0  0  0  0  0  0  0
   58.4110   27.7270   45.7160 C   0  0  0  0  0  0  0  0  0  0  0  0
   57.6400   28.8790   45.9390 C   0  0  0  0  0  0  0  0  0  0  0  0
   56.9600   29.4740   44.8730 C   0  0  0  0  0  0  0  0  0  0  0  0
   57.0570   28.9470   43.6220 N   0  0  0  0  0  0  0  0  0  0  0  0
   57.8120   27.8450   43.3730 C   0  0  0  0  0  0  0  0  0  0  0  0
   58.5030   27.2180   44.4110 C   0  0  0  0  0  0  0  0  0  0  0  0
   61.4090   30.7960   51.1740 C   0  0  0  0  0  0  0  0  0  0  0  0
   62.2710   31.8590   50.8400 C   0  0  0  0  0  0  0  0  0  0  0  0
   63.4620   31.6550   50.1240 O   0  0  0  0  0  0  0  0  0  0  0  0
   63.7010   32.1290   48.8020 C   0  0  0  0  0  0  0  0  0  0  0  0
   63.9286   34.4347   52.6140 H   0  0  0  0  0  0  0  0  0  0  0  0
   64.7965   33.6963   51.2255 H   0  0  0  0  0  0  0  0  0  0  0  0
   64.4347   35.4557   51.2255 H   0  0  0  0  0  0  0  0  0  0  0  0
   60.4970   34.4262   52.2569 H   0  0  0  0  0  0  0  0  0  0  0  0
   58.9884   32.5374   52.8490 H   0  0  0  0  0  0  0  0  0  0  0  0
   59.8556   28.9512   52.1769 H   0  0  0  0  0  0  0  0  0  0  0  0
   58.8969   30.0627   53.2399 H   0  0  0  0  0  0  0  0  0  0  0  0
   58.5841   31.9835   49.6004 H   0  0  0  0  0  0  0  0  0  0  0  0
   57.9100   32.7194   47.1246 H   0  0  0  0  0  0  0  0  0  0  0  0
   57.0848   34.2538   47.4818 H   0  0  0  0  0  0  0  0  0  0  0  0
   56.8987   32.7931   45.0638 H   0  0  0  0  0  0  0  0  0  0  0  0
   56.3971   34.4771   45.2630 H   0  0  0  0  0  0  0  0  0  0  0  0
   58.5886   33.5024   43.6833 H   0  0  0  0  0  0  0  0  0  0  0  0
   58.2524   35.2004   44.0267 H   0  0  0  0  0  0  0  0  0  0  0  0
   60.1632   33.2911   45.3834 H   0  0  0  0  0  0  0  0  0  0  0  0
   60.3244   35.0436   45.1664 H   0  0  0  0  0  0  0  0  0  0  0  0
   61.5008   31.7970   46.4125 H   0  0  0  0  0  0  0  0  0  0  0  0
   61.3488   29.3121   46.4127 H   0  0  0  0  0  0  0  0  0  0  0  0
   57.5715   29.3112   46.9482 H   0  0  0  0  0  0  0  0  0  0  0  0
   56.3453   30.3698   45.0453 H   0  0  0  0  0  0  0  0  0  0  0  0
   57.8788   27.4458   42.3502 H   0  0  0  0  0  0  0  0  0  0  0  0
   59.1173   26.3285   44.2073 H   0  0  0  0  0  0  0  0  0  0  0  0
   61.6599   29.7714   50.8621 H   0  0  0  0  0  0  0  0  0  0  0  0
   64.1958   33.1103   48.8482 H   0  0  0  0  0  0  0  0  0  0  0  0
   64.3478   31.4170   48.2685 H   0  0  0  0  0  0  0  0  0  0  0  0
   62.7439   32.2257   48.2685 H   0  0  0  0  0  0  0  0  0  0  0  0
  1  2  1  0
  2  3  1  0
  3  4  2  0
  4  5  1  0
  5  6  2  0
  6  7  1  0
  7  8  1  0
  8  9  2  0
  8 10  1  0
 10 11  1  0
 11 12  2  0
 12 13  1  0
 13 14  1  0
 14 15  2  0
 14 16  2  0
 14 17  1  0
 17 18  1  0
 18 19  1  0
 19 20  1  0
 20 21  1  0
 13 22  2  0
 22 23  1  0
 23 24  2  0
 24 25  1  0
 25 26  1  0
 26 27  2  0
 26 28  1  0
 28 29  2  0
 29 30  1  0
 30 31  2  0
 31 32  1  0
 32 33  2  0
  6 34  1  0
 34 35  2  0
 35 36  1  0
 36 37  1  0
 35  3  1  0
 24 11  1  0
 33 28  1  0
 21 17  1  0
  1 38  1  0
  1 39  1  0
  1 40  1  0
  4 41  1  0
  5 42  1  0
  7 43  1  0
  7 44  1  0
 12 45  1  0
 18 46  1  0
 18 47  1  0
 19 48  1  0
 19 49  1  0
 20 50  1  0
 20 51  1  0
 21 52  1  0
 21 53  1  0
 22 54  1  0
 23 55  1  0
 29 56  1  0
 30 57  1  0
 32 58  1  0
 33 59  1  0
 34 60  1  0
 37 61  1  0
 37 62  1  0
 37 63  1  0
M  CHG  2  10  -1  25  -1
M  END
>  <UniqueID>  (17) 
17

>  <SMILES>  (17) 
COc1ccc(CC(=O)[N-]c2cc(S(=O)(=O)N3CCCC3)ccc2[N-]C(=O)c2ccncc2)cc1OC

>  <Energy>  (17) 
80.11681802307578

>  <Genealogy>  (17) 
COc1ccc(CC(=O)[N-]c2cc(S(=O)(=O)N3CCCC3)ccc2[N-]C(=O)c2ccncc2)cc1OC (protonated)
COc1ccc(CC(=O)[N-]c2cc(S(=O)(=O)N3CCCC3)ccc2[N-]C(=O)c2ccncc2)cc1OC (3D coordinates assigned)
COc1ccc(CC(=O)[N-]c2cc(S(=O)(=O)N3CCCC3)ccc2[N-]C(=O)c2ccncc2)cc1OC (nonaromatic ring conformer: 80.11681802307578 kcal/mol)

>  <smiles>  (17) 
COc1ccc(CC(=O)Nc2cc(S(=O)(=O)N3CCCC3)ccc2NC(=O)c2ccncc2)cc1OC

>  <score_type>  (17) 
oracle

>  <origin>  (17) 
adg

>  <m_score__min__energy>  (17) 
-13.539999999999999

>  <m_primary>  (17) 
energy

$$$$
17:0
     RDKit          3D

 28 29  0  0  0  0  0  0  0  0999 V2000
   57.8111   23.9702   43.7653 H   0  0  0  0  0  0  0  0  0  0  0  0
   57.3760   24.9120   44.1310 C   0  0  0  0  0  0  0  0  0  0  0  0
   57.5773   25.8538   43.5995 H   0  0  0  0  0  0  0  0  0  0  0  0
   56.6050   24.9120   45.2180 C   0  0  0  0  0  0  0  0  0  0  0  0
   56.4178   23.9581   45.7328 H   0  0  0  0  0  0  0  0  0  0  0  0
   55.9940   26.1380   45.7570 C   0  0  0  0  0  0  0  0  0  0  0  0
   54.7540   26.1450   45.9930 O   0  0  0  0  0  0  0  0  0  0  0  0
   56.7980   27.3040   46.0080 N   0  0  0  0  0  0  0  0  0  0  0  0
   56.7420   28.4290   45.3590 C   0  0  0  0  0  0  0  0  0  0  0  0
   55.6010   28.9840   44.8910 N   0  0  0  0  0  0  0  0  0  0  0  0
   55.8440   30.1620   44.2580 C   0  0  0  0  0  0  0  0  0  0  0  0
   55.0444   30.7737   43.8148 H   0  0  0  0  0  0  0  0  0  0  0  0
   57.1850   30.5330   44.2150 C   0  0  0  0  0  0  0  0  0  0  0  0
   57.7230   31.8080   43.6490 C   0  0  0  0  0  0  0  0  0  0  0  0
   58.6293   31.5927   43.0640 H   0  0  0  0  0  0  0  0  0  0  0  0
   56.9600   32.2651   43.0018 H   0  0  0  0  0  0  0  0  0  0  0  0
   58.0630   32.7630   44.7600 C   0  0  0  0  0  0  0  0  0  0  0  0
   57.7900   32.4230   46.0960 C   0  0  0  0  0  0  0  0  0  0  0  0
   57.2982   31.4670   46.3286 H   0  0  0  0  0  0  0  0  0  0  0  0
   58.1410   33.2950   47.1300 C   0  0  0  0  0  0  0  0  0  0  0  0
   57.9198   33.0267   48.1736 H   0  0  0  0  0  0  0  0  0  0  0  0
   58.7730   34.5080   46.8400 C   0  0  0  0  0  0  0  0  0  0  0  0
   59.0445   35.1951   47.6550 H   0  0  0  0  0  0  0  0  0  0  0  0
   59.0600   34.8480   45.5150 C   0  0  0  0  0  0  0  0  0  0  0  0
   59.6810   36.0200   45.2360 F   0  0  0  0  0  0  0  0  0  0  0  0
   58.7110   33.9780   44.4770 C   0  0  0  0  0  0  0  0  0  0  0  0
   58.9443   34.2453   43.4358 H   0  0  0  0  0  0  0  0  0  0  0  0
   58.0940   29.3650   45.0170 S   0  0  0  0  0  0  0  0  0  0  0  0
  1  2  1  0
  2  3  1  0
  2  4  2  0
  4  5  1  0
  4  6  1  0
  6  7  2  0
  6  8  1  0
  8  9  2  0
  9 10  1  0
 10 11  1  0
 11 12  1  0
 11 13  2  0
 13 14  1  0
 14 15  1  0
 14 16  1  0
 14 17  1  0
 17 18  2  0
 18 19  1  0
 18 20  1  0
 20 21  1  0
 20 22  2  0
 22 23  1  0
 22 24  1  0
 24 25  1  0
 24 26  2  0
 26 27  1  0
 13 28  1  0
 28  9  1  0
 26 17  1  0
M  CHG  1  10  -1
M  END
>  <UniqueID>  (18) 
18

>  <SMILES>  (18) 
C=CC(=O)/N=c1\[n-]cc(Cc2cccc(F)c2)s1

>  <Energy>  (18) 
56.37588765577109

>  <Genealogy>  (18) 
C=CC(=O)N=c1[n-]cc(Cc2cccc(F)c2)s1 (protonated)
C=CC(=O)/N=c1\[n-]cc(Cc2cccc(F)c2)s1 (cis-trans isomerization)
C=CC(=O)/N=c1\[n-]cc(Cc2cccc(F)c2)s1 (3D coordinates assigned)
C=CC(=O)/N=c1\[n-]cc(Cc2cccc(F)c2)s1 (optimized conformer: 56.37588765577109 kcal/mol)

>  <smiles>  (18) 
C=CC(=O)N=c1[nH]cc(Cc2cccc(F)c2)s1

>  <score_type>  (18) 
oracle

>  <origin>  (18) 
adg

>  <m_score__min__energy>  (18) 
-9.4299999999999997

>  <m_primary>  (18) 
energy

$$$$
18:0
     RDKit          3D

 57 60  0  0  0  0  0  0  0  0999 V2000
   55.1980   29.4380   43.8280 O   0  0  0  0  0  0  0  0  0  0  0  0
   56.3220   29.8200   44.2520 C   0  0  0  0  0  0  0  0  0  0  0  0
   57.2690   30.5190   43.3660 C   0  0  0  0  0  0  0  0  0  0  0  0
   57.4050   31.8520   43.2670 C   0  0  0  0  0  0  0  0  0  0  0  0
   57.7930   32.7570   44.3710 C   0  0  0  0  0  0  0  0  0  0  0  0
   58.8970   33.6070   44.2130 C   0  0  0  0  0  0  0  0  0  0  0  0
   59.2400   34.5040   45.2260 C   0  0  0  0  0  0  0  0  0  0  0  0
   58.4600   34.5600   46.3820 C   0  0  0  0  0  0  0  0  0  0  0  0
   57.3720   33.7550   46.5090 N   0  0  0  0  0  0  0  0  0  0  0  0
   57.0180   32.8720   45.5380 C   0  0  0  0  0  0  0  0  0  0  0  0
   56.6880   29.6020   45.6180 N   0  0  0  0  0  0  0  0  0  0  0  0
   58.0380   29.5370   46.0930 C   0  0  0  0  0  0  0  0  0  0  0  0
   58.4660   30.4980   47.0160 C   0  0  0  0  0  0  0  0  0  0  0  0
   59.7890   30.5040   47.4790 C   0  0  0  0  0  0  0  0  0  0  0  0
   60.3220   31.7450   48.6160 S   0  0  0  0  0  0  0  0  0  0  0  0
   60.3590   31.1620   50.0010 O   0  0  0  0  0  0  0  0  0  0  0  0
   59.3300   32.8740   48.6130 O   0  0  0  0  0  0  0  0  0  0  0  0
   61.8990   32.3730   48.2030 N   0  0  0  0  0  0  0  0  0  0  0  0
   61.8440   33.1190   46.9350 C   0  0  0  0  0  0  0  0  0  0  0  0
   63.1830   33.8380   46.6710 C   0  0  0  0  0  0  0  0  0  0  0  0
   64.1800   33.4180   47.5830 O   0  0  0  0  0  0  0  0  0  0  0  0
   63.8040   33.7810   48.9010 C   0  0  0  0  0  0  0  0  0  0  0  0
   62.4090   33.2390   49.2770 C   0  0  0  0  0  0  0  0  0  0  0  0
   60.6830   29.5270   47.0290 C   0  0  0  0  0  0  0  0  0  0  0  0
   60.2560   28.5430   46.1340 C   0  0  0  0  0  0  0  0  0  0  0  0
   58.9310   28.5270   45.6680 C   0  0  0  0  0  0  0  0  0  0  0  0
   58.4810   27.4470   44.8300 N   0  0  0  0  0  0  0  0  0  0  0  0
   58.1160   26.1690   45.4470 C   0  0  0  0  0  0  0  0  0  0  0  0
   57.1500   25.4120   44.5320 C   0  0  0  0  0  0  0  0  0  0  0  0
   57.6780   25.3020   43.2240 O   0  0  0  0  0  0  0  0  0  0  0  0
   57.7870   26.5880   42.6420 C   0  0  0  0  0  0  0  0  0  0  0  0
   58.8070   27.4450   43.4020 C   0  0  0  0  0  0  0  0  0  0  0  0
   57.9191   29.8976   42.7326 H   0  0  0  0  0  0  0  0  0  0  0  0
   57.2120   32.3077   42.2846 H   0  0  0  0  0  0  0  0  0  0  0  0
   59.4935   33.5669   43.2896 H   0  0  0  0  0  0  0  0  0  0  0  0
   60.1160   35.1599   45.1143 H   0  0  0  0  0  0  0  0  0  0  0  0
   58.7259   35.2562   47.1911 H   0  0  0  0  0  0  0  0  0  0  0  0
   56.1227   32.2458   45.6659 H   0  0  0  0  0  0  0  0  0  0  0  0
   57.7574   31.2558   47.3816 H   0  0  0  0  0  0  0  0  0  0  0  0
   61.6411   32.4184   46.1116 H   0  0  0  0  0  0  0  0  0  0  0  0
   61.0438   33.8710   46.9998 H   0  0  0  0  0  0  0  0  0  0  0  0
   63.5155   33.6118   45.6472 H   0  0  0  0  0  0  0  0  0  0  0  0
   63.0279   34.9194   46.7995 H   0  0  0  0  0  0  0  0  0  0  0  0
   64.5443   33.3743   49.6057 H   0  0  0  0  0  0  0  0  0  0  0  0
   63.7656   34.8792   48.9519 H   0  0  0  0  0  0  0  0  0  0  0  0
   62.4827   32.6588   50.2086 H   0  0  0  0  0  0  0  0  0  0  0  0
   61.7192   34.0843   49.4172 H   0  0  0  0  0  0  0  0  0  0  0  0
   61.7252   29.5334   47.3808 H   0  0  0  0  0  0  0  0  0  0  0  0
   60.9637   27.7739   45.7911 H   0  0  0  0  0  0  0  0  0  0  0  0
   59.0225   25.5653   45.6013 H   0  0  0  0  0  0  0  0  0  0  0  0
   57.6288   26.3576   46.4150 H   0  0  0  0  0  0  0  0  0  0  0  0
   56.9829   24.4039   44.9393 H   0  0  0  0  0  0  0  0  0  0  0  0
   56.2020   25.9678   44.4836 H   0  0  0  0  0  0  0  0  0  0  0  0
   58.1113   26.4842   41.5960 H   0  0  0  0  0  0  0  0  0  0  0  0
   56.8053   27.0817   42.6913 H   0  0  0  0  0  0  0  0  0  0  0  0
   59.8149   27.0288   43.2573 H   0  0  0  0  0  0  0  0  0  0  0  0
   58.7754   28.4756   43.0189 H   0  0  0  0  0  0  0  0  0  0  0  0
  1  2  2  0
  2  3  1  0
  3  4  2  3
  4  5  1  0
  5  6  2  0
  6  7  1  0
  7  8  2  0
  8  9  1  0
  9 10  2  0
  2 11  1  0
 11 12  1  0
 12 13  2  0
 13 14  1  0
 14 15  1  0
 15 16  2  0
 15 17  2  0
 15 18  1  0
 18 19  1  0
 19 20  1  0
 20 21  1  0
 21 22  1  0
 22 23  1  0
 14 24  2  0
 24 25  1  0
 25 26  2  0
 26 27  1  0
 27 28  1  0
 28 29  1  0
 29 30  1  0
 30 31  1  0
 31 32  1  0
 10  5  1  0
 26 12  1  0
 32 27  1  0
 23 18  1  0
  3 33  1  0
  4 34  1  0
  6 35  1  0
  7 36  1  0
  8 37  1  0
 10 38  1  0
 13 39  1  0
 19 40  1  0
 19 41  1  0
 20 42  1  0
 20 43  1  0
 22 44  1  0
 22 45  1  0
 23 46  1  0
 23 47  1  0
 24 48  1  0
 25 49  1  0
 28 50  1  0
 28 51  1  0
 29 52  1  0
 29 53  1  0
 31 54  1  0
 31 55  1  0
 32 56  1  0
 32 57  1  0
M  CHG  1  11  -1
M  END
>  <UniqueID>  (19) 
19

>  <SMILES>  (19) 
O=C(C=Cc1cccnc1)[N-]c1cc(S(=O)(=O)N2CCOCC2)ccc1N1CCOCC1

>  <Energy>  (19) 
84.22369618846042

>  <Genealogy>  (19) 
O=C(C=Cc1cccnc1)[N-]c1cc(S(=O)(=O)N2CCOCC2)ccc1N1CCOCC1 (protonated)
O=C(C=Cc1cccnc1)[N-]c1cc(S(=O)(=O)N2CCOCC2)ccc1N1CCOCC1 (3D coordinates assigned)
O=C(C=Cc1cccnc1)[N-]c1cc(S(=O)(=O)N2CCOCC2)ccc1N1CCOCC1 (nonaromatic ring conformer: 84.22369618846042 kcal/mol)

>  <smiles>  (19) 
O=C(C=Cc1cccnc1)Nc1cc(S(=O)(=O)N2CCOCC2)ccc1N1CCOCC1

>  <score_type>  (19) 
oracle

>  <origin>  (19) 
adg

>  <m_score__min__energy>  (19) 
-10.970000000000001

>  <m_primary>  (19) 
energy

$$$$
19:0
     RDKit          3D

 47 49  0  0  0  0  0  0  0  0999 V2000
   58.5130   27.0930   43.8210 C   0  0  0  0  0  0  0  0  0  0  0  0
   57.8100   26.3720   44.7070 C   0  0  0  0  0  0  0  0  0  0  0  0
   57.1420   27.1040   45.8490 C   0  0  0  0  0  0  0  0  0  0  0  0
   57.2040   28.5430   45.6190 N   0  0  0  0  0  0  0  0  0  0  0  0
   56.3940   29.2290   44.6610 C   0  0  0  0  0  0  0  0  0  0  0  0
   55.1640   29.4010   44.8670 O   0  0  0  0  0  0  0  0  0  0  0  0
   57.0240   29.7580   43.4080 C   0  0  0  0  0  0  0  0  0  0  0  0
   57.1450   31.2870   43.4390 C   0  0  0  0  0  0  0  0  0  0  0  0
   57.8590   31.7720   44.6620 C   0  0  0  0  0  0  0  0  0  0  0  0
   58.5140   30.9850   45.5350 N   0  0  0  0  0  0  0  0  0  0  0  0
   58.9660   31.8700   46.4430 C   0  0  0  0  0  0  0  0  0  0  0  0
   59.7070   31.4900   47.6880 C   0  0  0  0  0  0  0  0  0  0  0  0
   59.8220   30.0350   47.7850 N   0  0  0  0  0  0  0  0  0  0  0  0
   60.2610   29.2720   46.7940 N   0  0  0  0  0  0  0  0  0  0  0  0
   60.2690   28.0010   47.2420 C   0  0  0  0  0  0  0  0  0  0  0  0
   60.6350   26.8250   46.3960 C   0  0  0  0  0  0  0  0  0  0  0  0
   59.8080   27.9460   48.5450 C   0  0  0  0  0  0  0  0  0  0  0  0
   59.5450   29.2650   48.8610 C   0  0  0  0  0  0  0  0  0  0  0  0
   59.0040   29.7620   50.1670 C   0  0  0  0  0  0  0  0  0  0  0  0
   58.5940   33.1300   46.1400 N   0  0  0  0  0  0  0  0  0  0  0  0
   57.9180   33.0300   45.0340 O   0  0  0  0  0  0  0  0  0  0  0  0
   57.7090   24.8930   44.5900 C   0  0  0  0  0  0  0  0  0  0  0  0
   56.9530   24.1670   43.6640 C   0  0  0  0  0  0  0  0  0  0  0  0
   57.0420   22.7780   43.8290 C   0  0  0  0  0  0  0  0  0  0  0  0
   57.8650   22.3900   44.8750 C   0  0  0  0  0  0  0  0  0  0  0  0
   58.4800   23.7780   45.5930 S   0  0  0  0  0  0  0  0  0  0  0  0
   59.0121   26.5932   42.9777 H   0  0  0  0  0  0  0  0  0  0  0  0
   58.5904   28.1841   43.9377 H   0  0  0  0  0  0  0  0  0  0  0  0
   56.0899   26.7904   45.9177 H   0  0  0  0  0  0  0  0  0  0  0  0
   57.6631   26.8641   46.7876 H   0  0  0  0  0  0  0  0  0  0  0  0
   58.0285   29.3225   43.3021 H   0  0  0  0  0  0  0  0  0  0  0  0
   56.3840   29.4806   42.5574 H   0  0  0  0  0  0  0  0  0  0  0  0
   57.7018   31.6166   42.5494 H   0  0  0  0  0  0  0  0  0  0  0  0
   56.1282   31.7065   43.4524 H   0  0  0  0  0  0  0  0  0  0  0  0
   58.6180   29.9460   45.5270 H   0  0  0  0  0  0  0  0  0  0  0  0
   60.7136   31.9327   47.6608 H   0  0  0  0  0  0  0  0  0  0  0  0
   59.1545   31.8648   48.5622 H   0  0  0  0  0  0  0  0  0  0  0  0
   60.8993   25.9758   47.0432 H   0  0  0  0  0  0  0  0  0  0  0  0
   59.7800   26.5499   45.7610 H   0  0  0  0  0  0  0  0  0  0  0  0
   61.4951   27.0836   45.7610 H   0  0  0  0  0  0  0  0  0  0  0  0
   59.6804   27.0582   49.1818 H   0  0  0  0  0  0  0  0  0  0  0  0
   59.5373   29.2721   50.9950 H   0  0  0  0  0  0  0  0  0  0  0  0
   59.1464   30.8508   50.2324 H   0  0  0  0  0  0  0  0  0  0  0  0
   57.9312   29.5280   50.2324 H   0  0  0  0  0  0  0  0  0  0  0  0
   56.3454   24.6417   42.8795 H   0  0  0  0  0  0  0  0  0  0  0  0
   56.5079   22.0616   43.1875 H   0  0  0  0  0  0  0  0  0  0  0  0
   58.0778   21.3550   45.1809 H   0  0  0  0  0  0  0  0  0  0  0  0
  1  2  2  0
  2  3  1  0
  3  4  1  0
  4  5  1  0
  5  6  2  0
  5  7  1  0
  7  8  1  0
  8  9  1  0
  9 10  2  0
 10 11  1  0
 11 12  1  0
 12 13  1  0
 13 14  1  0
 14 15  2  0
 15 16  1  0
 15 17  1  0
 17 18  2  0
 18 19  1  0
 11 20  2  0
 20 21  1  0
  2 22  1  0
 22 23  2  0
 23 24  1  0
 24 25  2  0
 25 26  1  0
 21  9  1  0
 26 22  1  0
 18 13  1  0
  1 27  1  0
  1 28  1  0
  3 29  1  0
  3 30  1  0
  7 31  1  0
  7 32  1  0
  8 33  1  0
  8 34  1  0
 10 35  1  0
 12 36  1  0
 12 37  1  0
 16 38  1  0
 16 39  1  0
 16 40  1  0
 17 41  1  0
 19 42  1  0
 19 43  1  0
 19 44  1  0
 23 45  1  0
 24 46  1  0
 25 47  1  0
M  CHG  2   4  -1  10   1
M  END
>  <UniqueID>  (20) 
20

>  <SMILES>  (20) 
C=C(C[N-]C(=O)CCc1[nH+]c(Cn2nc(C)cc2C)no1)c1cccs1

>  <Energy>  (20) 
126.3405220462045

>  <Genealogy>  (20) 
C=C(C[N-]C(=O)CCc1[nH+]c(Cn2nc(C)cc2C)no1)c1cccs1 (protonated)
C=C(C[N-]C(=O)CCc1[nH+]c(Cn2nc(C)cc2C)no1)c1cccs1 (3D coordinates assigned)
C=C(C[N-]C(=O)CCc1[nH+]c(Cn2nc(C)cc2C)no1)c1cccs1 (optimized conformer: 126.3405220462045 kcal/mol)

>  <smiles>  (20) 
C=C(CNC(=O)CCc1nc(Cn2nc(C)cc2C)no1)c1cccs1

>  <score_type>  (20) 
oracle

>  <origin>  (20) 
adg

>  <m_score__min__energy>  (20) 
-8.4399999999999995

>  <m_primary>  (20) 
energy

$$$$
20:0
     RDKit          3D

 55 58  0  0  0  0  0  0  0  0999 V2000
   58.9480   28.9480   48.7990 C   0  0  0  0  0  0  0  0  0  0  0  0
   58.8600   29.7490   47.7250 C   0  0  0  0  0  0  0  0  0  0  0  0
   58.6180   29.3640   46.3930 C   0  0  0  0  0  0  0  0  0  0  0  0
   58.5370   28.1480   45.8190 C   0  0  0  0  0  0  0  0  0  0  0  0
   57.4230   27.2060   45.9710 C   0  0  0  0  0  0  0  0  0  0  0  0
   57.5370   26.0040   46.5580 N   0  0  0  0  0  0  0  0  0  0  0  0
   56.2650   25.5360   46.5480 C   0  0  0  0  0  0  0  0  0  0  0  0
   55.9590   24.4070   47.0090 O   0  0  0  0  0  0  0  0  0  0  0  0
   55.3490   26.3770   46.0170 N   0  0  0  0  0  0  0  0  0  0  0  0
   56.0990   27.4340   45.6640 C   0  0  0  0  0  0  0  0  0  0  0  0
   55.5900   28.5870   45.0840 O   0  0  0  0  0  0  0  0  0  0  0  0
   58.4150   30.5360   45.6860 C   0  0  0  0  0  0  0  0  0  0  0  0
   58.5600   31.5770   46.5770 C   0  0  0  0  0  0  0  0  0  0  0  0
   58.3120   32.9870   46.2310 C   0  0  0  0  0  0  0  0  0  0  0  0
   57.3190   33.2970   45.5290 O   0  0  0  0  0  0  0  0  0  0  0  0
   59.2290   33.9970   46.6560 N   0  0  0  0  0  0  0  0  0  0  0  0
   60.5890   34.1400   46.1370 C   0  0  0  0  0  0  0  0  0  0  0  0
   61.6120   33.7430   47.1740 C   0  0  0  0  0  0  0  0  0  0  0  0
   61.3800   34.0110   48.5330 C   0  0  0  0  0  0  0  0  0  0  0  0
   62.3170   33.6310   49.4980 C   0  0  0  0  0  0  0  0  0  0  0  0
   63.5080   32.9810   49.1250 C   0  0  0  0  0  0  0  0  0  0  0  0
   64.4960   32.5880   50.1550 C   0  0  0  0  0  0  0  0  0  0  0  0
   65.2840   31.6240   49.9460 O   0  0  0  0  0  0  0  0  0  0  0  0
   64.5160   33.2710   51.4100 N   0  0  0  0  0  0  0  0  0  0  0  0
   65.3530   34.3800   51.7790 C   0  0  0  0  0  0  0  0  0  0  0  0
   64.8260   35.5080   52.4350 C   0  0  0  0  0  0  0  0  0  0  0  0
   65.6660   36.5510   52.8400 C   0  0  0  0  0  0  0  0  0  0  0  0
   67.0390   36.4770   52.6050 C   0  0  0  0  0  0  0  0  0  0  0  0
   67.5770   35.3590   51.9610 C   0  0  0  0  0  0  0  0  0  0  0  0
   66.7430   34.3030   51.5520 C   0  0  0  0  0  0  0  0  0  0  0  0
   67.3180   33.1750   50.8830 N   0  0  0  0  0  0  0  0  0  0  0  0
   63.7420   32.7200   47.7610 C   0  0  0  0  0  0  0  0  0  0  0  0
   62.7990   33.0930   46.7950 C   0  0  0  0  0  0  0  0  0  0  0  0
   58.8640   31.1060   47.8100 N   0  0  0  0  0  0  0  0  0  0  0  0
   59.0920   31.9210   49.0130 C   0  0  0  0  0  0  0  0  0  0  0  0
   59.1423   29.3791   49.7922 H   0  0  0  0  0  0  0  0  0  0  0  0
   58.8258   27.8607   48.6857 H   0  0  0  0  0  0  0  0  0  0  0  0
   59.3776   27.8349   45.1823 H   0  0  0  0  0  0  0  0  0  0  0  0
   54.6920   28.9700   45.3820 H   0  0  0  0  0  0  0  0  0  0  0  0
   58.1818   30.6207   44.6144 H   0  0  0  0  0  0  0  0  0  0  0  0
   60.7055   33.4961   45.2528 H   0  0  0  0  0  0  0  0  0  0  0  0
   60.7522   35.1950   45.8718 H   0  0  0  0  0  0  0  0  0  0  0  0
   60.4558   34.5228   48.8396 H   0  0  0  0  0  0  0  0  0  0  0  0
   62.1214   33.8422   50.5597 H   0  0  0  0  0  0  0  0  0  0  0  0
   63.7454   35.5701   52.6308 H   0  0  0  0  0  0  0  0  0  0  0  0
   65.2426   37.4317   53.3451 H   0  0  0  0  0  0  0  0  0  0  0  0
   67.6976   37.2975   52.9261 H   0  0  0  0  0  0  0  0  0  0  0  0
   68.6595   35.3048   51.7729 H   0  0  0  0  0  0  0  0  0  0  0  0
   68.3220   33.1750   50.6170 H   0  0  0  0  0  0  0  0  0  0  0  0
   66.7510   32.3310   50.6420 H   0  0  0  0  0  0  0  0  0  0  0  0
   64.6717   32.2198   47.4522 H   0  0  0  0  0  0  0  0  0  0  0  0
   62.9885   32.8759   45.7334 H   0  0  0  0  0  0  0  0  0  0  0  0
   58.9203   31.3073   49.9096 H   0  0  0  0  0  0  0  0  0  0  0  0
   60.1280   32.2906   49.0145 H   0  0  0  0  0  0  0  0  0  0  0  0
   58.3982   32.7746   49.0145 H   0  0  0  0  0  0  0  0  0  0  0  0
  1  2  2  0
  2  3  1  0
  3  4  2  3
  4  5  1  0
  5  6  1  0
  6  7  1  0
  7  8  2  0
  7  9  1  0
  9 10  1  0
 10 11  1  0
  3 12  1  0
 12 13  2  0
 13 14  1  0
 14 15  2  0
 14 16  1  0
 16 17  1  0
 17 18  1  0
 18 19  2  0
 19 20  1  0
 20 21  2  0
 21 22  1  0
 22 23  2  0
 22 24  1  0
 24 25  1  0
 25 26  2  0
 26 27  1  0
 27 28  2  0
 28 29  1  0
 29 30  2  0
 30 31  1  0
 21 32  1  0
 32 33  2  0
 13 34  1  0
 34 35  1  0
 34  2  1  0
 10  5  2  0
 33 18  1  0
 30 25  1  0
  1 36  1  0
  1 37  1  0
  4 38  1  0
 11 39  1  0
 12 40  1  0
 17 41  1  0
 17 42  1  0
 19 43  1  0
 20 44  1  0
 26 45  1  0
 27 46  1  0
 28 47  1  0
 29 48  1  0
 31 49  1  0
 31 50  1  0
 32 51  1  0
 33 52  1  0
 35 53  1  0
 35 54  1  0
 35 55  1  0
M  CHG  4   6  -1   9  -1  16  -1  24  -1
M  END
>  <UniqueID>  (21) 
21

>  <SMILES>  (21) 
C=c1c(=Cc2[n-]c(=O)[n-]c2O)cc(C(=O)[N-]Cc2ccc(C(=O)[N-]c3ccccc3N)cc2)n1C

>  <Energy>  (21) 
135.6436842883624

>  <Genealogy>  (21) 
C=c1c(=Cc2[n-]c(=O)[n-]c2O)cc(C(=O)[N-]Cc2ccc(C(=O)[N-]c3ccccc3N)cc2)n1C (protonated)
C=c1c(=Cc2[n-]c(=O)[n-]c2O)cc(C(=O)[N-]Cc2ccc(C(=O)[N-]c3ccccc3N)cc2)n1C (3D coordinates assigned)
C=c1c(=Cc2[n-]c(=O)[n-]c2O)cc(C(=O)[N-]Cc2ccc(C(=O)[N-]c3ccccc3N)cc2)n1C (optimized conformer: 135.6436842883624 kcal/mol)

>  <smiles>  (21) 
C=c1c(=Cc2[nH]c(=O)[nH]c2O)cc(C(=O)NCc2ccc(C(=O)Nc3ccccc3N)cc2)n1C

>  <score_type>  (21) 
oracle

>  <origin>  (21) 
adg

>  <m_score__min__energy>  (21) 
-16.5

>  <m_primary>  (21) 
energy

$$$$
21:0
     RDKit          3D

 36 37  0  0  0  0  0  0  0  0999 V2000
   59.8320   34.5550   48.7660 C   0  0  0  0  0  0  0  0  0  0  0  0
   59.0550   33.4420   48.2210 N   0  0  0  0  0  0  0  0  0  0  0  0
   58.6490   32.3450   49.1010 C   0  0  0  0  0  0  0  0  0  0  0  0
   58.6370   33.4800   46.8480 C   0  0  0  0  0  0  0  0  0  0  0  0
   58.1840   34.5580   46.3060 N   0  0  0  0  0  0  0  0  0  0  0  0
   57.8000   34.2920   44.9280 C   0  0  0  0  0  0  0  0  0  0  0  0
   58.0650   32.7940   44.7210 C   0  0  0  0  0  0  0  0  0  0  0  0
   58.6440   32.3510   45.9810 N   0  0  0  0  0  0  0  0  0  0  0  0
   59.5700   31.2190   46.0750 C   0  0  0  0  0  0  0  0  0  0  0  0
   58.8210   29.9120   46.0640 C   0  0  0  0  0  0  0  0  0  0  0  0
   59.0990   28.9250   47.0230 C   0  0  0  0  0  0  0  0  0  0  0  0
   58.3770   27.7290   47.0370 C   0  0  0  0  0  0  0  0  0  0  0  0
   57.3610   27.5070   46.0980 C   0  0  0  0  0  0  0  0  0  0  0  0
   56.4580   25.9970   46.1100 S   0  0  0  0  0  0  0  0  0  0  0  0
   54.7670   26.3390   46.0220 N   0  0  0  0  0  0  0  0  0  0  0  0
   56.8630   25.1510   44.9360 O   0  0  0  0  0  0  0  0  0  0  0  0
   56.7520   25.2390   47.3760 O   0  0  0  0  0  0  0  0  0  0  0  0
   57.0860   28.4860   45.1330 C   0  0  0  0  0  0  0  0  0  0  0  0
   57.8090   29.6810   45.1170 C   0  0  0  0  0  0  0  0  0  0  0  0
   59.8056   34.5172   49.8650 H   0  0  0  0  0  0  0  0  0  0  0  0
   60.8738   34.4783   48.4214 H   0  0  0  0  0  0  0  0  0  0  0  0
   59.4009   35.5065   48.4214 H   0  0  0  0  0  0  0  0  0  0  0  0
   58.7637   32.6549   50.1502 H   0  0  0  0  0  0  0  0  0  0  0  0
   57.5968   32.0896   48.9071 H   0  0  0  0  0  0  0  0  0  0  0  0
   59.2814   31.4661   48.9071 H   0  0  0  0  0  0  0  0  0  0  0  0
   56.7353   34.5209   44.7727 H   0  0  0  0  0  0  0  0  0  0  0  0
   58.3638   34.9125   44.2159 H   0  0  0  0  0  0  0  0  0  0  0  0
   57.1271   32.2578   44.5138 H   0  0  0  0  0  0  0  0  0  0  0  0
   58.7270   32.5999   43.8642 H   0  0  0  0  0  0  0  0  0  0  0  0
   60.2605   31.2460   45.2191 H   0  0  0  0  0  0  0  0  0  0  0  0
   60.1276   31.2975   47.0199 H   0  0  0  0  0  0  0  0  0  0  0  0
   59.8903   29.0944   47.7681 H   0  0  0  0  0  0  0  0  0  0  0  0
   58.6070   26.9588   47.7879 H   0  0  0  0  0  0  0  0  0  0  0  0
   54.5670   27.0760   46.7340 H   0  0  0  0  0  0  0  0  0  0  0  0
   56.2978   28.3124   44.3856 H   0  0  0  0  0  0  0  0  0  0  0  0
   57.5848   30.4456   44.3587 H   0  0  0  0  0  0  0  0  0  0  0  0
  1  2  1  0
  2  3  1  0
  2  4  1  0
  4  5  2  0
  5  6  1  0
  6  7  1  0
  7  8  1  0
  8  9  1  0
  9 10  1  0
 10 11  2  0
 11 12  1  0
 12 13  2  0
 13 14  1  0
 14 15  1  0
 14 16  2  0
 14 17  2  0
 13 18  1  0
 18 19  2  0
  8  4  1  0
 19 10  1  0
  1 20  1  0
  1 21  1  0
  1 22  1  0
  3 23  1  0
  3 24  1  0
  3 25  1  0
  6 26  1  0
  6 27  1  0
  7 28  1  0
  7 29  1  0
  9 30  1  0
  9 31  1  0
 11 32  1  0
 12 33  1  0
 15 34  1  0
 18 35  1  0
 19 36  1  0
M  CHG  1  15  -1
M  END
>  <UniqueID>  (22) 
22

>  <SMILES>  (22) 
CN(C)C1=NCCN1Cc1ccc(S([NH-])(=O)=O)cc1

>  <Energy>  (22) 
45.88004672645322

>  <Genealogy>  (22) 
CN(C)C1=NCCN1Cc1ccc(S([NH-])(=O)=O)cc1 (protonated)
CN(C)C1=NCCN1Cc1ccc(S([NH-])(=O)=O)cc1 (3D coordinates assigned)
CN(C)C1=NCCN1Cc1ccc(S([NH-])(=O)=O)cc1 (nonaromatic ring conformer: 45.88004672645322 kcal/mol)

>  <smiles>  (22) 
CN(C)C1=NCCN1Cc1ccc(S(N)(=O)=O)cc1

>  <score_type>  (22) 
oracle

>  <origin>  (22) 
adg

>  <m_score__min__energy>  (22) 
-9.6500000000000004

>  <m_primary>  (22) 
energy

$$$$
22:0
     RDKit          3D

 56 59  0  0  0  0  0  0  0  0999 V2000
   63.1520   33.8670   46.8320 C   0  0  0  0  0  0  0  0  0  0  0  0
   61.7100   33.7690   47.2600 C   0  0  0  0  0  0  0  0  0  0  0  0
   60.7110   34.2180   46.3810 C   0  0  0  0  0  0  0  0  0  0  0  0
   59.3660   34.1350   46.7330 C   0  0  0  0  0  0  0  0  0  0  0  0
   58.9980   33.6050   47.9670 C   0  0  0  0  0  0  0  0  0  0  0  0
   59.9720   33.1650   48.8680 C   0  0  0  0  0  0  0  0  0  0  0  0
   59.5540   32.6000   50.1190 N   0  0  0  0  0  0  0  0  0  0  0  0
   59.8730   31.2050   50.4290 C   0  0  0  0  0  0  0  0  0  0  0  0
   59.6290   30.9060   51.9180 C   0  0  0  0  0  0  0  0  0  0  0  0
   58.2910   31.3490   52.4010 N   0  0  0  0  0  0  0  0  0  0  0  0
   57.3020   30.2980   52.2410 C   0  0  0  0  0  0  0  0  0  0  0  0
   57.4440   29.4490   51.3170 O   0  0  0  0  0  0  0  0  0  0  0  0
   56.0880   30.2130   53.1020 C   0  0  0  0  0  0  0  0  0  0  0  0
   56.1900   30.5120   54.4730 C   0  0  0  0  0  0  0  0  0  0  0  0
   55.0730   30.4260   55.3020 C   0  0  0  0  0  0  0  0  0  0  0  0
   53.8390   30.0360   54.7810 C   0  0  0  0  0  0  0  0  0  0  0  0
   53.7120   29.7300   53.4190 C   0  0  0  0  0  0  0  0  0  0  0  0
   52.3860   29.2900   52.8560 C   0  0  0  0  0  0  0  0  0  0  0  0
   51.9190   30.2450   51.7870 C   0  0  0  0  0  0  0  0  0  0  0  0
   51.8860   29.8440   50.4440 C   0  0  0  0  0  0  0  0  0  0  0  0
   51.4440   30.6990   49.4870 N   0  0  0  0  0  0  0  0  0  0  0  0
   51.0250   31.9500   49.8080 C   0  0  0  0  0  0  0  0  0  0  0  0
   50.6190   32.7280   48.9080 O   0  0  0  0  0  0  0  0  0  0  0  0
   51.0380   32.3600   51.1020 N   0  0  0  0  0  0  0  0  0  0  0  0
   51.4690   31.5400   52.0940 C   0  0  0  0  0  0  0  0  0  0  0  0
   51.4580   31.9520   53.2850 O   0  0  0  0  0  0  0  0  0  0  0  0
   54.8390   29.8140   52.5870 C   0  0  0  0  0  0  0  0  0  0  0  0
   57.7890   32.6170   51.7960 C   0  0  0  0  0  0  0  0  0  0  0  0
   58.8880   33.4350   51.1150 C   0  0  0  0  0  0  0  0  0  0  0  0
   61.3450   33.2650   48.5350 C   0  0  0  0  0  0  0  0  0  0  0  0
   62.3930   32.7690   49.5030 C   0  0  0  0  0  0  0  0  0  0  0  0
   63.7966   33.9108   47.7223 H   0  0  0  0  0  0  0  0  0  0  0  0
   63.4168   32.9848   46.2307 H   0  0  0  0  0  0  0  0  0  0  0  0
   63.2950   34.7769   46.2307 H   0  0  0  0  0  0  0  0  0  0  0  0
   60.9935   34.6394   45.4050 H   0  0  0  0  0  0  0  0  0  0  0  0
   58.5930   34.4888   46.0349 H   0  0  0  0  0  0  0  0  0  0  0  0
   57.9335   33.5321   48.2346 H   0  0  0  0  0  0  0  0  0  0  0  0
   59.2369   30.5458   49.8200 H   0  0  0  0  0  0  0  0  0  0  0  0
   60.9350   31.0280   50.2036 H   0  0  0  0  0  0  0  0  0  0  0  0
   59.7136   29.8204   52.0737 H   0  0  0  0  0  0  0  0  0  0  0  0
   60.3821   31.4689   52.4890 H   0  0  0  0  0  0  0  0  0  0  0  0
   58.4220   31.5180   53.4260 H   0  0  0  0  0  0  0  0  0  0  0  0
   57.1596   30.8162   54.8942 H   0  0  0  0  0  0  0  0  0  0  0  0
   55.1647   30.6666   56.3714 H   0  0  0  0  0  0  0  0  0  0  0  0
   52.9621   29.9684   55.4417 H   0  0  0  0  0  0  0  0  0  0  0  0
   52.4936   28.2854   52.4211 H   0  0  0  0  0  0  0  0  0  0  0  0
   51.6436   29.2764   53.6676 H   0  0  0  0  0  0  0  0  0  0  0  0
   52.2193   28.8335   50.1651 H   0  0  0  0  0  0  0  0  0  0  0  0
   54.7459   29.5652   51.5196 H   0  0  0  0  0  0  0  0  0  0  0  0
   57.0231   32.3679   51.0467 H   0  0  0  0  0  0  0  0  0  0  0  0
   57.3825   33.2311   52.6131 H   0  0  0  0  0  0  0  0  0  0  0  0
   58.4433   34.3125   50.6228 H   0  0  0  0  0  0  0  0  0  0  0  0
   59.6183   33.7732   51.8648 H   0  0  0  0  0  0  0  0  0  0  0  0
   62.0466   32.9329   50.5341 H   0  0  0  0  0  0  0  0  0  0  0  0
   62.5636   31.6946   49.3399 H   0  0  0  0  0  0  0  0  0  0  0  0
   63.3320   33.3182   49.3399 H   0  0  0  0  0  0  0  0  0  0  0  0
  1  2  1  0
  2  3  2  0
  3  4  1  0
  4  5  2  0
  5  6  1  0
  6  7  1  0
  7  8  1  0
  8  9  1  0
  9 10  1  0
 10 11  1  0
 11 12  2  0
 11 13  1  0
 13 14  2  0
 14 15  1  0
 15 16  2  0
 16 17  1  0
 17 18  1  0
 18 19  1  0
 19 20  2  0
 20 21  1  0
 21 22  1  0
 22 23  2  0
 22 24  1  0
 24 25  1  0
 25 26  2  0
 17 27  2  0
 10 28  1  0
 28 29  1  0
  6 30  2  0
 30 31  1  0
 30  2  1  0
 29  7  1  0
 27 13  1  0
 25 19  1  0
  1 32  1  0
  1 33  1  0
  1 34  1  0
  3 35  1  0
  4 36  1  0
  5 37  1  0
  8 38  1  0
  8 39  1  0
  9 40  1  0
  9 41  1  0
 10 42  1  0
 14 43  1  0
 15 44  1  0
 16 45  1  0
 18 46  1  0
 18 47  1  0
 20 48  1  0
 27 49  1  0
 28 50  1  0
 28 51  1  0
 29 52  1  0
 29 53  1  0
 31 54  1  0
 31 55  1  0
 31 56  1  0
M  CHG  3  10   1  21  -1  24  -1
M  END
>  <UniqueID>  (23) 
23

>  <SMILES>  (23) 
Cc1cccc(N2CC[NH+](C(=O)c3cccc(Cc4c[n-]c(=O)[n-]c4=O)c3)CC2)c1C

>  <Energy>  (23) 
79.14201872238735

>  <Genealogy>  (23) 
Cc1cccc(N2CC[NH+](C(=O)c3cccc(Cc4c[n-]c(=O)[n-]c4=O)c3)CC2)c1C (protonated)
Cc1cccc(N2CC[NH+](C(=O)c3cccc(Cc4c[n-]c(=O)[n-]c4=O)c3)CC2)c1C (3D coordinates assigned)
Cc1cccc(N2CC[NH+](C(=O)c3cccc(Cc4c[n-]c(=O)[n-]c4=O)c3)CC2)c1C (nonaromatic ring conformer: 79.14201872238735 kcal/mol)

>  <smiles>  (23) 
Cc1cccc(N2CCN(C(=O)c3cccc(Cc4c[nH]c(=O)[nH]c4=O)c3)CC2)c1C

>  <score_type>  (23) 
oracle

>  <origin>  (23) 
adg

>  <m_score__min__energy>  (23) 
-13.41

>  <m_primary>  (23) 
energy

$$$$
23:0
     RDKit          3D

 31 32  0  0  0  0  0  0  0  0999 V2000
   56.6770   25.7230   46.6390 C   0  0  0  0  0  0  0  0  0  0  0  0
   56.9820   26.9500   46.2060 C   0  0  0  0  0  0  0  0  0  0  0  0
   56.1120   27.7190   45.5220 N   0  0  0  0  0  0  0  0  0  0  0  0
   56.7360   28.8780   45.2380 C   0  0  0  0  0  0  0  0  0  0  0  0
   56.0910   29.9850   44.4640 C   0  0  0  0  0  0  0  0  0  0  0  0
   58.0270   28.8720   45.7580 C   0  0  0  0  0  0  0  0  0  0  0  0
   59.0250   29.9560   45.6350 C   0  0  0  0  0  0  0  0  0  0  0  0
   59.2640   30.4600   44.5040 O   0  0  0  0  0  0  0  0  0  0  0  0
   59.7430   30.4130   46.7910 N   0  0  0  0  0  0  0  0  0  0  0  0
   60.4170   31.6810   46.8700 C   0  0  0  0  0  0  0  0  0  0  0  0
   61.6910   31.7490   47.4540 C   0  0  0  0  0  0  0  0  0  0  0  0
   62.3570   32.9750   47.5620 C   0  0  0  0  0  0  0  0  0  0  0  0
   63.9560   33.0450   48.2810 Cl  0  0  0  0  0  0  0  0  0  0  0  0
   61.7470   34.1450   47.1000 C   0  0  0  0  0  0  0  0  0  0  0  0
   60.4680   34.0920   46.5360 C   0  0  0  0  0  0  0  0  0  0  0  0
   59.6940   35.5640   45.9790 Cl  0  0  0  0  0  0  0  0  0  0  0  0
   59.8010   32.8660   46.4270 C   0  0  0  0  0  0  0  0  0  0  0  0
   58.1890   27.6310   46.3750 C   0  0  0  0  0  0  0  0  0  0  0  0
   59.2760   27.2000   47.0310 C   0  0  0  0  0  0  0  0  0  0  0  0
   57.4226   25.1343   47.1936 H   0  0  0  0  0  0  0  0  0  0  0  0
   55.6804   25.3018   46.4408 H   0  0  0  0  0  0  0  0  0  0  0  0
   55.1350   27.4640   45.2500 H   0  0  0  0  0  0  0  0  0  0  0  0
   55.6630   30.7195   45.1621 H   0  0  0  0  0  0  0  0  0  0  0  0
   56.8440   30.4767   43.8306 H   0  0  0  0  0  0  0  0  0  0  0  0
   55.2920   29.5723   43.8306 H   0  0  0  0  0  0  0  0  0  0  0  0
   59.8600   29.7440   47.5860 H   0  0  0  0  0  0  0  0  0  0  0  0
   62.1695   30.8324   47.8295 H   0  0  0  0  0  0  0  0  0  0  0  0
   62.2731   35.1077   47.1800 H   0  0  0  0  0  0  0  0  0  0  0  0
   58.7909   32.8289   45.9931 H   0  0  0  0  0  0  0  0  0  0  0  0
   59.2859   26.1952   47.4786 H   0  0  0  0  0  0  0  0  0  0  0  0
   60.1579   27.8512   47.1216 H   0  0  0  0  0  0  0  0  0  0  0  0
  1  2  2  0
  2  3  1  0
  3  4  1  0
  4  5  1  0
  4  6  2  0
  6  7  1  0
  7  8  2  0
  7  9  1  0
  9 10  1  0
 10 11  2  0
 11 12  1  0
 12 13  1  0
 12 14  2  0
 14 15  1  0
 15 16  1  0
 15 17  2  0
  6 18  1  0
 18 19  2  0
 18  2  1  0
 17 10  1  0
  1 20  1  0
  1 21  1  0
  3 22  1  0
  5 23  1  0
  5 24  1  0
  5 25  1  0
  9 26  1  0
 11 27  1  0
 14 28  1  0
 17 29  1  0
 19 30  1  0
 19 31  1  0
M  END
>  <UniqueID>  (24) 
24

>  <SMILES>  (24) 
C=c1[nH]c(C)c(C(=O)Nc2cc(Cl)cc(Cl)c2)c1=C

>  <Energy>  (24) 
65.39750518273428

>  <Genealogy>  (24) 
C=c1[nH]c(C)c(C(=O)Nc2cc(Cl)cc(Cl)c2)c1=C (3D coordinates assigned)
C=c1[nH]c(C)c(C(=O)Nc2cc(Cl)cc(Cl)c2)c1=C (optimized conformer: 65.39750518273428 kcal/mol)

>  <smiles>  (24) 
C=c1[nH]c(C)c(C(=O)Nc2cc(Cl)cc(Cl)c2)c1=C

>  <score_type>  (24) 
oracle

>  <origin>  (24) 
adg

>  <m_score__min__energy>  (24) 
-7.0499999999999998

>  <m_primary>  (24) 
energy

$$$$
24:0
     RDKit          3D

 63 66  0  0  0  0  0  0  0  0999 V2000
   55.6450   29.3250   45.1480 O   0  0  0  0  0  0  0  0  0  0  0  0
   56.5800   29.7260   44.4050 C   0  0  0  0  0  0  0  0  0  0  0  0
   57.8820   30.1740   44.9560 C   0  0  0  0  0  0  0  0  0  0  0  0
   58.9620   29.3630   45.0530 C   0  0  0  0  0  0  0  0  0  0  0  0
   59.6690   29.0670   43.9320 F   0  0  0  0  0  0  0  0  0  0  0  0
   59.4240   28.7430   46.3140 C   0  0  0  0  0  0  0  0  0  0  0  0
   60.2650   29.4630   47.1720 C   0  0  0  0  0  0  0  0  0  0  0  0
   60.7040   28.8950   48.3720 C   0  0  0  0  0  0  0  0  0  0  0  0
   60.3060   27.5960   48.7300 C   0  0  0  0  0  0  0  0  0  0  0  0
   60.7600   26.9740   49.9930 C   0  0  0  0  0  0  0  0  0  0  0  0
   60.8550   27.6110   51.1710 C   0  0  0  0  0  0  0  0  0  0  0  0
   61.9490   28.5460   51.5240 C   0  0  0  0  0  0  0  0  0  0  0  0
   62.9330   28.1160   52.1890 O   0  0  0  0  0  0  0  0  0  0  0  0
   61.9270   29.9300   51.1180 N   0  0  0  0  0  0  0  0  0  0  0  0
   60.7030   30.7400   51.1400 C   0  0  0  0  0  0  0  0  0  0  0  0
   60.7550   31.7660   50.0050 C   0  0  0  0  0  0  0  0  0  0  0  0
   61.9190   32.6880   50.1230 N   0  0  0  0  0  0  0  0  0  0  0  0
   62.2300   33.3320   48.8090 C   0  0  0  0  0  0  0  0  0  0  0  0
   63.6360   32.9350   48.2850 C   0  0  0  0  0  0  0  0  0  0  0  0
   63.7640   33.1820   46.7710 C   0  0  0  0  0  0  0  0  0  0  0  0
   62.9150   34.2370   46.3650 O   0  0  0  0  0  0  0  0  0  0  0  0
   61.5570   33.8220   46.4010 C   0  0  0  0  0  0  0  0  0  0  0  0
   61.1660   33.0930   47.7090 C   0  0  0  0  0  0  0  0  0  0  0  0
   63.1020   32.0930   50.8150 C   0  0  0  0  0  0  0  0  0  0  0  0
   63.1830   30.5610   50.6930 C   0  0  0  0  0  0  0  0  0  0  0  0
   59.4090   26.9030   47.9060 C   0  0  0  0  0  0  0  0  0  0  0  0
   58.9710   27.4710   46.7050 C   0  0  0  0  0  0  0  0  0  0  0  0
   57.9860   31.5970   45.3670 C   0  0  0  0  0  0  0  0  0  0  0  0
   57.9460   32.6190   44.4020 C   0  0  0  0  0  0  0  0  0  0  0  0
   58.0090   33.9600   44.7890 C   0  0  0  0  0  0  0  0  0  0  0  0
   58.1040   34.2970   46.1420 C   0  0  0  0  0  0  0  0  0  0  0  0
   58.1360   33.2900   47.1120 C   0  0  0  0  0  0  0  0  0  0  0  0
   58.0760   31.9460   46.7290 C   0  0  0  0  0  0  0  0  0  0  0  0
   56.4262   29.7444   43.3160 H   0  0  0  0  0  0  0  0  0  0  0  0
   60.5818   30.4808   46.9004 H   0  0  0  0  0  0  0  0  0  0  0  0
   61.3644   29.4683   49.0392 H   0  0  0  0  0  0  0  0  0  0  0  0
   61.0406   25.9108   49.9649 H   0  0  0  0  0  0  0  0  0  0  0  0
   60.0717   27.4273   51.9211 H   0  0  0  0  0  0  0  0  0  0  0  0
   59.8279   30.0872   51.0055 H   0  0  0  0  0  0  0  0  0  0  0  0
   60.6236   31.2618   52.1051 H   0  0  0  0  0  0  0  0  0  0  0  0
   60.8255   31.2295   49.0473 H   0  0  0  0  0  0  0  0  0  0  0  0
   59.8399   32.3738   50.0614 H   0  0  0  0  0  0  0  0  0  0  0  0
   61.5860   33.4590   50.7510 H   0  0  0  0  0  0  0  0  0  0  0  0
   62.2158   34.4102   49.0263 H   0  0  0  0  0  0  0  0  0  0  0  0
   64.3952   33.5331   48.8102 H   0  0  0  0  0  0  0  0  0  0  0  0
   63.7842   31.8614   48.4734 H   0  0  0  0  0  0  0  0  0  0  0  0
   64.8056   33.4449   46.5345 H   0  0  0  0  0  0  0  0  0  0  0  0
   63.4717   32.2661   46.2365 H   0  0  0  0  0  0  0  0  0  0  0  0
   60.9187   34.7115   46.2946 H   0  0  0  0  0  0  0  0  0  0  0  0
   61.4169   33.1054   45.5783 H   0  0  0  0  0  0  0  0  0  0  0  0
   60.1946   33.4734   48.0577 H   0  0  0  0  0  0  0  0  0  0  0  0
   61.1033   32.0136   47.5067 H   0  0  0  0  0  0  0  0  0  0  0  0
   64.0141   32.5251   50.3775 H   0  0  0  0  0  0  0  0  0  0  0  0
   62.9995   32.3257   51.8852 H   0  0  0  0  0  0  0  0  0  0  0  0
   63.3825   30.2941   49.6447 H   0  0  0  0  0  0  0  0  0  0  0  0
   63.9930   30.2008   51.3443 H   0  0  0  0  0  0  0  0  0  0  0  0
   59.0477   25.9080   48.2049 H   0  0  0  0  0  0  0  0  0  0  0  0
   58.2684   26.9193   46.0631 H   0  0  0  0  0  0  0  0  0  0  0  0
   57.8646   32.3611   43.3358 H   0  0  0  0  0  0  0  0  0  0  0  0
   57.9838   34.7527   44.0267 H   0  0  0  0  0  0  0  0  0  0  0  0
   58.1536   35.3536   46.4438 H   0  0  0  0  0  0  0  0  0  0  0  0
   58.2084   33.5551   48.1771 H   0  0  0  0  0  0  0  0  0  0  0  0
   58.0992   31.1573   47.4954 H   0  0  0  0  0  0  0  0  0  0  0  0
  1  2  2  0
  2  3  1  0
  3  4  2  3
  4  5  1  0
  4  6  1  0
  6  7  2  0
  7  8  1  0
  8  9  2  0
  9 10  1  0
 10 11  2  3
 11 12  1  0
 12 13  2  0
 12 14  1  0
 14 15  1  0
 15 16  1  0
 16 17  1  0
 17 18  1  0
 18 19  1  0
 19 20  1  0
 20 21  1  0
 21 22  1  0
 22 23  1  0
 17 24  1  0
 24 25  1  0
  9 26  1  0
 26 27  2  0
  3 28  1  0
 28 29  2  0
 29 30  1  0
 30 31  2  0
 31 32  1  0
 32 33  2  0
 27  6  1  0
 33 28  1  0
 25 14  1  0
 23 18  1  0
  2 34  1  0
  7 35  1  0
  8 36  1  0
 10 37  1  0
 11 38  1  0
 15 39  1  0
 15 40  1  0
 16 41  1  0
 16 42  1  0
 17 43  1  0
 18 44  1  0
 19 45  1  0
 19 46  1  0
 20 47  1  0
 20 48  1  0
 22 49  1  0
 22 50  1  0
 23 51  1  0
 23 52  1  0
 24 53  1  0
 24 54  1  0
 25 55  1  0
 25 56  1  0
 26 57  1  0
 27 58  1  0
 29 59  1  0
 30 60  1  0
 31 61  1  0
 32 62  1  0
 33 63  1  0
M  CHG  1  17   1
M  END
>  <UniqueID>  (25) 
25

>  <SMILES>  (25) 
O=CC(=C(F)c1ccc(C=CC(=O)N2CC[NH+](C3CCOCC3)CC2)cc1)c1ccccc1

>  <Energy>  (25) 
113.46193726264256

>  <Genealogy>  (25) 
O=CC(=C(F)c1ccc(C=CC(=O)N2CC[NH+](C3CCOCC3)CC2)cc1)c1ccccc1 (protonated)
O=CC(=C(F)c1ccc(C=CC(=O)N2CC[NH+](C3CCOCC3)CC2)cc1)c1ccccc1 (3D coordinates assigned)
O=CC(=C(F)c1ccc(C=CC(=O)N2CC[NH+](C3CCOCC3)CC2)cc1)c1ccccc1 (nonaromatic ring conformer: 113.46193726264256 kcal/mol)

>  <smiles>  (25) 
O=CC(=C(F)c1ccc(C=CC(=O)N2CCN(C3CCOCC3)CC2)cc1)c1ccccc1

>  <score_type>  (25) 
oracle

>  <origin>  (25) 
adg

>  <m_score__min__energy>  (25) 
-8.7899999999999991

>  <m_primary>  (25) 
energy

$$$$
25:0
     RDKit          3D

 42 44  0  0  0  0  0  0  0  0999 V2000
   59.0640   26.8110   45.3950 O   0  0  0  0  0  0  0  0  0  0  0  0
   57.8810   26.5200   45.7120 C   0  0  0  0  0  0  0  0  0  0  0  0
   57.5440   25.1080   46.0840 C   0  0  0  0  0  0  0  0  0  0  0  0
   56.2540   25.0500   46.6870 O   0  0  0  0  0  0  0  0  0  0  0  0
   55.0690   24.9400   45.9490 C   0  0  0  0  0  0  0  0  0  0  0  0
   54.3930   25.9650   45.6560 O   0  0  0  0  0  0  0  0  0  0  0  0
   54.5810   23.5930   45.5410 C   0  0  0  0  0  0  0  0  0  0  0  0
   54.5890   23.5020   44.0840 N   0  0  0  0  0  0  0  0  0  0  0  0
   56.1000   22.8410   43.5420 S   0  0  0  0  0  0  0  0  0  0  0  0
   55.9050   22.1310   42.2320 O   0  0  0  0  0  0  0  0  0  0  0  0
   57.0870   23.9560   43.3440 O   0  0  0  0  0  0  0  0  0  0  0  0
   56.7360   21.7200   44.7320 C   0  0  0  0  0  0  0  0  0  0  0  0
   56.1450   20.5270   45.1130 C   0  0  0  0  0  0  0  0  0  0  0  0
   56.9000   19.8230   46.0590 C   0  0  0  0  0  0  0  0  0  0  0  0
   58.0820   20.4600   46.4140 C   0  0  0  0  0  0  0  0  0  0  0  0
   58.1910   21.9010   45.5520 S   0  0  0  0  0  0  0  0  0  0  0  0
   56.8630   27.5310   45.7640 N   0  0  0  0  0  0  0  0  0  0  0  0
   57.0340   28.8750   45.2820 C   0  0  0  0  0  0  0  0  0  0  0  0
   56.4450   29.3040   44.0760 C   0  0  0  0  0  0  0  0  0  0  0  0
   56.6170   30.6210   43.6340 C   0  0  0  0  0  0  0  0  0  0  0  0
   57.3670   31.5180   44.3980 C   0  0  0  0  0  0  0  0  0  0  0  0
   57.9130   31.1130   45.6220 C   0  0  0  0  0  0  0  0  0  0  0  0
   57.7530   29.7960   46.0600 C   0  0  0  0  0  0  0  0  0  0  0  0
   58.6190   32.0430   46.3920 O   0  0  0  0  0  0  0  0  0  0  0  0
   58.5660   33.4410   46.0950 C   0  0  0  0  0  0  0  0  0  0  0  0
   58.5630   33.6630   44.5770 C   0  0  0  0  0  0  0  0  0  0  0  0
   57.5820   32.8290   43.9570 O   0  0  0  0  0  0  0  0  0  0  0  0
   57.5499   24.4830   45.1789 H   0  0  0  0  0  0  0  0  0  0  0  0
   58.2915   24.7388   46.8017 H   0  0  0  0  0  0  0  0  0  0  0  0
   55.2403   22.8195   45.9618 H   0  0  0  0  0  0  0  0  0  0  0  0
   53.5581   23.4408   45.9157 H   0  0  0  0  0  0  0  0  0  0  0  0
   55.1838   20.1701   44.7145 H   0  0  0  0  0  0  0  0  0  0  0  0
   56.5866   18.8568   46.4811 H   0  0  0  0  0  0  0  0  0  0  0  0
   58.8220   20.0857   47.1367 H   0  0  0  0  0  0  0  0  0  0  0  0
   55.9810   27.3030   46.2750 H   0  0  0  0  0  0  0  0  0  0  0  0
   55.8468   28.6002   43.4786 H   0  0  0  0  0  0  0  0  0  0  0  0
   56.1626   30.9487   42.6873 H   0  0  0  0  0  0  0  0  0  0  0  0
   58.1919   29.4797   47.0178 H   0  0  0  0  0  0  0  0  0  0  0  0
   57.6490   33.8691   46.5262 H   0  0  0  0  0  0  0  0  0  0  0  0
   59.4504   33.9323   46.5268 H   0  0  0  0  0  0  0  0  0  0  0  0
   58.3302   34.7169   44.3646 H   0  0  0  0  0  0  0  0  0  0  0  0
   59.5551   33.4086   44.1756 H   0  0  0  0  0  0  0  0  0  0  0  0
  1  2  2  0
  2  3  1  0
  3  4  1  0
  4  5  1  0
  5  6  2  0
  5  7  1  0
  7  8  1  0
  8  9  1  0
  9 10  2  0
  9 11  2  0
  9 12  1  0
 12 13  2  0
 13 14  1  0
 14 15  2  0
 15 16  1  0
  2 17  1  0
 17 18  1  0
 18 19  2  0
 19 20  1  0
 20 21  2  0
 21 22  1  0
 22 23  2  0
 22 24  1  0
 24 25  1  0
 25 26  1  0
 26 27  1  0
 16 12  1  0
 23 18  1  0
 27 21  1  0
  3 28  1  0
  3 29  1  0
  7 30  1  0
  7 31  1  0
 13 32  1  0
 14 33  1  0
 15 34  1  0
 17 35  1  0
 19 36  1  0
 20 37  1  0
 23 38  1  0
 25 39  1  0
 25 40  1  0
 26 41  1  0
 26 42  1  0
M  CHG  1   8  -1
M  END
>  <UniqueID>  (26) 
26

>  <SMILES>  (26) 
O=C(COC(=O)C[N-]S(=O)(=O)c1cccs1)Nc1ccc2c(c1)OCCO2

>  <Energy>  (26) 
67.69046269868889

>  <Genealogy>  (26) 
O=C(COC(=O)C[N-]S(=O)(=O)c1cccs1)Nc1ccc2c(c1)OCCO2 (protonated)
O=C(COC(=O)C[N-]S(=O)(=O)c1cccs1)Nc1ccc2c(c1)OCCO2 (3D coordinates assigned)
O=C(COC(=O)C[N-]S(=O)(=O)c1cccs1)Nc1ccc2c(c1)OCCO2 (nonaromatic ring conformer: 67.69046269868889 kcal/mol)

>  <smiles>  (26) 
O=C(COC(=O)CNS(=O)(=O)c1cccs1)Nc1ccc2c(c1)OCCO2

>  <score_type>  (26) 
oracle

>  <origin>  (26) 
adg

>  <m_score__min__energy>  (26) 
-9.4600000000000009

>  <m_primary>  (26) 
energy

$$$$
26:0
     RDKit          3D

 55 57  0  0  0  0  0  0  0  0999 V2000
   60.5420   27.4830   46.0280 C   0  0  0  0  0  0  0  0  0  0  0  0
   59.3000   26.7000   45.6110 C   0  0  0  0  0  0  0  0  0  0  0  0
   58.1790   27.6370   45.2170 C   0  0  0  0  0  0  0  0  0  0  0  0
   58.4880   28.7890   44.4770 C   0  0  0  0  0  0  0  0  0  0  0  0
   57.4840   29.7060   44.1200 C   0  0  0  0  0  0  0  0  0  0  0  0
   57.7840   30.8970   43.3650 N   0  0  0  0  0  0  0  0  0  0  0  0
   57.4250   32.2450   43.8090 C   0  0  0  0  0  0  0  0  0  0  0  0
   58.2360   32.6320   45.0050 C   0  0  0  0  0  0  0  0  0  0  0  0
   59.0630   31.7830   45.7260 C   0  0  0  0  0  0  0  0  0  0  0  0
   59.5900   32.3660   46.8960 C   0  0  0  0  0  0  0  0  0  0  0  0
   60.4860   31.6420   47.8390 C   0  0  0  0  0  0  0  0  0  0  0  0
   60.2100   30.4490   48.1500 O   0  0  0  0  0  0  0  0  0  0  0  0
   61.6280   32.2950   48.4500 N   0  0  0  0  0  0  0  0  0  0  0  0
   62.6280   32.6670   47.4310 C   0  0  0  0  0  0  0  0  0  0  0  0
   63.7530   33.5050   48.0690 C   0  0  0  0  0  0  0  0  0  0  0  0
   64.1580   33.0240   49.4130 N   0  0  0  0  0  0  0  0  0  0  0  0
   63.7710   33.9480   50.4920 C   0  0  0  0  0  0  0  0  0  0  0  0
   63.7310   31.6390   49.6970 C   0  0  0  0  0  0  0  0  0  0  0  0
   62.2100   31.4280   49.5020 C   0  0  0  0  0  0  0  0  0  0  0  0
   59.1590   33.6900   47.0740 C   0  0  0  0  0  0  0  0  0  0  0  0
   59.4880   34.6080   48.2070 C   0  0  0  0  0  0  0  0  0  0  0  0
   58.1310   34.1020   45.8080 S   0  0  0  0  0  0  0  0  0  0  0  0
   56.1640   29.4360   44.5200 C   0  0  0  0  0  0  0  0  0  0  0  0
   55.2280   30.2220   44.2190 O   0  0  0  0  0  0  0  0  0  0  0  0
   55.8850   28.3250   45.2460 N   0  0  0  0  0  0  0  0  0  0  0  0
   56.8400   27.4290   45.6140 C   0  0  0  0  0  0  0  0  0  0  0  0
   56.4190   26.2340   46.4210 C   0  0  0  0  0  0  0  0  0  0  0  0
   60.6007   27.5200   47.1258 H   0  0  0  0  0  0  0  0  0  0  0  0
   61.4392   26.9869   45.6294 H   0  0  0  0  0  0  0  0  0  0  0  0
   60.4812   28.5064   45.6294 H   0  0  0  0  0  0  0  0  0  0  0  0
   59.5502   26.0572   44.7542 H   0  0  0  0  0  0  0  0  0  0  0  0
   58.9658   26.0904   46.4635 H   0  0  0  0  0  0  0  0  0  0  0  0
   59.5283   28.9766   44.1727 H   0  0  0  0  0  0  0  0  0  0  0  0
   58.2690   30.7920   42.4450 H   0  0  0  0  0  0  0  0  0  0  0  0
   57.6172   32.9585   42.9941 H   0  0  0  0  0  0  0  0  0  0  0  0
   56.3590   32.2600   44.0800 H   0  0  0  0  0  0  0  0  0  0  0  0
   59.2864   30.7521   45.4140 H   0  0  0  0  0  0  0  0  0  0  0  0
   61.3040   33.1890   48.8830 H   0  0  0  0  0  0  0  0  0  0  0  0
   63.0584   31.7538   46.9942 H   0  0  0  0  0  0  0  0  0  0  0  0
   62.1370   33.2632   46.6477 H   0  0  0  0  0  0  0  0  0  0  0  0
   64.6311   33.4706   47.4074 H   0  0  0  0  0  0  0  0  0  0  0  0
   63.3652   34.5268   48.1936 H   0  0  0  0  0  0  0  0  0  0  0  0
   63.9682   33.4771   51.4663 H   0  0  0  0  0  0  0  0  0  0  0  0
   64.3562   34.8756   50.4079 H   0  0  0  0  0  0  0  0  0  0  0  0
   62.6994   34.1817   50.4079 H   0  0  0  0  0  0  0  0  0  0  0  0
   64.2697   30.9594   49.0202 H   0  0  0  0  0  0  0  0  0  0  0  0
   63.9614   31.4313   50.7524 H   0  0  0  0  0  0  0  0  0  0  0  0
   62.0359   30.3778   49.2248 H   0  0  0  0  0  0  0  0  0  0  0  0
   61.7200   31.6930   50.4505 H   0  0  0  0  0  0  0  0  0  0  0  0
   59.3035   34.0932   49.1614 H   0  0  0  0  0  0  0  0  0  0  0  0
   60.5468   34.9001   48.1466 H   0  0  0  0  0  0  0  0  0  0  0  0
   58.8558   35.5062   48.1466 H   0  0  0  0  0  0  0  0  0  0  0  0
   56.5014   26.4678   47.4927 H   0  0  0  0  0  0  0  0  0  0  0  0
   55.3766   25.9780   46.1806 H   0  0  0  0  0  0  0  0  0  0  0  0
   57.0708   25.3811   46.1806 H   0  0  0  0  0  0  0  0  0  0  0  0
  1  2  1  0
  2  3  1  0
  3  4  1  0
  4  5  2  0
  5  6  1  0
  6  7  1  0
  7  8  1  0
  8  9  2  0
  9 10  1  0
 10 11  1  0
 11 12  2  0
 11 13  1  0
 13 14  1  0
 14 15  1  0
 15 16  1  0
 16 17  1  0
 16 18  1  0
 18 19  1  0
 10 20  2  0
 20 21  1  0
 20 22  1  0
  5 23  1  0
 23 24  2  0
 23 25  1  0
 25 26  1  0
 26 27  1  0
 26  3  2  0
 22  8  1  0
 19 13  1  0
  1 28  1  0
  1 29  1  0
  1 30  1  0
  2 31  1  0
  2 32  1  0
  4 33  1  0
  6 34  1  0
  7 35  1  0
  7 36  1  0
  9 37  1  0
 13 38  1  0
 14 39  1  0
 14 40  1  0
 15 41  1  0
 15 42  1  0
 17 43  1  0
 17 44  1  0
 17 45  1  0
 18 46  1  0
 18 47  1  0
 19 48  1  0
 19 49  1  0
 21 50  1  0
 21 51  1  0
 21 52  1  0
 27 53  1  0
 27 54  1  0
 27 55  1  0
M  CHG  2  13   1  25  -1
M  END
>  <UniqueID>  (27) 
27

>  <SMILES>  (27) 
CCc1cc(NCc2cc(C(=O)[NH+]3CCN(C)CC3)c(C)s2)c(=O)[n-]c1C

>  <Energy>  (27) 
93.91427203372145

>  <Genealogy>  (27) 
CCc1cc(NCc2cc(C(=O)[NH+]3CCN(C)CC3)c(C)s2)c(=O)[n-]c1C (protonated)
CCc1cc(NCc2cc(C(=O)[NH+]3CCN(C)CC3)c(C)s2)c(=O)[n-]c1C (3D coordinates assigned)
CCc1cc(NCc2cc(C(=O)[NH+]3CCN(C)CC3)c(C)s2)c(=O)[n-]c1C (nonaromatic ring conformer: 93.91427203372145 kcal/mol)

>  <smiles>  (27) 
CCc1cc(NCc2cc(C(=O)N3CCN(C)CC3)c(C)s2)c(=O)[nH]c1C

>  <score_type>  (27) 
oracle

>  <origin>  (27) 
adg

>  <m_score__min__energy>  (27) 
-10.07

>  <m_primary>  (27) 
energy

$$$$
27:0
     RDKit          3D

 52 55  0  0  0  0  0  0  0  0999 V2000
   60.0460   27.2550   46.0580 C   0  0  0  0  0  0  0  0  0  0  0  0
   59.1140   27.9290   45.3620 C   0  0  0  0  0  0  0  0  0  0  0  0
   58.1190   27.3690   44.5470 C   0  0  0  0  0  0  0  0  0  0  0  0
   57.6750   26.1030   44.4340 C   0  0  0  0  0  0  0  0  0  0  0  0
   57.0870   25.3030   45.5230 C   0  0  0  0  0  0  0  0  0  0  0  0
   57.6670   24.2240   46.0810 N   0  0  0  0  0  0  0  0  0  0  0  0
   56.8380   23.9210   47.1040 C   0  0  0  0  0  0  0  0  0  0  0  0
   57.0380   22.9440   47.8720 O   0  0  0  0  0  0  0  0  0  0  0  0
   55.7840   24.7530   47.2460 N   0  0  0  0  0  0  0  0  0  0  0  0
   55.9660   25.6290   46.2440 C   0  0  0  0  0  0  0  0  0  0  0  0
   55.1280   26.7090   46.0000 O   0  0  0  0  0  0  0  0  0  0  0  0
   57.6000   28.4120   43.8030 C   0  0  0  0  0  0  0  0  0  0  0  0
   58.2160   29.5690   44.2390 C   0  0  0  0  0  0  0  0  0  0  0  0
   57.9450   30.9300   43.6470 C   0  0  0  0  0  0  0  0  0  0  0  0
   57.2610   31.8210   44.6490 C   0  0  0  0  0  0  0  0  0  0  0  0
   56.0280   31.6540   44.8590 O   0  0  0  0  0  0  0  0  0  0  0  0
   57.9870   32.8270   45.3890 N   0  0  0  0  0  0  0  0  0  0  0  0
   57.4010   33.4090   46.6080 C   0  0  0  0  0  0  0  0  0  0  0  0
   58.4670   33.5330   47.7040 C   0  0  0  0  0  0  0  0  0  0  0  0
   59.7390   34.0450   47.1700 N   0  0  0  0  0  0  0  0  0  0  0  0
   60.9170   34.0080   47.9970 C   0  0  0  0  0  0  0  0  0  0  0  0
   60.8220   34.2030   49.3840 C   0  0  0  0  0  0  0  0  0  0  0  0
   61.9820   34.1860   50.1630 C   0  0  0  0  0  0  0  0  0  0  0  0
   63.1950   33.9790   49.5830 N   0  0  0  0  0  0  0  0  0  0  0  0
   63.3150   33.7910   48.2400 C   0  0  0  0  0  0  0  0  0  0  0  0
   62.1820   33.8070   47.4240 C   0  0  0  0  0  0  0  0  0  0  0  0
   59.8190   34.4610   45.7650 C   0  0  0  0  0  0  0  0  0  0  0  0
   59.2700   33.3440   44.8770 C   0  0  0  0  0  0  0  0  0  0  0  0
   59.1230   29.2810   45.2070 N   0  0  0  0  0  0  0  0  0  0  0  0
   60.0430   30.2330   45.8440 C   0  0  0  0  0  0  0  0  0  0  0  0
   60.7804   27.8024   46.6671 H   0  0  0  0  0  0  0  0  0  0  0  0
   60.0742   26.1561   46.0184 H   0  0  0  0  0  0  0  0  0  0  0  0
   57.7581   25.6260   43.4463 H   0  0  0  0  0  0  0  0  0  0  0  0
   56.8393   28.3351   43.0122 H   0  0  0  0  0  0  0  0  0  0  0  0
   58.8984   31.3895   43.3472 H   0  0  0  0  0  0  0  0  0  0  0  0
   57.2869   30.8105   42.7737 H   0  0  0  0  0  0  0  0  0  0  0  0
   57.0000   34.4070   46.3772 H   0  0  0  0  0  0  0  0  0  0  0  0
   56.5943   32.7525   46.9660 H   0  0  0  0  0  0  0  0  0  0  0  0
   58.1025   34.2227   48.4795 H   0  0  0  0  0  0  0  0  0  0  0  0
   58.6483   32.5314   48.1211 H   0  0  0  0  0  0  0  0  0  0  0  0
   59.8414   34.3680   49.8543 H   0  0  0  0  0  0  0  0  0  0  0  0
   61.9140   34.3407   51.2499 H   0  0  0  0  0  0  0  0  0  0  0  0
   64.0520   33.9660   50.1800 H   0  0  0  0  0  0  0  0  0  0  0  0
   64.3079   33.6259   47.7962 H   0  0  0  0  0  0  0  0  0  0  0  0
   62.2806   33.6628   46.3380 H   0  0  0  0  0  0  0  0  0  0  0  0
   59.2238   35.3742   45.6174 H   0  0  0  0  0  0  0  0  0  0  0  0
   60.8671   34.6628   45.4988 H   0  0  0  0  0  0  0  0  0  0  0  0
   59.1169   33.7376   43.8613 H   0  0  0  0  0  0  0  0  0  0  0  0
   59.9971   32.5186   44.8719 H   0  0  0  0  0  0  0  0  0  0  0  0
   59.9601   30.1472   46.9375 H   0  0  0  0  0  0  0  0  0  0  0  0
   61.0747   30.0081   45.5357 H   0  0  0  0  0  0  0  0  0  0  0  0
   59.7830   31.2564   45.5357 H   0  0  0  0  0  0  0  0  0  0  0  0
  1  2  2  0
  2  3  1  0
  3  4  2  3
  4  5  1  0
  5  6  1  0
  6  7  1  0
  7  8  2  0
  7  9  1  0
  9 10  1  0
 10 11  1  0
  3 12  1  0
 12 13  2  0
 13 14  1  0
 14 15  1  0
 15 16  2  0
 15 17  1  0
 17 18  1  0
 18 19  1  0
 19 20  1  0
 20 21  1  0
 21 22  2  0
 22 23  1  0
 23 24  2  0
 24 25  1  0
 25 26  2  0
 20 27  1  0
 27 28  1  0
 13 29  1  0
 29 30  1  0
 29  2  1  0
 10  5  2  0
 28 17  1  0
 26 21  1  0
  1 31  1  0
  1 32  1  0
  4 33  1  0
 12 34  1  0
 14 35  1  0
 14 36  1  0
 18 37  1  0
 18 38  1  0
 19 39  1  0
 19 40  1  0
 22 41  1  0
 23 42  1  0
 24 43  1  0
 25 44  1  0
 26 45  1  0
 27 46  1  0
 27 47  1  0
 28 48  1  0
 28 49  1  0
 30 50  1  0
 30 51  1  0
 30 52  1  0
M  CHG  4   6  -1   9  -1  11  -1  24   1
M  END
>  <UniqueID>  (28) 
28

>  <SMILES>  (28) 
C=c1c(=Cc2[n-]c(=O)[n-]c2[O-])cc(CC(=O)N2CCN(c3cc[nH+]cc3)CC2)n1C

>  <Energy>  (28) 
128.096151527623

>  <Genealogy>  (28) 
C=c1c(=Cc2[n-]c(=O)[n-]c2[O-])cc(CC(=O)N2CCN(c3cc[nH+]cc3)CC2)n1C (protonated)
C=c1c(=Cc2[n-]c(=O)[n-]c2[O-])cc(CC(=O)N2CCN(c3cc[nH+]cc3)CC2)n1C (3D coordinates assigned)
C=c1c(=Cc2[n-]c(=O)[n-]c2[O-])cc(CC(=O)N2CCN(c3cc[nH+]cc3)CC2)n1C (nonaromatic ring conformer: 128.096151527623 kcal/mol)

>  <smiles>  (28) 
C=c1c(=Cc2[nH]c(=O)[nH]c2O)cc(CC(=O)N2CCN(c3ccncc3)CC2)n1C

>  <score_type>  (28) 
oracle

>  <origin>  (28) 
adg

>  <m_score__min__energy>  (28) 
-17.440000000000001

>  <m_primary>  (28) 
energy

$$$$
28:0
     RDKit          3D

 45 47  0  0  0  0  0  0  0  0999 V2000
   54.6410   28.7300   44.1270 H   0  0  0  0  0  0  0  0  0  0  0  0
   55.1450   29.3750   44.7750 N   0  0  0  0  0  0  0  0  0  0  0  0
   56.5820   29.8890   43.9620 S   0  0  0  0  0  0  0  0  0  0  0  0
   56.2350   30.2970   42.5580 O   0  0  0  0  0  0  0  0  0  0  0  0
   57.5640   28.7520   43.9060 O   0  0  0  0  0  0  0  0  0  0  0  0
   57.2960   31.2430   44.8310 C   0  0  0  0  0  0  0  0  0  0  0  0
   57.7950   31.0540   46.1270 C   0  0  0  0  0  0  0  0  0  0  0  0
   57.7480   30.0583   46.5921 H   0  0  0  0  0  0  0  0  0  0  0  0
   58.3520   32.1250   46.8310 C   0  0  0  0  0  0  0  0  0  0  0  0
   58.7497   31.9669   47.8443 H   0  0  0  0  0  0  0  0  0  0  0  0
   58.4060   33.4020   46.2500 C   0  0  0  0  0  0  0  0  0  0  0  0
   59.0260   34.5450   47.0010 C   0  0  0  0  0  0  0  0  0  0  0  0
   58.5176   35.4817   46.7288 H   0  0  0  0  0  0  0  0  0  0  0  0
   58.9222   34.3734   48.0826 H   0  0  0  0  0  0  0  0  0  0  0  0
   60.4420   34.6410   46.6560 N   0  0  0  0  0  0  0  0  0  0  0  0
   61.3840   33.8310   47.0470 C   0  0  0  0  0  0  0  0  0  0  0  0
   62.5790   33.8630   46.3980 N   0  0  0  0  0  0  0  0  0  0  0  0
   63.6140   33.0530   46.7460 C   0  0  0  0  0  0  0  0  0  0  0  0
   64.5615   33.1041   46.1895 H   0  0  0  0  0  0  0  0  0  0  0  0
   63.4780   32.1580   47.8060 C   0  0  0  0  0  0  0  0  0  0  0  0
   64.3118   31.4965   48.0836 H   0  0  0  0  0  0  0  0  0  0  0  0
   62.2720   32.1080   48.5140 C   0  0  0  0  0  0  0  0  0  0  0  0
   62.1280   31.1860   49.6560 C   0  0  0  0  0  0  0  0  0  0  0  0
   62.6960   31.4670   50.7430 O   0  0  0  0  0  0  0  0  0  0  0  0
   61.3250   29.9980   49.5810 N   0  0  0  0  0  0  0  0  0  0  0  0
   59.9660   29.9150   49.0500 C   0  0  0  0  0  0  0  0  0  0  0  0
   59.3332   29.3685   49.7648 H   0  0  0  0  0  0  0  0  0  0  0  0
   59.5850   30.9360   48.9006 H   0  0  0  0  0  0  0  0  0  0  0  0
   59.9470   29.1970   47.7260 C   0  0  0  0  0  0  0  0  0  0  0  0
   59.1950   28.0200   47.5610 C   0  0  0  0  0  0  0  0  0  0  0  0
   58.5964   27.6308   48.3978 H   0  0  0  0  0  0  0  0  0  0  0  0
   59.2050   27.3430   46.3390 C   0  0  0  0  0  0  0  0  0  0  0  0
   58.6211   26.4187   46.2177 H   0  0  0  0  0  0  0  0  0  0  0  0
   59.9570   27.8400   45.2700 C   0  0  0  0  0  0  0  0  0  0  0  0
   59.9653   27.3052   44.3088 H   0  0  0  0  0  0  0  0  0  0  0  0
   60.6980   29.0150   45.4210 C   0  0  0  0  0  0  0  0  0  0  0  0
   61.2855   29.4068   44.5776 H   0  0  0  0  0  0  0  0  0  0  0  0
   60.6930   29.6930   46.6440 C   0  0  0  0  0  0  0  0  0  0  0  0
   61.2758   30.6188   46.7593 H   0  0  0  0  0  0  0  0  0  0  0  0
   61.2080   32.9310   48.1180 C   0  0  0  0  0  0  0  0  0  0  0  0
   60.2414   32.8748   48.6400 H   0  0  0  0  0  0  0  0  0  0  0  0
   57.9190   33.5860   44.9470 C   0  0  0  0  0  0  0  0  0  0  0  0
   57.9779   34.5783   44.4759 H   0  0  0  0  0  0  0  0  0  0  0  0
   57.3590   32.5140   44.2440 C   0  0  0  0  0  0  0  0  0  0  0  0
   56.9671   32.6691   43.2279 H   0  0  0  0  0  0  0  0  0  0  0  0
  1  2  1  0
  2  3  1  0
  3  4  2  0
  3  5  2  0
  3  6  1  0
  6  7  2  0
  7  8  1  0
  7  9  1  0
  9 10  1  0
  9 11  2  0
 11 12  1  0
 12 13  1  0
 12 14  1  0
 12 15  1  0
 15 16  2  0
 16 17  1  0
 17 18  1  0
 18 19  1  0
 18 20  2  0
 20 21  1  0
 20 22  1  0
 22 23  1  0
 23 24  2  0
 23 25  1  0
 25 26  1  0
 26 27  1  0
 26 28  1  0
 26 29  1  0
 29 30  2  0
 30 31  1  0
 30 32  1  0
 32 33  1  0
 32 34  2  0
 34 35  1  0
 34 36  1  0
 36 37  1  0
 36 38  2  0
 38 39  1  0
 22 40  2  0
 40 41  1  0
 11 42  1  0
 42 43  1  0
 42 44  2  0
 44 45  1  0
 44  6  1  0
 40 16  1  0
 38 29  1  0
M  CHG  3   2  -1  17  -1  25  -1
M  END
>  <UniqueID>  (29) 
29

>  <SMILES>  (29) 
[NH-]S(=O)(=O)c1ccc(C/N=c2\cc(C(=O)[N-]Cc3ccccc3)cc[n-]2)cc1

>  <Energy>  (29) 
50.66793092015938

>  <Genealogy>  (29) 
[NH-]S(=O)(=O)c1ccc(CN=c2cc(C(=O)[N-]Cc3ccccc3)cc[n-]2)cc1 (protonated)
[NH-]S(=O)(=O)c1ccc(C/N=c2\cc(C(=O)[N-]Cc3ccccc3)cc[n-]2)cc1 (cis-trans isomerization)
[NH-]S(=O)(=O)c1ccc(C/N=c2\cc(C(=O)[N-]Cc3ccccc3)cc[n-]2)cc1 (3D coordinates assigned)
[NH-]S(=O)(=O)c1ccc(C/N=c2\cc(C(=O)[N-]Cc3ccccc3)cc[n-]2)cc1 (optimized conformer: 50.66793092015938 kcal/mol)

>  <smiles>  (29) 
NS(=O)(=O)c1ccc(CN=c2cc(C(=O)NCc3ccccc3)cc[nH]2)cc1

>  <score_type>  (29) 
oracle

>  <origin>  (29) 
adg

>  <m_score__min__energy>  (29) 
-13.380000000000001

>  <m_primary>  (29) 
energy

$$$$
29:0
     RDKit          3D

 62 64  0  0  0  0  0  0  0  0999 V2000
   64.7290   33.8340   51.2630 C   0  0  0  0  0  0  0  0  0  0  0  0
   64.3900   32.6240   50.5010 N   0  0  0  0  0  0  0  0  0  0  0  0
   64.3210   32.9000   49.0450 C   0  0  0  0  0  0  0  0  0  0  0  0
   62.8750   33.1130   48.5580 C   0  0  0  0  0  0  0  0  0  0  0  0
   61.9990   31.9420   48.8470 N   0  0  0  0  0  0  0  0  0  0  0  0
   61.8470   31.0880   47.6860 C   0  0  0  0  0  0  0  0  0  0  0  0
   62.8420   30.8570   46.9420 O   0  0  0  0  0  0  0  0  0  0  0  0
   60.5720   30.3880   47.4130 C   0  0  0  0  0  0  0  0  0  0  0  0
   59.9820   29.7660   48.3350 O   0  0  0  0  0  0  0  0  0  0  0  0
   59.9980   30.3560   46.0270 C   0  0  0  0  0  0  0  0  0  0  0  0
   58.6790   31.0810   45.9990 C   0  0  0  0  0  0  0  0  0  0  0  0
   57.6170   30.4090   46.1190 O   0  0  0  0  0  0  0  0  0  0  0  0
   58.5950   32.5130   45.8510 N   0  0  0  0  0  0  0  0  0  0  0  0
   57.6660   33.1320   44.9200 C   0  0  0  0  0  0  0  0  0  0  0  0
   58.0560   34.6020   44.8600 C   0  0  0  0  0  0  0  0  0  0  0  0
   58.9100   34.8560   46.0990 C   0  0  0  0  0  0  0  0  0  0  0  0
   59.4570   33.4890   46.5120 C   0  0  1  0  0  0  0  0  0  0  0  0
   59.4400   33.3400   48.0140 C   0  0  0  0  0  0  0  0  0  0  0  0
   59.9940   34.2130   48.7390 O   0  0  0  0  0  0  0  0  0  0  0  0
   58.8660   32.1610   48.6020 N   0  0  0  0  0  0  0  0  0  0  0  0
   58.7100   31.9700   50.0150 C   0  0  0  0  0  0  0  0  0  0  0  0
   58.8550   32.9400   50.8090 O   0  0  0  0  0  0  0  0  0  0  0  0
   58.3910   30.6680   50.5250 N   0  0  0  0  0  0  0  0  0  0  0  0
   58.3000   30.4150   51.9650 C   0  0  0  0  0  0  0  0  0  0  0  0
   56.8730   30.1710   52.3750 C   0  0  0  0  0  0  0  0  0  0  0  0
   56.5470   29.0280   53.1250 C   0  0  0  0  0  0  0  0  0  0  0  0
   55.2250   28.7990   53.5210 C   0  0  0  0  0  0  0  0  0  0  0  0
   54.2190   29.7040   53.1640 C   0  0  0  0  0  0  0  0  0  0  0  0
   54.5310   30.8340   52.4000 C   0  0  0  0  0  0  0  0  0  0  0  0
   55.8530   31.0690   52.0060 C   0  0  0  0  0  0  0  0  0  0  0  0
   62.4680   31.1240   49.9950 C   0  0  0  0  0  0  0  0  0  0  0  0
   63.1640   31.9950   51.0490 C   0  0  0  0  0  0  0  0  0  0  0  0
   64.6685   33.6181   52.3399 H   0  0  0  0  0  0  0  0  0  0  0  0
   65.7510   34.1525   51.0097 H   0  0  0  0  0  0  0  0  0  0  0  0
   64.0213   34.6371   51.0097 H   0  0  0  0  0  0  0  0  0  0  0  0
   64.9043   33.8073   48.8289 H   0  0  0  0  0  0  0  0  0  0  0  0
   64.7284   32.0252   48.5171 H   0  0  0  0  0  0  0  0  0  0  0  0
   62.4593   33.9979   49.0621 H   0  0  0  0  0  0  0  0  0  0  0  0
   62.9054   33.2475   47.4667 H   0  0  0  0  0  0  0  0  0  0  0  0
   61.0620   32.3310   49.1030 H   0  0  0  0  0  0  0  0  0  0  0  0
   60.6969   30.8443   45.3319 H   0  0  0  0  0  0  0  0  0  0  0  0
   59.8414   29.3099   45.7251 H   0  0  0  0  0  0  0  0  0  0  0  0
   57.7563   32.6709   43.9254 H   0  0  0  0  0  0  0  0  0  0  0  0
   56.6226   33.0030   45.2436 H   0  0  0  0  0  0  0  0  0  0  0  0
   58.6343   34.8080   43.9473 H   0  0  0  0  0  0  0  0  0  0  0  0
   57.1712   35.2552   44.8370 H   0  0  0  0  0  0  0  0  0  0  0  0
   59.7352   35.5435   45.8616 H   0  0  0  0  0  0  0  0  0  0  0  0
   58.3253   35.3202   46.9069 H   0  0  0  0  0  0  0  0  0  0  0  0
   60.5067   33.3502   46.2140 H   0  0  0  0  0  0  0  0  0  0  0  0
   58.5570   31.3930   47.9650 H   0  0  0  0  0  0  0  0  0  0  0  0
   58.2600   29.8820   49.8480 H   0  0  0  0  0  0  0  0  0  0  0  0
   58.9034   29.5298   52.2146 H   0  0  0  0  0  0  0  0  0  0  0  0
   58.6755   31.2981   52.5028 H   0  0  0  0  0  0  0  0  0  0  0  0
   57.3341   28.3110   53.4016 H   0  0  0  0  0  0  0  0  0  0  0  0
   54.9759   27.9065   54.1137 H   0  0  0  0  0  0  0  0  0  0  0  0
   53.1817   29.5268   53.4844 H   0  0  0  0  0  0  0  0  0  0  0  0
   53.7371   31.5376   52.1091 H   0  0  0  0  0  0  0  0  0  0  0  0
   56.0963   31.9583   51.4060 H   0  0  0  0  0  0  0  0  0  0  0  0
   61.6035   30.6243   50.4565 H   0  0  0  0  0  0  0  0  0  0  0  0
   63.1909   30.3832   49.6227 H   0  0  0  0  0  0  0  0  0  0  0  0
   62.4714   32.7844   51.3762 H   0  0  0  0  0  0  0  0  0  0  0  0
   63.4503   31.3543   51.8961 H   0  0  0  0  0  0  0  0  0  0  0  0
  1  2  1  0
  2  3  1  0
  3  4  1  0
  4  5  1  0
  5  6  1  0
  6  7  2  0
  6  8  1  0
  8  9  2  0
  8 10  1  0
 10 11  1  0
 11 12  2  0
 11 13  1  0
 13 14  1  0
 14 15  1  0
 15 16  1  0
 16 17  1  0
 17 18  1  0
 18 19  2  0
 18 20  1  0
 20 21  1  0
 21 22  2  0
 21 23  1  0
 23 24  1  0
 24 25  1  0
 25 26  2  0
 26 27  1  0
 27 28  2  0
 28 29  1  0
 29 30  2  0
  5 31  1  0
 31 32  1  0
 32  2  1  0
 17 13  1  0
 30 25  1  0
  1 33  1  0
  1 34  1  0
  1 35  1  0
  3 36  1  0
  3 37  1  0
  4 38  1  0
  4 39  1  0
  5 40  1  0
 10 41  1  0
 10 42  1  0
 14 43  1  0
 14 44  1  0
 15 45  1  0
 15 46  1  0
 16 47  1  0
 16 48  1  0
 17 49  1  6
 20 50  1  0
 23 51  1  0
 24 52  1  0
 24 53  1  0
 26 54  1  0
 27 55  1  0
 28 56  1  0
 29 57  1  0
 30 58  1  0
 31 59  1  0
 31 60  1  0
 32 61  1  0
 32 62  1  0
M  CHG  1   5   1
M  END
>  <UniqueID>  (30) 
30

>  <SMILES>  (30) 
CN1CC[NH+](C(=O)C(=O)CC(=O)N2CCC[C@H]2C(=O)NC(=O)NCc2ccccc2)CC1

>  <Energy>  (30) 
72.2623841983305

>  <Genealogy>  (30) 
CN1CC[NH+](C(=O)C(=O)CC(=O)N2CCCC2C(=O)NC(=O)NCc2ccccc2)CC1 (protonated)
CN1CC[NH+](C(=O)C(=O)CC(=O)N2CCC[C@H]2C(=O)NC(=O)NCc2ccccc2)CC1 (chirality)
CN1CC[NH+](C(=O)C(=O)CC(=O)N2CCC[C@H]2C(=O)NC(=O)NCc2ccccc2)CC1 (3D coordinates assigned)
CN1CC[NH+](C(=O)C(=O)CC(=O)N2CCC[C@H]2C(=O)NC(=O)NCc2ccccc2)CC1 (nonaromatic ring conformer: 72.2623841983305 kcal/mol)

>  <smiles>  (30) 
CN1CCN(C(=O)C(=O)CC(=O)N2CCCC2C(=O)NC(=O)NCc2ccccc2)CC1

>  <score_type>  (30) 
oracle

>  <origin>  (30) 
adg

>  <m_score__min__energy>  (30) 
-7.6900000000000004

>  <m_primary>  (30) 
energy

$$$$
30:0
     RDKit          3D

 61 64  0  0  0  0  0  0  0  0999 V2000
   57.3389   33.5101   42.6855 H   0  0  0  0  0  0  0  0  0  0  0  0
   57.7210   32.7710   43.4050 C   0  0  0  0  0  0  0  0  0  0  0  0
   57.8450   31.5030   43.0020 C   0  0  0  0  0  0  0  0  0  0  0  0
   58.6351   31.2404   42.2831 H   0  0  0  0  0  0  0  0  0  0  0  0
   56.7670   30.2430   43.6000 S   0  0  0  0  0  0  0  0  0  0  0  0
   55.6320   30.8620   44.3680 O   0  0  0  0  0  0  0  0  0  0  0  0
   56.1920   29.5060   42.4230 O   0  0  0  0  0  0  0  0  0  0  0  0
   57.6280   29.1170   44.6210 N   0  0  0  0  0  0  0  0  0  0  0  0
   57.8150   27.8400   43.9180 C   0  0  0  0  0  0  0  0  0  0  0  0
   58.5551   27.9663   43.1141 H   0  0  0  0  0  0  0  0  0  0  0  0
   56.8601   27.5127   43.4808 H   0  0  0  0  0  0  0  0  0  0  0  0
   58.3140   26.7920   44.9150 C   0  0  0  0  0  0  0  0  0  0  0  0
   58.7746   25.9599   44.3624 H   0  0  0  0  0  0  0  0  0  0  0  0
   57.4582   26.4339   45.5060 H   0  0  0  0  0  0  0  0  0  0  0  0
   59.3060   27.3690   45.8290 N   0  0  0  0  0  0  0  0  0  0  0  0
   59.8190   26.5620   46.9050 C   0  0  0  0  0  0  0  0  0  0  0  0
   59.9180   25.3130   46.7510 O   0  0  0  0  0  0  0  0  0  0  0  0
   60.2160   27.1610   48.1980 C   0  0  0  0  0  0  0  0  0  0  0  0
   60.4450   26.3490   49.3210 C   0  0  0  0  0  0  0  0  0  0  0  0
   60.3355   25.2575   49.2390 H   0  0  0  0  0  0  0  0  0  0  0  0
   60.8110   26.9210   50.5410 C   0  0  0  0  0  0  0  0  0  0  0  0
   60.9826   26.2792   51.4177 H   0  0  0  0  0  0  0  0  0  0  0  0
   60.9600   28.3050   50.6520 C   0  0  0  0  0  0  0  0  0  0  0  0
   61.2367   28.7483   51.6199 H   0  0  0  0  0  0  0  0  0  0  0  0
   60.7590   29.1360   49.5360 C   0  0  0  0  0  0  0  0  0  0  0  0
   60.9070   30.6030   49.6670 C   0  0  0  0  0  0  0  0  0  0  0  0
   60.0570   31.3620   49.1240 O   0  0  0  0  0  0  0  0  0  0  0  0
   61.9970   31.1750   50.4100 N   0  0  0  0  0  0  0  0  0  0  0  0
   62.5970   30.5620   51.0060 H   0  0  0  0  0  0  0  0  0  0  0  0
   62.2920   32.6070   50.3880 C   0  0  0  0  0  0  0  0  0  0  0  0
   61.4036   33.1642   50.7200 H   0  0  0  0  0  0  0  0  0  0  0  0
   63.1390   32.8049   51.0614 H   0  0  0  0  0  0  0  0  0  0  0  0
   62.6630   33.0500   48.9990 C   0  0  0  0  0  0  0  0  0  0  0  0
   64.0000   33.0520   48.5740 C   0  0  0  0  0  0  0  0  0  0  0  0
   64.7935   32.7185   49.2589 H   0  0  0  0  0  0  0  0  0  0  0  0
   64.3180   33.4650   47.3180 N   0  0  0  0  0  0  0  0  0  0  0  0
   63.3680   33.8820   46.4400 C   0  0  0  0  0  0  0  0  0  0  0  0
   63.6582   34.2087   45.4305 H   0  0  0  0  0  0  0  0  0  0  0  0
   62.0250   33.8960   46.8180 C   0  0  0  0  0  0  0  0  0  0  0  0
   61.2521   34.2312   46.1107 H   0  0  0  0  0  0  0  0  0  0  0  0
   61.6720   33.4800   48.1040 C   0  0  0  0  0  0  0  0  0  0  0  0
   60.6169   33.4896   48.4149 H   0  0  0  0  0  0  0  0  0  0  0  0
   60.3860   28.5520   48.3100 C   0  0  0  0  0  0  0  0  0  0  0  0
   60.2258   29.1918   47.4297 H   0  0  0  0  0  0  0  0  0  0  0  0
   59.9590   28.6330   45.4630 C   0  0  0  0  0  0  0  0  0  0  0  0
   60.6370   28.4550   44.6152 H   0  0  0  0  0  0  0  0  0  0  0  0
   60.5193   29.0024   46.3346 H   0  0  0  0  0  0  0  0  0  0  0  0
   58.9180   29.6990   45.0610 C   0  0  0  0  0  0  0  0  0  0  0  0
   59.3312   30.2978   44.2359 H   0  0  0  0  0  0  0  0  0  0  0  0
   58.7142   30.3102   45.9526 H   0  0  0  0  0  0  0  0  0  0  0  0
   58.0700   33.2360   44.7680 C   0  0  0  0  0  0  0  0  0  0  0  0
   58.8230   34.4150   44.9090 C   0  0  0  0  0  0  0  0  0  0  0  0
   59.1613   34.9574   44.0138 H   0  0  0  0  0  0  0  0  0  0  0  0
   59.1450   34.9030   46.1800 C   0  0  0  0  0  0  0  0  0  0  0  0
   59.7428   35.8210   46.2800 H   0  0  0  0  0  0  0  0  0  0  0  0
   58.7090   34.2270   47.3230 C   0  0  0  0  0  0  0  0  0  0  0  0
   58.9653   34.6111   48.3214 H   0  0  0  0  0  0  0  0  0  0  0  0
   57.9480   33.0640   47.1960 C   0  0  0  0  0  0  0  0  0  0  0  0
   57.6008   32.5352   48.0959 H   0  0  0  0  0  0  0  0  0  0  0  0
   57.6250   32.5680   45.9270 C   0  0  0  0  0  0  0  0  0  0  0  0
   57.0214   31.6531   45.8340 H   0  0  0  0  0  0  0  0  0  0  0  0
  1  2  1  0
  2  3  2  0
  3  4  1  0
  3  5  1  0
  5  6  2  0
  5  7  2  0
  5  8  1  0
  8  9  1  0
  9 10  1  0
  9 11  1  0
  9 12  1  0
 12 13  1  0
 12 14  1  0
 12 15  1  0
 15 16  1  0
 16 17  2  0
 16 18  1  0
 18 19  2  0
 19 20  1  0
 19 21  1  0
 21 22  1  0
 21 23  2  0
 23 24  1  0
 23 25  1  0
 25 26  1  0
 26 27  2  0
 26 28  1  0
 28 29  1  0
 28 30  1  0
 30 31  1  0
 30 32  1  0
 30 33  1  0
 33 34  2  0
 34 35  1  0
 34 36  1  0
 36 37  2  0
 37 38  1  0
 37 39  1  0
 39 40  1  0
 39 41  2  0
 41 42  1  0
 25 43  2  0
 43 44  1  0
 15 45  1  0
 45 46  1  0
 45 47  1  0
 45 48  1  0
 48 49  1  0
 48 50  1  0
  2 51  1  0
 51 52  2  0
 52 53  1  0
 52 54  1  0
 54 55  1  0
 54 56  2  0
 56 57  1  0
 56 58  1  0
 58 59  1  0
 58 60  2  0
 60 61  1  0
 48  8  1  0
 60 51  1  0
 43 18  1  0
 41 33  1  0
M  END
>  <UniqueID>  (31) 
31

>  <SMILES>  (31) 
O=C(NCc1cccnc1)c1cccc(C(=O)N2CCN(S(=O)(=O)/C=C/c3ccccc3)CC2)c1

>  <Energy>  (31) 
75.68627619453034

>  <Genealogy>  (31) 
O=C(NCc1cccnc1)c1cccc(C(=O)N2CCN(S(=O)(=O)/C=C/c3ccccc3)CC2)c1 (cis-trans isomerization)
O=C(NCc1cccnc1)c1cccc(C(=O)N2CCN(S(=O)(=O)/C=C/c3ccccc3)CC2)c1 (3D coordinates assigned)
O=C(NCc1cccnc1)c1cccc(C(=O)N2CCN(S(=O)(=O)/C=C/c3ccccc3)CC2)c1 (nonaromatic ring conformer: 75.68627619453034 kcal/mol)

>  <smiles>  (31) 
O=C(NCc1cccnc1)c1cccc(C(=O)N2CCN(S(=O)(=O)C=Cc3ccccc3)CC2)c1

>  <score_type>  (31) 
oracle

>  <origin>  (31) 
adg

>  <m_score__min__energy>  (31) 
-10.640000000000001

>  <m_primary>  (31) 
energy

$$$$
31:0
     RDKit          3D

 64 67  0  0  0  0  0  0  0  0999 V2000
   66.1840   32.3050   50.0960 C   0  0  0  0  0  0  0  0  0  0  0  0
   65.1500   33.2100   50.6990 C   0  0  0  0  0  0  0  0  0  0  0  0
   65.3910   33.7330   51.8210 O   0  0  0  0  0  0  0  0  0  0  0  0
   63.9150   33.5050   50.0120 N   0  0  0  0  0  0  0  0  0  0  0  0
   63.7530   33.1400   48.5940 C   0  0  0  0  0  0  0  0  0  0  0  0
   62.4930   33.7640   47.9830 C   0  0  0  0  0  0  0  0  0  0  0  0
   61.3380   33.5430   48.8640 N   0  0  0  0  0  0  0  0  0  0  0  0
   60.0700   33.1090   48.3330 C   0  0  0  0  0  0  0  0  0  0  0  0
   59.3400   32.3460   49.0230 O   0  0  0  0  0  0  0  0  0  0  0  0
   59.5950   33.5410   46.9980 C   0  0  0  0  0  0  0  0  0  0  0  0
   59.7440   34.8740   46.5820 C   0  0  0  0  0  0  0  0  0  0  0  0
   59.2660   35.2800   45.3340 C   0  0  0  0  0  0  0  0  0  0  0  0
   58.6360   34.3620   44.4910 C   0  0  0  0  0  0  0  0  0  0  0  0
   58.4870   33.0280   44.8820 C   0  0  0  0  0  0  0  0  0  0  0  0
   57.8120   32.1230   43.9950 N   0  0  0  0  0  0  0  0  0  0  0  0
   57.3370   30.8090   44.3130 C   0  0  0  0  0  0  0  0  0  0  0  0
   56.1920   30.6470   44.8150 O   0  0  0  0  0  0  0  0  0  0  0  0
   58.1890   29.6820   44.0620 N   0  0  0  0  0  0  0  0  0  0  0  0
   57.9180   28.3450   44.5150 C   0  0  0  0  0  0  0  0  0  0  0  0
   57.3920   28.1470   45.8000 C   0  0  0  0  0  0  0  0  0  0  0  0
   57.0930   26.8600   46.2550 C   0  0  0  0  0  0  0  0  0  0  0  0
   57.3060   25.7520   45.4250 C   0  0  0  0  0  0  0  0  0  0  0  0
   56.8990   24.1410   46.0070 S   0  0  0  0  0  0  0  0  0  0  0  0
   57.7210   23.8490   47.2320 O   0  0  0  0  0  0  0  0  0  0  0  0
   57.2150   23.1130   44.9550 O   0  0  0  0  0  0  0  0  0  0  0  0
   55.1980   24.0800   46.4030 N   0  0  0  0  0  0  0  0  0  0  0  0
   54.3810   24.7280   45.3520 C   0  0  0  0  0  0  0  0  0  0  0  0
   53.6210   23.7040   44.4900 C   0  0  0  0  0  0  0  0  0  0  0  0
   52.7600   22.8680   45.2480 O   0  0  0  0  0  0  0  0  0  0  0  0
   53.2730   22.5280   46.5320 C   0  0  0  0  0  0  0  0  0  0  0  0
   54.7960   22.6860   46.6680 C   0  0  0  0  0  0  0  0  0  0  0  0
   57.8060   25.9440   44.1310 C   0  0  0  0  0  0  0  0  0  0  0  0
   58.1050   27.2310   43.6750 C   0  0  0  0  0  0  0  0  0  0  0  0
   58.9440   32.6260   46.1510 C   0  0  0  0  0  0  0  0  0  0  0  0
   61.4760   33.7160   50.3180 C   0  0  0  0  0  0  0  0  0  0  0  0
   62.8560   34.2680   50.6940 C   0  0  0  0  0  0  0  0  0  0  0  0
   66.7502   31.8094   50.8983 H   0  0  0  0  0  0  0  0  0  0  0  0
   65.6883   31.5453   49.4738 H   0  0  0  0  0  0  0  0  0  0  0  0
   66.8714   32.8969   49.4738 H   0  0  0  0  0  0  0  0  0  0  0  0
   64.6317   33.4920   48.0336 H   0  0  0  0  0  0  0  0  0  0  0  0
   63.6555   32.0460   48.5328 H   0  0  0  0  0  0  0  0  0  0  0  0
   62.6493   34.8451   47.8534 H   0  0  0  0  0  0  0  0  0  0  0  0
   62.2960   33.2931   47.0086 H   0  0  0  0  0  0  0  0  0  0  0  0
   60.2393   35.6015   47.2419 H   0  0  0  0  0  0  0  0  0  0  0  0
   59.3861   36.3256   45.0143 H   0  0  0  0  0  0  0  0  0  0  0  0
   58.2545   34.6906   43.5130 H   0  0  0  0  0  0  0  0  0  0  0  0
   59.0100   29.8330   43.4350 H   0  0  0  0  0  0  0  0  0  0  0  0
   57.2133   29.0122   46.4553 H   0  0  0  0  0  0  0  0  0  0  0  0
   56.6891   26.7166   47.2681 H   0  0  0  0  0  0  0  0  0  0  0  0
   53.6517   25.3967   45.8326 H   0  0  0  0  0  0  0  0  0  0  0  0
   55.0618   25.2851   44.6916 H   0  0  0  0  0  0  0  0  0  0  0  0
   53.0171   24.2492   43.7497 H   0  0  0  0  0  0  0  0  0  0  0  0
   54.3710   23.0560   44.0129 H   0  0  0  0  0  0  0  0  0  0  0  0
   52.7915   23.1772   47.2781 H   0  0  0  0  0  0  0  0  0  0  0  0
   53.0524   21.4615   46.6865 H   0  0  0  0  0  0  0  0  0  0  0  0
   55.0985   22.4102   47.6890 H   0  0  0  0  0  0  0  0  0  0  0  0
   55.2879   22.0292   45.9354 H   0  0  0  0  0  0  0  0  0  0  0  0
   57.9641   25.0785   43.4708 H   0  0  0  0  0  0  0  0  0  0  0  0
   58.4886   27.3741   42.6540 H   0  0  0  0  0  0  0  0  0  0  0  0
   58.7909   31.5885   46.4829 H   0  0  0  0  0  0  0  0  0  0  0  0
   60.7040   34.4167   50.6687 H   0  0  0  0  0  0  0  0  0  0  0  0
   61.3590   32.7310   50.7935 H   0  0  0  0  0  0  0  0  0  0  0  0
   62.9186   35.3242   50.3931 H   0  0  0  0  0  0  0  0  0  0  0  0
   62.9935   34.1772   51.7816 H   0  0  0  0  0  0  0  0  0  0  0  0
  1  2  1  0
  2  3  2  0
  2  4  1  0
  4  5  1  0
  5  6  1  0
  6  7  1  0
  7  8  1  0
  8  9  2  0
  8 10  1  0
 10 11  2  0
 11 12  1  0
 12 13  2  0
 13 14  1  0
 14 15  1  0
 15 16  1  0
 16 17  2  0
 16 18  1  0
 18 19  1  0
 19 20  2  0
 20 21  1  0
 21 22  2  0
 22 23  1  0
 23 24  2  0
 23 25  2  0
 23 26  1  0
 26 27  1  0
 27 28  1  0
 28 29  1  0
 29 30  1  0
 30 31  1  0
 22 32  1  0
 32 33  2  0
 14 34  2  0
  7 35  1  0
 35 36  1  0
 36  4  1  0
 34 10  1  0
 33 19  1  0
 31 26  1  0
  1 37  1  0
  1 38  1  0
  1 39  1  0
  5 40  1  0
  5 41  1  0
  6 42  1  0
  6 43  1  0
 11 44  1  0
 12 45  1  0
 13 46  1  0
 18 47  1  0
 20 48  1  0
 21 49  1  0
 27 50  1  0
 27 51  1  0
 28 52  1  0
 28 53  1  0
 30 54  1  0
 30 55  1  0
 31 56  1  0
 31 57  1  0
 32 58  1  0
 33 59  1  0
 34 60  1  0
 35 61  1  0
 35 62  1  0
 36 63  1  0
 36 64  1  0
M  CHG  1  15  -1
M  END
>  <UniqueID>  (32) 
32

>  <SMILES>  (32) 
CC(=O)N1CCN(C(=O)c2cccc([N-]C(=O)Nc3ccc(S(=O)(=O)N4CCOCC4)cc3)c2)CC1

>  <Energy>  (32) 
88.76977327124123

>  <Genealogy>  (32) 
CC(=O)N1CCN(C(=O)c2cccc([N-]C(=O)Nc3ccc(S(=O)(=O)N4CCOCC4)cc3)c2)CC1 (protonated)
CC(=O)N1CCN(C(=O)c2cccc([N-]C(=O)Nc3ccc(S(=O)(=O)N4CCOCC4)cc3)c2)CC1 (3D coordinates assigned)
CC(=O)N1CCN(C(=O)c2cccc([N-]C(=O)Nc3ccc(S(=O)(=O)N4CCOCC4)cc3)c2)CC1 (nonaromatic ring conformer: 88.76977327124123 kcal/mol)

>  <smiles>  (32) 
CC(=O)N1CCN(C(=O)c2cccc(NC(=O)Nc3ccc(S(=O)(=O)N4CCOCC4)cc3)c2)CC1

>  <score_type>  (32) 
oracle

>  <origin>  (32) 
adg

>  <m_score__min__energy>  (32) 
-12.99

>  <m_primary>  (32) 
energy

$$$$
32:0
     RDKit          3D

 63 66  0  0  0  0  0  0  0  0999 V2000
   62.9520   30.8410   51.1570 C   0  0  0  0  0  0  0  0  0  0  0  0
   61.7520   30.6080   50.4290 O   0  0  0  0  0  0  0  0  0  0  0  0
   61.7030   30.6210   49.0310 C   0  0  0  0  0  0  0  0  0  0  0  0
   62.6090   31.2030   48.3730 O   0  0  0  0  0  0  0  0  0  0  0  0
   60.5840   29.9550   48.3280 C   0  0  0  0  0  0  0  0  0  0  0  0
   60.3910   28.5680   48.4480 C   0  0  0  0  0  0  0  0  0  0  0  0
   59.3320   27.9400   47.7830 C   0  0  0  0  0  0  0  0  0  0  0  0
   58.4340   28.6890   47.0160 C   0  0  0  0  0  0  0  0  0  0  0  0
   57.3770   28.0150   46.3180 N   0  0  0  0  0  0  0  0  0  0  0  0
   57.5230   27.4060   45.0310 C   0  0  0  0  0  0  0  0  0  0  0  0
   57.3440   26.1660   44.8900 O   0  0  0  0  0  0  0  0  0  0  0  0
   57.9130   28.2410   43.8510 C   0  0  0  0  0  0  0  0  0  0  0  0
   57.4150   29.6030   44.0190 N   0  0  0  0  0  0  0  0  0  0  0  0
   58.1210   30.7350   43.8600 C   0  0  0  0  0  0  0  0  0  0  0  0
   57.3090   31.7550   44.3010 C   0  0  0  0  0  0  0  0  0  0  0  0
   57.7260   33.1690   44.5590 C   0  0  0  0  0  0  0  0  0  0  0  0
   58.2220   33.2940   45.9280 N   0  0  0  0  0  0  0  0  0  0  0  0
   59.2800   34.2030   46.2750 C   0  0  0  0  0  0  0  0  0  0  0  0
   59.6200   35.1080   45.4640 O   0  0  0  0  0  0  0  0  0  0  0  0
   60.0160   34.0620   47.5480 C   0  0  0  0  0  0  0  0  0  0  0  0
   61.4110   34.2240   47.5990 C   0  0  0  0  0  0  0  0  0  0  0  0
   62.0910   34.1050   48.8140 C   0  0  0  0  0  0  0  0  0  0  0  0
   61.3870   33.8290   49.9870 C   0  0  0  0  0  0  0  0  0  0  0  0
   59.9960   33.6610   49.9540 C   0  0  0  0  0  0  0  0  0  0  0  0
   59.1030   33.3360   51.4440 S   0  0  0  0  0  0  0  0  0  0  0  0
   60.0330   32.7280   52.4570 O   0  0  0  0  0  0  0  0  0  0  0  0
   58.5910   34.6340   52.0040 O   0  0  0  0  0  0  0  0  0  0  0  0
   57.7580   32.2540   51.1720 N   0  0  0  0  0  0  0  0  0  0  0  0
   58.1760   31.0420   50.4340 C   0  0  0  0  0  0  0  0  0  0  0  0
   58.2440   29.8020   51.3450 C   0  0  0  0  0  0  0  0  0  0  0  0
   57.0100   29.5080   51.9830 O   0  0  0  0  0  0  0  0  0  0  0  0
   56.2460   30.6610   52.3170 C   0  0  0  0  0  0  0  0  0  0  0  0
   57.0760   31.9500   52.4440 C   0  0  0  0  0  0  0  0  0  0  0  0
   59.3170   33.7720   48.7320 C   0  0  0  0  0  0  0  0  0  0  0  0
   56.1430   31.2200   44.7210 N   0  0  0  0  0  0  0  0  0  0  0  0
   56.2350   29.9110   44.5340 N   0  0  0  0  0  0  0  0  0  0  0  0
   58.6300   30.0720   46.8810 C   0  0  0  0  0  0  0  0  0  0  0  0
   59.7020   30.6980   47.5230 C   0  0  0  0  0  0  0  0  0  0  0  0
   62.7403   30.7999   52.2357 H   0  0  0  0  0  0  0  0  0  0  0  0
   63.6929   30.0699   50.8991 H   0  0  0  0  0  0  0  0  0  0  0  0
   63.3505   31.8333   50.8991 H   0  0  0  0  0  0  0  0  0  0  0  0
   61.0767   27.9724   49.0686 H   0  0  0  0  0  0  0  0  0  0  0  0
   59.2051   26.8504   47.8641 H   0  0  0  0  0  0  0  0  0  0  0  0
   59.0095   28.2616   43.7654 H   0  0  0  0  0  0  0  0  0  0  0  0
   57.4767   27.8060   42.9398 H   0  0  0  0  0  0  0  0  0  0  0  0
   59.1410   30.8278   43.4588 H   0  0  0  0  0  0  0  0  0  0  0  0
   58.5227   33.4497   43.8543 H   0  0  0  0  0  0  0  0  0  0  0  0
   56.8610   33.8347   44.4226 H   0  0  0  0  0  0  0  0  0  0  0  0
   57.8930   32.5910   46.6260 H   0  0  0  0  0  0  0  0  0  0  0  0
   61.9703   34.4455   46.6781 H   0  0  0  0  0  0  0  0  0  0  0  0
   63.1835   34.2291   48.8459 H   0  0  0  0  0  0  0  0  0  0  0  0
   61.9264   33.7429   50.9418 H   0  0  0  0  0  0  0  0  0  0  0  0
   57.4522   30.8505   49.6281 H   0  0  0  0  0  0  0  0  0  0  0  0
   59.1839   31.2218   50.0318 H   0  0  0  0  0  0  0  0  0  0  0  0
   58.5370   28.9353   50.7344 H   0  0  0  0  0  0  0  0  0  0  0  0
   58.9776   30.0174   52.1359 H   0  0  0  0  0  0  0  0  0  0  0  0
   55.4896   30.8131   51.5329 H   0  0  0  0  0  0  0  0  0  0  0  0
   55.8017   30.4715   53.3053 H   0  0  0  0  0  0  0  0  0  0  0  0
   56.4096   32.7851   52.7058 H   0  0  0  0  0  0  0  0  0  0  0  0
   57.8339   31.8086   53.2286 H   0  0  0  0  0  0  0  0  0  0  0  0
   58.2266   33.6307   48.7000 H   0  0  0  0  0  0  0  0  0  0  0  0
   57.9369   30.6660   46.2672 H   0  0  0  0  0  0  0  0  0  0  0  0
   59.8570   31.7798   47.3978 H   0  0  0  0  0  0  0  0  0  0  0  0
  1  2  1  0
  2  3  1  0
  3  4  2  0
  3  5  1  0
  5  6  2  0
  6  7  1  0
  7  8  2  0
  8  9  1  0
  9 10  1  0
 10 11  2  0
 10 12  1  0
 12 13  1  0
 13 14  1  0
 14 15  2  0
 15 16  1  0
 16 17  1  0
 17 18  1  0
 18 19  2  0
 18 20  1  0
 20 21  2  0
 21 22  1  0
 22 23  2  0
 23 24  1  0
 24 25  1  0
 25 26  2  0
 25 27  2  0
 25 28  1  0
 28 29  1  0
 29 30  1  0
 30 31  1  0
 31 32  1  0
 32 33  1  0
 24 34  2  0
 15 35  1  0
 35 36  2  0
  8 37  1  0
 37 38  2  0
 38  5  1  0
 36 13  1  0
 34 20  1  0
 33 28  1  0
  1 39  1  0
  1 40  1  0
  1 41  1  0
  6 42  1  0
  7 43  1  0
 12 44  1  0
 12 45  1  0
 14 46  1  0
 16 47  1  0
 16 48  1  0
 17 49  1  0
 21 50  1  0
 22 51  1  0
 23 52  1  0
 29 53  1  0
 29 54  1  0
 30 55  1  0
 30 56  1  0
 32 57  1  0
 32 58  1  0
 33 59  1  0
 33 60  1  0
 34 61  1  0
 37 62  1  0
 38 63  1  0
M  CHG  1   9  -1
M  END
>  <UniqueID>  (33) 
33

>  <SMILES>  (33) 
COC(=O)c1ccc([N-]C(=O)Cn2cc(CNC(=O)c3cccc(S(=O)(=O)N4CCOCC4)c3)nn2)cc1

>  <Energy>  (33) 
110.17745187732272

>  <Genealogy>  (33) 
COC(=O)c1ccc([N-]C(=O)Cn2cc(CNC(=O)c3cccc(S(=O)(=O)N4CCOCC4)c3)nn2)cc1 (protonated)
COC(=O)c1ccc([N-]C(=O)Cn2cc(CNC(=O)c3cccc(S(=O)(=O)N4CCOCC4)c3)nn2)cc1 (3D coordinates assigned)
COC(=O)c1ccc([N-]C(=O)Cn2cc(CNC(=O)c3cccc(S(=O)(=O)N4CCOCC4)c3)nn2)cc1 (nonaromatic ring conformer: 110.17745187732272 kcal/mol)

>  <smiles>  (33) 
COC(=O)c1ccc(NC(=O)Cn2cc(CNC(=O)c3cccc(S(=O)(=O)N4CCOCC4)c3)nn2)cc1

>  <score_type>  (33) 
oracle

>  <origin>  (33) 
adg

>  <m_score__min__energy>  (33) 
-11.699999999999999

>  <m_primary>  (33) 
energy

$$$$
33:0
     RDKit          3D

 58 61  0  0  0  0  0  0  0  0999 V2000
   56.6322   25.9602   44.1364 H   0  0  0  0  0  0  0  0  0  0  0  0
   57.4560   26.5880   43.7660 C   0  0  0  0  0  0  0  0  0  0  0  0
   57.5230   26.8321   42.6955 H   0  0  0  0  0  0  0  0  0  0  0  0
   58.3770   27.0550   44.6180 C   0  0  0  0  0  0  0  0  0  0  0  0
   58.4700   26.8650   46.0100 C   0  0  0  0  0  0  0  0  0  0  0  0
   57.7080   26.1300   46.8490 C   0  0  0  0  0  0  0  0  0  0  0  0
   57.9104   26.2212   47.9264 H   0  0  0  0  0  0  0  0  0  0  0  0
   56.6300   25.2180   46.4390 C   0  0  0  0  0  0  0  0  0  0  0  0
   55.3960   25.7190   45.9980 C   0  0  0  0  0  0  0  0  0  0  0  0
   55.1580   27.0890   45.9680 O   0  0  0  0  0  0  0  0  0  0  0  0
   54.4230   24.8610   45.5960 N   0  0  0  0  0  0  0  0  0  0  0  0
   54.6250   23.5170   45.6070 C   0  0  0  0  0  0  0  0  0  0  0  0
   53.7080   22.7400   45.2340 O   0  0  0  0  0  0  0  0  0  0  0  0
   55.8170   23.0110   46.0190 N   0  0  0  0  0  0  0  0  0  0  0  0
   56.8230   23.8270   46.4280 C   0  0  0  0  0  0  0  0  0  0  0  0
   57.9180   23.3270   46.8010 O   0  0  0  0  0  0  0  0  0  0  0  0
   59.6040   27.5770   46.4060 C   0  0  0  0  0  0  0  0  0  0  0  0
   60.1680   27.6680   47.7710 C   0  0  0  0  0  0  0  0  0  0  0  0
   60.0920   26.6710   48.5380 O   0  0  0  0  0  0  0  0  0  0  0  0
   60.7520   28.8800   48.2670 N   0  0  0  0  0  0  0  0  0  0  0  0
   60.5380   30.1950   47.7340 C   0  0  0  0  0  0  0  0  0  0  0  0
   61.6440   30.9730   47.3860 C   0  0  0  0  0  0  0  0  0  0  0  0
   62.6586   30.5688   47.5170 H   0  0  0  0  0  0  0  0  0  0  0  0
   61.4720   32.2600   46.8730 C   0  0  0  0  0  0  0  0  0  0  0  0
   62.3523   32.8650   46.6104 H   0  0  0  0  0  0  0  0  0  0  0  0
   60.1790   32.7900   46.6890 C   0  0  0  0  0  0  0  0  0  0  0  0
   59.9780   34.0820   46.1760 O   0  0  0  0  0  0  0  0  0  0  0  0
   59.6110   35.2150   46.9570 C   0  0  0  0  0  0  0  0  0  0  0  0
   59.6918   34.9656   48.0253 H   0  0  0  0  0  0  0  0  0  0  0  0
   60.2833   36.0540   46.7245 H   0  0  0  0  0  0  0  0  0  0  0  0
   58.5744   35.5005   46.7245 H   0  0  0  0  0  0  0  0  0  0  0  0
   59.0580   32.0000   47.0220 C   0  0  0  0  0  0  0  0  0  0  0  0
   57.6480   32.5080   46.8310 C   0  0  0  0  0  0  0  0  0  0  0  0
   56.9858   32.0147   47.5577 H   0  0  0  0  0  0  0  0  0  0  0  0
   57.6428   33.5972   46.9845 H   0  0  0  0  0  0  0  0  0  0  0  0
   57.1650   32.2210   45.4630 N   0  0  0  0  0  0  0  0  0  0  0  0
   57.7420   30.9600   44.9410 C   0  0  0  0  0  0  0  0  0  0  0  0
   58.8033   30.9043   45.2248 H   0  0  0  0  0  0  0  0  0  0  0  0
   57.1861   30.1134   45.3703 H   0  0  0  0  0  0  0  0  0  0  0  0
   57.6260   30.9000   43.4100 C   0  0  0  0  0  0  0  0  0  0  0  0
   58.0683   29.9524   43.0688 H   0  0  0  0  0  0  0  0  0  0  0  0
   56.5550   30.9844   43.1739 H   0  0  0  0  0  0  0  0  0  0  0  0
   58.2760   31.9650   42.7270 O   0  0  0  0  0  0  0  0  0  0  0  0
   58.5220   33.1000   43.5440 C   0  0  0  0  0  0  0  0  0  0  0  0
   59.4560   32.9354   44.1012 H   0  0  0  0  0  0  0  0  0  0  0  0
   58.5892   33.9752   42.8811 H   0  0  0  0  0  0  0  0  0  0  0  0
   57.3910   33.3700   44.5510 C   0  0  0  0  0  0  0  0  0  0  0  0
   57.6553   34.2525   45.1521 H   0  0  0  0  0  0  0  0  0  0  0  0
   56.4647   33.5358   43.9814 H   0  0  0  0  0  0  0  0  0  0  0  0
   59.2460   30.7010   47.5170 C   0  0  0  0  0  0  0  0  0  0  0  0
   58.3714   30.0714   47.7377 H   0  0  0  0  0  0  0  0  0  0  0  0
   60.1370   28.1540   45.2640 C   0  0  0  0  0  0  0  0  0  0  0  0
   61.3760   28.9920   45.1780 C   0  0  0  0  0  0  0  0  0  0  0  0
   61.7285   29.2304   46.1923 H   0  0  0  0  0  0  0  0  0  0  0  0
   62.1577   28.4365   44.6393 H   0  0  0  0  0  0  0  0  0  0  0  0
   61.1514   29.9244   44.6393 H   0  0  0  0  0  0  0  0  0  0  0  0
   59.3980   27.8270   44.1920 N   0  0  0  0  0  0  0  0  0  0  0  0
   59.5840   28.1260   43.2070 H   0  0  0  0  0  0  0  0  0  0  0  0
  1  2  1  0
  2  3  1  0
  2  4  2  0
  4  5  1  0
  5  6  2  0
  6  7  1  0
  6  8  1  0
  8  9  2  0
  9 10  1  0
  9 11  1  0
 11 12  1  0
 12 13  2  0
 12 14  1  0
 14 15  1  0
 15 16  2  0
  5 17  1  0
 17 18  1  0
 18 19  2  0
 18 20  1  0
 20 21  1  0
 21 22  2  0
 22 23  1  0
 22 24  1  0
 24 25  1  0
 24 26  2  0
 26 27  1  0
 27 28  1  0
 28 29  1  0
 28 30  1  0
 28 31  1  0
 26 32  1  0
 32 33  1  0
 33 34  1  0
 33 35  1  0
 33 36  1  0
 36 37  1  0
 37 38  1  0
 37 39  1  0
 37 40  1  0
 40 41  1  0
 40 42  1  0
 40 43  1  0
 43 44  1  0
 44 45  1  0
 44 46  1  0
 44 47  1  0
 47 48  1  0
 47 49  1  0
 32 50  2  0
 50 51  1  0
 17 52  2  0
 52 53  1  0
 53 54  1  0
 53 55  1  0
 53 56  1  0
 52 57  1  0
 57 58  1  0
 57  4  1  0
 15  8  1  0
 50 21  1  0
 47 36  1  0
M  CHG  4  10  -1  11  -1  14  -1  20  -1
M  END
>  <UniqueID>  (34) 
34

>  <SMILES>  (34) 
C=c1[nH]c(C)c(C(=O)[N-]c2ccc(OC)c(CN3CCOCC3)c2)/c1=C/c1c([O-])[n-]c(=O)[n-]c1=O

>  <Energy>  (34) 
123.45492890869284

>  <Genealogy>  (34) 
C=c1[nH]c(C)c(C(=O)[N-]c2ccc(OC)c(CN3CCOCC3)c2)c1=Cc1c([O-])[n-]c(=O)[n-]c1=O (protonated)
C=c1[nH]c(C)c(C(=O)[N-]c2ccc(OC)c(CN3CCOCC3)c2)/c1=C/c1c([O-])[n-]c(=O)[n-]c1=O (cis-trans isomerization)
C=c1[nH]c(C)c(C(=O)[N-]c2ccc(OC)c(CN3CCOCC3)c2)/c1=C/c1c([O-])[n-]c(=O)[n-]c1=O (3D coordinates assigned)
C=c1[nH]c(C)c(C(=O)[N-]c2ccc(OC)c(CN3CCOCC3)c2)/c1=C/c1c([O-])[n-]c(=O)[n-]c1=O (nonaromatic ring conformer: 123.45492890869284 kcal/mol)

>  <smiles>  (34) 
C=c1[nH]c(C)c(C(=O)Nc2ccc(OC)c(CN3CCOCC3)c2)c1=Cc1c(O)[nH]c(=O)[nH]c1=O

>  <score_type>  (34) 
oracle

>  <origin>  (34) 
adg

>  <m_score__min__energy>  (34) 
-17.059999999999999

>  <m_primary>  (34) 
energy

$$$$
34:0
     RDKit          3D

 59 63  0  0  0  0  0  0  0  0999 V2000
   58.2500   34.0610   52.5160 C   0  0  0  0  0  0  0  0  0  0  0  0
   57.9950   32.6500   52.0770 C   0  0  0  0  0  0  0  0  0  0  0  0
   56.7470   32.0470   52.2320 C   0  0  0  0  0  0  0  0  0  0  0  0
   56.8360   30.4690   51.6620 S   0  0  0  0  0  0  0  0  0  0  0  0
   58.4530   30.5360   51.2080 C   0  0  0  0  0  0  0  0  0  0  0  0
   59.1810   29.4840   50.5680 N   0  0  0  0  0  0  0  0  0  0  0  0
   59.9850   29.6790   49.0490 S   0  0  0  0  0  0  0  0  0  0  0  0
   61.3810   29.1330   49.1540 O   0  0  0  0  0  0  0  0  0  0  0  0
   60.0630   31.1400   48.7050 O   0  0  0  0  0  0  0  0  0  0  0  0
   59.1110   28.7830   47.8110 C   0  0  0  0  0  0  0  0  0  0  0  0
   59.2430   27.3900   47.7450 C   0  0  0  0  0  0  0  0  0  0  0  0
   58.5430   26.6640   46.7810 C   0  0  0  0  0  0  0  0  0  0  0  0
   57.6990   27.3210   45.8830 C   0  0  0  0  0  0  0  0  0  0  0  0
   57.5400   28.7150   45.9500 C   0  0  0  0  0  0  0  0  0  0  0  0
   56.6470   29.4160   45.0020 C   0  0  0  0  0  0  0  0  0  0  0  0
   55.4000   29.3380   45.1630 O   0  0  0  0  0  0  0  0  0  0  0  0
   57.1720   30.1870   43.9040 N   0  0  0  0  0  0  0  0  0  0  0  0
   56.4990   30.1140   42.6060 C   0  0  0  0  0  0  0  0  0  0  0  0
   58.4900   30.8280   44.0090 C   0  0  0  0  0  0  0  0  0  0  0  0
   58.4070   32.0270   44.9120 C   0  0  0  0  0  0  0  0  0  0  0  0
   59.3220   32.1860   45.9660 C   0  0  0  0  0  0  0  0  0  0  0  0
   59.2140   33.2780   46.8330 C   0  0  0  0  0  0  0  0  0  0  0  0
   58.1860   34.2100   46.6620 C   0  0  0  0  0  0  0  0  0  0  0  0
   57.2640   34.0500   45.6240 C   0  0  0  0  0  0  0  0  0  0  0  0
   57.3700   32.9620   44.7540 C   0  0  0  0  0  0  0  0  0  0  0  0
   58.2630   29.4430   46.9100 C   0  0  0  0  0  0  0  0  0  0  0  0
   58.9610   31.8030   51.4870 C   0  0  0  0  0  0  0  0  0  0  0  0
   60.3600   32.1870   51.2020 C   0  0  0  0  0  0  0  0  0  0  0  0
   61.3490   31.2890   50.9570 N   0  0  0  0  0  0  0  0  0  0  0  0
   62.5340   31.9000   50.6970 C   0  0  0  0  0  0  0  0  0  0  0  0
   63.7310   31.2350   50.4190 C   0  0  0  0  0  0  0  0  0  0  0  0
   64.8850   31.9980   50.1710 C   0  0  0  0  0  0  0  0  0  0  0  0
   64.8310   33.4060   50.2030 C   0  0  0  0  0  0  0  0  0  0  0  0
   63.6220   34.0630   50.4830 C   0  0  0  0  0  0  0  0  0  0  0  0
   62.4940   33.2850   50.7260 C   0  0  0  0  0  0  0  0  0  0  0  0
   60.9320   33.7800   51.0890 S   0  0  0  0  0  0  0  0  0  0  0  0
   58.2584   34.1072   53.6150 H   0  0  0  0  0  0  0  0  0  0  0  0
   59.2232   34.3957   52.1275 H   0  0  0  0  0  0  0  0  0  0  0  0
   57.4555   34.7151   52.1275 H   0  0  0  0  0  0  0  0  0  0  0  0
   55.8524   32.5254   52.6571 H   0  0  0  0  0  0  0  0  0  0  0  0
   59.9004   26.8671   48.4552 H   0  0  0  0  0  0  0  0  0  0  0  0
   58.6562   25.5711   46.7281 H   0  0  0  0  0  0  0  0  0  0  0  0
   57.1562   26.7441   45.1197 H   0  0  0  0  0  0  0  0  0  0  0  0
   55.4163   29.9966   42.7605 H   0  0  0  0  0  0  0  0  0  0  0  0
   56.6907   31.0382   42.0411 H   0  0  0  0  0  0  0  0  0  0  0  0
   56.8844   29.2524   42.0411 H   0  0  0  0  0  0  0  0  0  0  0  0
   59.2128   30.1094   44.4228 H   0  0  0  0  0  0  0  0  0  0  0  0
   58.8159   31.1504   43.0091 H   0  0  0  0  0  0  0  0  0  0  0  0
   60.1260   31.4492   46.1098 H   0  0  0  0  0  0  0  0  0  0  0  0
   59.9389   33.4038   47.6507 H   0  0  0  0  0  0  0  0  0  0  0  0
   58.1029   35.0689   47.3442 H   0  0  0  0  0  0  0  0  0  0  0  0
   56.4535   34.7819   45.4918 H   0  0  0  0  0  0  0  0  0  0  0  0
   56.6386   32.8368   43.9419 H   0  0  0  0  0  0  0  0  0  0  0  0
   58.1632   30.5375   46.9551 H   0  0  0  0  0  0  0  0  0  0  0  0
   61.2250   30.2530   50.9860 H   0  0  0  0  0  0  0  0  0  0  0  0
   63.7694   30.1359   50.3947 H   0  0  0  0  0  0  0  0  0  0  0  0
   65.8369   31.4928   49.9504 H   0  0  0  0  0  0  0  0  0  0  0  0
   65.7405   33.9931   50.0077 H   0  0  0  0  0  0  0  0  0  0  0  0
   63.5680   35.1614   50.5095 H   0  0  0  0  0  0  0  0  0  0  0  0
  1  2  1  0
  2  3  2  0
  3  4  1  0
  4  5  1  0
  5  6  1  0
  6  7  1  0
  7  8  2  0
  7  9  2  0
  7 10  1  0
 10 11  2  0
 11 12  1  0
 12 13  2  0
 13 14  1  0
 14 15  1  0
 15 16  2  0
 15 17  1  0
 17 18  1  0
 17 19  1  0
 19 20  1  0
 20 21  2  0
 21 22  1  0
 22 23  2  0
 23 24  1  0
 24 25  2  0
 14 26  2  0
  5 27  2  0
 27 28  1  0
 28 29  2  0
 29 30  1  0
 30 31  2  0
 31 32  1  0
 32 33  2  0
 33 34  1  0
 34 35  2  0
 35 36  1  0
 27  2  1  0
 36 28  1  0
 26 10  1  0
 35 30  1  0
 25 20  1  0
  1 37  1  0
  1 38  1  0
  1 39  1  0
  3 40  1  0
 11 41  1  0
 12 42  1  0
 13 43  1  0
 18 44  1  0
 18 45  1  0
 18 46  1  0
 19 47  1  0
 19 48  1  0
 21 49  1  0
 22 50  1  0
 23 51  1  0
 24 52  1  0
 25 53  1  0
 26 54  1  0
 29 55  1  0
 31 56  1  0
 32 57  1  0
 33 58  1  0
 34 59  1  0
M  CHG  2   6  -1  29   1
M  END
>  <UniqueID>  (35) 
35

>  <SMILES>  (35) 
Cc1csc([N-]S(=O)(=O)c2cccc(C(=O)N(C)Cc3ccccc3)c2)c1-c1[nH+]c2ccccc2s1

>  <Energy>  (35) 
131.54743647852843

>  <Genealogy>  (35) 
Cc1csc([N-]S(=O)(=O)c2cccc(C(=O)N(C)Cc3ccccc3)c2)c1-c1[nH+]c2ccccc2s1 (protonated)
Cc1csc([N-]S(=O)(=O)c2cccc(C(=O)N(C)Cc3ccccc3)c2)c1-c1[nH+]c2ccccc2s1 (3D coordinates assigned)
Cc1csc([N-]S(=O)(=O)c2cccc(C(=O)N(C)Cc3ccccc3)c2)c1-c1[nH+]c2ccccc2s1 (optimized conformer: 131.54743647852843 kcal/mol)

>  <smiles>  (35) 
Cc1csc(NS(=O)(=O)c2cccc(C(=O)N(C)Cc3ccccc3)c2)c1-c1nc2ccccc2s1

>  <score_type>  (35) 
oracle

>  <origin>  (35) 
adg

>  <m_score__min__energy>  (35) 
-9.9299999999999997

>  <m_primary>  (35) 
energy

$$$$
35:0
     RDKit          3D

 43 45  0  0  0  0  0  0  0  0999 V2000
   58.7680   32.4450   49.5530 C   0  0  0  0  0  0  0  0  0  0  0  0
   58.8810   33.1370   48.2270 C   0  0  0  0  0  0  0  0  0  0  0  0
   59.8630   34.1170   48.0220 C   0  0  0  0  0  0  0  0  0  0  0  0
   59.9460   34.7830   46.7960 C   0  0  0  0  0  0  0  0  0  0  0  0
   59.0430   34.4850   45.7720 C   0  0  0  0  0  0  0  0  0  0  0  0
   58.0400   33.5230   45.9720 C   0  0  0  0  0  0  0  0  0  0  0  0
   57.0730   33.1840   44.8700 C   0  0  0  0  0  0  0  0  0  0  0  0
   56.7330   31.7670   44.9170 N   0  0  0  0  0  0  0  0  0  0  0  0
   57.6380   30.7230   44.5410 C   0  0  0  0  0  0  0  0  0  0  0  0
   58.4880   30.9200   43.6320 O   0  0  0  0  0  0  0  0  0  0  0  0
   57.5980   29.4300   45.2610 C   0  0  0  0  0  0  0  0  0  0  0  0
   58.7410   28.8810   45.8820 C   0  0  0  0  0  0  0  0  0  0  0  0
   60.0150   29.5520   45.8550 N   0  0  0  0  0  0  0  0  0  0  0  0
   60.6850   30.0240   47.0370 C   0  0  0  0  0  0  0  0  0  0  0  0
   60.5000   29.3460   48.2530 C   0  0  0  0  0  0  0  0  0  0  0  0
   61.1260   29.8010   49.4180 C   0  0  0  0  0  0  0  0  0  0  0  0
   61.9300   30.9430   49.3820 C   0  0  0  0  0  0  0  0  0  0  0  0
   62.1030   31.6370   48.1820 C   0  0  0  0  0  0  0  0  0  0  0  0
   61.4800   31.1860   47.0140 C   0  0  0  0  0  0  0  0  0  0  0  0
   58.6390   27.6810   46.5110 N   0  0  0  0  0  0  0  0  0  0  0  0
   57.4770   26.9880   46.5530 C   0  0  0  0  0  0  0  0  0  0  0  0
   57.4370   25.8790   47.1500 O   0  0  0  0  0  0  0  0  0  0  0  0
   56.3600   27.4830   45.9510 N   0  0  0  0  0  0  0  0  0  0  0  0
   55.1920   26.7480   46.0080 O   0  0  0  0  0  0  0  0  0  0  0  0
   56.4020   28.6890   45.3070 C   0  0  0  0  0  0  0  0  0  0  0  0
   55.3580   29.1450   44.7630 O   0  0  0  0  0  0  0  0  0  0  0  0
   57.9620   32.8530   47.2040 C   0  0  0  0  0  0  0  0  0  0  0  0
   58.8881   33.1807   50.3619 H   0  0  0  0  0  0  0  0  0  0  0  0
   57.7801   31.9682   49.6347 H   0  0  0  0  0  0  0  0  0  0  0  0
   59.5529   31.6787   49.6347 H   0  0  0  0  0  0  0  0  0  0  0  0
   60.5699   34.3622   48.8283 H   0  0  0  0  0  0  0  0  0  0  0  0
   60.7243   35.5438   46.6367 H   0  0  0  0  0  0  0  0  0  0  0  0
   59.1182   35.0058   44.8060 H   0  0  0  0  0  0  0  0  0  0  0  0
   56.1577   33.7816   44.9931 H   0  0  0  0  0  0  0  0  0  0  0  0
   57.5407   33.4090   43.9001 H   0  0  0  0  0  0  0  0  0  0  0  0
   60.4320   29.8120   44.9350 H   0  0  0  0  0  0  0  0  0  0  0  0
   59.8594   28.4525   48.2893 H   0  0  0  0  0  0  0  0  0  0  0  0
   60.9850   29.2586   50.3645 H   0  0  0  0  0  0  0  0  0  0  0  0
   62.4265   31.2955   50.2981 H   0  0  0  0  0  0  0  0  0  0  0  0
   62.7305   32.5401   48.1558 H   0  0  0  0  0  0  0  0  0  0  0  0
   61.6115   31.7412   46.0736 H   0  0  0  0  0  0  0  0  0  0  0  0
   55.0130   26.0750   46.7460 H   0  0  0  0  0  0  0  0  0  0  0  0
   57.1761   32.1011   47.3685 H   0  0  0  0  0  0  0  0  0  0  0  0
  1  2  1  0
  2  3  2  0
  3  4  1  0
  4  5  2  0
  5  6  1  0
  6  7  1  0
  7  8  1  0
  8  9  1  0
  9 10  2  0
  9 11  1  0
 11 12  2  0
 12 13  1  0
 13 14  1  0
 14 15  2  0
 15 16  1  0
 16 17  2  0
 17 18  1  0
 18 19  2  0
 12 20  1  0
 20 21  1  0
 21 22  2  0
 21 23  1  0
 23 24  1  0
 23 25  1  0
 25 26  2  0
  6 27  2  0
 27  2  1  0
 25 11  1  0
 19 14  1  0
  1 28  1  0
  1 29  1  0
  1 30  1  0
  3 31  1  0
  4 32  1  0
  5 33  1  0
  7 34  1  0
  7 35  1  0
 13 36  1  0
 15 37  1  0
 16 38  1  0
 17 39  1  0
 18 40  1  0
 19 41  1  0
 24 42  1  0
 27 43  1  0
M  CHG  2   8  -1  20  -1
M  END
>  <UniqueID>  (36) 
36

>  <SMILES>  (36) 
Cc1cccc(C[N-]C(=O)c2c(Nc3ccccc3)[n-]c(=O)n(O)c2=O)c1

>  <Energy>  (36) 
56.45148599366553

>  <Genealogy>  (36) 
Cc1cccc(C[N-]C(=O)c2c(Nc3ccccc3)[n-]c(=O)n(O)c2=O)c1 (protonated)
Cc1cccc(C[N-]C(=O)c2c(Nc3ccccc3)[n-]c(=O)n(O)c2=O)c1 (3D coordinates assigned)
Cc1cccc(C[N-]C(=O)c2c(Nc3ccccc3)[n-]c(=O)n(O)c2=O)c1 (optimized conformer: 56.45148599366553 kcal/mol)

>  <smiles>  (36) 
Cc1cccc(CNC(=O)c2c(Nc3ccccc3)[nH]c(=O)n(O)c2=O)c1

>  <score_type>  (36) 
oracle

>  <origin>  (36) 
adg

>  <m_score__min__energy>  (36) 
-11.91

>  <m_primary>  (36) 
energy

$$$$
36:0
     RDKit          3D

 49 52  0  0  0  0  0  0  0  0999 V2000
   62.3620   33.8320   46.4210 C   0  0  0  0  0  0  0  0  0  0  0  0
   61.6740   33.9210   47.7420 C   0  0  0  0  0  0  0  0  0  0  0  0
   62.2420   33.5620   48.9110 N   0  0  0  0  0  0  0  0  0  0  0  0
   61.3490   33.7750   49.8650 N   0  0  0  0  0  0  0  0  0  0  0  0
   61.5690   33.4510   51.2680 C   0  0  0  0  0  0  0  0  0  0  0  0
   60.2040   34.2460   49.3370 C   0  0  0  0  0  0  0  0  0  0  0  0
   60.3790   34.3580   47.9740 C   0  0  0  0  0  0  0  0  0  0  0  0
   59.3720   34.8620   46.9800 C   0  0  0  0  0  0  0  0  0  0  0  0
   58.2920   33.8730   46.7720 N   0  0  0  0  0  0  0  0  0  0  0  0
   57.7130   33.9860   45.4070 C   0  0  0  0  0  0  0  0  0  0  0  0
   57.0070   32.6960   44.9760 C   0  0  0  0  0  0  0  0  0  0  0  0
   58.0180   31.5330   44.8830 C   0  0  0  0  0  0  0  0  0  0  0  0
   57.3070   30.2150   45.0350 C   0  0  0  0  0  0  0  0  0  0  0  0
   57.9050   29.0030   45.3060 C   0  0  0  0  0  0  0  0  0  0  0  0
   56.8560   28.1000   45.2940 C   0  0  0  0  0  0  0  0  0  0  0  0
   56.9300   26.6380   45.5290 C   0  0  0  0  0  0  0  0  0  0  0  0
   55.7950   25.9410   45.9850 C   0  0  0  0  0  0  0  0  0  0  0  0
   55.8520   24.5630   46.2110 C   0  0  0  0  0  0  0  0  0  0  0  0
   57.0380   23.8630   45.9860 C   0  0  0  0  0  0  0  0  0  0  0  0
   57.0900   22.5260   46.2070 F   0  0  0  0  0  0  0  0  0  0  0  0
   58.1730   24.5420   45.5340 C   0  0  0  0  0  0  0  0  0  0  0  0
   58.1230   25.9210   45.3060 C   0  0  0  0  0  0  0  0  0  0  0  0
   55.7080   28.7560   45.0190 N   0  0  0  0  0  0  0  0  0  0  0  0
   55.9840   30.0410   44.8570 N   0  0  0  0  0  0  0  0  0  0  0  0
   59.1700   31.6780   45.9070 C   0  0  0  0  0  0  0  0  0  0  0  0
   58.7370   32.5000   47.1310 C   0  0  0  0  0  0  0  0  0  0  0  0
   63.4417   33.6923   46.5786 H   0  0  0  0  0  0  0  0  0  0  0  0
   61.9605   32.9783   45.8553 H   0  0  0  0  0  0  0  0  0  0  0  0
   62.1910   34.7598   45.8553 H   0  0  0  0  0  0  0  0  0  0  0  0
   61.0632   34.1958   51.9000 H   0  0  0  0  0  0  0  0  0  0  0  0
   61.1619   32.4517   51.4818 H   0  0  0  0  0  0  0  0  0  0  0  0
   62.6480   33.4608   51.4818 H   0  0  0  0  0  0  0  0  0  0  0  0
   59.2897   34.4973   49.8947 H   0  0  0  0  0  0  0  0  0  0  0  0
   58.9344   35.7991   47.3548 H   0  0  0  0  0  0  0  0  0  0  0  0
   59.8816   35.0317   46.0200 H   0  0  0  0  0  0  0  0  0  0  0  0
   56.9846   34.8102   45.3970 H   0  0  0  0  0  0  0  0  0  0  0  0
   58.5364   34.1752   44.7025 H   0  0  0  0  0  0  0  0  0  0  0  0
   56.2314   32.4436   45.7141 H   0  0  0  0  0  0  0  0  0  0  0  0
   56.5518   32.8523   43.9869 H   0  0  0  0  0  0  0  0  0  0  0  0
   58.4821   31.5677   43.8863 H   0  0  0  0  0  0  0  0  0  0  0  0
   58.9704   28.8001   45.4895 H   0  0  0  0  0  0  0  0  0  0  0  0
   54.8561   26.4852   46.1648 H   0  0  0  0  0  0  0  0  0  0  0  0
   54.9591   24.0285   46.5674 H   0  0  0  0  0  0  0  0  0  0  0  0
   59.1081   23.9903   45.3571 H   0  0  0  0  0  0  0  0  0  0  0  0
   59.0200   26.4492   44.9505 H   0  0  0  0  0  0  0  0  0  0  0  0
   59.4796   30.6766   46.2406 H   0  0  0  0  0  0  0  0  0  0  0  0
   60.0030   32.2029   45.4165 H   0  0  0  0  0  0  0  0  0  0  0  0
   57.9054   31.9793   47.6283 H   0  0  0  0  0  0  0  0  0  0  0  0
   59.6105   32.5962   47.7926 H   0  0  0  0  0  0  0  0  0  0  0  0
  1  2  1  0
  2  3  2  0
  3  4  1  0
  4  5  1  0
  4  6  1  0
  6  7  2  0
  7  8  1  0
  8  9  1  0
  9 10  1  0
 10 11  1  0
 11 12  1  0
 12 13  1  0
 13 14  1  0
 14 15  2  0
 15 16  1  0
 16 17  2  0
 17 18  1  0
 18 19  2  0
 19 20  1  0
 19 21  1  0
 21 22  2  0
 15 23  1  0
 23 24  1  0
 12 25  1  0
 25 26  1  0
  7  2  1  0
 26  9  1  0
 24 13  2  0
 22 16  1  0
  1 27  1  0
  1 28  1  0
  1 29  1  0
  5 30  1  0
  5 31  1  0
  5 32  1  0
  6 33  1  0
  8 34  1  0
  8 35  1  0
 10 36  1  0
 10 37  1  0
 11 38  1  0
 11 39  1  0
 12 40  1  0
 14 41  1  0
 17 42  1  0
 18 43  1  0
 21 44  1  0
 22 45  1  0
 25 46  1  0
 25 47  1  0
 26 48  1  0
 26 49  1  0
M  CHG  1  23  -1
M  END
>  <UniqueID>  (37) 
37

>  <SMILES>  (37) 
Cc1nn(C)cc1CN1CCC(c2cc(-c3ccc(F)cc3)[n-]n2)CC1

>  <Energy>  (37) 
117.86105456409038

>  <Genealogy>  (37) 
Cc1nn(C)cc1CN1CCC(c2cc(-c3ccc(F)cc3)[n-]n2)CC1 (protonated)
Cc1nn(C)cc1CN1CCC(c2cc(-c3ccc(F)cc3)[n-]n2)CC1 (3D coordinates assigned)
Cc1nn(C)cc1CN1CCC(c2cc(-c3ccc(F)cc3)[n-]n2)CC1 (nonaromatic ring conformer: 117.86105456409038 kcal/mol)

>  <smiles>  (37) 
Cc1nn(C)cc1CN1CCC(c2cc(-c3ccc(F)cc3)[nH]n2)CC1

>  <score_type>  (37) 
oracle

>  <origin>  (37) 
adg

>  <m_score__min__energy>  (37) 
-10.949999999999999

>  <m_primary>  (37) 
energy

$$$$
37:0
     RDKit          3D

 54 56  0  0  1  0  0  0  0  0999 V2000
   62.7610   33.6180   47.0910 C   0  0  0  0  0  0  0  0  0  0  0  0
   61.4500   33.8670   46.3660 C   0  0  0  0  0  0  0  0  0  0  0  0
   60.4430   34.5850   47.2370 C   0  0  0  0  0  0  0  0  0  0  0  0
   59.2180   34.9600   46.4480 C   0  0  0  0  0  0  0  0  0  0  0  0
   59.2750   34.5250   45.0070 C   0  0  0  0  0  0  0  0  0  0  0  0
   58.5940   33.2340   44.8540 C   0  0  0  0  0  0  0  0  0  0  0  0
   58.0350   32.7410   43.7060 C   0  0  0  0  0  0  0  0  0  0  0  0
   57.4180   31.5090   43.6620 C   0  0  0  0  0  0  0  0  0  0  0  0
   57.3250   30.7050   44.7750 C   0  0  0  0  0  0  0  0  0  0  0  0
   56.6950   29.4070   44.8020 C   0  0  0  0  0  0  0  0  0  0  0  0
   55.4660   29.2700   44.5170 O   0  0  0  0  0  0  0  0  0  0  0  0
   57.3830   28.1950   45.1420 N   0  0  0  0  0  0  0  0  0  0  0  0
   57.7360   27.8840   46.5160 C   0  0  0  0  0  0  0  0  0  0  0  0
   57.7510   26.4010   46.4810 C   0  0  0  0  0  0  0  0  0  0  0  0
   57.7280   25.4400   47.4650 C   0  0  0  0  0  0  0  0  0  0  0  0
   57.7550   24.0770   47.1320 C   0  0  0  0  0  0  0  0  0  0  0  0
   57.8060   23.6170   45.8550 C   0  0  0  0  0  0  0  0  0  0  0  0
   57.9820   22.2950   45.3500 C   0  0  0  0  0  0  0  0  0  0  0  0
   57.9490   21.8680   44.1200 C   0  0  0  0  0  0  0  0  0  0  0  0
   56.8300   21.3510   43.3970 C   0  0  0  0  0  0  0  0  0  0  0  0
   56.2740   20.1420   43.8780 O   0  0  0  0  0  0  0  0  0  0  0  0
   56.2290   21.8130   42.3720 N   0  0  0  0  0  0  0  0  0  0  0  0
   55.3920   22.9130   42.3890 O   0  0  0  0  0  0  0  0  0  0  0  0
   57.8260   24.6330   44.8650 C   0  0  0  0  0  0  0  0  0  0  0  0
   57.8000   25.9570   45.1780 C   0  0  0  0  0  0  0  0  0  0  0  0
   57.8190   27.1440   44.2470 C   0  0  0  0  0  0  0  0  0  0  0  0
   57.8870   31.1870   45.9570 C   0  0  0  0  0  0  0  0  0  0  0  0
   58.5030   32.4220   45.9870 C   0  0  0  0  0  0  0  0  0  0  0  0
   62.5911   33.6503   48.1773 H   0  0  0  0  0  0  0  0  0  0  0  0
   63.1531   32.6293   46.8104 H   0  0  0  0  0  0  0  0  0  0  0  0
   63.4883   34.3941   46.8104 H   0  0  0  0  0  0  0  0  0  0  0  0
   61.6489   34.4805   45.4749 H   0  0  0  0  0  0  0  0  0  0  0  0
   61.0244   32.8902   46.0926 H   0  0  0  0  0  0  0  0  0  0  0  0
   60.1487   33.9245   48.0660 H   0  0  0  0  0  0  0  0  0  0  0  0
   60.9064   35.5049   47.6231 H   0  0  0  0  0  0  0  0  0  0  0  0
   58.3426   34.4893   46.9194 H   0  0  0  0  0  0  0  0  0  0  0  0
   59.1540   36.0581   46.4522 H   0  0  0  0  0  0  0  0  0  0  0  0
   58.7778   35.2778   44.3776 H   0  0  0  0  0  0  0  0  0  0  0  0
   60.3258   34.4220   44.6983 H   0  0  0  0  0  0  0  0  0  0  0  0
   58.0795   33.3472   42.7892 H   0  0  0  0  0  0  0  0  0  0  0  0
   56.9885   31.1592   42.7117 H   0  0  0  0  0  0  0  0  0  0  0  0
   58.7231   28.2910   46.7806 H   0  0  0  0  0  0  0  0  0  0  0  0
   57.0532   28.3110   47.2653 H   0  0  0  0  0  0  0  0  0  0  0  0
   57.6881   25.7425   48.5218 H   0  0  0  0  0  0  0  0  0  0  0  0
   57.7337   23.3413   47.9495 H   0  0  0  0  0  0  0  0  0  0  0  0
   58.1736   21.5234   46.1102 H   0  0  0  0  0  0  0  0  0  0  0  0
   58.9004   21.9106   43.5695 H   0  0  0  0  0  0  0  0  0  0  0  0
   56.9310   19.3460   44.0050 H   0  0  0  0  0  0  0  0  0  0  0  0
   55.7680   23.8410   42.2420 H   0  0  0  0  0  0  0  0  0  0  0  0
   57.8639   24.3397   43.8055 H   0  0  0  0  0  0  0  0  0  0  0  0
   58.8293   27.3370   43.8571 H   0  0  0  0  0  0  0  0  0  0  0  0
   57.2000   27.0266   43.3453 H   0  0  0  0  0  0  0  0  0  0  0  0
   57.8390   30.5785   46.8721 H   0  0  0  0  0  0  0  0  0  0  0  0
   58.9361   32.7781   46.9334 H   0  0  0  0  0  0  0  0  0  0  0  0
  1  2  1  0
  2  3  1  0
  3  4  1  0
  4  5  1  0
  5  6  1  0
  6  7  2  0
  7  8  1  0
  8  9  2  0
  9 10  1  0
 10 11  2  0
 10 12  1  0
 12 13  1  0
 13 14  1  0
 14 15  2  0
 15 16  1  0
 16 17  2  0
 17 18  1  0
 18 19  2  0
 19 20  1  0
 20 21  1  0
 20 22  2  0
 22 23  1  0
 17 24  1  0
 24 25  2  0
 25 26  1  0
  9 27  1  0
 27 28  2  0
 28  6  1  0
 26 12  1  0
 25 14  1  0
  1 29  1  0
  1 30  1  0
  1 31  1  0
  2 32  1  0
  2 33  1  0
  3 34  1  0
  3 35  1  0
  4 36  1  0
  4 37  1  0
  5 38  1  0
  5 39  1  0
  7 40  1  0
  8 41  1  0
 13 42  1  0
 13 43  1  0
 15 44  1  0
 16 45  1  0
 18 46  1  0
 19 47  1  0
 21 48  1  0
 23 49  1  0
 24 50  1  0
 26 51  1  0
 26 52  1  0
 27 53  1  0
 28 54  1  0
M  END
>  <smiles>  (38) 
CCCCCc1ccc(C(=O)N2Cc3ccc(C=CC(O)=NO)cc3C2)cc1

>  <score_type>  (38) 
oracle

>  <origin>  (38) 
adg

>  <m_score__min__energy>  (38) 
-10.48

>  <m_primary>  (38) 
energy

$$$$
38:0
     RDKit          3D

 69 72  0  0  0  0  0  0  0  0999 V2000
   54.3080   22.1540   47.5240 C   0  0  0  0  0  0  0  0  0  0  0  0
   54.7960   22.6350   46.2750 O   0  0  0  0  0  0  0  0  0  0  0  0
   55.7310   23.6720   46.1380 C   0  0  0  0  0  0  0  0  0  0  0  0
   57.1340   23.4420   46.2040 C   0  0  0  0  0  0  0  0  0  0  0  0
   58.0410   24.5080   46.0550 C   0  0  0  0  0  0  0  0  0  0  0  0
   57.5250   25.7820   45.8320 C   0  0  0  0  0  0  0  0  0  0  0  0
   58.1420   27.0080   45.6410 C   0  0  0  0  0  0  0  0  0  0  0  0
   59.6270   27.2650   45.5780 C   0  0  0  0  0  0  0  0  0  0  0  0
   60.1950   27.4890   46.9500 C   0  0  0  0  0  0  0  0  0  0  0  0
   60.9240   26.6010   47.4700 O   0  0  0  0  0  0  0  0  0  0  0  0
   59.9070   28.7020   47.6670 N   0  0  0  0  0  0  0  0  0  0  0  0
   60.2940   28.9000   49.0610 C   0  0  0  0  0  0  0  0  0  0  0  0
   59.8480   30.2490   49.5410 C   0  0  0  0  0  0  0  0  0  0  0  0
   60.3420   30.7780   50.7430 C   0  0  0  0  0  0  0  0  0  0  0  0
   59.8880   32.0250   51.1780 C   0  0  0  0  0  0  0  0  0  0  0  0
   58.9530   32.7290   50.4170 C   0  0  0  0  0  0  0  0  0  0  0  0
   58.4820   32.1710   49.2260 C   0  0  0  0  0  0  0  0  0  0  0  0
   58.9320   30.9540   48.8190 N   0  0  0  0  0  0  0  0  0  0  0  0
   57.0780   27.9230   45.5320 C   0  0  0  0  0  0  0  0  0  0  0  0
   57.1580   29.3990   45.4030 C   0  0  0  0  0  0  0  0  0  0  0  0
   57.4930   30.0880   46.4030 O   0  0  0  0  0  0  0  0  0  0  0  0
   56.7880   30.0730   44.1760 N   0  0  0  0  0  0  0  0  0  0  0  0
   56.6560   29.3340   42.9160 C   0  0  0  0  0  0  0  0  0  0  0  0
   56.6470   31.5340   44.1590 C   0  0  0  0  0  0  0  0  0  0  0  0
   58.0200   32.2110   44.1010 C   0  0  0  0  0  0  0  0  0  0  0  0
   58.3730   32.7560   45.4190 N   0  0  0  0  0  0  0  0  0  0  0  0
   57.3740   33.5170   46.1770 C   0  0  0  0  0  0  0  0  0  0  0  0
   59.6480   32.4640   46.0270 C   0  0  0  0  0  0  0  0  0  0  0  0
   59.9900   31.2690   46.2410 O   0  0  0  0  0  0  0  0  0  0  0  0
   60.5110   33.5390   46.4270 N   0  0  0  0  0  0  0  0  0  0  0  0
   61.5530   33.4580   47.4100 C   0  0  0  0  0  0  0  0  0  0  0  0
   62.7420   32.7410   47.1710 C   0  0  0  0  0  0  0  0  0  0  0  0
   63.7670   32.7330   48.1230 C   0  0  0  0  0  0  0  0  0  0  0  0
   63.6160   33.4430   49.3180 C   0  0  0  0  0  0  0  0  0  0  0  0
   64.6170   33.4470   50.2350 F   0  0  0  0  0  0  0  0  0  0  0  0
   62.4490   34.1770   49.5510 C   0  0  0  0  0  0  0  0  0  0  0  0
   61.4240   34.1910   48.5970 C   0  0  0  0  0  0  0  0  0  0  0  0
   60.3000   34.9170   48.8320 F   0  0  0  0  0  0  0  0  0  0  0  0
   55.9280   27.2800   45.6150 O   0  0  0  0  0  0  0  0  0  0  0  0
   56.1770   26.0080   45.7880 C   0  0  0  0  0  0  0  0  0  0  0  0
   55.2510   24.9780   45.9320 C   0  0  0  0  0  0  0  0  0  0  0  0
   54.8300   22.6685   48.3443 H   0  0  0  0  0  0  0  0  0  0  0  0
   53.2281   22.3507   47.5961 H   0  0  0  0  0  0  0  0  0  0  0  0
   54.4891   21.0714   47.5961 H   0  0  0  0  0  0  0  0  0  0  0  0
   57.5125   22.4231   46.3728 H   0  0  0  0  0  0  0  0  0  0  0  0
   59.1265   24.3395   46.1131 H   0  0  0  0  0  0  0  0  0  0  0  0
   60.1230   26.3959   45.1212 H   0  0  0  0  0  0  0  0  0  0  0  0
   59.8001   28.1692   44.9760 H   0  0  0  0  0  0  0  0  0  0  0  0
   59.3370   29.4470   47.2040 H   0  0  0  0  0  0  0  0  0  0  0  0
   59.8256   28.1216   49.6812 H   0  0  0  0  0  0  0  0  0  0  0  0
   61.3894   28.8377   49.1394 H   0  0  0  0  0  0  0  0  0  0  0  0
   61.0788   30.2166   51.3362 H   0  0  0  0  0  0  0  0  0  0  0  0
   60.2665   32.4517   52.1186 H   0  0  0  0  0  0  0  0  0  0  0  0
   58.5911   33.7124   50.7515 H   0  0  0  0  0  0  0  0  0  0  0  0
   57.7464   32.7166   48.6168 H   0  0  0  0  0  0  0  0  0  0  0  0
   56.4663   28.2722   43.1318 H   0  0  0  0  0  0  0  0  0  0  0  0
   55.8172   29.7457   42.3356 H   0  0  0  0  0  0  0  0  0  0  0  0
   57.5855   29.4299   42.3356 H   0  0  0  0  0  0  0  0  0  0  0  0
   56.0612   31.8298   43.2762 H   0  0  0  0  0  0  0  0  0  0  0  0
   56.1359   31.8502   45.0803 H   0  0  0  0  0  0  0  0  0  0  0  0
   58.7769   31.4723   43.7987 H   0  0  0  0  0  0  0  0  0  0  0  0
   57.9845   33.0327   43.3706 H   0  0  0  0  0  0  0  0  0  0  0  0
   57.5506   33.3825   47.2544 H   0  0  0  0  0  0  0  0  0  0  0  0
   57.4554   34.5841   45.9225 H   0  0  0  0  0  0  0  0  0  0  0  0
   56.3669   33.1551   45.9225 H   0  0  0  0  0  0  0  0  0  0  0  0
   62.8651   32.1842   46.2303 H   0  0  0  0  0  0  0  0  0  0  0  0
   64.6914   32.1684   47.9315 H   0  0  0  0  0  0  0  0  0  0  0  0
   62.3357   34.7450   50.4862 H   0  0  0  0  0  0  0  0  0  0  0  0
   54.1708   25.1807   45.8858 H   0  0  0  0  0  0  0  0  0  0  0  0
  1  2  1  0
  2  3  1  0
  3  4  2  0
  4  5  1  0
  5  6  2  0
  6  7  1  0
  7  8  1  0
  8  9  1  0
  9 10  2  0
  9 11  1  0
 11 12  1  0
 12 13  1  0
 13 14  2  0
 14 15  1  0
 15 16  2  0
 16 17  1  0
 17 18  2  0
  7 19  2  0
 19 20  1  0
 20 21  2  0
 20 22  1  0
 22 23  1  0
 22 24  1  0
 24 25  1  0
 25 26  1  0
 26 27  1  0
 26 28  1  0
 28 29  2  0
 28 30  1  0
 30 31  1  0
 31 32  2  0
 32 33  1  0
 33 34  2  0
 34 35  1  0
 34 36  1  0
 36 37  2  0
 37 38  1  0
 19 39  1  0
 39 40  1  0
 40 41  2  0
 41  3  1  0
 40  6  1  0
 18 13  1  0
 37 31  1  0
  1 42  1  0
  1 43  1  0
  1 44  1  0
  4 45  1  0
  5 46  1  0
  8 47  1  0
  8 48  1  0
 11 49  1  0
 12 50  1  0
 12 51  1  0
 14 52  1  0
 15 53  1  0
 16 54  1  0
 17 55  1  0
 23 56  1  0
 23 57  1  0
 23 58  1  0
 24 59  1  0
 24 60  1  0
 25 61  1  0
 25 62  1  0
 27 63  1  0
 27 64  1  0
 27 65  1  0
 32 66  1  0
 33 67  1  0
 36 68  1  0
 41 69  1  0
M  CHG  1  30  -1
M  END
>  <UniqueID>  (39) 
38

>  <SMILES>  (39) 
COc1ccc2c(CC(=O)NCc3ccccn3)c(C(=O)N(C)CCN(C)C(=O)[N-]c3ccc(F)cc3F)oc2c1

>  <Energy>  (39) 
105.01491232409116

>  <Genealogy>  (39) 
COc1ccc2c(CC(=O)NCc3ccccn3)c(C(=O)N(C)CCN(C)C(=O)[N-]c3ccc(F)cc3F)oc2c1 (protonated)
COc1ccc2c(CC(=O)NCc3ccccn3)c(C(=O)N(C)CCN(C)C(=O)[N-]c3ccc(F)cc3F)oc2c1 (3D coordinates assigned)
COc1ccc2c(CC(=O)NCc3ccccn3)c(C(=O)N(C)CCN(C)C(=O)[N-]c3ccc(F)cc3F)oc2c1 (optimized conformer: 105.01491232409116 kcal/mol)

>  <smiles>  (39) 
COc1ccc2c(CC(=O)NCc3ccccn3)c(C(=O)N(C)CCN(C)C(=O)Nc3ccc(F)cc3F)oc2c1

>  <score_type>  (39) 
oracle

>  <origin>  (39) 
adg

>  <m_score__min__energy>  (39) 
-10.84

>  <m_primary>  (39) 
energy

$$$$
39:0
     RDKit          3D

 62 65  0  0  0  0  0  0  0  0999 V2000
   59.5060   33.8960   48.9510 O   0  0  0  0  0  0  0  0  0  0  0  0
   60.0000   33.5390   47.8460 C   0  0  0  0  0  0  0  0  0  0  0  0
   59.1140   33.3880   46.6740 C   0  0  0  0  0  0  0  0  0  0  0  0
   58.6000   34.5230   46.0250 C   0  0  0  0  0  0  0  0  0  0  0  0
   57.7500   34.3790   44.9260 C   0  0  0  0  0  0  0  0  0  0  0  0
   57.3970   33.1060   44.4720 C   0  0  0  0  0  0  0  0  0  0  0  0
   57.8900   31.9670   45.1200 C   0  0  0  0  0  0  0  0  0  0  0  0
   57.4170   30.3640   44.5600 S   0  0  0  0  0  0  0  0  0  0  0  0
   56.0360   30.0660   45.0730 O   0  0  0  0  0  0  0  0  0  0  0  0
   57.3810   30.3410   43.0570 O   0  0  0  0  0  0  0  0  0  0  0  0
   58.5410   29.1610   45.1530 N   0  0  0  0  0  0  0  0  0  0  0  0
   58.8080   28.1230   44.1230 C   0  0  0  0  0  0  0  0  0  0  0  0
   57.9410   26.8730   44.3270 C   0  0  0  0  0  0  0  0  0  0  0  0
   58.2080   26.2370   45.6360 N   0  0  0  0  0  0  0  0  0  0  0  0
   56.8310   25.2800   46.1230 S   0  0  0  0  0  0  0  0  0  0  0  0
   55.5830   26.1040   45.9600 O   0  0  0  0  0  0  0  0  0  0  0  0
   56.9700   24.9230   47.5770 O   0  0  0  0  0  0  0  0  0  0  0  0
   56.7590   23.8330   45.1320 N   0  0  0  0  0  0  0  0  0  0  0  0
   58.0560   23.1290   45.1300 C   0  0  0  0  0  0  0  0  0  0  0  0
   58.0520   21.9060   44.1850 C   0  0  0  0  0  0  0  0  0  0  0  0
   56.6540   21.6060   43.6370 C   0  0  0  0  0  0  0  0  0  0  0  0
   56.0480   22.8500   42.9700 C   0  0  0  0  0  0  0  0  0  0  0  0
   56.3360   24.1450   43.7570 C   0  0  0  0  0  0  0  0  0  0  0  0
   58.5920   27.1970   46.6990 C   0  0  0  0  0  0  0  0  0  0  0  0
   58.0450   28.6090   46.4370 C   0  0  0  0  0  0  0  0  0  0  0  0
   58.7400   32.1110   46.2270 C   0  0  0  0  0  0  0  0  0  0  0  0
   61.4120   33.2840   47.7540 N   0  0  0  0  0  0  0  0  0  0  0  0
   62.2140   33.6060   46.5830 C   0  0  0  0  0  0  0  0  0  0  0  0
   63.6630   33.5180   47.0460 C   0  0  0  0  0  0  0  0  0  0  0  0
   63.6330   32.7420   48.3600 C   0  0  0  0  0  0  0  0  0  0  0  0
   62.2190   32.9050   48.8990 C   0  0  0  0  0  0  0  0  0  0  0  0
   58.8677   35.5280   46.3833 H   0  0  0  0  0  0  0  0  0  0  0  0
   57.3572   35.2711   44.4163 H   0  0  0  0  0  0  0  0  0  0  0  0
   56.7304   32.9982   43.6037 H   0  0  0  0  0  0  0  0  0  0  0  0
   59.4410   29.6620   45.3420 H   0  0  0  0  0  0  0  0  0  0  0  0
   58.5943   28.5451   43.1299 H   0  0  0  0  0  0  0  0  0  0  0  0
   59.8626   27.8224   44.2095 H   0  0  0  0  0  0  0  0  0  0  0  0
   56.8806   27.1615   44.2792 H   0  0  0  0  0  0  0  0  0  0  0  0
   58.1855   26.1498   43.5351 H   0  0  0  0  0  0  0  0  0  0  0  0
   58.8388   23.8285   44.8015 H   0  0  0  0  0  0  0  0  0  0  0  0
   58.2469   22.7675   46.1512 H   0  0  0  0  0  0  0  0  0  0  0  0
   58.7280   22.1077   43.3410 H   0  0  0  0  0  0  0  0  0  0  0  0
   58.3845   21.0307   44.7624 H   0  0  0  0  0  0  0  0  0  0  0  0
   56.7241   20.7974   42.8946 H   0  0  0  0  0  0  0  0  0  0  0  0
   56.0060   21.3048   44.4732 H   0  0  0  0  0  0  0  0  0  0  0  0
   56.4720   22.9500   41.9599 H   0  0  0  0  0  0  0  0  0  0  0  0
   54.9569   22.7139   42.9405 H   0  0  0  0  0  0  0  0  0  0  0  0
   57.1362   24.7051   43.2510 H   0  0  0  0  0  0  0  0  0  0  0  0
   55.4164   24.7473   43.7971 H   0  0  0  0  0  0  0  0  0  0  0  0
   58.1960   26.8372   47.6601 H   0  0  0  0  0  0  0  0  0  0  0  0
   59.6901   27.2597   46.7143 H   0  0  0  0  0  0  0  0  0  0  0  0
   56.9463   28.5653   46.4053 H   0  0  0  0  0  0  0  0  0  0  0  0
   58.3906   29.2662   47.2486 H   0  0  0  0  0  0  0  0  0  0  0  0
   59.1156   31.2178   46.7477 H   0  0  0  0  0  0  0  0  0  0  0  0
   62.0236   32.8832   45.7759 H   0  0  0  0  0  0  0  0  0  0  0  0
   61.9726   34.6023   46.1841 H   0  0  0  0  0  0  0  0  0  0  0  0
   64.2717   32.9855   46.3004 H   0  0  0  0  0  0  0  0  0  0  0  0
   64.1083   34.5156   47.1749 H   0  0  0  0  0  0  0  0  0  0  0  0
   63.8567   31.6795   48.1837 H   0  0  0  0  0  0  0  0  0  0  0  0
   64.3852   33.1153   49.0706 H   0  0  0  0  0  0  0  0  0  0  0  0
   61.8588   31.9580   49.3273 H   0  0  0  0  0  0  0  0  0  0  0  0
   62.1707   33.6567   49.7006 H   0  0  0  0  0  0  0  0  0  0  0  0
  1  2  2  0
  2  3  1  0
  3  4  2  0
  4  5  1  0
  5  6  2  0
  6  7  1  0
  7  8  1  0
  8  9  2  0
  8 10  2  0
  8 11  1  0
 11 12  1  0
 12 13  1  0
 13 14  1  0
 14 15  1  0
 15 16  2  0
 15 17  2  0
 15 18  1  0
 18 19  1  0
 19 20  1  0
 20 21  1  0
 21 22  1  0
 22 23  1  0
 14 24  1  0
 24 25  1  0
  7 26  2  0
  2 27  1  0
 27 28  1  0
 28 29  1  0
 29 30  1  0
 30 31  1  0
 26  3  1  0
 31 27  1  0
 25 11  1  0
 23 18  1  0
  4 32  1  0
  5 33  1  0
  6 34  1  0
 11 35  1  0
 12 36  1  0
 12 37  1  0
 13 38  1  0
 13 39  1  0
 19 40  1  0
 19 41  1  0
 20 42  1  0
 20 43  1  0
 21 44  1  0
 21 45  1  0
 22 46  1  0
 22 47  1  0
 23 48  1  0
 23 49  1  0
 24 50  1  0
 24 51  1  0
 25 52  1  0
 25 53  1  0
 26 54  1  0
 28 55  1  0
 28 56  1  0
 29 57  1  0
 29 58  1  0
 30 59  1  0
 30 60  1  0
 31 61  1  0
 31 62  1  0
M  CHG  1  11   1
M  END
>  <UniqueID>  (40) 
39

>  <SMILES>  (40) 
O=C(c1cccc(S(=O)(=O)[NH+]2CCN(S(=O)(=O)N3CCCCC3)CC2)c1)N1CCCC1

>  <Energy>  (40) 
76.9589764448027

>  <Genealogy>  (40) 
O=C(c1cccc(S(=O)(=O)[NH+]2CCN(S(=O)(=O)N3CCCCC3)CC2)c1)N1CCCC1 (protonated)
O=C(c1cccc(S(=O)(=O)[NH+]2CCN(S(=O)(=O)N3CCCCC3)CC2)c1)N1CCCC1 (3D coordinates assigned)
O=C(c1cccc(S(=O)(=O)[NH+]2CCN(S(=O)(=O)N3CCCCC3)CC2)c1)N1CCCC1 (nonaromatic ring conformer: 76.9589764448027 kcal/mol)

>  <smiles>  (40) 
O=C(c1cccc(S(=O)(=O)N2CCN(S(=O)(=O)N3CCCCC3)CC2)c1)N1CCCC1

>  <score_type>  (40) 
oracle

>  <origin>  (40) 
adg

>  <m_score__min__energy>  (40) 
-10.220000000000001

>  <m_primary>  (40) 
energy

$$$$
40:0
     RDKit          3D

 44 47  0  0  0  0  0  0  0  0999 V2000
   60.4725   29.0670   45.0307 H   0  0  0  0  0  0  0  0  0  0  0  0
   59.9470   29.0220   45.9960 C   0  0  0  0  0  0  0  0  0  0  0  0
   60.5580   29.5590   47.0630 C   0  0  0  0  0  0  0  0  0  0  0  0
   61.8140   30.8180   46.9020 S   0  0  0  0  0  0  0  0  0  0  0  0
   61.9240   30.8470   48.7110 C   0  0  0  0  0  0  0  0  0  0  0  0
   62.8180   31.7760   49.4480 C   0  0  0  0  0  0  0  0  0  0  0  0
   63.7870   32.5380   48.7680 C   0  0  0  0  0  0  0  0  0  0  0  0
   63.8853   32.4462   47.6763 H   0  0  0  0  0  0  0  0  0  0  0  0
   64.6250   33.4100   49.4680 C   0  0  0  0  0  0  0  0  0  0  0  0
   65.3826   33.9930   48.9238 H   0  0  0  0  0  0  0  0  0  0  0  0
   64.5080   33.5480   50.8590 C   0  0  0  0  0  0  0  0  0  0  0  0
   65.3840   34.4400   51.5710 N   0  0  0  0  0  0  0  0  0  0  0  0
   66.7370   34.4660   51.5920 C   0  0  0  0  0  0  0  0  0  0  0  0
   67.6280   33.5120   50.8580 C   0  0  0  0  0  0  0  0  0  0  0  0
   68.1931   32.9069   51.5823 H   0  0  0  0  0  0  0  0  0  0  0  0
   67.0163   32.8511   50.2263 H   0  0  0  0  0  0  0  0  0  0  0  0
   68.3291   34.0772   50.2263 H   0  0  0  0  0  0  0  0  0  0  0  0
   67.2260   35.4510   52.3750 N   0  0  0  0  0  0  0  0  0  0  0  0
   66.1280   36.0560   52.8740 C   0  0  0  0  0  0  0  0  0  0  0  0
   66.1342   36.9141   53.5622 H   0  0  0  0  0  0  0  0  0  0  0  0
   64.9990   35.4350   52.3900 C   0  0  0  0  0  0  0  0  0  0  0  0
   63.9606   35.7059   52.6315 H   0  0  0  0  0  0  0  0  0  0  0  0
   63.5550   32.7790   51.5430 C   0  0  0  0  0  0  0  0  0  0  0  0
   63.4671   32.8642   52.6362 H   0  0  0  0  0  0  0  0  0  0  0  0
   62.7170   31.9060   50.8460 C   0  0  0  0  0  0  0  0  0  0  0  0
   61.9702   31.3138   51.3952 H   0  0  0  0  0  0  0  0  0  0  0  0
   61.1720   29.9980   49.3400 N   0  0  0  0  0  0  0  0  0  0  0  0
   60.3830   29.2120   48.4680 C   0  0  0  0  0  0  0  0  0  0  0  0
   59.6590   28.2750   48.8930 O   0  0  0  0  0  0  0  0  0  0  0  0
   58.6200   28.3750   46.0240 C   0  0  0  0  0  0  0  0  0  0  0  0
   57.5020   28.9950   45.4460 C   0  0  0  0  0  0  0  0  0  0  0  0
   57.6002   29.9953   44.9990 H   0  0  0  0  0  0  0  0  0  0  0  0
   56.2650   28.3470   45.4360 C   0  0  0  0  0  0  0  0  0  0  0  0
   55.1610   28.9770   44.8750 O   0  0  0  0  0  0  0  0  0  0  0  0
   56.1390   27.0660   45.9850 C   0  0  0  0  0  0  0  0  0  0  0  0
   54.9040   26.4280   45.9760 O   0  0  0  0  0  0  0  0  0  0  0  0
   57.2540   26.4200   46.5390 C   0  0  0  0  0  0  0  0  0  0  0  0
   57.0860   25.1310   47.0690 O   0  0  0  0  0  0  0  0  0  0  0  0
   56.5890   24.0160   46.3340 C   0  0  0  0  0  0  0  0  0  0  0  0
   56.2433   23.2405   47.0333 H   0  0  0  0  0  0  0  0  0  0  0  0
   55.7497   24.3390   45.7006 H   0  0  0  0  0  0  0  0  0  0  0  0
   57.3903   23.6077   45.7006 H   0  0  0  0  0  0  0  0  0  0  0  0
   58.4990   27.0790   46.5450 C   0  0  0  0  0  0  0  0  0  0  0  0
   59.3826   26.5732   46.9614 H   0  0  0  0  0  0  0  0  0  0  0  0
  1  2  1  0
  2  3  2  0
  3  4  1  0
  4  5  1  0
  5  6  1  0
  6  7  2  0
  7  8  1  0
  7  9  1  0
  9 10  1  0
  9 11  2  0
 11 12  1  0
 12 13  1  0
 13 14  1  0
 14 15  1  0
 14 16  1  0
 14 17  1  0
 13 18  2  0
 18 19  1  0
 19 20  1  0
 19 21  2  0
 21 22  1  0
 11 23  1  0
 23 24  1  0
 23 25  2  0
 25 26  1  0
  5 27  2  0
 27 28  1  0
 28 29  2  0
  2 30  1  0
 30 31  2  0
 31 32  1  0
 31 33  1  0
 33 34  1  0
 33 35  2  0
 35 36  1  0
 35 37  1  0
 37 38  1  0
 38 39  1  0
 39 40  1  0
 39 41  1  0
 39 42  1  0
 37 43  2  0
 43 44  1  0
 28  3  1  0
 43 30  1  0
 25  6  1  0
 21 12  1  0
M  CHG  2  34  -1  36  -1
M  END
>  <UniqueID>  (41) 
40

>  <SMILES>  (41) 
COc1cc(/C=C2/SC(c3ccc(-n4ccnc4C)cc3)=NC2=O)cc([O-])c1[O-]

>  <Energy>  (41) 
110.4493544231776

>  <Genealogy>  (41) 
COc1cc(C=C2SC(c3ccc(-n4ccnc4C)cc3)=NC2=O)cc([O-])c1[O-] (protonated)
COc1cc(/C=C2/SC(c3ccc(-n4ccnc4C)cc3)=NC2=O)cc([O-])c1[O-] (cis-trans isomerization)
COc1cc(/C=C2/SC(c3ccc(-n4ccnc4C)cc3)=NC2=O)cc([O-])c1[O-] (3D coordinates assigned)
COc1cc(/C=C2/SC(c3ccc(-n4ccnc4C)cc3)=NC2=O)cc([O-])c1[O-] (nonaromatic ring conformer: 110.4493544231776 kcal/mol)

>  <smiles>  (41) 
COc1cc(C=C2SC(c3ccc(-n4ccnc4C)cc3)=NC2=O)cc(O)c1O

>  <score_type>  (41) 
oracle

>  <origin>  (41) 
adg

>  <m_score__min__energy>  (41) 
-15.859999999999999

>  <m_primary>  (41) 
energy

$$$$
41:0
     RDKit          3D

 51 54  0  0  0  0  0  0  0  0999 V2000
   56.3580   30.8970   44.8640 O   0  0  0  0  0  0  0  0  0  0  0  0
   57.3480   31.2070   44.1420 C   0  0  0  0  0  0  0  0  0  0  0  0
   57.4940   32.6240   43.6780 C   0  0  0  0  0  0  0  0  0  0  0  0
   58.1170   33.4520   44.7580 C   0  0  0  0  0  0  0  0  0  0  0  0
   59.2450   34.2530   44.6280 C   0  0  0  0  0  0  0  0  0  0  0  0
   59.6450   34.8430   45.8370 C   0  0  0  0  0  0  0  0  0  0  0  0
   58.8420   34.4960   46.9190 C   0  0  0  0  0  0  0  0  0  0  0  0
   57.6390   33.4530   46.3730 S   0  0  0  0  0  0  0  0  0  0  0  0
   58.3380   30.2260   43.7930 N   0  0  0  0  0  0  0  0  0  0  0  0
   58.4020   28.9040   44.3640 C   0  0  0  0  0  0  0  0  0  0  0  0
   58.0450   27.7620   43.6240 C   0  0  0  0  0  0  0  0  0  0  0  0
   58.1260   26.4940   44.2030 C   0  0  0  0  0  0  0  0  0  0  0  0
   58.5510   26.3510   45.5250 C   0  0  0  0  0  0  0  0  0  0  0  0
   58.8900   27.4800   46.2860 C   0  0  0  0  0  0  0  0  0  0  0  0
   59.3160   27.3380   47.6940 C   0  0  0  0  0  0  0  0  0  0  0  0
   59.2490   26.2040   48.2470 O   0  0  0  0  0  0  0  0  0  0  0  0
   59.7790   28.4730   48.4520 N   0  0  0  0  0  0  0  0  0  0  0  0
   60.7620   28.2810   49.5280 C   0  0  0  0  0  0  0  0  0  0  0  0
   60.0980   28.5610   50.8820 C   0  0  0  0  0  0  0  0  0  0  0  0
   59.2420   29.7580   50.8240 N   0  0  0  0  0  0  0  0  0  0  0  0
   58.3020   29.9950   51.8940 C   0  0  0  0  0  0  0  0  0  0  0  0
   58.5020   29.4620   53.0220 O   0  0  0  0  0  0  0  0  0  0  0  0
   57.0570   30.8160   51.6630 C   0  0  0  0  0  0  0  0  0  0  0  0
   57.0630   32.1640   52.3720 C   0  0  0  0  0  0  0  0  0  0  0  0
   56.1420   31.0540   52.8590 C   0  0  0  0  0  0  0  0  0  0  0  0
   59.2850   30.6080   49.6210 C   0  0  0  0  0  0  0  0  0  0  0  0
   59.0350   29.7440   48.3770 C   0  0  0  0  0  0  0  0  0  0  0  0
   58.7940   28.7540   45.7040 C   0  0  0  0  0  0  0  0  0  0  0  0
   58.1333   32.6508   42.7832 H   0  0  0  0  0  0  0  0  0  0  0  0
   56.5006   33.0305   43.4375 H   0  0  0  0  0  0  0  0  0  0  0  0
   59.7709   34.4088   43.6745 H   0  0  0  0  0  0  0  0  0  0  0  0
   60.5111   35.5159   45.9212 H   0  0  0  0  0  0  0  0  0  0  0  0
   58.9713   34.8439   47.9545 H   0  0  0  0  0  0  0  0  0  0  0  0
   58.9730   30.4430   42.9910 H   0  0  0  0  0  0  0  0  0  0  0  0
   57.7006   27.8685   42.5848 H   0  0  0  0  0  0  0  0  0  0  0  0
   57.8540   25.6047   43.6154 H   0  0  0  0  0  0  0  0  0  0  0  0
   58.6204   25.3484   45.9722 H   0  0  0  0  0  0  0  0  0  0  0  0
   61.1306   27.2448   49.5075 H   0  0  0  0  0  0  0  0  0  0  0  0
   61.6050   28.9726   49.3827 H   0  0  0  0  0  0  0  0  0  0  0  0
   59.4824   27.6943   51.1647 H   0  0  0  0  0  0  0  0  0  0  0  0
   60.8893   28.7373   51.6255 H   0  0  0  0  0  0  0  0  0  0  0  0
   56.8899   30.4529   50.6382 H   0  0  0  0  0  0  0  0  0  0  0  0
   57.9315   32.4630   52.9773 H   0  0  0  0  0  0  0  0  0  0  0  0
   56.9225   33.2086   52.0571 H   0  0  0  0  0  0  0  0  0  0  0  0
   56.3452   30.5508   53.8158 H   0  0  0  0  0  0  0  0  0  0  0  0
   55.0610   30.9641   53.0415 H   0  0  0  0  0  0  0  0  0  0  0  0
   58.5079   31.3834   49.6915 H   0  0  0  0  0  0  0  0  0  0  0  0
   60.2727   31.0860   49.5439 H   0  0  0  0  0  0  0  0  0  0  0  0
   57.9594   29.5262   48.3017 H   0  0  0  0  0  0  0  0  0  0  0  0
   59.3814   30.2986   47.4924 H   0  0  0  0  0  0  0  0  0  0  0  0
   59.0286   29.6451   46.3047 H   0  0  0  0  0  0  0  0  0  0  0  0
  1  2  2  0
  2  3  1  0
  3  4  1  0
  4  5  2  0
  5  6  1  0
  6  7  2  0
  7  8  1  0
  2  9  1  0
  9 10  1  0
 10 11  2  0
 11 12  1  0
 12 13  2  0
 13 14  1  0
 14 15  1  0
 15 16  2  0
 15 17  1  0
 17 18  1  0
 18 19  1  0
 19 20  1  0
 20 21  1  0
 21 22  2  0
 21 23  1  0
 23 24  1  0
 24 25  1  0
 20 26  1  0
 26 27  1  0
 14 28  2  0
  8  4  1  0
 28 10  1  0
 27 17  1  0
 25 23  1  0
  3 29  1  0
  3 30  1  0
  5 31  1  0
  6 32  1  0
  7 33  1  0
  9 34  1  0
 11 35  1  0
 12 36  1  0
 13 37  1  0
 18 38  1  0
 18 39  1  0
 19 40  1  0
 19 41  1  0
 23 42  1  0
 24 43  1  0
 24 44  1  0
 25 45  1  0
 25 46  1  0
 26 47  1  0
 26 48  1  0
 27 49  1  0
 27 50  1  0
 28 51  1  0
M  END
>  <UniqueID>  (42) 
41

>  <SMILES>  (42) 
O=C(Cc1cccs1)Nc1cccc(C(=O)N2CCN(C(=O)C3CC3)CC2)c1

>  <Energy>  (42) 
352.06268708206375

>  <Genealogy>  (42) 
O=C(Cc1cccs1)Nc1cccc(C(=O)N2CCN(C(=O)C3CC3)CC2)c1 (3D coordinates assigned)
O=C(Cc1cccs1)Nc1cccc(C(=O)N2CCN(C(=O)C3CC3)CC2)c1 (nonaromatic ring conformer: 352.06268708206375 kcal/mol)

>  <smiles>  (42) 
O=C(Cc1cccs1)Nc1cccc(C(=O)N2CCN(C(=O)C3CC3)CC2)c1

>  <score_type>  (42) 
oracle

>  <origin>  (42) 
adg

>  <m_score__min__energy>  (42) 
-8.5700000000000003

>  <m_primary>  (42) 
energy

$$$$
42:0
     RDKit          3D

 64 67  0  0  0  0  0  0  0  0999 V2000
   58.1180   31.5040   42.6930 O   0  0  0  0  0  0  0  0  0  0  0  0
   57.2400   31.0940   43.5030 C   0  0  0  0  0  0  0  0  0  0  0  0
   56.2490   30.0460   43.0790 C   0  0  0  0  0  0  0  0  0  0  0  0
   55.2030   29.7310   44.1500 C   0  0  0  0  0  0  0  0  0  0  0  0
   55.7990   28.9540   45.2330 N   0  0  0  0  0  0  0  0  0  0  0  0
   57.0980   28.3510   45.1780 C   0  0  0  0  0  0  0  0  0  0  0  0
   57.4240   27.7060   44.1480 O   0  0  0  0  0  0  0  0  0  0  0  0
   58.0450   28.4240   46.3080 C   0  0  0  0  0  0  0  0  0  0  0  0
   58.7570   29.6110   46.5470 C   0  0  0  0  0  0  0  0  0  0  0  0
   59.6790   29.6810   47.5940 C   0  0  0  0  0  0  0  0  0  0  0  0
   59.8960   28.5700   48.4250 C   0  0  0  0  0  0  0  0  0  0  0  0
   60.8990   28.6470   49.5470 C   0  0  0  0  0  0  0  0  0  0  0  0
   60.7160   29.8380   50.3140 O   0  0  0  0  0  0  0  0  0  0  0  0
   59.4980   30.2720   50.8610 C   0  0  0  0  0  0  0  0  0  0  0  0
   58.7920   29.5360   51.8350 C   0  0  0  0  0  0  0  0  0  0  0  0
   57.5920   30.0280   52.3590 C   0  0  0  0  0  0  0  0  0  0  0  0
   57.0770   31.2450   51.9090 C   0  0  0  0  0  0  0  0  0  0  0  0
   57.7620   31.9740   50.9330 C   0  0  0  0  0  0  0  0  0  0  0  0
   58.9680   31.4900   50.4140 C   0  0  0  0  0  0  0  0  0  0  0  0
   59.1460   27.4000   48.2170 C   0  0  0  0  0  0  0  0  0  0  0  0
   58.2270   27.3290   47.1660 C   0  0  0  0  0  0  0  0  0  0  0  0
   57.2440   31.5460   44.8670 N   0  0  0  0  0  0  0  0  0  0  0  0
   57.9750   32.6940   45.3230 C   0  0  0  0  0  0  0  0  0  0  0  0
   58.0240   33.8410   44.5180 C   0  0  0  0  0  0  0  0  0  0  0  0
   58.7400   34.9630   44.9350 C   0  0  0  0  0  0  0  0  0  0  0  0
   59.4340   34.9440   46.1470 C   0  0  0  0  0  0  0  0  0  0  0  0
   59.4310   33.7920   46.9510 C   0  0  0  0  0  0  0  0  0  0  0  0
   60.1810   33.7700   48.2300 C   0  0  0  0  0  0  0  0  0  0  0  0
   59.6360   34.2160   49.2760 O   0  0  0  0  0  0  0  0  0  0  0  0
   61.5120   33.2310   48.3040 N   0  0  0  0  0  0  0  0  0  0  0  0
   62.5660   33.7830   47.4490 C   0  0  0  0  0  0  0  0  0  0  0  0
   63.6670   32.7360   47.2580 C   0  0  0  0  0  0  0  0  0  0  0  0
   64.1330   32.2650   48.5090 O   0  0  0  0  0  0  0  0  0  0  0  0
   63.0950   31.5730   49.1770 C   0  0  0  0  0  0  0  0  0  0  0  0
   61.9320   32.5150   49.5110 C   0  0  0  0  0  0  0  0  0  0  0  0
   58.6880   32.6720   46.5360 C   0  0  0  0  0  0  0  0  0  0  0  0
   55.7289   30.4022   42.1776 H   0  0  0  0  0  0  0  0  0  0  0  0
   56.8139   29.1204   42.8943 H   0  0  0  0  0  0  0  0  0  0  0  0
   54.8056   30.6729   44.5562 H   0  0  0  0  0  0  0  0  0  0  0  0
   54.3926   29.1432   43.6942 H   0  0  0  0  0  0  0  0  0  0  0  0
   58.5878   30.4894   45.9068 H   0  0  0  0  0  0  0  0  0  0  0  0
   60.2384   30.6119   47.7686 H   0  0  0  0  0  0  0  0  0  0  0  0
   60.7730   27.7732   50.2032 H   0  0  0  0  0  0  0  0  0  0  0  0
   61.9101   28.6599   49.1140 H   0  0  0  0  0  0  0  0  0  0  0  0
   59.1868   28.5705   52.1843 H   0  0  0  0  0  0  0  0  0  0  0  0
   57.0529   29.4546   53.1275 H   0  0  0  0  0  0  0  0  0  0  0  0
   56.1330   31.6298   52.3222 H   0  0  0  0  0  0  0  0  0  0  0  0
   57.3527   32.9292   50.5724 H   0  0  0  0  0  0  0  0  0  0  0  0
   59.5045   32.0703   49.6489 H   0  0  0  0  0  0  0  0  0  0  0  0
   59.2827   26.5362   48.8842 H   0  0  0  0  0  0  0  0  0  0  0  0
   57.6434   26.4096   47.0109 H   0  0  0  0  0  0  0  0  0  0  0  0
   56.7430   30.9660   45.5780 H   0  0  0  0  0  0  0  0  0  0  0  0
   57.4955   33.8560   43.5534 H   0  0  0  0  0  0  0  0  0  0  0  0
   58.7582   35.8660   44.3071 H   0  0  0  0  0  0  0  0  0  0  0  0
   59.9866   35.8371   46.4741 H   0  0  0  0  0  0  0  0  0  0  0  0
   62.1415   34.0518   46.4704 H   0  0  0  0  0  0  0  0  0  0  0  0
   62.9907   34.6804   47.9226 H   0  0  0  0  0  0  0  0  0  0  0  0
   63.2647   31.8903   46.6810 H   0  0  0  0  0  0  0  0  0  0  0  0
   64.5067   33.2004   46.7202 H   0  0  0  0  0  0  0  0  0  0  0  0
   62.7275   30.7635   48.5292 H   0  0  0  0  0  0  0  0  0  0  0  0
   63.4950   31.1636   50.1164 H   0  0  0  0  0  0  0  0  0  0  0  0
   61.0869   31.9283   49.9004 H   0  0  0  0  0  0  0  0  0  0  0  0
   62.2590   33.2416   50.2694 H   0  0  0  0  0  0  0  0  0  0  0  0
   58.6641   31.7704   47.1657 H   0  0  0  0  0  0  0  0  0  0  0  0
  1  2  2  0
  2  3  1  0
  3  4  1  0
  4  5  1  0
  5  6  1  0
  6  7  2  0
  6  8  1  0
  8  9  2  0
  9 10  1  0
 10 11  2  0
 11 12  1  0
 12 13  1  0
 13 14  1  0
 14 15  2  0
 15 16  1  0
 16 17  2  0
 17 18  1  0
 18 19  2  0
 11 20  1  0
 20 21  2  0
  2 22  1  0
 22 23  1  0
 23 24  2  0
 24 25  1  0
 25 26  2  0
 26 27  1  0
 27 28  1  0
 28 29  2  0
 28 30  1  0
 30 31  1  0
 31 32  1  0
 32 33  1  0
 33 34  1  0
 34 35  1  0
 27 36  2  0
 21  8  1  0
 36 23  1  0
 19 14  1  0
 35 30  1  0
  3 37  1  0
  3 38  1  0
  4 39  1  0
  4 40  1  0
  9 41  1  0
 10 42  1  0
 12 43  1  0
 12 44  1  0
 15 45  1  0
 16 46  1  0
 17 47  1  0
 18 48  1  0
 19 49  1  0
 20 50  1  0
 21 51  1  0
 22 52  1  0
 24 53  1  0
 25 54  1  0
 26 55  1  0
 31 56  1  0
 31 57  1  0
 32 58  1  0
 32 59  1  0
 34 60  1  0
 34 61  1  0
 35 62  1  0
 35 63  1  0
 36 64  1  0
M  CHG  1   5  -1
M  END
>  <UniqueID>  (43) 
42

>  <SMILES>  (43) 
O=C(CC[N-]C(=O)c1ccc(COc2ccccc2)cc1)Nc1cccc(C(=O)N2CCOCC2)c1

>  <Energy>  (43) 
77.02658390177723

>  <Genealogy>  (43) 
O=C(CC[N-]C(=O)c1ccc(COc2ccccc2)cc1)Nc1cccc(C(=O)N2CCOCC2)c1 (protonated)
O=C(CC[N-]C(=O)c1ccc(COc2ccccc2)cc1)Nc1cccc(C(=O)N2CCOCC2)c1 (3D coordinates assigned)
O=C(CC[N-]C(=O)c1ccc(COc2ccccc2)cc1)Nc1cccc(C(=O)N2CCOCC2)c1 (nonaromatic ring conformer: 77.02658390177723 kcal/mol)

>  <smiles>  (43) 
O=C(CCNC(=O)c1ccc(COc2ccccc2)cc1)Nc1cccc(C(=O)N2CCOCC2)c1

>  <score_type>  (43) 
oracle

>  <origin>  (43) 
adg

>  <m_score__min__energy>  (43) 
-11.18

>  <m_primary>  (43) 
energy

$$$$
43:0
     RDKit          3D

 48 50  0  0  0  0  0  0  0  0999 V2000
   64.6710   31.0350   51.4270 C   0  0  0  0  0  0  0  0  0  0  0  0
   63.9430   31.7300   50.3160 C   0  0  0  0  0  0  0  0  0  0  0  0
   64.4090   32.9590   49.8250 C   0  0  0  0  0  0  0  0  0  0  0  0
   63.7520   33.5920   48.7670 C   0  0  0  0  0  0  0  0  0  0  0  0
   62.6200   33.0040   48.1790 C   0  0  0  0  0  0  0  0  0  0  0  0
   61.9190   33.6630   47.0550 C   0  0  0  0  0  0  0  0  0  0  0  0
   62.5370   33.8330   45.9690 O   0  0  0  0  0  0  0  0  0  0  0  0
   60.5440   34.0910   47.1660 N   0  0  0  0  0  0  0  0  0  0  0  0
   60.0260   35.1590   46.3030 C   0  0  0  0  0  0  0  0  0  0  0  0
   58.9270   34.6110   45.3680 C   0  0  0  0  0  0  0  0  0  0  0  0
   58.3210   33.3550   45.8780 N   0  0  0  0  0  0  0  0  0  0  0  0
   57.0360   33.0610   45.2160 C   0  0  0  0  0  0  0  0  0  0  0  0
   57.0770   31.7160   44.5370 C   0  0  0  0  0  0  0  0  0  0  0  0
   57.1330   31.6690   43.2800 O   0  0  0  0  0  0  0  0  0  0  0  0
   57.0630   30.4850   45.2750 N   0  0  0  0  0  0  0  0  0  0  0  0
   58.2180   29.7080   45.6100 C   0  0  0  0  0  0  0  0  0  0  0  0
   59.2150   30.0550   46.9130 S   0  0  0  0  0  0  0  0  0  0  0  0
   60.1710   28.6800   46.7780 C   0  0  0  0  0  0  0  0  0  0  0  0
   59.7160   27.9300   45.7010 C   0  0  0  0  0  0  0  0  0  0  0  0
   58.6250   28.5050   45.0250 C   0  0  0  0  0  0  0  0  0  0  0  0
   58.0450   27.8970   43.8100 C   0  0  0  0  0  0  0  0  0  0  0  0
   57.0490   28.5750   43.0430 N   0  0  0  0  0  0  0  0  0  0  0  0
   58.4570   26.7710   43.4230 O   0  0  0  0  0  0  0  0  0  0  0  0
   58.1840   33.3780   47.3450 C   0  0  0  0  0  0  0  0  0  0  0  0
   59.5810   33.3240   47.9730 C   0  0  0  0  0  0  0  0  0  0  0  0
   62.1800   31.7530   48.6440 C   0  0  0  0  0  0  0  0  0  0  0  0
   62.8360   31.1220   49.7060 C   0  0  0  0  0  0  0  0  0  0  0  0
   64.2931   31.3957   52.3950 H   0  0  0  0  0  0  0  0  0  0  0  0
   64.5068   29.9500   51.3506 H   0  0  0  0  0  0  0  0  0  0  0  0
   65.7472   31.2493   51.3506 H   0  0  0  0  0  0  0  0  0  0  0  0
   65.2967   33.4268   50.2757 H   0  0  0  0  0  0  0  0  0  0  0  0
   64.1236   34.5571   48.3920 H   0  0  0  0  0  0  0  0  0  0  0  0
   59.6032   35.9581   46.9296 H   0  0  0  0  0  0  0  0  0  0  0  0
   60.8503   35.5541   45.6910 H   0  0  0  0  0  0  0  0  0  0  0  0
   58.1366   35.3697   45.2701 H   0  0  0  0  0  0  0  0  0  0  0  0
   59.3946   34.3867   44.3979 H   0  0  0  0  0  0  0  0  0  0  0  0
   56.2345   33.0600   45.9694 H   0  0  0  0  0  0  0  0  0  0  0  0
   56.8472   33.8332   44.4558 H   0  0  0  0  0  0  0  0  0  0  0  0
   61.0153   28.4178   47.4325 H   0  0  0  0  0  0  0  0  0  0  0  0
   60.1683   26.9724   45.4036 H   0  0  0  0  0  0  0  0  0  0  0  0
   56.6100   28.1030   42.2210 H   0  0  0  0  0  0  0  0  0  0  0  0
   56.8020   29.5710   43.2330 H   0  0  0  0  0  0  0  0  0  0  0  0
   57.6753   34.3030   47.6542 H   0  0  0  0  0  0  0  0  0  0  0  0
   57.5910   32.5136   47.6783 H   0  0  0  0  0  0  0  0  0  0  0  0
   59.5383   33.7505   48.9861 H   0  0  0  0  0  0  0  0  0  0  0  0
   59.9101   32.2752   48.0141 H   0  0  0  0  0  0  0  0  0  0  0  0
   61.3145   31.2671   48.1699 H   0  0  0  0  0  0  0  0  0  0  0  0
   62.4820   30.1442   50.0645 H   0  0  0  0  0  0  0  0  0  0  0  0
  1  2  1  0
  2  3  2  0
  3  4  1  0
  4  5  2  0
  5  6  1  0
  6  7  2  0
  6  8  1  0
  8  9  1  0
  9 10  1  0
 10 11  1  0
 11 12  1  0
 12 13  1  0
 13 14  2  0
 13 15  1  0
 15 16  1  0
 16 17  1  0
 17 18  1  0
 18 19  2  0
 19 20  1  0
 20 21  1  0
 21 22  1  0
 21 23  2  0
 11 24  1  0
 24 25  1  0
  5 26  1  0
 26 27  2  0
 27  2  1  0
 25  8  1  0
 20 16  2  0
  1 28  1  0
  1 29  1  0
  1 30  1  0
  3 31  1  0
  4 32  1  0
  9 33  1  0
  9 34  1  0
 10 35  1  0
 10 36  1  0
 12 37  1  0
 12 38  1  0
 18 39  1  0
 19 40  1  0
 22 41  1  0
 22 42  1  0
 24 43  1  0
 24 44  1  0
 25 45  1  0
 25 46  1  0
 26 47  1  0
 27 48  1  0
M  CHG  1  15  -1
M  END
>  <UniqueID>  (44) 
43

>  <SMILES>  (44) 
Cc1ccc(C(=O)N2CCN(CC(=O)[N-]c3sccc3C(N)=O)CC2)cc1

>  <Energy>  (44) 
89.45351816365455

>  <Genealogy>  (44) 
Cc1ccc(C(=O)N2CCN(CC(=O)[N-]c3sccc3C(N)=O)CC2)cc1 (protonated)
Cc1ccc(C(=O)N2CCN(CC(=O)[N-]c3sccc3C(N)=O)CC2)cc1 (3D coordinates assigned)
Cc1ccc(C(=O)N2CCN(CC(=O)[N-]c3sccc3C(N)=O)CC2)cc1 (nonaromatic ring conformer: 89.45351816365455 kcal/mol)

>  <smiles>  (44) 
Cc1ccc(C(=O)N2CCN(CC(=O)Nc3sccc3C(N)=O)CC2)cc1

>  <score_type>  (44) 
oracle

>  <origin>  (44) 
adg

>  <m_score__min__energy>  (44) 
-11.710000000000001

>  <m_primary>  (44) 
energy

$$$$
44:0
     RDKit          3D

 56 58  0  0  0  0  0  0  0  0999 V2000
   56.2948   32.5430   45.2359 H   0  0  0  0  0  0  0  0  0  0  0  0
   57.2390   32.2850   44.7340 C   0  0  0  0  0  0  0  0  0  0  0  0
   57.2760   31.1060   43.8480 C   0  0  0  0  0  0  0  0  0  0  0  0
   56.7170   31.1850   42.7210 O   0  0  0  0  0  0  0  0  0  0  0  0
   57.9500   29.8890   44.2200 N   0  0  0  0  0  0  0  0  0  0  0  0
   59.2560   29.9370   44.8930 C   0  0  0  0  0  0  0  0  0  0  0  0
   59.8105   30.8191   44.5403 H   0  0  0  0  0  0  0  0  0  0  0  0
   59.0895   29.9961   45.9787 H   0  0  0  0  0  0  0  0  0  0  0  0
   60.0760   28.6740   44.5910 C   0  0  0  0  0  0  0  0  0  0  0  0
   60.3671   28.6929   43.5304 H   0  0  0  0  0  0  0  0  0  0  0  0
   60.9474   28.6850   45.2622 H   0  0  0  0  0  0  0  0  0  0  0  0
   59.3390   27.4160   44.8530 N   0  0  0  0  0  0  0  0  0  0  0  0
   59.7620   26.7280   46.4050 S   0  0  0  0  0  0  0  0  0  0  0  0
   61.1600   26.1780   46.3430 O   0  0  0  0  0  0  0  0  0  0  0  0
   58.8290   25.5910   46.7170 O   0  0  0  0  0  0  0  0  0  0  0  0
   59.6670   27.9300   47.6970 C   0  0  0  0  0  0  0  0  0  0  0  0
   58.6230   28.8630   47.7190 C   0  0  0  0  0  0  0  0  0  0  0  0
   57.8737   28.8656   46.9137 H   0  0  0  0  0  0  0  0  0  0  0  0
   58.5290   29.7910   48.7600 C   0  0  0  0  0  0  0  0  0  0  0  0
   57.7077   30.5227   48.7666 H   0  0  0  0  0  0  0  0  0  0  0  0
   59.4740   29.7960   49.7960 C   0  0  0  0  0  0  0  0  0  0  0  0
   59.3590   30.7680   50.8510 N   0  0  0  0  0  0  0  0  0  0  0  0
   60.0570   31.5470   50.8770 H   0  0  0  0  0  0  0  0  0  0  0  0
   58.2670   30.8270   51.7800 C   0  0  0  0  0  0  0  0  0  0  0  0
   57.2410   30.1120   51.6170 O   0  0  0  0  0  0  0  0  0  0  0  0
   58.3160   31.7900   52.9220 C   0  0  0  0  0  0  0  0  0  0  0  0
   58.2878   31.2349   53.8712 H   0  0  0  0  0  0  0  0  0  0  0  0
   59.2451   32.3763   52.8676 H   0  0  0  0  0  0  0  0  0  0  0  0
   57.4512   32.4676   52.8676 H   0  0  0  0  0  0  0  0  0  0  0  0
   60.5430   28.8840   49.7520 C   0  0  0  0  0  0  0  0  0  0  0  0
   61.3108   28.9013   50.5395 H   0  0  0  0  0  0  0  0  0  0  0  0
   60.6340   27.9550   48.7110 C   0  0  0  0  0  0  0  0  0  0  0  0
   61.4694   27.2397   48.6878 H   0  0  0  0  0  0  0  0  0  0  0  0
   57.8680   27.4970   44.7000 C   0  0  0  0  0  0  0  0  0  0  0  0
   57.4985   26.5337   44.3184 H   0  0  0  0  0  0  0  0  0  0  0  0
   57.4394   27.7296   45.6860 H   0  0  0  0  0  0  0  0  0  0  0  0
   57.4450   28.6040   43.7330 C   0  0  0  0  0  0  0  0  0  0  0  0
   57.8610   28.3996   42.7354 H   0  0  0  0  0  0  0  0  0  0  0  0
   56.3474   28.6390   43.6693 H   0  0  0  0  0  0  0  0  0  0  0  0
   58.3160   33.0520   44.9480 C   0  0  0  0  0  0  0  0  0  0  0  0
   58.7101   33.6448   44.1094 H   0  0  0  0  0  0  0  0  0  0  0  0
   59.0020   33.1420   46.2550 C   0  0  0  0  0  0  0  0  0  0  0  0
   60.3730   33.4380   46.3650 C   0  0  0  0  0  0  0  0  0  0  0  0
   60.9730   33.5979   45.4570 H   0  0  0  0  0  0  0  0  0  0  0  0
   60.9770   33.5300   47.6240 C   0  0  0  0  0  0  0  0  0  0  0  0
   62.0500   33.7599   47.7005 H   0  0  0  0  0  0  0  0  0  0  0  0
   60.2190   33.3300   48.7930 C   0  0  0  0  0  0  0  0  0  0  0  0
   60.7810   33.4070   50.0760 O   0  0  0  0  0  0  0  0  0  0  0  0
   62.1450   33.7190   50.3390 C   0  0  0  0  0  0  0  0  0  0  0  0
   62.3095   33.7566   51.4260 H   0  0  0  0  0  0  0  0  0  0  0  0
   62.7899   32.9452   49.8971 H   0  0  0  0  0  0  0  0  0  0  0  0
   62.3894   34.6962   49.8971 H   0  0  0  0  0  0  0  0  0  0  0  0
   58.8560   33.0440   48.6810 C   0  0  0  0  0  0  0  0  0  0  0  0
   58.2550   32.8868   49.5888 H   0  0  0  0  0  0  0  0  0  0  0  0
   58.2500   32.9560   47.4240 C   0  0  0  0  0  0  0  0  0  0  0  0
   57.1741   32.7390   47.3514 H   0  0  0  0  0  0  0  0  0  0  0  0
  1  2  1  0
  2  3  1  0
  3  4  2  0
  3  5  1  0
  5  6  1  0
  6  7  1  0
  6  8  1  0
  6  9  1  0
  9 10  1  0
  9 11  1  0
  9 12  1  0
 12 13  1  0
 13 14  2  0
 13 15  2  0
 13 16  1  0
 16 17  2  0
 17 18  1  0
 17 19  1  0
 19 20  1  0
 19 21  2  0
 21 22  1  0
 22 23  1  0
 22 24  1  0
 24 25  2  0
 24 26  1  0
 26 27  1  0
 26 28  1  0
 26 29  1  0
 21 30  1  0
 30 31  1  0
 30 32  2  0
 32 33  1  0
 12 34  1  0
 34 35  1  0
 34 36  1  0
 34 37  1  0
 37 38  1  0
 37 39  1  0
  2 40  2  0
 40 41  1  0
 40 42  1  0
 42 43  2  0
 43 44  1  0
 43 45  1  0
 45 46  1  0
 45 47  2  0
 47 48  1  0
 48 49  1  0
 49 50  1  0
 49 51  1  0
 49 52  1  0
 47 53  1  0
 53 54  1  0
 53 55  2  0
 55 56  1  0
 37  5  1  0
 55 42  1  0
 32 16  1  0
M  END
>  <UniqueID>  (45) 
44

>  <SMILES>  (45) 
COc1ccc(/C=C/C(=O)N2CCN(S(=O)(=O)c3ccc(NC(C)=O)cc3)CC2)cc1

>  <Energy>  (45) 
65.22588536498702

>  <Genealogy>  (45) 
COc1ccc(/C=C/C(=O)N2CCN(S(=O)(=O)c3ccc(NC(C)=O)cc3)CC2)cc1 (cis-trans isomerization)
COc1ccc(/C=C/C(=O)N2CCN(S(=O)(=O)c3ccc(NC(C)=O)cc3)CC2)cc1 (3D coordinates assigned)
COc1ccc(/C=C/C(=O)N2CCN(S(=O)(=O)c3ccc(NC(C)=O)cc3)CC2)cc1 (nonaromatic ring conformer: 65.22588536498702 kcal/mol)

>  <smiles>  (45) 
COc1ccc(C=CC(=O)N2CCN(S(=O)(=O)c3ccc(NC(C)=O)cc3)CC2)cc1

>  <score_type>  (45) 
oracle

>  <origin>  (45) 
adg

>  <m_score__min__energy>  (45) 
-8.0099999999999998

>  <m_primary>  (45) 
energy

$$$$
45:0
     RDKit          3D

 42 44  0  0  0  0  0  0  0  0999 V2000
   55.0586   29.7519   55.8331 H   0  0  0  0  0  0  0  0  0  0  0  0
   54.3840   30.0180   55.0060 C   0  0  0  0  0  0  0  0  0  0  0  0
   53.2956   30.0273   55.1652 H   0  0  0  0  0  0  0  0  0  0  0  0
   54.8900   30.3320   53.8000 C   0  0  0  0  0  0  0  0  0  0  0  0
   54.1380   30.6860   52.6740 C   0  0  0  0  0  0  0  0  0  0  0  0
   52.7960   30.7750   52.5780 C   0  0  0  0  0  0  0  0  0  0  0  0
   52.2122   30.7801   53.5103 H   0  0  0  0  0  0  0  0  0  0  0  0
   52.0600   30.8660   51.3010 C   0  0  0  0  0  0  0  0  0  0  0  0
   51.3000   31.9340   50.8810 C   0  0  0  0  0  0  0  0  0  0  0  0
   51.0200   33.0720   51.6270 O   0  0  0  0  0  0  0  0  0  0  0  0
   50.8540   31.7350   49.6260 N   0  0  0  0  0  0  0  0  0  0  0  0
   51.3850   30.5340   49.3090 C   0  0  0  0  0  0  0  0  0  0  0  0
   51.2140   29.9870   48.1880 O   0  0  0  0  0  0  0  0  0  0  0  0
   52.1270   29.9830   50.2900 N   0  0  0  0  0  0  0  0  0  0  0  0
   52.6770   29.0970   50.2390 H   0  0  0  0  0  0  0  0  0  0  0  0
   55.0430   30.8550   51.6430 C   0  0  0  0  0  0  0  0  0  0  0  0
   54.8084   31.1342   50.6052 H   0  0  0  0  0  0  0  0  0  0  0  0
   56.2960   30.6070   52.1630 C   0  0  0  0  0  0  0  0  0  0  0  0
   57.5000   30.5730   51.3180 C   0  0  0  0  0  0  0  0  0  0  0  0
   58.1200   29.4840   51.1860 O   0  0  0  0  0  0  0  0  0  0  0  0
   58.0530   31.8020   50.8220 N   0  0  0  0  0  0  0  0  0  0  0  0
   58.8000   32.0050   49.7710 C   0  0  0  0  0  0  0  0  0  0  0  0
   59.4640   33.2340   49.6610 C   0  0  0  0  0  0  0  0  0  0  0  0
   59.3558   33.9906   50.4521 H   0  0  0  0  0  0  0  0  0  0  0  0
   60.2630   33.4980   48.5470 C   0  0  0  0  0  0  0  0  0  0  0  0
   60.7926   34.4588   48.4667 H   0  0  0  0  0  0  0  0  0  0  0  0
   60.3880   32.5700   47.5610 N   0  0  0  0  0  0  0  0  0  0  0  0
   59.7450   31.3750   47.6250 C   0  0  0  0  0  0  0  0  0  0  0  0
   59.8620   30.6454   46.8101 H   0  0  0  0  0  0  0  0  0  0  0  0
   58.9350   31.0690   48.7230 C   0  0  0  0  0  0  0  0  0  0  0  0
   58.4066   30.1054   48.7698 H   0  0  0  0  0  0  0  0  0  0  0  0
   56.2210   30.3270   53.4940 N   0  0  0  0  0  0  0  0  0  0  0  0
   57.3330   30.1200   54.4560 C   0  0  0  0  0  0  0  0  0  0  0  0
   58.2673   30.2083   53.8822 H   0  0  0  0  0  0  0  0  0  0  0  0
   57.3380   31.2080   55.5320 C   0  0  0  0  0  0  0  0  0  0  0  0
   57.3358   30.7395   56.5272 H   0  0  0  0  0  0  0  0  0  0  0  0
   58.2390   31.8292   55.4211 H   0  0  0  0  0  0  0  0  0  0  0  0
   56.4427   31.8375   55.4211 H   0  0  0  0  0  0  0  0  0  0  0  0
   57.3570   28.7070   55.0600 C   0  0  0  0  0  0  0  0  0  0  0  0
   57.3558   28.7774   56.1577 H   0  0  0  0  0  0  0  0  0  0  0  0
   56.4682   28.1509   54.7273 H   0  0  0  0  0  0  0  0  0  0  0  0
   58.2642   28.1814   54.7273 H   0  0  0  0  0  0  0  0  0  0  0  0
  1  2  1  0
  2  3  1  0
  2  4  2  0
  4  5  1  0
  5  6  2  0
  6  7  1  0
  6  8  1  0
  8  9  2  0
  9 10  1  0
  9 11  1  0
 11 12  1  0
 12 13  2  0
 12 14  1  0
 14 15  1  0
  5 16  1  0
 16 17  1  0
 16 18  2  0
 18 19  1  0
 19 20  2  0
 19 21  1  0
 21 22  2  3
 22 23  1  0
 23 24  1  0
 23 25  2  0
 25 26  1  0
 25 27  1  0
 27 28  1  0
 28 29  1  0
 28 30  2  0
 30 31  1  0
 18 32  1  0
 32 33  1  0
 33 34  1  0
 33 35  1  0
 35 36  1  0
 35 37  1  0
 35 38  1  0
 33 39  1  0
 39 40  1  0
 39 41  1  0
 39 42  1  0
 32  4  1  0
 14  8  1  0
 30 22  1  0
M  CHG  3  10  -1  11  -1  27  -1
M  END
>  <UniqueID>  (46) 
45

>  <SMILES>  (46) 
C=c1/c(=C/c2[nH]c(=O)[n-]c2[O-])cc(C(=O)N=c2cc[n-]cc2)n1C(C)C

>  <Energy>  (46) 
123.92817076723072

>  <Genealogy>  (46) 
C=c1c(=Cc2[nH]c(=O)[n-]c2[O-])cc(C(=O)N=c2cc[n-]cc2)n1C(C)C (protonated)
C=c1/c(=C/c2[nH]c(=O)[n-]c2[O-])cc(C(=O)N=c2cc[n-]cc2)n1C(C)C (cis-trans isomerization)
C=c1/c(=C/c2[nH]c(=O)[n-]c2[O-])cc(C(=O)N=c2cc[n-]cc2)n1C(C)C (3D coordinates assigned)
C=c1/c(=C/c2[nH]c(=O)[n-]c2[O-])cc(C(=O)N=c2cc[n-]cc2)n1C(C)C (optimized conformer: 123.92817076723072 kcal/mol)

>  <smiles>  (46) 
C=c1c(=Cc2[nH]c(=O)[nH]c2O)cc(C(=O)N=c2cc[nH]cc2)n1C(C)C

>  <score_type>  (46) 
oracle

>  <origin>  (46) 
adg

>  <m_score__min__energy>  (46) 
-14.449999999999999

>  <m_primary>  (46) 
energy

$$$$
46:0
     RDKit          3D

 38 39  0  0  0  0  0  0  0  0999 V2000
   64.2560   32.6060   49.0090 C   0  0  0  0  0  0  0  0  0  0  0  0
   63.1010   33.1530   48.6220 C   0  0  0  0  0  0  0  0  0  0  0  0
   62.7070   33.4430   47.0130 S   0  0  0  0  0  0  0  0  0  0  0  0
   61.1950   34.1040   47.3700 C   0  0  0  0  0  0  0  0  0  0  0  0
   60.2770   34.5390   46.4920 C   0  0  0  0  0  0  0  0  0  0  0  0
   59.2330   33.6850   45.8860 C   0  0  0  0  0  0  0  0  0  0  0  0
   58.3990   34.1600   44.8640 C   0  0  0  0  0  0  0  0  0  0  0  0
   57.3990   33.3430   44.3330 C   0  0  0  0  0  0  0  0  0  0  0  0
   57.2070   32.0380   44.8260 C   0  0  0  0  0  0  0  0  0  0  0  0
   56.2160   31.1860   44.3130 O   0  0  0  0  0  0  0  0  0  0  0  0
   56.3150   30.4870   43.0760 C   0  0  0  0  0  0  0  0  0  0  0  0
   58.0220   31.5640   45.8660 C   0  0  0  0  0  0  0  0  0  0  0  0
   57.7970   30.2600   46.3410 O   0  0  0  0  0  0  0  0  0  0  0  0
   58.3430   29.0680   45.7750 C   0  0  0  0  0  0  0  0  0  0  0  0
   57.2520   28.1850   45.2460 C   0  0  0  0  0  0  0  0  0  0  0  0
   55.8950   28.6280   45.2440 N   0  0  0  0  0  0  0  0  0  0  0  0
   57.5390   27.0520   44.7780 O   0  0  0  0  0  0  0  0  0  0  0  0
   59.0240   32.3980   46.4000 C   0  0  0  0  0  0  0  0  0  0  0  0
   61.0380   34.0650   48.7590 C   0  0  0  0  0  0  0  0  0  0  0  0
   59.9940   34.4790   49.3350 O   0  0  0  0  0  0  0  0  0  0  0  0
   62.0960   33.5430   49.4530 N   0  0  0  0  0  0  0  0  0  0  0  0
   62.1330   33.4150   50.9150 C   0  0  0  0  0  0  0  0  0  0  0  0
   64.4556   32.4413   50.0781 H   0  0  0  0  0  0  0  0  0  0  0  0
   65.0078   32.3201   48.2587 H   0  0  0  0  0  0  0  0  0  0  0  0
   60.3033   35.6005   46.2046 H   0  0  0  0  0  0  0  0  0  0  0  0
   58.5332   35.1815   44.4786 H   0  0  0  0  0  0  0  0  0  0  0  0
   56.7568   33.7213   43.5240 H   0  0  0  0  0  0  0  0  0  0  0  0
   56.4668   29.4152   43.2716 H   0  0  0  0  0  0  0  0  0  0  0  0
   55.3881   30.6270   42.5005 H   0  0  0  0  0  0  0  0  0  0  0  0
   57.1666   30.8789   42.5005 H   0  0  0  0  0  0  0  0  0  0  0  0
   59.0212   29.3368   44.9517 H   0  0  0  0  0  0  0  0  0  0  0  0
   58.8909   28.5232   46.5580 H   0  0  0  0  0  0  0  0  0  0  0  0
   55.6380   29.5700   45.6170 H   0  0  0  0  0  0  0  0  0  0  0  0
   55.1400   28.0100   44.8720 H   0  0  0  0  0  0  0  0  0  0  0  0
   59.6490   32.0352   47.2293 H   0  0  0  0  0  0  0  0  0  0  0  0
   61.8554   34.3752   51.3743 H   0  0  0  0  0  0  0  0  0  0  0  0
   61.4228   32.6375   51.2331 H   0  0  0  0  0  0  0  0  0  0  0  0
   63.1485   33.1363   51.2331 H   0  0  0  0  0  0  0  0  0  0  0  0
  1  2  2  0
  2  3  1  0
  3  4  1  0
  4  5  2  3
  5  6  1  0
  6  7  2  0
  7  8  1  0
  8  9  2  0
  9 10  1  0
 10 11  1  0
  9 12  1  0
 12 13  1  0
 13 14  1  0
 14 15  1  0
 15 16  1  0
 15 17  2  0
 12 18  2  0
  4 19  1  0
 19 20  2  0
 19 21  1  0
 21 22  1  0
 21  2  1  0
 18  6  1  0
  1 23  1  0
  1 24  1  0
  5 25  1  0
  7 26  1  0
  8 27  1  0
 11 28  1  0
 11 29  1  0
 11 30  1  0
 14 31  1  0
 14 32  1  0
 16 33  1  0
 16 34  1  0
 18 35  1  0
 22 36  1  0
 22 37  1  0
 22 38  1  0
M  END
>  <UniqueID>  (47) 
46

>  <SMILES>  (47) 
C=c1sc(=Cc2ccc(OC)c(OCC(N)=O)c2)c(=O)n1C

>  <Energy>  (47) 
73.73836371007168

>  <Genealogy>  (47) 
C=c1sc(=Cc2ccc(OC)c(OCC(N)=O)c2)c(=O)n1C (3D coordinates assigned)
C=c1sc(=Cc2ccc(OC)c(OCC(N)=O)c2)c(=O)n1C (optimized conformer: 73.73836371007168 kcal/mol)

>  <smiles>  (47) 
C=c1sc(=Cc2ccc(OC)c(OCC(N)=O)c2)c(=O)n1C

>  <score_type>  (47) 
oracle

>  <origin>  (47) 
adg

>  <m_score__min__energy>  (47) 
-7.5800000000000001

>  <m_primary>  (47) 
energy

$$$$
47:0
     RDKit          3D

 40 42  0  0  0  0  0  0  0  0999 V2000
   58.8580   32.9440   43.9730 N   0  0  0  0  0  0  0  0  0  0  0  0
   57.8910   32.0920   43.3550 C   0  0  0  0  0  0  0  0  0  0  0  0
   57.4470   32.4010   42.2170 O   0  0  0  0  0  0  0  0  0  0  0  0
   57.4160   30.8570   44.0260 C   0  0  0  0  0  0  0  0  0  0  0  0
   56.0530   30.4610   43.9170 C   0  0  0  0  0  0  0  0  0  0  0  0
   55.6020   29.3230   44.5240 N   0  0  0  0  0  0  0  0  0  0  0  0
   56.4720   28.5740   45.2400 C   0  0  0  0  0  0  0  0  0  0  0  0
   56.2720   27.3890   45.8940 C   0  0  0  0  0  0  0  0  0  0  0  0
   55.0650   26.7090   45.9890 O   0  0  0  0  0  0  0  0  0  0  0  0
   57.4300   26.9510   46.4390 N   0  0  0  0  0  0  0  0  0  0  0  0
   58.3650   27.8820   46.1160 C   0  0  0  0  0  0  0  0  0  0  0  0
   57.7850   28.8990   45.3780 C   0  0  0  0  0  0  0  0  0  0  0  0
   58.3050   30.0540   44.7890 C   0  0  0  0  0  0  0  0  0  0  0  0
   59.6480   30.4110   44.9420 O   0  0  0  0  0  0  0  0  0  0  0  0
   60.3430   30.2870   46.1830 C   0  0  0  0  0  0  0  0  0  0  0  0
   60.5130   31.6670   46.8340 C   0  0  0  0  0  0  0  0  0  0  0  0
   59.2720   32.1230   47.6330 C   0  0  1  0  0  0  0  0  0  0  0  0
   59.5730   33.2950   48.6000 C   0  0  0  0  0  0  0  0  0  0  0  0
   59.8690   34.6050   47.8530 C   0  0  0  0  0  0  0  0  0  0  0  0
   59.0250   34.7660   46.5770 C   0  0  0  0  0  0  0  0  0  0  0  0
   57.7960   33.8550   46.5950 C   0  0  0  0  0  0  0  0  0  0  0  0
   58.1810   32.4350   46.6760 N   0  0  0  0  0  0  0  0  0  0  0  0
   59.3510   32.6640   44.8490 H   0  0  0  0  0  0  0  0  0  0  0  0
   59.1430   33.8340   43.5080 H   0  0  0  0  0  0  0  0  0  0  0  0
   55.3532   31.0797   43.3361 H   0  0  0  0  0  0  0  0  0  0  0  0
   59.4268   27.8345   46.3993 H   0  0  0  0  0  0  0  0  0  0  0  0
   59.7689   29.6349   46.8577 H   0  0  0  0  0  0  0  0  0  0  0  0
   61.3362   29.8524   45.9970 H   0  0  0  0  0  0  0  0  0  0  0  0
   61.3733   31.6266   47.5183 H   0  0  0  0  0  0  0  0  0  0  0  0
   60.6628   32.3939   46.0221 H   0  0  0  0  0  0  0  0  0  0  0  0
   58.9508   31.3017   48.2904 H   0  0  0  0  0  0  0  0  0  0  0  0
   58.7006   33.4488   49.2521 H   0  0  0  0  0  0  0  0  0  0  0  0
   60.4676   33.0298   49.1825 H   0  0  0  0  0  0  0  0  0  0  0  0
   59.6550   35.4491   48.5250 H   0  0  0  0  0  0  0  0  0  0  0  0
   60.9264   34.5828   47.5507 H   0  0  0  0  0  0  0  0  0  0  0  0
   58.6929   35.8117   46.4984 H   0  0  0  0  0  0  0  0  0  0  0  0
   59.6482   34.4855   45.7151 H   0  0  0  0  0  0  0  0  0  0  0  0
   57.1756   34.1080   47.4674 H   0  0  0  0  0  0  0  0  0  0  0  0
   57.2366   34.0095   45.6605 H   0  0  0  0  0  0  0  0  0  0  0  0
   57.3270   31.8860   46.9370 H   0  0  0  0  0  0  0  0  0  0  0  0
  1  2  1  0
  2  3  2  0
  2  4  1  0
  4  5  1  0
  5  6  2  0
  6  7  1  0
  7  8  2  0
  8  9  1  0
  8 10  1  0
 10 11  1  0
 11 12  2  0
 12 13  1  0
 13 14  1  0
 14 15  1  0
 15 16  1  0
 16 17  1  0
 17 18  1  0
 18 19  1  0
 19 20  1  0
 20 21  1  0
 21 22  1  0
 13  4  2  0
 22 17  1  0
 12  7  1  0
  1 23  1  0
  1 24  1  0
  5 25  1  0
 11 26  1  0
 15 27  1  0
 15 28  1  0
 16 29  1  0
 16 30  1  0
 17 31  1  1
 18 32  1  0
 18 33  1  0
 19 34  1  0
 19 35  1  0
 20 36  1  0
 20 37  1  0
 21 38  1  0
 21 39  1  0
 22 40  1  0
M  CHG  2   9  -1  10  -1
M  END
>  <UniqueID>  (48) 
47

>  <SMILES>  (48) 
NC(=O)c1cnc2c([O-])[n-]cc2c1OCC[C@H]1CCCCN1

>  <Energy>  (48) 
88.65720299578827

>  <Genealogy>  (48) 
NC(=O)c1cnc2c([O-])[n-]cc2c1OCCC1CCCCN1 (protonated)
NC(=O)c1cnc2c([O-])[n-]cc2c1OCC[C@H]1CCCCN1 (chirality)
NC(=O)c1cnc2c([O-])[n-]cc2c1OCC[C@H]1CCCCN1 (3D coordinates assigned)
NC(=O)c1cnc2c([O-])[n-]cc2c1OCC[C@H]1CCCCN1 (nonaromatic ring conformer: 88.65720299578827 kcal/mol)

>  <smiles>  (48) 
NC(=O)c1cnc2c(O)[nH]cc2c1OCCC1CCCCN1

>  <score_type>  (48) 
oracle

>  <origin>  (48) 
adg

>  <m_score__min__energy>  (48) 
-11.59

>  <m_primary>  (48) 
energy

$$$$
48:0
     RDKit          3D

 40 42  0  0  0  0  0  0  0  0999 V2000
   57.3912   30.9428   43.1670 H   0  0  0  0  0  0  0  0  0  0  0  0
   57.5590   30.0310   43.7590 C   0  0  0  0  0  0  0  0  0  0  0  0
   57.2089   29.0586   43.3825 H   0  0  0  0  0  0  0  0  0  0  0  0
   58.1910   30.1050   44.9410 C   0  0  0  0  0  0  0  0  0  0  0  0
   58.4820   29.0420   45.8130 C   0  0  0  0  0  0  0  0  0  0  0  0
   58.4150   27.7090   45.6380 C   0  0  0  0  0  0  0  0  0  0  0  0
   59.3427   27.1925   45.3507 H   0  0  0  0  0  0  0  0  0  0  0  0
   57.2070   26.8830   45.7980 C   0  0  0  0  0  0  0  0  0  0  0  0
   57.1930   25.6310   46.2930 N   0  0  0  0  0  0  0  0  0  0  0  0
   55.8770   25.3460   46.3800 C   0  0  0  0  0  0  0  0  0  0  0  0
   55.4500   24.2360   46.7940 O   0  0  0  0  0  0  0  0  0  0  0  0
   55.0520   26.3450   45.9990 N   0  0  0  0  0  0  0  0  0  0  0  0
   55.9120   27.3150   45.6490 C   0  0  0  0  0  0  0  0  0  0  0  0
   55.5200   28.5730   45.2060 O   0  0  0  0  0  0  0  0  0  0  0  0
   58.9030   29.6200   46.9980 C   0  0  0  0  0  0  0  0  0  0  0  0
   59.1806   29.0918   47.9221 H   0  0  0  0  0  0  0  0  0  0  0  0
   58.9080   30.9840   46.7990 C   0  0  0  0  0  0  0  0  0  0  0  0
   59.2670   31.9650   47.8420 C   0  0  0  0  0  0  0  0  0  0  0  0
   58.6380   33.0580   47.8750 O   0  0  0  0  0  0  0  0  0  0  0  0
   60.3390   31.7310   48.7890 N   0  0  1  0  0  0  0  0  0  0  0  0
   59.9790   31.0880   49.5310 H   0  0  0  0  0  0  0  0  0  0  0  0
   61.4150   31.0970   48.1780 O   0  0  0  0  0  0  0  0  0  0  0  0
   62.3970   31.8070   47.4830 C   0  0  0  0  0  0  0  0  0  0  0  0
   63.2590   31.1810   46.8090 O   0  0  0  0  0  0  0  0  0  0  0  0
   62.4240   33.2400   47.5620 N   0  0  0  0  0  0  0  0  0  0  0  0
   63.3210   34.0080   46.7000 C   0  0  0  0  0  0  0  0  0  0  0  0
   64.0104   34.5983   47.3215 H   0  0  0  0  0  0  0  0  0  0  0  0
   63.8979   33.3195   46.0650 H   0  0  0  0  0  0  0  0  0  0  0  0
   62.7296   34.6840   46.0650 H   0  0  0  0  0  0  0  0  0  0  0  0
   61.4430   33.9370   48.4000 C   0  0  0  0  0  0  0  0  0  0  0  0
   60.6588   34.3598   47.7548 H   0  0  0  0  0  0  0  0  0  0  0  0
   61.9662   34.7301   48.9543 H   0  0  0  0  0  0  0  0  0  0  0  0
   60.7910   32.9860   49.4210 C   0  0  0  0  0  0  0  0  0  0  0  0
   59.9239   33.4894   49.8735 H   0  0  0  0  0  0  0  0  0  0  0  0
   61.5433   32.7339   50.1829 H   0  0  0  0  0  0  0  0  0  0  0  0
   58.5050   31.2820   45.5420 N   0  0  0  0  0  0  0  0  0  0  0  0
   58.3800   32.6240   44.9640 C   0  0  0  0  0  0  0  0  0  0  0  0
   58.3108   33.3665   45.7726 H   0  0  0  0  0  0  0  0  0  0  0  0
   59.2620   32.8393   44.3429 H   0  0  0  0  0  0  0  0  0  0  0  0
   57.4734   32.6727   44.3429 H   0  0  0  0  0  0  0  0  0  0  0  0
  1  2  1  0
  2  3  1  0
  2  4  2  0
  4  5  1  0
  5  6  2  0
  6  7  1  0
  6  8  1  0
  8  9  1  0
  9 10  1  0
 10 11  2  0
 10 12  1  0
 12 13  1  0
 13 14  1  0
  5 15  1  0
 15 16  1  0
 15 17  2  0
 17 18  1  0
 18 19  2  0
 18 20  1  0
 20 21  1  1
 20 22  1  0
 22 23  1  0
 23 24  2  0
 23 25  1  0
 25 26  1  0
 26 27  1  0
 26 28  1  0
 26 29  1  0
 25 30  1  0
 30 31  1  0
 30 32  1  0
 30 33  1  0
 33 34  1  0
 33 35  1  0
 17 36  1  0
 36 37  1  0
 37 38  1  0
 37 39  1  0
 37 40  1  0
 36  4  1  0
 13  8  2  0
 33 20  1  0
M  CHG  4   9  -1  12  -1  14  -1  20   1
M  END
>  <UniqueID>  (49) 
48

>  <SMILES>  (49) 
C=c1/c(=C\c2[n-]c(=O)[n-]c2[O-])cc(C(=O)[N@@H+]2CCN(C)C(=O)O2)n1C

>  <Energy>  (49) 
117.9508448014919

>  <Genealogy>  (49) 
C=c1c(=Cc2[n-]c(=O)[n-]c2[O-])cc(C(=O)[NH+]2CCN(C)C(=O)O2)n1C (protonated)
C=c1c(=Cc2[n-]c(=O)[n-]c2[O-])cc(C(=O)[N@@H+]2CCN(C)C(=O)O2)n1C (chirality)
C=c1/c(=C\c2[n-]c(=O)[n-]c2[O-])cc(C(=O)[N@@H+]2CCN(C)C(=O)O2)n1C (cis-trans isomerization)
C=c1/c(=C\c2[n-]c(=O)[n-]c2[O-])cc(C(=O)[N@@H+]2CCN(C)C(=O)O2)n1C (3D coordinates assigned)
C=c1/c(=C\c2[n-]c(=O)[n-]c2[O-])cc(C(=O)[N@@H+]2CCN(C)C(=O)O2)n1C (nonaromatic ring conformer: 117.9508448014919 kcal/mol)

>  <smiles>  (49) 
C=c1c(=Cc2[nH]c(=O)[nH]c2O)cc(C(=O)N2CCN(C)C(=O)O2)n1C

>  <score_type>  (49) 
oracle

>  <origin>  (49) 
adg

>  <m_score__min__energy>  (49) 
-15.75

>  <m_primary>  (49) 
energy

$$$$
49:0
     RDKit          3D

 56 58  0  0  0  0  0  0  0  0999 V2000
   61.1000   33.8570   46.3680 C   0  0  0  0  0  0  0  0  0  0  0  0
   59.6150   34.2670   46.3570 C   0  0  0  0  0  0  0  0  0  0  0  0
   59.2590   34.8770   47.7270 C   0  0  0  0  0  0  0  0  0  0  0  0
   59.3700   35.3160   45.2560 C   0  0  0  0  0  0  0  0  0  0  0  0
   58.7500   33.0510   46.0860 C   0  0  0  0  0  0  0  0  0  0  0  0
   57.9270   32.8550   44.9900 C   0  0  0  0  0  0  0  0  0  0  0  0
   57.3570   31.6130   45.2410 C   0  0  0  0  0  0  0  0  0  0  0  0
   56.5120   30.9550   44.4980 N   0  0  0  0  0  0  0  0  0  0  0  0
   55.9940   29.6300   44.6930 C   0  0  0  0  0  0  0  0  0  0  0  0
   54.8190   29.3380   44.3520 O   0  0  0  0  0  0  0  0  0  0  0  0
   56.8230   28.5980   45.2370 N   0  0  0  0  0  0  0  0  0  0  0  0
   57.6670   27.6520   44.5010 C   0  0  1  0  0  0  0  0  0  0  0  0
   59.1070   28.1780   44.2870 C   0  0  0  0  0  0  0  0  0  0  0  0
   59.8990   28.2260   45.5760 C   0  0  0  0  0  0  0  0  0  0  0  0
   60.7140   27.3450   45.8090 O   0  0  0  0  0  0  0  0  0  0  0  0
   59.6720   29.2830   46.5540 N   0  0  0  0  0  0  0  0  0  0  0  0
   59.1330   28.7270   47.8260 C   0  0  0  0  0  0  0  0  0  0  0  0
   60.2090   28.6720   48.9280 C   0  0  0  0  0  0  0  0  0  0  0  0
   60.7850   29.9400   49.2210 O   0  0  0  0  0  0  0  0  0  0  0  0
   60.8810   30.8050   48.0930 C   0  0  0  0  0  0  0  0  0  0  0  0
   60.9140   30.0690   46.7430 C   0  0  0  0  0  0  0  0  0  0  0  0
   57.5890   26.2640   45.1190 C   0  0  0  0  0  0  0  0  0  0  0  0
   57.7460   25.0850   44.3600 C   0  0  0  0  0  0  0  0  0  0  0  0
   57.6950   23.8310   44.9760 C   0  0  0  0  0  0  0  0  0  0  0  0
   57.4890   23.7350   46.3520 C   0  0  0  0  0  0  0  0  0  0  0  0
   57.3510   24.8920   47.1210 C   0  0  0  0  0  0  0  0  0  0  0  0
   57.4060   26.1480   46.5110 C   0  0  0  0  0  0  0  0  0  0  0  0
   57.8140   31.1230   46.4070 N   0  0  0  0  0  0  0  0  0  0  0  0
   58.6420   32.0100   46.8850 O   0  0  0  0  0  0  0  0  0  0  0  0
   61.4463   33.7614   47.4077 H   0  0  0  0  0  0  0  0  0  0  0  0
   61.2180   32.8927   45.8521 H   0  0  0  0  0  0  0  0  0  0  0  0
   61.6960   34.6242   45.8521 H   0  0  0  0  0  0  0  0  0  0  0  0
   59.6389   34.2260   48.5281 H   0  0  0  0  0  0  0  0  0  0  0  0
   59.7177   35.8729   47.8153 H   0  0  0  0  0  0  0  0  0  0  0  0
   58.1663   34.9675   47.8153 H   0  0  0  0  0  0  0  0  0  0  0  0
   59.1431   36.2876   45.7192 H   0  0  0  0  0  0  0  0  0  0  0  0
   60.2706   35.4091   44.6313 H   0  0  0  0  0  0  0  0  0  0  0  0
   58.5214   35.0005   44.6313 H   0  0  0  0  0  0  0  0  0  0  0  0
   57.7640   33.5208   44.1296 H   0  0  0  0  0  0  0  0  0  0  0  0
   57.2655   27.5556   43.4814 H   0  0  0  0  0  0  0  0  0  0  0  0
   59.6243   27.5143   43.5786 H   0  0  0  0  0  0  0  0  0  0  0  0
   59.0358   29.2043   43.8976 H   0  0  0  0  0  0  0  0  0  0  0  0
   58.9480   29.9420   46.1770 H   0  0  0  0  0  0  0  0  0  0  0  0
   58.3038   29.3630   48.1694 H   0  0  0  0  0  0  0  0  0  0  0  0
   58.7896   27.7002   47.6319 H   0  0  0  0  0  0  0  0  0  0  0  0
   59.7479   28.2783   49.8458 H   0  0  0  0  0  0  0  0  0  0  0  0
   61.0188   28.0257   48.5584 H   0  0  0  0  0  0  0  0  0  0  0  0
   60.0117   31.4790   48.0986 H   0  0  0  0  0  0  0  0  0  0  0  0
   61.8351   31.3447   48.1853 H   0  0  0  0  0  0  0  0  0  0  0  0
   61.0044   30.8052   45.9307 H   0  0  0  0  0  0  0  0  0  0  0  0
   61.7753   29.3849   46.7299 H   0  0  0  0  0  0  0  0  0  0  0  0
   57.9099   25.1531   43.2744 H   0  0  0  0  0  0  0  0  0  0  0  0
   57.8176   22.9184   44.3743 H   0  0  0  0  0  0  0  0  0  0  0  0
   57.4352   22.7467   46.8319 H   0  0  0  0  0  0  0  0  0  0  0  0
   57.1989   24.8149   48.2077 H   0  0  0  0  0  0  0  0  0  0  0  0
   57.3053   27.0557   47.1242 H   0  0  0  0  0  0  0  0  0  0  0  0
  1  2  1  0
  2  3  1  0
  2  4  1  0
  2  5  1  0
  5  6  2  0
  6  7  1  0
  7  8  2  3
  8  9  1  0
  9 10  2  0
  9 11  1  0
 11 12  1  0
 12 13  1  0
 13 14  1  0
 14 15  2  0
 14 16  1  0
 16 17  1  0
 17 18  1  0
 18 19  1  0
 19 20  1  0
 20 21  1  0
 12 22  1  0
 22 23  2  0
 23 24  1  0
 24 25  2  0
 25 26  1  0
 26 27  2  0
  7 28  1  0
 28 29  1  0
 29  5  1  0
 21 16  1  0
 27 22  1  0
  1 30  1  0
  1 31  1  0
  1 32  1  0
  3 33  1  0
  3 34  1  0
  3 35  1  0
  4 36  1  0
  4 37  1  0
  4 38  1  0
  6 39  1  0
 12 40  1  6
 13 41  1  0
 13 42  1  0
 16 43  1  0
 17 44  1  0
 17 45  1  0
 18 46  1  0
 18 47  1  0
 20 48  1  0
 20 49  1  0
 21 50  1  0
 21 51  1  0
 23 52  1  0
 24 53  1  0
 25 54  1  0
 26 55  1  0
 27 56  1  0
M  CHG  3  11  -1  16   1  28  -1
M  END
>  <UniqueID>  (50) 
49

>  <SMILES>  (50) 
CC(C)(C)c1cc(=NC(=O)[N-][C@@H](CC(=O)[NH+]2CCOCC2)c2ccccc2)[n-]o1

>  <Energy>  (50) 
101.32001660537718

>  <Genealogy>  (50) 
CC(C)(C)c1cc(=NC(=O)[N-]C(CC(=O)[NH+]2CCOCC2)c2ccccc2)[n-]o1 (protonated)
CC(C)(C)c1cc(=NC(=O)[N-][C@@H](CC(=O)[NH+]2CCOCC2)c2ccccc2)[n-]o1 (chirality)
CC(C)(C)c1cc(=NC(=O)[N-][C@@H](CC(=O)[NH+]2CCOCC2)c2ccccc2)[n-]o1 (3D coordinates assigned)
CC(C)(C)c1cc(=NC(=O)[N-][C@@H](CC(=O)[NH+]2CCOCC2)c2ccccc2)[n-]o1 (nonaromatic ring conformer: 101.32001660537718 kcal/mol)

>  <smiles>  (50) 
CC(C)(C)c1cc(=NC(=O)NC(CC(=O)N2CCOCC2)c2ccccc2)[nH]o1

>  <score_type>  (50) 
oracle

>  <origin>  (50) 
adg

>  <m_score__min__energy>  (50) 
-10.26

>  <m_primary>  (50) 
energy

$$$$
50:0
     RDKit          3D

 52 54  0  0  0  0  0  0  0  0999 V2000
   57.3930   33.8440   44.9550 C   0  0  0  0  0  0  0  0  0  0  0  0
   58.5390   34.5720   45.6570 C   0  0  0  0  0  0  0  0  0  0  0  0
   59.2020   33.6960   46.6450 N   0  0  0  0  0  0  0  0  0  0  0  0
   59.8010   32.5020   46.0020 C   0  0  0  0  0  0  0  0  0  0  0  0
   60.8960   31.8450   46.8690 C   0  0  0  0  0  0  0  0  0  0  0  0
   60.7420   32.1440   48.3040 N   0  0  0  0  0  0  0  0  0  0  0  0
   59.3630   31.3240   49.0120 S   0  0  0  0  0  0  0  0  0  0  0  0
   59.7100   30.9120   50.4160 O   0  0  0  0  0  0  0  0  0  0  0  0
   58.1930   32.2640   49.0770 O   0  0  0  0  0  0  0  0  0  0  0  0
   59.0030   29.8460   48.0920 C   0  0  0  0  0  0  0  0  0  0  0  0
   58.2240   30.0000   46.9370 C   0  0  0  0  0  0  0  0  0  0  0  0
   57.8640   28.9020   46.1390 C   0  0  0  0  0  0  0  0  0  0  0  0
   57.0900   29.1450   44.8960 C   0  0  0  0  0  0  0  0  0  0  0  0
   55.6640   29.1380   44.9090 N   0  0  0  0  0  0  0  0  0  0  0  0
   57.6920   29.3240   43.8030 O   0  0  0  0  0  0  0  0  0  0  0  0
   58.2770   27.6090   46.5290 C   0  0  0  0  0  0  0  0  0  0  0  0
   57.8520   26.4410   45.8110 N   0  0  0  0  0  0  0  0  0  0  0  0
   58.7450   25.4420   45.2510 C   0  0  0  0  0  0  0  0  0  0  0  0
   57.8340   24.3880   44.5920 C   0  0  0  0  0  0  0  0  0  0  0  0
   56.3980   24.6710   45.0630 C   0  0  0  0  0  0  0  0  0  0  0  0
   56.5190   25.9720   45.7480 C   0  0  0  0  0  0  0  0  0  0  0  0
   55.5440   26.5900   46.2550 O   0  0  0  0  0  0  0  0  0  0  0  0
   59.0730   27.4510   47.6710 C   0  0  0  0  0  0  0  0  0  0  0  0
   59.4520   28.5520   48.4560 C   0  0  0  0  0  0  0  0  0  0  0  0
   60.3120   28.3030   49.6670 C   0  0  0  0  0  0  0  0  0  0  0  0
   60.7260   33.5980   48.5850 C   0  0  0  0  0  0  0  0  0  0  0  0
   60.2200   34.4450   47.4010 C   0  0  0  0  0  0  0  0  0  0  0  0
   56.7160   33.4139   45.7078 H   0  0  0  0  0  0  0  0  0  0  0  0
   56.8375   34.5552   44.3260 H   0  0  0  0  0  0  0  0  0  0  0  0
   57.8007   33.0389   44.3260 H   0  0  0  0  0  0  0  0  0  0  0  0
   59.2772   34.8883   44.9053 H   0  0  0  0  0  0  0  0  0  0  0  0
   58.1263   35.4439   46.1857 H   0  0  0  0  0  0  0  0  0  0  0  0
   59.0059   31.7639   45.8204 H   0  0  0  0  0  0  0  0  0  0  0  0
   60.2725   32.8310   45.0642 H   0  0  0  0  0  0  0  0  0  0  0  0
   60.8481   30.7549   46.7297 H   0  0  0  0  0  0  0  0  0  0  0  0
   61.8647   32.2545   46.5467 H   0  0  0  0  0  0  0  0  0  0  0  0
   57.8861   31.0063   46.6484 H   0  0  0  0  0  0  0  0  0  0  0  0
   55.1360   28.5980   45.6280 H   0  0  0  0  0  0  0  0  0  0  0  0
   59.4081   25.8980   44.5011 H   0  0  0  0  0  0  0  0  0  0  0  0
   59.3886   24.9954   46.0232 H   0  0  0  0  0  0  0  0  0  0  0  0
   57.8944   24.4694   43.4967 H   0  0  0  0  0  0  0  0  0  0  0  0
   58.1447   23.3713   44.8746 H   0  0  0  0  0  0  0  0  0  0  0  0
   55.7084   24.7376   44.2086 H   0  0  0  0  0  0  0  0  0  0  0  0
   55.9917   23.8790   45.7092 H   0  0  0  0  0  0  0  0  0  0  0  0
   59.4081   26.4436   47.9587 H   0  0  0  0  0  0  0  0  0  0  0  0
   59.7204   28.4743   50.5784 H   0  0  0  0  0  0  0  0  0  0  0  0
   60.6721   27.2637   49.6536 H   0  0  0  0  0  0  0  0  0  0  0  0
   61.1717   28.9891   49.6536 H   0  0  0  0  0  0  0  0  0  0  0  0
   60.0694   33.7789   49.4488 H   0  0  0  0  0  0  0  0  0  0  0  0
   61.7648   33.9021   48.7812 H   0  0  0  0  0  0  0  0  0  0  0  0
   59.7779   35.3772   47.7826 H   0  0  0  0  0  0  0  0  0  0  0  0
   61.0649   34.6778   46.7363 H   0  0  0  0  0  0  0  0  0  0  0  0
  1  2  1  0
  2  3  1  0
  3  4  1  0
  4  5  1  0
  5  6  1  0
  6  7  1  0
  7  8  2  0
  7  9  2  0
  7 10  1  0
 10 11  2  0
 11 12  1  0
 12 13  1  0
 13 14  1  0
 13 15  2  0
 12 16  2  0
 16 17  1  0
 17 18  1  0
 18 19  1  0
 19 20  1  0
 20 21  1  0
 21 22  2  0
 16 23  1  0
 23 24  2  0
 24 25  1  0
  6 26  1  0
 26 27  1  0
 27  3  1  0
 24 10  1  0
 21 17  1  0
  1 28  1  0
  1 29  1  0
  1 30  1  0
  2 31  1  0
  2 32  1  0
  4 33  1  0
  4 34  1  0
  5 35  1  0
  5 36  1  0
 11 37  1  0
 14 38  1  0
 18 39  1  0
 18 40  1  0
 19 41  1  0
 19 42  1  0
 20 43  1  0
 20 44  1  0
 23 45  1  0
 25 46  1  0
 25 47  1  0
 25 48  1  0
 26 49  1  0
 26 50  1  0
 27 51  1  0
 27 52  1  0
M  CHG  1  14  -1
M  END
>  <UniqueID>  (51) 
50

>  <SMILES>  (51) 
CCN1CCN(S(=O)(=O)c2cc(C([NH-])=O)c(N3CCCC3=O)cc2C)CC1

>  <Energy>  (51) 
78.4962250156573

>  <Genealogy>  (51) 
CCN1CCN(S(=O)(=O)c2cc(C([NH-])=O)c(N3CCCC3=O)cc2C)CC1 (protonated)
CCN1CCN(S(=O)(=O)c2cc(C([NH-])=O)c(N3CCCC3=O)cc2C)CC1 (3D coordinates assigned)
CCN1CCN(S(=O)(=O)c2cc(C([NH-])=O)c(N3CCCC3=O)cc2C)CC1 (nonaromatic ring conformer: 78.4962250156573 kcal/mol)

>  <smiles>  (51) 
CCN1CCN(S(=O)(=O)c2cc(C(N)=O)c(N3CCCC3=O)cc2C)CC1

>  <score_type>  (51) 
oracle

>  <origin>  (51) 
adg

>  <m_score__min__energy>  (51) 
-11.789999999999999

>  <m_primary>  (51) 
energy

$$$$
51:0
     RDKit          3D

 40 41  0  0  0  0  0  0  0  0999 V2000
   55.8230   24.3870   44.8850 C   0  0  0  0  0  0  0  0  0  0  0  0
   54.7790   25.2210   45.6230 C   0  0  0  0  0  0  0  0  0  0  0  0
   55.3230   26.4810   46.0160 O   0  0  0  0  0  0  0  0  0  0  0  0
   56.6660   26.6710   46.3720 C   0  0  0  0  0  0  0  0  0  0  0  0
   57.2600   25.8160   47.0860 O   0  0  0  0  0  0  0  0  0  0  0  0
   57.3640   27.8410   45.9070 N   0  0  0  0  0  0  0  0  0  0  0  0
   58.7560   28.0990   46.3020 C   0  0  0  0  0  0  0  0  0  0  0  0
   58.9610   29.5980   46.5840 C   0  0  0  0  0  0  0  0  0  0  0  0
   58.3200   30.4540   45.5700 N   0  0  0  0  0  0  0  0  0  0  0  0
   58.3720   31.8990   45.6730 C   0  0  0  0  0  0  0  0  0  0  0  0
   57.8310   32.6090   44.7830 O   0  0  0  0  0  0  0  0  0  0  0  0
   58.9990   32.6030   46.8500 C   0  0  0  0  0  0  0  0  0  0  0  0
   59.9250   34.0880   46.3180 S   0  0  0  0  0  0  0  0  0  0  0  0
   61.4650   33.5670   47.0780 C   0  0  0  0  0  0  0  0  0  0  0  0
   62.6030   33.3400   46.3850 N   0  0  0  0  0  0  0  0  0  0  0  0
   63.6100   32.9420   47.1640 N   0  0  0  0  0  0  0  0  0  0  0  0
   63.2860   32.8490   48.4730 C   0  0  0  0  0  0  0  0  0  0  0  0
   64.2100   32.3370   49.5230 C   0  0  0  0  0  0  0  0  0  0  0  0
   61.6690   33.2660   48.7240 S   0  0  0  0  0  0  0  0  0  0  0  0
   57.6430   29.8190   44.4280 C   0  0  0  0  0  0  0  0  0  0  0  0
   56.7010   28.7180   44.9290 C   0  0  0  0  0  0  0  0  0  0  0  0
   56.4655   23.8737   45.6156 H   0  0  0  0  0  0  0  0  0  0  0  0
   55.3173   23.6414   44.2538 H   0  0  0  0  0  0  0  0  0  0  0  0
   56.4385   25.0449   44.2538 H   0  0  0  0  0  0  0  0  0  0  0  0
   53.9182   25.3909   44.9595 H   0  0  0  0  0  0  0  0  0  0  0  0
   54.4649   24.6755   46.5251 H   0  0  0  0  0  0  0  0  0  0  0  0
   58.9883   27.5236   47.2103 H   0  0  0  0  0  0  0  0  0  0  0  0
   59.4234   27.7941   45.4824 H   0  0  0  0  0  0  0  0  0  0  0  0
   58.5308   29.8342   47.5685 H   0  0  0  0  0  0  0  0  0  0  0  0
   60.0421   29.7992   46.5573 H   0  0  0  0  0  0  0  0  0  0  0  0
   58.2066   32.9063   47.5501 H   0  0  0  0  0  0  0  0  0  0  0  0
   59.7021   31.9101   47.3354 H   0  0  0  0  0  0  0  0  0  0  0  0
   64.5540   32.7130   46.7810 H   0  0  0  0  0  0  0  0  0  0  0  0
   63.7980   32.5653   50.5170 H   0  0  0  0  0  0  0  0  0  0  0  0
   64.3219   31.2482   49.4137 H   0  0  0  0  0  0  0  0  0  0  0  0
   65.1925   32.8194   49.4137 H   0  0  0  0  0  0  0  0  0  0  0  0
   57.0617   30.5760   43.8812 H   0  0  0  0  0  0  0  0  0  0  0  0
   58.3963   29.3761   43.7599 H   0  0  0  0  0  0  0  0  0  0  0  0
   55.8263   29.1858   45.4045 H   0  0  0  0  0  0  0  0  0  0  0  0
   56.3990   28.1052   44.0669 H   0  0  0  0  0  0  0  0  0  0  0  0
  1  2  1  0
  2  3  1  0
  3  4  1  0
  4  5  2  0
  4  6  1  0
  6  7  1  0
  7  8  1  0
  8  9  1  0
  9 10  1  0
 10 11  2  0
 10 12  1  0
 12 13  1  0
 13 14  1  0
 14 15  2  0
 15 16  1  0
 16 17  2  0
 17 18  1  0
 17 19  1  0
  9 20  1  0
 20 21  1  0
 21  6  1  0
 19 14  1  0
  1 22  1  0
  1 23  1  0
  1 24  1  0
  2 25  1  0
  2 26  1  0
  7 27  1  0
  7 28  1  0
  8 29  1  0
  8 30  1  0
 12 31  1  0
 12 32  1  0
 16 33  1  0
 18 34  1  0
 18 35  1  0
 18 36  1  0
 20 37  1  0
 20 38  1  0
 21 39  1  0
 21 40  1  0
M  CHG  1  16   1
M  END
>  <UniqueID>  (52) 
51

>  <SMILES>  (52) 
CCOC(=O)N1CCN(C(=O)CSc2n[nH+]c(C)s2)CC1

>  <Energy>  (52) 
63.00222380596846

>  <Genealogy>  (52) 
CCOC(=O)N1CCN(C(=O)CSc2n[nH+]c(C)s2)CC1 (protonated)
CCOC(=O)N1CCN(C(=O)CSc2n[nH+]c(C)s2)CC1 (3D coordinates assigned)
CCOC(=O)N1CCN(C(=O)CSc2n[nH+]c(C)s2)CC1 (nonaromatic ring conformer: 63.00222380596846 kcal/mol)

>  <smiles>  (52) 
CCOC(=O)N1CCN(C(=O)CSc2nnc(C)s2)CC1

>  <score_type>  (52) 
oracle

>  <origin>  (52) 
adg

>  <m_score__min__energy>  (52) 
-6.1600000000000001

>  <m_primary>  (52) 
energy

$$$$
52:0
     RDKit          3D

 54 57  0  0  0  0  0  0  0  0999 V2000
   58.5450   30.1470   49.3730 C   0  0  0  0  0  0  0  0  0  0  0  0
   59.8520   29.3690   49.1200 C   0  0  1  0  0  0  0  0  0  0  0  0
   59.7000   28.3730   47.9950 C   0  0  0  0  0  0  0  0  0  0  0  0
   60.7650   27.6070   47.5190 C   0  0  0  0  0  0  0  0  0  0  0  0
   60.2130   26.6940   46.2170 S   0  0  0  0  0  0  0  0  0  0  0  0
   58.6570   27.3120   46.3170 C   0  0  0  0  0  0  0  0  0  0  0  0
   57.6990   26.9860   45.5020 N   0  0  0  0  0  0  0  0  0  0  0  0
   56.3200   27.3590   45.6440 C   0  0  0  0  0  0  0  0  0  0  0  0
   55.5160   26.5340   46.1480 O   0  0  0  0  0  0  0  0  0  0  0  0
   55.8270   28.6420   45.2290 N   0  0  0  0  0  0  0  0  0  0  0  0
   56.5600   29.6410   44.5050 C   0  0  0  0  0  0  0  0  0  0  0  0
   57.7080   30.1930   45.0890 C   0  0  0  0  0  0  0  0  0  0  0  0
   58.4470   31.1680   44.4120 C   0  0  0  0  0  0  0  0  0  0  0  0
   58.0510   31.5890   43.1400 C   0  0  0  0  0  0  0  0  0  0  0  0
   58.7660   32.5350   42.4850 F   0  0  0  0  0  0  0  0  0  0  0  0
   56.9210   31.0250   42.5390 C   0  0  0  0  0  0  0  0  0  0  0  0
   56.1830   30.0470   43.2130 C   0  0  0  0  0  0  0  0  0  0  0  0
   58.5330   28.2180   47.3110 N   0  0  0  0  0  0  0  0  0  0  0  0
   61.0240   30.2530   48.8870 N   0  0  0  0  0  0  0  0  0  0  0  0
   60.9830   31.0270   47.6100 C   0  0  0  0  0  0  0  0  0  0  0  0
   61.5880   32.4340   47.7180 C   0  0  0  0  0  0  0  0  0  0  0  0
   60.9920   33.1250   48.8600 N   0  0  0  0  0  0  0  0  0  0  0  0
   60.2300   34.3650   48.6800 C   0  0  0  0  0  0  0  0  0  0  0  0
   59.3640   34.2600   47.4530 C   0  0  0  0  0  0  0  0  0  0  0  0
   58.1710   33.5160   47.4900 C   0  0  0  0  0  0  0  0  0  0  0  0
   57.3430   33.4580   46.3640 C   0  0  0  0  0  0  0  0  0  0  0  0
   57.6970   34.1420   45.1990 C   0  0  0  0  0  0  0  0  0  0  0  0
   58.8710   34.8980   45.1600 C   0  0  0  0  0  0  0  0  0  0  0  0
   59.7020   34.9600   46.2840 C   0  0  0  0  0  0  0  0  0  0  0  0
   60.9690   32.4030   50.0960 C   0  0  0  0  0  0  0  0  0  0  0  0
   60.5690   32.9450   51.1620 O   0  0  0  0  0  0  0  0  0  0  0  0
   61.4620   30.9880   50.1020 C   0  0  0  0  0  0  0  0  0  0  0  0
   58.3804   30.2450   50.4562 H   0  0  0  0  0  0  0  0  0  0  0  0
   58.6205   31.1473   48.9216 H   0  0  0  0  0  0  0  0  0  0  0  0
   57.7017   29.6038   48.9216 H   0  0  0  0  0  0  0  0  0  0  0  0
   60.0532   28.8152   50.0489 H   0  0  0  0  0  0  0  0  0  0  0  0
   61.7876   27.6009   47.9243 H   0  0  0  0  0  0  0  0  0  0  0  0
   58.0297   29.8573   46.0859 H   0  0  0  0  0  0  0  0  0  0  0  0
   59.3412   31.6041   44.8814 H   0  0  0  0  0  0  0  0  0  0  0  0
   56.6124   31.3512   41.5348 H   0  0  0  0  0  0  0  0  0  0  0  0
   55.3044   29.5938   42.7306 H   0  0  0  0  0  0  0  0  0  0  0  0
   61.5427   30.4665   46.8467 H   0  0  0  0  0  0  0  0  0  0  0  0
   59.9226   31.1538   47.3463 H   0  0  0  0  0  0  0  0  0  0  0  0
   62.6760   32.3571   47.8609 H   0  0  0  0  0  0  0  0  0  0  0  0
   61.3826   32.9973   46.7958 H   0  0  0  0  0  0  0  0  0  0  0  0
   59.5944   34.5339   49.5618 H   0  0  0  0  0  0  0  0  0  0  0  0
   60.9291   35.2057   48.5593 H   0  0  0  0  0  0  0  0  0  0  0  0
   57.8883   32.9782   48.4070 H   0  0  0  0  0  0  0  0  0  0  0  0
   56.4120   32.8730   46.3962 H   0  0  0  0  0  0  0  0  0  0  0  0
   57.0505   34.0854   44.3109 H   0  0  0  0  0  0  0  0  0  0  0  0
   59.1424   35.4450   44.2450 H   0  0  0  0  0  0  0  0  0  0  0  0
   60.6237   35.5595   46.2515 H   0  0  0  0  0  0  0  0  0  0  0  0
   62.5613   30.9928   50.1399 H   0  0  0  0  0  0  0  0  0  0  0  0
   61.0418   30.4801   50.9826 H   0  0  0  0  0  0  0  0  0  0  0  0
  1  2  1  0
  2  3  1  0
  3  4  2  0
  4  5  1  0
  5  6  1  0
  6  7  2  3
  7  8  1  0
  8  9  2  0
  8 10  1  0
 10 11  1  0
 11 12  2  0
 12 13  1  0
 13 14  2  0
 14 15  1  0
 14 16  1  0
 16 17  2  0
  6 18  1  0
  2 19  1  0
 19 20  1  0
 20 21  1  0
 21 22  1  0
 22 23  1  0
 23 24  1  0
 24 25  2  0
 25 26  1  0
 26 27  2  0
 27 28  1  0
 28 29  2  0
 22 30  1  0
 30 31  2  0
 30 32  1  0
 18  3  1  0
 32 19  1  0
 17 11  1  0
 29 24  1  0
  1 33  1  0
  1 34  1  0
  1 35  1  0
  2 36  1  1
  4 37  1  0
 12 38  1  0
 13 39  1  0
 16 40  1  0
 17 41  1  0
 20 42  1  0
 20 43  1  0
 21 44  1  0
 21 45  1  0
 23 46  1  0
 23 47  1  0
 25 48  1  0
 26 49  1  0
 27 50  1  0
 28 51  1  0
 29 52  1  0
 32 53  1  0
 32 54  1  0
M  CHG  2  10  -1  18  -1
M  END
>  <UniqueID>  (53) 
52

>  <SMILES>  (53) 
C[C@@H](c1csc(=NC(=O)[N-]c2ccc(F)cc2)[n-]1)N1CCN(Cc2ccccc2)C(=O)C1

>  <Energy>  (53) 
98.72043347854647

>  <Genealogy>  (53) 
CC(c1csc(=NC(=O)[N-]c2ccc(F)cc2)[n-]1)N1CCN(Cc2ccccc2)C(=O)C1 (protonated)
C[C@@H](c1csc(=NC(=O)[N-]c2ccc(F)cc2)[n-]1)N1CCN(Cc2ccccc2)C(=O)C1 (chirality)
C[C@@H](c1csc(=NC(=O)[N-]c2ccc(F)cc2)[n-]1)N1CCN(Cc2ccccc2)C(=O)C1 (3D coordinates assigned)
C[C@@H](c1csc(=NC(=O)[N-]c2ccc(F)cc2)[n-]1)N1CCN(Cc2ccccc2)C(=O)C1 (nonaromatic ring conformer: 98.72043347854647 kcal/mol)

>  <smiles>  (53) 
CC(c1csc(=NC(=O)Nc2ccc(F)cc2)[nH]1)N1CCN(Cc2ccccc2)C(=O)C1

>  <score_type>  (53) 
oracle

>  <origin>  (53) 
adg

>  <m_score__min__energy>  (53) 
-12.5

>  <m_primary>  (53) 
energy

$$$$
53:0
     RDKit          3D

 41 42  0  0  0  0  0  0  0  0999 V2000
   57.4670   31.5370   43.5990 C   0  0  0  0  0  0  0  0  0  0  0  0
   57.0170   31.6800   44.9290 O   0  0  0  0  0  0  0  0  0  0  0  0
   57.0040   33.0450   45.3030 C   0  0  0  0  0  0  0  0  0  0  0  0
   58.4280   33.6030   45.3580 C   0  0  0  0  0  0  0  0  0  0  0  0
   58.8650   33.7260   46.7010 O   0  0  0  0  0  0  0  0  0  0  0  0
   58.2370   32.7730   47.5390 C   0  0  0  0  0  0  0  0  0  0  0  0
   59.2810   31.8770   48.1990 C   0  0  0  0  0  0  0  0  0  0  0  0
   59.9720   31.1360   47.1970 O   0  0  0  0  0  0  0  0  0  0  0  0
   59.4440   30.0220   46.5290 C   0  0  0  0  0  0  0  0  0  0  0  0
   58.5210   29.2170   47.2060 C   0  0  0  0  0  0  0  0  0  0  0  0
   57.9650   28.0950   46.5840 C   0  0  0  0  0  0  0  0  0  0  0  0
   58.3230   27.7640   45.2680 C   0  0  0  0  0  0  0  0  0  0  0  0
   57.7520   26.5360   44.6090 C   0  0  0  0  0  0  0  0  0  0  0  0
   57.2600   25.5540   45.6490 C   0  0  0  0  0  0  0  0  0  0  0  0
   55.9930   25.6990   46.2420 C   0  0  0  0  0  0  0  0  0  0  0  0
   55.1420   26.7300   45.8620 O   0  0  0  0  0  0  0  0  0  0  0  0
   55.5860   24.8230   47.1970 N   0  0  0  0  0  0  0  0  0  0  0  0
   56.3840   23.8030   47.6010 C   0  0  0  0  0  0  0  0  0  0  0  0
   55.9830   23.0040   48.4870 O   0  0  0  0  0  0  0  0  0  0  0  0
   57.6130   23.6430   47.0490 N   0  0  0  0  0  0  0  0  0  0  0  0
   58.0690   24.4890   46.0910 C   0  0  0  0  0  0  0  0  0  0  0  0
   59.2180   24.3070   45.6050 O   0  0  0  0  0  0  0  0  0  0  0  0
   59.2530   28.5660   44.5880 C   0  0  0  0  0  0  0  0  0  0  0  0
   59.8090   29.6880   45.2100 C   0  0  0  0  0  0  0  0  0  0  0  0
   58.5153   31.2039   43.6004 H   0  0  0  0  0  0  0  0  0  0  0  0
   56.8462   30.7919   43.0800 H   0  0  0  0  0  0  0  0  0  0  0  0
   57.3902   32.5038   43.0800 H   0  0  0  0  0  0  0  0  0  0  0  0
   56.4204   33.6161   44.5659 H   0  0  0  0  0  0  0  0  0  0  0  0
   56.5497   33.1346   46.3008 H   0  0  0  0  0  0  0  0  0  0  0  0
   59.1038   32.9227   44.8190 H   0  0  0  0  0  0  0  0  0  0  0  0
   58.4368   34.5984   44.8900 H   0  0  0  0  0  0  0  0  0  0  0  0
   57.6640   33.2969   48.3182 H   0  0  0  0  0  0  0  0  0  0  0  0
   57.5647   32.1501   46.9307 H   0  0  0  0  0  0  0  0  0  0  0  0
   59.9981   32.4981   48.7558 H   0  0  0  0  0  0  0  0  0  0  0  0
   58.7832   31.1821   48.8913 H   0  0  0  0  0  0  0  0  0  0  0  0
   58.2304   29.4691   48.2365 H   0  0  0  0  0  0  0  0  0  0  0  0
   57.2434   27.4686   47.1288 H   0  0  0  0  0  0  0  0  0  0  0  0
   56.9115   26.8300   43.9631 H   0  0  0  0  0  0  0  0  0  0  0  0
   58.5405   26.0548   44.0117 H   0  0  0  0  0  0  0  0  0  0  0  0
   59.5462   28.3101   43.5592 H   0  0  0  0  0  0  0  0  0  0  0  0
   60.5342   30.3123   44.6674 H   0  0  0  0  0  0  0  0  0  0  0  0
  1  2  1  0
  2  3  1  0
  3  4  1  0
  4  5  1  0
  5  6  1  0
  6  7  1  0
  7  8  1  0
  8  9  1  0
  9 10  2  0
 10 11  1  0
 11 12  2  0
 12 13  1  0
 13 14  1  0
 14 15  2  0
 15 16  1  0
 15 17  1  0
 17 18  1  0
 18 19  2  0
 18 20  1  0
 20 21  1  0
 21 22  2  0
 12 23  1  0
 23 24  2  0
 24  9  1  0
 21 14  1  0
  1 25  1  0
  1 26  1  0
  1 27  1  0
  3 28  1  0
  3 29  1  0
  4 30  1  0
  4 31  1  0
  6 32  1  0
  6 33  1  0
  7 34  1  0
  7 35  1  0
 10 36  1  0
 11 37  1  0
 13 38  1  0
 13 39  1  0
 23 40  1  0
 24 41  1  0
M  CHG  3  16  -1  17  -1  20  -1
M  END
>  <UniqueID>  (54) 
53

>  <SMILES>  (54) 
COCCOCCOc1ccc(Cc2c([O-])[n-]c(=O)[n-]c2=O)cc1

>  <Energy>  (54) 
43.83297243561076

>  <Genealogy>  (54) 
COCCOCCOc1ccc(Cc2c([O-])[n-]c(=O)[n-]c2=O)cc1 (protonated)
COCCOCCOc1ccc(Cc2c([O-])[n-]c(=O)[n-]c2=O)cc1 (3D coordinates assigned)
COCCOCCOc1ccc(Cc2c([O-])[n-]c(=O)[n-]c2=O)cc1 (optimized conformer: 43.83297243561076 kcal/mol)

>  <smiles>  (54) 
COCCOCCOc1ccc(Cc2c(O)[nH]c(=O)[nH]c2=O)cc1

>  <score_type>  (54) 
oracle

>  <origin>  (54) 
adg

>  <m_score__min__energy>  (54) 
-14.16

>  <m_primary>  (54) 
energy

$$$$
54:0
     RDKit          3D

 35 36  0  0  0  0  0  0  0  0999 V2000
   58.1013   30.3157   49.6253 H   0  0  0  0  0  0  0  0  0  0  0  0
   58.1740   31.3020   50.1070 C   0  0  0  0  0  0  0  0  0  0  0  0
   57.8650   31.3750   51.4180 C   0  0  0  0  0  0  0  0  0  0  0  0
   56.4790   31.2930   51.9360 C   0  0  0  0  0  0  0  0  0  0  0  0
   55.8870   32.3220   52.3650 O   0  0  0  0  0  0  0  0  0  0  0  0
   55.8460   30.0530   51.9980 O   0  0  0  0  0  0  0  0  0  0  0  0
   54.9620   29.7530   53.0110 N   0  0  0  0  0  0  0  0  0  0  0  0
   53.7220   29.4380   52.7900 C   0  0  0  0  0  0  0  0  0  0  0  0
   53.3038   28.5647   53.3120 H   0  0  0  0  0  0  0  0  0  0  0  0
   52.8430   30.1950   51.8710 C   0  0  0  0  0  0  0  0  0  0  0  0
   52.6150   29.7760   50.5470 C   0  0  0  0  0  0  0  0  0  0  0  0
   53.1094   28.8700   50.1666 H   0  0  0  0  0  0  0  0  0  0  0  0
   51.7630   30.5060   49.7130 C   0  0  0  0  0  0  0  0  0  0  0  0
   51.6011   30.1811   48.6746 H   0  0  0  0  0  0  0  0  0  0  0  0
   51.1160   31.6480   50.1950 C   0  0  0  0  0  0  0  0  0  0  0  0
   50.2720   32.3690   49.3580 O   0  0  0  0  0  0  0  0  0  0  0  0
   51.3160   32.0570   51.5180 C   0  0  0  0  0  0  0  0  0  0  0  0
   50.6670   33.1860   52.0060 O   0  0  0  0  0  0  0  0  0  0  0  0
   52.1690   31.3290   52.3550 C   0  0  0  0  0  0  0  0  0  0  0  0
   52.3128   31.6464   53.3983 H   0  0  0  0  0  0  0  0  0  0  0  0
   58.9770   31.5220   52.4210 C   0  0  0  0  0  0  0  0  0  0  0  0
   58.5626   31.4672   53.4385 H   0  0  0  0  0  0  0  0  0  0  0  0
   59.7083   30.7127   52.2789 H   0  0  0  0  0  0  0  0  0  0  0  0
   59.4729   32.4935   52.2789 H   0  0  0  0  0  0  0  0  0  0  0  0
   58.6020   32.4380   49.2650 C   0  0  0  0  0  0  0  0  0  0  0  0
   58.1920   32.5480   47.9240 C   0  0  0  0  0  0  0  0  0  0  0  0
   57.5101   31.7983   47.4964 H   0  0  0  0  0  0  0  0  0  0  0  0
   58.6480   33.6070   47.1320 C   0  0  0  0  0  0  0  0  0  0  0  0
   58.3106   33.6983   46.0890 H   0  0  0  0  0  0  0  0  0  0  0  0
   59.5320   34.5490   47.6650 C   0  0  0  0  0  0  0  0  0  0  0  0
   59.8855   35.3847   47.0431 H   0  0  0  0  0  0  0  0  0  0  0  0
   59.9670   34.4300   48.9870 C   0  0  0  0  0  0  0  0  0  0  0  0
   60.6678   35.1688   49.4029 H   0  0  0  0  0  0  0  0  0  0  0  0
   59.5130   33.3730   49.7830 C   0  0  0  0  0  0  0  0  0  0  0  0
   59.8708   33.2738   50.8184 H   0  0  0  0  0  0  0  0  0  0  0  0
  1  2  1  0
  2  3  2  3
  3  4  1  0
  4  5  2  0
  4  6  1  0
  6  7  1  0
  7  8  2  0
  8  9  1  0
  8 10  1  0
 10 11  2  0
 11 12  1  0
 11 13  1  0
 13 14  1  0
 13 15  2  0
 15 16  1  0
 15 17  1  0
 17 18  1  0
 17 19  2  0
 19 20  1  0
  3 21  1  0
 21 22  1  0
 21 23  1  0
 21 24  1  0
  2 25  1  0
 25 26  2  0
 26 27  1  0
 26 28  1  0
 28 29  1  0
 28 30  2  0
 30 31  1  0
 30 32  1  0
 32 33  1  0
 32 34  2  0
 34 35  1  0
 19 10  1  0
 34 25  1  0
M  CHG  2  16  -1  18  -1
M  END
>  <UniqueID>  (55) 
54

>  <SMILES>  (55) 
CC(=Cc1ccccc1)C(=O)O/N=C\c1ccc([O-])c([O-])c1

>  <Energy>  (55) 
45.85517300839893

>  <Genealogy>  (55) 
CC(=Cc1ccccc1)C(=O)ON=Cc1ccc([O-])c([O-])c1 (protonated)
CC(=Cc1ccccc1)C(=O)O/N=C\c1ccc([O-])c([O-])c1 (cis-trans isomerization)
CC(=Cc1ccccc1)C(=O)O/N=C\c1ccc([O-])c([O-])c1 (3D coordinates assigned)
CC(=Cc1ccccc1)C(=O)O/N=C\c1ccc([O-])c([O-])c1 (optimized conformer: 45.85517300839893 kcal/mol)

>  <smiles>  (55) 
CC(=Cc1ccccc1)C(=O)ON=Cc1ccc(O)c(O)c1

>  <score_type>  (55) 
oracle

>  <origin>  (55) 
adg

>  <m_score__min__energy>  (55) 
-15.98

>  <m_primary>  (55) 
energy

$$$$
55:0
     RDKit          3D

 45 47  0  0  0  0  0  0  0  0999 V2000
   60.0200   34.6750   49.8200 H   0  0  0  0  0  0  0  0  0  0  0  0
   60.8270   34.1580   50.1520 O   0  0  0  0  0  0  0  0  0  0  0  0
   61.8570   33.7810   49.2920 C   0  0  0  0  0  0  0  0  0  0  0  0
   63.1620   33.6330   49.7850 C   0  0  0  0  0  0  0  0  0  0  0  0
   63.3659   33.7970   50.8534 H   0  0  0  0  0  0  0  0  0  0  0  0
   64.2040   33.2780   48.9240 C   0  0  0  0  0  0  0  0  0  0  0  0
   65.2256   33.1631   49.3154 H   0  0  0  0  0  0  0  0  0  0  0  0
   63.9490   33.0690   47.5670 C   0  0  0  0  0  0  0  0  0  0  0  0
   64.7706   32.7923   46.8899 H   0  0  0  0  0  0  0  0  0  0  0  0
   62.6510   33.2110   47.0680 C   0  0  0  0  0  0  0  0  0  0  0  0
   62.4557   33.0467   45.9980 H   0  0  0  0  0  0  0  0  0  0  0  0
   61.5950   33.5620   47.9240 C   0  0  0  0  0  0  0  0  0  0  0  0
   60.2640   33.6950   47.3960 N   0  0  0  0  0  0  0  0  0  0  0  0
   59.1460   32.9820   48.0270 C   0  0  0  0  0  0  0  0  0  0  0  0
   58.6409   33.6620   48.7288 H   0  0  0  0  0  0  0  0  0  0  0  0
   59.5525   32.1039   48.5503 H   0  0  0  0  0  0  0  0  0  0  0  0
   58.1180   32.4860   46.9830 C   0  0  0  0  0  0  0  0  0  0  0  0
   57.1067   32.6791   47.3703 H   0  0  0  0  0  0  0  0  0  0  0  0
   58.3054   31.4134   46.8267 H   0  0  0  0  0  0  0  0  0  0  0  0
   58.2510   33.1500   45.6650 N   0  0  0  0  0  0  0  0  0  0  0  0
   57.0210   32.9680   44.8670 C   0  0  0  0  0  0  0  0  0  0  0  0
   56.9628   33.7634   44.1094 H   0  0  0  0  0  0  0  0  0  0  0  0
   56.1546   33.0154   45.5431 H   0  0  0  0  0  0  0  0  0  0  0  0
   57.0180   31.6260   44.1750 C   0  0  0  0  0  0  0  0  0  0  0  0
   57.6310   31.4980   43.0820 O   0  0  0  0  0  0  0  0  0  0  0  0
   56.3360   30.4800   44.7130 N   0  0  0  0  0  0  0  0  0  0  0  0
   56.8480   29.3450   45.0930 C   0  0  0  0  0  0  0  0  0  0  0  0
   56.0770   28.2340   45.2580 N   0  0  0  0  0  0  0  0  0  0  0  0
   56.5950   27.0480   45.6730 C   0  0  0  0  0  0  0  0  0  0  0  0
   55.9406   26.1701   45.7782 H   0  0  0  0  0  0  0  0  0  0  0  0
   57.9600   26.9410   45.9670 C   0  0  0  0  0  0  0  0  0  0  0  0
   58.5550   25.6310   46.3890 C   0  0  0  0  0  0  0  0  0  0  0  0
   58.5798   25.5764   47.4874 H   0  0  0  0  0  0  0  0  0  0  0  0
   57.9431   24.8064   45.9946 H   0  0  0  0  0  0  0  0  0  0  0  0
   59.5786   25.5492   45.9946 H   0  0  0  0  0  0  0  0  0  0  0  0
   58.7750   28.0680   45.7980 C   0  0  0  0  0  0  0  0  0  0  0  0
   59.8538   28.0021   46.0025 H   0  0  0  0  0  0  0  0  0  0  0  0
   58.2180   29.2750   45.3700 C   0  0  0  0  0  0  0  0  0  0  0  0
   58.8525   30.1657   45.2513 H   0  0  0  0  0  0  0  0  0  0  0  0
   58.5770   34.5790   45.8280 C   0  0  0  0  0  0  0  0  0  0  0  0
   57.8822   35.0383   46.5466 H   0  0  0  0  0  0  0  0  0  0  0  0
   58.4851   35.0987   44.8629 H   0  0  0  0  0  0  0  0  0  0  0  0
   60.0090   34.6940   46.3500 C   0  0  0  0  0  0  0  0  0  0  0  0
   60.1611   35.7003   46.7675 H   0  0  0  0  0  0  0  0  0  0  0  0
   60.7039   34.5168   45.5159 H   0  0  0  0  0  0  0  0  0  0  0  0
  1  2  1  0
  2  3  1  0
  3  4  2  0
  4  5  1  0
  4  6  1  0
  6  7  1  0
  6  8  2  0
  8  9  1  0
  8 10  1  0
 10 11  1  0
 10 12  2  0
 12 13  1  0
 13 14  1  0
 14 15  1  0
 14 16  1  0
 14 17  1  0
 17 18  1  0
 17 19  1  0
 17 20  1  0
 20 21  1  0
 21 22  1  0
 21 23  1  0
 21 24  1  0
 24 25  2  0
 24 26  1  0
 26 27  2  0
 27 28  1  0
 28 29  1  0
 29 30  1  0
 29 31  2  0
 31 32  1  0
 32 33  1  0
 32 34  1  0
 32 35  1  0
 31 36  1  0
 36 37  1  0
 36 38  2  0
 38 39  1  0
 20 40  1  0
 40 41  1  0
 40 42  1  0
 40 43  1  0
 43 44  1  0
 43 45  1  0
 12  3  1  0
 43 13  1  0
 38 27  1  0
M  CHG  1  28  -1
M  END
>  <UniqueID>  (56) 
55

>  <SMILES>  (56) 
Cc1cc/c(=N/C(=O)CN2CCN(c3ccccc3O)CC2)[n-]c1

>  <Energy>  (56) 
61.549463801633514

>  <Genealogy>  (56) 
Cc1ccc(=NC(=O)CN2CCN(c3ccccc3O)CC2)[n-]c1 (protonated)
Cc1cc/c(=N/C(=O)CN2CCN(c3ccccc3O)CC2)[n-]c1 (cis-trans isomerization)
Cc1cc/c(=N/C(=O)CN2CCN(c3ccccc3O)CC2)[n-]c1 (3D coordinates assigned)
Cc1cc/c(=N/C(=O)CN2CCN(c3ccccc3O)CC2)[n-]c1 (nonaromatic ring conformer: 61.549463801633514 kcal/mol)

>  <smiles>  (56) 
Cc1ccc(=NC(=O)CN2CCN(c3ccccc3O)CC2)[nH]c1

>  <score_type>  (56) 
oracle

>  <origin>  (56) 
adg

>  <m_score__min__energy>  (56) 
-10.16

>  <m_primary>  (56) 
energy

$$$$
56:0
     RDKit          3D

 52 55  0  0  0  0  0  0  0  0999 V2000
   59.7734   25.1102   47.0264 H   0  0  0  0  0  0  0  0  0  0  0  0
   58.9760   25.7590   46.6350 C   0  0  0  0  0  0  0  0  0  0  0  0
   59.2500   26.6540   45.5970 C   0  0  0  0  0  0  0  0  0  0  0  0
   60.2559   26.6895   45.1532 H   0  0  0  0  0  0  0  0  0  0  0  0
   58.2480   27.5030   45.1230 C   0  0  0  0  0  0  0  0  0  0  0  0
   58.4681   28.2119   44.3112 H   0  0  0  0  0  0  0  0  0  0  0  0
   56.9580   27.4540   45.6810 C   0  0  0  0  0  0  0  0  0  0  0  0
   55.9250   28.3470   45.2430 N   0  0  0  0  0  0  0  0  0  0  0  0
   56.1440   29.7050   44.8440 C   0  0  0  0  0  0  0  0  0  0  0  0
   55.1590   30.4140   44.5040 O   0  0  0  0  0  0  0  0  0  0  0  0
   57.4560   30.2830   44.8390 N   0  0  0  0  0  0  0  0  0  0  0  0
   57.8710   31.3520   45.6990 C   0  0  0  0  0  0  0  0  0  0  0  0
   57.5250   32.6860   45.4190 C   0  0  0  0  0  0  0  0  0  0  0  0
   56.9552   32.9259   44.5092 H   0  0  0  0  0  0  0  0  0  0  0  0
   57.9030   33.7060   46.2930 C   0  0  0  0  0  0  0  0  0  0  0  0
   57.6259   34.7477   46.0739 H   0  0  0  0  0  0  0  0  0  0  0  0
   58.6330   33.4060   47.4460 C   0  0  0  0  0  0  0  0  0  0  0  0
   58.9254   34.2134   48.1334 H   0  0  0  0  0  0  0  0  0  0  0  0
   58.9950   32.0820   47.7320 C   0  0  0  0  0  0  0  0  0  0  0  0
   59.7500   31.7540   48.9950 C   0  0  0  0  0  0  0  0  0  0  0  0
   60.6677   32.3591   49.0360 H   0  0  0  0  0  0  0  0  0  0  0  0
   60.0024   30.6834   48.9914 H   0  0  0  0  0  0  0  0  0  0  0  0
   58.9220   32.0460   50.1810 N   0  0  0  0  0  0  0  0  0  0  0  0
   59.1430   33.2210   50.8500 C   0  0  0  0  0  0  0  0  0  0  0  0
   59.9241   33.9096   50.4956 H   0  0  0  0  0  0  0  0  0  0  0  0
   58.3900   33.5540   51.9740 C   0  0  0  0  0  0  0  0  0  0  0  0
   58.5835   34.4942   52.5112 H   0  0  0  0  0  0  0  0  0  0  0  0
   57.3910   32.6890   52.4130 C   0  0  0  0  0  0  0  0  0  0  0  0
   56.7947   32.9454   53.3011 H   0  0  0  0  0  0  0  0  0  0  0  0
   57.1430   31.4920   51.7260 C   0  0  0  0  0  0  0  0  0  0  0  0
   56.0940   30.5700   52.2320 C   0  0  0  0  0  0  0  0  0  0  0  0
   56.2570   29.3280   52.1030 O   0  0  0  0  0  0  0  0  0  0  0  0
   54.8720   31.0420   52.8210 N   0  0  0  0  0  0  0  0  0  0  0  0
   53.6970   31.0250   52.2580 C   0  0  0  0  0  0  0  0  0  0  0  0
   53.1460   32.0870   51.6260 N   0  0  0  0  0  0  0  0  0  0  0  0
   51.9550   31.6080   51.2190 C   0  0  0  0  0  0  0  0  0  0  0  0
   51.0230   32.3550   50.5160 O   0  0  0  0  0  0  0  0  0  0  0  0
   51.7930   30.2950   51.5970 C   0  0  0  0  0  0  0  0  0  0  0  0
   50.9228   29.6572   51.3829 H   0  0  0  0  0  0  0  0  0  0  0  0
   52.8950   29.9370   52.2760 N   0  0  0  0  0  0  0  0  0  0  0  0
   53.1980   28.6130   52.8110 C   0  0  0  0  0  0  0  0  0  0  0  0
   53.1893   28.6510   53.9103 H   0  0  0  0  0  0  0  0  0  0  0  0
   52.4410   27.8948   52.4629 H   0  0  0  0  0  0  0  0  0  0  0  0
   54.1920   28.2956   52.4629 H   0  0  0  0  0  0  0  0  0  0  0  0
   57.9450   31.1740   50.6050 C   0  0  0  0  0  0  0  0  0  0  0  0
   57.7740   30.0750   50.0080 O   0  0  0  0  0  0  0  0  0  0  0  0
   58.6270   31.0610   46.8400 C   0  0  0  0  0  0  0  0  0  0  0  0
   58.9357   30.0243   47.0401 H   0  0  0  0  0  0  0  0  0  0  0  0
   56.6770   26.5230   46.6900 C   0  0  0  0  0  0  0  0  0  0  0  0
   55.6592   26.4486   47.1006 H   0  0  0  0  0  0  0  0  0  0  0  0
   57.6890   25.6880   47.1760 C   0  0  0  0  0  0  0  0  0  0  0  0
   57.4716   24.9748   47.9848 H   0  0  0  0  0  0  0  0  0  0  0  0
  1  2  1  0
  2  3  2  0
  3  4  1  0
  3  5  1  0
  5  6  1  0
  5  7  2  0
  7  8  1  0
  8  9  1  0
  9 10  2  0
  9 11  1  0
 11 12  1  0
 12 13  2  0
 13 14  1  0
 13 15  1  0
 15 16  1  0
 15 17  2  0
 17 18  1  0
 17 19  1  0
 19 20  1  0
 20 21  1  0
 20 22  1  0
 20 23  1  0
 23 24  1  0
 24 25  1  0
 24 26  2  0
 26 27  1  0
 26 28  1  0
 28 29  1  0
 28 30  2  0
 30 31  1  0
 31 32  2  0
 31 33  1  0
 33 34  2  0
 34 35  1  0
 35 36  1  0
 36 37  1  0
 36 38  2  0
 38 39  1  0
 38 40  1  0
 40 41  1  0
 41 42  1  0
 41 43  1  0
 41 44  1  0
 30 45  1  0
 45 46  2  0
 19 47  2  0
 47 48  1  0
  7 49  1  0
 49 50  1  0
 49 51  2  0
 51 52  1  0
 51  2  1  0
 47 12  1  0
 45 23  1  0
 40 34  1  0
M  CHG  4   8  -1  11  -1  35  -1  37  -1
M  END
>  <UniqueID>  (57) 
56

>  <SMILES>  (57) 
Cn1cc([O-])[n-]/c1=N\C(=O)c1cccn(Cc2cccc([N-]C(=O)[N-]c3ccccc3)c2)c1=O

>  <Energy>  (57) 
102.11101033317173

>  <Genealogy>  (57) 
Cn1cc([O-])[n-]c1=NC(=O)c1cccn(Cc2cccc([N-]C(=O)[N-]c3ccccc3)c2)c1=O (protonated)
Cn1cc([O-])[n-]/c1=N\C(=O)c1cccn(Cc2cccc([N-]C(=O)[N-]c3ccccc3)c2)c1=O (cis-trans isomerization)
Cn1cc([O-])[n-]/c1=N\C(=O)c1cccn(Cc2cccc([N-]C(=O)[N-]c3ccccc3)c2)c1=O (3D coordinates assigned)
Cn1cc([O-])[n-]/c1=N\C(=O)c1cccn(Cc2cccc([N-]C(=O)[N-]c3ccccc3)c2)c1=O (optimized conformer: 102.11101033317173 kcal/mol)

>  <smiles>  (57) 
Cn1cc(O)[nH]c1=NC(=O)c1cccn(Cc2cccc(NC(=O)Nc3ccccc3)c2)c1=O

>  <score_type>  (57) 
oracle

>  <origin>  (57) 
adg

>  <m_score__min__energy>  (57) 
-18.559999999999999

>  <m_primary>  (57) 
energy

$$$$
57:0
     RDKit          3D

 29 30  0  0  0  0  0  0  0  0999 V2000
   57.7200   22.9990   44.5080 C   0  0  0  0  0  0  0  0  0  0  0  0
   56.6030   23.8190   45.0720 C   0  0  0  0  0  0  0  0  0  0  0  0
   55.3060   23.6290   44.7810 N   0  0  0  0  0  0  0  0  0  0  0  0
   54.6500   24.5030   45.5640 C   0  0  0  0  0  0  0  0  0  0  0  0
   53.3960   24.6150   45.5680 O   0  0  0  0  0  0  0  0  0  0  0  0
   55.4550   25.2410   46.3560 N   0  0  0  0  0  0  0  0  0  0  0  0
   56.6930   24.8080   46.0370 C   0  0  0  0  0  0  0  0  0  0  0  0
   57.9360   25.2860   46.7260 C   0  0  0  0  0  0  0  0  0  0  0  0
   58.3990   26.5870   46.1280 C   0  0  0  0  0  0  0  0  0  0  0  0
   59.7620   26.9240   46.1200 C   0  0  0  0  0  0  0  0  0  0  0  0
   60.1830   28.1480   45.5930 C   0  0  0  0  0  0  0  0  0  0  0  0
   59.2470   29.0450   45.0730 C   0  0  0  0  0  0  0  0  0  0  0  0
   57.8840   28.7210   45.0720 C   0  0  0  0  0  0  0  0  0  0  0  0
   56.7010   29.8600   44.4370 S   0  0  0  0  0  0  0  0  0  0  0  0
   55.1130   29.3390   44.8730 N   0  0  0  0  0  0  0  0  0  0  0  0
   56.9550   31.2280   45.0040 O   0  0  0  0  0  0  0  0  0  0  0  0
   56.8160   29.9290   42.9400 O   0  0  0  0  0  0  0  0  0  0  0  0
   57.4630   27.4950   45.6070 C   0  0  0  0  0  0  0  0  0  0  0  0
   58.3089   22.5667   45.3303 H   0  0  0  0  0  0  0  0  0  0  0  0
   57.3047   22.1897   43.8895 H   0  0  0  0  0  0  0  0  0  0  0  0
   58.3677   23.6377   43.8895 H   0  0  0  0  0  0  0  0  0  0  0  0
   54.8950   22.9410   44.1090 H   0  0  0  0  0  0  0  0  0  0  0  0
   57.7240   25.4335   47.7952 H   0  0  0  0  0  0  0  0  0  0  0  0
   58.7273   24.5326   46.5984 H   0  0  0  0  0  0  0  0  0  0  0  0
   60.5020   26.2212   46.5305 H   0  0  0  0  0  0  0  0  0  0  0  0
   61.2525   28.4053   45.5877 H   0  0  0  0  0  0  0  0  0  0  0  0
   59.5813   30.0093   44.6628 H   0  0  0  0  0  0  0  0  0  0  0  0
   55.2210   28.6360   45.6370 H   0  0  0  0  0  0  0  0  0  0  0  0
   56.3923   27.2429   45.6186 H   0  0  0  0  0  0  0  0  0  0  0  0
  1  2  1  0
  2  3  1  0
  3  4  1  0
  4  5  2  0
  4  6  1  0
  6  7  1  0
  7  8  1  0
  8  9  1  0
  9 10  2  0
 10 11  1  0
 11 12  2  0
 12 13  1  0
 13 14  1  0
 14 15  1  0
 14 16  2  0
 14 17  2  0
 13 18  2  0
  7  2  2  0
 18  9  1  0
  1 19  1  0
  1 20  1  0
  1 21  1  0
  3 22  1  0
  8 23  1  0
  8 24  1  0
 10 25  1  0
 11 26  1  0
 12 27  1  0
 15 28  1  0
 18 29  1  0
M  CHG  2   6  -1  15  -1
M  END
>  <UniqueID>  (58) 
57

>  <SMILES>  (58) 
Cc1[nH]c(=O)[n-]c1Cc1cccc(S([NH-])(=O)=O)c1

>  <Energy>  (58) 
55.45691366144036

>  <Genealogy>  (58) 
Cc1[nH]c(=O)[n-]c1Cc1cccc(S([NH-])(=O)=O)c1 (protonated)
Cc1[nH]c(=O)[n-]c1Cc1cccc(S([NH-])(=O)=O)c1 (3D coordinates assigned)
Cc1[nH]c(=O)[n-]c1Cc1cccc(S([NH-])(=O)=O)c1 (optimized conformer: 55.45691366144036 kcal/mol)

>  <smiles>  (58) 
Cc1[nH]c(=O)[nH]c1Cc1cccc(S(N)(=O)=O)c1

>  <score_type>  (58) 
oracle

>  <origin>  (58) 
adg

>  <m_score__min__energy>  (58) 
-11.65

>  <m_primary>  (58) 
energy

$$$$
58:0
     RDKit          3D

 47 50  0  0  0  0  0  0  0  0999 V2000
   55.5120   30.2990   44.1140 C   0  0  0  0  0  0  0  0  0  0  0  0
   56.5010   29.7090   44.7860 C   0  0  0  0  0  0  0  0  0  0  0  0
   56.6320   28.3720   44.8890 N   0  0  0  0  0  0  0  0  0  0  0  0
   57.7520   28.1470   45.6140 C   0  0  0  0  0  0  0  0  0  0  0  0
   58.2200   26.9400   45.9670 C   0  0  0  0  0  0  0  0  0  0  0  0
   57.3810   25.8560   46.5070 C   0  0  0  0  0  0  0  0  0  0  0  0
   57.8850   24.7100   46.9970 N   0  0  0  0  0  0  0  0  0  0  0  0
   56.7850   23.9840   47.2900 C   0  0  0  0  0  0  0  0  0  0  0  0
   56.8470   22.8310   47.7920 O   0  0  0  0  0  0  0  0  0  0  0  0
   55.6130   24.5850   46.9930 N   0  0  0  0  0  0  0  0  0  0  0  0
   56.0080   25.7630   46.4860 C   0  0  0  0  0  0  0  0  0  0  0  0
   55.1300   26.7110   45.9740 O   0  0  0  0  0  0  0  0  0  0  0  0
   58.3330   29.3470   45.9890 C   0  0  0  0  0  0  0  0  0  0  0  0
   57.5340   30.3430   45.4620 C   0  0  0  0  0  0  0  0  0  0  0  0
   57.7790   31.7930   45.6120 C   0  0  0  0  0  0  0  0  0  0  0  0
   57.0580   32.5790   44.9400 O   0  0  0  0  0  0  0  0  0  0  0  0
   58.8660   32.3340   46.4130 N   0  0  0  0  0  0  0  0  0  0  0  0
   59.1290   33.7400   46.0210 C   0  0  0  0  0  0  0  0  0  0  0  0
   60.0280   34.4780   47.0360 C   0  0  0  0  0  0  0  0  0  0  0  0
   60.7970   33.5110   47.8390 N   0  0  0  0  0  0  0  0  0  0  0  0
   61.7880   34.2130   48.6780 C   0  0  0  0  0  0  0  0  0  0  0  0
   63.2160   33.8920   48.2110 C   0  0  0  0  0  0  0  0  0  0  0  0
   63.3720   32.5180   47.5750 C   0  0  0  0  0  0  0  0  0  0  0  0
   63.4200   33.7670   46.7080 C   0  0  0  0  0  0  0  0  0  0  0  0
   59.8810   32.6910   48.6640 C   0  0  0  0  0  0  0  0  0  0  0  0
   58.6380   32.2280   47.8700 C   0  0  0  0  0  0  0  0  0  0  0  0
   55.4582   31.3966   44.0656 H   0  0  0  0  0  0  0  0  0  0  0  0
   54.7499   29.6881   43.6080 H   0  0  0  0  0  0  0  0  0  0  0  0
   55.9650   27.6610   44.5120 H   0  0  0  0  0  0  0  0  0  0  0  0
   59.2963   26.7481   45.8457 H   0  0  0  0  0  0  0  0  0  0  0  0
   59.2470   29.4802   46.5864 H   0  0  0  0  0  0  0  0  0  0  0  0
   59.7140   31.7630   46.1800 H   0  0  0  0  0  0  0  0  0  0  0  0
   59.6263   33.7456   45.0398 H   0  0  0  0  0  0  0  0  0  0  0  0
   58.1625   34.2642   45.9873 H   0  0  0  0  0  0  0  0  0  0  0  0
   60.7247   35.1338   46.4933 H   0  0  0  0  0  0  0  0  0  0  0  0
   59.3930   35.0745   47.7075 H   0  0  0  0  0  0  0  0  0  0  0  0
   61.6193   35.2976   48.6059 H   0  0  0  0  0  0  0  0  0  0  0  0
   61.6717   33.8783   49.7194 H   0  0  0  0  0  0  0  0  0  0  0  0
   63.7191   34.4553   49.0107 H   0  0  0  0  0  0  0  0  0  0  0  0
   64.2873   31.9328   47.7476 H   0  0  0  0  0  0  0  0  0  0  0  0
   62.7799   31.5909   47.5713 H   0  0  0  0  0  0  0  0  0  0  0  0
   64.3700   34.0849   46.2536 H   0  0  0  0  0  0  0  0  0  0  0  0
   62.8770   34.1170   45.8177 H   0  0  0  0  0  0  0  0  0  0  0  0
   60.4242   31.8036   49.0212 H   0  0  0  0  0  0  0  0  0  0  0  0
   59.5342   33.3121   49.5030 H   0  0  0  0  0  0  0  0  0  0  0  0
   58.4195   31.1803   48.1240 H   0  0  0  0  0  0  0  0  0  0  0  0
   57.7909   32.8763   48.1387 H   0  0  0  0  0  0  0  0  0  0  0  0
  1  2  2  0
  2  3  1  0
  3  4  1  0
  4  5  2  3
  5  6  1  0
  6  7  1  0
  7  8  1  0
  8  9  2  0
  8 10  1  0
 10 11  1  0
 11 12  1  0
  4 13  1  0
 13 14  2  0
 14 15  1  0
 15 16  2  0
 15 17  1  0
 17 18  1  0
 18 19  1  0
 19 20  1  0
 20 21  1  0
 21 22  1  0
 22 23  1  0
 23 24  1  0
 20 25  1  0
 25 26  1  0
 14  2  1  0
 26 17  1  0
 11  6  2  0
 24 22  1  0
  1 27  1  0
  1 28  1  0
  3 29  1  0
  5 30  1  0
 13 31  1  0
 17 32  1  0
 18 33  1  0
 18 34  1  0
 19 35  1  0
 19 36  1  0
 21 37  1  0
 21 38  1  0
 22 39  1  0
 23 40  1  0
 23 41  1  0
 24 42  1  0
 24 43  1  0
 25 44  1  0
 25 45  1  0
 26 46  1  0
 26 47  1  0
M  CHG  4   7  -1  10  -1  12  -1  17   1
M  END
>  <UniqueID>  (59) 
58

>  <SMILES>  (59) 
C=c1[nH]c(=Cc2[n-]c(=O)[n-]c2[O-])cc1C(=O)[NH+]1CCN(CC2CC2)CC1

>  <Energy>  (59) 
393.8098263455442

>  <Genealogy>  (59) 
C=c1[nH]c(=Cc2[n-]c(=O)[n-]c2[O-])cc1C(=O)[NH+]1CCN(CC2CC2)CC1 (protonated)
C=c1[nH]c(=Cc2[n-]c(=O)[n-]c2[O-])cc1C(=O)[NH+]1CCN(CC2CC2)CC1 (3D coordinates assigned)
C=c1[nH]c(=Cc2[n-]c(=O)[n-]c2[O-])cc1C(=O)[NH+]1CCN(CC2CC2)CC1 (nonaromatic ring conformer: 393.8098263455442 kcal/mol)

>  <smiles>  (59) 
C=c1[nH]c(=Cc2[nH]c(=O)[nH]c2O)cc1C(=O)N1CCN(CC2CC2)CC1

>  <score_type>  (59) 
oracle

>  <origin>  (59) 
adg

>  <m_score__min__energy>  (59) 
-16.420000000000002

>  <m_primary>  (59) 
energy

$$$$
59:0
     RDKit          3D

 62 66  0  0  1  0  0  0  0  0999 V2000
   56.4220   26.9790   45.6280 O   0  0  0  0  0  0  0  0  0  0  0  0
   57.6670   26.7620   45.7570 C   0  0  0  0  0  0  0  0  0  0  0  0
   58.2520   25.4780   45.6040 N   0  0  0  0  0  0  0  0  0  0  0  0
   57.7730   24.6700   44.7380 C   0  0  0  0  0  0  0  0  0  0  0  0
   58.0100   23.3280   44.7960 N   0  0  0  0  0  0  0  0  0  0  0  0
   57.3790   22.7260   43.7520 C   0  0  0  0  0  0  0  0  0  0  0  0
   56.7510   23.7100   43.0510 N   0  0  0  0  0  0  0  0  0  0  0  0
   57.0070   24.8630   43.6680 N   0  0  0  0  0  0  0  0  0  0  0  0
   58.4780   27.9400   46.0770 C   0  0  0  0  0  0  0  0  0  0  0  0
   59.5350   28.2810   45.2620 C   0  0  0  0  0  0  0  0  0  0  0  0
   60.3000   29.4010   45.5630 C   0  0  0  0  0  0  0  0  0  0  0  0
   60.0810   30.2110   46.6330 C   0  0  0  0  0  0  0  0  0  0  0  0
   60.8610   31.3940   47.0330 C   0  0  0  0  0  0  0  0  0  0  0  0
   60.5860   31.9010   48.3400 N   0  0  0  0  0  0  0  0  0  0  0  0
   59.8250   33.0030   48.5780 C   0  0  0  0  0  0  0  0  0  0  0  0
   59.3290   33.8650   47.5920 N   0  0  0  0  0  0  0  0  0  0  0  0
   60.0260   34.7780   46.7410 C   0  0  0  0  0  0  0  0  0  0  0  0
   59.9550   34.2640   45.3110 C   0  0  0  0  0  0  0  0  0  0  0  0
   58.7700   33.5220   45.1310 N   0  0  0  0  0  0  0  0  0  0  0  0
   58.5130   33.0910   43.8010 C   0  0  0  0  0  0  0  0  0  0  0  0
   57.7300   31.8650   43.6460 C   0  0  0  0  0  0  0  0  0  0  0  0
   57.3310   31.3880   42.4170 C   0  0  0  0  0  0  0  0  0  0  0  0
   56.5800   30.2150   42.2980 C   0  0  0  0  0  0  0  0  0  0  0  0
   56.2190   29.5000   43.4340 C   0  0  0  0  0  0  0  0  0  0  0  0
   56.6360   30.0070   44.6400 C   0  0  0  0  0  0  0  0  0  0  0  0
   57.3710   31.1540   44.7910 C   0  0  0  0  0  0  0  0  0  0  0  0
   57.6290   33.8210   45.9100 C   0  0  0  0  0  0  0  0  0  0  0  0
   57.8560   33.8180   47.3990 C   0  0  0  0  0  0  0  0  0  0  0  0
   59.5810   33.3440   49.9110 C   0  0  0  0  0  0  0  0  0  0  0  0
   60.0800   32.6130   50.9630 C   0  0  0  0  0  0  0  0  0  0  0  0
   59.8270   32.9710   52.1390 O   0  0  0  0  0  0  0  0  0  0  0  0
   60.8370   31.5220   50.6730 N   0  0  0  0  0  0  0  0  0  0  0  0
   61.0690   31.1940   49.3950 C   0  0  0  0  0  0  0  0  0  0  0  0
   61.7870   30.1550   49.1930 O   0  0  0  0  0  0  0  0  0  0  0  0
   59.0000   29.8570   47.4610 C   0  0  0  0  0  0  0  0  0  0  0  0
   58.2270   28.7450   47.1770 C   0  0  0  0  0  0  0  0  0  0  0  0
   57.3766   21.6510   43.5189 H   0  0  0  0  0  0  0  0  0  0  0  0
   56.1810   23.5630   42.2000 H   0  0  0  0  0  0  0  0  0  0  0  0
   56.6670   25.8170   43.3740 H   0  0  0  0  0  0  0  0  0  0  0  0
   59.7719   27.6703   44.3783 H   0  0  0  0  0  0  0  0  0  0  0  0
   61.1364   29.6483   44.8928 H   0  0  0  0  0  0  0  0  0  0  0  0
   61.9272   31.1266   46.9910 H   0  0  0  0  0  0  0  0  0  0  0  0
   60.5755   32.1936   46.3336 H   0  0  0  0  0  0  0  0  0  0  0  0
   59.5571   35.7712   46.8009 H   0  0  0  0  0  0  0  0  0  0  0  0
   61.0762   34.8585   47.0583 H   0  0  0  0  0  0  0  0  0  0  0  0
   59.9620   35.1161   44.6154 H   0  0  0  0  0  0  0  0  0  0  0  0
   60.8229   33.6180   45.1126 H   0  0  0  0  0  0  0  0  0  0  0  0
   57.9714   33.8992   43.2878 H   0  0  0  0  0  0  0  0  0  0  0  0
   59.5010   32.8578   43.3774 H   0  0  0  0  0  0  0  0  0  0  0  0
   57.6096   31.9425   41.5088 H   0  0  0  0  0  0  0  0  0  0  0  0
   56.2742   29.8572   41.3038 H   0  0  0  0  0  0  0  0  0  0  0  0
   55.6286   28.5741   43.3700 H   0  0  0  0  0  0  0  0  0  0  0  0
   56.3606   29.4532   45.5497 H   0  0  0  0  0  0  0  0  0  0  0  0
   57.6701   31.5048   45.7897 H   0  0  0  0  0  0  0  0  0  0  0  0
   57.2712   34.8203   45.6214 H   0  0  0  0  0  0  0  0  0  0  0  0
   56.9011   33.0213   45.7085 H   0  0  0  0  0  0  0  0  0  0  0  0
   57.3825   34.6979   47.8590 H   0  0  0  0  0  0  0  0  0  0  0  0
   57.4174   32.9261   47.8704 H   0  0  0  0  0  0  0  0  0  0  0  0
   58.9666   34.2306   50.1267 H   0  0  0  0  0  0  0  0  0  0  0  0
   61.2150   30.9660   51.4880 H   0  0  0  0  0  0  0  0  0  0  0  0
   58.7668   30.4708   48.3436 H   0  0  0  0  0  0  0  0  0  0  0  0
   57.3891   28.4926   47.8435 H   0  0  0  0  0  0  0  0  0  0  0  0
  1  2  2  0
  2  3  1  0
  3  4  2  0
  4  5  1  0
  5  6  2  0
  6  7  1  0
  7  8  1  0
  2  9  1  0
  9 10  2  0
 10 11  1  0
 11 12  2  0
 12 13  1  0
 13 14  1  0
 14 15  1  0
 15 16  1  0
 16 17  1  0
 17 18  1  0
 18 19  1  0
 19 20  1  0
 20 21  1  0
 21 22  2  0
 22 23  1  0
 23 24  2  0
 24 25  1  0
 25 26  2  0
 19 27  1  0
 27 28  1  0
 15 29  2  0
 29 30  1  0
 30 31  2  0
 30 32  1  0
 32 33  1  0
 33 34  2  0
 12 35  1  0
 35 36  2  0
  8  4  1  0
 36  9  1  0
 33 14  1  0
 28 16  1  0
 26 21  1  0
  6 37  1  0
  7 38  1  0
  8 39  1  0
 10 40  1  0
 11 41  1  0
 13 42  1  0
 13 43  1  0
 17 44  1  0
 17 45  1  0
 18 46  1  0
 18 47  1  0
 20 48  1  0
 20 49  1  0
 22 50  1  0
 23 51  1  0
 24 52  1  0
 25 53  1  0
 26 54  1  0
 27 55  1  0
 27 56  1  0
 28 57  1  0
 28 58  1  0
 29 59  1  0
 32 60  1  0
 35 61  1  0
 36 62  1  0
M  END
>  <smiles>  (60) 
O=C(N=c1nc[nH][nH]1)c1ccc(Cn2c(N3CCN(Cc4ccccc4)CC3)cc(=O)[nH]c2=O)cc1

>  <score_type>  (60) 
oracle

>  <origin>  (60) 
adg

>  <m_score__min__energy>  (60) 
-9.7300000000000004

>  <m_primary>  (60) 
energy

$$$$
60:0
     RDKit          3D

 43 45  0  0  0  0  0  0  0  0999 V2000
   56.9770   30.2670   42.6290 C   0  0  0  0  0  0  0  0  0  0  0  0
   56.6190   30.5160   44.3560 S   0  0  0  0  0  0  0  0  0  0  0  0
   56.9160   29.2270   45.0680 O   0  0  0  0  0  0  0  0  0  0  0  0
   55.1620   30.8450   44.5070 O   0  0  0  0  0  0  0  0  0  0  0  0
   57.5980   31.8240   45.0460 C   0  0  0  0  0  0  0  0  0  0  0  0
   57.1650   33.1540   44.9150 C   0  0  0  0  0  0  0  0  0  0  0  0
   57.9220   34.2040   45.4400 C   0  0  0  0  0  0  0  0  0  0  0  0
   59.1170   33.9390   46.1070 C   0  0  0  0  0  0  0  0  0  0  0  0
   59.5550   32.6220   46.2590 C   0  0  0  0  0  0  0  0  0  0  0  0
   58.8040   31.5580   45.7380 C   0  0  0  0  0  0  0  0  0  0  0  0
   59.2670   30.2160   45.9410 N   0  0  0  0  0  0  0  0  0  0  0  0
   59.9010   29.5110   44.8120 C   0  0  0  0  0  0  0  0  0  0  0  0
   60.5530   28.1860   45.2360 C   0  0  0  0  0  0  0  0  0  0  0  0
   59.6840   27.4600   46.1660 N   0  0  0  0  0  0  0  0  0  0  0  0
   59.5550   26.0290   46.0590 C   0  0  0  0  0  0  0  0  0  0  0  0
   60.5920   25.3130   46.1240 O   0  0  0  0  0  0  0  0  0  0  0  0
   58.1990   25.3720   45.9010 C   0  0  1  0  0  0  0  0  0  0  0  0
   57.6420   24.8220   47.2340 C   0  0  0  0  0  0  0  0  0  0  0  0
   56.2030   24.9950   47.1710 N   0  0  0  0  0  0  0  0  0  0  0  0
   55.9130   25.8800   46.1100 C   0  0  0  0  0  0  0  0  0  0  0  0
   54.7420   26.2610   45.8470 O   0  0  0  0  0  0  0  0  0  0  0  0
   57.1080   26.3220   45.3660 C   0  0  0  0  0  0  0  0  0  0  0  0
   59.1520   28.1950   47.2810 C   0  0  0  0  0  0  0  0  0  0  0  0
   58.6300   27.6030   48.2640 O   0  0  0  0  0  0  0  0  0  0  0  0
   59.3050   29.6820   47.3080 C   0  0  0  0  0  0  0  0  0  0  0  0
   57.8762   29.6416   42.5274 H   0  0  0  0  0  0  0  0  0  0  0  0
   56.1251   29.7655   42.1465 H   0  0  0  0  0  0  0  0  0  0  0  0
   57.1508   31.2402   42.1465 H   0  0  0  0  0  0  0  0  0  0  0  0
   56.2207   33.3706   44.3940 H   0  0  0  0  0  0  0  0  0  0  0  0
   57.5746   35.2416   45.3269 H   0  0  0  0  0  0  0  0  0  0  0  0
   59.7151   34.7677   46.5137 H   0  0  0  0  0  0  0  0  0  0  0  0
   60.4957   32.4174   46.7911 H   0  0  0  0  0  0  0  0  0  0  0  0
   59.1336   29.2993   44.0528 H   0  0  0  0  0  0  0  0  0  0  0  0
   60.6944   30.1616   44.4154 H   0  0  0  0  0  0  0  0  0  0  0  0
   60.7262   27.5662   44.3439 H   0  0  0  0  0  0  0  0  0  0  0  0
   61.5072   28.4041   45.7379 H   0  0  0  0  0  0  0  0  0  0  0  0
   58.3997   24.5654   45.1805 H   0  0  0  0  0  0  0  0  0  0  0  0
   57.8940   23.7568   47.3424 H   0  0  0  0  0  0  0  0  0  0  0  0
   58.0727   25.3499   48.0976 H   0  0  0  0  0  0  0  0  0  0  0  0
   56.9699   26.1994   44.2816 H   0  0  0  0  0  0  0  0  0  0  0  0
   57.3446   27.3871   45.5057 H   0  0  0  0  0  0  0  0  0  0  0  0
   58.4845   30.1220   47.8938 H   0  0  0  0  0  0  0  0  0  0  0  0
   60.2709   29.9371   47.7684 H   0  0  0  0  0  0  0  0  0  0  0  0
  1  2  1  0
  2  3  2  0
  2  4  2  0
  2  5  1  0
  5  6  2  0
  6  7  1  0
  7  8  2  0
  8  9  1  0
  9 10  2  0
 10 11  1  0
 11 12  1  0
 12 13  1  0
 13 14  1  0
 14 15  1  0
 15 16  2  0
 15 17  1  0
 17 18  1  0
 18 19  1  0
 19 20  1  0
 20 21  2  0
 20 22  1  0
 14 23  1  0
 23 24  2  0
 23 25  1  0
 10  5  1  0
 25 11  1  0
 22 17  1  0
  1 26  1  0
  1 27  1  0
  1 28  1  0
  6 29  1  0
  7 30  1  0
  8 31  1  0
  9 32  1  0
 12 33  1  0
 12 34  1  0
 13 35  1  0
 13 36  1  0
 17 37  1  6
 18 38  1  0
 18 39  1  0
 22 40  1  0
 22 41  1  0
 25 42  1  0
 25 43  1  0
M  CHG  1  19  -1
M  END
>  <UniqueID>  (61) 
59

>  <SMILES>  (61) 
CS(=O)(=O)c1ccccc1N1CCN(C(=O)[C@H]2C[N-]C(=O)C2)C(=O)C1

>  <Energy>  (61) 
60.344551335926965

>  <Genealogy>  (61) 
CS(=O)(=O)c1ccccc1N1CCN(C(=O)C2C[N-]C(=O)C2)C(=O)C1 (protonated)
CS(=O)(=O)c1ccccc1N1CCN(C(=O)[C@H]2C[N-]C(=O)C2)C(=O)C1 (chirality)
CS(=O)(=O)c1ccccc1N1CCN(C(=O)[C@H]2C[N-]C(=O)C2)C(=O)C1 (3D coordinates assigned)
CS(=O)(=O)c1ccccc1N1CCN(C(=O)[C@H]2C[N-]C(=O)C2)C(=O)C1 (nonaromatic ring conformer: 60.344551335926965 kcal/mol)

>  <smiles>  (61) 
CS(=O)(=O)c1ccccc1N1CCN(C(=O)C2CNC(=O)C2)C(=O)C1

>  <score_type>  (61) 
oracle

>  <origin>  (61) 
adg

>  <m_score__min__energy>  (61) 
-10.869999999999999

>  <m_primary>  (61) 
energy

$$$$
61:0
     RDKit          3D

 42 43  0  0  0  0  0  0  0  0999 V2000
   63.3480   32.8380   47.1630 C   0  0  0  0  0  0  0  0  0  0  0  0
   62.4310   33.7820   47.7020 O   0  0  0  0  0  0  0  0  0  0  0  0
   61.0990   33.8730   47.2820 C   0  0  0  0  0  0  0  0  0  0  0  0
   60.8060   34.2050   45.9920 N   0  0  0  0  0  0  0  0  0  0  0  0
   59.5270   34.3250   45.5530 C   0  0  0  0  0  0  0  0  0  0  0  0
   58.4640   34.1160   46.4310 C   0  0  0  0  0  0  0  0  0  0  0  0
   58.7310   33.7760   47.7580 C   0  0  0  0  0  0  0  0  0  0  0  0
   60.0560   33.6350   48.1970 C   0  0  0  0  0  0  0  0  0  0  0  0
   60.3390   33.3370   49.6450 C   0  0  0  0  0  0  0  0  0  0  0  0
   60.2280   31.8970   49.8890 N   0  0  0  0  0  0  0  0  0  0  0  0
   59.4090   31.3760   50.9850 C   0  0  0  0  0  0  0  0  0  0  0  0
   60.8650   30.9760   48.9930 C   0  0  0  0  0  0  0  0  0  0  0  0
   62.0090   30.5360   49.2860 O   0  0  0  0  0  0  0  0  0  0  0  0
   60.1830   30.5070   47.7610 C   0  0  0  0  0  0  0  0  0  0  0  0
   60.9220   30.0830   46.6410 C   0  0  0  0  0  0  0  0  0  0  0  0
   60.2730   29.6780   45.4730 C   0  0  0  0  0  0  0  0  0  0  0  0
   58.8730   29.6970   45.3960 C   0  0  0  0  0  0  0  0  0  0  0  0
   58.1750   29.2320   44.1480 C   0  0  0  0  0  0  0  0  0  0  0  0
   56.4940   29.8270   44.1170 S   0  0  0  0  0  0  0  0  0  0  0  0
   55.5270   28.9020   45.2100 N   0  0  0  0  0  0  0  0  0  0  0  0
   55.9360   29.7030   42.7270 O   0  0  0  0  0  0  0  0  0  0  0  0
   56.4720   31.2710   44.5340 O   0  0  0  0  0  0  0  0  0  0  0  0
   58.1310   30.1080   46.5120 C   0  0  0  0  0  0  0  0  0  0  0  0
   58.7790   30.5170   47.6800 C   0  0  0  0  0  0  0  0  0  0  0  0
   63.8583   32.3127   47.9838 H   0  0  0  0  0  0  0  0  0  0  0  0
   62.8033   32.1098   46.5442 H   0  0  0  0  0  0  0  0  0  0  0  0
   64.0917   33.3614   46.5442 H   0  0  0  0  0  0  0  0  0  0  0  0
   59.3289   34.5874   44.5033 H   0  0  0  0  0  0  0  0  0  0  0  0
   57.4260   34.2180   46.0814 H   0  0  0  0  0  0  0  0  0  0  0  0
   57.9003   33.6182   48.4616 H   0  0  0  0  0  0  0  0  0  0  0  0
   61.3568   33.6717   49.8940 H   0  0  0  0  0  0  0  0  0  0  0  0
   59.6087   33.8679   50.2733 H   0  0  0  0  0  0  0  0  0  0  0  0
   59.8590   31.6622   51.9471 H   0  0  0  0  0  0  0  0  0  0  0  0
   58.3943   31.7950   50.9157 H   0  0  0  0  0  0  0  0  0  0  0  0
   59.3584   30.2794   50.9157 H   0  0  0  0  0  0  0  0  0  0  0  0
   62.0210   30.0705   46.6861 H   0  0  0  0  0  0  0  0  0  0  0  0
   60.8635   29.3420   44.6079 H   0  0  0  0  0  0  0  0  0  0  0  0
   58.7117   29.6162   43.2680 H   0  0  0  0  0  0  0  0  0  0  0  0
   58.1644   28.1321   44.1340 H   0  0  0  0  0  0  0  0  0  0  0  0
   54.5870   29.3550   45.2470 H   0  0  0  0  0  0  0  0  0  0  0  0
   57.0319   30.1085   46.4678 H   0  0  0  0  0  0  0  0  0  0  0  0
   58.1857   30.8500   48.5443 H   0  0  0  0  0  0  0  0  0  0  0  0
  1  2  1  0
  2  3  1  0
  3  4  2  0
  4  5  1  0
  5  6  2  0
  6  7  1  0
  7  8  2  0
  8  9  1  0
  9 10  1  0
 10 11  1  0
 10 12  1  0
 12 13  2  0
 12 14  1  0
 14 15  2  0
 15 16  1  0
 16 17  2  0
 17 18  1  0
 18 19  1  0
 19 20  1  0
 19 21  2  0
 19 22  2  0
 17 23  1  0
 23 24  2  0
  8  3  1  0
 24 14  1  0
  1 25  1  0
  1 26  1  0
  1 27  1  0
  5 28  1  0
  6 29  1  0
  7 30  1  0
  9 31  1  0
  9 32  1  0
 11 33  1  0
 11 34  1  0
 11 35  1  0
 15 36  1  0
 16 37  1  0
 18 38  1  0
 18 39  1  0
 20 40  1  0
 23 41  1  0
 24 42  1  0
M  CHG  1  20  -1
M  END
>  <UniqueID>  (62) 
60

>  <SMILES>  (62) 
COc1ncccc1CN(C)C(=O)c1ccc(CS([NH-])(=O)=O)cc1

>  <Energy>  (62) 
36.82583700024181

>  <Genealogy>  (62) 
COc1ncccc1CN(C)C(=O)c1ccc(CS([NH-])(=O)=O)cc1 (protonated)
COc1ncccc1CN(C)C(=O)c1ccc(CS([NH-])(=O)=O)cc1 (3D coordinates assigned)
COc1ncccc1CN(C)C(=O)c1ccc(CS([NH-])(=O)=O)cc1 (optimized conformer: 36.82583700024181 kcal/mol)

>  <smiles>  (62) 
COc1ncccc1CN(C)C(=O)c1ccc(CS(N)(=O)=O)cc1

>  <score_type>  (62) 
oracle

>  <origin>  (62) 
adg

>  <m_score__min__energy>  (62) 
-10.75

>  <m_primary>  (62) 
energy

$$$$
62:0
     RDKit          3D

 58 61  0  0  0  0  0  0  0  0999 V2000
   61.5330   30.5020   48.2910 C   0  0  0  0  0  0  0  0  0  0  0  0
   60.4860   29.6610   47.6240 C   0  0  0  0  0  0  0  0  0  0  0  0
   59.4600   29.0810   48.3860 C   0  0  0  0  0  0  0  0  0  0  0  0
   58.5040   28.2630   47.7750 C   0  0  0  0  0  0  0  0  0  0  0  0
   58.5700   28.0050   46.3970 C   0  0  0  0  0  0  0  0  0  0  0  0
   57.5340   27.1290   45.7450 C   0  0  0  0  0  0  0  0  0  0  0  0
   56.2820   27.8570   45.5740 N   0  0  0  0  0  0  0  0  0  0  0  0
   56.1270   28.9690   44.6850 C   0  0  0  0  0  0  0  0  0  0  0  0
   55.1480   29.7550   44.8060 O   0  0  0  0  0  0  0  0  0  0  0  0
   57.1650   29.2300   43.6430 C   0  0  0  0  0  0  0  0  0  0  0  0
   57.5670   30.6320   43.6820 N   0  0  0  0  0  0  0  0  0  0  0  0
   57.6440   31.4840   42.6390 C   0  0  0  0  0  0  0  0  0  0  0  0
   57.9830   32.7350   43.0170 N   0  0  0  0  0  0  0  0  0  0  0  0
   58.1100   32.6420   44.3570 C   0  0  0  0  0  0  0  0  0  0  0  0
   58.5380   33.9870   45.3990 S   0  0  0  0  0  0  0  0  0  0  0  0
   57.2790   34.5620   45.9840 O   0  0  0  0  0  0  0  0  0  0  0  0
   59.2310   35.0450   44.5840 O   0  0  0  0  0  0  0  0  0  0  0  0
   59.5940   33.4440   46.6810 N   0  0  0  0  0  0  0  0  0  0  0  0
   60.0320   34.6010   47.4910 C   0  0  0  0  0  0  0  0  0  0  0  0
   60.6230   34.1610   48.8340 C   0  0  0  0  0  0  0  0  0  0  0  0
   59.6410   33.3710   49.5890 N   0  0  0  0  0  0  0  0  0  0  0  0
   59.7470   33.2560   51.0260 C   0  0  0  0  0  0  0  0  0  0  0  0
   60.8370   32.5830   51.6140 C   0  0  0  0  0  0  0  0  0  0  0  0
   60.9380   32.4760   53.0050 C   0  0  0  0  0  0  0  0  0  0  0  0
   59.9560   33.0350   53.8240 C   0  0  0  0  0  0  0  0  0  0  0  0
   58.8690   33.7010   53.2550 C   0  0  0  0  0  0  0  0  0  0  0  0
   58.7620   33.8110   51.8650 C   0  0  0  0  0  0  0  0  0  0  0  0
   58.5200   32.7570   48.8650 C   0  0  0  0  0  0  0  0  0  0  0  0
   58.9660   32.3440   47.4550 C   0  0  0  0  0  0  0  0  0  0  0  0
   57.8480   31.3590   44.7760 C   0  0  0  0  0  0  0  0  0  0  0  0
   59.6030   28.5780   45.6370 C   0  0  0  0  0  0  0  0  0  0  0  0
   60.5600   29.3940   46.2480 C   0  0  0  0  0  0  0  0  0  0  0  0
   61.4294   30.4188   49.3829 H   0  0  0  0  0  0  0  0  0  0  0  0
   62.5313   30.1519   47.9897 H   0  0  0  0  0  0  0  0  0  0  0  0
   61.4064   31.5523   47.9897 H   0  0  0  0  0  0  0  0  0  0  0  0
   59.4075   29.2705   49.4683 H   0  0  0  0  0  0  0  0  0  0  0  0
   57.6970   27.8200   48.3771 H   0  0  0  0  0  0  0  0  0  0  0  0
   57.9018   26.8055   44.7601 H   0  0  0  0  0  0  0  0  0  0  0  0
   57.3519   26.2554   46.3882 H   0  0  0  0  0  0  0  0  0  0  0  0
   58.0417   28.5938   43.8343 H   0  0  0  0  0  0  0  0  0  0  0  0
   56.7480   29.0005   42.6513 H   0  0  0  0  0  0  0  0  0  0  0  0
   57.4519   31.1919   41.5960 H   0  0  0  0  0  0  0  0  0  0  0  0
   60.7965   35.1594   46.9309 H   0  0  0  0  0  0  0  0  0  0  0  0
   59.1530   35.2307   47.6930 H   0  0  0  0  0  0  0  0  0  0  0  0
   61.5190   33.5491   48.6531 H   0  0  0  0  0  0  0  0  0  0  0  0
   60.8884   35.0546   49.4180 H   0  0  0  0  0  0  0  0  0  0  0  0
   61.6138   32.1387   50.9744 H   0  0  0  0  0  0  0  0  0  0  0  0
   61.7933   31.9501   53.4543 H   0  0  0  0  0  0  0  0  0  0  0  0
   60.0385   32.9509   54.9177 H   0  0  0  0  0  0  0  0  0  0  0  0
   58.0949   34.1402   53.9015 H   0  0  0  0  0  0  0  0  0  0  0  0
   57.9015   34.3353   51.4237 H   0  0  0  0  0  0  0  0  0  0  0  0
   58.1764   31.8674   49.4132 H   0  0  0  0  0  0  0  0  0  0  0  0
   57.7005   33.4864   48.7844 H   0  0  0  0  0  0  0  0  0  0  0  0
   59.6942   31.5247   47.5473 H   0  0  0  0  0  0  0  0  0  0  0  0
   58.0610   32.0420   46.9075 H   0  0  0  0  0  0  0  0  0  0  0  0
   57.8653   30.9955   45.8141 H   0  0  0  0  0  0  0  0  0  0  0  0
   59.6594   28.3838   44.5557 H   0  0  0  0  0  0  0  0  0  0  0  0
   61.3736   29.8282   45.6483 H   0  0  0  0  0  0  0  0  0  0  0  0
  1  2  1  0
  2  3  2  0
  3  4  1  0
  4  5  2  0
  5  6  1  0
  6  7  1  0
  7  8  1  0
  8  9  2  0
  8 10  1  0
 10 11  1  0
 11 12  1  0
 12 13  2  0
 13 14  1  0
 14 15  1  0
 15 16  2  0
 15 17  2  0
 15 18  1  0
 18 19  1  0
 19 20  1  0
 20 21  1  0
 21 22  1  0
 22 23  2  0
 23 24  1  0
 24 25  2  0
 25 26  1  0
 26 27  2  0
 21 28  1  0
 28 29  1  0
 14 30  2  0
  5 31  1  0
 31 32  2  0
 32  2  1  0
 30 11  1  0
 29 18  1  0
 27 22  1  0
  1 33  1  0
  1 34  1  0
  1 35  1  0
  3 36  1  0
  4 37  1  0
  6 38  1  0
  6 39  1  0
 10 40  1  0
 10 41  1  0
 12 42  1  0
 19 43  1  0
 19 44  1  0
 20 45  1  0
 20 46  1  0
 23 47  1  0
 24 48  1  0
 25 49  1  0
 26 50  1  0
 27 51  1  0
 28 52  1  0
 28 53  1  0
 29 54  1  0
 29 55  1  0
 30 56  1  0
 31 57  1  0
 32 58  1  0
M  CHG  1   7  -1
M  END
>  <UniqueID>  (63) 
61

>  <SMILES>  (63) 
Cc1ccc(C[N-]C(=O)Cn2cnc(S(=O)(=O)N3CCN(c4ccccc4)CC3)c2)cc1

>  <Energy>  (63) 
93.37645343676579

>  <Genealogy>  (63) 
Cc1ccc(C[N-]C(=O)Cn2cnc(S(=O)(=O)N3CCN(c4ccccc4)CC3)c2)cc1 (protonated)
Cc1ccc(C[N-]C(=O)Cn2cnc(S(=O)(=O)N3CCN(c4ccccc4)CC3)c2)cc1 (3D coordinates assigned)
Cc1ccc(C[N-]C(=O)Cn2cnc(S(=O)(=O)N3CCN(c4ccccc4)CC3)c2)cc1 (nonaromatic ring conformer: 93.37645343676579 kcal/mol)

>  <smiles>  (63) 
Cc1ccc(CNC(=O)Cn2cnc(S(=O)(=O)N3CCN(c4ccccc4)CC3)c2)cc1

>  <score_type>  (63) 
oracle

>  <origin>  (63) 
adg

>  <m_score__min__energy>  (63) 
-11.48

>  <m_primary>  (63) 
energy

$$$$
63:0
     RDKit          3D

 38 40  0  0  0  0  0  0  0  0999 V2000
   60.8527   28.4948   46.8034 H   0  0  0  0  0  0  0  0  0  0  0  0
   60.1200   27.8740   46.2670 C   0  0  0  0  0  0  0  0  0  0  0  0
   60.2375   26.7805   46.2442 H   0  0  0  0  0  0  0  0  0  0  0  0
   59.0820   28.4510   45.6400 C   0  0  0  0  0  0  0  0  0  0  0  0
   58.0660   27.8070   44.9160 C   0  0  0  0  0  0  0  0  0  0  0  0
   57.7570   26.5010   44.7920 C   0  0  0  0  0  0  0  0  0  0  0  0
   57.9732   26.0234   43.8249 H   0  0  0  0  0  0  0  0  0  0  0  0
   57.1560   25.6590   45.8370 C   0  0  0  0  0  0  0  0  0  0  0  0
   57.7420   24.5540   46.3290 N   0  0  0  0  0  0  0  0  0  0  0  0
   56.7970   24.0380   47.1460 C   0  0  0  0  0  0  0  0  0  0  0  0
   56.9820   22.9890   47.8160 O   0  0  0  0  0  0  0  0  0  0  0  0
   55.6370   24.7280   47.1800 N   0  0  0  0  0  0  0  0  0  0  0  0
   55.8740   25.7420   46.3330 C   0  0  0  0  0  0  0  0  0  0  0  0
   54.9310   26.7080   46.0020 O   0  0  0  0  0  0  0  0  0  0  0  0
   57.3350   28.8080   44.3010 C   0  0  0  0  0  0  0  0  0  0  0  0
   56.4925   28.6716   43.6070 H   0  0  0  0  0  0  0  0  0  0  0  0
   57.8640   30.0090   44.7240 C   0  0  0  0  0  0  0  0  0  0  0  0
   57.2980   31.3260   44.3610 C   0  0  0  0  0  0  0  0  0  0  0  0
   57.0310   31.5580   43.1520 O   0  0  0  0  0  0  0  0  0  0  0  0
   57.0480   32.3550   45.3320 N   0  0  0  0  0  0  0  0  0  0  0  0
   57.8830   33.2730   45.7290 C   0  0  0  0  0  0  0  0  0  0  0  0
   58.3820   34.1990   44.8610 N   0  0  0  0  0  0  0  0  0  0  0  0
   59.2630   35.1560   45.2560 C   0  0  0  0  0  0  0  0  0  0  0  0
   59.6403   35.8894   44.5282 H   0  0  0  0  0  0  0  0  0  0  0  0
   59.6890   35.2090   46.5830 C   0  0  0  0  0  0  0  0  0  0  0  0
   60.4083   35.9767   46.9042 H   0  0  0  0  0  0  0  0  0  0  0  0
   59.1930   34.2760   47.5040 C   0  0  0  0  0  0  0  0  0  0  0  0
   59.6700   34.2880   48.9260 C   0  0  0  0  0  0  0  0  0  0  0  0
   58.8037   34.2662   49.6035 H   0  0  0  0  0  0  0  0  0  0  0  0
   60.3006   33.4054   49.1087 H   0  0  0  0  0  0  0  0  0  0  0  0
   60.2555   35.2012   49.1087 H   0  0  0  0  0  0  0  0  0  0  0  0
   58.2970   33.2900   47.0660 C   0  0  0  0  0  0  0  0  0  0  0  0
   57.9211   32.5332   47.7702 H   0  0  0  0  0  0  0  0  0  0  0  0
   58.9380   29.7980   45.5220 N   0  0  0  0  0  0  0  0  0  0  0  0
   59.8390   30.8220   46.0650 C   0  0  0  0  0  0  0  0  0  0  0  0
   59.8106   30.7898   47.1642 H   0  0  0  0  0  0  0  0  0  0  0  0
   60.8650   30.6285   45.7188 H   0  0  0  0  0  0  0  0  0  0  0  0
   59.5164   31.8150   45.7188 H   0  0  0  0  0  0  0  0  0  0  0  0
  1  2  1  0
  2  3  1  0
  2  4  2  0
  4  5  1  0
  5  6  2  0
  6  7  1  0
  6  8  1  0
  8  9  1  0
  9 10  1  0
 10 11  2  0
 10 12  1  0
 12 13  1  0
 13 14  1  0
  5 15  1  0
 15 16  1  0
 15 17  2  0
 17 18  1  0
 18 19  2  0
 18 20  1  0
 20 21  2  3
 21 22  1  0
 22 23  1  0
 23 24  1  0
 23 25  2  0
 25 26  1  0
 25 27  1  0
 27 28  1  0
 28 29  1  0
 28 30  1  0
 28 31  1  0
 27 32  2  0
 32 33  1  0
 17 34  1  0
 34 35  1  0
 35 36  1  0
 35 37  1  0
 35 38  1  0
 34  4  1  0
 13  8  2  0
 32 21  1  0
M  CHG  4   9  -1  12  -1  14  -1  22  -1
M  END
>  <UniqueID>  (64) 
62

>  <SMILES>  (64) 
C=c1/c(=C\c2[n-]c(=O)[n-]c2[O-])cc(C(=O)N=c2cc(C)cc[n-]2)n1C

>  <Energy>  (64) 
118.77101779454664

>  <Genealogy>  (64) 
C=c1c(=Cc2[n-]c(=O)[n-]c2[O-])cc(C(=O)N=c2cc(C)cc[n-]2)n1C (protonated)
C=c1/c(=C\c2[n-]c(=O)[n-]c2[O-])cc(C(=O)N=c2cc(C)cc[n-]2)n1C (cis-trans isomerization)
C=c1/c(=C\c2[n-]c(=O)[n-]c2[O-])cc(C(=O)N=c2cc(C)cc[n-]2)n1C (3D coordinates assigned)
C=c1/c(=C\c2[n-]c(=O)[n-]c2[O-])cc(C(=O)N=c2cc(C)cc[n-]2)n1C (optimized conformer: 118.77101779454664 kcal/mol)

>  <smiles>  (64) 
C=c1c(=Cc2[nH]c(=O)[nH]c2O)cc(C(=O)N=c2cc(C)cc[nH]2)n1C

>  <score_type>  (64) 
oracle

>  <origin>  (64) 
adg

>  <m_score__min__energy>  (64) 
-17.699999999999999

>  <m_primary>  (64) 
energy

$$$$
64:0
     RDKit          3D

 54 57  0  0  0  0  0  0  0  0999 V2000
   53.0210   30.4130   51.7530 C   0  0  0  0  0  0  0  0  0  0  0  0
   54.4150   30.2510   52.2840 C   0  0  0  0  0  0  0  0  0  0  0  0
   54.7620   29.1150   53.0290 C   0  0  0  0  0  0  0  0  0  0  0  0
   56.0660   28.9570   53.5000 C   0  0  0  0  0  0  0  0  0  0  0  0
   57.0380   29.9210   53.2210 C   0  0  0  0  0  0  0  0  0  0  0  0
   56.7160   31.0540   52.4500 C   0  0  0  0  0  0  0  0  0  0  0  0
   57.7550   32.0680   52.1490 C   0  0  0  0  0  0  0  0  0  0  0  0
   57.4250   33.2810   52.0430 O   0  0  0  0  0  0  0  0  0  0  0  0
   59.1380   31.6920   52.0270 N   0  0  0  0  0  0  0  0  0  0  0  0
   60.1310   32.5120   51.3860 C   0  0  0  0  0  0  0  0  0  0  0  0
   61.1910   33.0290   52.1440 C   0  0  0  0  0  0  0  0  0  0  0  0
   62.1660   33.8280   51.5410 C   0  0  0  0  0  0  0  0  0  0  0  0
   62.1050   34.0970   50.1710 C   0  0  0  0  0  0  0  0  0  0  0  0
   61.0750   33.5510   49.3880 C   0  0  0  0  0  0  0  0  0  0  0  0
   61.0230   33.8260   47.9360 C   0  0  0  0  0  0  0  0  0  0  0  0
   62.1000   33.8810   47.2830 O   0  0  0  0  0  0  0  0  0  0  0  0
   59.7670   34.0120   47.2550 N   0  0  0  0  0  0  0  0  0  0  0  0
   58.6450   33.1020   47.5410 C   0  0  0  0  0  0  0  0  0  0  0  0
   57.5500   33.2100   46.4730 C   0  0  0  0  0  0  0  0  0  0  0  0
   58.1630   33.2500   45.1380 N   0  0  0  0  0  0  0  0  0  0  0  0
   57.6660   32.4320   44.0650 C   0  0  0  0  0  0  0  0  0  0  0  0
   57.5130   32.9340   42.9190 O   0  0  0  0  0  0  0  0  0  0  0  0
   57.3830   31.0010   44.2680 C   0  0  0  0  0  0  0  0  0  0  0  0
   58.2990   29.9720   44.1690 C   0  0  0  0  0  0  0  0  0  0  0  0
   57.6000   28.8200   44.4600 C   0  0  0  0  0  0  0  0  0  0  0  0
   56.3040   29.2150   44.7210 C   0  0  0  0  0  0  0  0  0  0  0  0
   56.2060   30.5190   44.6010 O   0  0  0  0  0  0  0  0  0  0  0  0
   59.2460   34.2060   44.8610 C   0  0  0  0  0  0  0  0  0  0  0  0
   59.6720   34.9530   46.1300 C   0  0  0  0  0  0  0  0  0  0  0  0
   60.0850   32.7670   50.0040 C   0  0  0  0  0  0  0  0  0  0  0  0
   55.3950   31.2110   51.9860 C   0  0  0  0  0  0  0  0  0  0  0  0
   52.3158   30.4950   52.5932 H   0  0  0  0  0  0  0  0  0  0  0  0
   52.9663   31.3235   51.1382 H   0  0  0  0  0  0  0  0  0  0  0  0
   52.7590   29.5393   51.1382 H   0  0  0  0  0  0  0  0  0  0  0  0
   54.0045   28.3465   53.2427 H   0  0  0  0  0  0  0  0  0  0  0  0
   56.3299   28.0694   54.0937 H   0  0  0  0  0  0  0  0  0  0  0  0
   58.0606   29.7940   53.6059 H   0  0  0  0  0  0  0  0  0  0  0  0
   59.4640   30.8440   52.5440 H   0  0  0  0  0  0  0  0  0  0  0  0
   61.2555   32.8045   53.2189 H   0  0  0  0  0  0  0  0  0  0  0  0
   62.9837   34.2463   52.1463 H   0  0  0  0  0  0  0  0  0  0  0  0
   62.8667   34.7388   49.7042 H   0  0  0  0  0  0  0  0  0  0  0  0
   59.0201   32.0682   47.5656 H   0  0  0  0  0  0  0  0  0  0  0  0
   58.2104   33.3831   48.5116 H   0  0  0  0  0  0  0  0  0  0  0  0
   56.8833   32.3379   46.5433 H   0  0  0  0  0  0  0  0  0  0  0  0
   56.9714   34.1312   46.6361 H   0  0  0  0  0  0  0  0  0  0  0  0
   59.3652   30.0546   43.9114 H   0  0  0  0  0  0  0  0  0  0  0  0
   57.9954   27.7937   44.4801 H   0  0  0  0  0  0  0  0  0  0  0  0
   55.4780   28.5398   44.9890 H   0  0  0  0  0  0  0  0  0  0  0  0
   60.1121   33.6591   44.4601 H   0  0  0  0  0  0  0  0  0  0  0  0
   58.8782   34.9436   44.1325 H   0  0  0  0  0  0  0  0  0  0  0  0
   60.6522   35.4241   45.9645 H   0  0  0  0  0  0  0  0  0  0  0  0
   58.9241   35.7247   46.3649 H   0  0  0  0  0  0  0  0  0  0  0  0
   59.2665   32.3489   49.3996 H   0  0  0  0  0  0  0  0  0  0  0  0
   55.1293   32.0933   51.3852 H   0  0  0  0  0  0  0  0  0  0  0  0
  1  2  1  0
  2  3  2  0
  3  4  1  0
  4  5  2  0
  5  6  1  0
  6  7  1  0
  7  8  2  0
  7  9  1  0
  9 10  1  0
 10 11  2  0
 11 12  1  0
 12 13  2  0
 13 14  1  0
 14 15  1  0
 15 16  2  0
 15 17  1  0
 17 18  1  0
 18 19  1  0
 19 20  1  0
 20 21  1  0
 21 22  2  0
 21 23  1  0
 23 24  2  0
 24 25  1  0
 25 26  2  0
 26 27  1  0
 20 28  1  0
 28 29  1  0
 14 30  2  0
  6 31  2  0
 31  2  1  0
 30 10  1  0
 29 17  1  0
 27 23  1  0
  1 32  1  0
  1 33  1  0
  1 34  1  0
  3 35  1  0
  4 36  1  0
  5 37  1  0
  9 38  1  0
 11 39  1  0
 12 40  1  0
 13 41  1  0
 18 42  1  0
 18 43  1  0
 19 44  1  0
 19 45  1  0
 24 46  1  0
 25 47  1  0
 26 48  1  0
 28 49  1  0
 28 50  1  0
 29 51  1  0
 29 52  1  0
 30 53  1  0
 31 54  1  0
M  END
>  <UniqueID>  (65) 
63

>  <SMILES>  (65) 
Cc1cccc(C(=O)Nc2cccc(C(=O)N3CCN(C(=O)c4ccco4)CC3)c2)c1

>  <Energy>  (65) 
96.32260484679244

>  <Genealogy>  (65) 
Cc1cccc(C(=O)Nc2cccc(C(=O)N3CCN(C(=O)c4ccco4)CC3)c2)c1 (3D coordinates assigned)
Cc1cccc(C(=O)Nc2cccc(C(=O)N3CCN(C(=O)c4ccco4)CC3)c2)c1 (nonaromatic ring conformer: 96.32260484679244 kcal/mol)

>  <smiles>  (65) 
Cc1cccc(C(=O)Nc2cccc(C(=O)N3CCN(C(=O)c4ccco4)CC3)c2)c1

>  <score_type>  (65) 
oracle

>  <origin>  (65) 
adg

>  <m_score__min__energy>  (65) 
-9.4499999999999993

>  <m_primary>  (65) 
energy

$$$$
65:0
     RDKit          3D

 51 54  0  0  0  0  0  0  0  0999 V2000
   59.5740   35.6630   45.4990 O   0  0  0  0  0  0  0  0  0  0  0  0
   59.4980   34.5910   46.1590 C   0  0  0  0  0  0  0  0  0  0  0  0
   58.3000   33.8100   46.0590 N   0  0  0  0  0  0  0  0  0  0  0  0
   57.9800   32.8680   45.0220 C   0  0  0  0  0  0  0  0  0  0  0  0
   58.1990   33.2350   43.6860 C   0  0  0  0  0  0  0  0  0  0  0  0
   57.8970   32.3500   42.6480 C   0  0  0  0  0  0  0  0  0  0  0  0
   57.3660   31.0890   42.9400 C   0  0  0  0  0  0  0  0  0  0  0  0
   57.1720   30.6990   44.2730 C   0  0  0  0  0  0  0  0  0  0  0  0
   56.5910   29.3820   44.5840 C   0  0  0  0  0  0  0  0  0  0  0  0
   55.3470   29.3020   44.7860 O   0  0  0  0  0  0  0  0  0  0  0  0
   57.4200   28.1940   44.5580 N   0  0  0  0  0  0  0  0  0  0  0  0
   57.3500   27.4900   45.8580 C   0  0  0  0  0  0  0  0  0  0  0  0
   57.9840   28.3160   46.9930 C   0  0  0  0  0  0  0  0  0  0  0  0
   59.1930   29.0010   46.5270 N   0  0  0  0  0  0  0  0  0  0  0  0
   59.8610   29.9380   47.3820 C   0  0  0  0  0  0  0  0  0  0  0  0
   59.9800   31.1390   47.0160 O   0  0  0  0  0  0  0  0  0  0  0  0
   60.4880   29.4880   48.6320 C   0  0  0  0  0  0  0  0  0  0  0  0
   61.2560   30.2600   49.4820 C   0  0  0  0  0  0  0  0  0  0  0  0
   61.6780   29.4030   50.4780 C   0  0  0  0  0  0  0  0  0  0  0  0
   61.1410   28.1700   50.1810 C   0  0  0  0  0  0  0  0  0  0  0  0
   60.4340   28.2530   49.0770 O   0  0  0  0  0  0  0  0  0  0  0  0
   59.8340   28.5860   45.2770 C   0  0  0  0  0  0  0  0  0  0  0  0
   58.8170   28.4890   44.1230 C   0  0  0  0  0  0  0  0  0  0  0  0
   57.4990   31.5800   45.3120 C   0  0  0  0  0  0  0  0  0  0  0  0
   60.6310   34.1900   47.0270 C   0  0  0  0  0  0  0  0  0  0  0  0
   60.4890   34.2000   48.4250 C   0  0  0  0  0  0  0  0  0  0  0  0
   61.5640   33.8380   49.2430 C   0  0  0  0  0  0  0  0  0  0  0  0
   62.7860   33.4580   48.6780 C   0  0  0  0  0  0  0  0  0  0  0  0
   62.9400   33.4440   47.2860 C   0  0  0  0  0  0  0  0  0  0  0  0
   64.1310   33.0930   46.7370 F   0  0  0  0  0  0  0  0  0  0  0  0
   61.8640   33.7960   46.4640 C   0  0  0  0  0  0  0  0  0  0  0  0
   58.6119   34.2277   43.4537 H   0  0  0  0  0  0  0  0  0  0  0  0
   58.0763   32.6440   41.6033 H   0  0  0  0  0  0  0  0  0  0  0  0
   57.1003   30.4024   42.1227 H   0  0  0  0  0  0  0  0  0  0  0  0
   57.0170   27.5390   43.8430 H   0  0  0  0  0  0  0  0  0  0  0  0
   56.2947   27.2999   46.1032 H   0  0  0  0  0  0  0  0  0  0  0  0
   57.9115   26.5485   45.7667 H   0  0  0  0  0  0  0  0  0  0  0  0
   57.2579   29.0645   47.3430 H   0  0  0  0  0  0  0  0  0  0  0  0
   58.2586   27.6356   47.8126 H   0  0  0  0  0  0  0  0  0  0  0  0
   61.4833   31.3319   49.3853 H   0  0  0  0  0  0  0  0  0  0  0  0
   62.3162   29.6546   51.3379 H   0  0  0  0  0  0  0  0  0  0  0  0
   61.2824   27.2562   50.7767 H   0  0  0  0  0  0  0  0  0  0  0  0
   60.6070   29.3219   45.0107 H   0  0  0  0  0  0  0  0  0  0  0  0
   60.2759   27.5905   45.4309 H   0  0  0  0  0  0  0  0  0  0  0  0
   58.8147   29.4481   43.5844 H   0  0  0  0  0  0  0  0  0  0  0  0
   59.1353   27.6454   43.4930 H   0  0  0  0  0  0  0  0  0  0  0  0
   57.3788   31.2624   46.3583 H   0  0  0  0  0  0  0  0  0  0  0  0
   59.5300   34.4933   48.8770 H   0  0  0  0  0  0  0  0  0  0  0  0
   61.4480   33.8522   50.3368 H   0  0  0  0  0  0  0  0  0  0  0  0
   63.6261   33.1701   49.3271 H   0  0  0  0  0  0  0  0  0  0  0  0
   61.9797   33.7655   45.3705 H   0  0  0  0  0  0  0  0  0  0  0  0
  1  2  2  0
  2  3  1  0
  3  4  1  0
  4  5  2  0
  5  6  1  0
  6  7  2  0
  7  8  1  0
  8  9  1  0
  9 10  2  0
  9 11  1  0
 11 12  1  0
 12 13  1  0
 13 14  1  0
 14 15  1  0
 15 16  2  0
 15 17  1  0
 17 18  2  0
 18 19  1  0
 19 20  2  0
 20 21  1  0
 14 22  1  0
 22 23  1  0
  8 24  2  0
  2 25  1  0
 25 26  2  0
 26 27  1  0
 27 28  2  0
 28 29  1  0
 29 30  1  0
 29 31  2  0
 24  4  1  0
 31 25  1  0
 23 11  1  0
 21 17  1  0
  5 32  1  0
  6 33  1  0
  7 34  1  0
 11 35  1  0
 12 36  1  0
 12 37  1  0
 13 38  1  0
 13 39  1  0
 18 40  1  0
 19 41  1  0
 20 42  1  0
 22 43  1  0
 22 44  1  0
 23 45  1  0
 23 46  1  0
 24 47  1  0
 26 48  1  0
 27 49  1  0
 28 50  1  0
 31 51  1  0
M  CHG  2   3  -1  11   1
M  END
>  <UniqueID>  (66) 
64

>  <SMILES>  (66) 
O=C([N-]c1cccc(C(=O)[NH+]2CCN(C(=O)c3ccco3)CC2)c1)c1cccc(F)c1

>  <Energy>  (66) 
106.06053506928798

>  <Genealogy>  (66) 
O=C([N-]c1cccc(C(=O)[NH+]2CCN(C(=O)c3ccco3)CC2)c1)c1cccc(F)c1 (protonated)
O=C([N-]c1cccc(C(=O)[NH+]2CCN(C(=O)c3ccco3)CC2)c1)c1cccc(F)c1 (3D coordinates assigned)
O=C([N-]c1cccc(C(=O)[NH+]2CCN(C(=O)c3ccco3)CC2)c1)c1cccc(F)c1 (nonaromatic ring conformer: 106.06053506928798 kcal/mol)

>  <smiles>  (66) 
O=C(Nc1cccc(C(=O)N2CCN(C(=O)c3ccco3)CC2)c1)c1cccc(F)c1

>  <score_type>  (66) 
oracle

>  <origin>  (66) 
adg

>  <m_score__min__energy>  (66) 
-9.6600000000000001

>  <m_primary>  (66) 
energy

$$$$
66:0
     RDKit          3D

 51 54  0  0  0  0  0  0  0  0999 V2000
   53.4110   24.0517   46.0167 H   0  0  0  0  0  0  0  0  0  0  0  0
   54.3470   24.0360   45.4390 C   0  0  0  0  0  0  0  0  0  0  0  0
   54.5680   23.0470   44.5330 N   0  0  0  0  0  0  0  0  0  0  0  0
   55.7130   22.9910   43.7960 C   0  0  0  0  0  0  0  0  0  0  0  0
   55.9080   22.0340   42.9370 N   0  0  0  0  0  0  0  0  0  0  0  0
   57.0010   21.0630   42.9960 C   0  0  0  0  0  0  0  0  0  0  0  0
   57.7252   21.2861   42.1987 H   0  0  0  0  0  0  0  0  0  0  0  0
   56.5842   20.0538   42.8626 H   0  0  0  0  0  0  0  0  0  0  0  0
   57.7080   21.1260   44.3460 C   0  0  0  0  0  0  0  0  0  0  0  0
   56.9636   21.0597   45.1532 H   0  0  0  0  0  0  0  0  0  0  0  0
   58.4148   20.2873   44.4292 H   0  0  0  0  0  0  0  0  0  0  0  0
   58.2554   22.0765   44.4292 H   0  0  0  0  0  0  0  0  0  0  0  0
   56.6960   23.9720   43.9690 C   0  0  0  0  0  0  0  0  0  0  0  0
   57.6233   23.9324   43.3787 H   0  0  0  0  0  0  0  0  0  0  0  0
   56.4970   25.0080   44.8980 C   0  0  0  0  0  0  0  0  0  0  0  0
   57.5300   26.0570   45.0930 C   0  0  0  0  0  0  0  0  0  0  0  0
   58.1280   26.2490   46.3520 C   0  0  0  0  0  0  0  0  0  0  0  0
   57.8268   25.6172   47.2006 H   0  0  0  0  0  0  0  0  0  0  0  0
   59.1010   27.2350   46.5340 C   0  0  0  0  0  0  0  0  0  0  0  0
   59.5539   27.3793   47.5260 H   0  0  0  0  0  0  0  0  0  0  0  0
   59.5040   28.0420   45.4600 C   0  0  0  0  0  0  0  0  0  0  0  0
   60.5270   29.0920   45.6630 C   0  0  0  0  0  0  0  0  0  0  0  0
   61.5810   29.0600   44.9700 O   0  0  0  0  0  0  0  0  0  0  0  0
   60.3360   30.1570   46.6140 N   0  0  0  0  0  0  0  0  0  0  0  0
   59.0100   30.7730   46.7820 C   0  0  0  0  0  0  0  0  0  0  0  0
   58.4875   30.7753   45.8140 H   0  0  0  0  0  0  0  0  0  0  0  0
   58.4403   30.1909   47.5214 H   0  0  0  0  0  0  0  0  0  0  0  0
   59.1430   32.2130   47.2850 C   0  0  0  0  0  0  0  0  0  0  0  0
   58.2272   32.7736   47.0461 H   0  0  0  0  0  0  0  0  0  0  0  0
   59.2921   32.2147   48.3748 H   0  0  0  0  0  0  0  0  0  0  0  0
   60.2960   32.8450   46.6230 N   0  0  0  0  0  0  0  0  0  0  0  0
   60.2880   34.2900   46.8850 C   0  0  0  0  0  0  0  0  0  0  0  0
   61.2554   34.3483   47.4054 H   0  0  0  0  0  0  0  0  0  0  0  0
   58.8950   34.8510   47.1250 C   0  0  0  0  0  0  0  0  0  0  0  0
   58.0295   34.1736   47.1701 H   0  0  0  0  0  0  0  0  0  0  0  0
   58.4353   35.4895   47.8938 H   0  0  0  0  0  0  0  0  0  0  0  0
   59.5970   35.1000   45.8000 C   0  0  0  0  0  0  0  0  0  0  0  0
   59.2393   34.6029   44.8862 H   0  0  0  0  0  0  0  0  0  0  0  0
   59.8556   35.9935   45.2128 H   0  0  0  0  0  0  0  0  0  0  0  0
   61.5730   32.2570   47.0910 C   0  0  0  0  0  0  0  0  0  0  0  0
   62.3466   32.4493   46.3330 H   0  0  0  0  0  0  0  0  0  0  0  0
   61.8190   32.7263   48.0550 H   0  0  0  0  0  0  0  0  0  0  0  0
   61.4820   30.7330   47.3270 C   0  0  0  0  0  0  0  0  0  0  0  0
   62.4059   30.2575   46.9661 H   0  0  0  0  0  0  0  0  0  0  0  0
   61.3506   30.5528   48.4042 H   0  0  0  0  0  0  0  0  0  0  0  0
   58.8960   27.8680   44.2080 C   0  0  0  0  0  0  0  0  0  0  0  0
   59.1871   28.5121   43.3652 H   0  0  0  0  0  0  0  0  0  0  0  0
   57.9230   26.8820   44.0240 C   0  0  0  0  0  0  0  0  0  0  0  0
   57.4606   26.7500   43.0347 H   0  0  0  0  0  0  0  0  0  0  0  0
   55.3040   25.0310   45.6380 C   0  0  0  0  0  0  0  0  0  0  0  0
   55.1248   25.8306   46.3718 H   0  0  0  0  0  0  0  0  0  0  0  0
  1  2  1  0
  2  3  1  0
  3  4  1  0
  4  5  2  0
  5  6  1  0
  6  7  1  0
  6  8  1  0
  6  9  1  0
  9 10  1  0
  9 11  1  0
  9 12  1  0
  4 13  1  0
 13 14  1  0
 13 15  2  0
 15 16  1  0
 16 17  2  0
 17 18  1  0
 17 19  1  0
 19 20  1  0
 19 21  2  0
 21 22  1  0
 22 23  2  0
 22 24  1  0
 24 25  1  0
 25 26  1  0
 25 27  1  0
 25 28  1  0
 28 29  1  0
 28 30  1  0
 28 31  1  0
 31 32  1  0
 32 33  1  0
 32 34  1  0
 34 35  1  0
 34 36  1  0
 34 37  1  0
 37 38  1  0
 37 39  1  0
 31 40  1  0
 40 41  1  0
 40 42  1  0
 40 43  1  0
 43 44  1  0
 43 45  1  0
 21 46  1  0
 46 47  1  0
 46 48  2  0
 48 49  1  0
 15 50  1  0
 50 51  1  0
 50  2  2  0
 48 16  1  0
 43 24  1  0
 37 32  1  0
M  CHG  1   3  -1
M  END
>  <UniqueID>  (67) 
65

>  <SMILES>  (67) 
CC/N=c1/cc(-c2ccc(C(=O)N3CCN(C4CC4)CC3)cc2)cc[n-]1

>  <Energy>  (67) 
330.39586851536285

>  <Genealogy>  (67) 
CCN=c1cc(-c2ccc(C(=O)N3CCN(C4CC4)CC3)cc2)cc[n-]1 (protonated)
CC/N=c1/cc(-c2ccc(C(=O)N3CCN(C4CC4)CC3)cc2)cc[n-]1 (cis-trans isomerization)
CC/N=c1/cc(-c2ccc(C(=O)N3CCN(C4CC4)CC3)cc2)cc[n-]1 (3D coordinates assigned)
CC/N=c1/cc(-c2ccc(C(=O)N3CCN(C4CC4)CC3)cc2)cc[n-]1 (nonaromatic ring conformer: 330.39586851536285 kcal/mol)

>  <smiles>  (67) 
CCN=c1cc(-c2ccc(C(=O)N3CCN(C4CC4)CC3)cc2)cc[nH]1

>  <score_type>  (67) 
oracle

>  <origin>  (67) 
adg

>  <m_score__min__energy>  (67) 
-9.1099999999999994

>  <m_primary>  (67) 
energy

$$$$
67:0
     RDKit          3D

 42 44  0  0  0  0  0  0  0  0999 V2000
   57.8210   31.9130   42.5490 C   0  0  0  0  0  0  0  0  0  0  0  0
   57.5080   33.0230   43.3830 O   0  0  0  0  0  0  0  0  0  0  0  0
   58.1130   33.2880   44.6220 C   0  0  0  0  0  0  0  0  0  0  0  0
   58.7010   34.5380   44.9040 C   0  0  0  0  0  0  0  0  0  0  0  0
   59.2360   34.7980   46.1680 C   0  0  0  0  0  0  0  0  0  0  0  0
   59.1860   33.8230   47.1650 C   0  0  0  0  0  0  0  0  0  0  0  0
   59.8420   34.1610   48.7570 Cl  0  0  0  0  0  0  0  0  0  0  0  0
   58.6140   32.5780   46.8950 C   0  0  0  0  0  0  0  0  0  0  0  0
   58.1040   32.2900   45.6220 C   0  0  0  0  0  0  0  0  0  0  0  0
   57.5280   30.9970   45.3950 N   0  0  0  0  0  0  0  0  0  0  0  0
   58.2690   29.7820   45.2220 C   0  0  0  0  0  0  0  0  0  0  0  0
   59.4720   29.8240   44.8460 O   0  0  0  0  0  0  0  0  0  0  0  0
   57.6430   28.4780   45.5440 C   0  0  0  0  0  0  0  0  0  0  0  0
   58.3870   27.4420   46.1580 C   0  0  0  0  0  0  0  0  0  0  0  0
   59.8070   27.5770   46.3630 N   0  0  0  0  0  0  0  0  0  0  0  0
   60.4780   27.2020   47.6070 C   0  0  0  0  0  0  0  0  0  0  0  0
   60.2680   28.2610   48.6530 C   0  0  0  0  0  0  0  0  0  0  0  0
   59.5680   29.4350   48.3390 C   0  0  0  0  0  0  0  0  0  0  0  0
   59.3430   30.3980   49.3250 C   0  0  0  0  0  0  0  0  0  0  0  0
   59.8140   30.1740   50.6190 C   0  0  0  0  0  0  0  0  0  0  0  0
   60.4830   29.0270   50.9120 N   0  0  0  0  0  0  0  0  0  0  0  0
   60.7160   28.0750   49.9690 C   0  0  0  0  0  0  0  0  0  0  0  0
   57.7380   26.2470   46.5060 C   0  0  0  0  0  0  0  0  0  0  0  0
   56.3820   26.0900   46.2350 C   0  0  0  0  0  0  0  0  0  0  0  0
   55.6870   27.0870   45.6340 N   0  0  0  0  0  0  0  0  0  0  0  0
   56.2720   28.2630   45.2860 C   0  0  0  0  0  0  0  0  0  0  0  0
   55.5660   29.1590   44.7490 O   0  0  0  0  0  0  0  0  0  0  0  0
   58.0666   31.0421   43.1745 H   0  0  0  0  0  0  0  0  0  0  0  0
   56.9547   31.6757   41.9139 H   0  0  0  0  0  0  0  0  0  0  0  0
   58.6836   32.1632   41.9139 H   0  0  0  0  0  0  0  0  0  0  0  0
   58.7387   35.3130   44.1243 H   0  0  0  0  0  0  0  0  0  0  0  0
   59.6979   35.7740   46.3779 H   0  0  0  0  0  0  0  0  0  0  0  0
   58.5634   31.8173   47.6880 H   0  0  0  0  0  0  0  0  0  0  0  0
   60.3850   28.0400   45.6260 H   0  0  0  0  0  0  0  0  0  0  0  0
   60.0658   26.2483   47.9684 H   0  0  0  0  0  0  0  0  0  0  0  0
   61.5560   27.0980   47.4147 H   0  0  0  0  0  0  0  0  0  0  0  0
   59.1963   29.5972   47.3165 H   0  0  0  0  0  0  0  0  0  0  0  0
   58.7999   31.3237   49.0839 H   0  0  0  0  0  0  0  0  0  0  0  0
   59.6439   30.9263   51.4033 H   0  0  0  0  0  0  0  0  0  0  0  0
   61.2574   27.1564   50.2393 H   0  0  0  0  0  0  0  0  0  0  0  0
   58.3002   25.4360   46.9921 H   0  0  0  0  0  0  0  0  0  0  0  0
   55.8726   25.1544   46.5092 H   0  0  0  0  0  0  0  0  0  0  0  0
  1  2  1  0
  2  3  1  0
  3  4  2  0
  4  5  1  0
  5  6  2  0
  6  7  1  0
  6  8  1  0
  8  9  2  0
  9 10  1  0
 10 11  1  0
 11 12  2  0
 11 13  1  0
 13 14  2  0
 14 15  1  0
 15 16  1  0
 16 17  1  0
 17 18  2  0
 18 19  1  0
 19 20  2  0
 20 21  1  0
 21 22  2  0
 14 23  1  0
 23 24  2  0
 24 25  1  0
 25 26  1  0
 26 27  2  0
  9  3  1  0
 26 13  1  0
 22 17  1  0
  1 28  1  0
  1 29  1  0
  1 30  1  0
  4 31  1  0
  5 32  1  0
  8 33  1  0
 15 34  1  0
 16 35  1  0
 16 36  1  0
 18 37  1  0
 19 38  1  0
 20 39  1  0
 22 40  1  0
 23 41  1  0
 24 42  1  0
M  CHG  2  10  -1  25  -1
M  END
>  <UniqueID>  (68) 
66

>  <SMILES>  (68) 
COc1ccc(Cl)cc1[N-]C(=O)c1c(NCc2cccnc2)cc[n-]c1=O

>  <Energy>  (68) 
56.93945673746891

>  <Genealogy>  (68) 
COc1ccc(Cl)cc1[N-]C(=O)c1c(NCc2cccnc2)cc[n-]c1=O (protonated)
COc1ccc(Cl)cc1[N-]C(=O)c1c(NCc2cccnc2)cc[n-]c1=O (3D coordinates assigned)
COc1ccc(Cl)cc1[N-]C(=O)c1c(NCc2cccnc2)cc[n-]c1=O (optimized conformer: 56.93945673746891 kcal/mol)

>  <smiles>  (68) 
COc1ccc(Cl)cc1NC(=O)c1c(NCc2cccnc2)cc[nH]c1=O

>  <score_type>  (68) 
oracle

>  <origin>  (68) 
adg

>  <m_score__min__energy>  (68) 
-11.02

>  <m_primary>  (68) 
energy

$$$$
68:0
     RDKit          3D

 51 53  0  0  0  0  0  0  0  0999 V2000
   55.0580   26.3430   46.0010 N   0  0  0  0  0  0  0  0  0  0  0  0
   56.7780   26.4670   45.8910 S   0  0  0  0  0  0  0  0  0  0  0  0
   57.2670   25.6020   44.7640 O   0  0  0  0  0  0  0  0  0  0  0  0
   57.3980   25.9880   47.1740 O   0  0  0  0  0  0  0  0  0  0  0  0
   57.2270   28.1470   45.6140 C   0  0  0  0  0  0  0  0  0  0  0  0
   56.9630   28.7660   44.3840 C   0  0  0  0  0  0  0  0  0  0  0  0
   57.3170   30.1030   44.1790 C   0  0  0  0  0  0  0  0  0  0  0  0
   57.9280   30.8400   45.2060 C   0  0  0  0  0  0  0  0  0  0  0  0
   58.3390   32.2660   44.9670 C   0  0  0  0  0  0  0  0  0  0  0  0
   59.5320   32.5800   45.7490 N   0  0  0  0  0  0  0  0  0  0  0  0
   59.5660   33.6570   46.6990 C   0  0  0  0  0  0  0  0  0  0  0  0
   58.5230   34.3340   46.9170 O   0  0  0  0  0  0  0  0  0  0  0  0
   60.7660   33.9500   47.4360 N   0  0  0  0  0  0  0  0  0  0  0  0
   62.0930   33.8150   46.8180 C   0  0  0  0  0  0  0  0  0  0  0  0
   63.0480   33.0200   47.7260 C   0  0  0  0  0  0  0  0  0  0  0  0
   62.7640   33.2310   49.2440 C   0  0  0  0  0  0  0  0  0  0  0  0
   63.9700   33.0970   50.1040 N   0  0  0  0  0  0  0  0  0  0  0  0
   65.2560   32.9390   49.3840 C   0  0  0  0  0  0  0  0  0  0  0  0
   66.4160   32.7180   50.3540 C   0  0  0  0  0  0  0  0  0  0  0  0
   66.3370   31.0770   51.1610 S   0  0  0  0  0  0  0  0  0  0  0  0
   64.5200   30.8600   51.1360 C   0  0  0  0  0  0  0  0  0  0  0  0
   63.7750   32.1930   51.2670 C   0  0  0  0  0  0  0  0  0  0  0  0
   62.0090   34.5510   49.5040 C   0  0  0  0  0  0  0  0  0  0  0  0
   60.6520   34.5280   48.7850 C   0  0  0  0  0  0  0  0  0  0  0  0
   58.1950   30.2160   46.4350 C   0  0  0  0  0  0  0  0  0  0  0  0
   57.8430   28.8780   46.6380 C   0  0  0  0  0  0  0  0  0  0  0  0
   54.7410   27.0730   46.6790 H   0  0  0  0  0  0  0  0  0  0  0  0
   56.4758   28.1980   43.5777 H   0  0  0  0  0  0  0  0  0  0  0  0
   57.1158   30.5798   43.2083 H   0  0  0  0  0  0  0  0  0  0  0  0
   58.5563   32.4082   43.8981 H   0  0  0  0  0  0  0  0  0  0  0  0
   57.5204   32.9338   45.2734 H   0  0  0  0  0  0  0  0  0  0  0  0
   60.3200   31.8960   45.7230 H   0  0  0  0  0  0  0  0  0  0  0  0
   61.9902   33.2896   45.8571 H   0  0  0  0  0  0  0  0  0  0  0  0
   62.5117   34.8207   46.6655 H   0  0  0  0  0  0  0  0  0  0  0  0
   62.9411   31.9498   47.4951 H   0  0  0  0  0  0  0  0  0  0  0  0
   64.0673   33.3835   47.5289 H   0  0  0  0  0  0  0  0  0  0  0  0
   62.1029   32.4039   49.5421 H   0  0  0  0  0  0  0  0  0  0  0  0
   65.1841   32.0732   48.7092 H   0  0  0  0  0  0  0  0  0  0  0  0
   65.4504   33.8614   48.8171 H   0  0  0  0  0  0  0  0  0  0  0  0
   67.3623   32.7947   49.7984 H   0  0  0  0  0  0  0  0  0  0  0  0
   66.3508   33.4850   51.1398 H   0  0  0  0  0  0  0  0  0  0  0  0
   64.2331   30.3859   50.1858 H   0  0  0  0  0  0  0  0  0  0  0  0
   64.2433   30.2330   51.9964 H   0  0  0  0  0  0  0  0  0  0  0  0
   62.7000   31.9827   51.3683 H   0  0  0  0  0  0  0  0  0  0  0  0
   64.1841   32.7073   52.1491 H   0  0  0  0  0  0  0  0  0  0  0  0
   61.8468   34.6714   50.5853 H   0  0  0  0  0  0  0  0  0  0  0  0
   62.6070   35.3914   49.1216 H   0  0  0  0  0  0  0  0  0  0  0  0
   59.9456   33.9245   49.3739 H   0  0  0  0  0  0  0  0  0  0  0  0
   60.2954   35.5640   48.6876 H   0  0  0  0  0  0  0  0  0  0  0  0
   58.6833   30.7822   47.2419 H   0  0  0  0  0  0  0  0  0  0  0  0
   58.0506   28.3976   47.6055 H   0  0  0  0  0  0  0  0  0  0  0  0
  1  2  1  0
  2  3  2  0
  2  4  2  0
  2  5  1  0
  5  6  2  0
  6  7  1  0
  7  8  2  0
  8  9  1  0
  9 10  1  0
 10 11  1  0
 11 12  2  0
 11 13  1  0
 13 14  1  0
 14 15  1  0
 15 16  1  0
 16 17  1  0
 17 18  1  0
 18 19  1  0
 19 20  1  0
 20 21  1  0
 21 22  1  0
 16 23  1  0
 23 24  1  0
  8 25  1  0
 25 26  2  0
 26  5  1  0
 24 13  1  0
 22 17  1  0
  1 27  1  0
  6 28  1  0
  7 29  1  0
  9 30  1  0
  9 31  1  0
 10 32  1  0
 14 33  1  0
 14 34  1  0
 15 35  1  0
 15 36  1  0
 16 37  1  0
 18 38  1  0
 18 39  1  0
 19 40  1  0
 19 41  1  0
 21 42  1  0
 21 43  1  0
 22 44  1  0
 22 45  1  0
 23 46  1  0
 23 47  1  0
 24 48  1  0
 24 49  1  0
 25 50  1  0
 26 51  1  0
M  CHG  1   1  -1
M  END
>  <UniqueID>  (69) 
67

>  <SMILES>  (69) 
[NH-]S(=O)(=O)c1ccc(CNC(=O)N2CCC(N3CCSCC3)CC2)cc1

>  <Energy>  (69) 
64.1573289218001

>  <Genealogy>  (69) 
[NH-]S(=O)(=O)c1ccc(CNC(=O)N2CCC(N3CCSCC3)CC2)cc1 (protonated)
[NH-]S(=O)(=O)c1ccc(CNC(=O)N2CCC(N3CCSCC3)CC2)cc1 (3D coordinates assigned)
[NH-]S(=O)(=O)c1ccc(CNC(=O)N2CCC(N3CCSCC3)CC2)cc1 (nonaromatic ring conformer: 64.1573289218001 kcal/mol)

>  <smiles>  (69) 
NS(=O)(=O)c1ccc(CNC(=O)N2CCC(N3CCSCC3)CC2)cc1

>  <score_type>  (69) 
oracle

>  <origin>  (69) 
adg

>  <m_score__min__energy>  (69) 
-11.31

>  <m_primary>  (69) 
energy

$$$$
69:0
     RDKit          3D

 68 70  0  0  0  0  0  0  0  0999 V2000
   63.3450   33.9090   46.3610 C   0  0  0  0  0  0  0  0  0  0  0  0
   63.4380   34.0990   47.8750 C   0  0  0  0  0  0  0  0  0  0  0  0
   63.9980   32.9040   48.5490 N   0  0  0  0  0  0  0  0  0  0  0  0
   63.4640   31.6130   48.0480 C   0  0  0  0  0  0  0  0  0  0  0  0
   62.0640   31.2570   48.5850 C   0  0  0  0  0  0  0  0  0  0  0  0
   61.0910   31.2600   47.4940 N   0  0  0  0  0  0  0  0  0  0  0  0
   60.3330   32.4270   47.1430 C   0  0  0  0  0  0  0  0  0  0  0  0
   60.5190   33.5110   47.7630 O   0  0  0  0  0  0  0  0  0  0  0  0
   59.3560   32.3800   45.9920 C   0  0  2  0  0  0  0  0  0  0  0  0
   59.2800   33.7510   45.2760 C   0  0  0  0  0  0  0  0  0  0  0  0
   57.9830   34.4900   45.5990 C   0  0  0  0  0  0  0  0  0  0  0  0
   56.7540   33.6440   45.2130 C   0  0  0  0  0  0  0  0  0  0  0  0
   56.9010   32.1900   45.4960 N   0  0  0  0  0  0  0  0  0  0  0  0
   57.0170   31.3710   44.2700 C   0  0  0  0  0  0  0  0  0  0  0  0
   57.4270   29.9630   44.6240 C   0  0  0  0  0  0  0  0  0  0  0  0
   58.7780   29.5990   44.5260 C   0  0  0  0  0  0  0  0  0  0  0  0
   59.1920   28.3080   44.8610 C   0  0  0  0  0  0  0  0  0  0  0  0
   58.2670   27.3450   45.3080 C   0  0  0  0  0  0  0  0  0  0  0  0
   58.6970   26.0040   45.6580 N   0  0  0  0  0  0  0  0  0  0  0  0
   57.8720   24.8420   45.3090 C   0  0  0  0  0  0  0  0  0  0  0  0
   59.9690   25.7890   46.3590 C   0  0  0  0  0  0  0  0  0  0  0  0
   56.9100   27.7170   45.4050 C   0  0  0  0  0  0  0  0  0  0  0  0
   56.4920   29.0090   45.0680 C   0  0  0  0  0  0  0  0  0  0  0  0
   55.1430   29.3330   45.1820 O   0  0  0  0  0  0  0  0  0  0  0  0
   57.9680   31.8880   46.4730 C   0  0  0  0  0  0  0  0  0  0  0  0
   63.8930   33.0140   50.0200 C   0  0  0  0  0  0  0  0  0  0  0  0
   65.2380   33.3360   50.6140 C   0  0  0  0  0  0  0  0  0  0  0  0
   66.3950   32.7170   50.1210 C   0  0  0  0  0  0  0  0  0  0  0  0
   67.6430   33.0380   50.6590 C   0  0  0  0  0  0  0  0  0  0  0  0
   67.7230   33.9770   51.6880 C   0  0  0  0  0  0  0  0  0  0  0  0
   66.5930   34.5720   52.1560 N   0  0  0  0  0  0  0  0  0  0  0  0
   65.3660   34.2770   51.6490 C   0  0  0  0  0  0  0  0  0  0  0  0
   62.8711   32.9409   46.1414 H   0  0  0  0  0  0  0  0  0  0  0  0
   62.7418   34.7195   45.9261 H   0  0  0  0  0  0  0  0  0  0  0  0
   64.3552   33.9298   45.9261 H   0  0  0  0  0  0  0  0  0  0  0  0
   64.0861   34.9625   48.0858 H   0  0  0  0  0  0  0  0  0  0  0  0
   62.4210   34.2626   48.2609 H   0  0  0  0  0  0  0  0  0  0  0  0
   63.4095   31.6649   46.9506 H   0  0  0  0  0  0  0  0  0  0  0  0
   64.1479   30.8286   48.4044 H   0  0  0  0  0  0  0  0  0  0  0  0
   62.0936   30.2574   49.0432 H   0  0  0  0  0  0  0  0  0  0  0  0
   61.7657   32.0043   49.3351 H   0  0  0  0  0  0  0  0  0  0  0  0
   60.9960   30.3950   46.9150 H   0  0  0  0  0  0  0  0  0  0  0  0
   59.7183   31.6525   45.2508 H   0  0  0  0  0  0  0  0  0  0  0  0
   60.1312   34.3686   45.5986 H   0  0  0  0  0  0  0  0  0  0  0  0
   59.3095   33.5716   44.1911 H   0  0  0  0  0  0  0  0  0  0  0  0
   57.9491   34.7022   46.6778 H   0  0  0  0  0  0  0  0  0  0  0  0
   57.9597   35.4256   45.0211 H   0  0  0  0  0  0  0  0  0  0  0  0
   55.8865   34.0190   45.7758 H   0  0  0  0  0  0  0  0  0  0  0  0
   56.6311   33.7434   44.1244 H   0  0  0  0  0  0  0  0  0  0  0  0
   56.0456   31.3483   43.7544 H   0  0  0  0  0  0  0  0  0  0  0  0
   57.7796   31.8135   43.6123 H   0  0  0  0  0  0  0  0  0  0  0  0
   59.5179   30.3368   44.1823 H   0  0  0  0  0  0  0  0  0  0  0  0
   60.2553   28.0397   44.7745 H   0  0  0  0  0  0  0  0  0  0  0  0
   57.5230   24.3505   46.2291 H   0  0  0  0  0  0  0  0  0  0  0  0
   57.0049   25.1721   44.7181 H   0  0  0  0  0  0  0  0  0  0  0  0
   58.4696   24.1322   44.7181 H   0  0  0  0  0  0  0  0  0  0  0  0
   59.7984   25.8178   47.4453 H   0  0  0  0  0  0  0  0  0  0  0  0
   60.3811   24.8085   46.0784 H   0  0  0  0  0  0  0  0  0  0  0  0
   60.6805   26.5796   46.0784 H   0  0  0  0  0  0  0  0  0  0  0  0
   56.1695   26.9806   45.7506 H   0  0  0  0  0  0  0  0  0  0  0  0
   57.7270   32.3827   47.4255 H   0  0  0  0  0  0  0  0  0  0  0  0
   58.0187   30.7956   46.5918 H   0  0  0  0  0  0  0  0  0  0  0  0
   63.1822   33.8139   50.2748 H   0  0  0  0  0  0  0  0  0  0  0  0
   63.5407   32.0550   50.4276 H   0  0  0  0  0  0  0  0  0  0  0  0
   66.3198   31.9779   49.3098 H   0  0  0  0  0  0  0  0  0  0  0  0
   68.5540   32.5554   50.2754 H   0  0  0  0  0  0  0  0  0  0  0  0
   68.7004   34.2362   52.1209 H   0  0  0  0  0  0  0  0  0  0  0  0
   64.4718   34.7764   52.0503 H   0  0  0  0  0  0  0  0  0  0  0  0
  1  2  1  0
  2  3  1  0
  3  4  1  0
  4  5  1  0
  5  6  1  0
  6  7  1  0
  7  8  2  0
  7  9  1  0
  9 10  1  0
 10 11  1  0
 11 12  1  0
 12 13  1  0
 13 14  1  0
 14 15  1  0
 15 16  2  0
 16 17  1  0
 17 18  2  0
 18 19  1  0
 19 20  1  0
 19 21  1  0
 18 22  1  0
 22 23  2  0
 23 24  1  0
 13 25  1  0
  3 26  1  0
 26 27  1  0
 27 28  2  0
 28 29  1  0
 29 30  2  0
 30 31  1  0
 31 32  2  0
 25  9  1  0
 32 27  1  0
 23 15  1  0
  1 33  1  0
  1 34  1  0
  1 35  1  0
  2 36  1  0
  2 37  1  0
  4 38  1  0
  4 39  1  0
  5 40  1  0
  5 41  1  0
  6 42  1  0
  9 43  1  6
 10 44  1  0
 10 45  1  0
 11 46  1  0
 11 47  1  0
 12 48  1  0
 12 49  1  0
 14 50  1  0
 14 51  1  0
 16 52  1  0
 17 53  1  0
 20 54  1  0
 20 55  1  0
 20 56  1  0
 21 57  1  0
 21 58  1  0
 21 59  1  0
 22 60  1  0
 25 61  1  0
 25 62  1  0
 26 63  1  0
 26 64  1  0
 28 65  1  0
 29 66  1  0
 30 67  1  0
 32 68  1  0
M  CHG  1  24  -1
M  END
>  <UniqueID>  (70) 
68

>  <SMILES>  (70) 
CCN(CCNC(=O)[C@@H]1CCCN(Cc2ccc(N(C)C)cc2[O-])C1)Cc1cccnc1

>  <Energy>  (70) 
79.63878921392265

>  <Genealogy>  (70) 
CCN(CCNC(=O)C1CCCN(Cc2ccc(N(C)C)cc2[O-])C1)Cc1cccnc1 (protonated)
CCN(CCNC(=O)[C@@H]1CCCN(Cc2ccc(N(C)C)cc2[O-])C1)Cc1cccnc1 (chirality)
CCN(CCNC(=O)[C@@H]1CCCN(Cc2ccc(N(C)C)cc2[O-])C1)Cc1cccnc1 (3D coordinates assigned)
CCN(CCNC(=O)[C@@H]1CCCN(Cc2ccc(N(C)C)cc2[O-])C1)Cc1cccnc1 (nonaromatic ring conformer: 79.63878921392265 kcal/mol)

>  <smiles>  (70) 
CCN(CCNC(=O)C1CCCN(Cc2ccc(N(C)C)cc2O)C1)Cc1cccnc1

>  <score_type>  (70) 
oracle

>  <origin>  (70) 
adg

>  <m_score__min__energy>  (70) 
-12.32

>  <m_primary>  (70) 
energy

$$$$
70:0
     RDKit          3D

 38 40  0  0  0  0  0  0  0  0999 V2000
   58.0160   22.0910   45.2700 C   0  0  0  0  0  0  0  0  0  0  0  0
   58.3220   23.3850   45.3860 C   0  0  0  0  0  0  0  0  0  0  0  0
   59.3690   23.7970   46.0610 O   0  0  0  0  0  0  0  0  0  0  0  0
   59.4350   25.1050   45.9960 C   0  0  0  0  0  0  0  0  0  0  0  0
   58.3900   25.5940   45.2340 C   0  0  0  0  0  0  0  0  0  0  0  0
   58.3660   26.9770   44.7120 C   0  0  0  0  0  0  0  0  0  0  0  0
   57.8390   27.1950   43.5890 O   0  0  0  0  0  0  0  0  0  0  0  0
   58.8190   28.1490   45.5390 C   0  0  0  0  0  0  0  0  0  0  0  0
   57.4100   29.2120   46.0120 S   0  0  0  0  0  0  0  0  0  0  0  0
   57.4240   30.1750   44.4950 C   0  0  0  0  0  0  0  0  0  0  0  0
   56.6630   29.7570   43.3980 C   0  0  0  0  0  0  0  0  0  0  0  0
   56.6200   30.5360   42.2370 C   0  0  0  0  0  0  0  0  0  0  0  0
   57.3380   31.7400   42.1670 C   0  0  0  0  0  0  0  0  0  0  0  0
   57.2970   32.5700   40.9190 C   0  0  0  0  0  0  0  0  0  0  0  0
   58.1400   32.1280   43.2510 C   0  0  0  0  0  0  0  0  0  0  0  0
   58.1850   31.3460   44.4090 C   0  0  0  0  0  0  0  0  0  0  0  0
   57.6270   24.4800   44.8630 C   0  0  0  0  0  0  0  0  0  0  0  0
   56.4470   24.4330   44.2090 C   0  0  0  0  0  0  0  0  0  0  0  0
   55.1430   24.1590   44.8400 C   0  0  0  0  0  0  0  0  0  0  0  0
   54.4260   23.0320   44.6800 N   0  0  0  0  0  0  0  0  0  0  0  0
   53.2920   23.2830   45.3680 C   0  0  0  0  0  0  0  0  0  0  0  0
   52.3600   22.4430   45.4670 O   0  0  0  0  0  0  0  0  0  0  0  0
   53.2330   24.5050   45.9390 N   0  0  0  0  0  0  0  0  0  0  0  0
   54.4080   25.0490   45.5850 C   0  0  0  0  0  0  0  0  0  0  0  0
   54.8020   26.3340   45.9370 O   0  0  0  0  0  0  0  0  0  0  0  0
   57.1294   21.7849   44.6954 H   0  0  0  0  0  0  0  0  0  0  0  0
   58.6505   21.3307   45.7490 H   0  0  0  0  0  0  0  0  0  0  0  0
   60.2080   25.7224   46.4769 H   0  0  0  0  0  0  0  0  0  0  0  0
   59.3086   27.7763   46.4508 H   0  0  0  0  0  0  0  0  0  0  0  0
   59.5194   28.7478   44.9382 H   0  0  0  0  0  0  0  0  0  0  0  0
   56.0978   28.8147   43.4485 H   0  0  0  0  0  0  0  0  0  0  0  0
   56.0214   30.2039   41.3759 H   0  0  0  0  0  0  0  0  0  0  0  0
   57.2444   33.6351   41.1886 H   0  0  0  0  0  0  0  0  0  0  0  0
   58.2053   32.3862   40.3264 H   0  0  0  0  0  0  0  0  0  0  0  0
   56.4112   32.2976   40.3264 H   0  0  0  0  0  0  0  0  0  0  0  0
   58.7355   33.0508   43.1894 H   0  0  0  0  0  0  0  0  0  0  0  0
   58.8197   31.6518   45.2538 H   0  0  0  0  0  0  0  0  0  0  0  0
   56.4593   24.6126   43.1238 H   0  0  0  0  0  0  0  0  0  0  0  0
  1  2  2  0
  2  3  1  0
  3  4  1  0
  4  5  2  0
  5  6  1  0
  6  7  2  0
  6  8  1  0
  8  9  1  0
  9 10  1  0
 10 11  2  0
 11 12  1  0
 12 13  2  0
 13 14  1  0
 13 15  1  0
 15 16  2  0
  5 17  1  0
 17 18  2  3
 18 19  1  0
 19 20  1  0
 20 21  1  0
 21 22  2  0
 21 23  1  0
 23 24  1  0
 24 25  1  0
 17  2  1  0
 24 19  2  0
 16 10  1  0
  1 26  1  0
  1 27  1  0
  4 28  1  0
  8 29  1  0
  8 30  1  0
 11 31  1  0
 12 32  1  0
 14 33  1  0
 14 34  1  0
 14 35  1  0
 15 36  1  0
 16 37  1  0
 18 38  1  0
M  CHG  3  20  -1  23  -1  25  -1
M  END
>  <UniqueID>  (71) 
69

>  <SMILES>  (71) 
C=c1occ(C(=O)CSc2ccc(C)cc2)c1=Cc1[n-]c(=O)[n-]c1[O-]

>  <Energy>  (71) 
102.99069977478825

>  <Genealogy>  (71) 
C=c1occ(C(=O)CSc2ccc(C)cc2)c1=Cc1[n-]c(=O)[n-]c1[O-] (protonated)
C=c1occ(C(=O)CSc2ccc(C)cc2)c1=Cc1[n-]c(=O)[n-]c1[O-] (3D coordinates assigned)
C=c1occ(C(=O)CSc2ccc(C)cc2)c1=Cc1[n-]c(=O)[n-]c1[O-] (optimized conformer: 102.99069977478825 kcal/mol)

>  <smiles>  (71) 
C=c1occ(C(=O)CSc2ccc(C)cc2)c1=Cc1[nH]c(=O)[nH]c1O

>  <score_type>  (71) 
oracle

>  <origin>  (71) 
adg

>  <m_score__min__energy>  (71) 
-16.850000000000001

>  <m_primary>  (71) 
energy

$$$$
71:0
     RDKit          3D

 59 63  0  0  0  0  0  0  0  0999 V2000
   60.5930   28.4170   50.0670 C   0  0  0  0  0  0  0  0  0  0  0  0
   59.9080   28.7520   48.9720 C   0  0  0  0  0  0  0  0  0  0  0  0
   59.4930   27.8550   48.0570 N   0  0  0  0  0  0  0  0  0  0  0  0
   58.8030   28.5370   47.1140 C   0  0  0  0  0  0  0  0  0  0  0  0
   58.2350   27.9680   46.0340 C   0  0  0  0  0  0  0  0  0  0  0  0
   57.2250   26.8900   46.1180 C   0  0  0  0  0  0  0  0  0  0  0  0
   55.9060   27.1280   45.7070 C   0  0  0  0  0  0  0  0  0  0  0  0
   55.5190   28.3840   45.2550 O   0  0  0  0  0  0  0  0  0  0  0  0
   54.9870   26.1270   45.7580 N   0  0  0  0  0  0  0  0  0  0  0  0
   55.3280   24.8850   46.1890 C   0  0  0  0  0  0  0  0  0  0  0  0
   54.4590   23.9770   46.2320 O   0  0  0  0  0  0  0  0  0  0  0  0
   56.6060   24.6210   46.5660 N   0  0  0  0  0  0  0  0  0  0  0  0
   57.5610   25.5870   46.5320 C   0  0  0  0  0  0  0  0  0  0  0  0
   58.7440   25.2970   46.8590 O   0  0  0  0  0  0  0  0  0  0  0  0
   58.7560   29.8930   47.4450 C   0  0  0  0  0  0  0  0  0  0  0  0
   58.2080   31.0290   46.6130 C   0  0  0  0  0  0  0  0  0  0  0  0
   59.0680   32.2520   46.7700 C   0  0  0  0  0  0  0  0  0  0  0  0
   58.4910   33.4980   47.0580 C   0  0  0  0  0  0  0  0  0  0  0  0
   59.2980   34.6210   47.2560 C   0  0  0  0  0  0  0  0  0  0  0  0
   60.6860   34.5100   47.1740 C   0  0  0  0  0  0  0  0  0  0  0  0
   61.2720   33.2760   46.8880 C   0  0  0  0  0  0  0  0  0  0  0  0
   62.6560   33.1810   46.8000 O   0  0  0  0  0  0  0  0  0  0  0  0
   60.4640   32.1480   46.6880 C   0  0  0  0  0  0  0  0  0  0  0  0
   59.4890   30.0280   48.6190 C   0  0  0  0  0  0  0  0  0  0  0  0
   59.7730   31.2880   49.3370 C   0  0  0  0  0  0  0  0  0  0  0  0
   58.8250   32.0840   49.5690 O   0  0  0  0  0  0  0  0  0  0  0  0
   61.1080   31.6240   49.7530 N   0  0  0  0  0  0  0  0  0  0  0  0
   61.3260   32.4450   50.9490 C   0  0  0  0  0  0  0  0  0  0  0  0
   62.2900   33.5910   50.6210 C   0  0  0  0  0  0  0  0  0  0  0  0
   63.5200   33.1380   49.9190 N   0  0  0  0  0  0  0  0  0  0  0  0
   64.7490   33.7580   50.4850 C   0  0  0  0  0  0  0  0  0  0  0  0
   65.4220   32.9320   51.5840 C   0  0  0  0  0  0  0  0  0  0  0  0
   66.1150   33.1050   50.2400 C   0  0  0  0  0  0  0  0  0  0  0  0
   63.5760   31.7000   49.5720 C   0  0  0  0  0  0  0  0  0  0  0  0
   62.2630   31.2410   48.9270 C   0  0  0  0  0  0  0  0  0  0  0  0
   60.9056   29.1945   50.7795 H   0  0  0  0  0  0  0  0  0  0  0  0
   60.8451   27.3633   50.2572 H   0  0  0  0  0  0  0  0  0  0  0  0
   59.6550   26.8240   48.0980 H   0  0  0  0  0  0  0  0  0  0  0  0
   58.5374   28.3229   45.0377 H   0  0  0  0  0  0  0  0  0  0  0  0
   58.1928   30.7294   45.5547 H   0  0  0  0  0  0  0  0  0  0  0  0
   57.1882   31.2623   46.9530 H   0  0  0  0  0  0  0  0  0  0  0  0
   57.3972   33.5912   47.1283 H   0  0  0  0  0  0  0  0  0  0  0  0
   58.8377   35.5953   47.4771 H   0  0  0  0  0  0  0  0  0  0  0  0
   61.3189   35.3952   47.3348 H   0  0  0  0  0  0  0  0  0  0  0  0
   63.2390   33.1860   47.6290 H   0  0  0  0  0  0  0  0  0  0  0  0
   60.9278   31.1757   46.4655 H   0  0  0  0  0  0  0  0  0  0  0  0
   60.3654   32.8608   51.2870 H   0  0  0  0  0  0  0  0  0  0  0  0
   61.7593   31.8213   51.7447 H   0  0  0  0  0  0  0  0  0  0  0  0
   61.7671   34.3148   49.9786 H   0  0  0  0  0  0  0  0  0  0  0  0
   62.6040   34.0379   51.5758 H   0  0  0  0  0  0  0  0  0  0  0  0
   64.3745   34.7838   50.3529 H   0  0  0  0  0  0  0  0  0  0  0  0
   65.8245   33.4314   52.4777 H   0  0  0  0  0  0  0  0  0  0  0  0
   65.1247   32.0693   52.1984 H   0  0  0  0  0  0  0  0  0  0  0  0
   67.0171   33.7298   50.1631 H   0  0  0  0  0  0  0  0  0  0  0  0
   66.5243   32.4200   49.4828 H   0  0  0  0  0  0  0  0  0  0  0  0
   64.4023   31.5320   48.8656 H   0  0  0  0  0  0  0  0  0  0  0  0
   63.7353   31.1220   50.4942 H   0  0  0  0  0  0  0  0  0  0  0  0
   62.1668   31.7077   47.9356 H   0  0  0  0  0  0  0  0  0  0  0  0
   62.2813   30.1449   48.8367 H   0  0  0  0  0  0  0  0  0  0  0  0
  1  2  2  0
  2  3  1  0
  3  4  1  0
  4  5  2  3
  5  6  1  0
  6  7  2  0
  7  8  1  0
  7  9  1  0
  9 10  1  0
 10 11  2  0
 10 12  1  0
 12 13  1  0
 13 14  2  0
  4 15  1  0
 15 16  1  0
 16 17  1  0
 17 18  2  0
 18 19  1  0
 19 20  2  0
 20 21  1  0
 21 22  1  0
 21 23  2  0
 15 24  2  0
 24 25  1  0
 25 26  2  0
 25 27  1  0
 27 28  1  0
 28 29  1  0
 29 30  1  0
 30 31  1  0
 31 32  1  0
 32 33  1  0
 30 34  1  0
 34 35  1  0
 24  2  1  0
 35 27  1  0
 13  6  1  0
 23 17  1  0
 33 31  1  0
  1 36  1  0
  1 37  1  0
  3 38  1  0
  5 39  1  0
 16 40  1  0
 16 41  1  0
 18 42  1  0
 19 43  1  0
 20 44  1  0
 22 45  1  0
 23 46  1  0
 28 47  1  0
 28 48  1  0
 29 49  1  0
 29 50  1  0
 31 51  1  0
 32 52  1  0
 32 53  1  0
 33 54  1  0
 33 55  1  0
 34 56  1  0
 34 57  1  0
 35 58  1  0
 35 59  1  0
M  CHG  3   8  -1   9  -1  12  -1
M  END
>  <UniqueID>  (72) 
70

>  <SMILES>  (72) 
C=c1[nH]c(=Cc2c([O-])[n-]c(=O)[n-]c2=O)c(Cc2cccc(O)c2)c1C(=O)N1CCN(C2CC2)CC1

>  <Energy>  (72) 
382.7786019715066

>  <Genealogy>  (72) 
C=c1[nH]c(=Cc2c([O-])[n-]c(=O)[n-]c2=O)c(Cc2cccc(O)c2)c1C(=O)N1CCN(C2CC2)CC1 (protonated)
C=c1[nH]c(=Cc2c([O-])[n-]c(=O)[n-]c2=O)c(Cc2cccc(O)c2)c1C(=O)N1CCN(C2CC2)CC1 (3D coordinates assigned)
C=c1[nH]c(=Cc2c([O-])[n-]c(=O)[n-]c2=O)c(Cc2cccc(O)c2)c1C(=O)N1CCN(C2CC2)CC1 (nonaromatic ring conformer: 382.7786019715066 kcal/mol)

>  <smiles>  (72) 
C=c1[nH]c(=Cc2c(O)[nH]c(=O)[nH]c2=O)c(Cc2cccc(O)c2)c1C(=O)N1CCN(C2CC2)CC1

>  <score_type>  (72) 
oracle

>  <origin>  (72) 
adg

>  <m_score__min__energy>  (72) 
-16.210000000000001

>  <m_primary>  (72) 
energy

$$$$
72:0
     RDKit          3D

 58 61  0  0  0  0  0  0  0  0999 V2000
   57.4240   31.3360   42.7370 O   0  0  0  0  0  0  0  0  0  0  0  0
   56.7510   30.9600   43.7350 C   0  0  0  0  0  0  0  0  0  0  0  0
   56.2110   29.5550   43.7560 C   0  0  0  0  0  0  0  0  0  0  0  0
   57.1700   28.5910   44.4620 C   0  0  0  0  0  0  0  0  0  0  0  0
   57.6420   29.1690   45.7270 N   0  0  0  0  0  0  0  0  0  0  0  0
   59.3810   29.1430   45.8140 S   0  0  0  0  0  0  0  0  0  0  0  0
   59.9300   30.4830   45.4200 O   0  0  0  0  0  0  0  0  0  0  0  0
   59.9350   28.0970   44.8900 O   0  0  0  0  0  0  0  0  0  0  0  0
   59.8760   28.7800   47.4560 C   0  0  0  0  0  0  0  0  0  0  0  0
   60.1890   27.5090   47.9300 C   0  0  0  0  0  0  0  0  0  0  0  0
   60.4810   27.6980   49.2650 C   0  0  0  0  0  0  0  0  0  0  0  0
   60.8310   26.7800   50.2530 C   0  0  0  0  0  0  0  0  0  0  0  0
   61.0580   27.2740   51.5530 C   0  0  0  0  0  0  0  0  0  0  0  0
   60.9340   28.6590   51.8300 C   0  0  0  0  0  0  0  0  0  0  0  0
   60.5750   29.5590   50.8090 C   0  0  0  0  0  0  0  0  0  0  0  0
   60.3500   29.0390   49.5310 C   0  0  0  0  0  0  0  0  0  0  0  0
   59.9800   29.7130   48.4310 N   0  0  0  0  0  0  0  0  0  0  0  0
   56.6480   31.8430   44.8630 N   0  0  0  0  0  0  0  0  0  0  0  0
   57.6800   32.6770   45.4070 C   0  0  0  0  0  0  0  0  0  0  0  0
   58.0850   33.8040   44.6840 C   0  0  0  0  0  0  0  0  0  0  0  0
   59.0200   34.6900   45.2230 C   0  0  0  0  0  0  0  0  0  0  0  0
   59.5530   34.4580   46.4920 C   0  0  0  0  0  0  0  0  0  0  0  0
   59.1530   33.3350   47.2310 C   0  0  0  0  0  0  0  0  0  0  0  0
   59.8520   33.0280   48.8250 S   0  0  0  0  0  0  0  0  0  0  0  0
   58.8730   32.2240   49.6210 O   0  0  0  0  0  0  0  0  0  0  0  0
   60.0090   34.3510   49.5120 O   0  0  0  0  0  0  0  0  0  0  0  0
   61.3800   32.1590   48.8010 N   0  0  0  0  0  0  0  0  0  0  0  0
   62.3890   32.7590   49.6950 C   0  0  0  0  0  0  0  0  0  0  0  0
   63.0540   34.0020   49.0730 C   0  0  0  0  0  0  0  0  0  0  0  0
   63.3990   33.8170   47.5840 C   0  0  0  0  0  0  0  0  0  0  0  0
   63.2820   32.3570   47.1340 C   0  0  0  0  0  0  0  0  0  0  0  0
   61.8800   31.7990   47.4480 C   0  0  0  0  0  0  0  0  0  0  0  0
   58.2060   32.4550   46.6910 C   0  0  0  0  0  0  0  0  0  0  0  0
   55.2471   29.5512   44.2860 H   0  0  0  0  0  0  0  0  0  0  0  0
   56.0896   29.2182   42.7159 H   0  0  0  0  0  0  0  0  0  0  0  0
   56.6461   27.6462   44.6690 H   0  0  0  0  0  0  0  0  0  0  0  0
   58.0363   28.4093   43.8089 H   0  0  0  0  0  0  0  0  0  0  0  0
   57.3610   30.1750   45.7540 H   0  0  0  0  0  0  0  0  0  0  0  0
   60.2008   26.5647   47.3659 H   0  0  0  0  0  0  0  0  0  0  0  0
   60.9267   25.7079   50.0263 H   0  0  0  0  0  0  0  0  0  0  0  0
   61.3338   26.5791   52.3599 H   0  0  0  0  0  0  0  0  0  0  0  0
   61.1193   29.0321   52.8481 H   0  0  0  0  0  0  0  0  0  0  0  0
   60.4748   30.6358   51.0101 H   0  0  0  0  0  0  0  0  0  0  0  0
   59.8010   30.7390   48.3450 H   0  0  0  0  0  0  0  0  0  0  0  0
   57.6646   33.9933   43.6853 H   0  0  0  0  0  0  0  0  0  0  0  0
   59.3369   35.5718   44.6469 H   0  0  0  0  0  0  0  0  0  0  0  0
   60.2891   35.1581   46.9138 H   0  0  0  0  0  0  0  0  0  0  0  0
   61.8991   33.0527   50.6351 H   0  0  0  0  0  0  0  0  0  0  0  0
   63.1740   32.0084   49.8693 H   0  0  0  0  0  0  0  0  0  0  0  0
   62.3650   34.8539   49.1701 H   0  0  0  0  0  0  0  0  0  0  0  0
   63.9979   34.1745   49.6109 H   0  0  0  0  0  0  0  0  0  0  0  0
   62.7095   34.4281   46.9831 H   0  0  0  0  0  0  0  0  0  0  0  0
   64.4440   34.1293   47.4407 H   0  0  0  0  0  0  0  0  0  0  0  0
   63.4592   32.2983   46.0500 H   0  0  0  0  0  0  0  0  0  0  0  0
   64.0293   31.7595   47.6766 H   0  0  0  0  0  0  0  0  0  0  0  0
   61.1747   32.1931   46.7015 H   0  0  0  0  0  0  0  0  0  0  0  0
   61.9573   30.7022   47.4164 H   0  0  0  0  0  0  0  0  0  0  0  0
   57.8722   31.5851   47.2756 H   0  0  0  0  0  0  0  0  0  0  0  0
  1  2  2  0
  2  3  1  0
  3  4  1  0
  4  5  1  0
  5  6  1  0
  6  7  2  0
  6  8  2  0
  6  9  1  0
  9 10  2  0
 10 11  1  0
 11 12  2  0
 12 13  1  0
 13 14  2  0
 14 15  1  0
 15 16  2  0
 16 17  1  0
  2 18  1  0
 18 19  1  0
 19 20  2  0
 20 21  1  0
 21 22  2  0
 22 23  1  0
 23 24  1  0
 24 25  2  0
 24 26  2  0
 24 27  1  0
 27 28  1  0
 28 29  1  0
 29 30  1  0
 30 31  1  0
 31 32  1  0
 23 33  2  0
 17  9  1  0
 33 19  1  0
 16 11  1  0
 32 27  1  0
  3 34  1  0
  3 35  1  0
  4 36  1  0
  4 37  1  0
  5 38  1  0
 10 39  1  0
 12 40  1  0
 13 41  1  0
 14 42  1  0
 15 43  1  0
 17 44  1  0
 20 45  1  0
 21 46  1  0
 22 47  1  0
 28 48  1  0
 28 49  1  0
 29 50  1  0
 29 51  1  0
 30 52  1  0
 30 53  1  0
 31 54  1  0
 31 55  1  0
 32 56  1  0
 32 57  1  0
 33 58  1  0
M  CHG  1  18  -1
M  END
>  <UniqueID>  (73) 
71

>  <SMILES>  (73) 
O=C(CCNS(=O)(=O)c1cc2ccccc2[nH]1)[N-]c1cccc(S(=O)(=O)N2CCCCC2)c1

>  <Energy>  (73) 
100.61841152009207

>  <Genealogy>  (73) 
O=C(CCNS(=O)(=O)c1cc2ccccc2[nH]1)[N-]c1cccc(S(=O)(=O)N2CCCCC2)c1 (protonated)
O=C(CCNS(=O)(=O)c1cc2ccccc2[nH]1)[N-]c1cccc(S(=O)(=O)N2CCCCC2)c1 (3D coordinates assigned)
O=C(CCNS(=O)(=O)c1cc2ccccc2[nH]1)[N-]c1cccc(S(=O)(=O)N2CCCCC2)c1 (nonaromatic ring conformer: 100.61841152009207 kcal/mol)

>  <smiles>  (73) 
O=C(CCNS(=O)(=O)c1cc2ccccc2[nH]1)Nc1cccc(S(=O)(=O)N2CCCCC2)c1

>  <score_type>  (73) 
oracle

>  <origin>  (73) 
adg

>  <m_score__min__energy>  (73) 
-12.56

>  <m_primary>  (73) 
energy

$$$$
73:0
     RDKit          3D

 45 48  0  0  0  0  0  0  0  0999 V2000
   56.5812   31.7595   43.4097 H   0  0  0  0  0  0  0  0  0  0  0  0
   57.0080   31.1320   44.2060 C   0  0  0  0  0  0  0  0  0  0  0  0
   57.5480   31.6840   45.2850 C   0  0  0  0  0  0  0  0  0  0  0  0
   57.6330   33.0120   45.5210 N   0  0  0  0  0  0  0  0  0  0  0  0
   58.2460   33.0910   46.7220 C   0  0  0  0  0  0  0  0  0  0  0  0
   58.5500   34.2270   47.3720 C   0  0  0  0  0  0  0  0  0  0  0  0
   57.7201   34.7741   47.8432 H   0  0  0  0  0  0  0  0  0  0  0  0
   59.8810   34.7950   47.5060 N   0  0  0  0  0  0  0  0  0  0  0  0
   59.6920   35.8260   47.4980 H   0  0  0  0  0  0  0  0  0  0  0  0
   60.5090   34.5560   48.8330 C   0  0  0  0  0  0  0  0  0  0  0  0
   59.7131   34.3011   49.5482 H   0  0  0  0  0  0  0  0  0  0  0  0
   61.0451   35.4801   49.0949 H   0  0  0  0  0  0  0  0  0  0  0  0
   61.5500   33.4290   48.8540 C   0  0  0  0  0  0  0  0  0  0  0  0
   61.0368   32.4606   48.7603 H   0  0  0  0  0  0  0  0  0  0  0  0
   62.1042   33.4745   49.8031 H   0  0  0  0  0  0  0  0  0  0  0  0
   62.4980   33.5830   47.7430 N   0  0  0  0  0  0  0  0  0  0  0  0
   63.5470   32.5560   47.8330 C   0  0  0  0  0  0  0  0  0  0  0  0
   63.7632   32.3444   48.8906 H   0  0  0  0  0  0  0  0  0  0  0  0
   63.2029   31.6360   47.3379 H   0  0  0  0  0  0  0  0  0  0  0  0
   64.4595   32.9195   47.3379 H   0  0  0  0  0  0  0  0  0  0  0  0
   61.7790   33.4560   46.4690 C   0  0  0  0  0  0  0  0  0  0  0  0
   61.2595   32.4868   46.4417 H   0  0  0  0  0  0  0  0  0  0  0  0
   62.5034   33.5216   45.6438 H   0  0  0  0  0  0  0  0  0  0  0  0
   60.7510   34.5840   46.3170 C   0  0  0  0  0  0  0  0  0  0  0  0
   60.1061   34.3468   45.4580 H   0  0  0  0  0  0  0  0  0  0  0  0
   61.3252   35.5125   46.1827 H   0  0  0  0  0  0  0  0  0  0  0  0
   58.5120   31.8090   47.1720 C   0  0  0  0  0  0  0  0  0  0  0  0
   59.0750   31.4910   48.2550 O   0  0  0  0  0  0  0  0  0  0  0  0
   58.0690   30.9290   46.2640 N   0  0  0  0  0  0  0  0  0  0  0  0
   58.1140   29.4670   46.2750 C   0  0  0  0  0  0  0  0  0  0  0  0
   59.1623   29.1390   46.3331 H   0  0  0  0  0  0  0  0  0  0  0  0
   57.5500   29.1036   47.1467 H   0  0  0  0  0  0  0  0  0  0  0  0
   57.4800   28.8950   45.0090 C   0  0  0  0  0  0  0  0  0  0  0  0
   57.4090   27.4210   44.7930 C   0  0  0  0  0  0  0  0  0  0  0  0
   57.8250   26.8370   43.5780 C   0  0  0  0  0  0  0  0  0  0  0  0
   58.2100   27.4768   42.7703 H   0  0  0  0  0  0  0  0  0  0  0  0
   57.7530   25.4540   43.3900 C   0  0  0  0  0  0  0  0  0  0  0  0
   58.0812   25.0128   42.4373 H   0  0  0  0  0  0  0  0  0  0  0  0
   57.2660   24.6300   44.4070 C   0  0  0  0  0  0  0  0  0  0  0  0
   57.1770   22.8950   44.1680 Cl  0  0  0  0  0  0  0  0  0  0  0  0
   56.8500   25.1920   45.6160 C   0  0  0  0  0  0  0  0  0  0  0  0
   56.4667   24.5444   46.4183 H   0  0  0  0  0  0  0  0  0  0  0  0
   56.9190   26.5740   45.8100 C   0  0  0  0  0  0  0  0  0  0  0  0
   56.5878   27.0065   46.7657 H   0  0  0  0  0  0  0  0  0  0  0  0
   56.9910   29.6990   44.0970 N   0  0  0  0  0  0  0  0  0  0  0  0
  1  2  1  0
  2  3  2  0
  3  4  1  0
  4  5  1  0
  5  6  2  0
  6  7  1  0
  6  8  1  0
  8  9  1  0
  8 10  1  0
 10 11  1  0
 10 12  1  0
 10 13  1  0
 13 14  1  0
 13 15  1  0
 13 16  1  0
 16 17  1  0
 17 18  1  0
 17 19  1  0
 17 20  1  0
 16 21  1  0
 21 22  1  0
 21 23  1  0
 21 24  1  0
 24 25  1  0
 24 26  1  0
  5 27  1  0
 27 28  2  0
 27 29  1  0
 29 30  1  0
 30 31  1  0
 30 32  1  0
 30 33  1  0
 33 34  1  0
 34 35  2  0
 35 36  1  0
 35 37  1  0
 37 38  1  0
 37 39  2  0
 39 40  1  0
 39 41  1  0
 41 42  1  0
 41 43  2  0
 43 44  1  0
 33 45  2  0
 45  2  1  0
 29  3  1  0
 43 34  1  0
 24  8  1  0
M  CHG  2   4  -1   8   1
M  END
>  <UniqueID>  (74) 
72

>  <SMILES>  (74) 
CN1CC[NH+](/C=c2\[n-]c3n(c2=O)CC(c2ccc(Cl)cc2)=NC=3)CC1

>  <Energy>  (74) 
100.07654959476766

>  <Genealogy>  (74) 
CN1CC[NH+](C=c2[n-]c3n(c2=O)CC(c2ccc(Cl)cc2)=NC=3)CC1 (protonated)
CN1CC[NH+](/C=c2\[n-]c3n(c2=O)CC(c2ccc(Cl)cc2)=NC=3)CC1 (cis-trans isomerization)
CN1CC[NH+](/C=c2\[n-]c3n(c2=O)CC(c2ccc(Cl)cc2)=NC=3)CC1 (3D coordinates assigned)
CN1CC[NH+](/C=c2\[n-]c3n(c2=O)CC(c2ccc(Cl)cc2)=NC=3)CC1 (nonaromatic ring conformer: 100.07654959476766 kcal/mol)

>  <smiles>  (74) 
CN1CCN(C=c2[nH]c3n(c2=O)CC(c2ccc(Cl)cc2)=NC=3)CC1

>  <score_type>  (74) 
oracle

>  <origin>  (74) 
adg

>  <m_score__min__energy>  (74) 
-7.4299999999999997

>  <m_primary>  (74) 
energy

$$$$
74:0
     RDKit          3D

 63 67  0  0  0  0  0  0  0  0999 V2000
   63.6310   32.6460   47.0430 C   0  0  0  0  0  0  0  0  0  0  0  0
   62.7790   31.6810   47.8150 C   0  0  0  0  0  0  0  0  0  0  0  0
   62.9700   31.5030   49.1950 C   0  0  0  0  0  0  0  0  0  0  0  0
   62.1970   30.5770   49.8970 C   0  0  0  0  0  0  0  0  0  0  0  0
   61.2370   29.8140   49.2300 C   0  0  0  0  0  0  0  0  0  0  0  0
   61.0340   29.9750   47.8490 C   0  0  0  0  0  0  0  0  0  0  0  0
   60.0380   29.1290   47.1410 C   0  0  0  0  0  0  0  0  0  0  0  0
   59.6330   27.9610   47.7080 N   0  0  0  0  0  0  0  0  0  0  0  0
   58.7090   27.1640   47.1110 C   0  0  0  0  0  0  0  0  0  0  0  0
   58.3010   25.9750   47.7360 C   0  0  0  0  0  0  0  0  0  0  0  0
   57.3370   25.1610   47.1440 C   0  0  0  0  0  0  0  0  0  0  0  0
   56.7670   25.5290   45.9280 C   0  0  0  0  0  0  0  0  0  0  0  0
   57.1650   26.7050   45.2890 C   0  0  0  0  0  0  0  0  0  0  0  0
   58.1570   27.5410   45.8600 C   0  0  0  0  0  0  0  0  0  0  0  0
   58.5870   28.7060   45.2540 N   0  0  0  0  0  0  0  0  0  0  0  0
   58.0530   29.1350   43.9410 C   0  0  0  0  0  0  0  0  0  0  0  0
   56.8320   29.9840   44.1230 C   0  0  0  0  0  0  0  0  0  0  0  0
   55.9140   29.9390   43.2630 O   0  0  0  0  0  0  0  0  0  0  0  0
   56.7670   30.8760   45.2440 N   0  0  0  0  0  0  0  0  0  0  0  0
   57.4920   32.0870   45.5090 C   0  0  0  0  0  0  0  0  0  0  0  0
   57.6810   33.1050   44.5520 C   0  0  0  0  0  0  0  0  0  0  0  0
   58.4020   34.2530   44.8840 C   0  0  0  0  0  0  0  0  0  0  0  0
   58.9230   34.4120   46.1690 C   0  0  0  0  0  0  0  0  0  0  0  0
   58.7240   33.4200   47.1370 C   0  0  0  0  0  0  0  0  0  0  0  0
   59.3380   33.6380   48.7780 S   0  0  0  0  0  0  0  0  0  0  0  0
   60.7800   33.2150   48.8290 O   0  0  0  0  0  0  0  0  0  0  0  0
   59.2680   35.0970   49.1430 O   0  0  0  0  0  0  0  0  0  0  0  0
   58.4210   32.7010   49.9390 N   0  0  0  0  0  0  0  0  0  0  0  0
   58.5440   31.2580   49.6480 C   0  0  0  0  0  0  0  0  0  0  0  0
   58.2340   30.4240   50.9000 C   0  0  0  0  0  0  0  0  0  0  0  0
   59.1150   30.6750   51.9900 O   0  0  0  0  0  0  0  0  0  0  0  0
   59.6910   31.9750   51.9720 C   0  0  0  0  0  0  0  0  0  0  0  0
   58.7840   33.0440   51.3310 C   0  0  0  0  0  0  0  0  0  0  0  0
   58.0170   32.2600   46.7970 C   0  0  0  0  0  0  0  0  0  0  0  0
   59.4940   29.5150   45.9010 C   0  0  0  0  0  0  0  0  0  0  0  0
   59.8280   30.6280   45.4020 O   0  0  0  0  0  0  0  0  0  0  0  0
   61.8170   30.9080   47.1450 C   0  0  0  0  0  0  0  0  0  0  0  0
   64.1921   33.2816   47.7438 H   0  0  0  0  0  0  0  0  0  0  0  0
   64.3359   32.0874   46.4097 H   0  0  0  0  0  0  0  0  0  0  0  0
   62.9893   33.2762   46.4097 H   0  0  0  0  0  0  0  0  0  0  0  0
   63.7311   32.0952   49.7241 H   0  0  0  0  0  0  0  0  0  0  0  0
   62.3447   30.4480   50.9794 H   0  0  0  0  0  0  0  0  0  0  0  0
   60.6356   29.0821   49.7891 H   0  0  0  0  0  0  0  0  0  0  0  0
   60.0490   27.6690   48.6230 H   0  0  0  0  0  0  0  0  0  0  0  0
   58.7451   25.6839   48.6993 H   0  0  0  0  0  0  0  0  0  0  0  0
   57.0265   24.2281   47.6372 H   0  0  0  0  0  0  0  0  0  0  0  0
   55.9989   24.8897   45.4683 H   0  0  0  0  0  0  0  0  0  0  0  0
   56.7032   26.9860   44.3310 H   0  0  0  0  0  0  0  0  0  0  0  0
   58.8216   29.7155   43.4098 H   0  0  0  0  0  0  0  0  0  0  0  0
   57.7819   28.2422   43.3584 H   0  0  0  0  0  0  0  0  0  0  0  0
   57.2595   32.9943   43.5420 H   0  0  0  0  0  0  0  0  0  0  0  0
   58.5605   35.0368   44.1287 H   0  0  0  0  0  0  0  0  0  0  0  0
   59.4915   35.3191   46.4220 H   0  0  0  0  0  0  0  0  0  0  0  0
   57.8361   30.9888   48.8503 H   0  0  0  0  0  0  0  0  0  0  0  0
   59.5756   31.0479   49.3293 H   0  0  0  0  0  0  0  0  0  0  0  0
   57.2078   30.6525   51.2237 H   0  0  0  0  0  0  0  0  0  0  0  0
   58.3620   29.3676   50.6212 H   0  0  0  0  0  0  0  0  0  0  0  0
   59.9033   32.2755   53.0086 H   0  0  0  0  0  0  0  0  0  0  0  0
   60.6019   31.9153   51.3583 H   0  0  0  0  0  0  0  0  0  0  0  0
   57.8634   33.1320   51.9266 H   0  0  0  0  0  0  0  0  0  0  0  0
   59.3389   33.9936   51.3130 H   0  0  0  0  0  0  0  0  0  0  0  0
   57.8716   31.4731   47.5518 H   0  0  0  0  0  0  0  0  0  0  0  0
   61.6746   31.0329   46.0614 H   0  0  0  0  0  0  0  0  0  0  0  0
  1  2  1  0
  2  3  2  0
  3  4  1  0
  4  5  2  0
  5  6  1  0
  6  7  1  0
  7  8  2  0
  8  9  1  0
  9 10  2  0
 10 11  1  0
 11 12  2  0
 12 13  1  0
 13 14  2  0
 14 15  1  0
 15 16  1  0
 16 17  1  0
 17 18  2  0
 17 19  1  0
 19 20  1  0
 20 21  2  0
 21 22  1  0
 22 23  2  0
 23 24  1  0
 24 25  1  0
 25 26  2  0
 25 27  2  0
 25 28  1  0
 28 29  1  0
 29 30  1  0
 30 31  1  0
 31 32  1  0
 32 33  1  0
 24 34  2  0
 15 35  1  0
 35 36  2  0
  6 37  2  0
 37  2  1  0
 35  7  1  0
 14  9  1  0
 34 20  1  0
 33 28  1  0
  1 38  1  0
  1 39  1  0
  1 40  1  0
  3 41  1  0
  4 42  1  0
  5 43  1  0
  8 44  1  0
 10 45  1  0
 11 46  1  0
 12 47  1  0
 13 48  1  0
 16 49  1  0
 16 50  1  0
 21 51  1  0
 22 52  1  0
 23 53  1  0
 29 54  1  0
 29 55  1  0
 30 56  1  0
 30 57  1  0
 32 58  1  0
 32 59  1  0
 33 60  1  0
 33 61  1  0
 34 62  1  0
 37 63  1  0
M  CHG  2   8   1  19  -1
M  END
>  <UniqueID>  (75) 
73

>  <SMILES>  (75) 
Cc1cccc(-c2[nH+]c3ccccc3n(CC(=O)[N-]c3cccc(S(=O)(=O)N4CCOCC4)c3)c2=O)c1

>  <Energy>  (75) 
99.06190493096334

>  <Genealogy>  (75) 
Cc1cccc(-c2[nH+]c3ccccc3n(CC(=O)[N-]c3cccc(S(=O)(=O)N4CCOCC4)c3)c2=O)c1 (protonated)
Cc1cccc(-c2[nH+]c3ccccc3n(CC(=O)[N-]c3cccc(S(=O)(=O)N4CCOCC4)c3)c2=O)c1 (3D coordinates assigned)
Cc1cccc(-c2[nH+]c3ccccc3n(CC(=O)[N-]c3cccc(S(=O)(=O)N4CCOCC4)c3)c2=O)c1 (nonaromatic ring conformer: 99.06190493096334 kcal/mol)

>  <smiles>  (75) 
Cc1cccc(-c2nc3ccccc3n(CC(=O)Nc3cccc(S(=O)(=O)N4CCOCC4)c3)c2=O)c1

>  <score_type>  (75) 
oracle

>  <origin>  (75) 
adg

>  <m_score__min__energy>  (75) 
-10.25

>  <m_primary>  (75) 
energy

$$$$
75:0
     RDKit          3D

 65 69  0  0  0  0  0  0  0  0999 V2000
   55.6000   25.2890   45.8800 C   0  0  0  0  0  0  0  0  0  0  0  0
   55.3270   26.7150   45.9920 N   0  0  0  0  0  0  0  0  0  0  0  0
   56.2740   27.7170   45.6110 C   0  0  0  0  0  0  0  0  0  0  0  0
   55.9000   28.7520   44.9980 O   0  0  0  0  0  0  0  0  0  0  0  0
   57.7140   27.5560   45.9770 C   0  0  2  0  0  0  0  0  0  0  0  0
   57.8530   27.0910   47.3010 O   0  0  0  0  0  0  0  0  0  0  0  0
   58.2120   28.4340   47.0640 C   0  0  1  0  0  0  0  0  0  0  0  0
   59.6910   28.6340   47.0730 C   0  0  0  0  0  0  0  0  0  0  0  0
   60.3180   28.6290   45.9800 O   0  0  0  0  0  0  0  0  0  0  0  0
   60.3890   28.8230   48.3080 N   0  0  0  0  0  0  0  0  0  0  0  0
   60.4180   30.0870   49.0440 C   0  0  2  0  0  0  0  0  0  0  0  0
   59.0030   30.7050   49.0440 C   0  0  0  0  0  0  0  0  0  0  0  0
   58.7170   31.5930   50.2300 C   0  0  0  0  0  0  0  0  0  0  0  0
   57.6830   31.2680   51.1250 C   0  0  0  0  0  0  0  0  0  0  0  0
   57.3900   32.1090   52.2010 C   0  0  0  0  0  0  0  0  0  0  0  0
   58.1270   33.2820   52.3930 C   0  0  0  0  0  0  0  0  0  0  0  0
   59.1540   33.6150   51.5080 C   0  0  0  0  0  0  0  0  0  0  0  0
   59.4500   32.7780   50.4280 C   0  0  0  0  0  0  0  0  0  0  0  0
   61.4850   31.0150   48.4830 C   0  0  0  0  0  0  0  0  0  0  0  0
   61.7520   30.9580   47.2520 O   0  0  0  0  0  0  0  0  0  0  0  0
   62.2330   31.9240   49.3300 N   0  0  0  0  0  0  0  0  0  0  0  0
   62.8320   31.4500   50.5890 C   0  0  0  0  0  0  0  0  0  0  0  0
   64.3210   31.7100   50.6340 C   0  0  0  0  0  0  0  0  0  0  0  0
   65.0800   31.1460   51.6720 C   0  0  0  0  0  0  0  0  0  0  0  0
   66.4520   31.3950   51.7640 C   0  0  0  0  0  0  0  0  0  0  0  0
   67.0810   32.2000   50.8130 C   0  0  0  0  0  0  0  0  0  0  0  0
   66.3390   32.7710   49.7770 C   0  0  0  0  0  0  0  0  0  0  0  0
   64.9540   32.5550   49.6910 C   0  0  0  0  0  0  0  0  0  0  0  0
   64.1870   33.1530   48.5390 C   0  0  0  0  0  0  0  0  0  0  0  0
   62.6930   33.2490   48.8710 C   0  0  1  0  0  0  0  0  0  0  0  0
   61.8770   33.8220   47.7310 C   0  0  0  0  0  0  0  0  0  0  0  0
   62.3460   33.8230   46.5630 O   0  0  0  0  0  0  0  0  0  0  0  0
   60.5480   34.3140   47.9530 N   0  0  0  0  0  0  0  0  0  0  0  0
   59.5560   34.1880   47.1200 C   0  0  0  0  0  0  0  0  0  0  0  0
   59.5810   34.7530   45.8260 C   0  0  0  0  0  0  0  0  0  0  0  0
   58.4930   34.5630   44.9710 C   0  0  0  0  0  0  0  0  0  0  0  0
   57.3940   33.8200   45.3990 C   0  0  0  0  0  0  0  0  0  0  0  0
   57.4010   33.2680   46.6820 C   0  0  0  0  0  0  0  0  0  0  0  0
   58.4680   33.4630   47.5030 N   0  0  0  0  0  0  0  0  0  0  0  0
   55.6837   24.8516   46.8858 H   0  0  0  0  0  0  0  0  0  0  0  0
   54.7791   24.8002   45.3348 H   0  0  0  0  0  0  0  0  0  0  0  0
   56.5434   25.1380   45.3348 H   0  0  0  0  0  0  0  0  0  0  0  0
   58.0857   27.2962   44.9748 H   0  0  0  0  0  0  0  0  0  0  0  0
   57.9311   29.4228   47.4557 H   0  0  0  0  0  0  0  0  0  0  0  0
   60.7004   29.9111   50.0925 H   0  0  0  0  0  0  0  0  0  0  0  0
   58.8880   31.3040   48.1286 H   0  0  0  0  0  0  0  0  0  0  0  0
   58.2918   29.8675   49.0968 H   0  0  0  0  0  0  0  0  0  0  0  0
   57.1013   30.3462   50.9772 H   0  0  0  0  0  0  0  0  0  0  0  0
   56.5794   31.8487   52.8975 H   0  0  0  0  0  0  0  0  0  0  0  0
   57.8973   33.9427   53.2420 H   0  0  0  0  0  0  0  0  0  0  0  0
   59.7319   34.5384   51.6608 H   0  0  0  0  0  0  0  0  0  0  0  0
   60.2578   33.0463   49.7313 H   0  0  0  0  0  0  0  0  0  0  0  0
   62.3535   31.9728   51.4302 H   0  0  0  0  0  0  0  0  0  0  0  0
   62.6719   30.3638   50.6567 H   0  0  0  0  0  0  0  0  0  0  0  0
   64.5908   30.5031   52.4186 H   0  0  0  0  0  0  0  0  0  0  0  0
   67.0365   30.9564   52.5862 H   0  0  0  0  0  0  0  0  0  0  0  0
   68.1633   32.3850   50.8797 H   0  0  0  0  0  0  0  0  0  0  0  0
   66.8426   33.3941   49.0233 H   0  0  0  0  0  0  0  0  0  0  0  0
   64.5758   34.1608   48.3313 H   0  0  0  0  0  0  0  0  0  0  0  0
   64.3116   32.5056   47.6585 H   0  0  0  0  0  0  0  0  0  0  0  0
   62.5395   33.9706   49.6869 H   0  0  0  0  0  0  0  0  0  0  0  0
   60.4510   35.3385   45.4938 H   0  0  0  0  0  0  0  0  0  0  0  0
   58.5034   34.9991   43.9612 H   0  0  0  0  0  0  0  0  0  0  0  0
   56.5309   33.6701   44.7338 H   0  0  0  0  0  0  0  0  0  0  0  0
   56.5423   32.6746   47.0291 H   0  0  0  0  0  0  0  0  0  0  0  0
  1  2  1  0
  2  3  1  0
  3  4  2  0
  3  5  1  0
  5  6  1  0
  6  7  1  0
  7  8  1  0
  8  9  2  0
  8 10  1  0
 10 11  1  0
 11 12  1  0
 12 13  1  0
 13 14  2  0
 14 15  1  0
 15 16  2  0
 16 17  1  0
 17 18  2  0
 11 19  1  0
 19 20  2  0
 19 21  1  0
 21 22  1  0
 22 23  1  0
 23 24  2  0
 24 25  1  0
 25 26  2  0
 26 27  1  0
 27 28  2  0
 28 29  1  0
 29 30  1  0
 30 31  1  0
 31 32  2  0
 31 33  1  0
 33 34  2  3
 34 35  1  0
 35 36  2  0
 36 37  1  0
 37 38  2  0
 38 39  1  0
  7  5  1  0
 18 13  1  0
 30 21  1  0
 39 34  1  0
 28 23  1  0
  1 40  1  0
  1 41  1  0
  1 42  1  0
  5 43  1  6
  7 44  1  1
 11 45  1  1
 12 46  1  0
 12 47  1  0
 14 48  1  0
 15 49  1  0
 16 50  1  0
 17 51  1  0
 18 52  1  0
 22 53  1  0
 22 54  1  0
 24 55  1  0
 25 56  1  0
 26 57  1  0
 27 58  1  0
 29 59  1  0
 29 60  1  0
 30 61  1  1
 35 62  1  0
 36 63  1  0
 37 64  1  0
 38 65  1  0
M  CHG  3   2  -1  10  -1  39  -1
M  END
>  <UniqueID>  (76) 
74

>  <SMILES>  (76) 
C[N-]C(=O)[C@@H]1O[C@H]1C(=O)[N-]C(Cc1ccccc1)C(=O)N1Cc2ccccc2CC1C(=O)N=c1cccc[n-]1

>  <Energy>  (76) 
414.6876273708926

>  <Genealogy>  (76) 
C[N-]C(=O)C1OC1C(=O)[N-]C(Cc1ccccc1)C(=O)N1Cc2ccccc2CC1C(=O)N=c1cccc[n-]1 (protonated)
C[N-]C(=O)[C@@H]1O[C@H]1C(=O)[N-]C(Cc1ccccc1)C(=O)N1Cc2ccccc2CC1C(=O)N=c1cccc[n-]1 (chirality)
C[N-]C(=O)[C@@H]1O[C@H]1C(=O)[N-]C(Cc1ccccc1)C(=O)N1Cc2ccccc2CC1C(=O)N=c1cccc[n-]1 (3D coordinates assigned)
C[N-]C(=O)[C@@H]1O[C@H]1C(=O)[N-]C(Cc1ccccc1)C(=O)N1Cc2ccccc2CC1C(=O)N=c1cccc[n-]1 (nonaromatic ring conformer: 414.6876273708926 kcal/mol)

>  <smiles>  (76) 
CNC(=O)C1OC1C(=O)NC(Cc1ccccc1)C(=O)N1Cc2ccccc2CC1C(=O)N=c1cccc[nH]1

>  <score_type>  (76) 
oracle

>  <origin>  (76) 
adg

>  <m_score__min__energy>  (76) 
-14.69

>  <m_primary>  (76) 
energy

$$$$
76:0
     RDKit          3D

 67 70  0  0  0  0  0  0  0  0999 V2000
   58.1361   20.7914   46.6042 H   0  0  0  0  0  0  0  0  0  0  0  0
   57.7560   21.6660   46.0560 C   0  0  0  0  0  0  0  0  0  0  0  0
   57.3370   22.7660   46.7380 N   0  0  0  0  0  0  0  0  0  0  0  0
   56.8560   23.8720   46.1000 C   0  0  0  0  0  0  0  0  0  0  0  0
   56.4710   24.9240   46.7630 N   0  0  0  0  0  0  0  0  0  0  0  0
   55.9940   26.1640   46.2170 C   0  0  0  0  0  0  0  0  0  0  0  0
   54.7650   26.3390   45.9880 O   0  0  0  0  0  0  0  0  0  0  0  0
   56.9480   27.1980   45.9350 N   0  0  0  0  0  0  0  0  0  0  0  0
   58.0380   27.4380   46.6020 C   0  0  0  0  0  0  0  0  0  0  0  0
   58.1420   28.3570   47.5860 N   0  0  0  0  0  0  0  0  0  0  0  0
   59.3880   28.3730   48.1360 C   0  0  0  0  0  0  0  0  0  0  0  0
   59.7740   29.2840   49.2430 C   0  0  0  0  0  0  0  0  0  0  0  0
   59.1170   29.2110   50.3180 O   0  0  0  0  0  0  0  0  0  0  0  0
   60.8480   30.2560   49.1330 N   0  0  0  0  0  0  0  0  0  0  0  0
   61.4260   30.6240   47.8320 C   0  0  0  0  0  0  0  0  0  0  0  0
   60.6071   30.8051   47.1203 H   0  0  0  0  0  0  0  0  0  0  0  0
   62.0692   29.7940   47.5042 H   0  0  0  0  0  0  0  0  0  0  0  0
   62.3010   31.8930   47.9140 C   0  0  0  0  0  0  0  0  0  0  0  0
   62.4471   32.2769   46.8936 H   0  0  0  0  0  0  0  0  0  0  0  0
   63.2426   31.5949   48.3983 H   0  0  0  0  0  0  0  0  0  0  0  0
   61.7200   32.9900   48.7480 N   0  0  0  0  0  0  0  0  0  0  0  0
   62.5620   33.5020   49.1100 H   0  0  0  0  0  0  0  0  0  0  0  0
   60.9720   33.9970   47.9330 C   0  0  0  0  0  0  0  0  0  0  0  0
   61.4630   34.9626   48.1241 H   0  0  0  0  0  0  0  0  0  0  0  0
   59.4940   34.1690   48.4070 C   0  0  0  0  0  0  0  0  0  0  0  0
   59.2499   35.2414   48.3864 H   0  0  0  0  0  0  0  0  0  0  0  0
   59.4375   33.7324   49.4151 H   0  0  0  0  0  0  0  0  0  0  0  0
   58.4550   33.4240   47.5510 C   0  0  0  0  0  0  0  0  0  0  0  0
   57.4541   33.8133   47.7891 H   0  0  0  0  0  0  0  0  0  0  0  0
   58.5309   32.3514   47.7827 H   0  0  0  0  0  0  0  0  0  0  0  0
   58.7000   33.5950   46.1150 N   0  0  0  0  0  0  0  0  0  0  0  0
   57.6580   33.2530   45.1910 C   0  0  0  0  0  0  0  0  0  0  0  0
   56.7090   34.0670   45.0210 O   0  0  0  0  0  0  0  0  0  0  0  0
   57.6830   31.9550   44.3990 C   0  0  0  0  0  0  0  0  0  0  0  0
   57.9780   32.2720   42.9200 C   0  0  0  0  0  0  0  0  0  0  0  0
   58.7262   33.0760   42.8595 H   0  0  0  0  0  0  0  0  0  0  0  0
   58.3666   31.3713   42.4224 H   0  0  0  0  0  0  0  0  0  0  0  0
   57.0517   32.5950   42.4224 H   0  0  0  0  0  0  0  0  0  0  0  0
   56.3340   31.2080   44.4820 C   0  0  0  0  0  0  0  0  0  0  0  0
   56.0625   31.0576   45.5373 H   0  0  0  0  0  0  0  0  0  0  0  0
   55.5542   31.8029   43.9839 H   0  0  0  0  0  0  0  0  0  0  0  0
   56.4244   30.2314   43.9839 H   0  0  0  0  0  0  0  0  0  0  0  0
   58.7920   31.0460   44.9610 C   0  0  0  0  0  0  0  0  0  0  0  0
   58.7633   31.0695   46.0604 H   0  0  0  0  0  0  0  0  0  0  0  0
   58.6330   30.0150   44.6120 H   0  0  0  0  0  0  0  0  0  0  0  0
   59.7717   31.4043   44.6120 H   0  0  0  0  0  0  0  0  0  0  0  0
   59.8930   34.2910   45.6320 C   0  0  0  0  0  0  0  0  0  0  0  0
   59.7787   35.3729   45.7946 H   0  0  0  0  0  0  0  0  0  0  0  0
   60.0242   34.0966   44.5573 H   0  0  0  0  0  0  0  0  0  0  0  0
   61.1140   33.7860   46.3970 C   0  0  0  0  0  0  0  0  0  0  0  0
   62.0029   34.3300   46.0450 H   0  0  0  0  0  0  0  0  0  0  0  0
   61.2071   32.7059   46.2109 H   0  0  0  0  0  0  0  0  0  0  0  0
   60.9830   32.5310   49.9630 C   0  0  0  0  0  0  0  0  0  0  0  0
   59.9049   32.6679   49.7925 H   0  0  0  0  0  0  0  0  0  0  0  0
   61.3415   33.1298   50.8132 H   0  0  0  0  0  0  0  0  0  0  0  0
   61.2420   31.0620   50.2940 C   0  0  0  0  0  0  0  0  0  0  0  0
   60.6476   30.7672   51.1714 H   0  0  0  0  0  0  0  0  0  0  0  0
   62.3065   30.9052   50.5228 H   0  0  0  0  0  0  0  0  0  0  0  0
   60.2810   27.4640   47.5650 C   0  0  0  0  0  0  0  0  0  0  0  0
   61.3328   27.3268   47.8565 H   0  0  0  0  0  0  0  0  0  0  0  0
   59.4770   26.6140   46.3560 S   0  0  0  0  0  0  0  0  0  0  0  0
   56.7860   23.8820   44.7000 C   0  0  0  0  0  0  0  0  0  0  0  0
   56.3969   24.7644   44.1709 H   0  0  0  0  0  0  0  0  0  0  0  0
   57.2140   22.7630   43.9820 C   0  0  0  0  0  0  0  0  0  0  0  0
   57.1649   22.7622   42.8831 H   0  0  0  0  0  0  0  0  0  0  0  0
   57.7040   21.6460   44.6600 C   0  0  0  0  0  0  0  0  0  0  0  0
   58.0449   20.7612   44.1025 H   0  0  0  0  0  0  0  0  0  0  0  0
  1  2  1  0
  2  3  1  0
  3  4  1  0
  4  5  2  0
  5  6  1  0
  6  7  2  0
  6  8  1  0
  8  9  2  3
  9 10  1  0
 10 11  1  0
 11 12  1  0
 12 13  2  0
 12 14  1  0
 14 15  1  0
 15 16  1  0
 15 17  1  0
 15 18  1  0
 18 19  1  0
 18 20  1  0
 18 21  1  0
 21 22  1  0
 21 23  1  0
 23 24  1  0
 23 25  1  0
 25 26  1  0
 25 27  1  0
 25 28  1  0
 28 29  1  0
 28 30  1  0
 28 31  1  0
 31 32  1  0
 32 33  2  0
 32 34  1  0
 34 35  1  0
 35 36  1  0
 35 37  1  0
 35 38  1  0
 34 39  1  0
 39 40  1  0
 39 41  1  0
 39 42  1  0
 34 43  1  0
 43 44  1  0
 43 45  1  0
 43 46  1  0
 31 47  1  0
 47 48  1  0
 47 49  1  0
 47 50  1  0
 50 51  1  0
 50 52  1  0
 21 53  1  0
 53 54  1  0
 53 55  1  0
 53 56  1  0
 56 57  1  0
 56 58  1  0
 11 59  2  0
 59 60  1  0
 59 61  1  0
  4 62  1  0
 62 63  1  0
 62 64  2  0
 64 65  1  0
 64 66  1  0
 66 67  1  0
 66  2  2  0
 61  9  1  0
 56 14  1  0
 50 23  1  0
M  CHG  3   3  -1  10  -1  21   1
M  END
>  <UniqueID>  (77) 
75

>  <SMILES>  (77) 
CC(C)(C)C(=O)N1CCC([NH+]2CCN(C(=O)c3csc(=NC(=O)/N=c4/cccc[n-]4)[n-]3)CC2)CC1

>  <Energy>  (77) 
124.90800159539707

>  <Genealogy>  (77) 
CC(C)(C)C(=O)N1CCC([NH+]2CCN(C(=O)c3csc(=NC(=O)N=c4cccc[n-]4)[n-]3)CC2)CC1 (protonated)
CC(C)(C)C(=O)N1CCC([NH+]2CCN(C(=O)c3csc(=NC(=O)/N=c4/cccc[n-]4)[n-]3)CC2)CC1 (cis-trans isomerization)
CC(C)(C)C(=O)N1CCC([NH+]2CCN(C(=O)c3csc(=NC(=O)/N=c4/cccc[n-]4)[n-]3)CC2)CC1 (3D coordinates assigned)
CC(C)(C)C(=O)N1CCC([NH+]2CCN(C(=O)c3csc(=NC(=O)/N=c4/cccc[n-]4)[n-]3)CC2)CC1 (nonaromatic ring conformer: 124.90800159539707 kcal/mol)

>  <smiles>  (77) 
CC(C)(C)C(=O)N1CCC(N2CCN(C(=O)c3csc(=NC(=O)N=c4cccc[nH]4)[nH]3)CC2)CC1

>  <score_type>  (77) 
oracle

>  <origin>  (77) 
adg

>  <m_score__min__energy>  (77) 
-12.23

>  <m_primary>  (77) 
energy

$$$$
77:0
     RDKit          3D

 58 62  0  0  0  0  0  0  0  0999 V2000
   57.4290   29.5800   45.7820 C   0  0  0  0  0  0  0  0  0  0  0  0
   56.6180   30.4120   44.9600 O   0  0  0  0  0  0  0  0  0  0  0  0
   57.0970   31.1800   43.8850 C   0  0  0  0  0  0  0  0  0  0  0  0
   56.7160   30.9180   42.5540 C   0  0  0  0  0  0  0  0  0  0  0  0
   57.2350   31.6840   41.5070 C   0  0  0  0  0  0  0  0  0  0  0  0
   58.1380   32.7140   41.7740 C   0  0  0  0  0  0  0  0  0  0  0  0
   58.5200   32.9860   43.0880 C   0  0  0  0  0  0  0  0  0  0  0  0
   57.9980   32.2290   44.1500 C   0  0  0  0  0  0  0  0  0  0  0  0
   58.3920   32.5260   45.5000 N   0  0  0  0  0  0  0  0  0  0  0  0
   57.3530   32.7620   46.5080 C   0  0  0  0  0  0  0  0  0  0  0  0
   57.9780   33.0760   47.8680 C   0  0  0  0  0  0  0  0  0  0  0  0
   59.0940   32.1430   48.1100 N   0  0  0  0  0  0  0  0  0  0  0  0
   59.5310   32.2160   49.5210 C   0  0  0  0  0  0  0  0  0  0  0  0
   59.3980   30.8560   50.2160 C   0  0  0  0  0  0  0  0  0  0  0  0
   59.6620   29.7800   49.2670 N   0  0  0  0  0  0  0  0  0  0  0  0
   60.8290   29.5500   48.6360 C   0  0  0  0  0  0  0  0  0  0  0  0
   60.6570   28.4880   47.7750 C   0  0  0  0  0  0  0  0  0  0  0  0
   59.3270   28.1230   47.9330 C   0  0  0  0  0  0  0  0  0  0  0  0
   58.6060   27.0400   47.2340 C   0  0  0  0  0  0  0  0  0  0  0  0
   59.2660   25.8930   46.7650 C   0  0  0  0  0  0  0  0  0  0  0  0
   58.5360   24.8930   46.1090 C   0  0  0  0  0  0  0  0  0  0  0  0
   59.1770   23.7400   45.6310 C   0  0  0  0  0  0  0  0  0  0  0  0
   58.4410   22.7480   44.9770 C   0  0  0  0  0  0  0  0  0  0  0  0
   57.0640   22.8980   44.7950 C   0  0  0  0  0  0  0  0  0  0  0  0
   56.4140   24.0430   45.2650 C   0  0  0  0  0  0  0  0  0  0  0  0
   57.1420   25.0500   45.9260 C   0  0  0  0  0  0  0  0  0  0  0  0
   56.5220   26.2150   46.4130 C   0  0  0  0  0  0  0  0  0  0  0  0
   55.2830   26.3970   46.2730 O   0  0  0  0  0  0  0  0  0  0  0  0
   57.2630   27.1630   47.0450 N   0  0  0  0  0  0  0  0  0  0  0  0
   58.7420   28.9300   48.8420 N   0  0  0  0  0  0  0  0  0  0  0  0
   60.2230   32.3890   47.1740 C   0  0  0  0  0  0  0  0  0  0  0  0
   59.7810   32.8960   45.7840 C   0  0  0  0  0  0  0  0  0  0  0  0
   57.2198   29.7946   46.8404 H   0  0  0  0  0  0  0  0  0  0  0  0
   57.2038   28.5243   45.5705 H   0  0  0  0  0  0  0  0  0  0  0  0
   58.4901   29.7781   45.5705 H   0  0  0  0  0  0  0  0  0  0  0  0
   56.0061   30.1060   42.3380 H   0  0  0  0  0  0  0  0  0  0  0  0
   56.9313   31.4748   40.4706 H   0  0  0  0  0  0  0  0  0  0  0  0
   58.5491   33.3121   40.9474 H   0  0  0  0  0  0  0  0  0  0  0  0
   59.2337   33.7975   43.2935 H   0  0  0  0  0  0  0  0  0  0  0  0
   56.7304   33.6121   46.1922 H   0  0  0  0  0  0  0  0  0  0  0  0
   56.7403   31.8534   46.6026 H   0  0  0  0  0  0  0  0  0  0  0  0
   58.3541   34.1097   47.8713 H   0  0  0  0  0  0  0  0  0  0  0  0
   57.2220   32.9646   48.6592 H   0  0  0  0  0  0  0  0  0  0  0  0
   60.5835   32.5340   49.5542 H   0  0  0  0  0  0  0  0  0  0  0  0
   58.8895   32.9388   50.0464 H   0  0  0  0  0  0  0  0  0  0  0  0
   60.1213   30.7976   51.0427 H   0  0  0  0  0  0  0  0  0  0  0  0
   58.3749   30.7494   50.6056 H   0  0  0  0  0  0  0  0  0  0  0  0
   61.7617   30.1143   48.7829 H   0  0  0  0  0  0  0  0  0  0  0  0
   61.4059   28.0316   47.1111 H   0  0  0  0  0  0  0  0  0  0  0  0
   60.3503   25.7800   46.9117 H   0  0  0  0  0  0  0  0  0  0  0  0
   60.2610   23.6166   45.7713 H   0  0  0  0  0  0  0  0  0  0  0  0
   58.9479   21.8457   44.6042 H   0  0  0  0  0  0  0  0  0  0  0  0
   56.4898   22.1133   44.2806 H   0  0  0  0  0  0  0  0  0  0  0  0
   55.3299   24.1573   45.1177 H   0  0  0  0  0  0  0  0  0  0  0  0
   60.8876   33.1420   47.6226 H   0  0  0  0  0  0  0  0  0  0  0  0
   60.7259   31.4232   47.0177 H   0  0  0  0  0  0  0  0  0  0  0  0
   59.8729   33.9918   45.7563 H   0  0  0  0  0  0  0  0  0  0  0  0
   60.4265   32.4323   45.0236 H   0  0  0  0  0  0  0  0  0  0  0  0
  1  2  1  0
  2  3  1  0
  3  4  2  0
  4  5  1  0
  5  6  2  0
  6  7  1  0
  7  8  2  0
  8  9  1  0
  9 10  1  0
 10 11  1  0
 11 12  1  0
 12 13  1  0
 13 14  1  0
 14 15  1  0
 15 16  1  0
 16 17  2  0
 17 18  1  0
 18 19  1  0
 19 20  2  0
 20 21  1  0
 21 22  2  0
 22 23  1  0
 23 24  2  0
 24 25  1  0
 25 26  2  0
 26 27  1  0
 27 28  2  0
 27 29  1  0
 18 30  2  0
 12 31  1  0
 31 32  1  0
  8  3  1  0
 32  9  1  0
 30 15  1  0
 29 19  1  0
 26 21  1  0
  1 33  1  0
  1 34  1  0
  1 35  1  0
  4 36  1  0
  5 37  1  0
  6 38  1  0
  7 39  1  0
 10 40  1  0
 10 41  1  0
 11 42  1  0
 11 43  1  0
 13 44  1  0
 13 45  1  0
 14 46  1  0
 14 47  1  0
 16 48  1  0
 17 49  1  0
 20 50  1  0
 22 51  1  0
 23 52  1  0
 24 53  1  0
 25 54  1  0
 31 55  1  0
 31 56  1  0
 32 57  1  0
 32 58  1  0
M  CHG  1  29  -1
M  END
>  <UniqueID>  (78) 
76

>  <SMILES>  (78) 
COc1ccccc1N1CCN(CCn2ccc(-c3cc4ccccc4c(=O)[n-]3)n2)CC1

>  <Energy>  (78) 
106.30847885649634

>  <Genealogy>  (78) 
COc1ccccc1N1CCN(CCn2ccc(-c3cc4ccccc4c(=O)[n-]3)n2)CC1 (protonated)
COc1ccccc1N1CCN(CCn2ccc(-c3cc4ccccc4c(=O)[n-]3)n2)CC1 (3D coordinates assigned)
COc1ccccc1N1CCN(CCn2ccc(-c3cc4ccccc4c(=O)[n-]3)n2)CC1 (nonaromatic ring conformer: 106.30847885649634 kcal/mol)

>  <smiles>  (78) 
COc1ccccc1N1CCN(CCn2ccc(-c3cc4ccccc4c(=O)[nH]3)n2)CC1

>  <score_type>  (78) 
oracle

>  <origin>  (78) 
adg

>  <m_score__min__energy>  (78) 
-11.550000000000001

>  <m_primary>  (78) 
energy

$$$$
78:0
     RDKit          3D

 57 60  0  0  0  0  0  0  0  0999 V2000
   59.2690   34.1110   50.8330 O   0  0  0  0  0  0  0  0  0  0  0  0
   60.3070   33.6080   50.3240 C   0  0  0  0  0  0  0  0  0  0  0  0
   61.2560   32.8390   51.1920 C   0  0  0  0  0  0  0  0  0  0  0  0
   60.6450   31.5730   51.6480 N   0  0  0  0  0  0  0  0  0  0  0  0
   59.9950   31.7670   52.9600 C   0  0  0  0  0  0  0  0  0  0  0  0
   59.4720   30.4240   53.5130 C   0  0  0  0  0  0  0  0  0  0  0  0
   59.4670   29.3840   52.4650 N   0  0  0  0  0  0  0  0  0  0  0  0
   58.9220   28.0880   52.9290 C   0  0  0  0  0  0  0  0  0  0  0  0
   57.9700   28.2040   54.1020 C   0  0  0  0  0  0  0  0  0  0  0  0
   58.4240   28.2520   55.2750 O   0  0  0  0  0  0  0  0  0  0  0  0
   56.5530   28.3150   53.9070 N   0  0  0  0  0  0  0  0  0  0  0  0
   55.8750   29.4180   53.2880 C   0  0  0  0  0  0  0  0  0  0  0  0
   56.5340   30.6310   53.0280 C   0  0  0  0  0  0  0  0  0  0  0  0
   55.8570   31.6790   52.3980 C   0  0  0  0  0  0  0  0  0  0  0  0
   54.5250   31.5190   52.0060 C   0  0  0  0  0  0  0  0  0  0  0  0
   53.8640   30.3000   52.2280 C   0  0  0  0  0  0  0  0  0  0  0  0
   52.4200   30.1430   51.8380 C   0  0  0  0  0  0  0  0  0  0  0  0
   51.6240   31.3030   52.3470 C   0  0  0  0  0  0  0  0  0  0  0  0
   51.3460   31.5130   53.6450 N   0  0  0  0  0  0  0  0  0  0  0  0
   50.5550   32.6090   53.6190 C   0  0  0  0  0  0  0  0  0  0  0  0
   50.0840   33.1300   54.6640 O   0  0  0  0  0  0  0  0  0  0  0  0
   50.3030   33.0990   52.3870 N   0  0  0  0  0  0  0  0  0  0  0  0
   50.9830   32.2560   51.5920 C   0  0  0  0  0  0  0  0  0  0  0  0
   51.0100   32.3520   50.2070 O   0  0  0  0  0  0  0  0  0  0  0  0
   54.5460   29.2520   52.8710 C   0  0  0  0  0  0  0  0  0  0  0  0
   58.8550   29.8750   51.2180 C   0  0  0  0  0  0  0  0  0  0  0  0
   59.6620   31.0650   50.6610 C   0  0  0  0  0  0  0  0  0  0  0  0
   60.6390   33.8330   48.9470 N   0  0  0  0  0  0  0  0  0  0  0  0
   59.7400   33.8740   47.8270 C   0  0  0  0  0  0  0  0  0  0  0  0
   58.5880   33.0770   47.8660 C   0  0  0  0  0  0  0  0  0  0  0  0
   57.6750   33.0960   46.8070 C   0  0  0  0  0  0  0  0  0  0  0  0
   57.9050   33.9210   45.7020 C   0  0  0  0  0  0  0  0  0  0  0  0
   59.0370   34.7360   45.6620 C   0  0  0  0  0  0  0  0  0  0  0  0
   59.2460   35.5530   44.5980 F   0  0  0  0  0  0  0  0  0  0  0  0
   59.9490   34.7250   46.7230 C   0  0  0  0  0  0  0  0  0  0  0  0
   62.1668   32.6132   50.6180 H   0  0  0  0  0  0  0  0  0  0  0  0
   61.4994   33.4497   52.0739 H   0  0  0  0  0  0  0  0  0  0  0  0
   60.7255   32.1885   53.6662 H   0  0  0  0  0  0  0  0  0  0  0  0
   59.1447   32.4537   52.8356 H   0  0  0  0  0  0  0  0  0  0  0  0
   60.1211   30.0984   54.3393 H   0  0  0  0  0  0  0  0  0  0  0  0
   58.4404   30.5693   53.8662 H   0  0  0  0  0  0  0  0  0  0  0  0
   58.3838   27.6195   52.0918 H   0  0  0  0  0  0  0  0  0  0  0  0
   59.7775   27.4875   53.2718 H   0  0  0  0  0  0  0  0  0  0  0  0
   57.5867   30.7565   53.3213 H   0  0  0  0  0  0  0  0  0  0  0  0
   56.3736   32.6318   52.2103 H   0  0  0  0  0  0  0  0  0  0  0  0
   53.9925   32.3509   51.5219 H   0  0  0  0  0  0  0  0  0  0  0  0
   52.3413   30.1001   50.7417 H   0  0  0  0  0  0  0  0  0  0  0  0
   52.0262   29.2143   52.2767 H   0  0  0  0  0  0  0  0  0  0  0  0
   54.0336   28.2949   53.0483 H   0  0  0  0  0  0  0  0  0  0  0  0
   58.8439   29.0640   50.4749 H   0  0  0  0  0  0  0  0  0  0  0  0
   57.8272   30.2057   51.4287 H   0  0  0  0  0  0  0  0  0  0  0  0
   60.1995   30.7394   49.7582 H   0  0  0  0  0  0  0  0  0  0  0  0
   58.9578   31.8778   50.4299 H   0  0  0  0  0  0  0  0  0  0  0  0
   58.4004   32.4313   48.7366 H   0  0  0  0  0  0  0  0  0  0  0  0
   56.7766   32.4624   46.8433 H   0  0  0  0  0  0  0  0  0  0  0  0
   57.1931   33.9277   44.8635 H   0  0  0  0  0  0  0  0  0  0  0  0
   60.8309   35.3818   46.6955 H   0  0  0  0  0  0  0  0  0  0  0  0
  1  2  2  0
  2  3  1  0
  3  4  1  0
  4  5  1  0
  5  6  1  0
  6  7  1  0
  7  8  1  0
  8  9  1  0
  9 10  2  0
  9 11  1  0
 11 12  1  0
 12 13  2  0
 13 14  1  0
 14 15  2  0
 15 16  1  0
 16 17  1  0
 17 18  1  0
 18 19  1  0
 19 20  1  0
 20 21  2  0
 20 22  1  0
 22 23  1  0
 23 24  1  0
 16 25  2  0
  7 26  1  0
 26 27  1  0
  2 28  1  0
 28 29  1  0
 29 30  2  0
 30 31  1  0
 31 32  2  0
 32 33  1  0
 33 34  1  0
 33 35  2  0
 27  4  1  0
 35 29  1  0
 25 12  1  0
 23 18  2  0
  3 36  1  0
  3 37  1  0
  5 38  1  0
  5 39  1  0
  6 40  1  0
  6 41  1  0
  8 42  1  0
  8 43  1  0
 13 44  1  0
 14 45  1  0
 15 46  1  0
 17 47  1  0
 17 48  1  0
 25 49  1  0
 26 50  1  0
 26 51  1  0
 27 52  1  0
 27 53  1  0
 30 54  1  0
 31 55  1  0
 32 56  1  0
 35 57  1  0
M  CHG  5  11  -1  19  -1  22  -1  24  -1  28  -1
M  END
>  <UniqueID>  (79) 
77

>  <SMILES>  (79) 
O=C(CN1CCN(CC(=O)[N-]c2cccc(Cc3[n-]c(=O)[n-]c3[O-])c2)CC1)[N-]c1cccc(F)c1

>  <Energy>  (79) 
107.97872528637387

>  <Genealogy>  (79) 
O=C(CN1CCN(CC(=O)[N-]c2cccc(Cc3[n-]c(=O)[n-]c3[O-])c2)CC1)[N-]c1cccc(F)c1 (protonated)
O=C(CN1CCN(CC(=O)[N-]c2cccc(Cc3[n-]c(=O)[n-]c3[O-])c2)CC1)[N-]c1cccc(F)c1 (3D coordinates assigned)
O=C(CN1CCN(CC(=O)[N-]c2cccc(Cc3[n-]c(=O)[n-]c3[O-])c2)CC1)[N-]c1cccc(F)c1 (nonaromatic ring conformer: 107.97872528637387 kcal/mol)

>  <smiles>  (79) 
O=C(CN1CCN(CC(=O)Nc2cccc(Cc3[nH]c(=O)[nH]c3O)c2)CC1)Nc1cccc(F)c1

>  <score_type>  (79) 
oracle

>  <origin>  (79) 
adg

>  <m_score__min__energy>  (79) 
-20.870000000000001

>  <m_primary>  (79) 
energy

$$$$
79:0
     RDKit          3D

 44 46  0  0  0  0  0  0  0  0999 V2000
   59.8770   34.8260   46.6880 C   0  0  0  0  0  0  0  0  0  0  0  0
   58.3850   34.5830   46.4050 C   0  0  2  0  0  0  0  0  0  0  0  0
   57.8610   33.3620   47.1890 C   0  0  0  0  0  0  0  0  0  0  0  0
   58.4110   32.0230   46.6590 C   0  0  0  0  0  0  0  0  0  0  0  0
   58.5980   31.9920   45.1200 C   0  0  1  0  0  0  0  0  0  0  0  0
   58.2780   30.6630   44.5910 N   0  0  0  0  0  0  0  0  0  0  0  0
   56.9490   30.1180   44.6360 C   0  0  0  0  0  0  0  0  0  0  0  0
   55.9680   30.8770   44.8670 O   0  0  0  0  0  0  0  0  0  0  0  0
   56.7220   28.6500   44.3500 C   0  0  1  0  0  0  0  0  0  0  0  0
   57.4200   28.2010   43.0610 C   0  0  0  0  0  0  0  0  0  0  0  0
   57.1380   27.7990   45.4810 N   0  0  0  0  0  0  0  0  0  0  0  0
   56.3690   26.8970   46.1470 C   0  0  0  0  0  0  0  0  0  0  0  0
   55.1480   26.7100   45.8950 O   0  0  0  0  0  0  0  0  0  0  0  0
   57.0270   26.2030   47.1080 N   0  0  0  0  0  0  0  0  0  0  0  0
   58.2730   26.7010   47.0260 C   0  0  0  0  0  0  0  0  0  0  0  0
   59.3770   26.3380   47.7950 C   0  0  0  0  0  0  0  0  0  0  0  0
   60.5970   26.9910   47.5410 C   0  0  0  0  0  0  0  0  0  0  0  0
   60.6820   27.9820   46.5380 C   0  0  0  0  0  0  0  0  0  0  0  0
   59.5490   28.3270   45.7780 C   0  0  0  0  0  0  0  0  0  0  0  0
   58.3520   27.6570   46.0510 C   0  0  0  0  0  0  0  0  0  0  0  0
   57.7310   33.0460   44.4190 C   0  0  0  0  0  0  0  0  0  0  0  0
   58.0990   34.4680   44.8800 C   0  0  0  0  0  0  0  0  0  0  0  0
   60.0444   34.8533   47.7749 H   0  0  0  0  0  0  0  0  0  0  0  0
   60.4713   34.0128   46.2458 H   0  0  0  0  0  0  0  0  0  0  0  0
   60.1825   35.7857   46.2458 H   0  0  0  0  0  0  0  0  0  0  0  0
   57.8297   35.4624   46.7630 H   0  0  0  0  0  0  0  0  0  0  0  0
   56.7636   33.3434   47.1159 H   0  0  0  0  0  0  0  0  0  0  0  0
   58.2022   33.4685   48.2293 H   0  0  0  0  0  0  0  0  0  0  0  0
   57.7094   31.2237   46.9399 H   0  0  0  0  0  0  0  0  0  0  0  0
   59.4061   31.8841   47.1068 H   0  0  0  0  0  0  0  0  0  0  0  0
   59.6535   32.2252   44.9160 H   0  0  0  0  0  0  0  0  0  0  0  0
   59.0660   30.0250   44.3420 H   0  0  0  0  0  0  0  0  0  0  0  0
   55.6380   28.5270   44.2096 H   0  0  0  0  0  0  0  0  0  0  0  0
   58.3203   27.6219   43.3142 H   0  0  0  0  0  0  0  0  0  0  0  0
   56.7344   27.5741   42.4720 H   0  0  0  0  0  0  0  0  0  0  0  0
   57.7062   29.0848   42.4720 H   0  0  0  0  0  0  0  0  0  0  0  0
   59.2972   25.5664   48.5749 H   0  0  0  0  0  0  0  0  0  0  0  0
   61.4901   26.7283   48.1270 H   0  0  0  0  0  0  0  0  0  0  0  0
   61.6406   28.4876   46.3497 H   0  0  0  0  0  0  0  0  0  0  0  0
   59.6030   29.0980   44.9953 H   0  0  0  0  0  0  0  0  0  0  0  0
   56.6737   32.8550   44.6549 H   0  0  0  0  0  0  0  0  0  0  0  0
   57.9063   32.9756   43.3353 H   0  0  0  0  0  0  0  0  0  0  0  0
   57.2632   35.1392   44.6329 H   0  0  0  0  0  0  0  0  0  0  0  0
   59.0288   34.7414   44.3596 H   0  0  0  0  0  0  0  0  0  0  0  0
  1  2  1  0
  2  3  1  0
  3  4  1  0
  4  5  1  0
  5  6  1  0
  6  7  1  0
  7  8  2  0
  7  9  1  0
  9 10  1  0
  9 11  1  0
 11 12  1  0
 12 13  2  0
 12 14  1  0
 14 15  1  0
 15 16  2  0
 16 17  1  0
 17 18  2  0
 18 19  1  0
 19 20  2  0
  5 21  1  0
 21 22  1  0
 22  2  1  0
 20 11  1  0
 20 15  1  0
  1 23  1  0
  1 24  1  0
  1 25  1  0
  2 26  1  6
  3 27  1  0
  3 28  1  0
  4 29  1  0
  4 30  1  0
  5 31  1  6
  6 32  1  0
  9 33  1  6
 10 34  1  0
 10 35  1  0
 10 36  1  0
 16 37  1  0
 17 38  1  0
 18 39  1  0
 19 40  1  0
 21 41  1  0
 21 42  1  0
 22 43  1  0
 22 44  1  0
M  CHG  1  14  -1
M  END
>  <UniqueID>  (80) 
78

>  <SMILES>  (80) 
CC1CCC(NC(=O)[C@@H](C)n2c(=O)[n-]c3ccccc32)CC1

>  <Energy>  (80) 
83.90807122055234

>  <Genealogy>  (80) 
CC1CCC(NC(=O)C(C)n2c(=O)[n-]c3ccccc32)CC1 (protonated)
CC1CCC(NC(=O)[C@@H](C)n2c(=O)[n-]c3ccccc32)CC1 (chirality)
CC1CCC(NC(=O)[C@@H](C)n2c(=O)[n-]c3ccccc32)CC1 (3D coordinates assigned)
CC1CCC(NC(=O)[C@@H](C)n2c(=O)[n-]c3ccccc32)CC1 (nonaromatic ring conformer: 83.90807122055234 kcal/mol)

>  <smiles>  (80) 
CC1CCC(NC(=O)C(C)n2c(=O)[nH]c3ccccc32)CC1

>  <score_type>  (80) 
oracle

>  <origin>  (80) 
adg

>  <m_score__min__energy>  (80) 
-9.7799999999999994

>  <m_primary>  (80) 
energy

$$$$
80:0
     RDKit          3D

 43 45  0  0  0  0  0  0  0  0999 V2000
   55.1540   26.5280   45.9750 N   0  0  0  0  0  0  0  0  0  0  0  0
   56.8410   26.9100   46.0130 S   0  0  0  0  0  0  0  0  0  0  0  0
   57.3310   26.7400   47.4240 O   0  0  0  0  0  0  0  0  0  0  0  0
   57.5950   25.9700   45.1170 O   0  0  0  0  0  0  0  0  0  0  0  0
   57.0990   28.5800   45.4800 C   0  0  0  0  0  0  0  0  0  0  0  0
   56.2810   29.0990   44.4630 C   0  0  0  0  0  0  0  0  0  0  0  0
   56.4810   30.3940   43.9810 C   0  0  0  0  0  0  0  0  0  0  0  0
   57.5010   31.1860   44.5060 C   0  0  0  0  0  0  0  0  0  0  0  0
   58.3170   30.6900   45.5240 C   0  0  0  0  0  0  0  0  0  0  0  0
   58.1200   29.3950   46.0300 C   0  0  0  0  0  0  0  0  0  0  0  0
   58.9940   28.9290   47.1250 C   0  0  0  0  0  0  0  0  0  0  0  0
   59.9130   27.8920   46.9060 C   0  0  0  0  0  0  0  0  0  0  0  0
   60.7280   27.4450   47.9490 C   0  0  0  0  0  0  0  0  0  0  0  0
   60.6240   28.0210   49.2180 C   0  0  0  0  0  0  0  0  0  0  0  0
   59.7000   29.0510   49.4540 C   0  0  0  0  0  0  0  0  0  0  0  0
   59.5600   29.6570   50.8230 C   0  0  0  0  0  0  0  0  0  0  0  0
   58.4620   30.6190   50.8400 N   0  0  0  0  0  0  0  0  0  0  0  0
   58.5880   31.9740   50.3960 C   0  0  0  0  0  0  0  0  0  0  0  0
   59.1550   32.8290   51.1260 O   0  0  0  0  0  0  0  0  0  0  0  0
   58.0250   32.3900   49.1470 N   0  0  0  0  0  0  0  0  0  0  0  0
   58.7200   33.0550   48.0830 C   0  0  0  0  0  0  0  0  0  0  0  0
   58.0380   33.7150   47.0450 C   0  0  0  0  0  0  0  0  0  0  0  0
   58.7540   34.3310   46.0130 C   0  0  0  0  0  0  0  0  0  0  0  0
   60.1500   34.2810   46.0020 C   0  0  0  0  0  0  0  0  0  0  0  0
   60.8330   33.6040   47.0160 C   0  0  0  0  0  0  0  0  0  0  0  0
   60.1200   32.9860   48.0480 C   0  0  0  0  0  0  0  0  0  0  0  0
   58.8800   29.4960   48.4030 C   0  0  0  0  0  0  0  0  0  0  0  0
   54.6960   27.0900   46.7260 H   0  0  0  0  0  0  0  0  0  0  0  0
   55.4753   28.4794   44.0424 H   0  0  0  0  0  0  0  0  0  0  0  0
   55.8326   30.7900   43.1856 H   0  0  0  0  0  0  0  0  0  0  0  0
   57.6629   32.2024   44.1178 H   0  0  0  0  0  0  0  0  0  0  0  0
   59.1213   31.3189   45.9334 H   0  0  0  0  0  0  0  0  0  0  0  0
   59.9921   27.4298   45.9109 H   0  0  0  0  0  0  0  0  0  0  0  0
   61.4535   26.6375   47.7709 H   0  0  0  0  0  0  0  0  0  0  0  0
   61.2689   27.6658   50.0353 H   0  0  0  0  0  0  0  0  0  0  0  0
   59.3561   28.8604   51.5536 H   0  0  0  0  0  0  0  0  0  0  0  0
   60.4948   30.1754   51.0827 H   0  0  0  0  0  0  0  0  0  0  0  0
   56.9385   33.7469   47.0446 H   0  0  0  0  0  0  0  0  0  0  0  0
   58.2169   34.8555   45.2090 H   0  0  0  0  0  0  0  0  0  0  0  0
   60.7117   34.7745   45.1952 H   0  0  0  0  0  0  0  0  0  0  0  0
   61.9319   33.5573   47.0023 H   0  0  0  0  0  0  0  0  0  0  0  0
   60.6606   32.4426   48.8370 H   0  0  0  0  0  0  0  0  0  0  0  0
   58.1444   30.2937   48.5836 H   0  0  0  0  0  0  0  0  0  0  0  0
  1  2  1  0
  2  3  2  0
  2  4  2  0
  2  5  1  0
  5  6  2  0
  6  7  1  0
  7  8  2  0
  8  9  1  0
  9 10  2  0
 10 11  1  0
 11 12  2  0
 12 13  1  0
 13 14  2  0
 14 15  1  0
 15 16  1  0
 16 17  1  0
 17 18  1  0
 18 19  2  0
 18 20  1  0
 20 21  1  0
 21 22  2  0
 22 23  1  0
 23 24  2  0
 24 25  1  0
 25 26  2  0
 15 27  2  0
 10  5  1  0
 27 11  1  0
 26 21  1  0
  1 28  1  0
  6 29  1  0
  7 30  1  0
  8 31  1  0
  9 32  1  0
 12 33  1  0
 13 34  1  0
 14 35  1  0
 16 36  1  0
 16 37  1  0
 22 38  1  0
 23 39  1  0
 24 40  1  0
 25 41  1  0
 26 42  1  0
 27 43  1  0
M  CHG  3   1  -1  17  -1  20  -1
M  END
>  <UniqueID>  (81) 
79

>  <SMILES>  (81) 
[NH-]S(=O)(=O)c1ccccc1-c1cccc(C[N-]C(=O)[N-]c2ccccc2)c1

>  <Energy>  (81) 
54.75974508512234

>  <Genealogy>  (81) 
[NH-]S(=O)(=O)c1ccccc1-c1cccc(C[N-]C(=O)[N-]c2ccccc2)c1 (protonated)
[NH-]S(=O)(=O)c1ccccc1-c1cccc(C[N-]C(=O)[N-]c2ccccc2)c1 (3D coordinates assigned)
[NH-]S(=O)(=O)c1ccccc1-c1cccc(C[N-]C(=O)[N-]c2ccccc2)c1 (optimized conformer: 54.75974508512234 kcal/mol)

>  <smiles>  (81) 
NS(=O)(=O)c1ccccc1-c1cccc(CNC(=O)Nc2ccccc2)c1

>  <score_type>  (81) 
oracle

>  <origin>  (81) 
adg

>  <m_score__min__energy>  (81) 
-15.140000000000001

>  <m_primary>  (81) 
energy

$$$$
81:0
     RDKit          3D

 52 54  0  0  0  0  0  0  0  0999 V2000
   64.0960   32.3680   48.9900 C   0  0  0  0  0  0  0  0  0  0  0  0
   63.7590   33.0660   47.6770 C   0  0  0  0  0  0  0  0  0  0  0  0
   62.2930   32.9890   47.3890 C   0  0  0  0  0  0  0  0  0  0  0  0
   61.6070   31.9140   46.8600 C   0  0  0  0  0  0  0  0  0  0  0  0
   60.3060   32.2460   46.8050 N   0  0  0  0  0  0  0  0  0  0  0  0
   60.2480   33.5020   47.2900 C   0  0  0  0  0  0  0  0  0  0  0  0
   58.9800   34.2940   47.4410 C   0  0  0  0  0  0  0  0  0  0  0  0
   58.3130   34.5920   46.1570 N   0  0  0  0  0  0  0  0  0  0  0  0
   59.2000   34.6270   44.9710 C   0  0  0  0  0  0  0  0  0  0  0  0
   58.8960   33.5140   43.9560 C   0  0  0  0  0  0  0  0  0  0  0  0
   58.4920   32.2900   44.6640 N   0  0  0  0  0  0  0  0  0  0  0  0
   58.4460   31.1330   43.7410 C   0  0  0  0  0  0  0  0  0  0  0  0
   58.3900   29.8430   44.5160 C   0  0  0  0  0  0  0  0  0  0  0  0
   59.5460   29.3420   45.1310 C   0  0  0  0  0  0  0  0  0  0  0  0
   59.4920   28.1610   45.8740 C   0  0  0  0  0  0  0  0  0  0  0  0
   58.2820   27.4830   46.0290 C   0  0  0  0  0  0  0  0  0  0  0  0
   58.2440   26.3460   46.7680 F   0  0  0  0  0  0  0  0  0  0  0  0
   57.1140   27.9740   45.4330 C   0  0  0  0  0  0  0  0  0  0  0  0
   55.8860   27.2590   45.6320 N   0  0  0  0  0  0  0  0  0  0  0  0
   55.7230   25.5380   45.7710 S   0  0  0  0  0  0  0  0  0  0  0  0
   56.7370   24.7260   44.5540 C   0  0  0  0  0  0  0  0  0  0  0  0
   54.2850   25.1400   45.5920 O   0  0  0  0  0  0  0  0  0  0  0  0
   56.1710   25.1190   47.1420 O   0  0  0  0  0  0  0  0  0  0  0  0
   57.1780   29.1490   44.6620 C   0  0  0  0  0  0  0  0  0  0  0  0
   57.1850   32.4900   45.3350 C   0  0  0  0  0  0  0  0  0  0  0  0
   57.0270   33.8990   45.9480 C   0  0  0  0  0  0  0  0  0  0  0  0
   61.4350   33.9500   47.6410 O   0  0  0  0  0  0  0  0  0  0  0  0
   63.7887   33.0044   49.8330 H   0  0  0  0  0  0  0  0  0  0  0  0
   63.5624   31.4075   49.0422 H   0  0  0  0  0  0  0  0  0  0  0  0
   65.1800   32.1885   49.0422 H   0  0  0  0  0  0  0  0  0  0  0  0
   64.0572   34.1227   47.7446 H   0  0  0  0  0  0  0  0  0  0  0  0
   64.3025   32.5632   46.8635 H   0  0  0  0  0  0  0  0  0  0  0  0
   62.0465   30.9574   46.5408 H   0  0  0  0  0  0  0  0  0  0  0  0
   59.5150   31.6510   46.4730 H   0  0  0  0  0  0  0  0  0  0  0  0
   58.2837   33.7194   48.0696 H   0  0  0  0  0  0  0  0  0  0  0  0
   59.2537   35.2583   47.8940 H   0  0  0  0  0  0  0  0  0  0  0  0
   59.0776   35.5992   44.4712 H   0  0  0  0  0  0  0  0  0  0  0  0
   60.2292   34.4729   45.3273 H   0  0  0  0  0  0  0  0  0  0  0  0
   58.0807   33.8379   43.2924 H   0  0  0  0  0  0  0  0  0  0  0  0
   59.7985   33.3084   43.3617 H   0  0  0  0  0  0  0  0  0  0  0  0
   57.5521   31.2125   43.1050 H   0  0  0  0  0  0  0  0  0  0  0  0
   59.3541   31.1364   43.1202 H   0  0  0  0  0  0  0  0  0  0  0  0
   60.4991   29.8813   45.0278 H   0  0  0  0  0  0  0  0  0  0  0  0
   60.4064   27.7636   46.3388 H   0  0  0  0  0  0  0  0  0  0  0  0
   57.4993   24.1155   45.0602 H   0  0  0  0  0  0  0  0  0  0  0  0
   56.1077   24.0793   43.9249 H   0  0  0  0  0  0  0  0  0  0  0  0
   57.2305   25.4814   43.9249 H   0  0  0  0  0  0  0  0  0  0  0  0
   56.2704   29.5275   44.1691 H   0  0  0  0  0  0  0  0  0  0  0  0
   56.3851   32.3385   44.5953 H   0  0  0  0  0  0  0  0  0  0  0  0
   57.1261   31.7651   46.1603 H   0  0  0  0  0  0  0  0  0  0  0  0
   56.4087   34.5069   45.2712 H   0  0  0  0  0  0  0  0  0  0  0  0
   56.5598   33.7740   46.9360 H   0  0  0  0  0  0  0  0  0  0  0  0
  1  2  1  0
  2  3  1  0
  3  4  2  0
  4  5  1  0
  5  6  2  0
  6  7  1  0
  7  8  1  0
  8  9  1  0
  9 10  1  0
 10 11  1  0
 11 12  1  0
 12 13  1  0
 13 14  2  0
 14 15  1  0
 15 16  2  0
 16 17  1  0
 16 18  1  0
 18 19  1  0
 19 20  1  0
 20 21  1  0
 20 22  2  0
 20 23  2  0
 18 24  2  0
 11 25  1  0
 25 26  1  0
  6 27  1  0
 27  3  1  0
 26  8  1  0
 24 13  1  0
  1 28  1  0
  1 29  1  0
  1 30  1  0
  2 31  1  0
  2 32  1  0
  4 33  1  0
  5 34  1  0
  7 35  1  0
  7 36  1  0
  9 37  1  0
  9 38  1  0
 10 39  1  0
 10 40  1  0
 12 41  1  0
 12 42  1  0
 14 43  1  0
 15 44  1  0
 21 45  1  0
 21 46  1  0
 21 47  1  0
 24 48  1  0
 25 49  1  0
 25 50  1  0
 26 51  1  0
 26 52  1  0
M  CHG  2   5   1  19  -1
M  END
>  <UniqueID>  (82) 
80

>  <SMILES>  (82) 
CCc1c[nH+]c(CN2CCN(Cc3ccc(F)c([N-]S(C)(=O)=O)c3)CC2)o1

>  <Energy>  (82) 
88.49576143968339

>  <Genealogy>  (82) 
CCc1c[nH+]c(CN2CCN(Cc3ccc(F)c([N-]S(C)(=O)=O)c3)CC2)o1 (protonated)
CCc1c[nH+]c(CN2CCN(Cc3ccc(F)c([N-]S(C)(=O)=O)c3)CC2)o1 (3D coordinates assigned)
CCc1c[nH+]c(CN2CCN(Cc3ccc(F)c([N-]S(C)(=O)=O)c3)CC2)o1 (nonaromatic ring conformer: 88.49576143968339 kcal/mol)

>  <smiles>  (82) 
CCc1cnc(CN2CCN(Cc3ccc(F)c(NS(C)(=O)=O)c3)CC2)o1

>  <score_type>  (82) 
oracle

>  <origin>  (82) 
adg

>  <m_score__min__energy>  (82) 
-8.7899999999999991

>  <m_primary>  (82) 
energy

$$$$
82:0
     RDKit          3D

 48 50  0  0  0  0  0  0  0  0999 V2000
   64.4840   32.7910   49.4490 C   0  0  0  0  0  0  0  0  0  0  0  0
   63.6580   31.6050   48.9620 C   0  0  0  0  0  0  0  0  0  0  0  0
   63.0130   31.9150   47.7280 O   0  0  0  0  0  0  0  0  0  0  0  0
   62.4400   33.1620   47.4450 C   0  0  0  0  0  0  0  0  0  0  0  0
   63.1740   34.1330   47.1060 O   0  0  0  0  0  0  0  0  0  0  0  0
   61.0150   33.3420   47.5440 N   0  0  0  0  0  0  0  0  0  0  0  0
   60.4130   34.6220   47.1590 C   0  0  0  0  0  0  0  0  0  0  0  0
   58.8780   34.5890   47.2670 C   0  0  0  0  0  0  0  0  0  0  0  0
   58.2520   33.3380   46.7560 N   0  0  0  0  0  0  0  0  0  0  0  0
   57.9320   33.4370   45.3300 C   0  0  0  0  0  0  0  0  0  0  0  0
   56.9830   34.4320   44.8730 S   0  0  0  0  0  0  0  0  0  0  0  0
   58.4110   32.3910   44.3330 C   0  0  0  0  0  0  0  0  0  0  0  0
   57.2580   31.6240   43.6640 C   0  0  0  0  0  0  0  0  0  0  0  0
   56.9980   30.2980   44.3200 C   0  0  0  0  0  0  0  0  0  0  0  0
   55.7570   29.7130   44.5550 C   0  0  0  0  0  0  0  0  0  0  0  0
   55.9070   28.5230   45.1810 N   0  0  0  0  0  0  0  0  0  0  0  0
   57.2340   28.3520   45.3410 C   0  0  0  0  0  0  0  0  0  0  0  0
   57.8820   27.2680   45.9340 C   0  0  0  0  0  0  0  0  0  0  0  0
   59.2880   27.2940   45.9910 C   0  0  0  0  0  0  0  0  0  0  0  0
   60.0070   28.3890   45.4610 C   0  0  0  0  0  0  0  0  0  0  0  0
   59.3270   29.4680   44.8670 C   0  0  0  0  0  0  0  0  0  0  0  0
   57.9310   29.4150   44.8270 C   0  0  0  0  0  0  0  0  0  0  0  0
   58.9890   32.0760   47.0630 C   0  0  0  0  0  0  0  0  0  0  0  0
   60.1470   32.2740   48.0410 C   0  0  0  0  0  0  0  0  0  0  0  0
   64.4933   32.8044   50.5489 H   0  0  0  0  0  0  0  0  0  0  0  0
   65.5142   32.6987   49.0747 H   0  0  0  0  0  0  0  0  0  0  0  0
   64.0402   33.7253   49.0747 H   0  0  0  0  0  0  0  0  0  0  0  0
   64.3202   30.7389   48.8161 H   0  0  0  0  0  0  0  0  0  0  0  0
   62.8902   31.3745   49.7152 H   0  0  0  0  0  0  0  0  0  0  0  0
   60.7994   35.4105   47.8216 H   0  0  0  0  0  0  0  0  0  0  0  0
   60.6771   34.8215   46.1100 H   0  0  0  0  0  0  0  0  0  0  0  0
   58.6052   34.7023   48.3266 H   0  0  0  0  0  0  0  0  0  0  0  0
   58.5013   35.4084   46.6372 H   0  0  0  0  0  0  0  0  0  0  0  0
   57.3500   33.2700   47.2920 H   0  0  0  0  0  0  0  0  0  0  0  0
   58.9967   32.8954   43.5504 H   0  0  0  0  0  0  0  0  0  0  0  0
   59.0135   31.6582   44.8898 H   0  0  0  0  0  0  0  0  0  0  0  0
   56.3448   32.2341   43.7256 H   0  0  0  0  0  0  0  0  0  0  0  0
   57.5436   31.4319   42.6192 H   0  0  0  0  0  0  0  0  0  0  0  0
   54.7907   30.1557   44.2717 H   0  0  0  0  0  0  0  0  0  0  0  0
   55.1470   27.8710   45.4780 H   0  0  0  0  0  0  0  0  0  0  0  0
   57.3126   26.4207   46.3436 H   0  0  0  0  0  0  0  0  0  0  0  0
   59.8313   26.4557   46.4516 H   0  0  0  0  0  0  0  0  0  0  0  0
   61.1057   28.3978   45.5132 H   0  0  0  0  0  0  0  0  0  0  0  0
   59.8756   30.3245   44.4482 H   0  0  0  0  0  0  0  0  0  0  0  0
   58.2816   31.3564   47.5008 H   0  0  0  0  0  0  0  0  0  0  0  0
   59.4193   31.7123   46.1183 H   0  0  0  0  0  0  0  0  0  0  0  0
   59.7514   32.5506   49.0294 H   0  0  0  0  0  0  0  0  0  0  0  0
   60.7215   31.3401   48.1297 H   0  0  0  0  0  0  0  0  0  0  0  0
  1  2  1  0
  2  3  1  0
  3  4  1  0
  4  5  2  0
  4  6  1  0
  6  7  1  0
  7  8  1  0
  8  9  1  0
  9 10  1  0
 10 11  2  0
 10 12  1  0
 12 13  1  0
 13 14  1  0
 14 15  2  0
 15 16  1  0
 16 17  1  0
 17 18  2  0
 18 19  1  0
 19 20  2  0
 20 21  1  0
 21 22  2  0
  9 23  1  0
 23 24  1  0
 24  6  1  0
 22 14  1  0
 22 17  1  0
  1 25  1  0
  1 26  1  0
  1 27  1  0
  2 28  1  0
  2 29  1  0
  7 30  1  0
  7 31  1  0
  8 32  1  0
  8 33  1  0
  9 34  1  0
 12 35  1  0
 12 36  1  0
 13 37  1  0
 13 38  1  0
 15 39  1  0
 16 40  1  0
 18 41  1  0
 19 42  1  0
 20 43  1  0
 21 44  1  0
 23 45  1  0
 23 46  1  0
 24 47  1  0
 24 48  1  0
M  CHG  1   9   1
M  END
>  <UniqueID>  (83) 
81

>  <SMILES>  (83) 
CCOC(=O)N1CC[NH+](C(=S)CCc2c[nH]c3ccccc23)CC1

>  <Energy>  (83) 
87.20855169329683

>  <Genealogy>  (83) 
CCOC(=O)N1CC[NH+](C(=S)CCc2c[nH]c3ccccc23)CC1 (protonated)
CCOC(=O)N1CC[NH+](C(=S)CCc2c[nH]c3ccccc23)CC1 (3D coordinates assigned)
CCOC(=O)N1CC[NH+](C(=S)CCc2c[nH]c3ccccc23)CC1 (nonaromatic ring conformer: 87.20855169329683 kcal/mol)

>  <smiles>  (83) 
CCOC(=O)N1CCN(C(=S)CCc2c[nH]c3ccccc23)CC1

>  <score_type>  (83) 
oracle

>  <origin>  (83) 
adg

>  <m_score__min__energy>  (83) 
-6.6500000000000004

>  <m_primary>  (83) 
energy

$$$$
83:0
     RDKit          3D

 51 53  0  0  0  0  0  0  0  0999 V2000
   58.5790   33.0990   48.4060 C   0  0  0  0  0  0  0  0  0  0  0  0
   58.2890   33.2130   46.9770 N   0  0  0  0  0  0  0  0  0  0  0  0
   57.4320   32.3480   46.4280 N   0  0  0  0  0  0  0  0  0  0  0  0
   57.0890   32.4030   45.1110 C   0  0  0  0  0  0  0  0  0  0  0  0
   56.1720   31.4960   44.5670 O   0  0  0  0  0  0  0  0  0  0  0  0
   56.5280   30.5020   43.6080 C   0  0  0  0  0  0  0  0  0  0  0  0
   57.8240   29.8370   43.9910 C   0  0  0  0  0  0  0  0  0  0  0  0
   58.8640   30.4690   43.8770 O   0  0  0  0  0  0  0  0  0  0  0  0
   57.8360   28.4810   44.5190 N   0  0  0  0  0  0  0  0  0  0  0  0
   59.1550   27.8180   44.3350 C   0  0  0  0  0  0  0  0  0  0  0  0
   60.0470   27.8700   45.5930 C   0  0  0  0  0  0  0  0  0  0  0  0
   59.7720   29.0980   46.3570 N   0  0  0  0  0  0  0  0  0  0  0  0
   60.7610   29.3060   47.4390 C   0  0  0  0  0  0  0  0  0  0  0  0
   60.5080   30.6280   48.1780 C   0  0  0  0  0  0  0  0  0  0  0  0
   61.6290   31.6090   47.9560 C   0  0  0  0  0  0  0  0  0  0  0  0
   62.7480   31.6110   48.8060 C   0  0  0  0  0  0  0  0  0  0  0  0
   63.7700   32.5470   48.6240 C   0  0  0  0  0  0  0  0  0  0  0  0
   63.6820   33.4900   47.5940 C   0  0  0  0  0  0  0  0  0  0  0  0
   62.5720   33.4960   46.7470 C   0  0  0  0  0  0  0  0  0  0  0  0
   61.5470   32.5610   46.9250 C   0  0  0  0  0  0  0  0  0  0  0  0
   58.3990   29.0730   46.9040 C   0  0  0  0  0  0  0  0  0  0  0  0
   57.3780   28.4510   45.9240 C   0  0  0  0  0  0  0  0  0  0  0  0
   57.6480   33.3890   44.3030 C   0  0  0  0  0  0  0  0  0  0  0  0
   58.5390   34.3010   44.8630 C   0  0  0  0  0  0  0  0  0  0  0  0
   58.8530   34.2070   46.2210 C   0  0  0  0  0  0  0  0  0  0  0  0
   59.6510   35.0380   46.7340 O   0  0  0  0  0  0  0  0  0  0  0  0
   57.7087   33.4411   48.9852 H   0  0  0  0  0  0  0  0  0  0  0  0
   58.7946   32.0492   48.6538 H   0  0  0  0  0  0  0  0  0  0  0  0
   59.4518   33.7209   48.6538 H   0  0  0  0  0  0  0  0  0  0  0  0
   55.7326   29.7437   43.5608 H   0  0  0  0  0  0  0  0  0  0  0  0
   56.6526   30.9838   42.6270 H   0  0  0  0  0  0  0  0  0  0  0  0
   57.1360   27.9270   43.9690 H   0  0  0  0  0  0  0  0  0  0  0  0
   58.9820   26.7637   44.0734 H   0  0  0  0  0  0  0  0  0  0  0  0
   59.6840   28.3621   43.5387 H   0  0  0  0  0  0  0  0  0  0  0  0
   59.8373   26.9940   46.2243 H   0  0  0  0  0  0  0  0  0  0  0  0
   61.1033   27.8655   45.2861 H   0  0  0  0  0  0  0  0  0  0  0  0
   60.6882   28.4749   48.1559 H   0  0  0  0  0  0  0  0  0  0  0  0
   61.7644   29.3452   46.9900 H   0  0  0  0  0  0  0  0  0  0  0  0
   59.5696   31.0688   47.8105 H   0  0  0  0  0  0  0  0  0  0  0  0
   60.4454   30.4142   49.2552 H   0  0  0  0  0  0  0  0  0  0  0  0
   62.8200   30.8727   49.6182 H   0  0  0  0  0  0  0  0  0  0  0  0
   64.6445   32.5423   49.2913 H   0  0  0  0  0  0  0  0  0  0  0  0
   64.4868   34.2262   47.4516 H   0  0  0  0  0  0  0  0  0  0  0  0
   62.5034   34.2379   45.9377 H   0  0  0  0  0  0  0  0  0  0  0  0
   60.6739   32.5707   46.2560 H   0  0  0  0  0  0  0  0  0  0  0  0
   58.4006   28.4827   47.8322 H   0  0  0  0  0  0  0  0  0  0  0  0
   58.0942   30.1143   47.0849 H   0  0  0  0  0  0  0  0  0  0  0  0
   57.2057   27.4041   46.2145 H   0  0  0  0  0  0  0  0  0  0  0  0
   56.4571   29.0497   45.9834 H   0  0  0  0  0  0  0  0  0  0  0  0
   57.3892   33.4471   43.2355 H   0  0  0  0  0  0  0  0  0  0  0  0
   58.9914   35.0881   44.2418 H   0  0  0  0  0  0  0  0  0  0  0  0
  1  2  1  0
  2  3  1  0
  3  4  2  0
  4  5  1  0
  5  6  1  0
  6  7  1  0
  7  8  2  0
  7  9  1  0
  9 10  1  0
 10 11  1  0
 11 12  1  0
 12 13  1  0
 13 14  1  0
 14 15  1  0
 15 16  2  0
 16 17  1  0
 17 18  2  0
 18 19  1  0
 19 20  2  0
 12 21  1  0
 21 22  1  0
  4 23  1  0
 23 24  2  0
 24 25  1  0
 25 26  2  0
 25  2  1  0
 22  9  1  0
 20 15  1  0
  1 27  1  0
  1 28  1  0
  1 29  1  0
  6 30  1  0
  6 31  1  0
  9 32  1  0
 10 33  1  0
 10 34  1  0
 11 35  1  0
 11 36  1  0
 13 37  1  0
 13 38  1  0
 14 39  1  0
 14 40  1  0
 16 41  1  0
 17 42  1  0
 18 43  1  0
 19 44  1  0
 20 45  1  0
 21 46  1  0
 21 47  1  0
 22 48  1  0
 22 49  1  0
 23 50  1  0
 24 51  1  0
M  CHG  1   9   1
M  END
>  <UniqueID>  (84) 
82

>  <SMILES>  (84) 
Cn1nc(OCC(=O)[NH+]2CCN(CCc3ccccc3)CC2)ccc1=O

>  <Energy>  (84) 
57.53162761211183

>  <Genealogy>  (84) 
Cn1nc(OCC(=O)[NH+]2CCN(CCc3ccccc3)CC2)ccc1=O (protonated)
Cn1nc(OCC(=O)[NH+]2CCN(CCc3ccccc3)CC2)ccc1=O (3D coordinates assigned)
Cn1nc(OCC(=O)[NH+]2CCN(CCc3ccccc3)CC2)ccc1=O (nonaromatic ring conformer: 57.53162761211183 kcal/mol)

>  <smiles>  (84) 
Cn1nc(OCC(=O)N2CCN(CCc3ccccc3)CC2)ccc1=O

>  <score_type>  (84) 
oracle

>  <origin>  (84) 
adg

>  <m_score__min__energy>  (84) 
-7.79

>  <m_primary>  (84) 
energy

$$$$
84:0
     RDKit          3D

 56 59  0  0  0  0  0  0  0  0999 V2000
   58.9070   33.8360   51.6310 C   0  0  0  0  0  0  0  0  0  0  0  0
   59.2870   33.4690   50.2270 C   0  0  0  0  0  0  0  0  0  0  0  0
   60.0400   34.4180   49.4500 N   0  0  0  0  0  0  0  0  0  0  0  0
   61.2140   34.0810   48.6920 C   0  0  0  0  0  0  0  0  0  0  0  0
   61.1900   34.1970   47.2940 C   0  0  0  0  0  0  0  0  0  0  0  0
   62.3090   33.8460   46.5360 C   0  0  0  0  0  0  0  0  0  0  0  0
   63.4690   33.3950   47.1700 C   0  0  0  0  0  0  0  0  0  0  0  0
   63.5110   33.2930   48.5620 C   0  0  0  0  0  0  0  0  0  0  0  0
   64.9920   32.7860   49.3590 Cl  0  0  0  0  0  0  0  0  0  0  0  0
   62.3880   33.6330   49.3230 C   0  0  0  0  0  0  0  0  0  0  0  0
   58.9000   32.3220   49.7330 N   0  0  0  0  0  0  0  0  0  0  0  0
   58.8240   32.0270   48.3290 C   0  0  0  0  0  0  0  0  0  0  0  0
   58.0240   32.7970   47.4680 C   0  0  0  0  0  0  0  0  0  0  0  0
   57.9880   32.5150   46.1000 C   0  0  0  0  0  0  0  0  0  0  0  0
   58.7240   31.4450   45.5830 C   0  0  0  0  0  0  0  0  0  0  0  0
   59.5050   30.6420   46.4350 C   0  0  0  0  0  0  0  0  0  0  0  0
   60.2700   29.4950   45.8900 C   0  0  0  0  0  0  0  0  0  0  0  0
   61.5040   29.6030   45.6570 O   0  0  0  0  0  0  0  0  0  0  0  0
   59.6210   28.2490   45.6100 N   0  0  0  0  0  0  0  0  0  0  0  0
   59.1170   27.9880   44.2560 C   0  0  0  0  0  0  0  0  0  0  0  0
   57.7770   27.2410   44.3140 C   0  0  0  0  0  0  0  0  0  0  0  0
   57.7730   26.2010   45.3520 N   0  0  0  0  0  0  0  0  0  0  0  0
   56.5870   25.4360   45.5770 C   0  0  0  0  0  0  0  0  0  0  0  0
   55.8800   25.6740   46.5950 O   0  0  0  0  0  0  0  0  0  0  0  0
   56.1150   24.4240   44.5770 C   0  0  0  0  0  0  0  0  0  0  0  0
   56.9810   23.1730   44.5200 C   0  0  0  0  0  0  0  0  0  0  0  0
   57.0170   24.1700   43.3770 C   0  0  0  0  0  0  0  0  0  0  0  0
   58.9740   25.9210   46.1410 C   0  0  0  0  0  0  0  0  0  0  0  0
   59.5740   27.2300   46.6610 C   0  0  0  0  0  0  0  0  0  0  0  0
   59.5420   30.9400   47.8120 C   0  0  0  0  0  0  0  0  0  0  0  0
   59.5123   33.2514   52.3394 H   0  0  0  0  0  0  0  0  0  0  0  0
   59.0890   34.9089   51.7916 H   0  0  0  0  0  0  0  0  0  0  0  0
   57.8411   33.6168   51.7916 H   0  0  0  0  0  0  0  0  0  0  0  0
   59.7680   35.4260   49.5140 H   0  0  0  0  0  0  0  0  0  0  0  0
   60.2839   34.5668   46.7918 H   0  0  0  0  0  0  0  0  0  0  0  0
   62.2769   33.9247   45.4393 H   0  0  0  0  0  0  0  0  0  0  0  0
   64.3504   33.1199   46.5721 H   0  0  0  0  0  0  0  0  0  0  0  0
   62.4233   33.5496   50.4193 H   0  0  0  0  0  0  0  0  0  0  0  0
   58.6190   31.5560   50.3880 H   0  0  0  0  0  0  0  0  0  0  0  0
   57.4236   33.6252   47.8726 H   0  0  0  0  0  0  0  0  0  0  0  0
   57.3786   33.1369   45.4278 H   0  0  0  0  0  0  0  0  0  0  0  0
   58.6926   31.2295   44.5048 H   0  0  0  0  0  0  0  0  0  0  0  0
   58.9753   28.9448   43.7321 H   0  0  0  0  0  0  0  0  0  0  0  0
   59.8477   27.3653   43.7190 H   0  0  0  0  0  0  0  0  0  0  0  0
   56.9765   27.9634   44.5315 H   0  0  0  0  0  0  0  0  0  0  0  0
   57.6172   26.7522   43.3416 H   0  0  0  0  0  0  0  0  0  0  0  0
   55.0449   24.6512   44.6919 H   0  0  0  0  0  0  0  0  0  0  0  0
   57.8477   23.0734   45.1900 H   0  0  0  0  0  0  0  0  0  0  0  0
   56.7920   22.0926   44.6031 H   0  0  0  0  0  0  0  0  0  0  0  0
   57.9098   24.7929   43.2188 H   0  0  0  0  0  0  0  0  0  0  0  0
   56.8649   24.1109   42.2892 H   0  0  0  0  0  0  0  0  0  0  0  0
   58.7087   25.2778   46.9930 H   0  0  0  0  0  0  0  0  0  0  0  0
   59.7134   25.4114   45.5058 H   0  0  0  0  0  0  0  0  0  0  0  0
   58.9572   27.6013   47.4926 H   0  0  0  0  0  0  0  0  0  0  0  0
   60.6022   27.0309   46.9974 H   0  0  0  0  0  0  0  0  0  0  0  0
   60.1410   30.3126   48.4884 H   0  0  0  0  0  0  0  0  0  0  0  0
  1  2  1  0
  2  3  1  0
  3  4  1  0
  4  5  2  0
  5  6  1  0
  6  7  2  0
  7  8  1  0
  8  9  1  0
  8 10  2  0
  2 11  2  3
 11 12  1  0
 12 13  2  0
 13 14  1  0
 14 15  2  0
 15 16  1  0
 16 17  1  0
 17 18  2  0
 17 19  1  0
 19 20  1  0
 20 21  1  0
 21 22  1  0
 22 23  1  0
 23 24  2  0
 23 25  1  0
 25 26  1  0
 26 27  1  0
 22 28  1  0
 28 29  1  0
 16 30  2  0
 10  4  1  0
 30 12  1  0
 29 19  1  0
 27 25  1  0
  1 31  1  0
  1 32  1  0
  1 33  1  0
  3 34  1  0
  5 35  1  0
  6 36  1  0
  7 37  1  0
 10 38  1  0
 11 39  1  0
 13 40  1  0
 14 41  1  0
 15 42  1  0
 20 43  1  0
 20 44  1  0
 21 45  1  0
 21 46  1  0
 25 47  1  0
 26 48  1  0
 26 49  1  0
 27 50  1  0
 27 51  1  0
 28 52  1  0
 28 53  1  0
 29 54  1  0
 29 55  1  0
 30 56  1  0
M  CHG  1  11   1
M  END
>  <UniqueID>  (85) 
83

>  <SMILES>  (85) 
CC(Nc1cccc(Cl)c1)=[NH+]c1cccc(C(=O)N2CCN(C(=O)C3CC3)CC2)c1

>  <Energy>  (85) 
340.66393537963836

>  <Genealogy>  (85) 
CC(Nc1cccc(Cl)c1)=[NH+]c1cccc(C(=O)N2CCN(C(=O)C3CC3)CC2)c1 (protonated)
CC(Nc1cccc(Cl)c1)=[NH+]c1cccc(C(=O)N2CCN(C(=O)C3CC3)CC2)c1 (3D coordinates assigned)
CC(Nc1cccc(Cl)c1)=[NH+]c1cccc(C(=O)N2CCN(C(=O)C3CC3)CC2)c1 (nonaromatic ring conformer: 340.66393537963836 kcal/mol)

>  <smiles>  (85) 
CC(=Nc1cccc(C(=O)N2CCN(C(=O)C3CC3)CC2)c1)Nc1cccc(Cl)c1

>  <score_type>  (85) 
oracle

>  <origin>  (85) 
adg

>  <m_score__min__energy>  (85) 
-7.4900000000000002

>  <m_primary>  (85) 
energy

$$$$
85:0
     RDKit          3D

 54 57  0  0  0  0  0  0  0  0999 V2000
   58.3680   29.7260   50.0540 O   0  0  0  0  0  0  0  0  0  0  0  0
   59.0980   30.5400   50.6800 C   0  0  0  0  0  0  0  0  0  0  0  0
   58.5080   31.5330   51.5260 N   0  0  0  0  0  0  0  0  0  0  0  0
   58.9520   32.9210   51.5760 C   0  0  0  0  0  0  0  0  0  0  0  0
   59.2130   33.4290   50.1920 C   0  0  0  0  0  0  0  0  0  0  0  0
   59.9310   34.4560   50.0410 O   0  0  0  0  0  0  0  0  0  0  0  0
   58.7100   32.7140   49.0510 N   0  0  0  0  0  0  0  0  0  0  0  0
   58.7830   33.2000   47.7010 C   0  0  0  0  0  0  0  0  0  0  0  0
   59.5250   34.3590   47.4280 C   0  0  0  0  0  0  0  0  0  0  0  0
   59.6350   34.8370   46.1200 C   0  0  0  0  0  0  0  0  0  0  0  0
   59.0130   34.1570   45.0700 C   0  0  0  0  0  0  0  0  0  0  0  0
   58.2750   32.9920   45.3220 C   0  0  0  0  0  0  0  0  0  0  0  0
   57.6500   32.2260   44.1810 C   0  0  0  0  0  0  0  0  0  0  0  0
   57.2040   30.8380   44.5840 C   0  0  0  0  0  0  0  0  0  0  0  0
   55.8920   30.4920   44.4700 N   0  0  0  0  0  0  0  0  0  0  0  0
   55.4420   29.2870   44.8200 N   0  0  0  0  0  0  0  0  0  0  0  0
   56.2710   28.3330   45.3100 C   0  0  0  0  0  0  0  0  0  0  0  0
   55.7990   27.2150   45.6480 O   0  0  0  0  0  0  0  0  0  0  0  0
   57.6400   28.6080   45.4330 C   0  0  0  0  0  0  0  0  0  0  0  0
   58.1200   29.8730   45.0590 C   0  0  0  0  0  0  0  0  0  0  0  0
   59.5970   30.1440   45.2390 C   0  0  0  0  0  0  0  0  0  0  0  0
   60.4280   28.9530   44.7350 C   0  0  0  0  0  0  0  0  0  0  0  0
   59.9270   27.5720   45.2300 C   0  0  0  0  0  0  0  0  0  0  0  0
   58.6100   27.6130   46.0250 C   0  0  0  0  0  0  0  0  0  0  0  0
   58.1790   32.5070   46.6370 C   0  0  0  0  0  0  0  0  0  0  0  0
   60.5200   30.4150   50.5820 N   0  0  0  0  0  0  0  0  0  0  0  0
   61.3520   31.0080   49.5750 C   0  0  0  0  0  0  0  0  0  0  0  0
   62.3540   31.9440   49.8940 C   0  0  0  0  0  0  0  0  0  0  0  0
   63.1270   32.5180   48.8810 C   0  0  0  0  0  0  0  0  0  0  0  0
   62.8980   32.1780   47.5450 C   0  0  0  0  0  0  0  0  0  0  0  0
   61.8870   31.2700   47.2200 C   0  0  0  0  0  0  0  0  0  0  0  0
   61.1110   30.6950   48.2300 C   0  0  0  0  0  0  0  0  0  0  0  0
   58.1713   33.5357   52.0478 H   0  0  0  0  0  0  0  0  0  0  0  0
   59.8810   32.9804   52.1620 H   0  0  0  0  0  0  0  0  0  0  0  0
   58.3540   31.7440   49.2020 H   0  0  0  0  0  0  0  0  0  0  0  0
   60.0234   34.8948   48.2493 H   0  0  0  0  0  0  0  0  0  0  0  0
   60.2126   35.7507   45.9163 H   0  0  0  0  0  0  0  0  0  0  0  0
   59.1027   34.5371   44.0417 H   0  0  0  0  0  0  0  0  0  0  0  0
   56.7748   32.7856   43.8193 H   0  0  0  0  0  0  0  0  0  0  0  0
   58.4143   32.1148   43.3977 H   0  0  0  0  0  0  0  0  0  0  0  0
   59.8720   31.0441   44.6696 H   0  0  0  0  0  0  0  0  0  0  0  0
   59.8034   30.2945   46.3089 H   0  0  0  0  0  0  0  0  0  0  0  0
   60.4019   28.9552   43.6353 H   0  0  0  0  0  0  0  0  0  0  0  0
   61.4431   29.0834   45.1382 H   0  0  0  0  0  0  0  0  0  0  0  0
   59.7771   26.9269   44.3517 H   0  0  0  0  0  0  0  0  0  0  0  0
   60.6948   27.1920   45.9200 H   0  0  0  0  0  0  0  0  0  0  0  0
   58.1513   26.6133   46.0096 H   0  0  0  0  0  0  0  0  0  0  0  0
   58.8373   27.9222   47.0559 H   0  0  0  0  0  0  0  0  0  0  0  0
   57.6264   31.5769   46.8360 H   0  0  0  0  0  0  0  0  0  0  0  0
   62.5290   32.2243   50.9432 H   0  0  0  0  0  0  0  0  0  0  0  0
   63.9176   33.2391   49.1359 H   0  0  0  0  0  0  0  0  0  0  0  0
   63.5131   32.6248   46.7500 H   0  0  0  0  0  0  0  0  0  0  0  0
   61.7017   31.0075   46.1680 H   0  0  0  0  0  0  0  0  0  0  0  0
   60.3061   29.9925   47.9680 H   0  0  0  0  0  0  0  0  0  0  0  0
  1  2  2  0
  2  3  1  0
  3  4  1  0
  4  5  1  0
  5  6  2  0
  5  7  1  0
  7  8  1  0
  8  9  2  0
  9 10  1  0
 10 11  2  0
 11 12  1  0
 12 13  1  0
 13 14  1  0
 14 15  2  0
 15 16  1  0
 16 17  1  0
 17 18  2  0
 17 19  1  0
 19 20  2  0
 20 21  1  0
 21 22  1  0
 22 23  1  0
 23 24  1  0
 12 25  2  0
  2 26  1  0
 26 27  1  0
 27 28  2  0
 28 29  1  0
 29 30  2  0
 30 31  1  0
 31 32  2  0
 25  8  1  0
 32 27  1  0
 20 14  1  0
 24 19  1  0
  4 33  1  0
  4 34  1  0
  7 35  1  0
  9 36  1  0
 10 37  1  0
 11 38  1  0
 13 39  1  0
 13 40  1  0
 21 41  1  0
 21 42  1  0
 22 43  1  0
 22 44  1  0
 23 45  1  0
 23 46  1  0
 24 47  1  0
 24 48  1  0
 25 49  1  0
 28 50  1  0
 29 51  1  0
 30 52  1  0
 31 53  1  0
 32 54  1  0
M  CHG  3   3  -1  16  -1  26  -1
M  END
>  <UniqueID>  (86) 
84

>  <SMILES>  (86) 
O=C([N-]CC(=O)Nc1cccc(Cc2n[n-]c(=O)c3c2CCCC3)c1)[N-]c1ccccc1

>  <Energy>  (86) 
69.75460565922491

>  <Genealogy>  (86) 
O=C([N-]CC(=O)Nc1cccc(Cc2n[n-]c(=O)c3c2CCCC3)c1)[N-]c1ccccc1 (protonated)
O=C([N-]CC(=O)Nc1cccc(Cc2n[n-]c(=O)c3c2CCCC3)c1)[N-]c1ccccc1 (3D coordinates assigned)
O=C([N-]CC(=O)Nc1cccc(Cc2n[n-]c(=O)c3c2CCCC3)c1)[N-]c1ccccc1 (nonaromatic ring conformer: 69.75460565922491 kcal/mol)

>  <smiles>  (86) 
O=C(CNC(=O)Nc1ccccc1)Nc1cccc(Cc2n[nH]c(=O)c3c2CCCC3)c1

>  <score_type>  (86) 
oracle

>  <origin>  (86) 
adg

>  <m_score__min__energy>  (86) 
-13.85

>  <m_primary>  (86) 
energy

$$$$
86:0
     RDKit          3D

 42 44  0  0  0  0  0  0  0  0999 V2000
   65.6830   32.5340   49.9400 N   0  0  0  0  0  0  0  0  0  0  0  0
   64.5890   32.5880   49.2530 C   0  0  0  0  0  0  0  0  0  0  0  0
   64.4470   33.5050   48.2600 N   0  0  0  0  0  0  0  0  0  0  0  0
   63.3060   33.5760   47.5290 C   0  0  0  0  0  0  0  0  0  0  0  0
   62.2430   32.6970   47.7910 C   0  0  0  0  0  0  0  0  0  0  0  0
   60.9840   32.7550   47.0050 C   0  0  0  0  0  0  0  0  0  0  0  0
   60.5770   33.9550   46.3930 C   0  0  0  0  0  0  0  0  0  0  0  0
   59.3920   34.0080   45.6530 C   0  0  0  0  0  0  0  0  0  0  0  0
   58.5870   32.8670   45.5210 C   0  0  0  0  0  0  0  0  0  0  0  0
   57.3360   32.9190   44.6870 C   0  0  0  0  0  0  0  0  0  0  0  0
   56.7260   31.5940   44.5940 N   0  0  0  0  0  0  0  0  0  0  0  0
   56.7170   30.8610   43.3630 C   0  0  0  0  0  0  0  0  0  0  0  0
   57.1330   31.3980   42.3010 O   0  0  0  0  0  0  0  0  0  0  0  0
   56.2170   29.4480   43.3240 C   0  0  0  0  0  0  0  0  0  0  0  0
   56.0430   28.9440   44.6480 O   0  0  0  0  0  0  0  0  0  0  0  0
   56.9540   28.1190   45.3310 C   0  0  0  0  0  0  0  0  0  0  0  0
   58.3380   28.3850   45.3670 C   0  0  0  0  0  0  0  0  0  0  0  0
   59.2030   27.5280   46.0540 C   0  0  0  0  0  0  0  0  0  0  0  0
   58.6990   26.4070   46.7170 C   0  0  0  0  0  0  0  0  0  0  0  0
   57.3280   26.1390   46.6920 C   0  0  0  0  0  0  0  0  0  0  0  0
   56.4580   26.9910   46.0030 C   0  0  0  0  0  0  0  0  0  0  0  0
   55.0960   26.7140   45.9860 O   0  0  0  0  0  0  0  0  0  0  0  0
   58.9970   31.6650   46.1150 C   0  0  0  0  0  0  0  0  0  0  0  0
   60.1800   31.6100   46.8560 C   0  0  0  0  0  0  0  0  0  0  0  0
   62.4150   31.7610   48.8220 C   0  0  0  0  0  0  0  0  0  0  0  0
   63.5770   31.7260   49.5260 N   0  0  0  0  0  0  0  0  0  0  0  0
   66.6100   32.3920   49.4800 H   0  0  0  0  0  0  0  0  0  0  0  0
   63.2136   34.3247   46.7285 H   0  0  0  0  0  0  0  0  0  0  0  0
   61.1960   34.8583   46.4976 H   0  0  0  0  0  0  0  0  0  0  0  0
   59.0893   34.9497   45.1717 H   0  0  0  0  0  0  0  0  0  0  0  0
   56.6210   33.6147   45.1503 H   0  0  0  0  0  0  0  0  0  0  0  0
   57.5977   33.2615   43.6750 H   0  0  0  0  0  0  0  0  0  0  0  0
   56.3090   31.1530   45.4460 H   0  0  0  0  0  0  0  0  0  0  0  0
   55.2525   29.4195   42.7959 H   0  0  0  0  0  0  0  0  0  0  0  0
   56.9546   28.8233   42.7990 H   0  0  0  0  0  0  0  0  0  0  0  0
   58.7390   29.2706   44.8524 H   0  0  0  0  0  0  0  0  0  0  0  0
   60.2828   27.7371   46.0723 H   0  0  0  0  0  0  0  0  0  0  0  0
   59.3811   25.7353   47.2587 H   0  0  0  0  0  0  0  0  0  0  0  0
   56.9317   25.2562   47.2152 H   0  0  0  0  0  0  0  0  0  0  0  0
   58.3834   30.7597   45.9968 H   0  0  0  0  0  0  0  0  0  0  0  0
   60.4854   30.6639   47.3268 H   0  0  0  0  0  0  0  0  0  0  0  0
   61.6072   31.0537   49.0611 H   0  0  0  0  0  0  0  0  0  0  0  0
  1  2  2  3
  2  3  1  0
  3  4  2  0
  4  5  1  0
  5  6  1  0
  6  7  2  0
  7  8  1  0
  8  9  2  0
  9 10  1  0
 10 11  1  0
 11 12  1  0
 12 13  2  0
 12 14  1  0
 14 15  1  0
 15 16  1  0
 16 17  2  0
 17 18  1  0
 18 19  2  0
 19 20  1  0
 20 21  2  0
 21 22  1  0
  9 23  1  0
 23 24  2  0
  5 25  2  0
 25 26  1  0
 26  2  1  0
 24  6  1  0
 21 16  1  0
  1 27  1  0
  4 28  1  0
  7 29  1  0
  8 30  1  0
 10 31  1  0
 10 32  1  0
 11 33  1  0
 14 34  1  0
 14 35  1  0
 17 36  1  0
 18 37  1  0
 19 38  1  0
 20 39  1  0
 23 40  1  0
 24 41  1  0
 25 42  1  0
M  CHG  2  22  -1  26  -1
M  END
>  <UniqueID>  (87) 
85

>  <SMILES>  (87) 
N=c1ncc(-c2ccc(CNC(=O)COc3ccccc3[O-])cc2)c[n-]1

>  <Energy>  (87) 
47.443313198938284

>  <Genealogy>  (87) 
N=c1ncc(-c2ccc(CNC(=O)COc3ccccc3[O-])cc2)c[n-]1 (protonated)
N=c1ncc(-c2ccc(CNC(=O)COc3ccccc3[O-])cc2)c[n-]1 (3D coordinates assigned)
N=c1ncc(-c2ccc(CNC(=O)COc3ccccc3[O-])cc2)c[n-]1 (optimized conformer: 47.443313198938284 kcal/mol)

>  <smiles>  (87) 
N=c1ncc(-c2ccc(CNC(=O)COc3ccccc3O)cc2)c[nH]1

>  <score_type>  (87) 
oracle

>  <origin>  (87) 
adg

>  <m_score__min__energy>  (87) 
-12.65

>  <m_primary>  (87) 
energy

$$$$
87:0
     RDKit          3D

 59 63  0  0  0  0  0  0  0  0999 V2000
   50.9188   27.6526   52.6700 H   0  0  0  0  0  0  0  0  0  0  0  0
   51.9190   27.3320   52.9970 C   0  0  0  0  0  0  0  0  0  0  0  0
   52.1169   26.2691   53.1999 H   0  0  0  0  0  0  0  0  0  0  0  0
   52.8950   28.2350   53.1480 C   0  0  0  0  0  0  0  0  0  0  0  0
   52.8180   29.6150   52.9270 C   0  0  0  0  0  0  0  0  0  0  0  0
   51.7330   30.3090   52.5230 C   0  0  0  0  0  0  0  0  0  0  0  0
   50.9892   30.5676   53.2910 H   0  0  0  0  0  0  0  0  0  0  0  0
   51.4550   30.7530   51.1390 C   0  0  0  0  0  0  0  0  0  0  0  0
   51.4460   29.9740   50.0430 N   0  0  0  0  0  0  0  0  0  0  0  0
   51.1210   30.8280   49.0480 C   0  0  0  0  0  0  0  0  0  0  0  0
   51.0130   30.4620   47.8490 O   0  0  0  0  0  0  0  0  0  0  0  0
   50.9200   32.1030   49.4420 N   0  0  0  0  0  0  0  0  0  0  0  0
   51.1320   32.0370   50.7660 C   0  0  0  0  0  0  0  0  0  0  0  0
   51.0320   33.1310   51.6160 O   0  0  0  0  0  0  0  0  0  0  0  0
   54.0880   30.1130   53.2130 C   0  0  0  0  0  0  0  0  0  0  0  0
   54.4142   31.1615   53.1473 H   0  0  0  0  0  0  0  0  0  0  0  0
   54.8560   29.0310   53.5950 C   0  0  0  0  0  0  0  0  0  0  0  0
   56.3140   29.0790   53.9360 C   0  0  0  0  0  0  0  0  0  0  0  0
   56.4828   28.5606   54.8914 H   0  0  0  0  0  0  0  0  0  0  0  0
   56.8897   28.5850   53.1395 H   0  0  0  0  0  0  0  0  0  0  0  0
   56.7610   30.5070   54.0580 C   0  0  0  0  0  0  0  0  0  0  0  0
   56.9682   30.9224   55.0553 H   0  0  0  0  0  0  0  0  0  0  0  0
   56.9130   31.2860   52.9800 C   0  0  0  0  0  0  0  0  0  0  0  0
   56.1598   32.0656   52.7932 H   0  0  0  0  0  0  0  0  0  0  0  0
   58.0390   31.1580   52.0230 C   0  0  0  0  0  0  0  0  0  0  0  0
   58.3590   32.2560   51.2080 C   0  0  0  0  0  0  0  0  0  0  0  0
   57.7694   33.1815   51.2846 H   0  0  0  0  0  0  0  0  0  0  0  0
   59.4190   32.1840   50.3010 C   0  0  0  0  0  0  0  0  0  0  0  0
   59.6514   33.0491   49.6625 H   0  0  0  0  0  0  0  0  0  0  0  0
   60.1890   31.0160   50.1990 C   0  0  0  0  0  0  0  0  0  0  0  0
   61.2760   30.9420   49.2610 N   0  0  0  0  0  0  0  0  0  0  0  0
   62.6570   30.7620   49.7190 C   0  0  0  0  0  0  0  0  0  0  0  0
   62.7119   30.9287   50.8049 H   0  0  0  0  0  0  0  0  0  0  0  0
   62.9958   29.7391   49.4978 H   0  0  0  0  0  0  0  0  0  0  0  0
   63.5490   31.7770   48.9950 C   0  0  0  0  0  0  0  0  0  0  0  0
   63.2388   32.7888   49.2951 H   0  0  0  0  0  0  0  0  0  0  0  0
   64.5877   31.5553   49.2814 H   0  0  0  0  0  0  0  0  0  0  0  0
   63.4760   31.6830   47.5050 N   0  0  0  0  0  0  0  0  0  0  0  0
   64.3210   31.1390   47.2090 H   0  0  0  0  0  0  0  0  0  0  0  0
   63.6720   33.0520   46.9370 C   0  0  0  0  0  0  0  0  0  0  0  0
   64.5302   32.7325   46.3276 H   0  0  0  0  0  0  0  0  0  0  0  0
   63.4160   34.3010   47.7810 C   0  0  0  0  0  0  0  0  0  0  0  0
   63.1992   34.2042   48.8551 H   0  0  0  0  0  0  0  0  0  0  0  0
   63.9647   35.2342   47.9760 H   0  0  0  0  0  0  0  0  0  0  0  0
   62.3860   33.8510   46.7520 C   0  0  0  0  0  0  0  0  0  0  0  0
   61.4253   33.4304   47.0839 H   0  0  0  0  0  0  0  0  0  0  0  0
   61.8833   34.3266   45.8970 H   0  0  0  0  0  0  0  0  0  0  0  0
   62.3040   30.8960   47.0160 C   0  0  0  0  0  0  0  0  0  0  0  0
   62.1123   31.1677   45.9675 H   0  0  0  0  0  0  0  0  0  0  0  0
   62.5547   29.8305   47.1250 H   0  0  0  0  0  0  0  0  0  0  0  0
   61.0260   31.1530   47.8300 C   0  0  0  0  0  0  0  0  0  0  0  0
   60.6970   32.1903   47.6692 H   0  0  0  0  0  0  0  0  0  0  0  0
   60.2462   30.4517   47.4982 H   0  0  0  0  0  0  0  0  0  0  0  0
   59.8810   29.9200   51.0180 C   0  0  0  0  0  0  0  0  0  0  0  0
   60.4783   28.9992   50.9451 H   0  0  0  0  0  0  0  0  0  0  0  0
   58.8210   29.9890   51.9260 C   0  0  0  0  0  0  0  0  0  0  0  0
   58.5953   29.1256   52.5692 H   0  0  0  0  0  0  0  0  0  0  0  0
   54.1370   27.8950   53.5460 N   0  0  0  0  0  0  0  0  0  0  0  0
   54.4850   26.9350   53.7670 H   0  0  0  0  0  0  0  0  0  0  0  0
  1  2  1  0
  2  3  1  0
  2  4  2  0
  4  5  1  0
  5  6  2  0
  6  7  1  0
  6  8  1  0
  8  9  1  0
  9 10  1  0
 10 11  2  0
 10 12  1  0
 12 13  1  0
 13 14  1  0
  5 15  1  0
 15 16  1  0
 15 17  2  0
 17 18  1  0
 18 19  1  0
 18 20  1  0
 18 21  1  0
 21 22  1  0
 21 23  2  0
 23 24  1  0
 23 25  1  0
 25 26  2  0
 26 27  1  0
 26 28  1  0
 28 29  1  0
 28 30  2  0
 30 31  1  0
 31 32  1  0
 32 33  1  0
 32 34  1  0
 32 35  1  0
 35 36  1  0
 35 37  1  0
 35 38  1  0
 38 39  1  0
 38 40  1  0
 40 41  1  0
 40 42  1  0
 42 43  1  0
 42 44  1  0
 42 45  1  0
 45 46  1  0
 45 47  1  0
 38 48  1  0
 48 49  1  0
 48 50  1  0
 48 51  1  0
 51 52  1  0
 51 53  1  0
 30 54  1  0
 54 55  1  0
 54 56  2  0
 56 57  1  0
 17 58  1  0
 58 59  1  0
 58  4  1  0
 13  8  2  0
 56 25  1  0
 51 31  1  0
 45 40  1  0
M  CHG  4   9  -1  12  -1  14  -1  38   1
M  END
>  <UniqueID>  (88) 
86

>  <SMILES>  (88) 
C=c1[nH]c(C/C=C/c2ccc(N3CC[NH+](C4CC4)CC3)cc2)c/c1=C\c1[n-]c(=O)[n-]c1[O-]

>  <Energy>  (88) 
411.72898011700914

>  <Genealogy>  (88) 
C=c1[nH]c(CC=Cc2ccc(N3CC[NH+](C4CC4)CC3)cc2)cc1=Cc1[n-]c(=O)[n-]c1[O-] (protonated)
C=c1[nH]c(C/C=C/c2ccc(N3CC[NH+](C4CC4)CC3)cc2)c/c1=C\c1[n-]c(=O)[n-]c1[O-] (cis-trans isomerization)
C=c1[nH]c(C/C=C/c2ccc(N3CC[NH+](C4CC4)CC3)cc2)c/c1=C\c1[n-]c(=O)[n-]c1[O-] (3D coordinates assigned)
C=c1[nH]c(C/C=C/c2ccc(N3CC[NH+](C4CC4)CC3)cc2)c/c1=C\c1[n-]c(=O)[n-]c1[O-] (nonaromatic ring conformer: 411.72898011700914 kcal/mol)

>  <smiles>  (88) 
C=c1[nH]c(CC=Cc2ccc(N3CCN(C4CC4)CC3)cc2)cc1=Cc1[nH]c(=O)[nH]c1O

>  <score_type>  (88) 
oracle

>  <origin>  (88) 
adg

>  <m_score__min__energy>  (88) 
-15.92

>  <m_primary>  (88) 
energy

$$$$
88:0
     RDKit          3D

 69 73  0  0  0  0  0  0  0  0999 V2000
   61.3360   25.7830   52.3380 C   0  0  0  0  0  0  0  0  0  0  0  0
   61.1430   26.9180   51.3750 C   0  0  0  0  0  0  0  0  0  0  0  0
   60.7410   26.6640   50.0560 C   0  0  0  0  0  0  0  0  0  0  0  0
   60.5310   27.7210   49.1660 C   0  0  0  0  0  0  0  0  0  0  0  0
   60.7130   29.0510   49.5790 C   0  0  0  0  0  0  0  0  0  0  0  0
   60.4950   30.1630   48.5910 C   0  0  0  0  0  0  0  0  0  0  0  0
   61.1340   29.3120   50.9030 C   0  0  0  0  0  0  0  0  0  0  0  0
   61.4180   30.6490   51.3420 N   0  0  0  0  0  0  0  0  0  0  0  0
   62.8010   31.0460   51.6440 C   0  0  0  0  0  0  0  0  0  0  0  0
   63.1940   32.2840   50.8230 C   0  0  0  0  0  0  0  0  0  0  0  0
   62.0830   33.2410   50.7360 N   0  0  0  0  0  0  0  0  0  0  0  0
   62.0640   34.2080   49.6770 C   0  0  0  0  0  0  0  0  0  0  0  0
   62.7450   35.2630   49.7820 O   0  0  0  0  0  0  0  0  0  0  0  0
   61.1900   33.9980   48.5070 C   0  0  0  0  0  0  0  0  0  0  0  0
   59.7940   33.9910   48.6470 C   0  0  0  0  0  0  0  0  0  0  0  0
   58.9790   33.6510   47.5610 C   0  0  0  0  0  0  0  0  0  0  0  0
   59.5540   33.3460   46.3140 C   0  0  0  0  0  0  0  0  0  0  0  0
   58.7840   32.8780   45.2040 N   0  0  0  0  0  0  0  0  0  0  0  0
   57.4140   32.4800   45.2740 C   0  0  0  0  0  0  0  0  0  0  0  0
   56.6170   33.0390   46.0740 O   0  0  0  0  0  0  0  0  0  0  0  0
   56.9470   31.3600   44.3980 C   0  0  0  0  0  0  0  0  0  0  0  0
   57.3170   30.0780   45.0070 N   0  0  0  0  0  0  0  0  0  0  0  0
   56.5050   29.0070   45.1690 C   0  0  0  0  0  0  0  0  0  0  0  0
   55.1450   29.0050   44.8750 O   0  0  0  0  0  0  0  0  0  0  0  0
   57.2190   27.9230   45.6340 C   0  0  0  0  0  0  0  0  0  0  0  0
   58.5330   28.3230   45.7070 C   0  0  0  0  0  0  0  0  0  0  0  0
   58.5640   29.6510   45.3270 C   0  0  0  0  0  0  0  0  0  0  0  0
   59.7190   30.4300   45.2620 O   0  0  0  0  0  0  0  0  0  0  0  0
   59.6500   27.4560   46.2100 C   0  0  0  0  0  0  0  0  0  0  0  0
   59.2320   25.9690   46.1940 C   0  0  0  0  0  0  0  0  0  0  0  0
   57.7990   25.7650   46.7350 C   0  0  0  0  0  0  0  0  0  0  0  0
   56.7580   26.5190   45.8830 C   0  0  0  0  0  0  0  0  0  0  0  0
   60.9410   33.4260   46.1610 C   0  0  0  0  0  0  0  0  0  0  0  0
   61.7540   33.7300   47.2500 C   0  0  0  0  0  0  0  0  0  0  0  0
   60.8780   33.0540   51.5500 C   0  0  0  0  0  0  0  0  0  0  0  0
   60.3350   31.6410   51.3410 C   0  0  0  0  0  0  0  0  0  0  0  0
   61.3180   28.2450   51.7970 C   0  0  0  0  0  0  0  0  0  0  0  0
   61.2716   26.1617   53.3687 H   0  0  0  0  0  0  0  0  0  0  0  0
   60.5535   25.0272   52.1755 H   0  0  0  0  0  0  0  0  0  0  0  0
   62.3244   25.3283   52.1755 H   0  0  0  0  0  0  0  0  0  0  0  0
   60.5901   25.6275   49.7199 H   0  0  0  0  0  0  0  0  0  0  0  0
   60.2202   27.5092   48.1323 H   0  0  0  0  0  0  0  0  0  0  0  0
   60.3107   31.1030   49.1317 H   0  0  0  0  0  0  0  0  0  0  0  0
   61.3888   30.2726   47.9592 H   0  0  0  0  0  0  0  0  0  0  0  0
   59.6260   29.9270   47.9592 H   0  0  0  0  0  0  0  0  0  0  0  0
   62.8852   31.2799   52.7155 H   0  0  0  0  0  0  0  0  0  0  0  0
   63.4753   30.2166   51.3842 H   0  0  0  0  0  0  0  0  0  0  0  0
   64.0531   32.7749   51.3037 H   0  0  0  0  0  0  0  0  0  0  0  0
   63.4521   31.9579   49.8047 H   0  0  0  0  0  0  0  0  0  0  0  0
   59.3386   34.2535   49.6133 H   0  0  0  0  0  0  0  0  0  0  0  0
   57.8862   33.6222   47.6830 H   0  0  0  0  0  0  0  0  0  0  0  0
   55.8538   31.4119   44.2876 H   0  0  0  0  0  0  0  0  0  0  0  0
   57.4193   31.4464   43.4083 H   0  0  0  0  0  0  0  0  0  0  0  0
   59.6830   31.4400   45.2140 H   0  0  0  0  0  0  0  0  0  0  0  0
   60.5311   27.5910   45.5654 H   0  0  0  0  0  0  0  0  0  0  0  0
   59.8874   27.7470   47.2439 H   0  0  0  0  0  0  0  0  0  0  0  0
   59.2771   25.5985   45.1593 H   0  0  0  0  0  0  0  0  0  0  0  0
   59.9234   25.4145   46.8455 H   0  0  0  0  0  0  0  0  0  0  0  0
   57.5616   24.6910   46.7208 H   0  0  0  0  0  0  0  0  0  0  0  0
   57.7582   26.1628   47.7597 H   0  0  0  0  0  0  0  0  0  0  0  0
   56.6310   26.0013   44.9208 H   0  0  0  0  0  0  0  0  0  0  0  0
   55.7998   26.5441   46.4226 H   0  0  0  0  0  0  0  0  0  0  0  0
   61.3932   33.2477   45.1742 H   0  0  0  0  0  0  0  0  0  0  0  0
   62.8464   33.7603   47.1241 H   0  0  0  0  0  0  0  0  0  0  0  0
   61.1271   33.1976   52.6118 H   0  0  0  0  0  0  0  0  0  0  0  0
   60.1155   33.7876   51.2493 H   0  0  0  0  0  0  0  0  0  0  0  0
   59.6308   31.4039   52.1521 H   0  0  0  0  0  0  0  0  0  0  0  0
   59.8299   31.6034   50.3646 H   0  0  0  0  0  0  0  0  0  0  0  0
   61.6024   28.4514   52.8394 H   0  0  0  0  0  0  0  0  0  0  0  0
  1  2  1  0
  2  3  2  0
  3  4  1  0
  4  5  2  0
  5  6  1  0
  5  7  1  0
  7  8  1  0
  8  9  1  0
  9 10  1  0
 10 11  1  0
 11 12  1  0
 12 13  2  0
 12 14  1  0
 14 15  2  0
 15 16  1  0
 16 17  2  0
 17 18  1  0
 18 19  1  0
 19 20  2  0
 19 21  1  0
 21 22  1  0
 22 23  1  0
 23 24  1  0
 23 25  2  0
 25 26  1  0
 26 27  2  0
 27 28  1  0
 26 29  1  0
 29 30  1  0
 30 31  1  0
 31 32  1  0
 17 33  1  0
 33 34  2  0
 11 35  1  0
 35 36  1  0
  7 37  2  0
 37  2  1  0
 36  8  1  0
 34 14  1  0
 27 22  1  0
 32 25  1  0
  1 38  1  0
  1 39  1  0
  1 40  1  0
  3 41  1  0
  4 42  1  0
  6 43  1  0
  6 44  1  0
  6 45  1  0
  9 46  1  0
  9 47  1  0
 10 48  1  0
 10 49  1  0
 15 50  1  0
 16 51  1  0
 21 52  1  0
 21 53  1  0
 28 54  1  0
 29 55  1  0
 29 56  1  0
 30 57  1  0
 30 58  1  0
 31 59  1  0
 31 60  1  0
 32 61  1  0
 32 62  1  0
 33 63  1  0
 34 64  1  0
 35 65  1  0
 35 66  1  0
 36 67  1  0
 36 68  1  0
 37 69  1  0
M  CHG  2  18  -1  24  -1
M  END
>  <UniqueID>  (89) 
87

>  <SMILES>  (89) 
Cc1ccc(C)c(N2CCN(C(=O)c3ccc([N-]C(=O)Cn4c([O-])c5c(c4O)CCCC5)cc3)CC2)c1

>  <Energy>  (89) 
115.44853007584507

>  <Genealogy>  (89) 
Cc1ccc(C)c(N2CCN(C(=O)c3ccc([N-]C(=O)Cn4c([O-])c5c(c4O)CCCC5)cc3)CC2)c1 (protonated)
Cc1ccc(C)c(N2CCN(C(=O)c3ccc([N-]C(=O)Cn4c([O-])c5c(c4O)CCCC5)cc3)CC2)c1 (3D coordinates assigned)
Cc1ccc(C)c(N2CCN(C(=O)c3ccc([N-]C(=O)Cn4c([O-])c5c(c4O)CCCC5)cc3)CC2)c1 (nonaromatic ring conformer: 115.44853007584507 kcal/mol)

>  <smiles>  (89) 
Cc1ccc(C)c(N2CCN(C(=O)c3ccc(NC(=O)Cn4c(O)c5c(c4O)CCCC5)cc3)CC2)c1

>  <score_type>  (89) 
oracle

>  <origin>  (89) 
adg

>  <m_score__min__energy>  (89) 
-13.48

>  <m_primary>  (89) 
energy

$$$$
89:0
     RDKit          3D

 42 43  0  0  0  0  0  0  0  0999 V2000
   60.7930   31.4800   47.0460 H   0  0  0  0  0  0  0  0  0  0  0  0
   59.9070   31.5270   46.4960 N   0  0  0  0  0  0  0  0  0  0  0  0
   59.3780   30.5420   45.7460 C   0  0  0  0  0  0  0  0  0  0  0  0
   60.0130   29.2020   45.5500 C   0  0  0  0  0  0  0  0  0  0  0  0
   60.2269   28.7507   46.5301 H   0  0  0  0  0  0  0  0  0  0  0  0
   59.3279   28.5503   44.9879 H   0  0  0  0  0  0  0  0  0  0  0  0
   60.9512   29.3195   44.9879 H   0  0  0  0  0  0  0  0  0  0  0  0
   58.2020   30.9970   45.1660 C   0  0  0  0  0  0  0  0  0  0  0  0
   57.3470   30.2750   44.1640 C   0  0  0  0  0  0  0  0  0  0  0  0
   56.7922   31.0097   43.5620 H   0  0  0  0  0  0  0  0  0  0  0  0
   57.9910   29.6676   43.5111 H   0  0  0  0  0  0  0  0  0  0  0  0
   56.3790   29.3800   44.8680 C   0  0  0  0  0  0  0  0  0  0  0  0
   55.1420   29.5190   44.6670 O   0  0  0  0  0  0  0  0  0  0  0  0
   56.8800   28.3480   45.7320 N   0  0  0  0  0  0  0  0  0  0  0  0
   56.6030   27.0820   45.6530 C   0  0  0  0  0  0  0  0  0  0  0  0
   55.4990   26.5040   46.1800 N   0  0  0  0  0  0  0  0  0  0  0  0
   55.4430   25.1920   45.9590 N   0  0  0  0  0  0  0  0  0  0  0  0
   56.5000   24.7210   45.2560 C   0  0  0  0  0  0  0  0  0  0  0  0
   56.6650   23.2720   44.8900 C   0  0  0  0  0  0  0  0  0  0  0  0
   55.9996   22.6746   45.5306 H   0  0  0  0  0  0  0  0  0  0  0  0
   58.1040   22.8130   45.1420 C   0  0  0  0  0  0  0  0  0  0  0  0
   58.2860   22.7550   46.2253 H   0  0  0  0  0  0  0  0  0  0  0  0
   58.2569   21.8215   44.6909 H   0  0  0  0  0  0  0  0  0  0  0  0
   58.8028   23.5328   44.6909 H   0  0  0  0  0  0  0  0  0  0  0  0
   56.2580   23.0310   43.4340 C   0  0  0  0  0  0  0  0  0  0  0  0
   55.3118   22.4707   43.4057 H   0  0  0  0  0  0  0  0  0  0  0  0
   56.1273   23.9974   42.9251 H   0  0  0  0  0  0  0  0  0  0  0  0
   57.0425   22.4517   42.9251 H   0  0  0  0  0  0  0  0  0  0  0  0
   57.5820   25.9620   44.8720 S   0  0  0  0  0  0  0  0  0  0  0  0
   58.0700   32.3060   45.6140 C   0  0  0  0  0  0  0  0  0  0  0  0
   57.0180   33.2900   45.1960 C   0  0  0  0  0  0  0  0  0  0  0  0
   56.5498   33.7280   46.0898 H   0  0  0  0  0  0  0  0  0  0  0  0
   57.4799   34.0878   44.5958 H   0  0  0  0  0  0  0  0  0  0  0  0
   56.2528   32.7759   44.5958 H   0  0  0  0  0  0  0  0  0  0  0  0
   59.1300   32.5950   46.4050 N   0  0  0  0  0  0  0  0  0  0  0  0
   59.4020   33.8550   47.0990 C   0  0  0  0  0  0  0  0  0  0  0  0
   60.2808   33.7295   47.7486 H   0  0  0  0  0  0  0  0  0  0  0  0
   58.5242   34.1286   47.7028 H   0  0  0  0  0  0  0  0  0  0  0  0
   59.6760   34.9630   46.0910 C   0  0  0  0  0  0  0  0  0  0  0  0
   59.9068   35.8962   46.6256 H   0  0  0  0  0  0  0  0  0  0  0  0
   60.5315   34.6810   45.4596 H   0  0  0  0  0  0  0  0  0  0  0  0
   58.7877   35.1122   45.4596 H   0  0  0  0  0  0  0  0  0  0  0  0
  1  2  1  0
  2  3  2  0
  3  4  1  0
  4  5  1  0
  4  6  1  0
  4  7  1  0
  3  8  1  0
  8  9  1  0
  9 10  1  0
  9 11  1  0
  9 12  1  0
 12 13  2  0
 12 14  1  0
 14 15  2  0
 15 16  1  0
 16 17  1  0
 17 18  2  0
 18 19  1  0
 19 20  1  0
 19 21  1  0
 21 22  1  0
 21 23  1  0
 21 24  1  0
 19 25  1  0
 25 26  1  0
 25 27  1  0
 25 28  1  0
 18 29  1  0
  8 30  2  0
 30 31  1  0
 31 32  1  0
 31 33  1  0
 31 34  1  0
 30 35  1  0
 35 36  1  0
 36 37  1  0
 36 38  1  0
 36 39  1  0
 39 40  1  0
 39 41  1  0
 39 42  1  0
 35  2  1  0
 29 15  1  0
M  CHG  2   2   1  16  -1
M  END
>  <UniqueID>  (90) 
88

>  <SMILES>  (90) 
CCn1[nH+]c(C)c(CC(=O)/N=c2\[n-]nc(C(C)C)s2)c1C

>  <Energy>  (90) 
94.92832947270082

>  <Genealogy>  (90) 
CCn1[nH+]c(C)c(CC(=O)N=c2[n-]nc(C(C)C)s2)c1C (protonated)
CCn1[nH+]c(C)c(CC(=O)/N=c2\[n-]nc(C(C)C)s2)c1C (cis-trans isomerization)
CCn1[nH+]c(C)c(CC(=O)/N=c2\[n-]nc(C(C)C)s2)c1C (3D coordinates assigned)
CCn1[nH+]c(C)c(CC(=O)/N=c2\[n-]nc(C(C)C)s2)c1C (optimized conformer: 94.92832947270082 kcal/mol)

>  <smiles>  (90) 
CCn1nc(C)c(CC(=O)N=c2[nH]nc(C(C)C)s2)c1C

>  <score_type>  (90) 
oracle

>  <origin>  (90) 
adg

>  <m_score__min__energy>  (90) 
-8.6600000000000001

>  <m_primary>  (90) 
energy

$$$$
