0:0
     RDKit          3D

 50 53  0  0  0  0  0  0  0  0999 V2000
   57.3340   28.7250   43.4200 N   0  0  0  0  0  0  0  0  0  0  0  0
   56.7690   29.7450   44.2480 C   0  0  0  0  0  0  0  0  0  0  0  0
   55.6790   29.5170   44.8390 O   0  0  0  0  0  0  0  0  0  0  0  0
   57.4280   31.0640   44.4090 C   0  0  0  0  0  0  0  0  0  0  0  0
   57.7080   31.8520   43.2800 C   0  0  0  0  0  0  0  0  0  0  0  0
   58.3340   33.0930   43.4210 C   0  0  0  0  0  0  0  0  0  0  0  0
   58.6780   33.5690   44.6880 C   0  0  0  0  0  0  0  0  0  0  0  0
   58.3850   32.8120   45.8330 C   0  0  0  0  0  0  0  0  0  0  0  0
   58.7720   33.3390   47.1990 C   0  0  1  0  0  0  0  0  0  0  0  0
   59.2560   32.2620   48.1000 C   0  0  0  0  0  0  0  0  0  0  0  0
   58.5440   31.3000   48.4920 O   0  0  0  0  0  0  0  0  0  0  0  0
   60.6140   32.4080   48.4880 N   0  0  0  0  0  0  0  0  0  0  0  0
   61.1670   33.6240   47.8960 C   0  0  0  0  0  0  0  0  0  0  0  0
   62.3380   33.2720   46.9460 C   0  0  0  0  0  0  0  0  0  0  0  0
   63.7350   33.4880   47.5680 C   0  0  0  0  0  0  0  0  0  0  0  0
   63.7770   33.2750   49.0300 N   0  0  0  0  0  0  0  0  0  0  0  0
   64.2390   31.9490   49.4980 C   0  0  0  0  0  0  0  0  0  0  0  0
   65.5340   32.0010   50.2830 C   0  0  0  0  0  0  0  0  0  0  0  0
   66.4050   33.0920   50.1160 C   0  0  0  0  0  0  0  0  0  0  0  0
   67.6320   33.1310   50.7860 C   0  0  0  0  0  0  0  0  0  0  0  0
   68.7350   34.4690   50.5170 Cl  0  0  0  0  0  0  0  0  0  0  0  0
   67.9830   32.1030   51.6620 C   0  0  0  0  0  0  0  0  0  0  0  0
   67.1030   31.0420   51.8810 C   0  0  0  0  0  0  0  0  0  0  0  0
   65.8780   30.9890   51.2050 C   0  0  0  0  0  0  0  0  0  0  0  0
   65.0100   29.9350   51.4680 O   0  0  0  0  0  0  0  0  0  0  0  0
   62.7320   33.9350   49.8470 C   0  0  0  0  0  0  0  0  0  0  0  0
   61.6190   34.5800   49.0070 C   0  0  0  0  0  0  0  0  0  0  0  0
   59.9970   34.1950   47.1300 C   0  0  0  0  0  0  0  0  0  0  0  0
   60.0370   35.2580   46.5280 O   0  0  0  0  0  0  0  0  0  0  0  0
   57.7640   31.5560   45.6830 C   0  0  0  0  0  0  0  0  0  0  0  0
   56.8820   27.7840   43.3720 H   0  0  0  0  0  0  0  0  0  0  0  0
   58.1440   28.9140   42.7900 H   0  0  0  0  0  0  0  0  0  0  0  0
   57.4326   31.4895   42.2786 H   0  0  0  0  0  0  0  0  0  0  0  0
   58.5570   33.6980   42.5298 H   0  0  0  0  0  0  0  0  0  0  0  0
   59.1811   34.5420   44.7891 H   0  0  0  0  0  0  0  0  0  0  0  0
   57.8632   33.8510   47.5481 H   0  0  0  0  0  0  0  0  0  0  0  0
   62.2460   32.2138   46.6602 H   0  0  0  0  0  0  0  0  0  0  0  0
   62.2642   33.9504   46.0833 H   0  0  0  0  0  0  0  0  0  0  0  0
   64.4374   32.7859   47.0950 H   0  0  0  0  0  0  0  0  0  0  0  0
   64.0058   34.5391   47.3897 H   0  0  0  0  0  0  0  0  0  0  0  0
   63.4591   31.5161   50.1417 H   0  0  0  0  0  0  0  0  0  0  0  0
   64.4284   31.3386   48.6027 H   0  0  0  0  0  0  0  0  0  0  0  0
   66.1190   33.9218   49.4529 H   0  0  0  0  0  0  0  0  0  0  0  0
   68.9531   32.1289   52.1799 H   0  0  0  0  0  0  0  0  0  0  0  0
   67.3731   30.2437   52.5880 H   0  0  0  0  0  0  0  0  0  0  0  0
   62.2783   33.1817   50.5078 H   0  0  0  0  0  0  0  0  0  0  0  0
   63.2221   34.7417   50.4118 H   0  0  0  0  0  0  0  0  0  0  0  0
   60.7622   34.8117   49.6568 H   0  0  0  0  0  0  0  0  0  0  0  0
   62.0058   35.5024   48.5492 H   0  0  0  0  0  0  0  0  0  0  0  0
   57.5390   30.9521   46.5745 H   0  0  0  0  0  0  0  0  0  0  0  0
  1  2  1  0
  2  3  2  0
  2  4  1  0
  4  5  2  0
  5  6  1  0
  6  7  2  0
  7  8  1  0
  8  9  1  0
  9 10  1  0
 10 11  2  0
 10 12  1  0
 12 13  1  0
 13 14  1  0
 14 15  1  0
 15 16  1  0
 16 17  1  0
 17 18  1  0
 18 19  2  0
 19 20  1  0
 20 21  1  0
 20 22  2  0
 22 23  1  0
 23 24  2  0
 24 25  1  0
 16 26  1  0
 26 27  1  0
 13 28  1  0
 28 29  2  0
  8 30  2  0
 30  4  1  0
 28  9  1  0
 27 13  1  0
 24 18  1  0
  1 31  1  0
  1 32  1  0
  5 33  1  0
  6 34  1  0
  7 35  1  0
  9 36  1  1
 14 37  1  0
 14 38  1  0
 15 39  1  0
 15 40  1  0
 17 41  1  0
 17 42  1  0
 19 43  1  0
 22 44  1  0
 23 45  1  0
 26 46  1  0
 26 47  1  0
 27 48  1  0
 27 49  1  0
 30 50  1  0
M  CHG  2  12  -1  25  -1
M  END
>  <UniqueID>  (1) 
1

>  <SMILES>  (1) 
NC(=O)c1cccc([C@H]2C(=O)[N-]C3(CCN(Cc4cc(Cl)ccc4[O-])CC3)C2=O)c1

>  <Energy>  (1) 
76.23427034894358

>  <Genealogy>  (1) 
NC(=O)c1cccc(C2C(=O)[N-]C3(CCN(Cc4cc(Cl)ccc4[O-])CC3)C2=O)c1 (protonated)
NC(=O)c1cccc([C@H]2C(=O)[N-]C3(CCN(Cc4cc(Cl)ccc4[O-])CC3)C2=O)c1 (chirality)
NC(=O)c1cccc([C@H]2C(=O)[N-]C3(CCN(Cc4cc(Cl)ccc4[O-])CC3)C2=O)c1 (3D coordinates assigned)
NC(=O)c1cccc([C@H]2C(=O)[N-]C3(CCN(Cc4cc(Cl)ccc4[O-])CC3)C2=O)c1 (nonaromatic ring conformer: 76.23427034894358 kcal/mol)

>  <smiles>  (1) 
NC(=O)c1cccc(C2C(=O)NC3(CCN(Cc4cc(Cl)ccc4O)CC3)C2=O)c1

>  <score_type>  (1) 
oracle

>  <origin>  (1) 
adg

>  <m_score__min__energy>  (1) 
-13.58

>  <m_primary>  (1) 
energy

$$$$
1:0
     RDKit          3D

 51 54  0  0  0  0  0  0  0  0999 V2000
   60.0663   30.3479   44.3123 H   0  0  0  0  0  0  0  0  0  0  0  0
   59.4490   29.4910   44.6200 C   0  0  0  0  0  0  0  0  0  0  0  0
   58.8440   28.9533   43.8751 H   0  0  0  0  0  0  0  0  0  0  0  0
   59.4340   29.1010   45.9060 C   0  0  0  0  0  0  0  0  0  0  0  0
   58.6950   28.0320   46.4240 C   0  0  0  0  0  0  0  0  0  0  0  0
   57.8660   27.2070   45.7520 C   0  0  0  0  0  0  0  0  0  0  0  0
   57.6701   27.4248   44.6917 H   0  0  0  0  0  0  0  0  0  0  0  0
   57.2050   26.0300   46.3500 C   0  0  0  0  0  0  0  0  0  0  0  0
   55.8460   25.8100   46.4100 C   0  0  0  0  0  0  0  0  0  0  0  0
   54.8620   26.7000   45.9990 O   0  0  0  0  0  0  0  0  0  0  0  0
   55.5850   24.5930   46.9260 N   0  0  0  0  0  0  0  0  0  0  0  0
   56.8210   24.0940   47.1490 C   0  0  0  0  0  0  0  0  0  0  0  0
   57.0160   22.9440   47.6230 O   0  0  0  0  0  0  0  0  0  0  0  0
   57.8230   24.9260   46.8050 N   0  0  0  0  0  0  0  0  0  0  0  0
   58.8470   24.7230   46.8320 H   0  0  0  0  0  0  0  0  0  0  0  0
   58.9180   28.0350   47.7890 C   0  0  0  0  0  0  0  0  0  0  0  0
   58.4893   27.3354   48.5217 H   0  0  0  0  0  0  0  0  0  0  0  0
   59.7800   29.0810   48.0610 C   0  0  0  0  0  0  0  0  0  0  0  0
   60.1680   29.4570   49.4450 C   0  0  0  0  0  0  0  0  0  0  0  0
   60.4660   28.5490   50.2690 O   0  0  0  0  0  0  0  0  0  0  0  0
   60.2470   30.8190   49.8640 N   0  0  0  0  0  0  0  0  0  0  0  0
   59.4110   31.5170   50.5900 C   0  0  0  0  0  0  0  0  0  0  0  0
   58.1730   30.9190   50.8620 C   0  0  0  0  0  0  0  0  0  0  0  0
   57.9544   29.9153   50.4685 H   0  0  0  0  0  0  0  0  0  0  0  0
   57.2170   31.5840   51.6260 C   0  0  0  0  0  0  0  0  0  0  0  0
   56.2450   31.1092   51.8257 H   0  0  0  0  0  0  0  0  0  0  0  0
   57.4840   32.8150   52.1230 N   0  0  0  0  0  0  0  0  0  0  0  0
   58.6740   33.4310   51.9040 C   0  0  0  0  0  0  0  0  0  0  0  0
   58.8516   34.4326   52.3227 H   0  0  0  0  0  0  0  0  0  0  0  0
   59.6840   32.8050   51.1480 C   0  0  0  0  0  0  0  0  0  0  0  0
   61.0030   33.5280   51.0230 C   0  0  0  0  0  0  0  0  0  0  0  0
   61.3987   33.7449   52.0262 H   0  0  0  0  0  0  0  0  0  0  0  0
   61.7175   32.8954   50.4759 H   0  0  0  0  0  0  0  0  0  0  0  0
   60.8541   34.4706   50.4759 H   0  0  0  0  0  0  0  0  0  0  0  0
   60.1160   29.7230   46.9090 N   0  0  0  0  0  0  0  0  0  0  0  0
   61.0320   30.8710   46.7730 C   0  0  0  0  0  0  0  0  0  0  0  0
   61.8240   30.7786   47.5308 H   0  0  0  0  0  0  0  0  0  0  0  0
   61.4360   30.8488   45.7501 H   0  0  0  0  0  0  0  0  0  0  0  0
   60.3390   32.2130   46.9580 C   0  0  0  0  0  0  0  0  0  0  0  0
   58.9330   32.3090   46.8390 C   0  0  0  0  0  0  0  0  0  0  0  0
   58.3527   31.4256   46.5342 H   0  0  0  0  0  0  0  0  0  0  0  0
   58.2720   33.5090   47.1030 C   0  0  0  0  0  0  0  0  0  0  0  0
   57.1761   33.5607   47.0230 H   0  0  0  0  0  0  0  0  0  0  0  0
   58.9950   34.6400   47.4670 C   0  0  0  0  0  0  0  0  0  0  0  0
   58.4685   35.5785   47.6952 H   0  0  0  0  0  0  0  0  0  0  0  0
   60.3860   34.5860   47.5430 C   0  0  0  0  0  0  0  0  0  0  0  0
   60.9495   35.4885   47.8222 H   0  0  0  0  0  0  0  0  0  0  0  0
   61.0800   33.3910   47.2670 C   0  0  0  0  0  0  0  0  0  0  0  0
   62.5650   33.4200   47.3180 C   0  0  0  0  0  0  0  0  0  0  0  0
   63.2190   33.9490   46.3800 O   0  0  0  0  0  0  0  0  0  0  0  0
   63.2610   32.8220   48.3600 O   0  0  0  0  0  0  0  0  0  0  0  0
  1  2  1  0
  2  3  1  0
  2  4  2  0
  4  5  1  0
  5  6  2  0
  6  7  1  0
  6  8  1  0
  8  9  2  0
  9 10  1  0
  9 11  1  0
 11 12  1  0
 12 13  2  0
 12 14  1  0
 14 15  1  0
  5 16  1  0
 16 17  1  0
 16 18  2  0
 18 19  1  0
 19 20  2  0
 19 21  1  0
 21 22  2  3
 22 23  1  0
 23 24  1  0
 23 25  2  0
 25 26  1  0
 25 27  1  0
 27 28  1  0
 28 29  1  0
 28 30  2  0
 30 31  1  0
 31 32  1  0
 31 33  1  0
 31 34  1  0
 18 35  1  0
 35 36  1  0
 36 37  1  0
 36 38  1  0
 36 39  1  0
 39 40  2  0
 40 41  1  0
 40 42  1  0
 42 43  1  0
 42 44  2  0
 44 45  1  0
 44 46  1  0
 46 47  1  0
 46 48  2  0
 48 49  1  0
 49 50  2  0
 49 51  1  0
 35  4  1  0
 48 39  1  0
 14  8  1  0
 30 22  1  0
M  CHG  4  10  -1  11  -1  27  -1  51  -1
M  END
>  <UniqueID>  (2) 
2

>  <SMILES>  (2) 
C=c1/c(=C/c2[nH]c(=O)[n-]c2[O-])cc(C(=O)N=c2cc[n-]cc2C)n1Cc1ccccc1C(=O)[O-]

>  <Energy>  (2) 
143.35844572585475

>  <Genealogy>  (2) 
C=c1c(=Cc2[nH]c(=O)[n-]c2[O-])cc(C(=O)N=c2cc[n-]cc2C)n1Cc1ccccc1C(=O)[O-] (protonated)
C=c1/c(=C/c2[nH]c(=O)[n-]c2[O-])cc(C(=O)N=c2cc[n-]cc2C)n1Cc1ccccc1C(=O)[O-] (cis-trans isomerization)
C=c1/c(=C/c2[nH]c(=O)[n-]c2[O-])cc(C(=O)N=c2cc[n-]cc2C)n1Cc1ccccc1C(=O)[O-] (3D coordinates assigned)
C=c1/c(=C/c2[nH]c(=O)[n-]c2[O-])cc(C(=O)N=c2cc[n-]cc2C)n1Cc1ccccc1C(=O)[O-] (optimized conformer: 143.35844572585475 kcal/mol)

>  <smiles>  (2) 
C=c1c(=Cc2[nH]c(=O)[nH]c2O)cc(C(=O)N=c2cc[nH]cc2C)n1Cc1ccccc1C(=O)O

>  <score_type>  (2) 
oracle

>  <origin>  (2) 
adg

>  <m_score__min__energy>  (2) 
-16.719999999999999

>  <m_primary>  (2) 
energy

$$$$
2:0
     RDKit          3D

 53 56  0  0  0  0  0  0  0  0999 V2000
   63.9900   33.4240   48.6720 C   0  0  0  0  0  0  0  0  0  0  0  0
   63.6450   32.8260   47.3700 N   0  0  0  0  0  0  0  0  0  0  0  0
   62.7690   31.6490   47.5170 C   0  0  0  0  0  0  0  0  0  0  0  0
   61.3460   32.0240   47.9900 C   0  0  0  0  0  0  0  0  0  0  0  0
   61.0100   33.4380   47.7050 N   0  0  0  0  0  0  0  0  0  0  0  0
   59.5520   33.6760   47.7690 C   0  0  0  0  0  0  0  0  0  0  0  0
   58.7600   32.3810   47.5250 C   0  0  0  0  0  0  0  0  0  0  0  0
   59.0790   31.8100   46.2550 O   0  0  0  0  0  0  0  0  0  0  0  0
   58.2270   31.0060   45.4790 C   0  0  0  0  0  0  0  0  0  0  0  0
   57.8570   29.7030   45.8660 C   0  0  0  0  0  0  0  0  0  0  0  0
   57.0000   28.9320   45.0670 C   0  0  0  0  0  0  0  0  0  0  0  0
   56.6680   27.5970   45.4810 N   0  0  0  0  0  0  0  0  0  0  0  0
   57.3060   26.9100   46.5740 C   0  0  0  0  0  0  0  0  0  0  0  0
   58.1120   27.5180   47.3270 O   0  0  0  0  0  0  0  0  0  0  0  0
   57.0120   25.5340   46.8560 N   0  0  0  0  0  0  0  0  0  0  0  0
   55.8900   24.9270   46.6070 C   0  0  0  0  0  0  0  0  0  0  0  0
   55.6310   23.6830   47.0870 N   0  0  0  0  0  0  0  0  0  0  0  0
   54.4200   23.4240   46.5740 C   0  0  0  0  0  0  0  0  0  0  0  0
   53.6530   22.2720   46.7370 C   0  0  0  0  0  0  0  0  0  0  0  0
   52.4040   22.2230   46.0910 C   0  0  0  0  0  0  0  0  0  0  0  0
   51.9600   23.3130   45.3070 C   0  0  0  0  0  0  0  0  0  0  0  0
   52.7630   24.4600   45.1640 C   0  0  0  0  0  0  0  0  0  0  0  0
   53.9920   24.4740   45.8200 C   0  0  0  0  0  0  0  0  0  0  0  0
   54.9130   25.4480   45.8160 N   0  0  0  0  0  0  0  0  0  0  0  0
   56.5370   29.4600   43.8510 C   0  0  0  0  0  0  0  0  0  0  0  0
   56.8900   30.7540   43.4650 C   0  0  0  0  0  0  0  0  0  0  0  0
   57.7240   31.5290   44.2770 C   0  0  0  0  0  0  0  0  0  0  0  0
   58.1510   33.1550   43.7650 Cl  0  0  0  0  0  0  0  0  0  0  0  0
   61.5450   33.8430   46.3960 C   0  0  0  0  0  0  0  0  0  0  0  0
   63.0870   33.8220   46.4240 C   0  0  0  0  0  0  0  0  0  0  0  0
   63.6180   32.7791   49.4818 H   0  0  0  0  0  0  0  0  0  0  0  0
   65.0827   33.5208   48.7530 H   0  0  0  0  0  0  0  0  0  0  0  0
   63.5268   34.4184   48.7530 H   0  0  0  0  0  0  0  0  0  0  0  0
   62.6947   31.1411   46.5441 H   0  0  0  0  0  0  0  0  0  0  0  0
   63.2136   30.9956   48.2821 H   0  0  0  0  0  0  0  0  0  0  0  0
   60.6206   31.3777   47.4741 H   0  0  0  0  0  0  0  0  0  0  0  0
   61.3074   31.8835   49.0803 H   0  0  0  0  0  0  0  0  0  0  0  0
   59.2971   34.0691   48.7642 H   0  0  0  0  0  0  0  0  0  0  0  0
   59.2847   34.3980   46.9834 H   0  0  0  0  0  0  0  0  0  0  0  0
   59.0052   31.6565   48.3156 H   0  0  0  0  0  0  0  0  0  0  0  0
   57.6868   32.6222   47.5380 H   0  0  0  0  0  0  0  0  0  0  0  0
   58.2450   29.2850   46.8066 H   0  0  0  0  0  0  0  0  0  0  0  0
   55.9670   27.0820   44.9040 H   0  0  0  0  0  0  0  0  0  0  0  0
   54.0112   21.4310   47.3489 H   0  0  0  0  0  0  0  0  0  0  0  0
   51.7688   21.3311   46.1965 H   0  0  0  0  0  0  0  0  0  0  0  0
   50.9818   23.2641   44.8063 H   0  0  0  0  0  0  0  0  0  0  0  0
   52.4321   25.3149   44.5560 H   0  0  0  0  0  0  0  0  0  0  0  0
   55.8931   28.8509   43.1996 H   0  0  0  0  0  0  0  0  0  0  0  0
   56.5106   31.1659   42.5182 H   0  0  0  0  0  0  0  0  0  0  0  0
   61.1856   33.1460   45.6246 H   0  0  0  0  0  0  0  0  0  0  0  0
   61.2030   34.8632   46.1673 H   0  0  0  0  0  0  0  0  0  0  0  0
   63.4509   33.5851   45.4133 H   0  0  0  0  0  0  0  0  0  0  0  0
   63.4193   34.8141   46.7635 H   0  0  0  0  0  0  0  0  0  0  0  0
  1  2  1  0
  2  3  1  0
  3  4  1  0
  4  5  1  0
  5  6  1  0
  6  7  1  0
  7  8  1  0
  8  9  1  0
  9 10  2  0
 10 11  1  0
 11 12  1  0
 12 13  1  0
 13 14  2  0
 13 15  1  0
 15 16  2  3
 16 17  1  0
 17 18  1  0
 18 19  2  0
 19 20  1  0
 20 21  2  0
 21 22  1  0
 22 23  2  0
 23 24  1  0
 11 25  2  0
 25 26  1  0
 26 27  2  0
 27 28  1  0
  5 29  1  0
 29 30  1  0
 30  2  1  0
 27  9  1  0
 24 16  1  0
 23 18  1  0
  1 31  1  0
  1 32  1  0
  1 33  1  0
  3 34  1  0
  3 35  1  0
  4 36  1  0
  4 37  1  0
  6 38  1  0
  6 39  1  0
  7 40  1  0
  7 41  1  0
 10 42  1  0
 12 43  1  0
 19 44  1  0
 20 45  1  0
 21 46  1  0
 22 47  1  0
 25 48  1  0
 26 49  1  0
 29 50  1  0
 29 51  1  0
 30 52  1  0
 30 53  1  0
M  CHG  2  17  -1  24  -1
M  END
>  <UniqueID>  (3) 
3

>  <SMILES>  (3) 
CN1CCN(CCOc2cc(NC(=O)N=c3[n-]c4ccccc4[n-]3)ccc2Cl)CC1

>  <Energy>  (3) 
109.20964073598796

>  <Genealogy>  (3) 
CN1CCN(CCOc2cc(NC(=O)N=c3[n-]c4ccccc4[n-]3)ccc2Cl)CC1 (protonated)
CN1CCN(CCOc2cc(NC(=O)N=c3[n-]c4ccccc4[n-]3)ccc2Cl)CC1 (3D coordinates assigned)
CN1CCN(CCOc2cc(NC(=O)N=c3[n-]c4ccccc4[n-]3)ccc2Cl)CC1 (nonaromatic ring conformer: 109.20964073598796 kcal/mol)

>  <smiles>  (3) 
CN1CCN(CCOc2cc(NC(=O)N=c3[nH]c4ccccc4[nH]3)ccc2Cl)CC1

>  <score_type>  (3) 
oracle

>  <origin>  (3) 
adg

>  <m_score__min__energy>  (3) 
-11.43

>  <m_primary>  (3) 
energy

$$$$
3:0
     RDKit          3D

 51 54  0  0  0  0  0  0  0  0999 V2000
   59.5620   25.4200   45.9310 O   0  0  0  0  0  0  0  0  0  0  0  0
   58.3960   25.8550   46.1250 C   0  0  0  0  0  0  0  0  0  0  0  0
   57.4300   24.9830   46.7290 N   0  0  0  0  0  0  0  0  0  0  0  0
   56.2450   24.4760   46.0990 C   0  0  0  0  0  0  0  0  0  0  0  0
   56.1960   23.1150   45.7680 C   0  0  0  0  0  0  0  0  0  0  0  0
   55.0410   22.5620   45.2060 C   0  0  0  0  0  0  0  0  0  0  0  0
   53.9290   23.3690   44.9610 C   0  0  0  0  0  0  0  0  0  0  0  0
   53.9750   24.7330   45.2610 C   0  0  0  0  0  0  0  0  0  0  0  0
   55.1340   25.3020   45.8050 C   0  0  0  0  0  0  0  0  0  0  0  0
   55.1580   26.6810   46.0140 O   0  0  0  0  0  0  0  0  0  0  0  0
   58.0660   27.2490   45.7510 C   0  0  0  0  0  0  0  0  0  0  0  0
   58.0670   27.6620   44.4130 C   0  0  0  0  0  0  0  0  0  0  0  0
   57.7140   28.9740   44.1020 C   0  0  0  0  0  0  0  0  0  0  0  0
   57.3600   29.8500   45.1320 C   0  0  0  0  0  0  0  0  0  0  0  0
   57.0060   31.0700   44.8480 N   0  0  0  0  0  0  0  0  0  0  0  0
   57.6610   32.2740   45.2810 C   0  0  0  0  0  0  0  0  0  0  0  0
   57.5780   33.4180   44.4770 C   0  0  0  0  0  0  0  0  0  0  0  0
   58.1980   34.6080   44.8710 C   0  0  0  0  0  0  0  0  0  0  0  0
   58.8940   34.6690   46.0810 C   0  0  0  0  0  0  0  0  0  0  0  0
   58.9550   33.5430   46.9130 C   0  0  0  0  0  0  0  0  0  0  0  0
   59.8500   33.5800   48.4300 S   0  0  0  0  0  0  0  0  0  0  0  0
   59.6510   34.9010   49.1200 O   0  0  0  0  0  0  0  0  0  0  0  0
   59.3340   32.4840   49.3210 O   0  0  0  0  0  0  0  0  0  0  0  0
   61.5430   33.3250   48.0970 N   0  0  0  0  0  0  0  0  0  0  0  0
   61.9410   34.0800   46.8960 C   0  0  0  0  0  0  0  0  0  0  0  0
   63.3290   33.6320   46.3970 C   0  0  0  0  0  0  0  0  0  0  0  0
   64.0010   32.8740   47.3830 O   0  0  0  0  0  0  0  0  0  0  0  0
   63.3040   31.6620   47.6130 C   0  0  0  0  0  0  0  0  0  0  0  0
   61.8080   31.8910   47.9090 C   0  0  0  0  0  0  0  0  0  0  0  0
   58.3230   32.3570   46.5220 C   0  0  0  0  0  0  0  0  0  0  0  0
   57.4190   29.4100   46.4170 N   0  0  0  0  0  0  0  0  0  0  0  0
   57.7570   28.1560   46.7150 N   0  0  0  0  0  0  0  0  0  0  0  0
   57.0729   22.4768   45.9517 H   0  0  0  0  0  0  0  0  0  0  0  0
   55.0089   21.4910   44.9571 H   0  0  0  0  0  0  0  0  0  0  0  0
   53.0159   22.9311   44.5315 H   0  0  0  0  0  0  0  0  0  0  0  0
   53.0951   25.3645   45.0687 H   0  0  0  0  0  0  0  0  0  0  0  0
   55.8940   27.1460   46.5290 H   0  0  0  0  0  0  0  0  0  0  0  0
   58.3438   26.9575   43.6148 H   0  0  0  0  0  0  0  0  0  0  0  0
   57.7140   29.3165   43.0567 H   0  0  0  0  0  0  0  0  0  0  0  0
   57.0212   33.3801   43.5291 H   0  0  0  0  0  0  0  0  0  0  0  0
   58.1376   35.4978   44.2270 H   0  0  0  0  0  0  0  0  0  0  0  0
   59.3944   35.6016   46.3808 H   0  0  0  0  0  0  0  0  0  0  0  0
   61.2002   33.9082   46.1012 H   0  0  0  0  0  0  0  0  0  0  0  0
   61.9890   35.1484   47.1535 H   0  0  0  0  0  0  0  0  0  0  0  0
   63.2053   33.0175   45.4931 H   0  0  0  0  0  0  0  0  0  0  0  0
   63.9277   34.5277   46.1749 H   0  0  0  0  0  0  0  0  0  0  0  0
   63.3941   31.0276   46.7189 H   0  0  0  0  0  0  0  0  0  0  0  0
   63.7506   31.1807   48.4955 H   0  0  0  0  0  0  0  0  0  0  0  0
   61.2091   31.5181   47.0651 H   0  0  0  0  0  0  0  0  0  0  0  0
   61.5366   31.3515   48.8284 H   0  0  0  0  0  0  0  0  0  0  0  0
   58.3433   31.4825   47.1890 H   0  0  0  0  0  0  0  0  0  0  0  0
  1  2  2  0
  2  3  1  0
  3  4  1  0
  4  5  2  0
  5  6  1  0
  6  7  2  0
  7  8  1  0
  8  9  2  0
  9 10  1  0
  2 11  1  0
 11 12  1  0
 12 13  2  0
 13 14  1  0
 14 15  2  3
 15 16  1  0
 16 17  2  0
 17 18  1  0
 18 19  2  0
 19 20  1  0
 20 21  1  0
 21 22  2  0
 21 23  2  0
 21 24  1  0
 24 25  1  0
 25 26  1  0
 26 27  1  0
 27 28  1  0
 28 29  1  0
 20 30  2  0
 14 31  1  0
 31 32  1  0
  9  4  1  0
 32 11  2  0
 30 16  1  0
 29 24  1  0
  5 33  1  0
  6 34  1  0
  7 35  1  0
  8 36  1  0
 10 37  1  0
 12 38  1  0
 13 39  1  0
 17 40  1  0
 18 41  1  0
 19 42  1  0
 25 43  1  0
 25 44  1  0
 26 45  1  0
 26 46  1  0
 28 47  1  0
 28 48  1  0
 29 49  1  0
 29 50  1  0
 30 51  1  0
M  CHG  2   3  -1  31  -1
M  END
>  <UniqueID>  (4) 
4

>  <SMILES>  (4) 
O=C([N-]c1ccccc1O)c1ccc(=Nc2cccc(S(=O)(=O)N3CCOCC3)c2)[n-]n1

>  <Energy>  (4) 
75.15322918386612

>  <Genealogy>  (4) 
O=C([N-]c1ccccc1O)c1ccc(=Nc2cccc(S(=O)(=O)N3CCOCC3)c2)[n-]n1 (protonated)
O=C([N-]c1ccccc1O)c1ccc(=Nc2cccc(S(=O)(=O)N3CCOCC3)c2)[n-]n1 (3D coordinates assigned)
O=C([N-]c1ccccc1O)c1ccc(=Nc2cccc(S(=O)(=O)N3CCOCC3)c2)[n-]n1 (nonaromatic ring conformer: 75.15322918386612 kcal/mol)

>  <smiles>  (4) 
O=C(Nc1ccccc1O)c1ccc(=Nc2cccc(S(=O)(=O)N3CCOCC3)c2)[nH]n1

>  <score_type>  (4) 
oracle

>  <origin>  (4) 
adg

>  <m_score__min__energy>  (4) 
-13.6

>  <m_primary>  (4) 
energy

$$$$
4:0
     RDKit          3D

 48 51  0  0  0  0  0  0  0  0999 V2000
   51.0560   32.1070   50.0410 O   0  0  0  0  0  0  0  0  0  0  0  0
   50.9970   31.9980   51.2930 C   0  0  0  0  0  0  0  0  0  0  0  0
   50.6270   33.0940   52.0630 O   0  0  0  0  0  0  0  0  0  0  0  0
   51.2760   30.6840   51.9490 C   0  0  0  0  0  0  0  0  0  0  0  0
   52.7560   30.5100   52.1530 C   0  0  0  0  0  0  0  0  0  0  0  0
   53.6430   31.5470   51.8230 C   0  0  0  0  0  0  0  0  0  0  0  0
   55.0210   31.3790   51.9940 C   0  0  0  0  0  0  0  0  0  0  0  0
   55.5310   30.1660   52.4810 C   0  0  0  0  0  0  0  0  0  0  0  0
   57.0090   29.9890   52.6990 C   0  0  0  0  0  0  0  0  0  0  0  0
   57.7500   31.0350   51.9970 N   0  0  0  0  0  0  0  0  0  0  0  0
   58.0180   32.3540   52.5350 C   0  0  0  0  0  0  0  0  0  0  0  0
   58.7790   33.1180   51.4330 C   0  0  0  0  0  0  0  0  0  0  0  0
   59.0470   32.1270   50.2810 C   0  0  1  0  0  0  0  0  0  0  0  0
   60.4850   31.8650   50.1630 N   0  0  0  0  0  0  0  0  0  0  0  0
   61.1080   32.4740   48.6600 S   0  0  0  0  0  0  0  0  0  0  0  0
   61.5530   33.8980   48.8430 O   0  0  0  0  0  0  0  0  0  0  0  0
   62.2840   31.6460   48.2240 O   0  0  0  0  0  0  0  0  0  0  0  0
   59.8550   32.4180   47.4320 C   0  0  0  0  0  0  0  0  0  0  0  0
   58.9520   33.4340   47.1610 C   0  0  0  0  0  0  0  0  0  0  0  0
   58.0350   33.0980   46.1580 C   0  0  0  0  0  0  0  0  0  0  0  0
   58.2230   31.8150   45.6540 C   0  0  0  0  0  0  0  0  0  0  0  0
   57.4110   31.1800   44.6120 C   0  0  0  0  0  0  0  0  0  0  0  0
   57.6400   31.3350   43.2910 N   0  0  0  0  0  0  0  0  0  0  0  0
   56.6760   30.5880   42.7200 C   0  0  0  0  0  0  0  0  0  0  0  0
   55.9080   30.0120   43.7050 C   0  0  0  0  0  0  0  0  0  0  0  0
   56.3870   30.3980   44.8610 O   0  0  0  0  0  0  0  0  0  0  0  0
   59.5230   31.0960   46.4480 S   0  0  0  0  0  0  0  0  0  0  0  0
   58.3460   30.9020   50.7220 C   0  0  0  0  0  0  0  0  0  0  0  0
   58.2770   29.8460   50.0370 O   0  0  0  0  0  0  0  0  0  0  0  0
   54.6440   29.1260   52.8010 C   0  0  0  0  0  0  0  0  0  0  0  0
   53.2680   29.2940   52.6320 C   0  0  0  0  0  0  0  0  0  0  0  0
   50.7681   30.6495   52.9241 H   0  0  0  0  0  0  0  0  0  0  0  0
   50.9047   29.8743   51.3037 H   0  0  0  0  0  0  0  0  0  0  0  0
   53.2523   32.4964   51.4280 H   0  0  0  0  0  0  0  0  0  0  0  0
   55.7079   32.2015   51.7456 H   0  0  0  0  0  0  0  0  0  0  0  0
   57.2275   30.0485   53.7754 H   0  0  0  0  0  0  0  0  0  0  0  0
   57.3151   29.0074   52.3082 H   0  0  0  0  0  0  0  0  0  0  0  0
   57.0752   32.8676   52.7743 H   0  0  0  0  0  0  0  0  0  0  0  0
   58.6046   32.2979   53.4638 H   0  0  0  0  0  0  0  0  0  0  0  0
   58.1701   33.9593   51.0705 H   0  0  0  0  0  0  0  0  0  0  0  0
   59.7245   33.5217   51.8242 H   0  0  0  0  0  0  0  0  0  0  0  0
   58.7091   32.4974   49.3019 H   0  0  0  0  0  0  0  0  0  0  0  0
   58.9555   34.4038   47.6802 H   0  0  0  0  0  0  0  0  0  0  0  0
   57.2465   33.7787   45.8046 H   0  0  0  0  0  0  0  0  0  0  0  0
   56.5265   30.4590   41.6379 H   0  0  0  0  0  0  0  0  0  0  0  0
   55.0461   29.3465   43.5496 H   0  0  0  0  0  0  0  0  0  0  0  0
   55.0351   28.1732   53.1871 H   0  0  0  0  0  0  0  0  0  0  0  0
   52.5820   28.4693   52.8755 H   0  0  0  0  0  0  0  0  0  0  0  0
  1  2  2  0
  2  3  1  0
  2  4  1  0
  4  5  1  0
  5  6  2  0
  6  7  1  0
  7  8  2  0
  8  9  1  0
  9 10  1  0
 10 11  1  0
 11 12  1  0
 12 13  1  0
 13 14  1  0
 14 15  1  0
 15 16  2  0
 15 17  2  0
 15 18  1  0
 18 19  2  0
 19 20  1  0
 20 21  2  0
 21 22  1  0
 22 23  2  0
 23 24  1  0
 24 25  2  0
 25 26  1  0
 21 27  1  0
 13 28  1  0
 28 29  2  0
  8 30  1  0
 30 31  2  0
 31  5  1  0
 28 10  1  0
 27 18  1  0
 26 22  1  0
  4 32  1  0
  4 33  1  0
  6 34  1  0
  7 35  1  0
  9 36  1  0
  9 37  1  0
 11 38  1  0
 11 39  1  0
 12 40  1  0
 12 41  1  0
 13 42  1  6
 19 43  1  0
 20 44  1  0
 24 45  1  0
 25 46  1  0
 30 47  1  0
 31 48  1  0
M  CHG  2   3  -1  14  -1
M  END
>  <UniqueID>  (5) 
5

>  <SMILES>  (5) 
O=C([O-])Cc1ccc(CN2CC[C@@H]([N-]S(=O)(=O)c3ccc(-c4ncco4)s3)C2=O)cc1

>  <Energy>  (5) 
107.98481533853233

>  <Genealogy>  (5) 
O=C([O-])Cc1ccc(CN2CCC([N-]S(=O)(=O)c3ccc(-c4ncco4)s3)C2=O)cc1 (protonated)
O=C([O-])Cc1ccc(CN2CC[C@@H]([N-]S(=O)(=O)c3ccc(-c4ncco4)s3)C2=O)cc1 (chirality)
O=C([O-])Cc1ccc(CN2CC[C@@H]([N-]S(=O)(=O)c3ccc(-c4ncco4)s3)C2=O)cc1 (3D coordinates assigned)
O=C([O-])Cc1ccc(CN2CC[C@@H]([N-]S(=O)(=O)c3ccc(-c4ncco4)s3)C2=O)cc1 (nonaromatic ring conformer: 107.98481533853233 kcal/mol)

>  <smiles>  (5) 
O=C(O)Cc1ccc(CN2CCC(NS(=O)(=O)c3ccc(-c4ncco4)s3)C2=O)cc1

>  <score_type>  (5) 
oracle

>  <origin>  (5) 
adg

>  <m_score__min__energy>  (5) 
-14.130000000000001

>  <m_primary>  (5) 
energy

$$$$
5:0
     RDKit          3D

 50 53  0  0  0  0  0  0  0  0999 V2000
   58.5980   32.6740   41.8730 O   0  0  0  0  0  0  0  0  0  0  0  0
   57.6970   32.2340   42.6370 C   0  0  0  0  0  0  0  0  0  0  0  0
   56.9340   31.0000   42.2420 C   0  0  0  0  0  0  0  0  0  0  0  0
   56.7010   30.1240   43.4290 C   0  0  0  0  0  0  0  0  0  0  0  0
   55.8100   30.3910   44.4030 N   0  0  0  0  0  0  0  0  0  0  0  0
   55.8790   29.3770   45.2520 N   0  0  0  0  0  0  0  0  0  0  0  0
   56.8050   28.5280   44.7620 C   0  0  0  0  0  0  0  0  0  0  0  0
   57.2040   27.2500   45.3960 C   0  0  0  0  0  0  0  0  0  0  0  0
   58.5640   26.8920   45.4100 C   0  0  0  0  0  0  0  0  0  0  0  0
   58.9790   25.6950   45.9970 C   0  0  0  0  0  0  0  0  0  0  0  0
   58.0420   24.8390   46.5780 C   0  0  0  0  0  0  0  0  0  0  0  0
   56.6860   25.1740   46.5760 C   0  0  0  0  0  0  0  0  0  0  0  0
   55.7740   24.2970   47.1650 O   0  0  0  0  0  0  0  0  0  0  0  0
   56.2610   26.3780   45.9860 C   0  0  0  0  0  0  0  0  0  0  0  0
   54.9070   26.6990   45.9910 O   0  0  0  0  0  0  0  0  0  0  0  0
   57.3110   28.9830   43.6400 O   0  0  0  0  0  0  0  0  0  0  0  0
   57.4040   32.9530   43.8420 N   0  0  0  0  0  0  0  0  0  0  0  0
   58.2450   33.0510   45.0000 C   0  0  0  0  0  0  0  0  0  0  0  0
   58.2210   32.0170   45.9440 C   0  0  0  0  0  0  0  0  0  0  0  0
   59.0060   32.0950   47.0980 C   0  0  0  0  0  0  0  0  0  0  0  0
   59.8130   33.2180   47.3280 C   0  0  0  0  0  0  0  0  0  0  0  0
   60.7860   33.3400   48.7920 S   0  0  0  0  0  0  0  0  0  0  0  0
   59.8980   33.0600   49.9730 O   0  0  0  0  0  0  0  0  0  0  0  0
   61.3250   34.7370   48.9280 O   0  0  0  0  0  0  0  0  0  0  0  0
   62.0920   32.1730   48.7630 N   0  0  0  0  0  0  0  0  0  0  0  0
   62.5770   31.9220   47.3940 C   0  0  0  0  0  0  0  0  0  0  0  0
   63.4160   33.1000   46.8430 C   0  0  0  0  0  0  0  0  0  0  0  0
   63.8980   33.9730   47.8500 O   0  0  0  0  0  0  0  0  0  0  0  0
   64.3640   33.2330   48.9560 C   0  0  0  0  0  0  0  0  0  0  0  0
   63.1880   32.5530   49.6810 C   0  0  0  0  0  0  0  0  0  0  0  0
   59.8110   34.2700   46.4030 C   0  0  0  0  0  0  0  0  0  0  0  0
   59.0280   34.1920   45.2480 C   0  0  0  0  0  0  0  0  0  0  0  0
   55.9644   31.2957   41.8149 H   0  0  0  0  0  0  0  0  0  0  0  0
   57.5225   30.4417   41.4991 H   0  0  0  0  0  0  0  0  0  0  0  0
   59.3081   27.5616   44.9540 H   0  0  0  0  0  0  0  0  0  0  0  0
   60.0457   25.4263   46.0016 H   0  0  0  0  0  0  0  0  0  0  0  0
   58.3728   23.8968   47.0393 H   0  0  0  0  0  0  0  0  0  0  0  0
   54.7770   24.4690   47.1530 H   0  0  0  0  0  0  0  0  0  0  0  0
   57.5808   31.1383   45.7765 H   0  0  0  0  0  0  0  0  0  0  0  0
   58.9905   31.2724   47.8281 H   0  0  0  0  0  0  0  0  0  0  0  0
   63.2007   31.0159   47.4002 H   0  0  0  0  0  0  0  0  0  0  0  0
   61.6988   31.8007   46.7428 H   0  0  0  0  0  0  0  0  0  0  0  0
   64.2782   32.6880   46.2981 H   0  0  0  0  0  0  0  0  0  0  0  0
   62.7541   33.6913   46.1931 H   0  0  0  0  0  0  0  0  0  0  0  0
   65.0680   32.4635   48.6065 H   0  0  0  0  0  0  0  0  0  0  0  0
   64.8675   33.9162   49.6558 H   0  0  0  0  0  0  0  0  0  0  0  0
   63.5597   31.6456   50.1794 H   0  0  0  0  0  0  0  0  0  0  0  0
   62.7803   33.2765   50.4023 H   0  0  0  0  0  0  0  0  0  0  0  0
   60.4286   35.1616   46.5866 H   0  0  0  0  0  0  0  0  0  0  0  0
   59.0243   35.0260   44.5307 H   0  0  0  0  0  0  0  0  0  0  0  0
  1  2  2  0
  2  3  1  0
  3  4  1  0
  4  5  2  0
  5  6  1  0
  6  7  2  0
  7  8  1  0
  8  9  2  0
  9 10  1  0
 10 11  2  0
 11 12  1  0
 12 13  1  0
 12 14  2  0
 14 15  1  0
  7 16  1  0
  2 17  1  0
 17 18  1  0
 18 19  2  0
 19 20  1  0
 20 21  2  0
 21 22  1  0
 22 23  2  0
 22 24  2  0
 22 25  1  0
 25 26  1  0
 26 27  1  0
 27 28  1  0
 28 29  1  0
 29 30  1  0
 21 31  1  0
 31 32  2  0
 16  4  1  0
 32 18  1  0
 14  8  1  0
 30 25  1  0
  3 33  1  0
  3 34  1  0
  9 35  1  0
 10 36  1  0
 11 37  1  0
 13 38  1  0
 19 39  1  0
 20 40  1  0
 26 41  1  0
 26 42  1  0
 27 43  1  0
 27 44  1  0
 29 45  1  0
 29 46  1  0
 30 47  1  0
 30 48  1  0
 31 49  1  0
 32 50  1  0
M  CHG  2  15  -1  17  -1
M  END
>  <UniqueID>  (6) 
6

>  <SMILES>  (6) 
O=C(Cc1nnc(-c2cccc(O)c2[O-])o1)[N-]c1ccc(S(=O)(=O)N2CCOCC2)cc1

>  <Energy>  (6) 
104.00285450116645

>  <Genealogy>  (6) 
O=C(Cc1nnc(-c2cccc(O)c2[O-])o1)[N-]c1ccc(S(=O)(=O)N2CCOCC2)cc1 (protonated)
O=C(Cc1nnc(-c2cccc(O)c2[O-])o1)[N-]c1ccc(S(=O)(=O)N2CCOCC2)cc1 (3D coordinates assigned)
O=C(Cc1nnc(-c2cccc(O)c2[O-])o1)[N-]c1ccc(S(=O)(=O)N2CCOCC2)cc1 (nonaromatic ring conformer: 104.00285450116645 kcal/mol)

>  <smiles>  (6) 
O=C(Cc1nnc(-c2cccc(O)c2O)o1)Nc1ccc(S(=O)(=O)N2CCOCC2)cc1

>  <score_type>  (6) 
oracle

>  <origin>  (6) 
adg

>  <m_score__min__energy>  (6) 
-15.02

>  <m_primary>  (6) 
energy

$$$$
6:0
     RDKit          3D

 69 73  0  0  0  0  0  0  0  0999 V2000
   61.9790   30.7580   46.7700 C   0  0  0  0  0  0  0  0  0  0  0  0
   60.7970   30.8040   47.4070 C   0  0  0  0  0  0  0  0  0  0  0  0
   59.6110   30.1410   47.0490 C   0  0  0  0  0  0  0  0  0  0  0  0
   59.3840   29.1570   46.1560 C   0  0  0  0  0  0  0  0  0  0  0  0
   58.1770   28.3030   46.1190 C   0  0  0  0  0  0  0  0  0  0  0  0
   58.2050   26.9860   46.6140 C   0  0  0  0  0  0  0  0  0  0  0  0
   59.3550   26.4380   47.1880 O   0  0  0  0  0  0  0  0  0  0  0  0
   57.0830   26.2220   46.5520 N   0  0  0  0  0  0  0  0  0  0  0  0
   55.9340   26.6970   46.0100 C   0  0  0  0  0  0  0  0  0  0  0  0
   54.9090   25.9710   45.9790 O   0  0  0  0  0  0  0  0  0  0  0  0
   55.8930   27.9540   45.4970 N   0  0  0  0  0  0  0  0  0  0  0  0
   56.9830   28.7600   45.5260 C   0  0  0  0  0  0  0  0  0  0  0  0
   56.9130   29.9120   45.0170 O   0  0  0  0  0  0  0  0  0  0  0  0
   58.6160   30.6620   47.8620 C   0  0  0  0  0  0  0  0  0  0  0  0
   59.2280   31.5460   48.7250 C   0  0  0  0  0  0  0  0  0  0  0  0
   58.5190   32.3240   49.7940 C   0  0  0  0  0  0  0  0  0  0  0  0
   60.5490   31.6340   48.4500 N   0  0  0  0  0  0  0  0  0  0  0  0
   61.5050   32.4350   49.1710 C   0  0  0  0  0  0  0  0  0  0  0  0
   61.4190   33.8350   49.1280 C   0  0  0  0  0  0  0  0  0  0  0  0
   62.3270   34.6180   49.8430 C   0  0  0  0  0  0  0  0  0  0  0  0
   63.3220   34.0090   50.6090 C   0  0  0  0  0  0  0  0  0  0  0  0
   63.4170   32.6150   50.6600 C   0  0  0  0  0  0  0  0  0  0  0  0
   62.5070   31.8150   49.9400 C   0  0  0  0  0  0  0  0  0  0  0  0
   62.5600   30.4110   49.9640 O   0  0  0  0  0  0  0  0  0  0  0  0
   62.8260   29.6100   51.1150 C   0  0  0  0  0  0  0  0  0  0  0  0
   61.7430   29.7810   52.1300 C   0  0  0  0  0  0  0  0  0  0  0  0
   60.9790   28.8120   52.3940 O   0  0  0  0  0  0  0  0  0  0  0  0
   61.5560   31.0560   52.7580 N   0  0  0  0  0  0  0  0  0  0  0  0
   60.3230   31.7870   52.8220 C   0  0  0  0  0  0  0  0  0  0  0  0
   60.2980   33.1900   52.9150 C   0  0  0  0  0  0  0  0  0  0  0  0
   59.0770   33.8680   52.9510 C   0  0  0  0  0  0  0  0  0  0  0  0
   57.8770   33.1590   52.8850 C   0  0  0  0  0  0  0  0  0  0  0  0
   57.8890   31.7610   52.7830 C   0  0  0  0  0  0  0  0  0  0  0  0
   56.3710   30.8620   52.7250 S   0  0  0  0  0  0  0  0  0  0  0  0
   55.2810   31.7840   52.2530 O   0  0  0  0  0  0  0  0  0  0  0  0
   56.4970   29.7490   51.7190 O   0  0  0  0  0  0  0  0  0  0  0  0
   55.9200   30.1910   54.2800 N   0  0  0  0  0  0  0  0  0  0  0  0
   55.5600   28.7630   54.2000 C   0  0  0  0  0  0  0  0  0  0  0  0
   56.7920   27.8260   54.2140 C   0  0  0  0  0  0  0  0  0  0  0  0
   58.0050   28.4990   54.4970 O   0  0  0  0  0  0  0  0  0  0  0  0
   57.8440   29.3080   55.6400 C   0  0  0  0  0  0  0  0  0  0  0  0
   56.9080   30.4920   55.3380 C   0  0  0  0  0  0  0  0  0  0  0  0
   59.1160   31.0820   52.7350 C   0  0  0  0  0  0  0  0  0  0  0  0
   62.8355   31.3289   47.1580 H   0  0  0  0  0  0  0  0  0  0  0  0
   62.0903   30.1495   45.8604 H   0  0  0  0  0  0  0  0  0  0  0  0
   60.1572   28.9749   45.3951 H   0  0  0  0  0  0  0  0  0  0  0  0
   59.8020   26.8350   48.0030 H   0  0  0  0  0  0  0  0  0  0  0  0
   57.5442   30.4171   47.8255 H   0  0  0  0  0  0  0  0  0  0  0  0
   58.8435   31.9679   50.7829 H   0  0  0  0  0  0  0  0  0  0  0  0
   58.7607   33.3922   49.6914 H   0  0  0  0  0  0  0  0  0  0  0  0
   57.4330   32.1823   49.6914 H   0  0  0  0  0  0  0  0  0  0  0  0
   60.6329   34.3174   48.5285 H   0  0  0  0  0  0  0  0  0  0  0  0
   62.2582   35.7151   49.8026 H   0  0  0  0  0  0  0  0  0  0  0  0
   64.0340   34.6279   51.1746 H   0  0  0  0  0  0  0  0  0  0  0  0
   64.2046   32.1410   51.2641 H   0  0  0  0  0  0  0  0  0  0  0  0
   62.8792   28.5527   50.8164 H   0  0  0  0  0  0  0  0  0  0  0  0
   63.7824   29.9265   51.5568 H   0  0  0  0  0  0  0  0  0  0  0  0
   61.2411   33.7544   52.9595 H   0  0  0  0  0  0  0  0  0  0  0  0
   59.0616   34.9649   53.0317 H   0  0  0  0  0  0  0  0  0  0  0  0
   56.9189   33.6986   52.9131 H   0  0  0  0  0  0  0  0  0  0  0  0
   54.9208   28.5141   55.0599 H   0  0  0  0  0  0  0  0  0  0  0  0
   55.0403   28.6082   53.2430 H   0  0  0  0  0  0  0  0  0  0  0  0
   56.6343   27.0535   54.9811 H   0  0  0  0  0  0  0  0  0  0  0  0
   56.8857   27.3964   53.2057 H   0  0  0  0  0  0  0  0  0  0  0  0
   57.4129   28.7044   56.4523 H   0  0  0  0  0  0  0  0  0  0  0  0
   58.8274   29.7004   55.9382 H   0  0  0  0  0  0  0  0  0  0  0  0
   56.3667   30.7548   56.2588 H   0  0  0  0  0  0  0  0  0  0  0  0
   57.5330   31.3226   54.9784 H   0  0  0  0  0  0  0  0  0  0  0  0
   59.1300   29.9873   52.6282 H   0  0  0  0  0  0  0  0  0  0  0  0
  1  2  2  0
  2  3  1  0
  3  4  2  3
  4  5  1  0
  5  6  2  0
  6  7  1  0
  6  8  1  0
  8  9  1  0
  9 10  2  0
  9 11  1  0
 11 12  1  0
 12 13  2  0
  3 14  1  0
 14 15  2  0
 15 16  1  0
 15 17  1  0
 17 18  1  0
 18 19  2  0
 19 20  1  0
 20 21  2  0
 21 22  1  0
 22 23  2  0
 23 24  1  0
 24 25  1  0
 25 26  1  0
 26 27  2  0
 26 28  1  0
 28 29  1  0
 29 30  2  0
 30 31  1  0
 31 32  2  0
 32 33  1  0
 33 34  1  0
 34 35  2  0
 34 36  2  0
 34 37  1  0
 37 38  1  0
 38 39  1  0
 39 40  1  0
 40 41  1  0
 41 42  1  0
 33 43  2  0
 17  2  1  0
 23 18  1  0
 43 29  1  0
 12  5  1  0
 42 37  1  0
  1 44  1  0
  1 45  1  0
  4 46  1  0
  7 47  1  0
 14 48  1  0
 16 49  1  0
 16 50  1  0
 16 51  1  0
 19 52  1  0
 20 53  1  0
 21 54  1  0
 22 55  1  0
 25 56  1  0
 25 57  1  0
 30 58  1  0
 31 59  1  0
 32 60  1  0
 38 61  1  0
 38 62  1  0
 39 63  1  0
 39 64  1  0
 41 65  1  0
 41 66  1  0
 42 67  1  0
 42 68  1  0
 43 69  1  0
M  CHG  3   8  -1  11  -1  28  -1
M  END
>  <UniqueID>  (7) 
7

>  <SMILES>  (7) 
C=c1c(=Cc2c(O)[n-]c(=O)[n-]c2=O)cc(C)n1-c1ccccc1OCC(=O)[N-]c1cccc(S(=O)(=O)N2CCOCC2)c1

>  <Energy>  (7) 
136.35134869076884

>  <Genealogy>  (7) 
C=c1c(=Cc2c(O)[n-]c(=O)[n-]c2=O)cc(C)n1-c1ccccc1OCC(=O)[N-]c1cccc(S(=O)(=O)N2CCOCC2)c1 (protonated)
C=c1c(=Cc2c(O)[n-]c(=O)[n-]c2=O)cc(C)n1-c1ccccc1OCC(=O)[N-]c1cccc(S(=O)(=O)N2CCOCC2)c1 (3D coordinates assigned)
C=c1c(=Cc2c(O)[n-]c(=O)[n-]c2=O)cc(C)n1-c1ccccc1OCC(=O)[N-]c1cccc(S(=O)(=O)N2CCOCC2)c1 (nonaromatic ring conformer: 136.35134869076884 kcal/mol)

>  <smiles>  (7) 
C=c1c(=Cc2c(O)[nH]c(=O)[nH]c2=O)cc(C)n1-c1ccccc1OCC(=O)Nc1cccc(S(=O)(=O)N2CCOCC2)c1

>  <score_type>  (7) 
oracle

>  <origin>  (7) 
adg

>  <m_score__min__energy>  (7) 
-16.149999999999999

>  <m_primary>  (7) 
energy

$$$$
7:0
     RDKit          3D

 38 40  0  0  0  0  0  0  0  0999 V2000
   56.5359   22.0532   41.6507 H   0  0  0  0  0  0  0  0  0  0  0  0
   56.5860   22.3020   42.7210 C   0  0  0  0  0  0  0  0  0  0  0  0
   57.5540   21.7060   43.5310 C   0  0  0  0  0  0  0  0  0  0  0  0
   58.2664   20.9886   43.0976 H   0  0  0  0  0  0  0  0  0  0  0  0
   57.6200   22.0190   44.8920 C   0  0  0  0  0  0  0  0  0  0  0  0
   58.3846   21.5451   45.5251 H   0  0  0  0  0  0  0  0  0  0  0  0
   56.7140   22.9370   45.4580 C   0  0  0  0  0  0  0  0  0  0  0  0
   56.7800   23.2730   46.9000 C   0  0  0  0  0  0  0  0  0  0  0  0
   57.3170   22.4640   47.7070 O   0  0  0  0  0  0  0  0  0  0  0  0
   56.2330   24.5160   47.3720 N   0  0  0  0  0  0  0  0  0  0  0  0
   56.2920   25.6620   46.7610 C   0  0  0  0  0  0  0  0  0  0  0  0
   55.2680   26.2350   46.0960 N   0  0  0  0  0  0  0  0  0  0  0  0
   55.7140   27.3840   45.6140 N   0  0  0  0  0  0  0  0  0  0  0  0
   55.1330   28.0460   45.0510 H   0  0  0  0  0  0  0  0  0  0  0  0
   57.0050   27.5470   45.9640 C   0  0  0  0  0  0  0  0  0  0  0  0
   57.8280   28.7090   45.6000 C   0  0  0  0  0  0  0  0  0  0  0  0
   59.0850   28.6270   45.6450 O   0  0  0  0  0  0  0  0  0  0  0  0
   57.1960   29.9290   45.1980 N   0  0  0  0  0  0  0  0  0  0  0  0
   57.9270   31.1270   44.8010 C   0  0  0  0  0  0  0  0  0  0  0  0
   58.7911   30.8372   44.1850 H   0  0  0  0  0  0  0  0  0  0  0  0
   57.2557   31.7811   44.2252 H   0  0  0  0  0  0  0  0  0  0  0  0
   58.4130   31.8740   46.0210 C   0  0  0  0  0  0  0  0  0  0  0  0
   59.0990   31.1560   47.0160 C   0  0  0  0  0  0  0  0  0  0  0  0
   59.2784   30.0787   46.8851 H   0  0  0  0  0  0  0  0  0  0  0  0
   59.5550   31.7990   48.1700 C   0  0  0  0  0  0  0  0  0  0  0  0
   60.0901   31.2274   48.9426 H   0  0  0  0  0  0  0  0  0  0  0  0
   59.3320   33.1660   48.3430 C   0  0  0  0  0  0  0  0  0  0  0  0
   59.9050   33.9710   49.7930 Cl  0  0  0  0  0  0  0  0  0  0  0  0
   58.6520   33.8930   47.3630 C   0  0  0  0  0  0  0  0  0  0  0  0
   58.4781   34.9700   47.5036 H   0  0  0  0  0  0  0  0  0  0  0  0
   58.1900   33.2590   46.2020 C   0  0  0  0  0  0  0  0  0  0  0  0
   57.3460   34.2440   45.0100 Cl  0  0  0  0  0  0  0  0  0  0  0  0
   57.4180   26.4570   46.7050 C   0  0  0  0  0  0  0  0  0  0  0  0
   58.4082   26.2680   47.1453 H   0  0  0  0  0  0  0  0  0  0  0  0
   55.7430   23.5320   44.6290 C   0  0  0  0  0  0  0  0  0  0  0  0
   55.0282   24.2519   45.0542 H   0  0  0  0  0  0  0  0  0  0  0  0
   55.6820   23.2130   43.2680 C   0  0  0  0  0  0  0  0  0  0  0  0
   54.9197   23.6814   42.6281 H   0  0  0  0  0  0  0  0  0  0  0  0
  1  2  1  0
  2  3  2  0
  3  4  1  0
  3  5  1  0
  5  6  1  0
  5  7  2  0
  7  8  1  0
  8  9  2  0
  8 10  1  0
 10 11  2  0
 11 12  1  0
 12 13  1  0
 13 14  1  0
 13 15  1  0
 15 16  1  0
 16 17  2  0
 16 18  1  0
 18 19  1  0
 19 20  1  0
 19 21  1  0
 19 22  1  0
 22 23  2  0
 23 24  1  0
 23 25  1  0
 25 26  1  0
 25 27  2  0
 27 28  1  0
 27 29  1  0
 29 30  1  0
 29 31  2  0
 31 32  1  0
 15 33  2  0
 33 34  1  0
  7 35  1  0
 35 36  1  0
 35 37  2  0
 37 38  1  0
 37  2  1  0
 33 11  1  0
 31 22  1  0
M  CHG  2  12  -1  18  -1
M  END
>  <UniqueID>  (8) 
8

>  <SMILES>  (8) 
O=C(/N=c1/cc(C(=O)[N-]Cc2ccc(Cl)cc2Cl)[nH][n-]1)c1ccccc1

>  <Energy>  (8) 
72.70788739809872

>  <Genealogy>  (8) 
O=C(N=c1cc(C(=O)[N-]Cc2ccc(Cl)cc2Cl)[nH][n-]1)c1ccccc1 (protonated)
O=C(/N=c1/cc(C(=O)[N-]Cc2ccc(Cl)cc2Cl)[nH][n-]1)c1ccccc1 (cis-trans isomerization)
O=C(/N=c1/cc(C(=O)[N-]Cc2ccc(Cl)cc2Cl)[nH][n-]1)c1ccccc1 (3D coordinates assigned)
O=C(/N=c1/cc(C(=O)[N-]Cc2ccc(Cl)cc2Cl)[nH][n-]1)c1ccccc1 (optimized conformer: 72.70788739809872 kcal/mol)

>  <smiles>  (8) 
O=C(N=c1cc(C(=O)NCc2ccc(Cl)cc2Cl)[nH][nH]1)c1ccccc1

>  <score_type>  (8) 
oracle

>  <origin>  (8) 
adg

>  <m_score__min__energy>  (8) 
-12.17

>  <m_primary>  (8) 
energy

$$$$
8:0
     RDKit          3D

 41 43  0  0  0  0  0  0  0  0999 V2000
   55.7930   29.7990   44.8690 O   0  0  0  0  0  0  0  0  0  0  0  0
   56.9140   30.1830   44.4390 C   0  0  0  0  0  0  0  0  0  0  0  0
   57.6490   31.2750   45.1020 C   0  0  0  0  0  0  0  0  0  0  0  0
   57.3590   32.6230   44.8230 C   0  0  0  0  0  0  0  0  0  0  0  0
   58.0710   33.6440   45.4590 C   0  0  0  0  0  0  0  0  0  0  0  0
   59.0770   33.3320   46.3840 C   0  0  0  0  0  0  0  0  0  0  0  0
   59.9670   34.6040   47.2110 S   0  0  0  0  0  0  0  0  0  0  0  0
   59.3370   34.9200   48.5390 O   0  0  0  0  0  0  0  0  0  0  0  0
   59.9480   35.8470   46.3660 O   0  0  0  0  0  0  0  0  0  0  0  0
   61.6030   34.0900   47.4570 N   0  0  0  0  0  0  0  0  0  0  0  0
   62.5580   33.8370   46.3940 C   0  0  0  0  0  0  0  0  0  0  0  0
   63.7340   33.1510   47.1130 C   0  0  0  0  0  0  0  0  0  0  0  0
   63.2940   33.0160   48.4950 N   0  0  0  0  0  0  0  0  0  0  0  0
   62.1320   33.5430   48.6510 C   0  0  0  0  0  0  0  0  0  0  0  0
   61.2910   33.5850   50.2370 S   0  0  0  0  0  0  0  0  0  0  0  0
   60.3200   32.0680   49.9340 C   0  0  0  0  0  0  0  0  0  0  0  0
   59.0790   32.0480   50.7820 C   0  0  0  0  0  0  0  0  0  0  0  0
   58.7580   33.1430   51.6030 C   0  0  0  0  0  0  0  0  0  0  0  0
   57.6240   33.1030   52.4200 C   0  0  0  0  0  0  0  0  0  0  0  0
   56.8050   31.9710   52.4240 C   0  0  0  0  0  0  0  0  0  0  0  0
   57.1170   30.8780   51.6100 C   0  0  0  0  0  0  0  0  0  0  0  0
   58.2520   30.9120   50.7940 C   0  0  0  0  0  0  0  0  0  0  0  0
   59.3650   31.9910   46.6670 C   0  0  0  0  0  0  0  0  0  0  0  0
   58.6580   30.9680   46.0290 C   0  0  0  0  0  0  0  0  0  0  0  0
   57.3506   29.6954   43.5549 H   0  0  0  0  0  0  0  0  0  0  0  0
   56.5682   32.8747   44.1010 H   0  0  0  0  0  0  0  0  0  0  0  0
   57.8411   34.6957   45.2329 H   0  0  0  0  0  0  0  0  0  0  0  0
   62.1265   33.1750   45.6288 H   0  0  0  0  0  0  0  0  0  0  0  0
   62.8588   34.7534   45.8651 H   0  0  0  0  0  0  0  0  0  0  0  0
   63.9357   32.1637   46.6719 H   0  0  0  0  0  0  0  0  0  0  0  0
   64.6673   33.7270   47.0276 H   0  0  0  0  0  0  0  0  0  0  0  0
   63.8500   32.5720   49.2600 H   0  0  0  0  0  0  0  0  0  0  0  0
   60.0320   32.0305   48.8730 H   0  0  0  0  0  0  0  0  0  0  0  0
   60.9384   31.1965   50.1949 H   0  0  0  0  0  0  0  0  0  0  0  0
   59.4016   34.0350   51.6027 H   0  0  0  0  0  0  0  0  0  0  0  0
   57.3766   33.9629   53.0597 H   0  0  0  0  0  0  0  0  0  0  0  0
   55.9139   31.9397   53.0682 H   0  0  0  0  0  0  0  0  0  0  0  0
   56.4684   29.9896   51.6115 H   0  0  0  0  0  0  0  0  0  0  0  0
   58.4981   30.0474   50.1600 H   0  0  0  0  0  0  0  0  0  0  0  0
   60.1513   31.7417   47.3948 H   0  0  0  0  0  0  0  0  0  0  0  0
   58.8931   29.9173   46.2542 H   0  0  0  0  0  0  0  0  0  0  0  0
  1  2  2  0
  2  3  1  0
  3  4  2  0
  4  5  1  0
  5  6  2  0
  6  7  1  0
  7  8  2  0
  7  9  2  0
  7 10  1  0
 10 11  1  0
 11 12  1  0
 12 13  1  0
 13 14  2  0
 14 15  1  0
 15 16  1  0
 16 17  1  0
 17 18  2  0
 18 19  1  0
 19 20  2  0
 20 21  1  0
 21 22  2  0
  6 23  1  0
 23 24  2  0
 24  3  1  0
 14 10  1  0
 22 17  1  0
  2 25  1  0
  4 26  1  0
  5 27  1  0
 11 28  1  0
 11 29  1  0
 12 30  1  0
 12 31  1  0
 13 32  1  0
 16 33  1  0
 16 34  1  0
 18 35  1  0
 19 36  1  0
 20 37  1  0
 21 38  1  0
 22 39  1  0
 23 40  1  0
 24 41  1  0
M  CHG  1  13   1
M  END
>  <UniqueID>  (9) 
9

>  <SMILES>  (9) 
O=Cc1ccc(S(=O)(=O)N2CC[NH+]=C2SCc2ccccc2)cc1

>  <Energy>  (9) 
49.057265845832504

>  <Genealogy>  (9) 
O=Cc1ccc(S(=O)(=O)N2CC[NH+]=C2SCc2ccccc2)cc1 (protonated)
O=Cc1ccc(S(=O)(=O)N2CC[NH+]=C2SCc2ccccc2)cc1 (3D coordinates assigned)
O=Cc1ccc(S(=O)(=O)N2CC[NH+]=C2SCc2ccccc2)cc1 (nonaromatic ring conformer: 49.057265845832504 kcal/mol)

>  <smiles>  (9) 
O=Cc1ccc(S(=O)(=O)N2CCN=C2SCc2ccccc2)cc1

>  <score_type>  (9) 
oracle

>  <origin>  (9) 
adg

>  <m_score__min__energy>  (9) 
-6.9100000000000001

>  <m_primary>  (9) 
energy

$$$$
9:0
     RDKit          3D

 53 56  0  0  1  0  0  0  0  0999 V2000
   62.3640   34.5490   49.6350 C   0  0  0  0  0  0  0  0  0  0  0  0
   61.1070   33.9440   49.1420 C   0  0  0  0  0  0  0  0  0  0  0  0
   60.6000   34.1470   47.8780 C   0  0  0  0  0  0  0  0  0  0  0  0
   59.4010   33.5230   47.5050 C   0  0  0  0  0  0  0  0  0  0  0  0
   58.9980   33.7490   46.3200 N   0  0  0  0  0  0  0  0  0  0  0  0
   58.3760   32.7750   45.5040 C   0  0  0  0  0  0  0  0  0  0  0  0
   58.2180   33.1220   44.1570 C   0  0  0  0  0  0  0  0  0  0  0  0
   57.6330   32.2780   43.2410 C   0  0  0  0  0  0  0  0  0  0  0  0
   57.1960   31.0570   43.6940 C   0  0  0  0  0  0  0  0  0  0  0  0
   56.6190   30.2320   42.7810 F   0  0  0  0  0  0  0  0  0  0  0  0
   57.3450   30.7020   45.0180 C   0  0  0  0  0  0  0  0  0  0  0  0
   56.8480   29.3840   45.4040 C   0  0  0  0  0  0  0  0  0  0  0  0
   55.6220   28.8760   44.8820 N   0  0  0  0  0  0  0  0  0  0  0  0
   57.5230   28.6870   46.2200 O   0  0  0  0  0  0  0  0  0  0  0  0
   57.9340   31.5510   45.9420 C   0  0  0  0  0  0  0  0  0  0  0  0
   58.7230   32.7270   48.3480 N   0  0  0  0  0  0  0  0  0  0  0  0
   59.2390   32.5450   49.5750 C   0  0  0  0  0  0  0  0  0  0  0  0
   58.6360   31.7280   50.5630 N   0  0  0  0  0  0  0  0  0  0  0  0
   57.8840   31.9950   51.8160 C   0  0  0  0  0  0  0  0  0  0  0  0
   57.0020   30.8310   51.3070 C   0  0  0  0  0  0  0  0  0  0  0  0
   56.3320   30.1020   52.2540 O   0  0  0  0  0  0  0  0  0  0  0  0
   54.9980   30.2810   52.5140 C   0  0  0  0  0  0  0  0  0  0  0  0
   54.5030   29.8560   53.7320 C   0  0  0  0  0  0  0  0  0  0  0  0
   53.1690   29.9940   54.0870 C   0  0  0  0  0  0  0  0  0  0  0  0
   52.2860   30.5860   53.1740 C   0  0  0  0  0  0  0  0  0  0  0  0
   50.9720   30.7230   53.5240 F   0  0  0  0  0  0  0  0  0  0  0  0
   52.7610   31.0130   51.9580 C   0  0  0  0  0  0  0  0  0  0  0  0
   51.8570   31.6330   50.9920 C   0  0  0  0  0  0  0  0  0  0  0  0
   51.4470   31.0000   49.7910 N   0  0  0  0  0  0  0  0  0  0  0  0
   51.3970   32.7930   51.2070 O   0  0  0  0  0  0  0  0  0  0  0  0
   54.1040   30.8660   51.6200 C   0  0  0  0  0  0  0  0  0  0  0  0
   58.3930   30.3180   50.8680 C   0  0  0  0  0  0  0  0  0  0  0  0
   60.4070   33.1460   49.9560 N   0  0  0  0  0  0  0  0  0  0  0  0
   62.3641   34.5491   50.7350 H   0  0  0  0  0  0  0  0  0  0  0  0
   63.2207   33.9646   49.2683 H   0  0  0  0  0  0  0  0  0  0  0  0
   62.4417   35.5832   49.2683 H   0  0  0  0  0  0  0  0  0  0  0  0
   61.1321   34.7945   47.1655 H   0  0  0  0  0  0  0  0  0  0  0  0
   58.5747   34.1059   43.8182 H   0  0  0  0  0  0  0  0  0  0  0  0
   57.5197   32.5699   42.1865 H   0  0  0  0  0  0  0  0  0  0  0  0
   54.7840   28.9950   45.4910 H   0  0  0  0  0  0  0  0  0  0  0  0
   55.5910   28.4180   43.9490 H   0  0  0  0  0  0  0  0  0  0  0  0
   58.0441   31.2529   46.9951 H   0  0  0  0  0  0  0  0  0  0  0  0
   58.4322   31.8037   52.7503 H   0  0  0  0  0  0  0  0  0  0  0  0
   57.4961   32.9830   52.1047 H   0  0  0  0  0  0  0  0  0  0  0  0
   56.1259   30.9303   50.6493 H   0  0  0  0  0  0  0  0  0  0  0  0
   55.1945   29.3895   54.4490 H   0  0  0  0  0  0  0  0  0  0  0  0
   52.8111   29.6452   55.0669 H   0  0  0  0  0  0  0  0  0  0  0  0
   51.6020   31.5320   48.9070 H   0  0  0  0  0  0  0  0  0  0  0  0
   51.0050   30.0500   49.7490 H   0  0  0  0  0  0  0  0  0  0  0  0
   54.4615   31.2144   50.6398 H   0  0  0  0  0  0  0  0  0  0  0  0
   59.0153   29.8929   51.6693 H   0  0  0  0  0  0  0  0  0  0  0  0
   58.5436   29.5017   50.1462 H   0  0  0  0  0  0  0  0  0  0  0  0
   60.7920   32.9890   50.9190 H   0  0  0  0  0  0  0  0  0  0  0  0
  1  2  1  0
  2  3  2  0
  3  4  1  0
  4  5  2  0
  5  6  1  0
  6  7  2  0
  7  8  1  0
  8  9  2  0
  9 10  1  0
  9 11  1  0
 11 12  1  0
 12 13  1  0
 12 14  2  0
 11 15  2  0
  4 16  1  0
 16 17  2  0
 17 18  1  0
 18 19  1  0
 19 20  1  0
 20 21  1  0
 21 22  1  0
 22 23  2  0
 23 24  1  0
 24 25  2  0
 25 26  1  0
 25 27  1  0
 27 28  1  0
 28 29  1  0
 28 30  2  0
 27 31  2  0
 20 32  1  0
 17 33  1  0
 33  2  1  0
 15  6  1  0
 32 18  1  0
 31 22  1  0
  1 34  1  0
  1 35  1  0
  1 36  1  0
  3 37  1  0
  7 38  1  0
  8 39  1  0
 13 40  1  0
 13 41  1  0
 15 42  1  0
 19 43  1  0
 19 44  1  0
 20 45  1  0
 23 46  1  0
 24 47  1  0
 29 48  1  0
 29 49  1  0
 31 50  1  0
 32 51  1  0
 32 52  1  0
 33 53  1  0
M  END
>  <smiles>  (10) 
Cc1cc(=Nc2ccc(F)c(C(N)=O)c2)nc(N2CC(Oc3ccc(F)c(C(N)=O)c3)C2)[nH]1

>  <score_type>  (10) 
oracle

>  <origin>  (10) 
adg

>  <m_score__min__energy>  (10) 
-10.18

>  <m_primary>  (10) 
energy

$$$$
10:0
     RDKit          3D

 40 42  0  0  0  0  0  0  0  0999 V2000
   55.1440   29.6480   44.8880 O   0  0  0  0  0  0  0  0  0  0  0  0
   56.3260   29.2150   44.9070 C   0  0  0  0  0  0  0  0  0  0  0  0
   57.3410   29.9410   44.2010 N   0  0  0  0  0  0  0  0  0  0  0  0
   57.8530   31.2290   44.5740 C   0  0  0  0  0  0  0  0  0  0  0  0
   58.2340   31.5000   45.9010 C   0  0  0  0  0  0  0  0  0  0  0  0
   58.7230   32.7630   46.2570 C   0  0  0  0  0  0  0  0  0  0  0  0
   59.2290   33.0800   47.9160 S   0  0  0  0  0  0  0  0  0  0  0  0
   59.0120   34.5360   48.2250 O   0  0  0  0  0  0  0  0  0  0  0  0
   58.3900   32.2630   48.8600 O   0  0  0  0  0  0  0  0  0  0  0  0
   60.9180   32.6840   48.1120 N   0  0  0  0  0  0  0  0  0  0  0  0
   61.7560   33.8790   47.8800 C   0  0  0  0  0  0  0  0  0  0  0  0
   63.2330   33.4980   47.6560 C   0  0  0  0  0  0  0  0  0  0  0  0
   63.4940   32.1930   48.1280 O   0  0  0  0  0  0  0  0  0  0  0  0
   62.7910   31.2480   47.3400 C   0  0  0  0  0  0  0  0  0  0  0  0
   61.2910   31.5940   47.1940 C   0  0  0  0  0  0  0  0  0  0  0  0
   58.8320   33.7630   45.2840 C   0  0  0  0  0  0  0  0  0  0  0  0
   58.4310   33.5090   43.9700 C   0  0  0  0  0  0  0  0  0  0  0  0
   57.9340   32.2500   43.6140 C   0  0  0  0  0  0  0  0  0  0  0  0
   57.4440   31.9620   41.9500 Cl  0  0  0  0  0  0  0  0  0  0  0  0
   56.6200   27.9560   45.6220 C   0  0  0  0  0  0  0  0  0  0  0  0
   57.8710   27.7280   46.2140 C   0  0  0  0  0  0  0  0  0  0  0  0
   58.0940   26.5100   46.8560 C   0  0  0  0  0  0  0  0  0  0  0  0
   59.2070   26.2720   47.3930 O   0  0  0  0  0  0  0  0  0  0  0  0
   57.1090   25.5770   46.9020 N   0  0  0  0  0  0  0  0  0  0  0  0
   55.9040   25.8090   46.3200 C   0  0  0  0  0  0  0  0  0  0  0  0
   55.0030   24.9300   46.3690 O   0  0  0  0  0  0  0  0  0  0  0  0
   55.6700   26.9850   45.6810 N   0  0  0  0  0  0  0  0  0  0  0  0
   58.1471   30.7134   46.6650 H   0  0  0  0  0  0  0  0  0  0  0  0
   61.0500   32.3590   49.0990 H   0  0  0  0  0  0  0  0  0  0  0  0
   61.3846   34.4089   46.9905 H   0  0  0  0  0  0  0  0  0  0  0  0
   61.6963   34.5209   48.7713 H   0  0  0  0  0  0  0  0  0  0  0  0
   63.4575   33.5434   46.5801 H   0  0  0  0  0  0  0  0  0  0  0  0
   63.8665   34.2056   48.2109 H   0  0  0  0  0  0  0  0  0  0  0  0
   63.2446   31.2174   46.3384 H   0  0  0  0  0  0  0  0  0  0  0  0
   62.8605   30.2741   47.8467 H   0  0  0  0  0  0  0  0  0  0  0  0
   61.0919   31.9091   46.1591 H   0  0  0  0  0  0  0  0  0  0  0  0
   60.6960   30.7027   47.4419 H   0  0  0  0  0  0  0  0  0  0  0  0
   59.2341   34.7506   45.5542 H   0  0  0  0  0  0  0  0  0  0  0  0
   58.5062   34.3023   43.2117 H   0  0  0  0  0  0  0  0  0  0  0  0
   58.6597   28.4937   46.1728 H   0  0  0  0  0  0  0  0  0  0  0  0
  1  2  2  0
  2  3  1  0
  3  4  1  0
  4  5  2  0
  5  6  1  0
  6  7  1  0
  7  8  2  0
  7  9  2  0
  7 10  1  0
 10 11  1  0
 11 12  1  0
 12 13  1  0
 13 14  1  0
 14 15  1  0
  6 16  2  0
 16 17  1  0
 17 18  2  0
 18 19  1  0
  2 20  1  0
 20 21  2  0
 21 22  1  0
 22 23  2  0
 22 24  1  0
 24 25  1  0
 25 26  2  0
 25 27  1  0
 18  4  1  0
 27 20  1  0
 15 10  1  0
  5 28  1  0
 10 29  1  0
 11 30  1  0
 11 31  1  0
 12 32  1  0
 12 33  1  0
 14 34  1  0
 14 35  1  0
 15 36  1  0
 15 37  1  0
 16 38  1  0
 17 39  1  0
 21 40  1  0
M  CHG  4   3  -1  10   1  24  -1  27  -1
M  END
>  <UniqueID>  (11) 
10

>  <SMILES>  (11) 
O=C([N-]c1cc(S(=O)(=O)[NH+]2CCOCC2)ccc1Cl)c1cc(=O)[n-]c(=O)[n-]1

>  <Energy>  (11) 
54.0544808345069

>  <Genealogy>  (11) 
O=C([N-]c1cc(S(=O)(=O)[NH+]2CCOCC2)ccc1Cl)c1cc(=O)[n-]c(=O)[n-]1 (protonated)
O=C([N-]c1cc(S(=O)(=O)[NH+]2CCOCC2)ccc1Cl)c1cc(=O)[n-]c(=O)[n-]1 (3D coordinates assigned)
O=C([N-]c1cc(S(=O)(=O)[NH+]2CCOCC2)ccc1Cl)c1cc(=O)[n-]c(=O)[n-]1 (nonaromatic ring conformer: 54.0544808345069 kcal/mol)

>  <smiles>  (11) 
O=C(Nc1cc(S(=O)(=O)N2CCOCC2)ccc1Cl)c1cc(=O)[nH]c(=O)[nH]1

>  <score_type>  (11) 
oracle

>  <origin>  (11) 
adg

>  <m_score__min__energy>  (11) 
-13.630000000000001

>  <m_primary>  (11) 
energy

$$$$
11:0
     RDKit          3D

 55 59  0  0  0  0  0  0  0  0999 V2000
   62.3940   32.5860   46.7450 O   0  0  0  0  0  0  0  0  0  0  0  0
   61.9940   33.2860   47.7150 C   0  0  0  0  0  0  0  0  0  0  0  0
   60.7580   34.0140   47.6070 N   0  0  0  0  0  0  0  0  0  0  0  0
   59.7620   33.7540   46.6020 C   0  0  0  0  0  0  0  0  0  0  0  0
   59.2570   34.8200   45.8440 C   0  0  0  0  0  0  0  0  0  0  0  0
   58.2780   34.5950   44.8730 C   0  0  0  0  0  0  0  0  0  0  0  0
   57.7780   33.3080   44.6650 C   0  0  0  0  0  0  0  0  0  0  0  0
   58.2400   32.2360   45.4440 C   0  0  0  0  0  0  0  0  0  0  0  0
   57.7180   30.8720   45.2300 C   0  0  0  0  0  0  0  0  0  0  0  0
   56.5340   30.7330   44.8200 O   0  0  0  0  0  0  0  0  0  0  0  0
   58.5300   29.7070   45.4680 N   0  0  0  0  0  0  0  0  0  0  0  0
   59.9810   29.6990   45.3790 C   0  0  0  0  0  0  0  0  0  0  0  0
   60.4010   28.2540   45.6100 C   0  0  0  0  0  0  0  0  0  0  0  0
   59.1440   27.4120   45.4140 C   0  0  0  0  0  0  0  0  0  0  0  0
   57.9680   28.3690   45.5620 C   0  0  0  0  0  0  0  0  0  0  0  0
   59.2400   32.4630   46.4040 C   0  0  0  0  0  0  0  0  0  0  0  0
   62.8100   33.3870   48.9500 C   0  0  0  0  0  0  0  0  0  0  0  0
   64.1210   33.0240   48.9010 N   0  0  0  0  0  0  0  0  0  0  0  0
   64.9270   33.0930   49.9910 C   0  0  0  0  0  0  0  0  0  0  0  0
   66.2710   32.7150   49.9120 C   0  0  0  0  0  0  0  0  0  0  0  0
   67.0840   32.7920   51.0480 C   0  0  0  0  0  0  0  0  0  0  0  0
   66.5560   33.2480   52.2620 C   0  0  0  0  0  0  0  0  0  0  0  0
   65.2110   33.6290   52.3440 C   0  0  0  0  0  0  0  0  0  0  0  0
   64.3960   33.5520   51.2100 C   0  0  0  0  0  0  0  0  0  0  0  0
   63.0900   33.9150   51.2680 N   0  0  0  0  0  0  0  0  0  0  0  0
   62.2800   33.8570   50.1740 C   0  0  0  0  0  0  0  0  0  0  0  0
   60.9280   34.2160   50.2750 O   0  0  0  0  0  0  0  0  0  0  0  0
   59.8760   33.3410   50.5810 C   0  0  0  0  0  0  0  0  0  0  0  0
   59.6260   32.1760   49.8310 C   0  0  0  0  0  0  0  0  0  0  0  0
   58.5710   31.3270   50.1820 C   0  0  0  0  0  0  0  0  0  0  0  0
   57.7690   31.6250   51.2870 C   0  0  0  0  0  0  0  0  0  0  0  0
   56.7480   30.8000   51.6260 F   0  0  0  0  0  0  0  0  0  0  0  0
   58.0250   32.7700   52.0470 C   0  0  0  0  0  0  0  0  0  0  0  0
   59.0790   33.6200   51.6990 C   0  0  0  0  0  0  0  0  0  0  0  0
   60.6120   34.8360   48.2340 H   0  0  0  0  0  0  0  0  0  0  0  0
   59.6338   35.8393   46.0148 H   0  0  0  0  0  0  0  0  0  0  0  0
   57.9000   35.4342   44.2706 H   0  0  0  0  0  0  0  0  0  0  0  0
   57.0193   33.1337   43.8878 H   0  0  0  0  0  0  0  0  0  0  0  0
   60.3059   30.0383   44.3844 H   0  0  0  0  0  0  0  0  0  0  0  0
   60.4363   30.3765   46.1164 H   0  0  0  0  0  0  0  0  0  0  0  0
   61.1741   27.9605   44.8847 H   0  0  0  0  0  0  0  0  0  0  0  0
   60.8256   28.1145   46.6151 H   0  0  0  0  0  0  0  0  0  0  0  0
   59.1419   26.9563   44.4128 H   0  0  0  0  0  0  0  0  0  0  0  0
   59.0905   26.5928   46.1462 H   0  0  0  0  0  0  0  0  0  0  0  0
   57.2364   28.2037   44.7574 H   0  0  0  0  0  0  0  0  0  0  0  0
   57.4413   28.2178   46.5158 H   0  0  0  0  0  0  0  0  0  0  0  0
   59.6182   31.6238   47.0062 H   0  0  0  0  0  0  0  0  0  0  0  0
   66.6881   32.3579   48.9588 H   0  0  0  0  0  0  0  0  0  0  0  0
   68.1410   32.4935   50.9873 H   0  0  0  0  0  0  0  0  0  0  0  0
   67.1988   33.3070   53.1527 H   0  0  0  0  0  0  0  0  0  0  0  0
   64.7966   33.9879   53.2977 H   0  0  0  0  0  0  0  0  0  0  0  0
   60.2618   31.9328   48.9669 H   0  0  0  0  0  0  0  0  0  0  0  0
   58.3724   30.4233   49.5872 H   0  0  0  0  0  0  0  0  0  0  0  0
   57.3967   33.0024   52.9195 H   0  0  0  0  0  0  0  0  0  0  0  0
   59.2839   34.5136   52.3069 H   0  0  0  0  0  0  0  0  0  0  0  0
  1  2  2  0
  2  3  1  0
  3  4  1  0
  4  5  2  0
  5  6  1  0
  6  7  2  0
  7  8  1  0
  8  9  1  0
  9 10  2  0
  9 11  1  0
 11 12  1  0
 12 13  1  0
 13 14  1  0
 14 15  1  0
  8 16  2  0
  2 17  1  0
 17 18  2  0
 18 19  1  0
 19 20  2  0
 20 21  1  0
 21 22  2  0
 22 23  1  0
 23 24  2  0
 24 25  1  0
 25 26  2  0
 26 27  1  0
 27 28  1  0
 28 29  2  0
 29 30  1  0
 30 31  2  0
 31 32  1  0
 31 33  1  0
 33 34  2  0
 16  4  1  0
 26 17  1  0
 34 28  1  0
 15 11  1  0
 24 19  1  0
  3 35  1  0
  5 36  1  0
  6 37  1  0
  7 38  1  0
 12 39  1  0
 12 40  1  0
 13 41  1  0
 13 42  1  0
 14 43  1  0
 14 44  1  0
 15 45  1  0
 15 46  1  0
 16 47  1  0
 20 48  1  0
 21 49  1  0
 22 50  1  0
 23 51  1  0
 29 52  1  0
 30 53  1  0
 33 54  1  0
 34 55  1  0
M  END
>  <UniqueID>  (12) 
11

>  <SMILES>  (12) 
O=C(Nc1cccc(C(=O)N2CCCC2)c1)c1nc2ccccc2nc1Oc1ccc(F)cc1

>  <Energy>  (12) 
78.62573948305575

>  <Genealogy>  (12) 
O=C(Nc1cccc(C(=O)N2CCCC2)c1)c1nc2ccccc2nc1Oc1ccc(F)cc1 (3D coordinates assigned)
O=C(Nc1cccc(C(=O)N2CCCC2)c1)c1nc2ccccc2nc1Oc1ccc(F)cc1 (nonaromatic ring conformer: 78.62573948305575 kcal/mol)

>  <smiles>  (12) 
O=C(Nc1cccc(C(=O)N2CCCC2)c1)c1nc2ccccc2nc1Oc1ccc(F)cc1

>  <score_type>  (12) 
oracle

>  <origin>  (12) 
adg

>  <m_score__min__energy>  (12) 
-9.4399999999999995

>  <m_primary>  (12) 
energy

$$$$
12:0
     RDKit          3D

 60 63  0  0  0  0  0  0  0  0999 V2000
   59.6530   36.0060   45.7140 N   0  0  0  0  0  0  0  0  0  0  0  0
   59.3890   34.8800   45.7110 C   0  0  0  0  0  0  0  0  0  0  0  0
   59.0570   33.4710   45.7070 C   0  0  0  0  0  0  0  0  0  0  0  0
   59.7600   32.5570   46.5180 C   0  0  0  0  0  0  0  0  0  0  0  0
   60.9190   32.9660   47.3470 C   0  0  0  0  0  0  0  0  0  0  0  0
   62.1580   33.2430   46.7490 C   0  0  0  0  0  0  0  0  0  0  0  0
   63.2520   33.6110   47.5330 C   0  0  0  0  0  0  0  0  0  0  0  0
   63.1240   33.6960   48.9210 C   0  0  0  0  0  0  0  0  0  0  0  0
   61.9000   33.3980   49.5410 C   0  0  0  0  0  0  0  0  0  0  0  0
   61.7570   33.4950   51.0120 C   0  0  0  0  0  0  0  0  0  0  0  0
   62.7510   33.8420   51.7080 O   0  0  0  0  0  0  0  0  0  0  0  0
   60.5180   33.1720   51.6670 N   0  0  0  0  0  0  0  0  0  0  0  0
   59.2540   33.7580   51.1980 C   0  0  0  0  0  0  0  0  0  0  0  0
   58.1200   32.7150   51.1860 C   0  0  0  0  0  0  0  0  0  0  0  0
   58.3130   31.5760   52.2200 C   0  0  0  0  0  0  0  0  0  0  0  0
   56.9530   31.0160   52.6750 C   0  0  0  0  0  0  0  0  0  0  0  0
   56.1420   30.7140   51.5710 O   0  0  0  0  0  0  0  0  0  0  0  0
   59.1530   32.0550   53.4200 C   0  0  0  0  0  0  0  0  0  0  0  0
   60.5580   32.4580   52.9510 C   0  0  0  0  0  0  0  0  0  0  0  0
   60.7970   33.0410   48.7450 C   0  0  0  0  0  0  0  0  0  0  0  0
   59.3660   31.2150   46.5230 C   0  0  0  0  0  0  0  0  0  0  0  0
   58.3240   30.7920   45.7040 C   0  0  0  0  0  0  0  0  0  0  0  0
   57.6730   31.6730   44.8850 N   0  0  0  0  0  0  0  0  0  0  0  0
   56.6660   31.1540   43.9450 C   0  0  0  0  0  0  0  0  0  0  0  0
   56.3050   29.7300   44.2710 C   0  0  0  0  0  0  0  0  0  0  0  0
   55.2550   29.4850   44.9220 O   0  0  0  0  0  0  0  0  0  0  0  0
   57.2040   28.6600   43.9600 N   0  0  0  0  0  0  0  0  0  0  0  0
   57.8330   27.8320   44.9470 C   0  0  0  0  0  0  0  0  0  0  0  0
   57.0340   27.1070   45.8400 C   0  0  0  0  0  0  0  0  0  0  0  0
   57.6240   26.3330   46.8450 C   0  0  0  0  0  0  0  0  0  0  0  0
   59.0150   26.2670   46.9530 C   0  0  0  0  0  0  0  0  0  0  0  0
   59.8200   26.9640   46.0470 C   0  0  0  0  0  0  0  0  0  0  0  0
   59.2340   27.7390   45.0420 C   0  0  0  0  0  0  0  0  0  0  0  0
   58.0090   33.0040   44.8900 C   0  0  0  0  0  0  0  0  0  0  0  0
   57.3930   33.8160   44.1440 O   0  0  0  0  0  0  0  0  0  0  0  0
   62.2672   33.1697   45.6569 H   0  0  0  0  0  0  0  0  0  0  0  0
   64.2178   33.8348   47.0565 H   0  0  0  0  0  0  0  0  0  0  0  0
   63.9872   33.9982   49.5322 H   0  0  0  0  0  0  0  0  0  0  0  0
   58.9728   34.5845   51.8672 H   0  0  0  0  0  0  0  0  0  0  0  0
   59.4013   34.1205   50.1699 H   0  0  0  0  0  0  0  0  0  0  0  0
   57.1728   33.2287   51.4073 H   0  0  0  0  0  0  0  0  0  0  0  0
   58.1207   32.2493   50.1894 H   0  0  0  0  0  0  0  0  0  0  0  0
   58.8669   30.7601   51.7326 H   0  0  0  0  0  0  0  0  0  0  0  0
   57.1185   30.1003   53.2617 H   0  0  0  0  0  0  0  0  0  0  0  0
   56.4459   31.7771   53.2862 H   0  0  0  0  0  0  0  0  0  0  0  0
   55.8150   31.5810   51.2130 H   0  0  0  0  0  0  0  0  0  0  0  0
   58.6617   32.9223   53.8853 H   0  0  0  0  0  0  0  0  0  0  0  0
   59.2374   31.2371   54.1507 H   0  0  0  0  0  0  0  0  0  0  0  0
   61.0128   33.1126   53.7090 H   0  0  0  0  0  0  0  0  0  0  0  0
   61.1506   31.5412   52.8155 H   0  0  0  0  0  0  0  0  0  0  0  0
   59.8305   32.8186   49.2207 H   0  0  0  0  0  0  0  0  0  0  0  0
   59.8803   30.4936   47.1749 H   0  0  0  0  0  0  0  0  0  0  0  0
   58.0196   29.7350   45.7153 H   0  0  0  0  0  0  0  0  0  0  0  0
   55.7617   31.7772   44.0068 H   0  0  0  0  0  0  0  0  0  0  0  0
   57.0872   31.1843   42.9293 H   0  0  0  0  0  0  0  0  0  0  0  0
   55.9383   27.1463   45.7508 H   0  0  0  0  0  0  0  0  0  0  0  0
   56.9914   25.7755   47.5513 H   0  0  0  0  0  0  0  0  0  0  0  0
   59.4770   25.6668   47.7507 H   0  0  0  0  0  0  0  0  0  0  0  0
   60.9155   26.9025   46.1251 H   0  0  0  0  0  0  0  0  0  0  0  0
   59.8695   28.2775   44.3236 H   0  0  0  0  0  0  0  0  0  0  0  0
  1  2  3  0
  2  3  1  0
  3  4  2  0
  4  5  1  0
  5  6  2  0
  6  7  1  0
  7  8  2  0
  8  9  1  0
  9 10  1  0
 10 11  2  0
 10 12  1  0
 12 13  1  0
 13 14  1  0
 14 15  1  0
 15 16  1  0
 16 17  1  0
 15 18  1  0
 18 19  1  0
  9 20  2  0
  4 21  1  0
 21 22  2  0
 22 23  1  0
 23 24  1  0
 24 25  1  0
 25 26  2  0
 25 27  1  0
 27 28  1  0
 28 29  2  0
 29 30  1  0
 30 31  2  0
 31 32  1  0
 32 33  2  0
 23 34  1  0
 34 35  2  0
 34  3  1  0
 20  5  1  0
 33 28  1  0
 19 12  1  0
  6 36  1  0
  7 37  1  0
  8 38  1  0
 13 39  1  0
 13 40  1  0
 14 41  1  0
 14 42  1  0
 15 43  1  0
 16 44  1  0
 16 45  1  0
 17 46  1  0
 18 47  1  0
 18 48  1  0
 19 49  1  0
 19 50  1  0
 20 51  1  0
 21 52  1  0
 22 53  1  0
 24 54  1  0
 24 55  1  0
 29 56  1  0
 30 57  1  0
 31 58  1  0
 32 59  1  0
 33 60  1  0
M  CHG  1  27  -1
M  END
>  <UniqueID>  (13) 
12

>  <SMILES>  (13) 
N#Cc1c(-c2cccc(C(=O)N3CCC(CO)CC3)c2)ccn(CC(=O)[N-]c2ccccc2)c1=O

>  <Energy>  (13) 
83.24978662664142

>  <Genealogy>  (13) 
N#Cc1c(-c2cccc(C(=O)N3CCC(CO)CC3)c2)ccn(CC(=O)[N-]c2ccccc2)c1=O (protonated)
N#Cc1c(-c2cccc(C(=O)N3CCC(CO)CC3)c2)ccn(CC(=O)[N-]c2ccccc2)c1=O (3D coordinates assigned)
N#Cc1c(-c2cccc(C(=O)N3CCC(CO)CC3)c2)ccn(CC(=O)[N-]c2ccccc2)c1=O (nonaromatic ring conformer: 83.24978662664142 kcal/mol)

>  <smiles>  (13) 
N#Cc1c(-c2cccc(C(=O)N3CCC(CO)CC3)c2)ccn(CC(=O)Nc2ccccc2)c1=O

>  <score_type>  (13) 
oracle

>  <origin>  (13) 
adg

>  <m_score__min__energy>  (13) 
-11.52

>  <m_primary>  (13) 
energy

$$$$
13:0
     RDKit          3D

 51 54  0  0  0  0  0  0  0  0999 V2000
   58.5230   26.4610   46.1150 O   0  0  0  0  0  0  0  0  0  0  0  0
   57.7490   26.1550   45.1680 C   0  0  0  0  0  0  0  0  0  0  0  0
   57.2890   24.7350   45.0150 C   0  0  0  0  0  0  0  0  0  0  0  0
   55.7940   24.6450   45.0640 C   0  0  0  0  0  0  0  0  0  0  0  0
   54.8800   23.3560   44.4820 S   0  0  0  0  0  0  0  0  0  0  0  0
   53.4240   24.0400   44.9870 C   0  0  0  0  0  0  0  0  0  0  0  0
   52.1320   23.4430   44.8010 N   0  0  0  0  0  0  0  0  0  0  0  0
   51.2930   23.6830   43.6420 C   0  0  0  0  0  0  0  0  0  0  0  0
   49.9760   22.9800   43.9450 C   0  0  0  0  0  0  0  0  0  0  0  0
   50.2860   21.9840   45.0610 C   0  0  0  0  0  0  0  0  0  0  0  0
   51.5460   22.5050   45.7420 C   0  0  0  0  0  0  0  0  0  0  0  0
   53.6100   25.2280   45.6040 N   0  0  0  0  0  0  0  0  0  0  0  0
   54.9270   25.5620   45.6500 C   0  0  0  0  0  0  0  0  0  0  0  0
   55.3640   26.7360   46.2490 O   0  0  0  0  0  0  0  0  0  0  0  0
   57.3800   27.1350   44.1830 N   0  0  0  0  0  0  0  0  0  0  0  0
   57.5740   28.5510   44.3490 C   0  0  0  0  0  0  0  0  0  0  0  0
   58.7400   29.0690   44.9370 C   0  0  0  0  0  0  0  0  0  0  0  0
   58.8880   30.4470   45.1160 C   0  0  0  0  0  0  0  0  0  0  0  0
   57.8780   31.3300   44.7050 C   0  0  0  0  0  0  0  0  0  0  0  0
   58.0320   32.7850   44.9160 C   0  0  0  0  0  0  0  0  0  0  0  0
   57.5330   33.5810   44.0740 O   0  0  0  0  0  0  0  0  0  0  0  0
   58.7280   33.3070   46.0590 N   0  0  0  0  0  0  0  0  0  0  0  0
   59.2490   34.6620   46.1110 C   0  0  0  0  0  0  0  0  0  0  0  0
   59.5080   34.9540   47.5850 C   0  0  0  0  0  0  0  0  0  0  0  0
   59.4740   33.6030   48.2930 C   0  0  0  0  0  0  0  0  0  0  0  0
   58.7160   32.6630   47.3650 C   0  0  0  0  0  0  0  0  0  0  0  0
   56.7010   30.8110   44.1490 C   0  0  0  0  0  0  0  0  0  0  0  0
   56.5500   29.4320   43.9750 C   0  0  0  0  0  0  0  0  0  0  0  0
   57.6411   24.3453   44.0485 H   0  0  0  0  0  0  0  0  0  0  0  0
   57.7025   24.1421   45.8441 H   0  0  0  0  0  0  0  0  0  0  0  0
   51.1302   24.7617   43.5012 H   0  0  0  0  0  0  0  0  0  0  0  0
   51.7547   23.3069   42.7172 H   0  0  0  0  0  0  0  0  0  0  0  0
   49.2211   23.7071   44.2787 H   0  0  0  0  0  0  0  0  0  0  0  0
   49.5695   22.4782   43.0545 H   0  0  0  0  0  0  0  0  0  0  0  0
   49.4529   21.9401   45.7780 H   0  0  0  0  0  0  0  0  0  0  0  0
   50.4284   20.9664   44.6684 H   0  0  0  0  0  0  0  0  0  0  0  0
   51.2925   23.0127   46.6844 H   0  0  0  0  0  0  0  0  0  0  0  0
   52.2411   21.6909   45.9952 H   0  0  0  0  0  0  0  0  0  0  0  0
   57.0220   26.7930   43.2650 H   0  0  0  0  0  0  0  0  0  0  0  0
   59.5406   28.3864   45.2581 H   0  0  0  0  0  0  0  0  0  0  0  0
   59.8026   30.8422   45.5823 H   0  0  0  0  0  0  0  0  0  0  0  0
   60.1842   34.7346   45.5365 H   0  0  0  0  0  0  0  0  0  0  0  0
   58.5425   35.3833   45.6745 H   0  0  0  0  0  0  0  0  0  0  0  0
   60.4921   35.4284   47.7136 H   0  0  0  0  0  0  0  0  0  0  0  0
   58.7572   35.6442   47.9972 H   0  0  0  0  0  0  0  0  0  0  0  0
   60.4963   33.2331   48.4602 H   0  0  0  0  0  0  0  0  0  0  0  0
   58.9889   33.6757   49.2776 H   0  0  0  0  0  0  0  0  0  0  0  0
   59.2178   31.6854   47.3155 H   0  0  0  0  0  0  0  0  0  0  0  0
   57.6907   32.4811   47.7194 H   0  0  0  0  0  0  0  0  0  0  0  0
   55.8916   31.4923   43.8478 H   0  0  0  0  0  0  0  0  0  0  0  0
   55.6202   29.0353   43.5412 H   0  0  0  0  0  0  0  0  0  0  0  0
  1  2  2  0
  2  3  1  0
  3  4  1  0
  4  5  1  0
  5  6  1  0
  6  7  1  0
  7  8  1  0
  8  9  1  0
  9 10  1  0
 10 11  1  0
  6 12  2  0
 12 13  1  0
 13 14  1  0
  2 15  1  0
 15 16  1  0
 16 17  2  0
 17 18  1  0
 18 19  2  0
 19 20  1  0
 20 21  2  0
 20 22  1  0
 22 23  1  0
 23 24  1  0
 24 25  1  0
 25 26  1  0
 19 27  1  0
 27 28  2  0
 13  4  2  0
 28 16  1  0
 11  7  1  0
 26 22  1  0
  3 29  1  0
  3 30  1  0
  8 31  1  0
  8 32  1  0
  9 33  1  0
  9 34  1  0
 10 35  1  0
 10 36  1  0
 11 37  1  0
 11 38  1  0
 15 39  1  0
 17 40  1  0
 18 41  1  0
 23 42  1  0
 23 43  1  0
 24 44  1  0
 24 45  1  0
 25 46  1  0
 25 47  1  0
 26 48  1  0
 26 49  1  0
 27 50  1  0
 28 51  1  0
M  CHG  1  14  -1
M  END
>  <UniqueID>  (14) 
13

>  <SMILES>  (14) 
O=C(Cc1sc(N2CCCC2)nc1[O-])Nc1ccc(C(=O)N2CCCC2)cc1

>  <Energy>  (14) 
87.92115182370557

>  <Genealogy>  (14) 
O=C(Cc1sc(N2CCCC2)nc1[O-])Nc1ccc(C(=O)N2CCCC2)cc1 (protonated)
O=C(Cc1sc(N2CCCC2)nc1[O-])Nc1ccc(C(=O)N2CCCC2)cc1 (3D coordinates assigned)
O=C(Cc1sc(N2CCCC2)nc1[O-])Nc1ccc(C(=O)N2CCCC2)cc1 (nonaromatic ring conformer: 87.92115182370557 kcal/mol)

>  <smiles>  (14) 
O=C(Cc1sc(N2CCCC2)nc1O)Nc1ccc(C(=O)N2CCCC2)cc1

>  <score_type>  (14) 
oracle

>  <origin>  (14) 
adg

>  <m_score__min__energy>  (14) 
-12.07

>  <m_primary>  (14) 
energy

$$$$
14:0
     RDKit          3D

 64 67  0  0  1  0  0  0  0  0999 V2000
   57.0140   28.8470   43.0640 N   0  0  0  0  0  0  0  0  0  0  0  0
   56.4450   29.4250   44.2480 C   0  0  0  0  0  0  0  0  0  0  0  0
   55.2000   29.3240   44.3790 O   0  0  0  0  0  0  0  0  0  0  0  0
   57.3050   30.0810   45.2160 C   0  0  0  0  0  0  0  0  0  0  0  0
   58.0300   29.3160   46.1030 C   0  0  0  0  0  0  0  0  0  0  0  0
   58.8410   29.9740   47.0130 C   0  0  0  0  0  0  0  0  0  0  0  0
   59.5360   29.2590   47.8630 N   0  0  0  0  0  0  0  0  0  0  0  0
   60.3430   29.9100   48.8390 C   0  0  0  0  0  0  0  0  0  0  0  0
   61.3320   30.6080   48.4800 O   0  0  0  0  0  0  0  0  0  0  0  0
   59.9580   29.7200   50.2620 C   0  0  0  0  0  0  0  0  0  0  0  0
   59.4990   30.9850   50.8820 C   0  0  0  0  0  0  0  0  0  0  0  0
   60.3840   31.9000   51.4220 C   0  0  0  0  0  0  0  0  0  0  0  0
   59.9790   33.0740   51.9990 C   0  0  0  0  0  0  0  0  0  0  0  0
   58.6240   33.3500   52.0410 C   0  0  0  0  0  0  0  0  0  0  0  0
   58.1930   34.5320   52.6200 O   0  0  0  0  0  0  0  0  0  0  0  0
   57.7200   32.4550   51.5100 C   0  0  0  0  0  0  0  0  0  0  0  0
   58.1530   31.2810   50.9340 C   0  0  0  0  0  0  0  0  0  0  0  0
   58.9070   31.3160   47.0180 N   0  0  0  0  0  0  0  0  0  0  0  0
   58.1800   32.0540   46.1290 C   0  0  0  0  0  0  0  0  0  0  0  0
   58.3140   33.4160   46.2120 O   0  0  0  0  0  0  0  0  0  0  0  0
   58.5420   34.0560   47.4450 C   0  0  0  0  0  0  0  0  0  0  0  0
   59.9290   34.5560   47.6560 C   0  0  0  0  0  0  0  0  0  0  0  0
   60.7440   34.5940   46.3830 C   0  0  0  0  0  0  0  0  0  0  0  0
   61.8860   33.6020   46.4160 C   0  0  0  0  0  0  0  0  0  0  0  0
   62.7070   33.7260   47.5740 N   0  0  0  0  0  0  0  0  0  0  0  0
   63.3940   32.4860   47.8130 C   0  0  0  0  0  0  0  0  0  0  0  0
   63.9850   32.3420   49.1420 C   0  0  0  0  0  0  0  0  0  0  0  0
   65.1290   33.0990   49.4180 C   0  0  0  0  0  0  0  0  0  0  0  0
   65.7710   33.0500   50.6270 C   0  0  0  0  0  0  0  0  0  0  0  0
   65.2670   32.2200   51.6080 C   0  0  0  0  0  0  0  0  0  0  0  0
   64.1350   31.4470   51.3830 C   0  0  0  0  0  0  0  0  0  0  0  0
   63.5320   31.5390   50.1460 C   0  0  0  0  0  0  0  0  0  0  0  0
   62.0390   34.1520   48.7630 C   0  0  0  0  0  0  0  0  0  0  0  0
   60.6130   33.7110   48.7220 C   0  0  0  0  0  0  0  0  0  0  0  0
   57.3990   31.4020   45.2530 N   0  0  0  0  0  0  0  0  0  0  0  0
   56.7090   27.8560   42.8560 H   0  0  0  0  0  0  0  0  0  0  0  0
   57.6680   29.3840   42.4810 H   0  0  0  0  0  0  0  0  0  0  0  0
   57.9669   28.2179   46.0891 H   0  0  0  0  0  0  0  0  0  0  0  0
   59.1442   28.9818   50.3151 H   0  0  0  0  0  0  0  0  0  0  0  0
   60.8445   29.3718   50.8123 H   0  0  0  0  0  0  0  0  0  0  0  0
   61.4602   31.6751   51.3865 H   0  0  0  0  0  0  0  0  0  0  0  0
   60.7119   33.7792   52.4181 H   0  0  0  0  0  0  0  0  0  0  0  0
   58.0590   35.4030   52.1210 H   0  0  0  0  0  0  0  0  0  0  0  0
   56.6439   32.6802   51.5465 H   0  0  0  0  0  0  0  0  0  0  0  0
   57.4212   30.5757   50.5132 H   0  0  0  0  0  0  0  0  0  0  0  0
   59.5340   31.7740   47.7250 H   0  0  0  0  0  0  0  0  0  0  0  0
   57.8573   34.9141   47.5142 H   0  0  0  0  0  0  0  0  0  0  0  0
   58.3726   33.2933   48.2194 H   0  0  0  0  0  0  0  0  0  0  0  0
   59.8603   35.5993   47.9977 H   0  0  0  0  0  0  0  0  0  0  0  0
   60.0882   34.3535   45.5333 H   0  0  0  0  0  0  0  0  0  0  0  0
   61.1707   35.6027   46.2807 H   0  0  0  0  0  0  0  0  0  0  0  0
   61.4663   32.5855   46.3928 H   0  0  0  0  0  0  0  0  0  0  0  0
   62.5218   33.8079   45.5423 H   0  0  0  0  0  0  0  0  0  0  0  0
   62.6740   31.6665   47.6713 H   0  0  0  0  0  0  0  0  0  0  0  0
   64.2346   32.4640   47.1038 H   0  0  0  0  0  0  0  0  0  0  0  0
   65.5282   33.7590   48.6337 H   0  0  0  0  0  0  0  0  0  0  0  0
   66.6684   33.6586   50.8120 H   0  0  0  0  0  0  0  0  0  0  0  0
   65.7704   32.1698   52.5848 H   0  0  0  0  0  0  0  0  0  0  0  0
   63.7335   30.7846   52.1641 H   0  0  0  0  0  0  0  0  0  0  0  0
   62.6351   30.9302   49.9591 H   0  0  0  0  0  0  0  0  0  0  0  0
   62.5341   33.7090   49.6397 H   0  0  0  0  0  0  0  0  0  0  0  0
   62.0802   35.2491   48.8319 H   0  0  0  0  0  0  0  0  0  0  0  0
   60.5525   32.6448   48.4583 H   0  0  0  0  0  0  0  0  0  0  0  0
   60.1291   33.8387   49.7015 H   0  0  0  0  0  0  0  0  0  0  0  0
  1  2  1  0
  2  3  2  0
  2  4  1  0
  4  5  2  0
  5  6  1  0
  6  7  2  0
  7  8  1  0
  8  9  2  0
  8 10  1  0
 10 11  1  0
 11 12  2  0
 12 13  1  0
 13 14  2  0
 14 15  1  0
 14 16  1  0
 16 17  2  0
  6 18  1  0
 18 19  1  0
 19 20  1  0
 20 21  1  0
 21 22  1  0
 22 23  1  0
 23 24  1  0
 24 25  1  0
 25 26  1  0
 26 27  1  0
 27 28  2  0
 28 29  1  0
 29 30  2  0
 30 31  1  0
 31 32  2  0
 25 33  1  0
 33 34  1  0
 19 35  2  0
 35  4  1  0
 17 11  1  0
 34 22  1  0
 32 27  1  0
  1 36  1  0
  1 37  1  0
  5 38  1  0
 10 39  1  0
 10 40  1  0
 12 41  1  0
 13 42  1  0
 15 43  1  0
 16 44  1  0
 17 45  1  0
 18 46  1  0
 21 47  1  0
 21 48  1  0
 22 49  1  0
 23 50  1  0
 23 51  1  0
 24 52  1  0
 24 53  1  0
 26 54  1  0
 26 55  1  0
 28 56  1  0
 29 57  1  0
 30 58  1  0
 31 59  1  0
 32 60  1  0
 33 61  1  0
 33 62  1  0
 34 63  1  0
 34 64  1  0
M  END
>  <smiles>  (15) 
NC(=O)c1cc(=NC(=O)Cc2ccc(O)cc2)[nH]c(OCC2CCN(Cc3ccccc3)CC2)n1

>  <score_type>  (15) 
oracle

>  <origin>  (15) 
adg

>  <m_score__min__energy>  (15) 
-10.390000000000001

>  <m_primary>  (15) 
energy

$$$$
15:0
     RDKit          3D

 38 39  0  0  0  0  0  0  0  0999 V2000
   62.5030   33.4690   46.7920 C   0  0  0  0  0  0  0  0  0  0  0  0
   61.1970   33.4200   47.5180 C   0  0  0  0  0  0  0  0  0  0  0  0
   61.1980   33.4670   48.7770 O   0  0  0  0  0  0  0  0  0  0  0  0
   59.9230   33.3440   46.7720 C   0  0  0  0  0  0  0  0  0  0  0  0
   59.0000   31.9440   46.5880 S   0  0  0  0  0  0  0  0  0  0  0  0
   57.8080   32.7150   45.6800 C   0  0  0  0  0  0  0  0  0  0  0  0
   56.7520   32.1630   45.1570 N   0  0  0  0  0  0  0  0  0  0  0  0
   56.7020   31.2410   44.0580 C   0  0  0  0  0  0  0  0  0  0  0  0
   57.4120   31.4690   43.0430 O   0  0  0  0  0  0  0  0  0  0  0  0
   55.7620   30.0730   44.0320 C   0  0  0  0  0  0  0  0  0  0  0  0
   55.9870   29.2350   45.2020 N   0  0  0  0  0  0  0  0  0  0  0  0
   57.0520   28.2840   45.2750 C   0  0  0  0  0  0  0  0  0  0  0  0
   57.9450   28.2550   44.3850 O   0  0  0  0  0  0  0  0  0  0  0  0
   57.0880   27.2980   46.3980 C   0  0  0  0  0  0  0  0  0  0  0  0
   56.7870   25.9120   45.8880 C   0  0  0  0  0  0  0  0  0  0  0  0
   57.8400   25.0220   45.6230 C   0  0  0  0  0  0  0  0  0  0  0  0
   57.5740   23.7350   45.1450 C   0  0  0  0  0  0  0  0  0  0  0  0
   56.2550   23.3230   44.9420 C   0  0  0  0  0  0  0  0  0  0  0  0
   55.1990   24.1920   45.2280 C   0  0  0  0  0  0  0  0  0  0  0  0
   55.4570   25.4820   45.7030 C   0  0  0  0  0  0  0  0  0  0  0  0
   54.3910   26.3290   45.9860 O   0  0  0  0  0  0  0  0  0  0  0  0
   58.1000   34.0170   45.4860 N   0  0  0  0  0  0  0  0  0  0  0  0
   59.2650   34.3810   46.0910 C   0  0  0  0  0  0  0  0  0  0  0  0
   59.7660   35.7880   46.0020 C   0  0  0  0  0  0  0  0  0  0  0  0
   63.3266   33.4999   47.5205 H   0  0  0  0  0  0  0  0  0  0  0  0
   62.6053   32.5741   46.1606 H   0  0  0  0  0  0  0  0  0  0  0  0
   62.5380   34.3691   46.1606 H   0  0  0  0  0  0  0  0  0  0  0  0
   54.7245   30.4385   44.0382 H   0  0  0  0  0  0  0  0  0  0  0  0
   55.9404   29.4823   43.1214 H   0  0  0  0  0  0  0  0  0  0  0  0
   58.0879   27.3066   46.8564 H   0  0  0  0  0  0  0  0  0  0  0  0
   56.3289   27.5773   47.1435 H   0  0  0  0  0  0  0  0  0  0  0  0
   58.8797   25.3387   45.7923 H   0  0  0  0  0  0  0  0  0  0  0  0
   58.4042   23.0466   44.9287 H   0  0  0  0  0  0  0  0  0  0  0  0
   56.0475   22.3138   44.5567 H   0  0  0  0  0  0  0  0  0  0  0  0
   54.1608   23.8604   45.0790 H   0  0  0  0  0  0  0  0  0  0  0  0
   59.9095   36.1909   47.0154 H   0  0  0  0  0  0  0  0  0  0  0  0
   60.7245   35.8025   45.4626 H   0  0  0  0  0  0  0  0  0  0  0  0
   59.0323   36.4050   45.4626 H   0  0  0  0  0  0  0  0  0  0  0  0
  1  2  1  0
  2  3  2  0
  2  4  1  0
  4  5  1  0
  5  6  1  0
  6  7  2  3
  7  8  1  0
  8  9  2  0
  8 10  1  0
 10 11  1  0
 11 12  1  0
 12 13  2  0
 12 14  1  0
 14 15  1  0
 15 16  2  0
 16 17  1  0
 17 18  2  0
 18 19  1  0
 19 20  2  0
 20 21  1  0
  6 22  1  0
 22 23  1  0
 23 24  1  0
 23  4  2  0
 20 15  1  0
  1 25  1  0
  1 26  1  0
  1 27  1  0
 10 28  1  0
 10 29  1  0
 14 30  1  0
 14 31  1  0
 16 32  1  0
 17 33  1  0
 18 34  1  0
 19 35  1  0
 24 36  1  0
 24 37  1  0
 24 38  1  0
M  CHG  3  11  -1  21  -1  22  -1
M  END
>  <UniqueID>  (16) 
14

>  <SMILES>  (16) 
CC(=O)c1sc(=NC(=O)C[N-]C(=O)Cc2ccccc2[O-])[n-]c1C

>  <Energy>  (16) 
65.76282973765736

>  <Genealogy>  (16) 
CC(=O)c1sc(=NC(=O)C[N-]C(=O)Cc2ccccc2[O-])[n-]c1C (protonated)
CC(=O)c1sc(=NC(=O)C[N-]C(=O)Cc2ccccc2[O-])[n-]c1C (3D coordinates assigned)
CC(=O)c1sc(=NC(=O)C[N-]C(=O)Cc2ccccc2[O-])[n-]c1C (optimized conformer: 65.76282973765736 kcal/mol)

>  <smiles>  (16) 
CC(=O)c1sc(=NC(=O)CNC(=O)Cc2ccccc2O)[nH]c1C

>  <score_type>  (16) 
oracle

>  <origin>  (16) 
adg

>  <m_score__min__energy>  (16) 
-14.26

>  <m_primary>  (16) 
energy

$$$$
16:0
     RDKit          3D

 54 56  0  0  0  0  0  0  0  0999 V2000
   57.0270   29.1140   43.3630 C   0  0  0  0  0  0  0  0  0  0  0  0
   56.2600   30.4360   43.3530 C   0  0  0  0  0  0  0  0  0  0  0  0
   57.1470   31.5450   43.5370 O   0  0  0  0  0  0  0  0  0  0  0  0
   57.7740   31.8960   44.7460 C   0  0  0  0  0  0  0  0  0  0  0  0
   58.8260   31.1420   45.3150 C   0  0  0  0  0  0  0  0  0  0  0  0
   59.4070   31.5410   46.5230 C   0  0  0  0  0  0  0  0  0  0  0  0
   58.9460   32.6920   47.1810 C   0  0  0  0  0  0  0  0  0  0  0  0
   59.6700   33.1670   48.7160 S   0  0  0  0  0  0  0  0  0  0  0  0
   59.4750   34.6420   48.9540 O   0  0  0  0  0  0  0  0  0  0  0  0
   61.1470   32.8800   48.6620 O   0  0  0  0  0  0  0  0  0  0  0  0
   58.9870   32.3010   50.0240 O   0  0  0  0  0  0  0  0  0  0  0  0
   59.0000   32.7650   51.3450 C   0  0  0  0  0  0  0  0  0  0  0  0
   59.9290   33.7320   51.7690 C   0  0  0  0  0  0  0  0  0  0  0  0
   59.9120   34.1930   53.0880 C   0  0  0  0  0  0  0  0  0  0  0  0
   58.9720   33.6920   53.9970 C   0  0  0  0  0  0  0  0  0  0  0  0
   58.0450   32.7280   53.5900 C   0  0  0  0  0  0  0  0  0  0  0  0
   58.0420   32.2660   52.2620 C   0  0  0  0  0  0  0  0  0  0  0  0
   57.0770   31.1860   51.8450 C   0  0  0  0  0  0  0  0  0  0  0  0
   57.4550   29.8670   52.4720 C   0  0  0  0  0  0  0  0  0  0  0  0
   58.6360   29.7030   52.8900 O   0  0  0  0  0  0  0  0  0  0  0  0
   56.5150   28.7920   52.6240 N   0  0  0  0  0  0  0  0  0  0  0  0
   55.3220   28.8020   53.4690 C   0  0  0  0  0  0  0  0  0  0  0  0
   54.2720   29.7150   52.8940 C   0  0  0  0  0  0  0  0  0  0  0  0
   53.3020   30.2910   53.7320 C   0  0  0  0  0  0  0  0  0  0  0  0
   52.3240   31.1420   53.2070 C   0  0  0  0  0  0  0  0  0  0  0  0
   52.2920   31.4260   51.8300 C   0  0  0  0  0  0  0  0  0  0  0  0
   51.2780   32.3450   51.2710 C   0  0  0  0  0  0  0  0  0  0  0  0
   50.6440   33.1310   52.0220 O   0  0  0  0  0  0  0  0  0  0  0  0
   51.0210   32.3620   49.9050 O   0  0  0  0  0  0  0  0  0  0  0  0
   53.2520   30.8310   50.9900 C   0  0  0  0  0  0  0  0  0  0  0  0
   54.2320   29.9820   51.5170 C   0  0  0  0  0  0  0  0  0  0  0  0
   57.9000   33.4420   46.6200 C   0  0  0  0  0  0  0  0  0  0  0  0
   57.3200   33.0440   45.4120 C   0  0  0  0  0  0  0  0  0  0  0  0
   57.2076   28.8027   44.4025 H   0  0  0  0  0  0  0  0  0  0  0  0
   56.4358   28.3432   42.8469 H   0  0  0  0  0  0  0  0  0  0  0  0
   57.9896   29.2446   42.8469 H   0  0  0  0  0  0  0  0  0  0  0  0
   55.7433   30.5449   42.3880 H   0  0  0  0  0  0  0  0  0  0  0  0
   55.5344   30.4266   44.1797 H   0  0  0  0  0  0  0  0  0  0  0  0
   59.1892   30.2374   44.8053 H   0  0  0  0  0  0  0  0  0  0  0  0
   60.2272   30.9514   46.9585 H   0  0  0  0  0  0  0  0  0  0  0  0
   60.6715   34.1268   51.0599 H   0  0  0  0  0  0  0  0  0  0  0  0
   60.6391   34.9516   53.4132 H   0  0  0  0  0  0  0  0  0  0  0  0
   58.9630   34.0580   55.0343 H   0  0  0  0  0  0  0  0  0  0  0  0
   57.3158   32.3297   54.3108 H   0  0  0  0  0  0  0  0  0  0  0  0
   56.0626   31.4627   52.1683 H   0  0  0  0  0  0  0  0  0  0  0  0
   57.1117   31.0819   50.7505 H   0  0  0  0  0  0  0  0  0  0  0  0
   54.9169   27.7814   53.5344 H   0  0  0  0  0  0  0  0  0  0  0  0
   55.5993   29.1666   54.4691 H   0  0  0  0  0  0  0  0  0  0  0  0
   53.3120   30.0708   54.8097 H   0  0  0  0  0  0  0  0  0  0  0  0
   51.5751   31.5920   53.8754 H   0  0  0  0  0  0  0  0  0  0  0  0
   53.2318   31.0352   49.9093 H   0  0  0  0  0  0  0  0  0  0  0  0
   54.9745   29.5218   50.8485 H   0  0  0  0  0  0  0  0  0  0  0  0
   57.5361   34.3449   47.1322 H   0  0  0  0  0  0  0  0  0  0  0  0
   56.5001   33.6364   44.9798 H   0  0  0  0  0  0  0  0  0  0  0  0
  1  2  1  0
  2  3  1  0
  3  4  1  0
  4  5  2  0
  5  6  1  0
  6  7  2  0
  7  8  1  0
  8  9  2  0
  8 10  2  0
  8 11  1  0
 11 12  1  0
 12 13  2  0
 13 14  1  0
 14 15  2  0
 15 16  1  0
 16 17  2  0
 17 18  1  0
 18 19  1  0
 19 20  2  0
 19 21  1  0
 21 22  1  0
 22 23  1  0
 23 24  2  0
 24 25  1  0
 25 26  2  0
 26 27  1  0
 27 28  2  0
 27 29  1  0
 26 30  1  0
 30 31  2  0
  7 32  1  0
 32 33  2  0
 33  4  1  0
 17 12  1  0
 31 23  1  0
  1 34  1  0
  1 35  1  0
  1 36  1  0
  2 37  1  0
  2 38  1  0
  5 39  1  0
  6 40  1  0
 13 41  1  0
 14 42  1  0
 15 43  1  0
 16 44  1  0
 18 45  1  0
 18 46  1  0
 22 47  1  0
 22 48  1  0
 24 49  1  0
 25 50  1  0
 30 51  1  0
 31 52  1  0
 32 53  1  0
 33 54  1  0
M  CHG  2  21  -1  29  -1
M  END
>  <UniqueID>  (17) 
15

>  <SMILES>  (17) 
CCOc1ccc(S(=O)(=O)Oc2ccccc2CC(=O)[N-]Cc2ccc(C(=O)[O-])cc2)cc1

>  <Energy>  (17) 
56.217727601306756

>  <Genealogy>  (17) 
CCOc1ccc(S(=O)(=O)Oc2ccccc2CC(=O)[N-]Cc2ccc(C(=O)[O-])cc2)cc1 (protonated)
CCOc1ccc(S(=O)(=O)Oc2ccccc2CC(=O)[N-]Cc2ccc(C(=O)[O-])cc2)cc1 (3D coordinates assigned)
CCOc1ccc(S(=O)(=O)Oc2ccccc2CC(=O)[N-]Cc2ccc(C(=O)[O-])cc2)cc1 (optimized conformer: 56.217727601306756 kcal/mol)

>  <smiles>  (17) 
CCOc1ccc(S(=O)(=O)Oc2ccccc2CC(=O)NCc2ccc(C(=O)O)cc2)cc1

>  <score_type>  (17) 
oracle

>  <origin>  (17) 
adg

>  <m_score__min__energy>  (17) 
-13.050000000000001

>  <m_primary>  (17) 
energy

$$$$
17:0
     RDKit          3D

 59 63  0  0  0  0  0  0  0  0999 V2000
   50.6260   32.3380   50.3790 H   0  0  0  0  0  0  0  0  0  0  0  0
   51.3490   32.2310   51.1260 N   0  0  0  0  0  0  0  0  0  0  0  0
   51.6200   30.5370   51.3310 S   0  0  0  0  0  0  0  0  0  0  0  0
   50.6440   29.9840   52.3310 O   0  0  0  0  0  0  0  0  0  0  0  0
   51.4170   29.8430   50.0130 O   0  0  0  0  0  0  0  0  0  0  0  0
   53.2590   30.2790   51.9170 C   0  0  0  0  0  0  0  0  0  0  0  0
   53.5850   29.1370   52.6590 C   0  0  0  0  0  0  0  0  0  0  0  0
   52.8082   28.3930   52.8892 H   0  0  0  0  0  0  0  0  0  0  0  0
   54.8930   28.9390   53.1080 C   0  0  0  0  0  0  0  0  0  0  0  0
   55.1404   28.0385   53.6893 H   0  0  0  0  0  0  0  0  0  0  0  0
   55.8960   29.8830   52.8220 C   0  0  0  0  0  0  0  0  0  0  0  0
   57.3270   29.6440   53.2350 C   0  0  0  0  0  0  0  0  0  0  0  0
   57.7865   30.6052   53.5086 H   0  0  0  0  0  0  0  0  0  0  0  0
   57.3310   28.9536   54.0913 H   0  0  0  0  0  0  0  0  0  0  0  0
   58.0980   29.0390   52.1500 N   0  0  0  0  0  0  0  0  0  0  0  0
   58.5620   29.6710   51.1110 C   0  0  0  0  0  0  0  0  0  0  0  0
   59.2950   28.9920   50.1960 N   0  0  0  0  0  0  0  0  0  0  0  0
   59.8000   29.6300   49.1060 C   0  0  0  0  0  0  0  0  0  0  0  0
   60.4950   28.9860   48.2170 N   0  0  0  0  0  0  0  0  0  0  0  0
   59.6160   33.9420   49.2900 C   0  0  0  0  0  0  0  0  0  0  0  0
   59.2012   34.8863   49.6725 H   0  0  0  0  0  0  0  0  0  0  0  0
   61.0000   33.6730   49.9290 C   0  0  0  0  0  0  0  0  0  0  0  0
   61.2714   34.4768   50.6291 H   0  0  0  0  0  0  0  0  0  0  0  0
   61.0249   32.7421   50.5145 H   0  0  0  0  0  0  0  0  0  0  0  0
   61.9240   33.6470   48.7710 C   0  0  0  0  0  0  0  0  0  0  0  0
   63.3040   33.4340   48.8140 C   0  0  0  0  0  0  0  0  0  0  0  0
   63.8178   33.2810   49.7745 H   0  0  0  0  0  0  0  0  0  0  0  0
   64.0220   33.4190   47.6090 C   0  0  0  0  0  0  0  0  0  0  0  0
   65.1077   33.2426   47.6193 H   0  0  0  0  0  0  0  0  0  0  0  0
   63.3570   33.6290   46.3880 C   0  0  0  0  0  0  0  0  0  0  0  0
   63.9239   33.6177   45.4454 H   0  0  0  0  0  0  0  0  0  0  0  0
   61.9720   33.8530   46.3690 C   0  0  0  0  0  0  0  0  0  0  0  0
   61.4457   34.0255   45.4186 H   0  0  0  0  0  0  0  0  0  0  0  0
   61.2740   33.8530   47.5780 C   0  0  0  0  0  0  0  0  0  0  0  0
   59.8160   34.0520   47.7570 C   0  0  0  0  0  0  0  0  0  0  0  0
   59.5074   35.0424   47.3912 H   0  0  0  0  0  0  0  0  0  0  0  0
   59.2139   33.3228   47.1950 H   0  0  0  0  0  0  0  0  0  0  0  0
   59.5730   30.9570   48.9430 N   0  0  0  0  0  0  0  0  0  0  0  0
   58.8380   31.6480   49.8500 C   0  0  0  0  0  0  0  0  0  0  0  0
   58.6270   32.9190   49.6620 N   0  0  0  0  0  0  0  0  0  0  0  0
   60.4820   29.2720   46.7820 C   0  0  0  0  0  0  0  0  0  0  0  0
   60.8766   30.2846   46.6117 H   0  0  0  0  0  0  0  0  0  0  0  0
   61.1072   28.5280   46.2667 H   0  0  0  0  0  0  0  0  0  0  0  0
   59.0800   29.1890   46.2370 C   0  0  0  0  0  0  0  0  0  0  0  0
   58.4950   30.3130   45.6320 C   0  0  0  0  0  0  0  0  0  0  0  0
   59.0690   31.2469   45.5408 H   0  0  0  0  0  0  0  0  0  0  0  0
   57.1860   30.2500   45.1450 C   0  0  0  0  0  0  0  0  0  0  0  0
   56.7334   31.1330   44.6701 H   0  0  0  0  0  0  0  0  0  0  0  0
   56.4510   29.0650   45.2610 C   0  0  0  0  0  0  0  0  0  0  0  0
   55.1490   29.0040   44.7780 O   0  0  0  0  0  0  0  0  0  0  0  0
   57.0270   27.9430   45.8640 C   0  0  0  0  0  0  0  0  0  0  0  0
   56.4494   27.0112   45.9547 H   0  0  0  0  0  0  0  0  0  0  0  0
   58.3360   28.0030   46.3520 C   0  0  0  0  0  0  0  0  0  0  0  0
   58.7847   27.1184   46.8276 H   0  0  0  0  0  0  0  0  0  0  0  0
   58.3320   31.0010   50.9340 N   0  0  0  0  0  0  0  0  0  0  0  0
   55.5640   31.0250   52.0730 C   0  0  0  0  0  0  0  0  0  0  0  0
   56.3401   31.7671   51.8343 H   0  0  0  0  0  0  0  0  0  0  0  0
   54.2540   31.2230   51.6300 C   0  0  0  0  0  0  0  0  0  0  0  0
   54.0022   32.1249   51.0527 H   0  0  0  0  0  0  0  0  0  0  0  0
  1  2  1  0
  2  3  1  0
  3  4  2  0
  3  5  2  0
  3  6  1  0
  6  7  2  0
  7  8  1  0
  7  9  1  0
  9 10  1  0
  9 11  2  0
 11 12  1  0
 12 13  1  0
 12 14  1  0
 12 15  1  0
 15 16  2  3
 16 17  1  0
 17 18  1  0
 18 19  2  0
 19 20  1  0
 20 21  1  0
 20 22  1  0
 22 23  1  0
 22 24  1  0
 22 25  1  0
 25 26  2  0
 26 27  1  0
 26 28  1  0
 28 29  1  0
 28 30  2  0
 30 31  1  0
 30 32  1  0
 32 33  1  0
 32 34  2  0
 34 35  1  0
 35 36  1  0
 35 37  1  0
 18 38  1  0
 38 39  1  0
 39 40  2  0
 40 41  1  0
 41 42  1  0
 41 43  1  0
 41 44  1  0
 44 45  2  0
 45 46  1  0
 45 47  1  0
 47 48  1  0
 47 49  2  0
 49 50  1  0
 49 51  1  0
 51 52  1  0
 51 53  2  0
 53 54  1  0
 39 55  1  0
 11 56  1  0
 56 57  1  0
 56 58  2  0
 58 59  1  0
 58  6  1  0
 55 16  1  0
 35 20  1  0
 53 44  1  0
 34 25  1  0
M  CHG  5   2  -1  17  -1  38  -1  50  -1  55  -1
M  END
>  <UniqueID>  (18) 
16

>  <SMILES>  (18) 
[NH-]S(=O)(=O)c1ccc(CN=c2[n-]/c(=N\C3Cc4ccccc4C3)[n-]/c(=N/Cc3ccc([O-])cc3)[n-]2)cc1

>  <Energy>  (18) 
70.29177125931875

>  <Genealogy>  (18) 
[NH-]S(=O)(=O)c1ccc(CN=c2[n-]c(=NCc3ccc([O-])cc3)[n-]c(=NC3Cc4ccccc4C3)[n-]2)cc1 (protonated)
[NH-]S(=O)(=O)c1ccc(CN=c2[n-]/c(=N\C3Cc4ccccc4C3)[n-]/c(=N/Cc3ccc([O-])cc3)[n-]2)cc1 (cis-trans isomerization)
[NH-]S(=O)(=O)c1ccc(CN=c2[n-]/c(=N\C3Cc4ccccc4C3)[n-]/c(=N/Cc3ccc([O-])cc3)[n-]2)cc1 (3D coordinates assigned)
[NH-]S(=O)(=O)c1ccc(CN=c2[n-]/c(=N\C3Cc4ccccc4C3)[n-]/c(=N/Cc3ccc([O-])cc3)[n-]2)cc1 (nonaromatic ring conformer: 70.29177125931875 kcal/mol)

>  <smiles>  (18) 
NS(=O)(=O)c1ccc(CN=c2[nH]c(=NCc3ccc(O)cc3)[nH]c(=NC3Cc4ccccc4C3)[nH]2)cc1

>  <score_type>  (18) 
oracle

>  <origin>  (18) 
adg

>  <m_score__min__energy>  (18) 
-21.030000000000001

>  <m_primary>  (18) 
energy

$$$$
18:0
     RDKit          3D

 49 52  0  0  0  0  0  0  0  0999 V2000
   60.6066   30.1051   52.3043 H   0  0  0  0  0  0  0  0  0  0  0  0
   60.2190   29.9540   51.2860 C   0  0  0  0  0  0  0  0  0  0  0  0
   60.5550   28.7990   50.5750 C   0  0  0  0  0  0  0  0  0  0  0  0
   61.2097   28.0430   51.0330 H   0  0  0  0  0  0  0  0  0  0  0  0
   60.0600   28.6030   49.2820 C   0  0  0  0  0  0  0  0  0  0  0  0
   60.3221   27.6895   48.7281 H   0  0  0  0  0  0  0  0  0  0  0  0
   59.2280   29.5690   48.6860 C   0  0  0  0  0  0  0  0  0  0  0  0
   58.7010   29.3620   47.2820 C   0  0  2  0  0  0  0  0  0  0  0  0
   58.0188   30.1847   47.0217 H   0  0  0  0  0  0  0  0  0  0  0  0
   57.9570   28.0930   47.2420 N   0  0  0  0  0  0  0  0  0  0  0  0
   58.1720   27.0520   46.4830 C   0  0  0  0  0  0  0  0  0  0  0  0
   57.3230   25.8600   46.6900 C   0  0  0  0  0  0  0  0  0  0  0  0
   55.9620   25.7250   46.4780 C   0  0  0  0  0  0  0  0  0  0  0  0
   55.1020   26.7100   46.0080 O   0  0  0  0  0  0  0  0  0  0  0  0
   55.5620   24.4700   46.7580 N   0  0  0  0  0  0  0  0  0  0  0  0
   56.7080   23.8640   47.1320 C   0  0  0  0  0  0  0  0  0  0  0  0
   56.7600   22.6540   47.4770 O   0  0  0  0  0  0  0  0  0  0  0  0
   57.7890   24.6650   47.0970 N   0  0  0  0  0  0  0  0  0  0  0  0
   58.7740   24.4110   47.3390 H   0  0  0  0  0  0  0  0  0  0  0  0
   59.2950   27.0270   45.4730 C   0  0  0  0  0  0  0  0  0  0  0  0
   59.0777   26.2661   44.7090 H   0  0  0  0  0  0  0  0  0  0  0  0
   60.2346   26.7862   45.9919 H   0  0  0  0  0  0  0  0  0  0  0  0
   59.4660   28.6470   44.6710 S   0  0  0  0  0  0  0  0  0  0  0  0
   59.8030   29.4130   46.2550 C   0  0  0  0  0  0  0  0  0  0  0  0
   60.8920   30.0920   46.4840 N   0  0  0  0  0  0  0  0  0  0  0  0
   60.9800   31.4830   46.8280 C   0  0  0  0  0  0  0  0  0  0  0  0
   62.1860   31.9790   47.3360 C   0  0  0  0  0  0  0  0  0  0  0  0
   63.0307   31.2950   47.5055 H   0  0  0  0  0  0  0  0  0  0  0  0
   62.3230   33.3380   47.6290 C   0  0  0  0  0  0  0  0  0  0  0  0
   63.2688   33.7169   48.0437 H   0  0  0  0  0  0  0  0  0  0  0  0
   61.2630   34.2170   47.3970 C   0  0  0  0  0  0  0  0  0  0  0  0
   61.3760   35.2861   47.6300 H   0  0  0  0  0  0  0  0  0  0  0  0
   60.0530   33.7400   46.8670 C   0  0  0  0  0  0  0  0  0  0  0  0
   58.9280   34.6900   46.5620 C   0  0  0  0  0  0  0  0  0  0  0  0
   59.3001   35.5003   45.9178 H   0  0  0  0  0  0  0  0  0  0  0  0
   58.5437   35.1086   47.5039 H   0  0  0  0  0  0  0  0  0  0  0  0
   57.8240   33.9670   45.8600 C   0  0  0  0  0  0  0  0  0  0  0  0
   56.8470   33.5230   46.5230 O   0  0  0  0  0  0  0  0  0  0  0  0
   57.9090   33.7540   44.4810 O   0  0  0  0  0  0  0  0  0  0  0  0
   57.7660   32.4650   43.8970 C   0  0  0  0  0  0  0  0  0  0  0  0
   57.6822   31.7095   44.6921 H   0  0  0  0  0  0  0  0  0  0  0  0
   56.8599   32.4433   43.2736 H   0  0  0  0  0  0  0  0  0  0  0  0
   58.6453   32.2453   43.2736 H   0  0  0  0  0  0  0  0  0  0  0  0
   59.9260   32.3750   46.5600 C   0  0  0  0  0  0  0  0  0  0  0  0
   58.9959   32.0012   46.1069 H   0  0  0  0  0  0  0  0  0  0  0  0
   58.8960   30.7270   49.4100 C   0  0  0  0  0  0  0  0  0  0  0  0
   58.2435   31.4877   48.9565 H   0  0  0  0  0  0  0  0  0  0  0  0
   59.3910   30.9170   50.7040 C   0  0  0  0  0  0  0  0  0  0  0  0
   59.1280   31.8262   51.2645 H   0  0  0  0  0  0  0  0  0  0  0  0
  1  2  1  0
  2  3  2  0
  3  4  1  0
  3  5  1  0
  5  6  1  0
  5  7  2  0
  7  8  1  0
  8  9  1  6
  8 10  1  0
 10 11  2  0
 11 12  1  0
 12 13  2  0
 13 14  1  0
 13 15  1  0
 15 16  1  0
 16 17  2  0
 16 18  1  0
 18 19  1  0
 11 20  1  0
 20 21  1  0
 20 22  1  0
 20 23  1  0
 23 24  1  0
 24 25  2  0
 25 26  1  0
 26 27  2  0
 27 28  1  0
 27 29  1  0
 29 30  1  0
 29 31  2  0
 31 32  1  0
 31 33  1  0
 33 34  1  0
 34 35  1  0
 34 36  1  0
 34 37  1  0
 37 38  2  0
 37 39  1  0
 39 40  1  0
 40 41  1  0
 40 42  1  0
 40 43  1  0
 33 44  2  0
 44 45  1  0
  7 46  1  0
 46 47  1  0
 46 48  2  0
 48 49  1  0
 48  2  1  0
 24  8  1  0
 44 26  1  0
 18 12  1  0
M  CHG  2  14  -1  15  -1
M  END
>  <UniqueID>  (19) 
17

>  <SMILES>  (19) 
COC(=O)Cc1cccc(/N=C2\SCC(c3[nH]c(=O)[n-]c3[O-])=N[C@H]2c2ccccc2)c1

>  <Energy>  (19) 
93.07460725789042

>  <Genealogy>  (19) 
COC(=O)Cc1cccc(N=C2SCC(c3[nH]c(=O)[n-]c3[O-])=NC2c2ccccc2)c1 (protonated)
COC(=O)Cc1cccc(N=C2SCC(c3[nH]c(=O)[n-]c3[O-])=N[C@H]2c2ccccc2)c1 (chirality)
COC(=O)Cc1cccc(/N=C2\SCC(c3[nH]c(=O)[n-]c3[O-])=N[C@H]2c2ccccc2)c1 (cis-trans isomerization)
COC(=O)Cc1cccc(/N=C2\SCC(c3[nH]c(=O)[n-]c3[O-])=N[C@H]2c2ccccc2)c1 (3D coordinates assigned)
COC(=O)Cc1cccc(/N=C2\SCC(c3[nH]c(=O)[n-]c3[O-])=N[C@H]2c2ccccc2)c1 (nonaromatic ring conformer: 93.07460725789042 kcal/mol)

>  <smiles>  (19) 
COC(=O)Cc1cccc(N=C2SCC(c3[nH]c(=O)[nH]c3O)=NC2c2ccccc2)c1

>  <score_type>  (19) 
oracle

>  <origin>  (19) 
adg

>  <m_score__min__energy>  (19) 
-13.98

>  <m_primary>  (19) 
energy

$$$$
19:0
     RDKit          3D

 42 44  0  0  0  0  0  0  0  0999 V2000
   56.9605   30.2564   44.6289 H   0  0  0  0  0  0  0  0  0  0  0  0
   57.0220   29.2730   45.1180 C   0  0  0  0  0  0  0  0  0  0  0  0
   55.9540   28.4400   45.2300 N   0  0  0  0  0  0  0  0  0  0  0  0
   56.2810   27.2810   45.8410 C   0  0  0  0  0  0  0  0  0  0  0  0
   55.4010   26.3440   46.0430 N   0  0  0  0  0  0  0  0  0  0  0  0
   55.5260   24.9410   45.7630 C   0  0  0  0  0  0  0  0  0  0  0  0
   54.8190   24.1290   46.4150 O   0  0  0  0  0  0  0  0  0  0  0  0
   56.4110   24.4140   44.6740 C   0  0  0  0  0  0  0  0  0  0  0  0
   57.2748   23.8996   45.1203 H   0  0  0  0  0  0  0  0  0  0  0  0
   55.8443   23.7061   44.0513 H   0  0  0  0  0  0  0  0  0  0  0  0
   56.7633   25.2495   44.0513 H   0  0  0  0  0  0  0  0  0  0  0  0
   57.9070   27.2520   46.3010 S   0  0  0  0  0  0  0  0  0  0  0  0
   58.1970   28.7820   45.6710 C   0  0  0  0  0  0  0  0  0  0  0  0
   59.8030   29.5640   45.5880 S   0  0  0  0  0  0  0  0  0  0  0  0
   59.8930   29.8840   47.3530 C   0  0  0  0  0  0  0  0  0  0  0  0
   60.4660   28.9100   48.1820 C   0  0  0  0  0  0  0  0  0  0  0  0
   60.9270   28.0152   47.7383 H   0  0  0  0  0  0  0  0  0  0  0  0
   60.4540   29.0710   49.5690 C   0  0  0  0  0  0  0  0  0  0  0  0
   60.9234   28.3143   50.2148 H   0  0  0  0  0  0  0  0  0  0  0  0
   59.8470   30.1910   50.1350 C   0  0  0  0  0  0  0  0  0  0  0  0
   59.8100   30.3310   51.4830 F   0  0  0  0  0  0  0  0  0  0  0  0
   59.2680   31.1640   49.3170 C   0  0  0  0  0  0  0  0  0  0  0  0
   58.7765   32.0371   49.7710 H   0  0  0  0  0  0  0  0  0  0  0  0
   59.3090   31.0350   47.9120 C   0  0  0  0  0  0  0  0  0  0  0  0
   58.7770   32.0090   47.0490 O   0  0  0  0  0  0  0  0  0  0  0  0
   58.2790   33.2910   47.4420 C   0  0  0  0  0  0  0  0  0  0  0  0
   57.2971   33.4486   46.9719 H   0  0  0  0  0  0  0  0  0  0  0  0
   58.2047   33.3017   48.5394 H   0  0  0  0  0  0  0  0  0  0  0  0
   59.2160   34.4320   47.0230 C   0  0  0  0  0  0  0  0  0  0  0  0
   59.1500   34.5618   45.9327 H   0  0  0  0  0  0  0  0  0  0  0  0
   58.8990   35.3409   47.5554 H   0  0  0  0  0  0  0  0  0  0  0  0
   60.6490   34.1580   47.3920 C   0  0  0  0  0  0  0  0  0  0  0  0
   61.5890   33.8310   46.4000 C   0  0  0  0  0  0  0  0  0  0  0  0
   61.2913   33.8308   45.3411 H   0  0  0  0  0  0  0  0  0  0  0  0
   62.9010   33.5060   46.7550 C   0  0  0  0  0  0  0  0  0  0  0  0
   63.6303   33.2380   45.9763 H   0  0  0  0  0  0  0  0  0  0  0  0
   63.2880   33.5210   48.0980 C   0  0  0  0  0  0  0  0  0  0  0  0
   64.3173   33.2509   48.3765 H   0  0  0  0  0  0  0  0  0  0  0  0
   62.3680   33.8790   49.0870 C   0  0  0  0  0  0  0  0  0  0  0  0
   62.6796   33.9107   50.1415 H   0  0  0  0  0  0  0  0  0  0  0  0
   61.0520   34.1970   48.7380 C   0  0  0  0  0  0  0  0  0  0  0  0
   60.3301   34.4784   49.5188 H   0  0  0  0  0  0  0  0  0  0  0  0
  1  2  1  0
  2  3  1  0
  3  4  1  0
  4  5  2  0
  5  6  1  0
  6  7  2  0
  6  8  1  0
  8  9  1  0
  8 10  1  0
  8 11  1  0
  4 12  1  0
 12 13  1  0
 13 14  1  0
 14 15  1  0
 15 16  2  0
 16 17  1  0
 16 18  1  0
 18 19  1  0
 18 20  2  0
 20 21  1  0
 20 22  1  0
 22 23  1  0
 22 24  2  0
 24 25  1  0
 25 26  1  0
 26 27  1  0
 26 28  1  0
 26 29  1  0
 29 30  1  0
 29 31  1  0
 29 32  1  0
 32 33  2  0
 33 34  1  0
 33 35  1  0
 35 36  1  0
 35 37  2  0
 37 38  1  0
 37 39  1  0
 39 40  1  0
 39 41  2  0
 41 42  1  0
 13  2  2  0
 24 15  1  0
 41 32  1  0
M  CHG  1   3  -1
M  END
>  <UniqueID>  (20) 
18

>  <SMILES>  (20) 
CC(=O)/N=c1/[n-]cc(Sc2ccc(F)cc2OCCc2ccccc2)s1

>  <Energy>  (20) 
71.40426845819397

>  <Genealogy>  (20) 
CC(=O)N=c1[n-]cc(Sc2ccc(F)cc2OCCc2ccccc2)s1 (protonated)
CC(=O)/N=c1/[n-]cc(Sc2ccc(F)cc2OCCc2ccccc2)s1 (cis-trans isomerization)
CC(=O)/N=c1/[n-]cc(Sc2ccc(F)cc2OCCc2ccccc2)s1 (3D coordinates assigned)
CC(=O)/N=c1/[n-]cc(Sc2ccc(F)cc2OCCc2ccccc2)s1 (optimized conformer: 71.40426845819397 kcal/mol)

>  <smiles>  (20) 
CC(=O)N=c1[nH]cc(Sc2ccc(F)cc2OCCc2ccccc2)s1

>  <score_type>  (20) 
oracle

>  <origin>  (20) 
adg

>  <m_score__min__energy>  (20) 
-9.8800000000000008

>  <m_primary>  (20) 
energy

$$$$
20:0
     RDKit          3D

 51 54  0  0  0  0  0  0  0  0999 V2000
   59.1110   25.3630   45.9590 O   0  0  0  0  0  0  0  0  0  0  0  0
   58.2870   26.1220   45.3800 C   0  0  0  0  0  0  0  0  0  0  0  0
   58.5990   27.5760   45.2330 C   0  0  0  0  0  0  0  0  0  0  0  0
   57.8190   28.2050   43.7050 S   0  0  0  0  0  0  0  0  0  0  0  0
   57.5890   29.8730   44.3130 C   0  0  0  0  0  0  0  0  0  0  0  0
   56.3830   30.4410   44.4860 N   0  0  0  0  0  0  0  0  0  0  0  0
   56.6080   31.6610   44.9380 N   0  0  0  0  0  0  0  0  0  0  0  0
   57.9460   31.8030   45.0300 C   0  0  0  0  0  0  0  0  0  0  0  0
   58.6150   33.0370   45.4960 C   0  0  0  0  0  0  0  0  0  0  0  0
   58.5990   34.1980   44.7050 C   0  0  0  0  0  0  0  0  0  0  0  0
   59.2280   35.3630   45.1480 C   0  0  0  0  0  0  0  0  0  0  0  0
   59.8850   35.3820   46.3790 C   0  0  0  0  0  0  0  0  0  0  0  0
   59.9230   34.2290   47.1790 C   0  0  0  0  0  0  0  0  0  0  0  0
   60.5870   34.2490   48.4980 C   0  0  0  0  0  0  0  0  0  0  0  0
   59.9190   34.5980   49.5100 O   0  0  0  0  0  0  0  0  0  0  0  0
   61.9670   33.8730   48.6550 N   0  0  0  0  0  0  0  0  0  0  0  0
   62.7170   34.1470   49.8680 C   0  0  0  0  0  0  0  0  0  0  0  0
   64.0970   33.5470   49.6420 C   0  0  0  0  0  0  0  0  0  0  0  0
   63.9300   32.5500   48.4980 C   0  0  0  0  0  0  0  0  0  0  0  0
   62.6770   32.9840   47.7480 C   0  0  0  0  0  0  0  0  0  0  0  0
   59.2760   33.0640   46.7380 C   0  0  0  0  0  0  0  0  0  0  0  0
   58.6050   30.6920   44.6440 N   0  0  0  0  0  0  0  0  0  0  0  0
   57.0420   25.6040   44.8970 N   0  0  0  0  0  0  0  0  0  0  0  0
   56.6640   24.2400   45.1110 C   0  0  0  0  0  0  0  0  0  0  0  0
   57.6480   23.2490   44.9870 C   0  0  0  0  0  0  0  0  0  0  0  0
   57.3230   21.9030   45.1480 C   0  0  0  0  0  0  0  0  0  0  0  0
   56.0110   21.5340   45.4440 C   0  0  0  0  0  0  0  0  0  0  0  0
   55.0220   22.5110   45.5850 C   0  0  0  0  0  0  0  0  0  0  0  0
   55.3290   23.8780   45.4260 C   0  0  0  0  0  0  0  0  0  0  0  0
   54.2540   24.8890   45.6170 C   0  0  0  0  0  0  0  0  0  0  0  0
   53.0430   24.5370   45.6130 O   0  0  0  0  0  0  0  0  0  0  0  0
   54.5540   26.2300   45.8250 O   0  0  0  0  0  0  0  0  0  0  0  0
   58.2058   28.1264   46.1005 H   0  0  0  0  0  0  0  0  0  0  0  0
   59.6885   27.7169   45.1773 H   0  0  0  0  0  0  0  0  0  0  0  0
   58.0879   34.1890   43.7310 H   0  0  0  0  0  0  0  0  0  0  0  0
   59.2056   36.2690   44.5246 H   0  0  0  0  0  0  0  0  0  0  0  0
   60.3752   36.3043   46.7240 H   0  0  0  0  0  0  0  0  0  0  0  0
   62.7929   35.2315   50.0355 H   0  0  0  0  0  0  0  0  0  0  0  0
   62.2273   33.7175   50.7544 H   0  0  0  0  0  0  0  0  0  0  0  0
   64.8161   34.3320   49.3651 H   0  0  0  0  0  0  0  0  0  0  0  0
   64.4834   33.0622   50.5507 H   0  0  0  0  0  0  0  0  0  0  0  0
   64.8050   32.5812   47.8321 H   0  0  0  0  0  0  0  0  0  0  0  0
   63.8421   31.5185   48.8698 H   0  0  0  0  0  0  0  0  0  0  0  0
   62.9474   33.5148   46.8233 H   0  0  0  0  0  0  0  0  0  0  0  0
   62.0588   32.1226   47.4551 H   0  0  0  0  0  0  0  0  0  0  0  0
   59.2858   32.1633   47.3694 H   0  0  0  0  0  0  0  0  0  0  0  0
   56.3300   26.2620   44.5080 H   0  0  0  0  0  0  0  0  0  0  0  0
   58.6855   23.5361   44.7607 H   0  0  0  0  0  0  0  0  0  0  0  0
   58.1008   21.1325   45.0417 H   0  0  0  0  0  0  0  0  0  0  0  0
   55.7542   20.4715   45.5667 H   0  0  0  0  0  0  0  0  0  0  0  0
   53.9911   22.2099   45.8230 H   0  0  0  0  0  0  0  0  0  0  0  0
  1  2  2  0
  2  3  1  0
  3  4  1  0
  4  5  1  0
  5  6  2  0
  6  7  1  0
  7  8  1  0
  8  9  1  0
  9 10  2  0
 10 11  1  0
 11 12  2  0
 12 13  1  0
 13 14  1  0
 14 15  2  0
 14 16  1  0
 16 17  1  0
 17 18  1  0
 18 19  1  0
 19 20  1  0
 13 21  2  0
  8 22  2  0
  2 23  1  0
 23 24  1  0
 24 25  2  0
 25 26  1  0
 26 27  2  0
 27 28  1  0
 28 29  2  0
 29 30  1  0
 30 31  2  0
 30 32  1  0
 22  5  1  0
 29 24  1  0
 21  9  1  0
 20 16  1  0
  3 33  1  0
  3 34  1  0
 10 35  1  0
 11 36  1  0
 12 37  1  0
 17 38  1  0
 17 39  1  0
 18 40  1  0
 18 41  1  0
 19 42  1  0
 19 43  1  0
 20 44  1  0
 20 45  1  0
 21 46  1  0
 23 47  1  0
 25 48  1  0
 26 49  1  0
 27 50  1  0
 28 51  1  0
M  CHG  2   7  -1  32  -1
M  END
>  <UniqueID>  (21) 
19

>  <SMILES>  (21) 
O=C(CSc1n[n-]c(-c2cccc(C(=O)N3CCCC3)c2)n1)Nc1ccccc1C(=O)[O-]

>  <Energy>  (21) 
96.87721885555742

>  <Genealogy>  (21) 
O=C(CSc1n[n-]c(-c2cccc(C(=O)N3CCCC3)c2)n1)Nc1ccccc1C(=O)[O-] (protonated)
O=C(CSc1n[n-]c(-c2cccc(C(=O)N3CCCC3)c2)n1)Nc1ccccc1C(=O)[O-] (3D coordinates assigned)
O=C(CSc1n[n-]c(-c2cccc(C(=O)N3CCCC3)c2)n1)Nc1ccccc1C(=O)[O-] (nonaromatic ring conformer: 96.87721885555742 kcal/mol)

>  <smiles>  (21) 
O=C(CSc1n[nH]c(-c2cccc(C(=O)N3CCCC3)c2)n1)Nc1ccccc1C(=O)O

>  <score_type>  (21) 
oracle

>  <origin>  (21) 
adg

>  <m_score__min__energy>  (21) 
-14.470000000000001

>  <m_primary>  (21) 
energy

$$$$
21:0
     RDKit          3D

 45 47  0  0  0  0  0  0  0  0999 V2000
   54.9060   26.2250   45.9930 N   0  0  0  0  0  0  0  0  0  0  0  0
   56.1440   25.7370   46.5100 C   0  0  0  0  0  0  0  0  0  0  0  0
   56.1440   24.8710   47.4240 O   0  0  0  0  0  0  0  0  0  0  0  0
   57.4430   26.3020   46.0200 C   0  0  0  0  0  0  0  0  0  0  0  0
   57.2310   27.1600   44.8980 O   0  0  0  0  0  0  0  0  0  0  0  0
   57.5190   28.5360   44.8600 C   0  0  0  0  0  0  0  0  0  0  0  0
   58.8360   29.0310   44.8460 C   0  0  0  0  0  0  0  0  0  0  0  0
   59.0720   30.4090   44.8090 C   0  0  0  0  0  0  0  0  0  0  0  0
   58.0010   31.3130   44.8070 C   0  0  0  0  0  0  0  0  0  0  0  0
   58.2700   32.7670   44.7780 C   0  0  0  0  0  0  0  0  0  0  0  0
   58.5170   33.3300   43.6730 O   0  0  0  0  0  0  0  0  0  0  0  0
   58.2880   33.5920   46.0360 C   0  0  0  0  0  0  0  0  0  0  0  0
   59.7030   34.7460   46.0420 S   0  0  0  0  0  0  0  0  0  0  0  0
   60.8670   33.5490   46.6990 C   0  0  0  0  0  0  0  0  0  0  0  0
   62.2440   33.7900   46.6130 C   0  0  0  0  0  0  0  0  0  0  0  0
   63.1480   32.8620   47.1250 C   0  0  0  0  0  0  0  0  0  0  0  0
   62.6860   31.6830   47.7180 C   0  0  0  0  0  0  0  0  0  0  0  0
   61.3080   31.4270   47.8000 C   0  0  0  0  0  0  0  0  0  0  0  0
   60.7910   30.2470   48.4350 N   0  0  0  0  0  0  0  0  0  0  0  0
   59.5150   29.6350   48.1890 C   0  0  0  0  0  0  0  0  0  0  0  0
   58.4900   30.3480   48.0090 O   0  0  0  0  0  0  0  0  0  0  0  0
   59.3590   28.1390   48.1900 C   0  0  0  0  0  0  0  0  0  0  0  0
   60.3500   27.3750   47.3260 C   0  0  0  0  0  0  0  0  0  0  0  0
   60.4820   27.3480   48.8420 C   0  0  0  0  0  0  0  0  0  0  0  0
   60.4030   32.3760   47.3030 C   0  0  0  0  0  0  0  0  0  0  0  0
   56.6870   30.8160   44.8190 C   0  0  0  0  0  0  0  0  0  0  0  0
   56.4500   29.4410   44.8420 C   0  0  0  0  0  0  0  0  0  0  0  0
   55.1410   28.9700   44.8490 O   0  0  0  0  0  0  0  0  0  0  0  0
   54.8780   26.7970   45.1230 H   0  0  0  0  0  0  0  0  0  0  0  0
   57.9146   26.8775   46.8302 H   0  0  0  0  0  0  0  0  0  0  0  0
   58.0949   25.4716   45.7110 H   0  0  0  0  0  0  0  0  0  0  0  0
   59.6841   28.3307   44.8642 H   0  0  0  0  0  0  0  0  0  0  0  0
   60.1051   30.7858   44.7813 H   0  0  0  0  0  0  0  0  0  0  0  0
   57.3535   34.1685   46.1014 H   0  0  0  0  0  0  0  0  0  0  0  0
   58.3845   32.9150   46.8976 H   0  0  0  0  0  0  0  0  0  0  0  0
   62.6120   34.7128   46.1408 H   0  0  0  0  0  0  0  0  0  0  0  0
   64.2287   33.0573   47.0626 H   0  0  0  0  0  0  0  0  0  0  0  0
   63.4042   30.9540   48.1214 H   0  0  0  0  0  0  0  0  0  0  0  0
   58.2640   28.1596   48.2926 H   0  0  0  0  0  0  0  0  0  0  0  0
   60.0275   26.4727   46.7857 H   0  0  0  0  0  0  0  0  0  0  0  0
   61.0174   27.6360   46.4914 H   0  0  0  0  0  0  0  0  0  0  0  0
   60.2549   26.4262   49.3976 H   0  0  0  0  0  0  0  0  0  0  0  0
   61.2844   27.5814   49.5573 H   0  0  0  0  0  0  0  0  0  0  0  0
   59.3211   32.1966   47.3888 H   0  0  0  0  0  0  0  0  0  0  0  0
   55.8386   31.5160   44.8102 H   0  0  0  0  0  0  0  0  0  0  0  0
  1  2  1  0
  2  3  2  0
  2  4  1  0
  4  5  1  0
  5  6  1  0
  6  7  2  0
  7  8  1  0
  8  9  2  0
  9 10  1  0
 10 11  2  0
 10 12  1  0
 12 13  1  0
 13 14  1  0
 14 15  2  0
 15 16  1  0
 16 17  2  0
 17 18  1  0
 18 19  1  0
 19 20  1  0
 20 21  2  0
 20 22  1  0
 22 23  1  0
 23 24  1  0
 18 25  2  0
  9 26  1  0
 26 27  2  0
 27 28  1  0
 27  6  1  0
 25 14  1  0
 24 22  1  0
  1 29  1  0
  4 30  1  0
  4 31  1  0
  7 32  1  0
  8 33  1  0
 12 34  1  0
 12 35  1  0
 15 36  1  0
 16 37  1  0
 17 38  1  0
 22 39  1  0
 23 40  1  0
 23 41  1  0
 24 42  1  0
 24 43  1  0
 25 44  1  0
 26 45  1  0
M  CHG  3   1  -1  19  -1  28  -1
M  END
>  <UniqueID>  (22) 
20

>  <SMILES>  (22) 
[NH-]C(=O)COc1ccc(C(=O)CSc2cccc([N-]C(=O)C3CC3)c2)cc1[O-]

>  <Energy>  (22) 
310.62193399257416

>  <Genealogy>  (22) 
[NH-]C(=O)COc1ccc(C(=O)CSc2cccc([N-]C(=O)C3CC3)c2)cc1[O-] (protonated)
[NH-]C(=O)COc1ccc(C(=O)CSc2cccc([N-]C(=O)C3CC3)c2)cc1[O-] (3D coordinates assigned)
[NH-]C(=O)COc1ccc(C(=O)CSc2cccc([N-]C(=O)C3CC3)c2)cc1[O-] (nonaromatic ring conformer: 310.62193399257416 kcal/mol)

>  <smiles>  (22) 
NC(=O)COc1ccc(C(=O)CSc2cccc(NC(=O)C3CC3)c2)cc1O

>  <score_type>  (22) 
oracle

>  <origin>  (22) 
adg

>  <m_score__min__energy>  (22) 
-16.539999999999999

>  <m_primary>  (22) 
energy

$$$$
22:0
     RDKit          3D

 66 69  0  0  0  0  0  0  0  0999 V2000
   59.1610   29.8900   48.3960 C   0  0  0  0  0  0  0  0  0  0  0  0
   58.8890   30.4200   47.1880 C   0  0  0  0  0  0  0  0  0  0  0  0
   58.5700   29.6920   46.0370 C   0  0  0  0  0  0  0  0  0  0  0  0
   58.6020   28.3680   45.7780 C   0  0  0  0  0  0  0  0  0  0  0  0
   57.5400   27.4000   46.0910 C   0  0  0  0  0  0  0  0  0  0  0  0
   57.7490   26.1950   46.6580 N   0  0  0  0  0  0  0  0  0  0  0  0
   56.5340   25.6070   46.5980 C   0  0  0  0  0  0  0  0  0  0  0  0
   56.3190   24.4450   47.0370 O   0  0  0  0  0  0  0  0  0  0  0  0
   55.5740   26.3500   46.0070 N   0  0  0  0  0  0  0  0  0  0  0  0
   56.2280   27.4770   45.6790 C   0  0  0  0  0  0  0  0  0  0  0  0
   55.6290   28.5470   45.0160 O   0  0  0  0  0  0  0  0  0  0  0  0
   58.2200   30.6180   45.0840 C   0  0  0  0  0  0  0  0  0  0  0  0
   58.3710   31.8890   45.6290 C   0  0  0  0  0  0  0  0  0  0  0  0
   58.2570   33.1800   44.7750 C   0  0  0  0  0  0  0  0  0  0  0  0
   58.0640   32.7940   43.2930 C   0  0  0  0  0  0  0  0  0  0  0  0
   57.0170   34.0100   45.2020 C   0  0  0  0  0  0  0  0  0  0  0  0
   59.4800   34.1160   44.9200 C   0  0  0  0  0  0  0  0  0  0  0  0
   58.7860   31.7620   46.9330 N   0  0  0  0  0  0  0  0  0  0  0  0
   59.0210   32.8410   47.9180 C   0  0  0  0  0  0  0  0  0  0  0  0
   60.4130   32.7870   48.4960 C   0  0  0  0  0  0  0  0  0  0  0  0
   60.6030   32.8920   49.8840 C   0  0  0  0  0  0  0  0  0  0  0  0
   61.8860   32.8350   50.4280 C   0  0  0  0  0  0  0  0  0  0  0  0
   62.9960   32.6290   49.5990 C   0  0  0  0  0  0  0  0  0  0  0  0
   64.6150   32.5020   50.2950 S   0  0  0  0  0  0  0  0  0  0  0  0
   65.6150   33.0810   49.3320 O   0  0  0  0  0  0  0  0  0  0  0  0
   64.9550   31.0520   50.5030 O   0  0  0  0  0  0  0  0  0  0  0  0
   64.7230   33.3510   51.8210 N   0  0  0  0  0  0  0  0  0  0  0  0
   64.3210   34.7640   51.6510 C   0  0  0  0  0  0  0  0  0  0  0  0
   64.8410   35.6350   52.8040 C   0  0  0  0  0  0  0  0  0  0  0  0
   66.3230   35.6080   52.9080 N   0  0  0  0  0  0  0  0  0  0  0  0
   66.9230   36.8380   52.3650 C   0  0  0  0  0  0  0  0  0  0  0  0
   66.9430   34.4160   52.2860 C   0  0  0  0  0  0  0  0  0  0  0  0
   66.0530   33.1760   52.4500 C   0  0  0  0  0  0  0  0  0  0  0  0
   62.8100   32.4910   48.2170 C   0  0  0  0  0  0  0  0  0  0  0  0
   61.5250   32.5610   47.6700 C   0  0  0  0  0  0  0  0  0  0  0  0
   59.4019   30.5482   49.2438 H   0  0  0  0  0  0  0  0  0  0  0  0
   59.1423   28.7989   48.5348 H   0  0  0  0  0  0  0  0  0  0  0  0
   59.5056   27.9768   45.2876 H   0  0  0  0  0  0  0  0  0  0  0  0
   54.7700   28.9640   45.3500 H   0  0  0  0  0  0  0  0  0  0  0  0
   57.8783   30.3925   44.0630 H   0  0  0  0  0  0  0  0  0  0  0  0
   57.5728   31.8117   43.2309 H   0  0  0  0  0  0  0  0  0  0  0  0
   57.4375   33.5493   42.7960 H   0  0  0  0  0  0  0  0  0  0  0  0
   59.0441   32.7459   42.7960 H   0  0  0  0  0  0  0  0  0  0  0  0
   56.9612   34.0474   46.2999 H   0  0  0  0  0  0  0  0  0  0  0  0
   57.1051   35.0318   44.8043 H   0  0  0  0  0  0  0  0  0  0  0  0
   56.1059   33.5391   44.8043 H   0  0  0  0  0  0  0  0  0  0  0  0
   59.6927   34.2788   45.9869 H   0  0  0  0  0  0  0  0  0  0  0  0
   60.3544   33.6542   44.4381 H   0  0  0  0  0  0  0  0  0  0  0  0
   59.2626   35.0806   44.4381 H   0  0  0  0  0  0  0  0  0  0  0  0
   58.8806   33.8121   47.4208 H   0  0  0  0  0  0  0  0  0  0  0  0
   58.3058   32.7086   48.7432 H   0  0  0  0  0  0  0  0  0  0  0  0
   59.7340   33.0200   50.5462 H   0  0  0  0  0  0  0  0  0  0  0  0
   62.0267   32.9523   51.5126 H   0  0  0  0  0  0  0  0  0  0  0  0
   64.7318   35.1418   50.7031 H   0  0  0  0  0  0  0  0  0  0  0  0
   63.2221   34.8141   51.6465 H   0  0  0  0  0  0  0  0  0  0  0  0
   64.5171   36.6729   52.6370 H   0  0  0  0  0  0  0  0  0  0  0  0
   64.4308   35.2316   53.7415 H   0  0  0  0  0  0  0  0  0  0  0  0
   67.2401   37.4881   53.1938 H   0  0  0  0  0  0  0  0  0  0  0  0
   67.7958   36.5787   51.7478 H   0  0  0  0  0  0  0  0  0  0  0  0
   66.1814   37.3662   51.7478 H   0  0  0  0  0  0  0  0  0  0  0  0
   67.0947   34.6091   51.2138 H   0  0  0  0  0  0  0  0  0  0  0  0
   67.9037   34.2230   52.7859 H   0  0  0  0  0  0  0  0  0  0  0  0
   66.5549   32.3160   51.9825 H   0  0  0  0  0  0  0  0  0  0  0  0
   65.8972   33.0138   53.5268 H   0  0  0  0  0  0  0  0  0  0  0  0
   63.6773   32.3271   47.5606 H   0  0  0  0  0  0  0  0  0  0  0  0
   61.3848   32.4382   46.5859 H   0  0  0  0  0  0  0  0  0  0  0  0
  1  2  2  0
  2  3  1  0
  3  4  2  3
  4  5  1  0
  5  6  1  0
  6  7  1  0
  7  8  2  0
  7  9  1  0
  9 10  1  0
 10 11  1  0
  3 12  1  0
 12 13  2  0
 13 14  1  0
 14 15  1  0
 14 16  1  0
 14 17  1  0
 13 18  1  0
 18 19  1  0
 19 20  1  0
 20 21  2  0
 21 22  1  0
 22 23  2  0
 23 24  1  0
 24 25  2  0
 24 26  2  0
 24 27  1  0
 27 28  1  0
 28 29  1  0
 29 30  1  0
 30 31  1  0
 30 32  1  0
 32 33  1  0
 23 34  1  0
 34 35  2  0
 18  2  1  0
 35 20  1  0
 10  5  2  0
 33 27  1  0
  1 36  1  0
  1 37  1  0
  4 38  1  0
 11 39  1  0
 12 40  1  0
 15 41  1  0
 15 42  1  0
 15 43  1  0
 16 44  1  0
 16 45  1  0
 16 46  1  0
 17 47  1  0
 17 48  1  0
 17 49  1  0
 19 50  1  0
 19 51  1  0
 21 52  1  0
 22 53  1  0
 28 54  1  0
 28 55  1  0
 29 56  1  0
 29 57  1  0
 31 58  1  0
 31 59  1  0
 31 60  1  0
 32 61  1  0
 32 62  1  0
 33 63  1  0
 33 64  1  0
 34 65  1  0
 35 66  1  0
M  CHG  2   6  -1   9  -1
M  END
>  <UniqueID>  (23) 
21

>  <SMILES>  (23) 
C=c1c(=Cc2[n-]c(=O)[n-]c2O)cc(C(C)(C)C)n1Cc1ccc(S(=O)(=O)N2CCN(C)CC2)cc1

>  <Energy>  (23) 
154.11245153573893

>  <Genealogy>  (23) 
C=c1c(=Cc2[n-]c(=O)[n-]c2O)cc(C(C)(C)C)n1Cc1ccc(S(=O)(=O)N2CCN(C)CC2)cc1 (protonated)
C=c1c(=Cc2[n-]c(=O)[n-]c2O)cc(C(C)(C)C)n1Cc1ccc(S(=O)(=O)N2CCN(C)CC2)cc1 (3D coordinates assigned)
C=c1c(=Cc2[n-]c(=O)[n-]c2O)cc(C(C)(C)C)n1Cc1ccc(S(=O)(=O)N2CCN(C)CC2)cc1 (nonaromatic ring conformer: 154.11245153573893 kcal/mol)

>  <smiles>  (23) 
C=c1c(=Cc2[nH]c(=O)[nH]c2O)cc(C(C)(C)C)n1Cc1ccc(S(=O)(=O)N2CCN(C)CC2)cc1

>  <score_type>  (23) 
oracle

>  <origin>  (23) 
adg

>  <m_score__min__energy>  (23) 
-13.65

>  <m_primary>  (23) 
energy

$$$$
23:0
     RDKit          3D

 74 77  0  0  0  0  0  0  0  0999 V2000
   52.8880   24.0540   45.1770 C   0  0  0  0  0  0  0  0  0  0  0  0
   54.1330   23.6310   45.4270 C   0  0  0  0  0  0  0  0  0  0  0  0
   54.8160   23.9340   46.7340 C   0  0  0  0  0  0  0  0  0  0  0  0
   56.1770   24.4690   46.4990 N   0  0  0  0  0  0  0  0  0  0  0  0
   56.3740   25.7950   46.1580 C   0  0  0  0  0  0  0  0  0  0  0  0
   55.2620   26.7060   46.0430 N   0  0  0  0  0  0  0  0  0  0  0  0
   57.6860   26.2670   45.9160 C   0  0  0  0  0  0  0  0  0  0  0  0
   57.9550   27.6650   45.6680 N   0  0  0  0  0  0  0  0  0  0  0  0
   57.2920   28.3220   44.5240 C   0  0  0  0  0  0  0  0  0  0  0  0
   56.4780   29.5240   44.9170 C   0  0  0  0  0  0  0  0  0  0  0  0
   55.2160   29.4950   44.8850 O   0  0  0  0  0  0  0  0  0  0  0  0
   57.1630   30.7290   45.2700 N   0  0  0  0  0  0  0  0  0  0  0  0
   56.8470   32.0370   44.6970 C   0  0  0  0  0  0  0  0  0  0  0  0
   56.9750   33.1470   45.7480 C   0  0  0  0  0  0  0  0  0  0  0  0
   58.0090   34.1360   45.2240 C   0  0  0  0  0  0  0  0  0  0  0  0
   58.8030   33.3880   44.1740 C   0  0  0  0  0  0  0  0  0  0  0  0
   57.8370   32.3770   43.5820 C   0  0  0  0  0  0  0  0  0  0  0  0
   58.8980   28.3150   46.5570 C   0  0  0  0  0  0  0  0  0  0  0  0
   60.1290   28.1960   46.3100 O   0  0  0  0  0  0  0  0  0  0  0  0
   58.5220   29.2040   47.7290 C   0  0  0  0  0  0  0  0  0  0  0  0
   59.3120   30.4510   47.8230 N   0  0  0  0  0  0  0  0  0  0  0  0
   59.8570   30.8320   46.5020 C   0  0  0  0  0  0  0  0  0  0  0  0
   60.6570   32.1490   46.5890 C   0  0  0  0  0  0  0  0  0  0  0  0
   60.7190   32.6340   47.9820 N   0  0  0  0  0  0  0  0  0  0  0  0
   61.5130   33.8770   48.0550 C   0  0  0  0  0  0  0  0  0  0  0  0
   62.7230   33.6890   48.9350 C   0  0  0  0  0  0  0  0  0  0  0  0
   63.8100   32.9120   48.5030 C   0  0  0  0  0  0  0  0  0  0  0  0
   64.9330   32.7510   49.3230 C   0  0  0  0  0  0  0  0  0  0  0  0
   64.9780   33.3580   50.5820 C   0  0  0  0  0  0  0  0  0  0  0  0
   66.0940   33.1720   51.3960 O   0  0  0  0  0  0  0  0  0  0  0  0
   63.9020   34.1450   51.0140 C   0  0  0  0  0  0  0  0  0  0  0  0
   62.7810   34.3110   50.1930 C   0  0  0  0  0  0  0  0  0  0  0  0
   59.3470   32.8480   48.4900 C   0  0  0  0  0  0  0  0  0  0  0  0
   58.4980   31.5680   48.3510 C   0  0  0  0  0  0  0  0  0  0  0  0
   58.7470   25.3640   46.0120 C   0  0  0  0  0  0  0  0  0  0  0  0
   59.9310   25.7390   45.8070 O   0  0  0  0  0  0  0  0  0  0  0  0
   58.5070   24.0710   46.3200 N   0  0  0  0  0  0  0  0  0  0  0  0
   57.2570   23.6150   46.5620 C   0  0  0  0  0  0  0  0  0  0  0  0
   57.1090   22.3940   46.8380 O   0  0  0  0  0  0  0  0  0  0  0  0
   52.4105   23.8197   44.2142 H   0  0  0  0  0  0  0  0  0  0  0  0
   52.3423   24.6359   45.9344 H   0  0  0  0  0  0  0  0  0  0  0  0
   54.6683   23.0499   44.6616 H   0  0  0  0  0  0  0  0  0  0  0  0
   54.2250   24.6793   47.2865 H   0  0  0  0  0  0  0  0  0  0  0  0
   54.8960   23.0042   47.3163 H   0  0  0  0  0  0  0  0  0  0  0  0
   54.4820   26.7070   46.7340 H   0  0  0  0  0  0  0  0  0  0  0  0
   55.1930   27.4270   45.2920 H   0  0  0  0  0  0  0  0  0  0  0  0
   58.0648   28.6423   43.8097 H   0  0  0  0  0  0  0  0  0  0  0  0
   56.5990   27.5892   44.0849 H   0  0  0  0  0  0  0  0  0  0  0  0
   55.8158   31.9808   44.3181 H   0  0  0  0  0  0  0  0  0  0  0  0
   56.0067   33.6501   45.8866 H   0  0  0  0  0  0  0  0  0  0  0  0
   57.2821   32.7347   46.7205 H   0  0  0  0  0  0  0  0  0  0  0  0
   57.5113   35.0094   44.7773 H   0  0  0  0  0  0  0  0  0  0  0  0
   58.6569   34.5088   46.0310 H   0  0  0  0  0  0  0  0  0  0  0  0
   59.1605   34.0795   43.3968 H   0  0  0  0  0  0  0  0  0  0  0  0
   59.6919   32.9020   44.6026 H   0  0  0  0  0  0  0  0  0  0  0  0
   57.3084   32.8122   42.7211 H   0  0  0  0  0  0  0  0  0  0  0  0
   58.3626   31.4801   43.2225 H   0  0  0  0  0  0  0  0  0  0  0  0
   57.4605   29.4749   47.6297 H   0  0  0  0  0  0  0  0  0  0  0  0
   58.7316   28.6279   48.6423 H   0  0  0  0  0  0  0  0  0  0  0  0
   60.5207   30.0317   46.1430 H   0  0  0  0  0  0  0  0  0  0  0  0
   59.0171   30.9791   45.8071 H   0  0  0  0  0  0  0  0  0  0  0  0
   61.6792   31.9749   46.2220 H   0  0  0  0  0  0  0  0  0  0  0  0
   60.1532   32.9087   45.9734 H   0  0  0  0  0  0  0  0  0  0  0  0
   61.8428   34.1541   47.0429 H   0  0  0  0  0  0  0  0  0  0  0  0
   60.8851   34.6716   48.4843 H   0  0  0  0  0  0  0  0  0  0  0  0
   63.7789   32.4277   47.5158 H   0  0  0  0  0  0  0  0  0  0  0  0
   65.7829   32.1450   48.9759 H   0  0  0  0  0  0  0  0  0  0  0  0
   66.0660   32.5530   52.1970 H   0  0  0  0  0  0  0  0  0  0  0  0
   63.9386   34.6327   51.9993 H   0  0  0  0  0  0  0  0  0  0  0  0
   61.9402   34.9324   50.5349 H   0  0  0  0  0  0  0  0  0  0  0  0
   59.3971   33.1325   49.5514 H   0  0  0  0  0  0  0  0  0  0  0  0
   58.8755   33.6462   47.8979 H   0  0  0  0  0  0  0  0  0  0  0  0
   58.1014   31.2896   49.3385 H   0  0  0  0  0  0  0  0  0  0  0  0
   57.6746   31.7662   47.6490 H   0  0  0  0  0  0  0  0  0  0  0  0
  1  2  2  0
  2  3  1  0
  3  4  1  0
  4  5  1  0
  5  6  1  0
  5  7  2  0
  7  8  1  0
  8  9  1  0
  9 10  1  0
 10 11  2  0
 10 12  1  0
 12 13  1  0
 13 14  1  0
 14 15  1  0
 15 16  1  0
 16 17  1  0
  8 18  1  0
 18 19  2  0
 18 20  1  0
 20 21  1  0
 21 22  1  0
 22 23  1  0
 23 24  1  0
 24 25  1  0
 25 26  1  0
 26 27  2  0
 27 28  1  0
 28 29  2  0
 29 30  1  0
 29 31  1  0
 31 32  2  0
 24 33  1  0
 33 34  1  0
  7 35  1  0
 35 36  2  0
 35 37  1  0
 37 38  1  0
 38 39  2  0
 38  4  1  0
 17 13  1  0
 34 21  1  0
 32 26  1  0
  1 40  1  0
  1 41  1  0
  2 42  1  0
  3 43  1  0
  3 44  1  0
  6 45  1  0
  6 46  1  0
  9 47  1  0
  9 48  1  0
 13 49  1  0
 14 50  1  0
 14 51  1  0
 15 52  1  0
 15 53  1  0
 16 54  1  0
 16 55  1  0
 17 56  1  0
 17 57  1  0
 20 58  1  0
 20 59  1  0
 22 60  1  0
 22 61  1  0
 23 62  1  0
 23 63  1  0
 25 64  1  0
 25 65  1  0
 27 66  1  0
 28 67  1  0
 30 68  1  0
 31 69  1  0
 32 70  1  0
 33 71  1  0
 33 72  1  0
 34 73  1  0
 34 74  1  0
M  CHG  2  12  -1  37  -1
M  END
>  <UniqueID>  (24) 
22

>  <SMILES>  (24) 
C=CCn1c(N)c(N(CC(=O)[N-]C2CCCC2)C(=O)CN2CCN(Cc3ccc(O)cc3)CC2)c(=O)[n-]c1=O

>  <Energy>  (24) 
97.42589154519793

>  <Genealogy>  (24) 
C=CCn1c(N)c(N(CC(=O)[N-]C2CCCC2)C(=O)CN2CCN(Cc3ccc(O)cc3)CC2)c(=O)[n-]c1=O (protonated)
C=CCn1c(N)c(N(CC(=O)[N-]C2CCCC2)C(=O)CN2CCN(Cc3ccc(O)cc3)CC2)c(=O)[n-]c1=O (3D coordinates assigned)
C=CCn1c(N)c(N(CC(=O)[N-]C2CCCC2)C(=O)CN2CCN(Cc3ccc(O)cc3)CC2)c(=O)[n-]c1=O (nonaromatic ring conformer: 97.42589154519793 kcal/mol)

>  <smiles>  (24) 
C=CCn1c(N)c(N(CC(=O)NC2CCCC2)C(=O)CN2CCN(Cc3ccc(O)cc3)CC2)c(=O)[nH]c1=O

>  <score_type>  (24) 
oracle

>  <origin>  (24) 
adg

>  <m_score__min__energy>  (24) 
-12.48

>  <m_primary>  (24) 
energy

$$$$
24:0
     RDKit          3D

 40 43  0  0  0  0  0  0  0  0999 V2000
   57.6260   30.2370   44.3430 C   0  0  0  0  0  0  0  0  0  0  0  0
   57.9630   29.8550   45.5840 C   0  0  0  0  0  0  0  0  0  0  0  0
   57.9950   28.5540   46.0890 C   0  0  0  0  0  0  0  0  0  0  0  0
   57.7120   27.4180   45.4240 C   0  0  0  0  0  0  0  0  0  0  0  0
   57.2040   26.1940   46.0760 C   0  0  0  0  0  0  0  0  0  0  0  0
   57.9620   25.1830   46.5400 N   0  0  0  0  0  0  0  0  0  0  0  0
   57.0560   24.3160   47.0420 C   0  0  0  0  0  0  0  0  0  0  0  0
   57.3860   23.2260   47.5770 O   0  0  0  0  0  0  0  0  0  0  0  0
   55.7710   24.7110   46.9280 N   0  0  0  0  0  0  0  0  0  0  0  0
   55.8830   25.9000   46.3150 C   0  0  0  0  0  0  0  0  0  0  0  0
   54.7970   26.7010   45.9800 O   0  0  0  0  0  0  0  0  0  0  0  0
   58.3610   28.5900   47.3880 N   0  0  0  0  0  0  0  0  0  0  0  0
   58.5450   29.9000   47.6440 C   0  0  0  0  0  0  0  0  0  0  0  0
   58.8840   30.3310   48.7780 O   0  0  0  0  0  0  0  0  0  0  0  0
   58.3250   30.6980   46.5790 N   0  0  0  0  0  0  0  0  0  0  0  0
   58.3860   32.1640   46.5640 C   0  0  0  0  0  0  0  0  0  0  0  0
   59.8060   32.6260   46.6930 C   0  0  0  0  0  0  0  0  0  0  0  0
   60.1550   33.7040   46.1400 O   0  0  0  0  0  0  0  0  0  0  0  0
   60.7670   31.8290   47.4020 N   0  0  0  0  0  0  0  0  0  0  0  0
   62.0940   32.2820   47.6960 C   0  0  0  0  0  0  0  0  0  0  0  0
   62.9830   32.8180   46.7740 C   0  0  0  0  0  0  0  0  0  0  0  0
   64.1650   33.0880   47.3730 N   0  0  0  0  0  0  0  0  0  0  0  0
   64.0320   32.7030   48.6560 C   0  0  0  0  0  0  0  0  0  0  0  0
   65.0080   32.7420   49.6510 C   0  0  0  0  0  0  0  0  0  0  0  0
   64.6770   32.2300   50.9180 C   0  0  0  0  0  0  0  0  0  0  0  0
   63.3970   31.6820   51.1570 C   0  0  0  0  0  0  0  0  0  0  0  0
   62.4330   31.6490   50.1330 C   0  0  0  0  0  0  0  0  0  0  0  0
   62.7790   32.1930   48.8940 C   0  0  0  0  0  0  0  0  0  0  0  0
   57.6426   31.3030   44.0721 H   0  0  0  0  0  0  0  0  0  0  0  0
   57.3330   29.4842   43.5963 H   0  0  0  0  0  0  0  0  0  0  0  0
   57.8677   27.4006   44.3352 H   0  0  0  0  0  0  0  0  0  0  0  0
   57.9682   32.5351   45.6165 H   0  0  0  0  0  0  0  0  0  0  0  0
   57.8036   32.5554   47.4111 H   0  0  0  0  0  0  0  0  0  0  0  0
   60.5430   30.8270   47.5900 H   0  0  0  0  0  0  0  0  0  0  0  0
   62.7588   32.9968   45.7120 H   0  0  0  0  0  0  0  0  0  0  0  0
   65.0160   33.4910   46.9220 H   0  0  0  0  0  0  0  0  0  0  0  0
   66.0056   33.1602   49.4510 H   0  0  0  0  0  0  0  0  0  0  0  0
   65.4199   32.2563   51.7288 H   0  0  0  0  0  0  0  0  0  0  0  0
   63.1525   31.2783   52.1506 H   0  0  0  0  0  0  0  0  0  0  0  0
   61.4391   31.2091   50.3026 H   0  0  0  0  0  0  0  0  0  0  0  0
  1  2  2  0
  2  3  1  0
  3  4  2  3
  4  5  1  0
  5  6  1  0
  6  7  1  0
  7  8  2  0
  7  9  1  0
  9 10  1  0
 10 11  1  0
  3 12  1  0
 12 13  1  0
 13 14  2  0
 13 15  1  0
 15 16  1  0
 16 17  1  0
 17 18  2  0
 17 19  1  0
 19 20  1  0
 20 21  2  0
 21 22  1  0
 22 23  1  0
 23 24  2  0
 24 25  1  0
 25 26  2  0
 26 27  1  0
 27 28  2  0
 15  2  1  0
 28 20  1  0
 10  5  2  0
 28 23  1  0
  1 29  1  0
  1 30  1  0
  4 31  1  0
 16 32  1  0
 16 33  1  0
 19 34  1  0
 21 35  1  0
 22 36  1  0
 24 37  1  0
 25 38  1  0
 26 39  1  0
 27 40  1  0
M  CHG  4   6  -1   9  -1  11  -1  12  -1
M  END
>  <UniqueID>  (25) 
23

>  <SMILES>  (25) 
C=c1c(=Cc2[n-]c(=O)[n-]c2[O-])[n-]c(=O)n1CC(=O)Nc1c[nH]c2ccccc12

>  <Energy>  (25) 
145.29511835388564

>  <Genealogy>  (25) 
C=c1c(=Cc2[n-]c(=O)[n-]c2[O-])[n-]c(=O)n1CC(=O)Nc1c[nH]c2ccccc12 (protonated)
C=c1c(=Cc2[n-]c(=O)[n-]c2[O-])[n-]c(=O)n1CC(=O)Nc1c[nH]c2ccccc12 (3D coordinates assigned)
C=c1c(=Cc2[n-]c(=O)[n-]c2[O-])[n-]c(=O)n1CC(=O)Nc1c[nH]c2ccccc12 (optimized conformer: 145.29511835388564 kcal/mol)

>  <smiles>  (25) 
C=c1c(=Cc2[nH]c(=O)[nH]c2O)[nH]c(=O)n1CC(=O)Nc1c[nH]c2ccccc12

>  <score_type>  (25) 
oracle

>  <origin>  (25) 
adg

>  <m_score__min__energy>  (25) 
-17.649999999999999

>  <m_primary>  (25) 
energy

$$$$
25:0
     RDKit          3D

 57 60  0  0  0  0  0  0  0  0999 V2000
   59.4452   35.2169   44.4355 H   0  0  0  0  0  0  0  0  0  0  0  0
   58.9940   34.2630   44.7460 C   0  0  0  0  0  0  0  0  0  0  0  0
   58.5600   33.3320   43.8590 N   0  0  0  0  0  0  0  0  0  0  0  0
   58.0530   32.2440   44.4870 C   0  0  0  0  0  0  0  0  0  0  0  0
   57.5640   31.2050   43.8760 N   0  0  0  0  0  0  0  0  0  0  0  0
   56.4870   30.3770   44.3430 C   0  0  0  0  0  0  0  0  0  0  0  0
   55.3320   30.8500   44.4970 O   0  0  0  0  0  0  0  0  0  0  0  0
   56.7380   28.9460   44.5910 C   0  0  0  0  0  0  0  0  0  0  0  0
   55.9070   28.2860   45.2670 O   0  0  0  0  0  0  0  0  0  0  0  0
   57.9010   28.2730   44.0910 N   0  0  0  0  0  0  0  0  0  0  0  0
   59.1200   28.0030   44.8580 C   0  0  0  0  0  0  0  0  0  0  0  0
   59.6678   27.1551   44.4211 H   0  0  0  0  0  0  0  0  0  0  0  0
   58.7550   27.6120   46.3110 C   0  0  0  0  0  0  0  0  0  0  0  0
   57.7616   27.1396   46.3189 H   0  0  0  0  0  0  0  0  0  0  0  0
   59.5142   26.9118   46.6897 H   0  0  0  0  0  0  0  0  0  0  0  0
   58.7310   28.8470   47.2150 C   0  0  0  0  0  0  0  0  0  0  0  0
   58.0191   29.5786   46.8053 H   0  0  0  0  0  0  0  0  0  0  0  0
   58.4261   28.5355   48.2250 H   0  0  0  0  0  0  0  0  0  0  0  0
   60.0720   29.4710   47.2990 N   0  0  0  0  0  0  0  0  0  0  0  0
   60.0610   30.8120   47.9310 C   0  0  0  0  0  0  0  0  0  0  0  0
   61.1023   31.1333   48.0806 H   0  0  0  0  0  0  0  0  0  0  0  0
   59.5070   31.4800   47.2551 H   0  0  0  0  0  0  0  0  0  0  0  0
   59.3510   30.8520   49.2710 C   0  0  0  0  0  0  0  0  0  0  0  0
   59.5720   29.8450   50.2290 C   0  0  0  0  0  0  0  0  0  0  0  0
   60.2841   29.0343   50.0151 H   0  0  0  0  0  0  0  0  0  0  0  0
   58.8930   29.8680   51.4500 C   0  0  0  0  0  0  0  0  0  0  0  0
   59.0539   29.0640   52.1833 H   0  0  0  0  0  0  0  0  0  0  0  0
   58.0090   30.9120   51.7410 C   0  0  0  0  0  0  0  0  0  0  0  0
   57.4698   30.9251   52.6997 H   0  0  0  0  0  0  0  0  0  0  0  0
   57.8110   31.9380   50.8140 C   0  0  0  0  0  0  0  0  0  0  0  0
   57.1257   32.7658   51.0487 H   0  0  0  0  0  0  0  0  0  0  0  0
   58.4830   31.9140   49.5880 C   0  0  0  0  0  0  0  0  0  0  0  0
   58.3324   32.7304   48.8664 H   0  0  0  0  0  0  0  0  0  0  0  0
   60.8970   29.3690   46.0680 C   0  0  0  0  0  0  0  0  0  0  0  0
   61.5241   30.2690   45.9855 H   0  0  0  0  0  0  0  0  0  0  0  0
   61.5121   28.4604   46.1462 H   0  0  0  0  0  0  0  0  0  0  0  0
   60.0340   29.2490   44.8040 C   0  0  0  0  0  0  0  0  0  0  0  0
   59.4072   30.1483   44.7124 H   0  0  0  0  0  0  0  0  0  0  0  0
   60.7037   29.1484   43.9372 H   0  0  0  0  0  0  0  0  0  0  0  0
   58.1130   32.3860   46.1600 S   0  0  0  0  0  0  0  0  0  0  0  0
   58.8210   33.9110   46.0790 C   0  0  0  0  0  0  0  0  0  0  0  0
   59.2400   34.9250   47.4950 S   0  0  0  0  0  0  0  0  0  0  0  0
   60.8420   34.1330   47.6960 C   0  0  0  0  0  0  0  0  0  0  0  0
   61.6090   33.8350   46.5630 C   0  0  0  0  0  0  0  0  0  0  0  0
   61.2365   34.1017   45.5629 H   0  0  0  0  0  0  0  0  0  0  0  0
   62.8460   33.2000   46.6990 C   0  0  0  0  0  0  0  0  0  0  0  0
   63.4441   32.9650   45.8062 H   0  0  0  0  0  0  0  0  0  0  0  0
   63.3230   32.8640   47.9650 C   0  0  0  0  0  0  0  0  0  0  0  0
   64.2953   32.3602   48.0692 H   0  0  0  0  0  0  0  0  0  0  0  0
   62.5680   33.1660   49.1030 C   0  0  0  0  0  0  0  0  0  0  0  0
   62.9506   32.9026   50.1001 H   0  0  0  0  0  0  0  0  0  0  0  0
   61.3180   33.8070   48.9770 C   0  0  0  0  0  0  0  0  0  0  0  0
   60.5290   34.1270   50.0940 O   0  0  0  0  0  0  0  0  0  0  0  0
   60.7130   33.5770   51.3970 C   0  0  0  0  0  0  0  0  0  0  0  0
   60.4597   34.3341   52.1537 H   0  0  0  0  0  0  0  0  0  0  0  0
   60.0589   32.7014   51.5211 H   0  0  0  0  0  0  0  0  0  0  0  0
   61.7624   33.2713   51.5211 H   0  0  0  0  0  0  0  0  0  0  0  0
  1  2  1  0
  2  3  1  0
  3  4  1  0
  4  5  2  0
  5  6  1  0
  6  7  2  0
  6  8  1  0
  8  9  2  0
  8 10  1  0
 10 11  1  0
 11 12  1  0
 11 13  1  0
 13 14  1  0
 13 15  1  0
 13 16  1  0
 16 17  1  0
 16 18  1  0
 16 19  1  0
 19 20  1  0
 20 21  1  0
 20 22  1  0
 20 23  1  0
 23 24  2  0
 24 25  1  0
 24 26  1  0
 26 27  1  0
 26 28  2  0
 28 29  1  0
 28 30  1  0
 30 31  1  0
 30 32  2  0
 32 33  1  0
 19 34  1  0
 34 35  1  0
 34 36  1  0
 34 37  1  0
 37 38  1  0
 37 39  1  0
  4 40  1  0
 40 41  1  0
 41 42  1  0
 42 43  1  0
 43 44  2  0
 44 45  1  0
 44 46  1  0
 46 47  1  0
 46 48  2  0
 48 49  1  0
 48 50  1  0
 50 51  1  0
 50 52  2  0
 52 53  1  0
 53 54  1  0
 54 55  1  0
 54 56  1  0
 54 57  1  0
 41  2  2  0
 52 43  1  0
 37 11  1  0
 32 23  1  0
M  CHG  2   3  -1  10  -1
M  END
>  <UniqueID>  (26) 
24

>  <SMILES>  (26) 
COc1ccccc1Sc1c[n-]/c(=N\C(=O)C(=O)[N-]C2CCN(Cc3ccccc3)CC2)s1

>  <Energy>  (26) 
100.93980286797337

>  <Genealogy>  (26) 
COc1ccccc1Sc1c[n-]c(=NC(=O)C(=O)[N-]C2CCN(Cc3ccccc3)CC2)s1 (protonated)
COc1ccccc1Sc1c[n-]/c(=N\C(=O)C(=O)[N-]C2CCN(Cc3ccccc3)CC2)s1 (cis-trans isomerization)
COc1ccccc1Sc1c[n-]/c(=N\C(=O)C(=O)[N-]C2CCN(Cc3ccccc3)CC2)s1 (3D coordinates assigned)
COc1ccccc1Sc1c[n-]/c(=N\C(=O)C(=O)[N-]C2CCN(Cc3ccccc3)CC2)s1 (nonaromatic ring conformer: 100.93980286797337 kcal/mol)

>  <smiles>  (26) 
COc1ccccc1Sc1c[nH]c(=NC(=O)C(=O)NC2CCN(Cc3ccccc3)CC2)s1

>  <score_type>  (26) 
oracle

>  <origin>  (26) 
adg

>  <m_score__min__energy>  (26) 
-12.25

>  <m_primary>  (26) 
energy

$$$$
26:0
     RDKit          3D

 35 37  0  0  0  0  0  0  0  0999 V2000
   60.9614   29.4826   46.6732 H   0  0  0  0  0  0  0  0  0  0  0  0
   60.5510   28.6710   47.2920 C   0  0  0  0  0  0  0  0  0  0  0  0
   61.0245   28.4183   48.2522 H   0  0  0  0  0  0  0  0  0  0  0  0
   59.4740   27.9900   46.8760 C   0  0  0  0  0  0  0  0  0  0  0  0
   59.0300   27.0050   47.6960 N   0  0  0  0  0  0  0  0  0  0  0  0
   58.0910   26.1100   47.3160 C   0  0  0  0  0  0  0  0  0  0  0  0
   57.7080   25.2370   48.1410 O   0  0  0  0  0  0  0  0  0  0  0  0
   57.5830   26.1440   46.0490 N   0  0  0  0  0  0  0  0  0  0  0  0
   56.6250   25.1500   45.6350 C   0  0  0  0  0  0  0  0  0  0  0  0
   57.0610   23.8720   45.2510 C   0  0  0  0  0  0  0  0  0  0  0  0
   58.1341   23.6309   45.2690 H   0  0  0  0  0  0  0  0  0  0  0  0
   56.1370   22.9050   44.8460 C   0  0  0  0  0  0  0  0  0  0  0  0
   56.4842   21.9054   44.5457 H   0  0  0  0  0  0  0  0  0  0  0  0
   54.7730   23.2060   44.8220 C   0  0  0  0  0  0  0  0  0  0  0  0
   54.0474   22.4442   44.5008 H   0  0  0  0  0  0  0  0  0  0  0  0
   54.3300   24.4750   45.2060 C   0  0  0  0  0  0  0  0  0  0  0  0
   53.2556   24.7100   45.1874 H   0  0  0  0  0  0  0  0  0  0  0  0
   55.2500   25.4470   45.6140 C   0  0  0  0  0  0  0  0  0  0  0  0
   54.7960   26.7020   46.0030 O   0  0  0  0  0  0  0  0  0  0  0  0
   57.9600   27.1380   45.1830 C   0  0  0  0  0  0  0  0  0  0  0  0
   57.4690   27.1590   44.0180 O   0  0  0  0  0  0  0  0  0  0  0  0
   58.8660   28.1540   45.5930 C   0  0  0  0  0  0  0  0  0  0  0  0
   59.0740   29.2150   44.7640 C   0  0  0  0  0  0  0  0  0  0  0  0
   59.6477   29.0219   43.8455 H   0  0  0  0  0  0  0  0  0  0  0  0
   58.6040   30.6010   44.9780 C   0  0  0  0  0  0  0  0  0  0  0  0
   57.7940   31.2470   44.0280 C   0  0  0  0  0  0  0  0  0  0  0  0
   57.4715   30.7074   43.1253 H   0  0  0  0  0  0  0  0  0  0  0  0
   57.3970   32.5720   44.2260 C   0  0  0  0  0  0  0  0  0  0  0  0
   56.7477   33.0661   43.4882 H   0  0  0  0  0  0  0  0  0  0  0  0
   57.8230   33.2720   45.3600 C   0  0  0  0  0  0  0  0  0  0  0  0
   57.4210   34.5880   45.5470 O   0  0  0  0  0  0  0  0  0  0  0  0
   58.6560   32.6440   46.2970 C   0  0  0  0  0  0  0  0  0  0  0  0
   59.2650   33.5850   47.8470 Br  0  0  0  0  0  0  0  0  0  0  0  0
   59.0530   31.3160   46.0990 C   0  0  0  0  0  0  0  0  0  0  0  0
   59.7205   30.8304   46.8261 H   0  0  0  0  0  0  0  0  0  0  0  0
  1  2  1  0
  2  3  1  0
  2  4  2  0
  4  5  1  0
  5  6  1  0
  6  7  2  0
  6  8  1  0
  8  9  1  0
  9 10  2  0
 10 11  1  0
 10 12  1  0
 12 13  1  0
 12 14  2  0
 14 15  1  0
 14 16  1  0
 16 17  1  0
 16 18  2  0
 18 19  1  0
  8 20  1  0
 20 21  2  0
 20 22  1  0
 22 23  2  0
 23 24  1  0
 23 25  1  0
 25 26  2  0
 26 27  1  0
 26 28  1  0
 28 29  1  0
 28 30  2  0
 30 31  1  0
 30 32  1  0
 32 33  1  0
 32 34  2  0
 34 35  1  0
 22  4  1  0
 34 25  1  0
 18  9  1  0
M  CHG  3   5  -1  19  -1  31  -1
M  END
>  <UniqueID>  (27) 
25

>  <SMILES>  (27) 
C=c1[n-]c(=O)n(-c2ccccc2[O-])c(=O)/c1=C/c1ccc([O-])c(Br)c1

>  <Energy>  (27) 
72.41836762326263

>  <Genealogy>  (27) 
C=c1[n-]c(=O)n(-c2ccccc2[O-])c(=O)c1=Cc1ccc([O-])c(Br)c1 (protonated)
C=c1[n-]c(=O)n(-c2ccccc2[O-])c(=O)/c1=C/c1ccc([O-])c(Br)c1 (cis-trans isomerization)
C=c1[n-]c(=O)n(-c2ccccc2[O-])c(=O)/c1=C/c1ccc([O-])c(Br)c1 (3D coordinates assigned)
C=c1[n-]c(=O)n(-c2ccccc2[O-])c(=O)/c1=C/c1ccc([O-])c(Br)c1 (optimized conformer: 72.41836762326263 kcal/mol)

>  <smiles>  (27) 
C=c1[nH]c(=O)n(-c2ccccc2O)c(=O)c1=Cc1ccc(O)c(Br)c1

>  <score_type>  (27) 
oracle

>  <origin>  (27) 
adg

>  <m_score__min__energy>  (27) 
-13.51

>  <m_primary>  (27) 
energy

$$$$
27:0
     RDKit          3D

 50 53  0  0  0  0  0  0  0  0999 V2000
   56.9770   29.2040   43.0290 C   0  0  0  0  0  0  0  0  0  0  0  0
   57.5760   29.2500   44.2320 C   0  0  0  0  0  0  0  0  0  0  0  0
   57.8480   28.1660   45.0860 C   0  0  0  0  0  0  0  0  0  0  0  0
   57.7690   26.8380   44.8760 C   0  0  0  0  0  0  0  0  0  0  0  0
   57.2240   25.8570   45.8290 C   0  0  0  0  0  0  0  0  0  0  0  0
   57.9420   24.8710   46.3950 N   0  0  0  0  0  0  0  0  0  0  0  0
   57.0540   24.2770   47.2200 C   0  0  0  0  0  0  0  0  0  0  0  0
   57.3560   23.2830   47.9310 O   0  0  0  0  0  0  0  0  0  0  0  0
   55.8190   24.8350   47.2240 N   0  0  0  0  0  0  0  0  0  0  0  0
   55.9500   25.8390   46.3420 C   0  0  0  0  0  0  0  0  0  0  0  0
   54.9250   26.7160   46.0130 O   0  0  0  0  0  0  0  0  0  0  0  0
   58.2370   28.7150   46.2990 C   0  0  0  0  0  0  0  0  0  0  0  0
   58.2210   30.0830   46.1390 C   0  0  0  0  0  0  0  0  0  0  0  0
   58.5050   31.0630   47.1960 C   0  0  0  0  0  0  0  0  0  0  0  0
   58.6070   30.6550   48.3920 O   0  0  0  0  0  0  0  0  0  0  0  0
   58.7800   32.4410   46.8800 N   0  0  0  0  0  0  0  0  0  0  0  0
   57.6990   33.4070   46.6970 C   0  0  0  0  0  0  0  0  0  0  0  0
   58.3140   34.5930   45.9590 C   0  0  0  0  0  0  0  0  0  0  0  0
   59.8290   34.4240   46.0860 C   0  0  0  0  0  0  0  0  0  0  0  0
   60.0550   32.9360   46.3690 C   0  0  1  0  0  0  0  0  0  0  0  0
   61.2020   32.7210   47.3300 C   0  0  0  0  0  0  0  0  0  0  0  0
   61.1970   31.8480   48.3740 N   0  0  0  0  0  0  0  0  0  0  0  0
   62.3880   31.8370   49.0450 C   0  0  0  0  0  0  0  0  0  0  0  0
   62.6610   30.8840   50.1670 C   0  0  0  0  0  0  0  0  0  0  0  0
   63.3400   32.7310   48.5420 C   0  0  0  0  0  0  0  0  0  0  0  0
   64.7360   32.9170   49.0410 C   0  0  0  0  0  0  0  0  0  0  0  0
   62.6700   33.5440   47.2260 S   0  0  0  0  0  0  0  0  0  0  0  0
   57.8600   30.4120   44.8780 N   0  0  0  0  0  0  0  0  0  0  0  0
   57.6370   31.7750   44.3830 C   0  0  0  0  0  0  0  0  0  0  0  0
   56.8218   30.1301   42.4561 H   0  0  0  0  0  0  0  0  0  0  0  0
   56.6422   28.2403   42.6178 H   0  0  0  0  0  0  0  0  0  0  0  0
   58.1419   26.4553   43.9145 H   0  0  0  0  0  0  0  0  0  0  0  0
   58.5063   28.1642   47.2123 H   0  0  0  0  0  0  0  0  0  0  0  0
   56.8881   32.9643   46.1000 H   0  0  0  0  0  0  0  0  0  0  0  0
   57.2654   33.7133   47.6604 H   0  0  0  0  0  0  0  0  0  0  0  0
   58.0149   34.5821   44.9005 H   0  0  0  0  0  0  0  0  0  0  0  0
   57.9771   35.5511   46.3815 H   0  0  0  0  0  0  0  0  0  0  0  0
   60.3278   34.7170   45.1504 H   0  0  0  0  0  0  0  0  0  0  0  0
   60.2438   35.0577   46.8837 H   0  0  0  0  0  0  0  0  0  0  0  0
   60.3507   32.3827   45.4654 H   0  0  0  0  0  0  0  0  0  0  0  0
   60.3830   31.2310   48.6120 H   0  0  0  0  0  0  0  0  0  0  0  0
   62.5138   31.3978   51.1285 H   0  0  0  0  0  0  0  0  0  0  0  0
   61.9715   30.0297   50.0984 H   0  0  0  0  0  0  0  0  0  0  0  0
   63.6983   30.5244   50.0984 H   0  0  0  0  0  0  0  0  0  0  0  0
   64.7353   32.9169   50.1410 H   0  0  0  0  0  0  0  0  0  0  0  0
   65.3689   32.0952   48.6747 H   0  0  0  0  0  0  0  0  0  0  0  0
   65.1316   33.8758   48.6747 H   0  0  0  0  0  0  0  0  0  0  0  0
   57.5248   32.4609   45.2356 H   0  0  0  0  0  0  0  0  0  0  0  0
   58.4959   32.0880   43.7711 H   0  0  0  0  0  0  0  0  0  0  0  0
   56.7232   31.7980   43.7711 H   0  0  0  0  0  0  0  0  0  0  0  0
  1  2  2  0
  2  3  1  0
  3  4  2  3
  4  5  1  0
  5  6  1  0
  6  7  1  0
  7  8  2  0
  7  9  1  0
  9 10  1  0
 10 11  1  0
  3 12  1  0
 12 13  2  0
 13 14  1  0
 14 15  2  0
 14 16  1  0
 16 17  1  0
 17 18  1  0
 18 19  1  0
 19 20  1  0
 20 21  1  0
 21 22  2  0
 22 23  1  0
 23 24  1  0
 23 25  2  0
 25 26  1  0
 25 27  1  0
 13 28  1  0
 28 29  1  0
 28  2  1  0
 10  5  2  0
 20 16  1  0
 27 21  1  0
  1 30  1  0
  1 31  1  0
  4 32  1  0
 12 33  1  0
 17 34  1  0
 17 35  1  0
 18 36  1  0
 18 37  1  0
 19 38  1  0
 19 39  1  0
 20 40  1  6
 22 41  1  0
 24 42  1  0
 24 43  1  0
 24 44  1  0
 26 45  1  0
 26 46  1  0
 26 47  1  0
 29 48  1  0
 29 49  1  0
 29 50  1  0
M  CHG  4   6  -1   9  -1  11  -1  22   1
M  END
>  <UniqueID>  (28) 
26

>  <SMILES>  (28) 
C=c1c(=Cc2[n-]c(=O)[n-]c2[O-])cc(C(=O)N2CCC[C@H]2c2[nH+]c(C)c(C)s2)n1C

>  <Energy>  (28) 
155.3364264761418

>  <Genealogy>  (28) 
C=c1c(=Cc2[n-]c(=O)[n-]c2[O-])cc(C(=O)N2CCCC2c2[nH+]c(C)c(C)s2)n1C (protonated)
C=c1c(=Cc2[n-]c(=O)[n-]c2[O-])cc(C(=O)N2CCC[C@H]2c2[nH+]c(C)c(C)s2)n1C (chirality)
C=c1c(=Cc2[n-]c(=O)[n-]c2[O-])cc(C(=O)N2CCC[C@H]2c2[nH+]c(C)c(C)s2)n1C (3D coordinates assigned)
C=c1c(=Cc2[n-]c(=O)[n-]c2[O-])cc(C(=O)N2CCC[C@H]2c2[nH+]c(C)c(C)s2)n1C (nonaromatic ring conformer: 155.3364264761418 kcal/mol)

>  <smiles>  (28) 
C=c1c(=Cc2[nH]c(=O)[nH]c2O)cc(C(=O)N2CCCC2c2nc(C)c(C)s2)n1C

>  <score_type>  (28) 
oracle

>  <origin>  (28) 
adg

>  <m_score__min__energy>  (28) 
-16.68

>  <m_primary>  (28) 
energy

$$$$
28:0
     RDKit          3D

 35 37  0  0  0  0  0  0  0  0999 V2000
   55.1660   29.1470   44.5500 N   0  0  0  0  0  0  0  0  0  0  0  0
   56.2950   29.9920   44.7830 C   0  0  0  0  0  0  0  0  0  0  0  0
   56.2180   31.2150   44.4940 O   0  0  0  0  0  0  0  0  0  0  0  0
   57.5330   29.4570   45.3930 C   0  0  0  0  0  0  0  0  0  0  0  0
   58.5990   30.2440   45.8960 C   0  0  0  0  0  0  0  0  0  0  0  0
   58.5850   31.7180   46.0270 C   0  0  0  0  0  0  0  0  0  0  0  0
   58.5100   32.3130   47.2990 C   0  0  0  0  0  0  0  0  0  0  0  0
   58.4830   33.7050   47.4260 C   0  0  0  0  0  0  0  0  0  0  0  0
   58.5190   34.5130   46.2870 C   0  0  0  0  0  0  0  0  0  0  0  0
   58.5780   33.9320   45.0180 C   0  0  0  0  0  0  0  0  0  0  0  0
   58.6050   32.5400   44.8860 C   0  0  0  0  0  0  0  0  0  0  0  0
   59.6750   29.4840   46.3560 C   0  0  0  0  0  0  0  0  0  0  0  0
   59.3050   27.8550   46.1780 S   0  0  0  0  0  0  0  0  0  0  0  0
   57.7930   28.0910   45.4810 C   0  0  0  0  0  0  0  0  0  0  0  0
   56.8690   27.0590   45.1100 N   0  0  0  0  0  0  0  0  0  0  0  0
   56.1450   26.1970   45.9980 C   0  0  0  0  0  0  0  0  0  0  0  0
   54.9110   26.3950   46.1560 O   0  0  0  0  0  0  0  0  0  0  0  0
   56.8180   25.0700   46.7340 C   0  0  0  0  0  0  0  0  0  0  0  0
   56.6980   23.7790   45.9830 C   0  0  0  0  0  0  0  0  0  0  0  0
   56.2900   23.6340   44.3540 S   0  0  0  0  0  0  0  0  0  0  0  0
   56.4710   21.9620   44.3740 C   0  0  0  0  0  0  0  0  0  0  0  0
   56.2840   21.2180   43.3780 O   0  0  0  0  0  0  0  0  0  0  0  0
   56.8450   21.4930   45.5830 N   0  0  0  0  0  0  0  0  0  0  0  0
   56.9770   22.5070   46.4790 C   0  0  0  0  0  0  0  0  0  0  0  0
   57.3690   22.2750   47.7910 O   0  0  0  0  0  0  0  0  0  0  0  0
   54.3150   29.5270   44.0800 H   0  0  0  0  0  0  0  0  0  0  0  0
   55.1450   28.1650   44.9020 H   0  0  0  0  0  0  0  0  0  0  0  0
   58.4724   31.6803   48.1981 H   0  0  0  0  0  0  0  0  0  0  0  0
   58.4333   34.1646   48.4241 H   0  0  0  0  0  0  0  0  0  0  0  0
   58.5009   35.6081   46.3895 H   0  0  0  0  0  0  0  0  0  0  0  0
   58.6032   34.5697   44.1221 H   0  0  0  0  0  0  0  0  0  0  0  0
   58.6421   32.0858   43.8848 H   0  0  0  0  0  0  0  0  0  0  0  0
   60.6124   29.8859   46.7679 H   0  0  0  0  0  0  0  0  0  0  0  0
   57.8834   25.3119   46.8623 H   0  0  0  0  0  0  0  0  0  0  0  0
   56.3250   24.9503   47.7100 H   0  0  0  0  0  0  0  0  0  0  0  0
  1  2  1  0
  2  3  2  0
  2  4  1  0
  4  5  1  0
  5  6  1  0
  6  7  2  0
  7  8  1  0
  8  9  2  0
  9 10  1  0
 10 11  2  0
  5 12  2  0
 12 13  1  0
 13 14  1  0
 14 15  1  0
 15 16  1  0
 16 17  2  0
 16 18  1  0
 18 19  1  0
 19 20  1  0
 20 21  1  0
 21 22  2  0
 21 23  1  0
 23 24  1  0
 24 25  1  0
 14  4  2  0
 24 19  2  0
 11  6  1  0
  1 26  1  0
  1 27  1  0
  7 28  1  0
  8 29  1  0
  9 30  1  0
 10 31  1  0
 11 32  1  0
 12 33  1  0
 18 34  1  0
 18 35  1  0
M  CHG  3  15  -1  23  -1  25  -1
M  END
>  <UniqueID>  (29) 
27

>  <SMILES>  (29) 
NC(=O)c1c(-c2ccccc2)csc1[N-]C(=O)Cc1sc(=O)[n-]c1[O-]

>  <Energy>  (29) 
105.36201247334124

>  <Genealogy>  (29) 
NC(=O)c1c(-c2ccccc2)csc1[N-]C(=O)Cc1sc(=O)[n-]c1[O-] (protonated)
NC(=O)c1c(-c2ccccc2)csc1[N-]C(=O)Cc1sc(=O)[n-]c1[O-] (3D coordinates assigned)
NC(=O)c1c(-c2ccccc2)csc1[N-]C(=O)Cc1sc(=O)[n-]c1[O-] (optimized conformer: 105.36201247334124 kcal/mol)

>  <smiles>  (29) 
NC(=O)c1c(-c2ccccc2)csc1NC(=O)Cc1sc(=O)[nH]c1O

>  <score_type>  (29) 
oracle

>  <origin>  (29) 
adg

>  <m_score__min__energy>  (29) 
-15.48

>  <m_primary>  (29) 
energy

$$$$
29:0
     RDKit          3D

 31 32  0  0  0  0  0  0  0  0999 V2000
   60.1810   34.2020   49.7280 C   0  0  0  0  0  0  0  0  0  0  0  0
   59.4050   34.5150   48.5760 O   0  0  0  0  0  0  0  0  0  0  0  0
   58.9260   33.5650   47.6620 C   0  0  0  0  0  0  0  0  0  0  0  0
   58.1830   33.9210   46.5200 C   0  0  0  0  0  0  0  0  0  0  0  0
   57.7280   32.9360   45.6380 C   0  0  0  0  0  0  0  0  0  0  0  0
   58.0080   31.5810   45.8820 C   0  0  0  0  0  0  0  0  0  0  0  0
   57.5430   30.5170   44.9240 C   0  0  0  0  0  0  0  0  0  0  0  0
   58.3570   29.2590   45.0850 C   0  0  0  0  0  0  0  0  0  0  0  0
   59.5680   29.2820   44.7330 O   0  0  0  0  0  0  0  0  0  0  0  0
   57.7710   27.9990   45.6180 C   0  0  0  0  0  0  0  0  0  0  0  0
   58.5930   27.0220   46.2100 C   0  0  0  0  0  0  0  0  0  0  0  0
   58.0470   25.8400   46.7140 C   0  0  0  0  0  0  0  0  0  0  0  0
   56.6730   25.6110   46.6320 C   0  0  0  0  0  0  0  0  0  0  0  0
   56.1380   24.4300   47.1340 O   0  0  0  0  0  0  0  0  0  0  0  0
   55.8400   26.5670   46.0450 C   0  0  0  0  0  0  0  0  0  0  0  0
   54.4700   26.3380   45.9650 O   0  0  0  0  0  0  0  0  0  0  0  0
   56.3800   27.7580   45.5400 C   0  0  0  0  0  0  0  0  0  0  0  0
   55.5240   28.7020   44.9790 O   0  0  0  0  0  0  0  0  0  0  0  0
   58.7470   31.2290   47.0210 C   0  0  0  0  0  0  0  0  0  0  0  0
   59.2000   32.2140   47.9020 C   0  0  0  0  0  0  0  0  0  0  0  0
   59.6026   34.4353   50.6341 H   0  0  0  0  0  0  0  0  0  0  0  0
   60.4340   33.1315   49.7199 H   0  0  0  0  0  0  0  0  0  0  0  0
   61.1059   34.7974   49.7199 H   0  0  0  0  0  0  0  0  0  0  0  0
   57.9594   34.9794   46.3207 H   0  0  0  0  0  0  0  0  0  0  0  0
   57.1479   33.2234   44.7487 H   0  0  0  0  0  0  0  0  0  0  0  0
   56.4852   30.2900   45.1229 H   0  0  0  0  0  0  0  0  0  0  0  0
   57.6682   30.8888   43.8963 H   0  0  0  0  0  0  0  0  0  0  0  0
   59.6778   27.1915   46.2764 H   0  0  0  0  0  0  0  0  0  0  0  0
   58.7018   25.0871   47.1770 H   0  0  0  0  0  0  0  0  0  0  0  0
   58.9712   30.1710   47.2218 H   0  0  0  0  0  0  0  0  0  0  0  0
   59.7774   31.9249   48.7925 H   0  0  0  0  0  0  0  0  0  0  0  0
  1  2  1  0
  2  3  1  0
  3  4  2  0
  4  5  1  0
  5  6  2  0
  6  7  1  0
  7  8  1  0
  8  9  2  0
  8 10  1  0
 10 11  2  0
 11 12  1  0
 12 13  2  0
 13 14  1  0
 13 15  1  0
 15 16  1  0
 15 17  2  0
 17 18  1  0
  6 19  1  0
 19 20  2  0
 20  3  1  0
 17 10  1  0
  1 21  1  0
  1 22  1  0
  1 23  1  0
  4 24  1  0
  5 25  1  0
  7 26  1  0
  7 27  1  0
 11 28  1  0
 12 29  1  0
 19 30  1  0
 20 31  1  0
M  CHG  3  14  -1  16  -1  18  -1
M  END
>  <UniqueID>  (30) 
28

>  <SMILES>  (30) 
COc1ccc(CC(=O)c2ccc([O-])c([O-])c2[O-])cc1

>  <Energy>  (30) 
34.152856054576105

>  <Genealogy>  (30) 
COc1ccc(CC(=O)c2ccc([O-])c([O-])c2[O-])cc1 (protonated)
COc1ccc(CC(=O)c2ccc([O-])c([O-])c2[O-])cc1 (3D coordinates assigned)
COc1ccc(CC(=O)c2ccc([O-])c([O-])c2[O-])cc1 (optimized conformer: 34.152856054576105 kcal/mol)

>  <smiles>  (30) 
COc1ccc(CC(=O)c2ccc(O)c(O)c2O)cc1

>  <score_type>  (30) 
oracle

>  <origin>  (30) 
adg

>  <m_score__min__energy>  (30) 
-16.16

>  <m_primary>  (30) 
energy

$$$$
30:0
     RDKit          3D

 50 54  0  0  0  0  0  0  0  0999 V2000
   65.2470   31.6550   51.2260 H   0  0  0  0  0  0  0  0  0  0  0  0
   65.3060   31.7190   50.1850 N   0  0  0  0  0  0  0  0  0  0  0  0
   64.2900   32.0850   49.4710 C   0  0  0  0  0  0  0  0  0  0  0  0
   63.2670   31.2170   49.2430 N   0  0  0  0  0  0  0  0  0  0  0  0
   62.1830   31.5620   48.4990 C   0  0  0  0  0  0  0  0  0  0  0  0
   61.3749   30.8332   48.3380 H   0  0  0  0  0  0  0  0  0  0  0  0
   62.0900   32.8470   47.9340 C   0  0  0  0  0  0  0  0  0  0  0  0
   60.9270   33.2280   47.0910 C   0  0  0  0  0  0  0  0  0  0  0  0
   60.7160   34.5810   46.7120 C   0  0  0  0  0  0  0  0  0  0  0  0
   61.4365   35.3512   47.0245 H   0  0  0  0  0  0  0  0  0  0  0  0
   59.5970   34.9480   45.9420 C   0  0  0  0  0  0  0  0  0  0  0  0
   59.4247   35.9966   45.6579 H   0  0  0  0  0  0  0  0  0  0  0  0
   58.7140   33.9450   45.5500 C   0  0  0  0  0  0  0  0  0  0  0  0
   58.9210   32.6330   45.8850 C   0  0  0  0  0  0  0  0  0  0  0  0
   60.0050   32.2420   46.6730 C   0  0  0  0  0  0  0  0  0  0  0  0
   60.1386   31.1892   46.9623 H   0  0  0  0  0  0  0  0  0  0  0  0
   57.8560   31.9160   45.3680 C   0  0  0  0  0  0  0  0  0  0  0  0
   57.6100   30.4660   45.4590 C   0  0  0  0  0  0  0  0  0  0  0  0
   56.6160   29.9660   44.8670 O   0  0  0  0  0  0  0  0  0  0  0  0
   58.5120   29.5920   46.2280 C   0  0  0  0  0  0  0  0  0  0  0  0
   59.4060   28.7420   45.5680 C   0  0  0  0  0  0  0  0  0  0  0  0
   59.4269   28.7053   44.4688 H   0  0  0  0  0  0  0  0  0  0  0  0
   60.2700   27.9420   46.3140 C   0  0  0  0  0  0  0  0  0  0  0  0
   60.9560   27.2515   45.8016 H   0  0  0  0  0  0  0  0  0  0  0  0
   60.2690   28.0110   47.6730 N   0  0  0  0  0  0  0  0  0  0  0  0
   60.9450   27.4140   48.2020 H   0  0  0  0  0  0  0  0  0  0  0  0
   59.4460   28.8630   48.3500 C   0  0  0  0  0  0  0  0  0  0  0  0
   59.5490   28.9340   49.6490 N   0  0  0  0  0  0  0  0  0  0  0  0
   58.9520   29.9200   50.5070 C   0  0  0  0  0  0  0  0  0  0  0  0
   57.9460   29.5940   51.1920 O   0  0  0  0  0  0  0  0  0  0  0  0
   59.5400   31.2750   50.6590 C   0  0  0  0  0  0  0  0  0  0  0  0
   58.9800   32.3710   49.9840 C   0  0  0  0  0  0  0  0  0  0  0  0
   58.0969   32.2325   49.3429 H   0  0  0  0  0  0  0  0  0  0  0  0
   59.5490   33.6380   50.1300 C   0  0  0  0  0  0  0  0  0  0  0  0
   59.1169   34.4981   49.5976 H   0  0  0  0  0  0  0  0  0  0  0  0
   60.6350   33.8110   50.9280 N   0  0  0  0  0  0  0  0  0  0  0  0
   61.1960   32.7730   51.6030 C   0  0  0  0  0  0  0  0  0  0  0  0
   62.2730   32.9890   52.3940 F   0  0  0  0  0  0  0  0  0  0  0  0
   60.6570   31.4890   51.4860 C   0  0  0  0  0  0  0  0  0  0  0  0
   61.1045   30.6495   52.0383 H   0  0  0  0  0  0  0  0  0  0  0  0
   58.5160   29.6410   47.6270 C   0  0  0  0  0  0  0  0  0  0  0  0
   57.7985   30.2822   48.1600 H   0  0  0  0  0  0  0  0  0  0  0  0
   57.0350   32.8560   44.7520 C   0  0  0  0  0  0  0  0  0  0  0  0
   56.0842   32.6255   44.2491 H   0  0  0  0  0  0  0  0  0  0  0  0
   57.5710   34.0920   44.8590 N   0  0  0  0  0  0  0  0  0  0  0  0
   57.1670   34.9820   44.4890 H   0  0  0  0  0  0  0  0  0  0  0  0
   63.1420   33.7520   48.1620 C   0  0  0  0  0  0  0  0  0  0  0  0
   63.0969   34.7637   47.7324 H   0  0  0  0  0  0  0  0  0  0  0  0
   64.2430   33.3720   48.9310 C   0  0  0  0  0  0  0  0  0  0  0  0
   65.0660   34.0796   49.1100 H   0  0  0  0  0  0  0  0  0  0  0  0
  1  2  1  0
  2  3  2  0
  3  4  1  0
  4  5  1  0
  5  6  1  0
  5  7  2  0
  7  8  1  0
  8  9  2  0
  9 10  1  0
  9 11  1  0
 11 12  1  0
 11 13  2  0
 13 14  1  0
 14 15  2  0
 15 16  1  0
 14 17  1  0
 17 18  1  0
 18 19  2  0
 18 20  1  0
 20 21  1  0
 21 22  1  0
 21 23  2  0
 23 24  1  0
 23 25  1  0
 25 26  1  0
 25 27  1  0
 27 28  2  3
 28 29  1  0
 29 30  2  0
 29 31  1  0
 31 32  2  0
 32 33  1  0
 32 34  1  0
 34 35  1  0
 34 36  2  0
 36 37  1  0
 37 38  1  0
 37 39  2  0
 39 40  1  0
 27 41  1  0
 41 42  1  0
 17 43  2  0
 43 44  1  0
 43 45  1  0
 45 46  1  0
  7 47  1  0
 47 48  1  0
 47 49  2  0
 49 50  1  0
 49  3  1  0
 15  8  1  0
 41 20  2  0
 45 13  1  0
 39 31  1  0
M  CHG  1   4  -1
M  END
>  <UniqueID>  (31) 
29

>  <SMILES>  (31) 
[H]/N=c1/ccc(-c2ccc3[nH]cc(C(=O)c4cc[nH]c(=NC(=O)c5ccnc(F)c5)c4)c3c2)c[n-]1

>  <Energy>  (31) 
110.86819548999132

>  <Genealogy>  (31) 
N=c1ccc(-c2ccc3[nH]cc(C(=O)c4cc[nH]c(=NC(=O)c5ccnc(F)c5)c4)c3c2)c[n-]1 (protonated)
[H]/N=c1/ccc(-c2ccc3[nH]cc(C(=O)c4cc[nH]c(=NC(=O)c5ccnc(F)c5)c4)c3c2)c[n-]1 (cis-trans isomerization)
[H]/N=c1/ccc(-c2ccc3[nH]cc(C(=O)c4cc[nH]c(=NC(=O)c5ccnc(F)c5)c4)c3c2)c[n-]1 (3D coordinates assigned)
[H]/N=c1/ccc(-c2ccc3[nH]cc(C(=O)c4cc[nH]c(=NC(=O)c5ccnc(F)c5)c4)c3c2)c[n-]1 (optimized conformer: 110.86819548999132 kcal/mol)

>  <smiles>  (31) 
N=c1ccc(-c2ccc3[nH]cc(C(=O)c4cc[nH]c(=NC(=O)c5ccnc(F)c5)c4)c3c2)c[nH]1

>  <score_type>  (31) 
oracle

>  <origin>  (31) 
adg

>  <m_score__min__energy>  (31) 
-11.01

>  <m_primary>  (31) 
energy

$$$$
31:0
     RDKit          3D

 52 55  0  0  0  0  0  0  0  0999 V2000
   59.4390   32.9970   50.5280 O   0  0  0  0  0  0  0  0  0  0  0  0
   59.1950   31.7620   50.4680 C   0  0  0  0  0  0  0  0  0  0  0  0
   59.9870   30.9460   49.5920 N   0  0  0  0  0  0  0  0  0  0  0  0
   59.4930   30.0620   48.5730 C   0  0  0  0  0  0  0  0  0  0  0  0
   59.4540   28.6680   48.7710 C   0  0  0  0  0  0  0  0  0  0  0  0
   58.9490   27.8280   47.7760 C   0  0  0  0  0  0  0  0  0  0  0  0
   58.4980   28.3630   46.5690 C   0  0  0  0  0  0  0  0  0  0  0  0
   58.5630   29.7410   46.3480 C   0  0  0  0  0  0  0  0  0  0  0  0
   59.0680   30.5960   47.3410 C   0  0  0  0  0  0  0  0  0  0  0  0
   59.1590   32.0070   47.0920 N   0  0  0  0  0  0  0  0  0  0  0  0
   58.0740   32.6660   46.3630 C   0  0  0  0  0  0  0  0  0  0  0  0
   58.1510   34.1770   46.5720 C   0  0  0  0  0  0  0  0  0  0  0  0
   59.4410   34.6520   46.2440 O   0  0  0  0  0  0  0  0  0  0  0  0
   60.3760   34.1570   47.1840 C   0  0  0  0  0  0  0  0  0  0  0  0
   60.4870   32.6260   47.1180 C   0  0  0  0  0  0  0  0  0  0  0  0
   58.0780   31.2050   51.2670 C   0  0  0  0  0  0  0  0  0  0  0  0
   56.9690   32.0000   51.6070 C   0  0  0  0  0  0  0  0  0  0  0  0
   55.9030   31.4560   52.3270 C   0  0  0  0  0  0  0  0  0  0  0  0
   55.9350   30.1130   52.7310 C   0  0  0  0  0  0  0  0  0  0  0  0
   54.5870   29.4040   53.6160 S   0  0  0  0  0  0  0  0  0  0  0  0
   54.9990   29.1330   55.0350 O   0  0  0  0  0  0  0  0  0  0  0  0
   54.1920   28.1140   52.9550 O   0  0  0  0  0  0  0  0  0  0  0  0
   53.2520   30.5110   53.6050 N   0  0  0  0  0  0  0  0  0  0  0  0
   52.5320   30.8930   52.4210 C   0  0  0  0  0  0  0  0  0  0  0  0
   52.6640   30.1260   51.2550 C   0  0  0  0  0  0  0  0  0  0  0  0
   51.9710   30.4790   50.0970 C   0  0  0  0  0  0  0  0  0  0  0  0
   51.1460   31.6060   50.1110 C   0  0  0  0  0  0  0  0  0  0  0  0
   50.5140   31.9420   49.0730 O   0  0  0  0  0  0  0  0  0  0  0  0
   51.0200   32.3410   51.2460 N   0  0  0  0  0  0  0  0  0  0  0  0
   51.6790   32.0130   52.3900 C   0  0  0  0  0  0  0  0  0  0  0  0
   57.0480   29.3240   52.4160 C   0  0  0  0  0  0  0  0  0  0  0  0
   58.1160   29.8670   51.6950 C   0  0  0  0  0  0  0  0  0  0  0  0
   59.8232   28.2387   49.7141 H   0  0  0  0  0  0  0  0  0  0  0  0
   58.9067   26.7418   47.9444 H   0  0  0  0  0  0  0  0  0  0  0  0
   58.0912   27.6999   45.7913 H   0  0  0  0  0  0  0  0  0  0  0  0
   58.2167   30.1585   45.3910 H   0  0  0  0  0  0  0  0  0  0  0  0
   58.1658   32.4409   45.2902 H   0  0  0  0  0  0  0  0  0  0  0  0
   57.1083   32.2969   46.7387 H   0  0  0  0  0  0  0  0  0  0  0  0
   57.4079   34.6707   45.9285 H   0  0  0  0  0  0  0  0  0  0  0  0
   57.9441   34.4033   47.6284 H   0  0  0  0  0  0  0  0  0  0  0  0
   61.3621   34.5960   46.9720 H   0  0  0  0  0  0  0  0  0  0  0  0
   60.0313   34.4341   48.1912 H   0  0  0  0  0  0  0  0  0  0  0  0
   61.0342   32.3434   46.2066 H   0  0  0  0  0  0  0  0  0  0  0  0
   61.0222   32.2732   48.0119 H   0  0  0  0  0  0  0  0  0  0  0  0
   56.9409   33.0571   51.3040 H   0  0  0  0  0  0  0  0  0  0  0  0
   55.0349   32.0831   52.5783 H   0  0  0  0  0  0  0  0  0  0  0  0
   52.9210   30.8590   54.5310 H   0  0  0  0  0  0  0  0  0  0  0  0
   53.3175   29.2412   51.2532 H   0  0  0  0  0  0  0  0  0  0  0  0
   52.0731   29.8762   49.1825 H   0  0  0  0  0  0  0  0  0  0  0  0
   51.5451   32.6249   53.2942 H   0  0  0  0  0  0  0  0  0  0  0  0
   57.0824   28.2725   52.7371 H   0  0  0  0  0  0  0  0  0  0  0  0
   58.9913   29.2430   51.4614 H   0  0  0  0  0  0  0  0  0  0  0  0
  1  2  2  0
  2  3  1  0
  3  4  1  0
  4  5  2  0
  5  6  1  0
  6  7  2  0
  7  8  1  0
  8  9  2  0
  9 10  1  0
 10 11  1  0
 11 12  1  0
 12 13  1  0
 13 14  1  0
 14 15  1  0
  2 16  1  0
 16 17  2  0
 17 18  1  0
 18 19  2  0
 19 20  1  0
 20 21  2  0
 20 22  2  0
 20 23  1  0
 23 24  1  0
 24 25  1  0
 25 26  2  0
 26 27  1  0
 27 28  2  0
 27 29  1  0
 29 30  1  0
 19 31  1  0
 31 32  2  0
  9  4  1  0
 15 10  1  0
 32 16  1  0
 30 24  2  0
  5 33  1  0
  6 34  1  0
  7 35  1  0
  8 36  1  0
 11 37  1  0
 11 38  1  0
 12 39  1  0
 12 40  1  0
 14 41  1  0
 14 42  1  0
 15 43  1  0
 15 44  1  0
 17 45  1  0
 18 46  1  0
 23 47  1  0
 25 48  1  0
 26 49  1  0
 30 50  1  0
 31 51  1  0
 32 52  1  0
M  CHG  2   3  -1  29  -1
M  END
>  <UniqueID>  (32) 
30

>  <SMILES>  (32) 
O=C([N-]c1ccccc1N1CCOCC1)c1ccc(S(=O)(=O)Nc2ccc(=O)[n-]c2)cc1

>  <Energy>  (32) 
73.89375906634464

>  <Genealogy>  (32) 
O=C([N-]c1ccccc1N1CCOCC1)c1ccc(S(=O)(=O)Nc2ccc(=O)[n-]c2)cc1 (protonated)
O=C([N-]c1ccccc1N1CCOCC1)c1ccc(S(=O)(=O)Nc2ccc(=O)[n-]c2)cc1 (3D coordinates assigned)
O=C([N-]c1ccccc1N1CCOCC1)c1ccc(S(=O)(=O)Nc2ccc(=O)[n-]c2)cc1 (nonaromatic ring conformer: 73.89375906634464 kcal/mol)

>  <smiles>  (32) 
O=C(Nc1ccccc1N1CCOCC1)c1ccc(S(=O)(=O)Nc2ccc(=O)[nH]c2)cc1

>  <score_type>  (32) 
oracle

>  <origin>  (32) 
adg

>  <m_score__min__energy>  (32) 
-12.57

>  <m_primary>  (32) 
energy

$$$$
32:0
     RDKit          3D

 40 42  0  0  0  0  0  0  0  0999 V2000
   59.3390   35.7850   47.9090 H   0  0  0  0  0  0  0  0  0  0  0  0
   59.4770   35.6540   46.9140 O   0  0  0  0  0  0  0  0  0  0  0  0
   58.9230   34.5700   46.2370 C   0  0  0  0  0  0  0  0  0  0  0  0
   58.8180   34.5880   44.8410 C   0  0  0  0  0  0  0  0  0  0  0  0
   59.1750   35.4625   44.2773 H   0  0  0  0  0  0  0  0  0  0  0  0
   58.2630   33.5030   44.1600 C   0  0  0  0  0  0  0  0  0  0  0  0
   58.1846   33.5283   43.0631 H   0  0  0  0  0  0  0  0  0  0  0  0
   57.8040   32.3790   44.8670 C   0  0  0  0  0  0  0  0  0  0  0  0
   57.2140   31.2250   44.1440 C   0  0  0  0  0  0  0  0  0  0  0  0
   57.1910   31.2200   42.8820 O   0  0  0  0  0  0  0  0  0  0  0  0
   56.6260   30.1420   44.8780 N   0  0  0  0  0  0  0  0  0  0  0  0
   57.3040   28.9850   45.3890 C   0  0  0  0  0  0  0  0  0  0  0  0
   58.6570   29.0220   45.7690 C   0  0  0  0  0  0  0  0  0  0  0  0
   59.2368   29.9485   45.6450 H   0  0  0  0  0  0  0  0  0  0  0  0
   59.2670   27.8840   46.3040 C   0  0  0  0  0  0  0  0  0  0  0  0
   60.3262   27.9165   46.5989 H   0  0  0  0  0  0  0  0  0  0  0  0
   58.5350   26.7060   46.4650 C   0  0  0  0  0  0  0  0  0  0  0  0
   59.0199   25.8153   46.8911 H   0  0  0  0  0  0  0  0  0  0  0  0
   57.1890   26.6510   46.0880 C   0  0  0  0  0  0  0  0  0  0  0  0
   56.4630   25.4320   46.2980 N   0  0  0  0  0  0  0  0  0  0  0  0
   55.2290   25.0660   45.6690 C   0  0  0  0  0  0  0  0  0  0  0  0
   54.2920   25.9060   45.6360 O   0  0  0  0  0  0  0  0  0  0  0  0
   55.0490   23.7410   45.1410 N   0  0  0  0  0  0  0  0  0  0  0  0
   55.9550   23.0180   44.5540 C   0  0  0  0  0  0  0  0  0  0  0  0
   55.7720   22.3640   43.3850 N   0  0  0  0  0  0  0  0  0  0  0  0
   56.8940   21.6940   43.0100 C   0  0  0  0  0  0  0  0  0  0  0  0
   56.9454   21.0997   42.0858 H   0  0  0  0  0  0  0  0  0  0  0  0
   57.9730   21.8150   43.8810 C   0  0  0  0  0  0  0  0  0  0  0  0
   58.9618   21.3505   43.7527 H   0  0  0  0  0  0  0  0  0  0  0  0
   57.5010   22.7960   45.1650 S   0  0  0  0  0  0  0  0  0  0  0  0
   56.5700   27.8070   45.5780 C   0  0  0  0  0  0  0  0  0  0  0  0
   55.4996   27.7855   45.3253 H   0  0  0  0  0  0  0  0  0  0  0  0
   57.9100   32.3650   46.2700 C   0  0  0  0  0  0  0  0  0  0  0  0
   57.5527   31.4908   46.8341 H   0  0  0  0  0  0  0  0  0  0  0  0
   58.4690   33.4590   46.9600 C   0  0  0  0  0  0  0  0  0  0  0  0
   58.5910   33.4790   48.3590 O   0  0  0  0  0  0  0  0  0  0  0  0
   58.8860   32.3380   49.1590 C   0  0  0  0  0  0  0  0  0  0  0  0
   58.8161   32.6082   50.2230 H   0  0  0  0  0  0  0  0  0  0  0  0
   58.1653   31.5375   48.9359 H   0  0  0  0  0  0  0  0  0  0  0  0
   59.9044   31.9871   48.9359 H   0  0  0  0  0  0  0  0  0  0  0  0
  1  2  1  0
  2  3  1  0
  3  4  2  0
  4  5  1  0
  4  6  1  0
  6  7  1  0
  6  8  2  0
  8  9  1  0
  9 10  2  0
  9 11  1  0
 11 12  1  0
 12 13  2  0
 13 14  1  0
 13 15  1  0
 15 16  1  0
 15 17  2  0
 17 18  1  0
 17 19  1  0
 19 20  1  0
 20 21  1  0
 21 22  2  0
 21 23  1  0
 23 24  2  0
 24 25  1  0
 25 26  1  0
 26 27  1  0
 26 28  2  0
 28 29  1  0
 28 30  1  0
 19 31  2  0
 31 32  1  0
  8 33  1  0
 33 34  1  0
 33 35  2  0
 35 36  1  0
 36 37  1  0
 37 38  1  0
 37 39  1  0
 37 40  1  0
 35  3  1  0
 31 12  1  0
 30 24  1  0
M  CHG  3  11  -1  20  -1  25  -1
M  END
>  <UniqueID>  (33) 
31

>  <SMILES>  (33) 
COc1cc(C(=O)[N-]c2cccc([N-]C(=O)/N=c3\[n-]ccs3)c2)ccc1O

>  <Energy>  (33) 
81.4615061609902

>  <Genealogy>  (33) 
COc1cc(C(=O)[N-]c2cccc([N-]C(=O)N=c3[n-]ccs3)c2)ccc1O (protonated)
COc1cc(C(=O)[N-]c2cccc([N-]C(=O)/N=c3\[n-]ccs3)c2)ccc1O (cis-trans isomerization)
COc1cc(C(=O)[N-]c2cccc([N-]C(=O)/N=c3\[n-]ccs3)c2)ccc1O (3D coordinates assigned)
COc1cc(C(=O)[N-]c2cccc([N-]C(=O)/N=c3\[n-]ccs3)c2)ccc1O (optimized conformer: 81.4615061609902 kcal/mol)

>  <smiles>  (33) 
COc1cc(C(=O)Nc2cccc(NC(=O)N=c3[nH]ccs3)c2)ccc1O

>  <score_type>  (33) 
oracle

>  <origin>  (33) 
adg

>  <m_score__min__energy>  (33) 
-11.93

>  <m_primary>  (33) 
energy

$$$$
33:0
     RDKit          3D

 50 53  0  0  0  0  0  0  0  0999 V2000
   58.1100   26.7490   42.6320 C   0  0  0  0  0  0  0  0  0  0  0  0
   57.9620   27.6180   43.6370 C   0  0  0  0  0  0  0  0  0  0  0  0
   57.7030   28.9230   43.4160 N   0  0  0  0  0  0  0  0  0  0  0  0
   57.4230   29.4830   44.6070 C   0  0  0  0  0  0  0  0  0  0  0  0
   57.0690   30.9050   44.7840 C   0  0  0  0  0  0  0  0  0  0  0  0
   55.9030   31.2890   44.4990 O   0  0  0  0  0  0  0  0  0  0  0  0
   58.0260   31.8570   45.2760 N   0  0  0  0  0  0  0  0  0  0  0  0
   58.6880   31.6420   46.5690 C   0  0  0  0  0  0  0  0  0  0  0  0
   60.1150   32.1890   46.4990 C   0  0  0  0  0  0  0  0  0  0  0  0
   60.1430   33.7020   46.1460 C   0  0  0  0  0  0  0  0  0  0  0  0
   60.5410   34.5980   47.3500 C   0  0  0  0  0  0  0  0  0  0  0  0
   61.7930   34.1510   48.0780 C   0  0  0  0  0  0  0  0  0  0  0  0
   61.8720   34.2290   49.4800 C   0  0  0  0  0  0  0  0  0  0  0  0
   63.0400   33.8430   50.1470 C   0  0  0  0  0  0  0  0  0  0  0  0
   64.1330   33.3570   49.4240 C   0  0  0  0  0  0  0  0  0  0  0  0
   65.2670   32.9890   50.0710 F   0  0  0  0  0  0  0  0  0  0  0  0
   64.0530   33.2440   48.0330 C   0  0  0  0  0  0  0  0  0  0  0  0
   62.8870   33.6310   47.3630 C   0  0  0  0  0  0  0  0  0  0  0  0
   58.8430   34.1920   45.4540 C   0  0  0  0  0  0  0  0  0  0  0  0
   58.2270   33.1190   44.5460 C   0  0  0  0  0  0  0  0  0  0  0  0
   57.5290   28.5440   45.6160 C   0  0  0  0  0  0  0  0  0  0  0  0
   57.9010   27.3520   45.0130 C   0  0  0  0  0  0  0  0  0  0  0  0
   58.1430   26.2250   45.7100 C   0  0  0  0  0  0  0  0  0  0  0  0
   57.1260   25.2560   46.1490 C   0  0  0  0  0  0  0  0  0  0  0  0
   57.3930   24.0240   46.6190 N   0  0  0  0  0  0  0  0  0  0  0  0
   56.1840   23.5740   47.0180 C   0  0  0  0  0  0  0  0  0  0  0  0
   56.0180   22.4310   47.5120 O   0  0  0  0  0  0  0  0  0  0  0  0
   55.1700   24.4510   46.8580 N   0  0  0  0  0  0  0  0  0  0  0  0
   55.7890   25.5170   46.3230 C   0  0  0  0  0  0  0  0  0  0  0  0
   55.1420   26.7020   45.9980 O   0  0  0  0  0  0  0  0  0  0  0  0
   58.3208   25.6909   42.8464 H   0  0  0  0  0  0  0  0  0  0  0  0
   58.0210   27.0921   41.5907 H   0  0  0  0  0  0  0  0  0  0  0  0
   57.6640   29.4010   42.4870 H   0  0  0  0  0  0  0  0  0  0  0  0
   58.1311   32.1664   47.3595 H   0  0  0  0  0  0  0  0  0  0  0  0
   58.7147   30.5662   46.7968 H   0  0  0  0  0  0  0  0  0  0  0  0
   60.5992   32.0434   47.4759 H   0  0  0  0  0  0  0  0  0  0  0  0
   60.6481   31.6455   45.7051 H   0  0  0  0  0  0  0  0  0  0  0  0
   60.9450   33.8103   45.4009 H   0  0  0  0  0  0  0  0  0  0  0  0
   60.7059   35.6200   46.9782 H   0  0  0  0  0  0  0  0  0  0  0  0
   59.7166   34.5325   48.0753 H   0  0  0  0  0  0  0  0  0  0  0  0
   61.0098   34.5959   50.0562 H   0  0  0  0  0  0  0  0  0  0  0  0
   63.0981   33.9222   51.2426 H   0  0  0  0  0  0  0  0  0  0  0  0
   64.9081   32.8502   47.4641 H   0  0  0  0  0  0  0  0  0  0  0  0
   62.8256   33.5278   46.2696 H   0  0  0  0  0  0  0  0  0  0  0  0
   58.1105   34.4631   46.2285 H   0  0  0  0  0  0  0  0  0  0  0  0
   59.1016   35.0569   44.8255 H   0  0  0  0  0  0  0  0  0  0  0  0
   57.2557   33.4775   44.1745 H   0  0  0  0  0  0  0  0  0  0  0  0
   58.9165   32.9321   43.7096 H   0  0  0  0  0  0  0  0  0  0  0  0
   57.3525   28.7101   46.6890 H   0  0  0  0  0  0  0  0  0  0  0  0
   59.1893   26.0108   45.9733 H   0  0  0  0  0  0  0  0  0  0  0  0
  1  2  2  0
  2  3  1  0
  3  4  1  0
  4  5  1  0
  5  6  2  0
  5  7  1  0
  7  8  1  0
  8  9  1  0
  9 10  1  0
 10 11  1  0
 11 12  1  0
 12 13  2  0
 13 14  1  0
 14 15  2  0
 15 16  1  0
 15 17  1  0
 17 18  2  0
 10 19  1  0
 19 20  1  0
  4 21  2  0
 21 22  1  0
 22 23  2  3
 23 24  1  0
 24 25  1  0
 25 26  1  0
 26 27  2  0
 26 28  1  0
 28 29  1  0
 29 30  1  0
 22  2  1  0
 29 24  2  0
 20  7  1  0
 18 12  1  0
  1 31  1  0
  1 32  1  0
  3 33  1  0
  8 34  1  0
  8 35  1  0
  9 36  1  0
  9 37  1  0
 10 38  1  0
 11 39  1  0
 11 40  1  0
 13 41  1  0
 14 42  1  0
 17 43  1  0
 18 44  1  0
 19 45  1  0
 19 46  1  0
 20 47  1  0
 20 48  1  0
 21 49  1  0
 23 50  1  0
M  CHG  3  25  -1  28  -1  30  -1
M  END
>  <UniqueID>  (34) 
32

>  <SMILES>  (34) 
C=c1[nH]c(C(=O)N2CCC(Cc3ccc(F)cc3)CC2)cc1=Cc1[n-]c(=O)[n-]c1[O-]

>  <Energy>  (34) 
126.14288630931868

>  <Genealogy>  (34) 
C=c1[nH]c(C(=O)N2CCC(Cc3ccc(F)cc3)CC2)cc1=Cc1[n-]c(=O)[n-]c1[O-] (protonated)
C=c1[nH]c(C(=O)N2CCC(Cc3ccc(F)cc3)CC2)cc1=Cc1[n-]c(=O)[n-]c1[O-] (3D coordinates assigned)
C=c1[nH]c(C(=O)N2CCC(Cc3ccc(F)cc3)CC2)cc1=Cc1[n-]c(=O)[n-]c1[O-] (nonaromatic ring conformer: 126.14288630931868 kcal/mol)

>  <smiles>  (34) 
C=c1[nH]c(C(=O)N2CCC(Cc3ccc(F)cc3)CC2)cc1=Cc1[nH]c(=O)[nH]c1O

>  <score_type>  (34) 
oracle

>  <origin>  (34) 
adg

>  <m_score__min__energy>  (34) 
-18.27

>  <m_primary>  (34) 
energy

$$$$
34:0
     RDKit          3D

 58 59  0  0  0  0  0  0  0  0999 V2000
   58.0977   33.1567   41.3861 H   0  0  0  0  0  0  0  0  0  0  0  0
   57.8450   32.3820   42.1250 C   0  0  0  0  0  0  0  0  0  0  0  0
   56.9660   31.3970   41.8020 N   0  0  0  0  0  0  0  0  0  0  0  0
   56.6280   30.4230   42.6880 C   0  0  0  0  0  0  0  0  0  0  0  0
   55.9141   29.6387   42.3963 H   0  0  0  0  0  0  0  0  0  0  0  0
   57.1860   30.4170   43.9680 C   0  0  0  0  0  0  0  0  0  0  0  0
   56.9085   29.6351   44.6903 H   0  0  0  0  0  0  0  0  0  0  0  0
   58.1030   31.4160   44.3250 C   0  0  0  0  0  0  0  0  0  0  0  0
   58.6940   31.4440   45.6820 C   0  0  0  0  0  0  0  0  0  0  0  0
   58.7160   32.5910   46.4140 C   0  0  0  0  0  0  0  0  0  0  0  0
   59.9260   33.0080   47.1560 C   0  0  0  0  0  0  0  0  0  0  0  0
   61.0890   33.3730   46.4650 C   0  0  0  0  0  0  0  0  0  0  0  0
   61.1054   33.3457   45.3655 H   0  0  0  0  0  0  0  0  0  0  0  0
   62.2290   33.7720   47.1700 C   0  0  0  0  0  0  0  0  0  0  0  0
   63.1401   34.0557   46.6229 H   0  0  0  0  0  0  0  0  0  0  0  0
   62.2150   33.8120   48.5780 C   0  0  0  0  0  0  0  0  0  0  0  0
   63.3210   34.2250   49.3390 O   0  0  0  0  0  0  0  0  0  0  0  0
   63.3400   34.3990   50.7560 C   0  0  0  0  0  0  0  0  0  0  0  0
   63.4521   35.4700   50.9805 H   0  0  0  0  0  0  0  0  0  0  0  0
   62.3958   34.0038   51.1587 H   0  0  0  0  0  0  0  0  0  0  0  0
   64.4990   33.6280   51.4190 C   0  0  0  0  0  0  0  0  0  0  0  0
   65.2279   34.3561   51.8044 H   0  0  0  0  0  0  0  0  0  0  0  0
   64.0655   33.0128   52.2213 H   0  0  0  0  0  0  0  0  0  0  0  0
   65.1980   32.7090   50.4880 N   0  0  0  0  0  0  0  0  0  0  0  0
   64.8310   32.8470   49.5180 H   0  0  0  0  0  0  0  0  0  0  0  0
   66.6380   33.0280   50.4680 C   0  0  0  0  0  0  0  0  0  0  0  0
   67.0097   33.1103   51.5000 H   0  0  0  0  0  0  0  0  0  0  0  0
   67.1833   32.2289   49.9445 H   0  0  0  0  0  0  0  0  0  0  0  0
   66.7948   33.9827   49.9445 H   0  0  0  0  0  0  0  0  0  0  0  0
   65.0150   31.2960   50.8690 C   0  0  0  0  0  0  0  0  0  0  0  0
   65.0039   31.2104   51.9656 H   0  0  0  0  0  0  0  0  0  0  0  0
   64.0616   30.9272   50.4628 H   0  0  0  0  0  0  0  0  0  0  0  0
   65.8430   30.6965   50.4628 H   0  0  0  0  0  0  0  0  0  0  0  0
   61.0570   33.4210   49.2600 C   0  0  0  0  0  0  0  0  0  0  0  0
   61.0413   33.4351   50.3598 H   0  0  0  0  0  0  0  0  0  0  0  0
   59.9210   33.0130   48.5570 C   0  0  0  0  0  0  0  0  0  0  0  0
   59.0212   32.6952   49.1042 H   0  0  0  0  0  0  0  0  0  0  0  0
   57.5350   33.5250   46.4620 C   0  0  0  0  0  0  0  0  0  0  0  0
   57.2735   33.7318   47.5102 H   0  0  0  0  0  0  0  0  0  0  0  0
   57.7917   34.4670   45.9554 H   0  0  0  0  0  0  0  0  0  0  0  0
   56.6775   33.0581   45.9554 H   0  0  0  0  0  0  0  0  0  0  0  0
   59.3500   30.1670   46.1670 C   0  0  0  0  0  0  0  0  0  0  0  0
   60.0132   29.7796   45.3795 H   0  0  0  0  0  0  0  0  0  0  0  0
   59.9280   30.3884   47.0763 H   0  0  0  0  0  0  0  0  0  0  0  0
   58.2900   29.1080   46.5000 C   0  0  0  0  0  0  0  0  0  0  0  0
   58.4001   28.8220   47.5564 H   0  0  0  0  0  0  0  0  0  0  0  0
   57.3050   29.5528   46.2955 H   0  0  0  0  0  0  0  0  0  0  0  0
   58.4120   27.8420   45.6340 C   0  0  0  0  0  0  0  0  0  0  0  0
   58.2113   28.1159   44.5877 H   0  0  0  0  0  0  0  0  0  0  0  0
   59.4302   27.4510   45.7768 H   0  0  0  0  0  0  0  0  0  0  0  0
   57.4370   26.7200   46.0390 C   0  0  0  0  0  0  0  0  0  0  0  0
   57.6803   25.8161   45.4613 H   0  0  0  0  0  0  0  0  0  0  0  0
   57.5513   26.5529   47.1202 H   0  0  0  0  0  0  0  0  0  0  0  0
   56.0050   27.0820   45.7840 C   0  0  0  0  0  0  0  0  0  0  0  0
   55.0820   26.2900   46.1070 O   0  0  0  0  0  0  0  0  0  0  0  0
   55.6870   28.3140   45.2250 O   0  0  0  0  0  0  0  0  0  0  0  0
   58.4280   32.4120   43.3940 C   0  0  0  0  0  0  0  0  0  0  0  0
   59.1361   33.2105   43.6604 H   0  0  0  0  0  0  0  0  0  0  0  0
  1  2  1  0
  2  3  2  0
  3  4  1  0
  4  5  1  0
  4  6  2  0
  6  7  1  0
  6  8  1  0
  8  9  1  0
  9 10  2  0
 10 11  1  0
 11 12  2  0
 12 13  1  0
 12 14  1  0
 14 15  1  0
 14 16  2  0
 16 17  1  0
 17 18  1  0
 18 19  1  0
 18 20  1  0
 18 21  1  0
 21 22  1  0
 21 23  1  0
 21 24  1  0
 24 25  1  0
 24 26  1  0
 26 27  1  0
 26 28  1  0
 26 29  1  0
 24 30  1  0
 30 31  1  0
 30 32  1  0
 30 33  1  0
 16 34  1  0
 34 35  1  0
 34 36  2  0
 36 37  1  0
 10 38  1  0
 38 39  1  0
 38 40  1  0
 38 41  1  0
  9 42  1  0
 42 43  1  0
 42 44  1  0
 42 45  1  0
 45 46  1  0
 45 47  1  0
 45 48  1  0
 48 49  1  0
 48 50  1  0
 48 51  1  0
 51 52  1  0
 51 53  1  0
 51 54  1  0
 54 55  2  0
 54 56  1  0
  8 57  2  0
 57 58  1  0
 57  2  1  0
 36 11  1  0
M  CHG  2  24   1  56  -1
M  END
>  <UniqueID>  (35) 
33

>  <SMILES>  (35) 
C/C(=C(/CCCCC(=O)[O-])c1ccncc1)c1ccc(OCC[NH+](C)C)cc1

>  <Energy>  (35) 
65.88590672250832

>  <Genealogy>  (35) 
CC(=C(CCCCC(=O)[O-])c1ccncc1)c1ccc(OCC[NH+](C)C)cc1 (protonated)
C/C(=C(/CCCCC(=O)[O-])c1ccncc1)c1ccc(OCC[NH+](C)C)cc1 (cis-trans isomerization)
C/C(=C(/CCCCC(=O)[O-])c1ccncc1)c1ccc(OCC[NH+](C)C)cc1 (3D coordinates assigned)
C/C(=C(/CCCCC(=O)[O-])c1ccncc1)c1ccc(OCC[NH+](C)C)cc1 (optimized conformer: 65.88590672250832 kcal/mol)

>  <smiles>  (35) 
CC(=C(CCCCC(=O)O)c1ccncc1)c1ccc(OCCN(C)C)cc1

>  <score_type>  (35) 
oracle

>  <origin>  (35) 
adg

>  <m_score__min__energy>  (35) 
-8.8800000000000008

>  <m_primary>  (35) 
energy

$$$$
35:0
     RDKit          3D

 34 35  0  0  0  0  0  0  0  0999 V2000
   55.2730   29.4600   44.7070 O   0  0  0  0  0  0  0  0  0  0  0  0
   56.2790   30.1290   44.3490 C   0  0  0  0  0  0  0  0  0  0  0  0
   57.3760   29.4430   43.5730 C   0  0  0  0  0  0  0  0  0  0  0  0
   58.5600   29.0550   44.4730 C   0  0  0  0  0  0  0  0  0  0  0  0
   58.3140   27.7480   45.1690 C   0  0  0  0  0  0  0  0  0  0  0  0
   59.2850   27.1400   45.6960 O   0  0  0  0  0  0  0  0  0  0  0  0
   56.9920   27.1920   45.2260 N   0  0  0  0  0  0  0  0  0  0  0  0
   56.7130   25.7980   45.4530 C   0  0  0  0  0  0  0  0  0  0  0  0
   57.7060   24.8170   45.2630 C   0  0  0  0  0  0  0  0  0  0  0  0
   57.4050   23.4640   45.4290 C   0  0  0  0  0  0  0  0  0  0  0  0
   56.1100   23.0710   45.7740 C   0  0  0  0  0  0  0  0  0  0  0  0
   55.1100   24.0300   45.9500 C   0  0  0  0  0  0  0  0  0  0  0  0
   53.4840   23.5150   46.3690 Cl  0  0  0  0  0  0  0  0  0  0  0  0
   55.4060   25.3920   45.7850 C   0  0  0  0  0  0  0  0  0  0  0  0
   54.4030   26.3410   45.9550 O   0  0  0  0  0  0  0  0  0  0  0  0
   56.2700   31.5490   44.5500 N   0  0  0  0  0  0  0  0  0  0  0  0
   57.1480   32.2680   45.1890 C   0  0  0  0  0  0  0  0  0  0  0  0
   57.4840   33.5820   44.8020 C   0  0  0  0  0  0  0  0  0  0  0  0
   58.4170   34.3000   45.5520 C   0  0  0  0  0  0  0  0  0  0  0  0
   59.0240   33.7080   46.6620 C   0  0  0  0  0  0  0  0  0  0  0  0
   60.1870   34.6050   47.6200 Cl  0  0  0  0  0  0  0  0  0  0  0  0
   58.6980   32.3940   46.9960 C   0  0  0  0  0  0  0  0  0  0  0  0
   57.7810   31.7130   46.2590 N   0  0  0  0  0  0  0  0  0  0  0  0
   56.9679   28.5323   43.1103 H   0  0  0  0  0  0  0  0  0  0  0  0
   57.7439   30.1453   42.8105 H   0  0  0  0  0  0  0  0  0  0  0  0
   59.4654   28.9663   43.8547 H   0  0  0  0  0  0  0  0  0  0  0  0
   58.6842   29.8362   45.2374 H   0  0  0  0  0  0  0  0  0  0  0  0
   56.1880   27.8450   45.0900 H   0  0  0  0  0  0  0  0  0  0  0  0
   58.7256   25.1192   44.9819 H   0  0  0  0  0  0  0  0  0  0  0  0
   58.1894   22.7059   45.2878 H   0  0  0  0  0  0  0  0  0  0  0  0
   55.8772   22.0042   45.9074 H   0  0  0  0  0  0  0  0  0  0  0  0
   57.0150   34.0369   43.9171 H   0  0  0  0  0  0  0  0  0  0  0  0
   58.6741   35.3314   45.2690 H   0  0  0  0  0  0  0  0  0  0  0  0
   59.1829   31.9086   47.8558 H   0  0  0  0  0  0  0  0  0  0  0  0
  1  2  2  0
  2  3  1  0
  3  4  1  0
  4  5  1  0
  5  6  2  0
  5  7  1  0
  7  8  1  0
  8  9  2  0
  9 10  1  0
 10 11  2  0
 11 12  1  0
 12 13  1  0
 12 14  2  0
 14 15  1  0
  2 16  1  0
 16 17  2  3
 17 18  1  0
 18 19  2  0
 19 20  1  0
 20 21  1  0
 20 22  2  0
 22 23  1  0
 14  8  1  0
 23 17  1  0
  3 24  1  0
  3 25  1  0
  4 26  1  0
  4 27  1  0
  7 28  1  0
  9 29  1  0
 10 30  1  0
 11 31  1  0
 18 32  1  0
 19 33  1  0
 22 34  1  0
M  CHG  2  15  -1  23  -1
M  END
>  <UniqueID>  (36) 
34

>  <SMILES>  (36) 
O=C(CCC(=O)Nc1cccc(Cl)c1[O-])N=c1ccc(Cl)c[n-]1

>  <Energy>  (36) 
43.166696806838345

>  <Genealogy>  (36) 
O=C(CCC(=O)Nc1cccc(Cl)c1[O-])N=c1ccc(Cl)c[n-]1 (protonated)
O=C(CCC(=O)Nc1cccc(Cl)c1[O-])N=c1ccc(Cl)c[n-]1 (3D coordinates assigned)
O=C(CCC(=O)Nc1cccc(Cl)c1[O-])N=c1ccc(Cl)c[n-]1 (optimized conformer: 43.166696806838345 kcal/mol)

>  <smiles>  (36) 
O=C(CCC(=O)Nc1cccc(Cl)c1O)N=c1ccc(Cl)c[nH]1

>  <score_type>  (36) 
oracle

>  <origin>  (36) 
adg

>  <m_score__min__energy>  (36) 
-13.5

>  <m_primary>  (36) 
energy

$$$$
36:0
     RDKit          3D

 61 64  0  0  0  0  0  0  0  0999 V2000
   49.6008   23.0545   49.5090 H   0  0  0  0  0  0  0  0  0  0  0  0
   50.4430   22.8360   48.8360 C   0  0  0  0  0  0  0  0  0  0  0  0
   51.6650   22.4270   49.3620 C   0  0  0  0  0  0  0  0  0  0  0  0
   51.7859   22.3318   50.4512 H   0  0  0  0  0  0  0  0  0  0  0  0
   52.7410   22.1360   48.5160 C   0  0  0  0  0  0  0  0  0  0  0  0
   54.2620   21.6790   49.2750 Cl  0  0  0  0  0  0  0  0  0  0  0  0
   52.5920   22.2470   47.1100 C   0  0  0  0  0  0  0  0  0  0  0  0
   53.7290   21.8890   46.1720 C   0  0  0  0  0  0  0  0  0  0  0  0
   53.3124   21.4499   45.2535 H   0  0  0  0  0  0  0  0  0  0  0  0
   54.3878   21.1693   46.6799 H   0  0  0  0  0  0  0  0  0  0  0  0
   54.5380   23.1070   45.8120 C   0  0  0  0  0  0  0  0  0  0  0  0
   54.3020   24.3180   46.3490 N   0  0  0  0  0  0  0  0  0  0  0  0
   55.2230   25.1180   45.7730 C   0  0  0  0  0  0  0  0  0  0  0  0
   55.3050   26.3980   45.9910 N   0  0  0  0  0  0  0  0  0  0  0  0
   56.4930   27.1990   45.8720 C   0  0  0  0  0  0  0  0  0  0  0  0
   57.7550   26.7110   46.2540 C   0  0  0  0  0  0  0  0  0  0  0  0
   57.8468   25.6950   46.6655 H   0  0  0  0  0  0  0  0  0  0  0  0
   58.8930   27.5090   46.1140 C   0  0  0  0  0  0  0  0  0  0  0  0
   59.8743   27.1190   46.4222 H   0  0  0  0  0  0  0  0  0  0  0  0
   58.7940   28.8050   45.5830 C   0  0  0  0  0  0  0  0  0  0  0  0
   59.9950   29.6620   45.4670 C   0  0  0  0  0  0  0  0  0  0  0  0
   61.0150   29.2400   44.8580 O   0  0  0  0  0  0  0  0  0  0  0  0
   60.0090   30.9650   46.0650 N   0  0  0  0  0  0  0  0  0  0  0  0
   60.7690   31.2980   47.2670 C   0  0  0  0  0  0  0  0  0  0  0  0
   61.8350   31.0901   47.0925 H   0  0  0  0  0  0  0  0  0  0  0  0
   60.6281   32.3643   47.4978 H   0  0  0  0  0  0  0  0  0  0  0  0
   60.2850   30.4740   48.4310 C   0  0  0  0  0  0  0  0  0  0  0  0
   60.7920   29.1810   48.6370 C   0  0  0  0  0  0  0  0  0  0  0  0
   61.4992   28.7484   47.9139 H   0  0  0  0  0  0  0  0  0  0  0  0
   60.4020   28.4410   49.7570 C   0  0  0  0  0  0  0  0  0  0  0  0
   60.7968   27.4257   49.9095 H   0  0  0  0  0  0  0  0  0  0  0  0
   59.5110   28.9900   50.6830 C   0  0  0  0  0  0  0  0  0  0  0  0
   59.2129   28.4091   51.5682 H   0  0  0  0  0  0  0  0  0  0  0  0
   58.9960   30.2790   50.4870 C   0  0  0  0  0  0  0  0  0  0  0  0
   57.9120   30.9930   51.6800 S   0  0  0  0  0  0  0  0  0  0  0  0
   57.3930   32.3030   51.1580 O   0  0  0  0  0  0  0  0  0  0  0  0
   58.6630   31.2560   52.9560 O   0  0  0  0  0  0  0  0  0  0  0  0
   56.5680   29.9360   51.9970 N   0  0  0  0  0  0  0  0  0  0  0  0
   55.3400   30.7160   52.1190 C   0  0  0  0  0  0  0  0  0  0  0  0
   55.1047   30.8654   53.1831 H   0  0  0  0  0  0  0  0  0  0  0  0
   55.4765   31.6933   51.6329 H   0  0  0  0  0  0  0  0  0  0  0  0
   54.5134   30.1770   51.6329 H   0  0  0  0  0  0  0  0  0  0  0  0
   59.3820   31.0160   49.3580 C   0  0  0  0  0  0  0  0  0  0  0  0
   58.9743   32.0251   49.1983 H   0  0  0  0  0  0  0  0  0  0  0  0
   57.5360   29.2800   45.1730 C   0  0  0  0  0  0  0  0  0  0  0  0
   57.4462   30.2895   44.7454 H   0  0  0  0  0  0  0  0  0  0  0  0
   56.3980   28.4780   45.3050 C   0  0  0  0  0  0  0  0  0  0  0  0
   55.1650   28.9620   44.8800 O   0  0  0  0  0  0  0  0  0  0  0  0
   56.0230   24.4900   44.8910 N   0  0  0  0  0  0  0  0  0  0  0  0
   55.5960   23.2140   44.9180 C   0  0  0  0  0  0  0  0  0  0  0  0
   56.1970   22.1440   44.0550 C   0  0  0  0  0  0  0  0  0  0  0  0
   55.4548   21.3477   43.8967 H   0  0  0  0  0  0  0  0  0  0  0  0
   57.0869   21.7394   44.5593 H   0  0  0  0  0  0  0  0  0  0  0  0
   56.6140   22.7160   42.7050 C   0  0  0  0  0  0  0  0  0  0  0  0
   57.2554   23.5958   42.8619 H   0  0  0  0  0  0  0  0  0  0  0  0
   57.1695   21.9534   42.1395 H   0  0  0  0  0  0  0  0  0  0  0  0
   55.7180   23.0116   42.1395 H   0  0  0  0  0  0  0  0  0  0  0  0
   51.3450   22.6840   46.5920 C   0  0  0  0  0  0  0  0  0  0  0  0
   51.0690   22.9200   44.8670 Cl  0  0  0  0  0  0  0  0  0  0  0  0
   50.2850   22.9690   47.4580 C   0  0  0  0  0  0  0  0  0  0  0  0
   49.3194   23.3006   47.0486 H   0  0  0  0  0  0  0  0  0  0  0  0
  1  2  1  0
  2  3  2  0
  3  4  1  0
  3  5  1  0
  5  6  1  0
  5  7  2  0
  7  8  1  0
  8  9  1  0
  8 10  1  0
  8 11  1  0
 11 12  1  0
 12 13  1  0
 13 14  2  0
 14 15  1  0
 15 16  2  0
 16 17  1  0
 16 18  1  0
 18 19  1  0
 18 20  2  0
 20 21  1  0
 21 22  2  0
 21 23  1  0
 23 24  1  0
 24 25  1  0
 24 26  1  0
 24 27  1  0
 27 28  2  0
 28 29  1  0
 28 30  1  0
 30 31  1  0
 30 32  2  0
 32 33  1  0
 32 34  1  0
 34 35  1  0
 35 36  2  0
 35 37  2  0
 35 38  1  0
 38 39  1  0
 39 40  1  0
 39 41  1  0
 39 42  1  0
 34 43  2  0
 43 44  1  0
 20 45  1  0
 45 46  1  0
 45 47  2  0
 47 48  1  0
 13 49  1  0
 49 50  1  0
 50 51  1  0
 51 52  1  0
 51 53  1  0
 51 54  1  0
 54 55  1  0
 54 56  1  0
 54 57  1  0
  7 58  1  0
 58 59  1  0
 58 60  2  0
 60 61  1  0
 60  2  1  0
 50 11  2  0
 47 15  1  0
 43 27  1  0
M  CHG  5  12  -1  23  -1  38  -1  48  -1  49  -1
M  END
>  <UniqueID>  (37) 
35

>  <SMILES>  (37) 
CCc1[n-]/c(=N/c2ccc(C(=O)[N-]Cc3cccc(S(=O)(=O)[N-]C)c3)cc2[O-])[n-]c1Cc1c(Cl)cccc1Cl

>  <Energy>  (37) 
94.29541793974856

>  <Genealogy>  (37) 
CCc1[n-]c(=Nc2ccc(C(=O)[N-]Cc3cccc(S(=O)(=O)[N-]C)c3)cc2[O-])[n-]c1Cc1c(Cl)cccc1Cl (protonated)
CCc1[n-]/c(=N/c2ccc(C(=O)[N-]Cc3cccc(S(=O)(=O)[N-]C)c3)cc2[O-])[n-]c1Cc1c(Cl)cccc1Cl (cis-trans isomerization)
CCc1[n-]/c(=N/c2ccc(C(=O)[N-]Cc3cccc(S(=O)(=O)[N-]C)c3)cc2[O-])[n-]c1Cc1c(Cl)cccc1Cl (3D coordinates assigned)
CCc1[n-]/c(=N/c2ccc(C(=O)[N-]Cc3cccc(S(=O)(=O)[N-]C)c3)cc2[O-])[n-]c1Cc1c(Cl)cccc1Cl (optimized conformer: 94.29541793974856 kcal/mol)

>  <smiles>  (37) 
CCc1[nH]c(=Nc2ccc(C(=O)NCc3cccc(S(=O)(=O)NC)c3)cc2O)[nH]c1Cc1c(Cl)cccc1Cl

>  <score_type>  (37) 
oracle

>  <origin>  (37) 
adg

>  <m_score__min__energy>  (37) 
-19.699999999999999

>  <m_primary>  (37) 
energy

$$$$
37:0
     RDKit          3D

 36 37  0  0  0  0  0  0  0  0999 V2000
   55.1430   28.0950   44.9040 H   0  0  0  0  0  0  0  0  0  0  0  0
   55.1420   29.0760   44.6540 O   0  0  0  0  0  0  0  0  0  0  0  0
   56.2930   29.8660   44.6810 C   0  0  0  0  0  0  0  0  0  0  0  0
   56.1490   31.2130   44.8020 N   0  0  0  0  0  0  0  0  0  0  0  0
   57.2120   32.0590   44.7840 C   0  0  0  0  0  0  0  0  0  0  0  0
   57.0280   33.2980   44.9050 O   0  0  0  0  0  0  0  0  0  0  0  0
   58.5040   31.5540   44.6270 C   0  0  0  0  0  0  0  0  0  0  0  0
   59.3677   32.2346   44.5975 H   0  0  0  0  0  0  0  0  0  0  0  0
   58.6870   30.1760   44.5080 C   0  0  0  0  0  0  0  0  0  0  0  0
   59.6992   29.7680   44.3703 H   0  0  0  0  0  0  0  0  0  0  0  0
   57.5880   29.3100   44.5630 C   0  0  0  0  0  0  0  0  0  0  0  0
   57.8300   27.8550   44.4820 C   0  0  0  0  0  0  0  0  0  0  0  0
   58.2207   27.4529   43.5356 H   0  0  0  0  0  0  0  0  0  0  0  0
   57.6060   26.9890   45.4840 C   0  0  0  0  0  0  0  0  0  0  0  0
   57.9204   27.2870   46.4951 H   0  0  0  0  0  0  0  0  0  0  0  0
   56.9660   25.6610   45.3270 C   0  0  0  0  0  0  0  0  0  0  0  0
   57.6900   24.5590   44.8400 C   0  0  0  0  0  0  0  0  0  0  0  0
   58.7512   24.6772   44.5756 H   0  0  0  0  0  0  0  0  0  0  0  0
   57.0730   23.3150   44.6890 C   0  0  0  0  0  0  0  0  0  0  0  0
   57.6537   22.4572   44.3190 H   0  0  0  0  0  0  0  0  0  0  0  0
   55.7120   23.1540   45.0080 C   0  0  0  0  0  0  0  0  0  0  0  0
   55.0420   21.9260   44.8840 O   0  0  0  0  0  0  0  0  0  0  0  0
   55.0080   20.8920   45.8710 C   0  0  0  0  0  0  0  0  0  0  0  0
   54.0508   20.3553   45.7947 H   0  0  0  0  0  0  0  0  0  0  0  0
   55.8522   20.2107   45.6889 H   0  0  0  0  0  0  0  0  0  0  0  0
   55.1470   21.4670   47.2870 C   0  0  0  0  0  0  0  0  0  0  0  0
   54.8740   22.5324   47.2649 H   0  0  0  0  0  0  0  0  0  0  0  0
   54.4802   20.8959   47.9498 H   0  0  0  0  0  0  0  0  0  0  0  0
   56.5710   21.3350   47.8280 C   0  0  0  0  0  0  0  0  0  0  0  0
   56.5894   20.5691   48.6174 H   0  0  0  0  0  0  0  0  0  0  0  0
   57.2404   21.0449   47.0047 H   0  0  0  0  0  0  0  0  0  0  0  0
   57.0010   22.5420   48.3530 F   0  0  0  0  0  0  0  0  0  0  0  0
   54.9830   24.2600   45.4570 C   0  0  0  0  0  0  0  0  0  0  0  0
   53.9140   24.1481   45.6909 H   0  0  0  0  0  0  0  0  0  0  0  0
   55.5980   25.5070   45.6120 C   0  0  0  0  0  0  0  0  0  0  0  0
   54.8450   26.5840   46.0660 O   0  0  0  0  0  0  0  0  0  0  0  0
  1  2  1  0
  2  3  1  0
  3  4  1  0
  4  5  1  0
  5  6  2  0
  5  7  1  0
  7  8  1  0
  7  9  2  0
  9 10  1  0
  9 11  1  0
 11 12  1  0
 12 13  1  0
 12 14  2  0
 14 15  1  0
 14 16  1  0
 16 17  2  0
 17 18  1  0
 17 19  1  0
 19 20  1  0
 19 21  2  0
 21 22  1  0
 22 23  1  0
 23 24  1  0
 23 25  1  0
 23 26  1  0
 26 27  1  0
 26 28  1  0
 26 29  1  0
 29 30  1  0
 29 31  1  0
 29 32  1  0
 21 33  1  0
 33 34  1  0
 33 35  2  0
 35 36  1  0
 11  3  2  0
 35 16  1  0
M  CHG  2   4  -1  36  -1
M  END
>  <UniqueID>  (38) 
36

>  <SMILES>  (38) 
O=c1ccc(/C=C\c2ccc(OCCCF)cc2[O-])c(O)[n-]1

>  <Energy>  (38) 
45.67866688845197

>  <Genealogy>  (38) 
O=c1ccc(C=Cc2ccc(OCCCF)cc2[O-])c(O)[n-]1 (protonated)
O=c1ccc(/C=C\c2ccc(OCCCF)cc2[O-])c(O)[n-]1 (cis-trans isomerization)
O=c1ccc(/C=C\c2ccc(OCCCF)cc2[O-])c(O)[n-]1 (3D coordinates assigned)
O=c1ccc(/C=C\c2ccc(OCCCF)cc2[O-])c(O)[n-]1 (optimized conformer: 45.67866688845197 kcal/mol)

>  <smiles>  (38) 
O=c1ccc(C=Cc2ccc(OCCCF)cc2O)c(O)[nH]1

>  <score_type>  (38) 
oracle

>  <origin>  (38) 
adg

>  <m_score__min__energy>  (38) 
-12.75

>  <m_primary>  (38) 
energy

$$$$
38:0
     RDKit          3D

 66 71  0  0  0  0  0  0  0  0999 V2000
   61.3810   34.0940   50.4250 C   0  0  0  0  0  0  0  0  0  0  0  0
   61.9130   33.2280   49.3140 C   0  0  0  0  0  0  0  0  0  0  0  0
   63.2120   32.6980   49.4290 C   0  0  0  0  0  0  0  0  0  0  0  0
   63.7530   31.9130   48.4100 C   0  0  0  0  0  0  0  0  0  0  0  0
   63.0130   31.6570   47.2570 C   0  0  0  0  0  0  0  0  0  0  0  0
   61.7220   32.1730   47.1260 C   0  0  0  0  0  0  0  0  0  0  0  0
   61.1450   32.9340   48.1580 C   0  0  0  0  0  0  0  0  0  0  0  0
   59.4810   33.5130   47.9420 S   0  0  0  0  0  0  0  0  0  0  0  0
   58.5000   32.7020   48.7410 O   0  0  0  0  0  0  0  0  0  0  0  0
   59.4120   34.9460   48.3860 O   0  0  0  0  0  0  0  0  0  0  0  0
   59.0250   33.4230   46.2700 N   0  0  0  0  0  0  0  0  0  0  0  0
   57.7410   32.9990   45.7910 C   0  0  0  0  0  0  0  0  0  0  0  0
   56.7240   33.2640   46.4880 O   0  0  0  0  0  0  0  0  0  0  0  0
   57.5690   32.3290   44.4480 C   0  0  0  0  0  0  0  0  0  0  0  0
   57.1360   30.8990   44.5850 C   0  0  0  0  0  0  0  0  0  0  0  0
   56.2190   30.3020   43.7920 N   0  0  0  0  0  0  0  0  0  0  0  0
   56.0500   29.0450   44.1980 N   0  0  0  0  0  0  0  0  0  0  0  0
   56.8630   28.8520   45.2510 C   0  0  0  0  0  0  0  0  0  0  0  0
   57.0190   27.7090   46.0390 C   0  0  0  0  0  0  0  0  0  0  0  0
   56.2890   26.4540   45.7800 C   0  0  0  0  0  0  0  0  0  0  0  0
   54.9120   26.3500   46.1400 N   0  0  0  0  0  0  0  0  0  0  0  0
   56.8670   25.4660   45.2520 O   0  0  0  0  0  0  0  0  0  0  0  0
   57.8830   27.7870   47.0960 N   0  0  0  0  0  0  0  0  0  0  0  0
   58.5910   28.9250   47.4020 C   0  0  0  0  0  0  0  0  0  0  0  0
   59.4700   28.9470   48.5960 C   0  0  0  0  0  0  0  0  0  0  0  0
   60.3940   27.9160   48.8410 C   0  0  0  0  0  0  0  0  0  0  0  0
   61.1680   27.9480   50.0010 C   0  0  0  0  0  0  0  0  0  0  0  0
   61.0270   29.0010   50.9080 C   0  0  0  0  0  0  0  0  0  0  0  0
   60.1020   30.0240   50.6370 C   0  0  0  0  0  0  0  0  0  0  0  0
   59.9080   31.1230   51.5460 N   0  0  0  0  0  0  0  0  0  0  0  0
   58.8290   32.1100   51.4500 C   0  0  0  0  0  0  0  0  0  0  0  0
   59.1420   33.0560   52.5480 C   0  0  0  0  0  0  0  0  0  0  0  0
   58.4440   34.2120   52.8990 C   0  0  0  0  0  0  0  0  0  0  0  0
   58.9230   34.9880   53.9650 C   0  0  0  0  0  0  0  0  0  0  0  0
   60.0830   34.6000   54.6610 C   0  0  0  0  0  0  0  0  0  0  0  0
   60.7740   33.4240   54.3000 C   0  0  0  0  0  0  0  0  0  0  0  0
   62.0260   33.0100   55.0170 C   0  0  0  0  0  0  0  0  0  0  0  0
   60.2760   32.6700   53.2270 C   0  0  0  0  0  0  0  0  0  0  0  0
   60.8320   31.4230   52.6430 C   0  0  0  0  0  0  0  0  0  0  0  0
   59.3580   29.9630   49.4970 N   0  0  0  0  0  0  0  0  0  0  0  0
   58.4430   30.0740   46.5940 C   0  0  0  0  0  0  0  0  0  0  0  0
   57.5590   29.9880   45.5250 C   0  0  0  0  0  0  0  0  0  0  0  0
   61.6520   33.6529   51.3956 H   0  0  0  0  0  0  0  0  0  0  0  0
   61.8165   35.1010   50.3455 H   0  0  0  0  0  0  0  0  0  0  0  0
   60.2859   34.1608   50.3455 H   0  0  0  0  0  0  0  0  0  0  0  0
   63.8065   32.9047   50.3311 H   0  0  0  0  0  0  0  0  0  0  0  0
   64.7651   31.4956   48.5169 H   0  0  0  0  0  0  0  0  0  0  0  0
   63.4461   31.0481   46.4497 H   0  0  0  0  0  0  0  0  0  0  0  0
   61.1504   31.9821   46.2057 H   0  0  0  0  0  0  0  0  0  0  0  0
   56.8083   32.8769   43.8725 H   0  0  0  0  0  0  0  0  0  0  0  0
   58.5418   32.3419   43.9346 H   0  0  0  0  0  0  0  0  0  0  0  0
   54.4660   27.0520   46.7720 H   0  0  0  0  0  0  0  0  0  0  0  0
   60.5057   27.0901   48.1231 H   0  0  0  0  0  0  0  0  0  0  0  0
   61.8903   27.1430   50.2018 H   0  0  0  0  0  0  0  0  0  0  0  0
   61.6338   29.0293   51.8251 H   0  0  0  0  0  0  0  0  0  0  0  0
   58.8438   32.6180   50.4745 H   0  0  0  0  0  0  0  0  0  0  0  0
   57.8265   31.6652   51.5343 H   0  0  0  0  0  0  0  0  0  0  0  0
   57.5373   34.5086   52.3514 H   0  0  0  0  0  0  0  0  0  0  0  0
   58.3894   35.9041   54.2583 H   0  0  0  0  0  0  0  0  0  0  0  0
   60.4535   35.2179   55.4922 H   0  0  0  0  0  0  0  0  0  0  0  0
   61.8615   33.0644   56.1033 H   0  0  0  0  0  0  0  0  0  0  0  0
   62.2850   31.9784   54.7366 H   0  0  0  0  0  0  0  0  0  0  0  0
   62.8490   33.6838   54.7366 H   0  0  0  0  0  0  0  0  0  0  0  0
   61.8523   31.5856   52.2654 H   0  0  0  0  0  0  0  0  0  0  0  0
   60.9130   30.6045   53.3735 H   0  0  0  0  0  0  0  0  0  0  0  0
   59.0034   30.9974   46.8019 H   0  0  0  0  0  0  0  0  0  0  0  0
  1  2  1  0
  2  3  2  0
  3  4  1  0
  4  5  2  0
  5  6  1  0
  6  7  2  0
  7  8  1  0
  8  9  2  0
  8 10  2  0
  8 11  1  0
 11 12  1  0
 12 13  2  0
 12 14  1  0
 14 15  1  0
 15 16  2  0
 16 17  1  0
 17 18  1  0
 18 19  2  0
 19 20  1  0
 20 21  1  0
 20 22  2  0
 19 23  1  0
 23 24  2  0
 24 25  1  0
 25 26  2  0
 26 27  1  0
 27 28  2  0
 28 29  1  0
 29 30  1  0
 30 31  1  0
 31 32  1  0
 32 33  2  0
 33 34  1  0
 34 35  2  0
 35 36  1  0
 36 37  1  0
 36 38  2  0
 38 39  1  0
 29 40  2  0
 24 41  1  0
 41 42  2  0
  7  2  1  0
 42 15  1  0
 42 18  1  0
 40 25  1  0
 39 30  1  0
 38 32  1  0
  1 43  1  0
  1 44  1  0
  1 45  1  0
  3 46  1  0
  4 47  1  0
  5 48  1  0
  6 49  1  0
 14 50  1  0
 14 51  1  0
 21 52  1  0
 26 53  1  0
 27 54  1  0
 28 55  1  0
 31 56  1  0
 31 57  1  0
 33 58  1  0
 34 59  1  0
 35 60  1  0
 37 61  1  0
 37 62  1  0
 37 63  1  0
 39 64  1  0
 39 65  1  0
 41 66  1  0
M  CHG  3  11  -1  17  -1  21  -1
M  END
>  <UniqueID>  (39) 
37

>  <SMILES>  (39) 
Cc1ccccc1S(=O)(=O)[N-]C(=O)Cc1n[n-]c2c(C([NH-])=O)nc(-c3cccc(N4Cc5cccc(C)c5C4)n3)cc12

>  <Energy>  (39) 
125.27313524387948

>  <Genealogy>  (39) 
Cc1ccccc1S(=O)(=O)[N-]C(=O)Cc1n[n-]c2c(C([NH-])=O)nc(-c3cccc(N4Cc5cccc(C)c5C4)n3)cc12 (protonated)
Cc1ccccc1S(=O)(=O)[N-]C(=O)Cc1n[n-]c2c(C([NH-])=O)nc(-c3cccc(N4Cc5cccc(C)c5C4)n3)cc12 (3D coordinates assigned)
Cc1ccccc1S(=O)(=O)[N-]C(=O)Cc1n[n-]c2c(C([NH-])=O)nc(-c3cccc(N4Cc5cccc(C)c5C4)n3)cc12 (nonaromatic ring conformer: 125.27313524387948 kcal/mol)

>  <smiles>  (39) 
Cc1ccccc1S(=O)(=O)NC(=O)Cc1n[nH]c2c(C(N)=O)nc(-c3cccc(N4Cc5cccc(C)c5C4)n3)cc12

>  <score_type>  (39) 
oracle

>  <origin>  (39) 
adg

>  <m_score__min__energy>  (39) 
-16.07

>  <m_primary>  (39) 
energy

$$$$
39:0
     RDKit          3D

 39 41  0  0  0  0  0  0  0  0999 V2000
   58.2225   31.3574   44.7008 H   0  0  0  0  0  0  0  0  0  0  0  0
   58.0800   30.2850   44.9000 C   0  0  0  0  0  0  0  0  0  0  0  0
   57.7369   29.6171   44.0961 H   0  0  0  0  0  0  0  0  0  0  0  0
   58.3250   29.7910   46.1250 C   0  0  0  0  0  0  0  0  0  0  0  0
   58.1810   28.4500   46.4990 C   0  0  0  0  0  0  0  0  0  0  0  0
   57.8260   27.4120   45.7140 C   0  0  0  0  0  0  0  0  0  0  0  0
   57.9933   27.5024   44.6306 H   0  0  0  0  0  0  0  0  0  0  0  0
   57.2270   26.1630   46.2210 C   0  0  0  0  0  0  0  0  0  0  0  0
   55.8880   25.8430   46.3280 C   0  0  0  0  0  0  0  0  0  0  0  0
   54.8210   26.6730   46.0070 O   0  0  0  0  0  0  0  0  0  0  0  0
   55.7400   24.5710   46.7460 N   0  0  0  0  0  0  0  0  0  0  0  0
   57.0150   24.1420   46.8620 C   0  0  0  0  0  0  0  0  0  0  0  0
   57.3130   22.9760   47.2300 O   0  0  0  0  0  0  0  0  0  0  0  0
   57.9380   25.0690   46.5380 N   0  0  0  0  0  0  0  0  0  0  0  0
   58.9770   24.9590   46.5350 H   0  0  0  0  0  0  0  0  0  0  0  0
   58.5310   28.3790   47.8360 C   0  0  0  0  0  0  0  0  0  0  0  0
   58.5434   27.4761   48.4642 H   0  0  0  0  0  0  0  0  0  0  0  0
   58.8610   29.6580   48.2280 C   0  0  0  0  0  0  0  0  0  0  0  0
   59.3010   30.0150   49.6180 C   0  0  0  0  0  0  0  0  0  0  0  0
   58.6627   29.4971   50.3490 H   0  0  0  0  0  0  0  0  0  0  0  0
   60.3472   29.7073   49.7618 H   0  0  0  0  0  0  0  0  0  0  0  0
   59.2155   31.1022   49.7618 H   0  0  0  0  0  0  0  0  0  0  0  0
   58.7440   30.5290   47.1940 N   0  0  0  0  0  0  0  0  0  0  0  0
   58.9870   31.9880   47.2810 C   0  0  0  0  0  0  0  0  0  0  0  0
   58.8968   32.2890   48.3352 H   0  0  0  0  0  0  0  0  0  0  0  0
   60.4460   32.3650   46.8870 C   0  0  0  0  0  0  0  0  0  0  0  0
   61.0076   32.5801   47.8080 H   0  0  0  0  0  0  0  0  0  0  0  0
   60.8544   31.5093   46.3294 H   0  0  0  0  0  0  0  0  0  0  0  0
   60.5520   33.5900   45.9590 C   0  0  0  0  0  0  0  0  0  0  0  0
   61.5685   34.0047   46.0277 H   0  0  0  0  0  0  0  0  0  0  0  0
   60.3323   33.2667   44.9308 H   0  0  0  0  0  0  0  0  0  0  0  0
   59.5610   34.6550   46.3440 C   0  0  0  0  0  0  0  0  0  0  0  0
   59.9050   35.8270   46.3700 O   0  0  0  0  0  0  0  0  0  0  0  0
   58.1340   34.2910   46.6610 C   0  0  0  0  0  0  0  0  0  0  0  0
   57.9071   34.5965   47.6931 H   0  0  0  0  0  0  0  0  0  0  0  0
   57.4768   34.8102   45.9479 H   0  0  0  0  0  0  0  0  0  0  0  0
   57.9000   32.7810   46.5240 C   0  0  0  0  0  0  0  0  0  0  0  0
   56.9136   32.5294   46.9409 H   0  0  0  0  0  0  0  0  0  0  0  0
   57.9446   32.5121   45.4583 H   0  0  0  0  0  0  0  0  0  0  0  0
  1  2  1  0
  2  3  1  0
  2  4  2  0
  4  5  1  0
  5  6  2  0
  6  7  1  0
  6  8  1  0
  8  9  2  0
  9 10  1  0
  9 11  1  0
 11 12  1  0
 12 13  2  0
 12 14  1  0
 14 15  1  0
  5 16  1  0
 16 17  1  0
 16 18  2  0
 18 19  1  0
 19 20  1  0
 19 21  1  0
 19 22  1  0
 18 23  1  0
 23 24  1  0
 24 25  1  0
 24 26  1  0
 26 27  1  0
 26 28  1  0
 26 29  1  0
 29 30  1  0
 29 31  1  0
 29 32  1  0
 32 33  2  0
 32 34  1  0
 34 35  1  0
 34 36  1  0
 34 37  1  0
 37 38  1  0
 37 39  1  0
 23  4  1  0
 37 24  1  0
 14  8  1  0
M  CHG  2  10  -1  11  -1
M  END
>  <UniqueID>  (40) 
38

>  <SMILES>  (40) 
C=c1/c(=C/c2[nH]c(=O)[n-]c2[O-])cc(C)n1C1CCC(=O)CC1

>  <Energy>  (40) 
110.03467179880761

>  <Genealogy>  (40) 
C=c1c(=Cc2[nH]c(=O)[n-]c2[O-])cc(C)n1C1CCC(=O)CC1 (protonated)
C=c1/c(=C/c2[nH]c(=O)[n-]c2[O-])cc(C)n1C1CCC(=O)CC1 (cis-trans isomerization)
C=c1/c(=C/c2[nH]c(=O)[n-]c2[O-])cc(C)n1C1CCC(=O)CC1 (3D coordinates assigned)
C=c1/c(=C/c2[nH]c(=O)[n-]c2[O-])cc(C)n1C1CCC(=O)CC1 (nonaromatic ring conformer: 110.03467179880761 kcal/mol)

>  <smiles>  (40) 
C=c1c(=Cc2[nH]c(=O)[nH]c2O)cc(C)n1C1CCC(=O)CC1

>  <score_type>  (40) 
oracle

>  <origin>  (40) 
adg

>  <m_score__min__energy>  (40) 
-13.6

>  <m_primary>  (40) 
energy

$$$$
40:0
     RDKit          3D

 48 50  0  0  0  0  0  0  0  0999 V2000
   53.9570   23.4800   45.5990 C   0  0  0  0  0  0  0  0  0  0  0  0
   55.1840   23.8400   45.9840 C   0  0  0  0  0  0  0  0  0  0  0  0
   55.7300   25.1850   45.7090 C   0  0  0  0  0  0  0  0  0  0  0  0
   56.9980   25.4520   45.2480 C   0  0  0  0  0  0  0  0  0  0  0  0
   57.0550   26.8320   45.2110 C   0  0  0  0  0  0  0  0  0  0  0  0
   58.2220   27.6400   44.8030 C   0  0  0  0  0  0  0  0  0  0  0  0
   58.7210   27.4500   43.6580 O   0  0  0  0  0  0  0  0  0  0  0  0
   58.7980   28.6260   45.6790 N   0  0  0  0  0  0  0  0  0  0  0  0
   60.1930   29.0360   45.4440 C   0  0  0  0  0  0  0  0  0  0  0  0
   60.8200   29.6330   46.7150 C   0  0  0  0  0  0  0  0  0  0  0  0
   59.9370   30.7660   47.2970 C   0  0  0  0  0  0  0  0  0  0  0  0
   59.7590   31.9060   46.3350 N   0  0  0  0  0  0  0  0  0  0  0  0
   58.3510   32.3440   46.2550 C   0  0  0  0  0  0  0  0  0  0  0  0
   58.1830   33.4110   45.1420 C   0  0  2  0  0  0  0  0  0  0  0  0
   57.5560   32.7940   43.8870 C   0  0  0  0  0  0  0  0  0  0  0  0
   59.4130   34.0140   44.7630 O   0  0  0  0  0  0  0  0  0  0  0  0
   60.2280   34.3370   45.8780 C   0  0  1  0  0  0  0  0  0  0  0  0
   59.6370   35.4800   46.7220 C   0  0  0  0  0  0  0  0  0  0  0  0
   60.5760   33.0820   46.7190 C   0  0  0  0  0  0  0  0  0  0  0  0
   58.5890   30.0890   47.6580 C   0  0  0  0  0  0  0  0  0  0  0  0
   57.9030   29.5550   46.3950 C   0  0  0  0  0  0  0  0  0  0  0  0
   55.8900   27.3490   45.6430 N   0  0  0  0  0  0  0  0  0  0  0  0
   55.0790   26.3410   45.9450 N   0  0  0  0  0  0  0  0  0  0  0  0
   53.5850   22.4691   45.8220 H   0  0  0  0  0  0  0  0  0  0  0  0
   53.3183   24.1944   45.0589 H   0  0  0  0  0  0  0  0  0  0  0  0
   55.8080   23.1120   46.5230 H   0  0  0  0  0  0  0  0  0  0  0  0
   57.7842   24.7336   44.9727 H   0  0  0  0  0  0  0  0  0  0  0  0
   60.7777   28.1572   45.1344 H   0  0  0  0  0  0  0  0  0  0  0  0
   60.2017   29.8051   44.6576 H   0  0  0  0  0  0  0  0  0  0  0  0
   60.9278   28.8391   47.4687 H   0  0  0  0  0  0  0  0  0  0  0  0
   61.8013   30.0558   46.4536 H   0  0  0  0  0  0  0  0  0  0  0  0
   60.4074   31.2260   48.1786 H   0  0  0  0  0  0  0  0  0  0  0  0
   57.7135   31.4772   46.0263 H   0  0  0  0  0  0  0  0  0  0  0  0
   58.0569   32.7831   47.2197 H   0  0  0  0  0  0  0  0  0  0  0  0
   57.5276   34.1844   45.5690 H   0  0  0  0  0  0  0  0  0  0  0  0
   56.8007   32.0507   44.1820 H   0  0  0  0  0  0  0  0  0  0  0  0
   57.0787   33.5844   43.2891 H   0  0  0  0  0  0  0  0  0  0  0  0
   58.3386   32.3040   43.2891 H   0  0  0  0  0  0  0  0  0  0  0  0
   61.1806   34.7191   45.4825 H   0  0  0  0  0  0  0  0  0  0  0  0
   59.7574   35.2471   47.7903 H   0  0  0  0  0  0  0  0  0  0  0  0
   60.1634   36.4175   46.4895 H   0  0  0  0  0  0  0  0  0  0  0  0
   58.5677   35.5925   46.4895 H   0  0  0  0  0  0  0  0  0  0  0  0
   61.6384   32.8391   46.5698 H   0  0  0  0  0  0  0  0  0  0  0  0
   60.3619   33.3121   47.7732 H   0  0  0  0  0  0  0  0  0  0  0  0
   58.7766   29.2539   48.3490 H   0  0  0  0  0  0  0  0  0  0  0  0
   57.9324   30.8329   48.1329 H   0  0  0  0  0  0  0  0  0  0  0  0
   56.9820   29.0248   46.6791 H   0  0  0  0  0  0  0  0  0  0  0  0
   57.6628   30.4008   45.7339 H   0  0  0  0  0  0  0  0  0  0  0  0
  1  2  2  0
  2  3  1  0
  3  4  2  0
  4  5  1  0
  5  6  1  0
  6  7  2  0
  6  8  1  0
  8  9  1  0
  9 10  1  0
 10 11  1  0
 11 12  1  0
 12 13  1  0
 13 14  1  0
 14 15  1  0
 14 16  1  0
 16 17  1  0
 17 18  1  0
 17 19  1  0
 11 20  1  0
 20 21  1  0
  5 22  2  0
 22 23  1  0
 23  3  1  0
 21  8  1  0
 19 12  1  0
  1 24  1  0
  1 25  1  0
  2 26  1  0
  4 27  1  0
  9 28  1  0
  9 29  1  0
 10 30  1  0
 10 31  1  0
 11 32  1  0
 13 33  1  0
 13 34  1  0
 14 35  1  1
 15 36  1  0
 15 37  1  0
 15 38  1  0
 17 39  1  6
 18 40  1  0
 18 41  1  0
 18 42  1  0
 19 43  1  0
 19 44  1  0
 20 45  1  0
 20 46  1  0
 21 47  1  0
 21 48  1  0
M  CHG  1  23  -1
M  END
>  <UniqueID>  (41) 
39

>  <SMILES>  (41) 
C=Cc1cc(C(=O)N2CCC(N3C[C@H](C)O[C@@H](C)C3)CC2)n[n-]1

>  <Energy>  (41) 
92.07132605481077

>  <Genealogy>  (41) 
C=Cc1cc(C(=O)N2CCC(N3CC(C)OC(C)C3)CC2)n[n-]1 (protonated)
C=Cc1cc(C(=O)N2CCC(N3C[C@H](C)O[C@@H](C)C3)CC2)n[n-]1 (chirality)
C=Cc1cc(C(=O)N2CCC(N3C[C@H](C)O[C@@H](C)C3)CC2)n[n-]1 (3D coordinates assigned)
C=Cc1cc(C(=O)N2CCC(N3C[C@H](C)O[C@@H](C)C3)CC2)n[n-]1 (nonaromatic ring conformer: 92.07132605481077 kcal/mol)

>  <smiles>  (41) 
C=Cc1cc(C(=O)N2CCC(N3CC(C)OC(C)C3)CC2)n[nH]1

>  <score_type>  (41) 
oracle

>  <origin>  (41) 
adg

>  <m_score__min__energy>  (41) 
-9.6500000000000004

>  <m_primary>  (41) 
energy

$$$$
41:0
     RDKit          3D

 52 55  0  0  0  0  0  0  0  0999 V2000
   55.5250   29.7450   43.9040 C   0  0  0  0  0  0  0  0  0  0  0  0
   56.6700   30.2290   44.3910 C   0  0  0  0  0  0  0  0  0  0  0  0
   56.7790   31.4850   44.8740 N   0  0  0  0  0  0  0  0  0  0  0  0
   58.0270   31.6660   45.2820 N   0  0  0  0  0  0  0  0  0  0  0  0
   58.4890   32.8870   45.8980 C   0  0  0  0  0  0  0  0  0  0  0  0
   58.6240   32.9970   47.2970 C   0  0  0  0  0  0  0  0  0  0  0  0
   59.0750   34.1890   47.8740 C   0  0  0  0  0  0  0  0  0  0  0  0
   59.3970   35.2820   47.0620 C   0  0  0  0  0  0  0  0  0  0  0  0
   59.2910   35.1760   45.6730 C   0  0  0  0  0  0  0  0  0  0  0  0
   58.8420   33.9860   45.0910 C   0  0  0  0  0  0  0  0  0  0  0  0
   58.7210   30.5250   45.0760 C   0  0  0  0  0  0  0  0  0  0  0  0
   59.9100   30.3430   45.4530 O   0  0  0  0  0  0  0  0  0  0  0  0
   57.8970   29.5710   44.4910 C   0  0  0  0  0  0  0  0  0  0  0  0
   58.1790   28.2940   44.1670 C   0  0  0  0  0  0  0  0  0  0  0  0
   57.8580   27.1350   45.0200 C   0  0  0  0  0  0  0  0  0  0  0  0
   58.8310   26.1500   45.2480 C   0  0  0  0  0  0  0  0  0  0  0  0
   58.5470   25.0550   46.0700 C   0  0  0  0  0  0  0  0  0  0  0  0
   57.2850   24.9350   46.6770 C   0  0  0  0  0  0  0  0  0  0  0  0
   56.9760   23.8320   47.5360 N   0  0  0  0  0  0  0  0  0  0  0  0
   57.0040   22.4430   47.1740 C   0  0  0  0  0  0  0  0  0  0  0  0
   57.0120   21.5890   48.0990 O   0  0  0  0  0  0  0  0  0  0  0  0
   56.8400   21.9890   45.7340 C   0  0  0  0  0  0  0  0  0  0  0  0
   58.1950   22.0490   45.0040 C   0  0  0  0  0  0  0  0  0  0  0  0
   58.1030   21.4330   43.5890 C   0  0  0  0  0  0  0  0  0  0  0  0
   56.7000   21.5570   42.9560 C   0  0  0  0  0  0  0  0  0  0  0  0
   55.9620   22.8130   43.4420 C   0  0  0  0  0  0  0  0  0  0  0  0
   55.7600   22.8120   44.9740 C   0  0  0  0  0  0  0  0  0  0  0  0
   56.3390   25.9520   46.5060 C   0  0  0  0  0  0  0  0  0  0  0  0
   56.6210   27.0450   45.6810 C   0  0  0  0  0  0  0  0  0  0  0  0
   55.4822   28.7149   43.5206 H   0  0  0  0  0  0  0  0  0  0  0  0
   54.6244   30.3763   43.8862 H   0  0  0  0  0  0  0  0  0  0  0  0
   58.3731   32.1399   47.9392 H   0  0  0  0  0  0  0  0  0  0  0  0
   59.1765   34.2670   48.9665 H   0  0  0  0  0  0  0  0  0  0  0  0
   59.7337   36.2250   47.5174 H   0  0  0  0  0  0  0  0  0  0  0  0
   59.5614   36.0306   45.0354 H   0  0  0  0  0  0  0  0  0  0  0  0
   58.7641   33.9080   43.9965 H   0  0  0  0  0  0  0  0  0  0  0  0
   58.6799   28.1043   43.2062 H   0  0  0  0  0  0  0  0  0  0  0  0
   59.8215   26.2396   44.7781 H   0  0  0  0  0  0  0  0  0  0  0  0
   59.3136   24.2852   46.2421 H   0  0  0  0  0  0  0  0  0  0  0  0
   56.4871   20.9473   45.7511 H   0  0  0  0  0  0  0  0  0  0  0  0
   58.5080   23.0999   44.9169 H   0  0  0  0  0  0  0  0  0  0  0  0
   58.9270   21.4698   45.5860 H   0  0  0  0  0  0  0  0  0  0  0  0
   58.8259   21.9461   42.9377 H   0  0  0  0  0  0  0  0  0  0  0  0
   58.3210   20.3593   43.6875 H   0  0  0  0  0  0  0  0  0  0  0  0
   56.8064   21.6078   41.8623 H   0  0  0  0  0  0  0  0  0  0  0  0
   56.1113   20.6777   43.2565 H   0  0  0  0  0  0  0  0  0  0  0  0
   56.5493   23.7000   43.1622 H   0  0  0  0  0  0  0  0  0  0  0  0
   54.9688   22.8266   42.9693 H   0  0  0  0  0  0  0  0  0  0  0  0
   55.7963   23.8514   45.3321 H   0  0  0  0  0  0  0  0  0  0  0  0
   54.7873   22.3395   45.1752 H   0  0  0  0  0  0  0  0  0  0  0  0
   55.3698   25.8912   47.0227 H   0  0  0  0  0  0  0  0  0  0  0  0
   55.8708   27.8386   45.5486 H   0  0  0  0  0  0  0  0  0  0  0  0
  1  2  2  0
  2  3  1  0
  3  4  1  0
  4  5  1  0
  5  6  2  0
  6  7  1  0
  7  8  2  0
  8  9  1  0
  9 10  2  0
  4 11  1  0
 11 12  2  0
 11 13  1  0
 13 14  2  3
 14 15  1  0
 15 16  2  0
 16 17  1  0
 17 18  2  0
 18 19  1  0
 19 20  1  0
 20 21  2  0
 20 22  1  0
 22 23  1  0
 23 24  1  0
 24 25  1  0
 25 26  1  0
 26 27  1  0
 18 28  1  0
 28 29  2  0
 13  2  1  0
 29 15  1  0
 10  5  1  0
 27 22  1  0
  1 30  1  0
  1 31  1  0
  6 32  1  0
  7 33  1  0
  8 34  1  0
  9 35  1  0
 10 36  1  0
 14 37  1  0
 16 38  1  0
 17 39  1  0
 22 40  1  0
 23 41  1  0
 23 42  1  0
 24 43  1  0
 24 44  1  0
 25 45  1  0
 25 46  1  0
 26 47  1  0
 26 48  1  0
 27 49  1  0
 27 50  1  0
 28 51  1  0
 29 52  1  0
M  CHG  2   3  -1  19  -1
M  END
>  <UniqueID>  (42) 
40

>  <SMILES>  (42) 
C=c1[n-]n(-c2ccccc2)c(=O)c1=Cc1ccc([N-]C(=O)C2CCCCC2)cc1

>  <Energy>  (42) 
109.88579755124704

>  <Genealogy>  (42) 
C=c1[n-]n(-c2ccccc2)c(=O)c1=Cc1ccc([N-]C(=O)C2CCCCC2)cc1 (protonated)
C=c1[n-]n(-c2ccccc2)c(=O)c1=Cc1ccc([N-]C(=O)C2CCCCC2)cc1 (3D coordinates assigned)
C=c1[n-]n(-c2ccccc2)c(=O)c1=Cc1ccc([N-]C(=O)C2CCCCC2)cc1 (nonaromatic ring conformer: 109.88579755124704 kcal/mol)

>  <smiles>  (42) 
C=c1[nH]n(-c2ccccc2)c(=O)c1=Cc1ccc(NC(=O)C2CCCCC2)cc1

>  <score_type>  (42) 
oracle

>  <origin>  (42) 
adg

>  <m_score__min__energy>  (42) 
-12.06

>  <m_primary>  (42) 
energy

$$$$
42:0
     RDKit          3D

 54 57  0  0  0  0  0  0  0  0999 V2000
   62.7250   31.2250   47.1430 C   0  0  0  0  0  0  0  0  0  0  0  0
   62.0570   32.2530   47.6810 C   0  0  0  0  0  0  0  0  0  0  0  0
   62.6050   33.3330   48.3800 C   0  0  0  0  0  0  0  0  0  0  0  0
   63.9080   33.5600   48.6370 C   0  0  0  0  0  0  0  0  0  0  0  0
   64.7050   32.7800   49.5990 C   0  0  0  0  0  0  0  0  0  0  0  0
   66.0370   32.9090   49.7280 N   0  0  0  0  0  0  0  0  0  0  0  0
   66.3570   31.9660   50.6420 C   0  0  0  0  0  0  0  0  0  0  0  0
   67.5370   31.7830   51.0420 O   0  0  0  0  0  0  0  0  0  0  0  0
   65.3180   31.2290   51.0840 N   0  0  0  0  0  0  0  0  0  0  0  0
   64.2790   31.7460   50.4050 C   0  0  0  0  0  0  0  0  0  0  0  0
   62.9800   31.2550   50.4870 O   0  0  0  0  0  0  0  0  0  0  0  0
   61.5420   34.1690   48.7000 C   0  0  0  0  0  0  0  0  0  0  0  0
   60.4010   33.5630   48.2100 C   0  0  0  0  0  0  0  0  0  0  0  0
   59.0290   34.1610   48.2530 C   0  0  0  0  0  0  0  0  0  0  0  0
   60.7130   32.4000   47.5990 N   0  0  0  0  0  0  0  0  0  0  0  0
   59.7810   31.5270   46.9380 C   0  0  0  0  0  0  0  0  0  0  0  0
   59.2000   31.9420   45.7340 C   0  0  0  0  0  0  0  0  0  0  0  0
   58.2610   31.1400   45.0870 C   0  0  0  0  0  0  0  0  0  0  0  0
   57.8660   29.9240   45.6560 C   0  0  0  0  0  0  0  0  0  0  0  0
   56.6610   28.9120   44.8680 S   0  0  0  0  0  0  0  0  0  0  0  0
   55.1540   29.7560   44.8020 N   0  0  0  0  0  0  0  0  0  0  0  0
   57.1160   28.5800   43.4750 O   0  0  0  0  0  0  0  0  0  0  0  0
   56.4750   27.6320   45.6340 O   0  0  0  0  0  0  0  0  0  0  0  0
   58.4420   29.5030   46.8610 C   0  0  0  0  0  0  0  0  0  0  0  0
   59.4340   30.2710   47.4900 C   0  0  0  0  0  0  0  0  0  0  0  0
   60.0490   29.7940   48.7530 C   0  0  0  0  0  0  0  0  0  0  0  0
   61.2650   29.4700   48.7550 O   0  0  0  0  0  0  0  0  0  0  0  0
   59.3140   29.6810   49.9820 N   0  0  0  0  0  0  0  0  0  0  0  0
   58.1860   30.4980   50.4250 C   0  0  0  0  0  0  0  0  0  0  0  0
   58.6520   31.7160   51.1760 C   0  0  0  0  0  0  0  0  0  0  0  0
   60.0180   32.0400   51.2140 C   0  0  0  0  0  0  0  0  0  0  0  0
   60.4490   33.2040   51.8570 C   0  0  0  0  0  0  0  0  0  0  0  0
   59.5210   34.0510   52.4680 C   0  0  0  0  0  0  0  0  0  0  0  0
   58.1600   33.7330   52.4400 C   0  0  0  0  0  0  0  0  0  0  0  0
   57.7240   32.5710   51.7970 C   0  0  0  0  0  0  0  0  0  0  0  0
   62.1785   30.4307   46.6135 H   0  0  0  0  0  0  0  0  0  0  0  0
   63.8204   31.1747   47.2304 H   0  0  0  0  0  0  0  0  0  0  0  0
   64.4067   34.3774   48.0955 H   0  0  0  0  0  0  0  0  0  0  0  0
   62.6010   30.6740   49.7500 H   0  0  0  0  0  0  0  0  0  0  0  0
   61.5980   35.1266   49.2385 H   0  0  0  0  0  0  0  0  0  0  0  0
   58.7203   34.2955   49.3002 H   0  0  0  0  0  0  0  0  0  0  0  0
   59.0382   35.1367   47.7452 H   0  0  0  0  0  0  0  0  0  0  0  0
   58.3205   33.4901   47.7452 H   0  0  0  0  0  0  0  0  0  0  0  0
   59.4867   32.9089   45.2947 H   0  0  0  0  0  0  0  0  0  0  0  0
   57.8300   31.4634   44.1280 H   0  0  0  0  0  0  0  0  0  0  0  0
   54.5430   29.3480   45.5450 H   0  0  0  0  0  0  0  0  0  0  0  0
   58.1130   28.5590   47.3200 H   0  0  0  0  0  0  0  0  0  0  0  0
   57.6091   30.8190   49.5451 H   0  0  0  0  0  0  0  0  0  0  0  0
   57.5635   29.8921   51.0999 H   0  0  0  0  0  0  0  0  0  0  0  0
   60.7520   31.3749   50.7357 H   0  0  0  0  0  0  0  0  0  0  0  0
   61.5201   33.4534   51.8819 H   0  0  0  0  0  0  0  0  0  0  0  0
   59.8613   34.9681   52.9711 H   0  0  0  0  0  0  0  0  0  0  0  0
   57.4307   34.3986   52.9250 H   0  0  0  0  0  0  0  0  0  0  0  0
   56.6521   32.3246   51.7767 H   0  0  0  0  0  0  0  0  0  0  0  0
  1  2  2  0
  2  3  1  0
  3  4  2  3
  4  5  1  0
  5  6  1  0
  6  7  1  0
  7  8  2  0
  7  9  1  0
  9 10  1  0
 10 11  1  0
  3 12  1  0
 12 13  2  0
 13 14  1  0
 13 15  1  0
 15 16  1  0
 16 17  2  0
 17 18  1  0
 18 19  2  0
 19 20  1  0
 20 21  1  0
 20 22  2  0
 20 23  2  0
 19 24  1  0
 24 25  2  0
 25 26  1  0
 26 27  2  0
 26 28  1  0
 28 29  1  0
 29 30  1  0
 30 31  2  0
 31 32  1  0
 32 33  2  0
 33 34  1  0
 34 35  2  0
 15  2  1  0
 25 16  1  0
 35 30  1  0
 10  5  2  0
  1 36  1  0
  1 37  1  0
  4 38  1  0
 11 39  1  0
 12 40  1  0
 14 41  1  0
 14 42  1  0
 14 43  1  0
 17 44  1  0
 18 45  1  0
 21 46  1  0
 24 47  1  0
 29 48  1  0
 29 49  1  0
 31 50  1  0
 32 51  1  0
 33 52  1  0
 34 53  1  0
 35 54  1  0
M  CHG  4   6  -1   9  -1  21  -1  28  -1
M  END
>  <UniqueID>  (43) 
41

>  <SMILES>  (43) 
C=c1c(=Cc2[n-]c(=O)[n-]c2O)cc(C)n1-c1ccc(S([NH-])(=O)=O)cc1C(=O)[N-]Cc1ccccc1

>  <Energy>  (43) 
129.212854042111

>  <Genealogy>  (43) 
C=c1c(=Cc2[n-]c(=O)[n-]c2O)cc(C)n1-c1ccc(S([NH-])(=O)=O)cc1C(=O)[N-]Cc1ccccc1 (protonated)
C=c1c(=Cc2[n-]c(=O)[n-]c2O)cc(C)n1-c1ccc(S([NH-])(=O)=O)cc1C(=O)[N-]Cc1ccccc1 (3D coordinates assigned)
C=c1c(=Cc2[n-]c(=O)[n-]c2O)cc(C)n1-c1ccc(S([NH-])(=O)=O)cc1C(=O)[N-]Cc1ccccc1 (optimized conformer: 129.212854042111 kcal/mol)

>  <smiles>  (43) 
C=c1c(=Cc2[nH]c(=O)[nH]c2O)cc(C)n1-c1ccc(S(N)(=O)=O)cc1C(=O)NCc1ccccc1

>  <score_type>  (43) 
oracle

>  <origin>  (43) 
adg

>  <m_score__min__energy>  (43) 
-16.489999999999998

>  <m_primary>  (43) 
energy

$$$$
43:0
     RDKit          3D

 27 28  0  0  0  0  0  0  0  0999 V2000
   55.7930   29.7250   41.9480 H   0  0  0  0  0  0  0  0  0  0  0  0
   56.5620   30.2920   42.3700 N   0  0  0  0  0  0  0  0  0  0  0  0
   56.4300   30.1240   44.0850 S   0  0  0  0  0  0  0  0  0  0  0  0
   55.1290   29.4540   44.4260 O   0  0  0  0  0  0  0  0  0  0  0  0
   56.4530   31.4840   44.7220 O   0  0  0  0  0  0  0  0  0  0  0  0
   57.7730   29.1560   44.6860 C   0  0  0  0  0  0  0  0  0  0  0  0
   59.0810   29.6520   44.6280 C   0  0  0  0  0  0  0  0  0  0  0  0
   59.2689   30.6582   44.2252 H   0  0  0  0  0  0  0  0  0  0  0  0
   60.1470   28.8730   45.0800 C   0  0  0  0  0  0  0  0  0  0  0  0
   61.1734   29.2656   45.0309 H   0  0  0  0  0  0  0  0  0  0  0  0
   59.9130   27.5950   45.5950 C   0  0  0  0  0  0  0  0  0  0  0  0
   60.7587   26.9844   45.9444 H   0  0  0  0  0  0  0  0  0  0  0  0
   58.6100   27.0850   45.6700 C   0  0  0  0  0  0  0  0  0  0  0  0
   58.4300   25.7580   46.1940 N   0  0  0  0  0  0  0  0  0  0  0  0
   57.5010   25.3700   47.0150 C   0  0  0  0  0  0  0  0  0  0  0  0
   57.6161   25.5660   48.0913 H   0  0  0  0  0  0  0  0  0  0  0  0
   56.2850   24.6660   46.5280 C   0  0  0  0  0  0  0  0  0  0  0  0
   55.1660   25.3490   46.0050 C   0  0  0  0  0  0  0  0  0  0  0  0
   55.1420   26.7370   45.9160 O   0  0  0  0  0  0  0  0  0  0  0  0
   54.0840   24.6510   45.5750 N   0  0  0  0  0  0  0  0  0  0  0  0
   54.0490   23.2970   45.6390 C   0  0  0  0  0  0  0  0  0  0  0  0
   53.0330   22.6750   45.2330 O   0  0  0  0  0  0  0  0  0  0  0  0
   55.1070   22.6130   46.1370 N   0  0  0  0  0  0  0  0  0  0  0  0
   56.2160   23.2590   46.5800 C   0  0  0  0  0  0  0  0  0  0  0  0
   57.1760   22.5810   47.0370 O   0  0  0  0  0  0  0  0  0  0  0  0
   57.5380   27.8700   45.1960 C   0  0  0  0  0  0  0  0  0  0  0  0
   56.5129   27.4721   45.2263 H   0  0  0  0  0  0  0  0  0  0  0  0
  1  2  1  0
  2  3  1  0
  3  4  2  0
  3  5  2  0
  3  6  1  0
  6  7  2  0
  7  8  1  0
  7  9  1  0
  9 10  1  0
  9 11  2  0
 11 12  1  0
 11 13  1  0
 13 14  1  0
 14 15  2  0
 15 16  1  0
 15 17  1  0
 17 18  2  0
 18 19  1  0
 18 20  1  0
 20 21  1  0
 21 22  2  0
 21 23  1  0
 23 24  1  0
 24 25  2  0
 13 26  2  0
 26 27  1  0
 26  6  1  0
 24 17  1  0
M  CHG  4   2  -1  19  -1  20  -1  23  -1
M  END
>  <UniqueID>  (44) 
42

>  <SMILES>  (44) 
[NH-]S(=O)(=O)c1cccc(/N=C/c2c([O-])[n-]c(=O)[n-]c2=O)c1

>  <Energy>  (44) 
34.47456674191906

>  <Genealogy>  (44) 
[NH-]S(=O)(=O)c1cccc(N=Cc2c([O-])[n-]c(=O)[n-]c2=O)c1 (protonated)
[NH-]S(=O)(=O)c1cccc(/N=C/c2c([O-])[n-]c(=O)[n-]c2=O)c1 (cis-trans isomerization)
[NH-]S(=O)(=O)c1cccc(/N=C/c2c([O-])[n-]c(=O)[n-]c2=O)c1 (3D coordinates assigned)
[NH-]S(=O)(=O)c1cccc(/N=C/c2c([O-])[n-]c(=O)[n-]c2=O)c1 (optimized conformer: 34.47456674191906 kcal/mol)

>  <smiles>  (44) 
NS(=O)(=O)c1cccc(N=Cc2c(O)[nH]c(=O)[nH]c2=O)c1

>  <score_type>  (44) 
oracle

>  <origin>  (44) 
adg

>  <m_score__min__energy>  (44) 
-17.510000000000002

>  <m_primary>  (44) 
energy

$$$$
44:0
     RDKit          3D

 48 50  0  0  0  0  0  0  0  0999 V2000
   64.4550   33.1020   47.7000 N   0  0  0  0  0  0  0  0  0  0  0  0
   63.8770   32.9150   49.3180 S   0  0  0  0  0  0  0  0  0  0  0  0
   64.2430   31.5490   49.8260 O   0  0  0  0  0  0  0  0  0  0  0  0
   64.5200   33.9460   50.2030 O   0  0  0  0  0  0  0  0  0  0  0  0
   62.1280   33.1160   49.3470 C   0  0  0  0  0  0  0  0  0  0  0  0
   61.5000   33.6830   50.4630 C   0  0  0  0  0  0  0  0  0  0  0  0
   60.1120   33.8320   50.4850 C   0  0  0  0  0  0  0  0  0  0  0  0
   59.3420   33.4120   49.3980 C   0  0  0  0  0  0  0  0  0  0  0  0
   59.9550   32.8320   48.2720 C   0  0  0  0  0  0  0  0  0  0  0  0
   59.1380   32.3770   47.1190 C   0  0  0  0  0  0  0  0  0  0  0  0
   58.0440   33.1400   46.6720 C   0  0  0  0  0  0  0  0  0  0  0  0
   57.2760   32.7120   45.5850 C   0  0  0  0  0  0  0  0  0  0  0  0
   57.5810   31.5090   44.9320 C   0  0  0  0  0  0  0  0  0  0  0  0
   56.7760   31.0700   43.7380 C   0  0  0  0  0  0  0  0  0  0  0  0
   55.5760   30.2180   44.1860 C   0  0  0  0  0  0  0  0  0  0  0  0
   55.9710   29.1170   45.0820 N   0  0  0  0  0  0  0  0  0  0  0  0
   57.0960   28.3270   44.5620 C   0  0  0  0  0  0  0  0  0  0  0  0
   57.4560   27.2160   45.5170 C   0  0  0  0  0  0  0  0  0  0  0  0
   58.8110   26.9050   45.7280 C   0  0  0  0  0  0  0  0  0  0  0  0
   59.1710   25.8670   46.5950 C   0  0  0  0  0  0  0  0  0  0  0  0
   58.1840   25.1320   47.2540 C   0  0  0  0  0  0  0  0  0  0  0  0
   56.8350   25.4300   47.0480 C   0  0  0  0  0  0  0  0  0  0  0  0
   56.4650   26.4650   46.1820 C   0  0  0  0  0  0  0  0  0  0  0  0
   55.1150   26.7360   45.9870 O   0  0  0  0  0  0  0  0  0  0  0  0
   58.6800   30.7510   45.3640 C   0  0  0  0  0  0  0  0  0  0  0  0
   59.4480   31.1780   46.4500 C   0  0  0  0  0  0  0  0  0  0  0  0
   61.3550   32.6870   48.2580 C   0  0  0  0  0  0  0  0  0  0  0  0
   64.4350   32.1560   47.2580 H   0  0  0  0  0  0  0  0  0  0  0  0
   65.4600   33.3820   47.7660 H   0  0  0  0  0  0  0  0  0  0  0  0
   62.1013   34.0115   51.3236 H   0  0  0  0  0  0  0  0  0  0  0  0
   59.6230   34.2818   51.3617 H   0  0  0  0  0  0  0  0  0  0  0  0
   58.2492   33.5354   49.4223 H   0  0  0  0  0  0  0  0  0  0  0  0
   57.7907   34.0812   47.1819 H   0  0  0  0  0  0  0  0  0  0  0  0
   56.4281   33.3220   45.2402 H   0  0  0  0  0  0  0  0  0  0  0  0
   56.4103   31.9576   43.2009 H   0  0  0  0  0  0  0  0  0  0  0  0
   57.4161   30.4666   43.0776 H   0  0  0  0  0  0  0  0  0  0  0  0
   54.8615   30.8653   44.7157 H   0  0  0  0  0  0  0  0  0  0  0  0
   55.1267   29.7727   43.2861 H   0  0  0  0  0  0  0  0  0  0  0  0
   55.1530   28.4810   45.2360 H   0  0  0  0  0  0  0  0  0  0  0  0
   56.8134   27.8917   43.5922 H   0  0  0  0  0  0  0  0  0  0  0  0
   57.9673   28.9881   44.4451 H   0  0  0  0  0  0  0  0  0  0  0  0
   59.5918   27.4804   45.2091 H   0  0  0  0  0  0  0  0  0  0  0  0
   60.2328   25.6301   46.7573 H   0  0  0  0  0  0  0  0  0  0  0  0
   58.4689   24.3174   47.9361 H   0  0  0  0  0  0  0  0  0  0  0  0
   56.0600   24.8485   47.5689 H   0  0  0  0  0  0  0  0  0  0  0  0
   58.9380   29.8161   44.8450 H   0  0  0  0  0  0  0  0  0  0  0  0
   60.3025   30.5719   46.7853 H   0  0  0  0  0  0  0  0  0  0  0  0
   61.8473   32.2332   47.3852 H   0  0  0  0  0  0  0  0  0  0  0  0
  1  2  1  0
  2  3  2  0
  2  4  2  0
  2  5  1  0
  5  6  2  0
  6  7  1  0
  7  8  2  0
  8  9  1  0
  9 10  1  0
 10 11  2  0
 11 12  1  0
 12 13  2  0
 13 14  1  0
 14 15  1  0
 15 16  1  0
 16 17  1  0
 17 18  1  0
 18 19  2  0
 19 20  1  0
 20 21  2  0
 21 22  1  0
 22 23  2  0
 23 24  1  0
 13 25  1  0
 25 26  2  0
  9 27  2  0
 27  5  1  0
 26 10  1  0
 23 18  1  0
  1 28  1  0
  1 29  1  0
  6 30  1  0
  7 31  1  0
  8 32  1  0
 11 33  1  0
 12 34  1  0
 14 35  1  0
 14 36  1  0
 15 37  1  0
 15 38  1  0
 16 39  1  0
 17 40  1  0
 17 41  1  0
 19 42  1  0
 20 43  1  0
 21 44  1  0
 22 45  1  0
 25 46  1  0
 26 47  1  0
 27 48  1  0
M  CHG  1  24  -1
M  END
>  <UniqueID>  (45) 
43

>  <SMILES>  (45) 
NS(=O)(=O)c1cccc(-c2ccc(CCNCc3ccccc3[O-])cc2)c1

>  <Energy>  (45) 
53.11768390786829

>  <Genealogy>  (45) 
NS(=O)(=O)c1cccc(-c2ccc(CCNCc3ccccc3[O-])cc2)c1 (protonated)
NS(=O)(=O)c1cccc(-c2ccc(CCNCc3ccccc3[O-])cc2)c1 (3D coordinates assigned)
NS(=O)(=O)c1cccc(-c2ccc(CCNCc3ccccc3[O-])cc2)c1 (optimized conformer: 53.11768390786829 kcal/mol)

>  <smiles>  (45) 
NS(=O)(=O)c1cccc(-c2ccc(CCNCc3ccccc3O)cc2)c1

>  <score_type>  (45) 
oracle

>  <origin>  (45) 
adg

>  <m_score__min__energy>  (45) 
-13.41

>  <m_primary>  (45) 
energy

$$$$
45:0
     RDKit          3D

 42 44  0  0  0  0  0  0  0  0999 V2000
   58.1390   27.3370   43.3400 C   0  0  0  0  0  0  0  0  0  0  0  0
   58.4570   27.4270   44.8080 C   0  0  0  0  0  0  0  0  0  0  0  0
   59.7330   27.0670   45.2730 C   0  0  0  0  0  0  0  0  0  0  0  0
   60.0440   27.1620   46.6320 C   0  0  0  0  0  0  0  0  0  0  0  0
   59.0830   27.6120   47.5380 C   0  0  0  0  0  0  0  0  0  0  0  0
   57.8120   27.9760   47.0890 C   0  0  0  0  0  0  0  0  0  0  0  0
   57.4930   27.9060   45.7200 C   0  0  0  0  0  0  0  0  0  0  0  0
   56.1860   28.2700   45.2470 N   0  0  0  0  0  0  0  0  0  0  0  0
   55.8670   29.4060   44.4320 C   0  0  0  0  0  0  0  0  0  0  0  0
   54.8040   29.3840   43.7570 O   0  0  0  0  0  0  0  0  0  0  0  0
   56.7770   30.5720   44.3190 C   0  0  0  0  0  0  0  0  0  0  0  0
   56.9920   31.1800   43.0760 C   0  0  0  0  0  0  0  0  0  0  0  0
   57.8540   32.2720   42.9810 C   0  0  0  0  0  0  0  0  0  0  0  0
   58.4930   32.7440   44.0850 N   0  0  0  0  0  0  0  0  0  0  0  0
   58.3200   32.1620   45.3130 C   0  0  0  0  0  0  0  0  0  0  0  0
   58.9340   32.5960   46.3780 N   0  0  0  0  0  0  0  0  0  0  0  0
   59.7410   34.1230   46.5490 S   0  0  0  0  0  0  0  0  0  0  0  0
   59.9090   34.7750   45.2060 O   0  0  0  0  0  0  0  0  0  0  0  0
   58.9310   35.0140   47.4500 O   0  0  0  0  0  0  0  0  0  0  0  0
   61.3340   33.8480   47.2520 C   0  0  0  0  0  0  0  0  0  0  0  0
   62.4390   33.5820   46.4270 C   0  0  0  0  0  0  0  0  0  0  0  0
   63.6990   33.3600   46.9890 C   0  0  0  0  0  0  0  0  0  0  0  0
   63.8650   33.4010   48.3760 C   0  0  0  0  0  0  0  0  0  0  0  0
   62.7680   33.6620   49.2040 C   0  0  0  0  0  0  0  0  0  0  0  0
   61.5050   33.8840   48.6460 C   0  0  0  0  0  0  0  0  0  0  0  0
   60.4510   34.1270   49.4660 F   0  0  0  0  0  0  0  0  0  0  0  0
   57.4610   31.0640   45.4410 C   0  0  0  0  0  0  0  0  0  0  0  0
   57.0880   27.0395   43.2101 H   0  0  0  0  0  0  0  0  0  0  0  0
   58.3037   28.3170   42.8684 H   0  0  0  0  0  0  0  0  0  0  0  0
   58.7929   26.5886   42.8684 H   0  0  0  0  0  0  0  0  0  0  0  0
   60.4922   26.7080   44.5626 H   0  0  0  0  0  0  0  0  0  0  0  0
   61.0466   26.8820   46.9876 H   0  0  0  0  0  0  0  0  0  0  0  0
   59.3272   27.6801   48.6084 H   0  0  0  0  0  0  0  0  0  0  0  0
   57.0553   28.3196   47.8097 H   0  0  0  0  0  0  0  0  0  0  0  0
   56.4833   30.7980   42.1787 H   0  0  0  0  0  0  0  0  0  0  0  0
   58.0183   32.7550   42.0065 H   0  0  0  0  0  0  0  0  0  0  0  0
   59.1240   33.5640   43.9540 H   0  0  0  0  0  0  0  0  0  0  0  0
   62.3122   33.5483   45.3348 H   0  0  0  0  0  0  0  0  0  0  0  0
   64.5616   33.1526   46.3386 H   0  0  0  0  0  0  0  0  0  0  0  0
   64.8580   33.2281   48.8166 H   0  0  0  0  0  0  0  0  0  0  0  0
   62.8991   33.6927   50.2957 H   0  0  0  0  0  0  0  0  0  0  0  0
   57.3221   30.5865   46.4222 H   0  0  0  0  0  0  0  0  0  0  0  0
  1  2  1  0
  2  3  2  0
  3  4  1  0
  4  5  2  0
  5  6  1  0
  6  7  2  0
  7  8  1  0
  8  9  1  0
  9 10  2  0
  9 11  1  0
 11 12  1  0
 12 13  2  0
 13 14  1  0
 14 15  1  0
 15 16  2  3
 16 17  1  0
 17 18  2  0
 17 19  2  0
 17 20  1  0
 20 21  2  0
 21 22  1  0
 22 23  2  0
 23 24  1  0
 24 25  2  0
 25 26  1  0
 15 27  1  0
  7  2  1  0
 27 11  2  0
 25 20  1  0
  1 28  1  0
  1 29  1  0
  1 30  1  0
  3 31  1  0
  4 32  1  0
  5 33  1  0
  6 34  1  0
 12 35  1  0
 13 36  1  0
 14 37  1  0
 21 38  1  0
 22 39  1  0
 23 40  1  0
 24 41  1  0
 27 42  1  0
M  CHG  1   8  -1
M  END
>  <UniqueID>  (46) 
44

>  <SMILES>  (46) 
Cc1ccccc1[N-]C(=O)c1cc[nH]c(=NS(=O)(=O)c2ccccc2F)c1

>  <Energy>  (46) 
57.9651648457179

>  <Genealogy>  (46) 
Cc1ccccc1[N-]C(=O)c1cc[nH]c(=NS(=O)(=O)c2ccccc2F)c1 (protonated)
Cc1ccccc1[N-]C(=O)c1cc[nH]c(=NS(=O)(=O)c2ccccc2F)c1 (3D coordinates assigned)
Cc1ccccc1[N-]C(=O)c1cc[nH]c(=NS(=O)(=O)c2ccccc2F)c1 (optimized conformer: 57.9651648457179 kcal/mol)

>  <smiles>  (46) 
Cc1ccccc1NC(=O)c1cc[nH]c(=NS(=O)(=O)c2ccccc2F)c1

>  <score_type>  (46) 
oracle

>  <origin>  (46) 
adg

>  <m_score__min__energy>  (46) 
-10.98

>  <m_primary>  (46) 
energy

$$$$
46:0
     RDKit          3D

 43 46  0  0  0  0  0  0  0  0999 V2000
   60.2207   30.5588   44.8478 H   0  0  0  0  0  0  0  0  0  0  0  0
   59.6470   29.6460   45.0660 C   0  0  0  0  0  0  0  0  0  0  0  0
   59.2397   29.0421   44.2417 H   0  0  0  0  0  0  0  0  0  0  0  0
   59.4440   29.2690   46.3380 C   0  0  0  0  0  0  0  0  0  0  0  0
   58.7380   28.1380   46.7740 C   0  0  0  0  0  0  0  0  0  0  0  0
   58.1360   27.2130   45.9970 C   0  0  0  0  0  0  0  0  0  0  0  0
   58.1733   27.3707   44.9090 H   0  0  0  0  0  0  0  0  0  0  0  0
   57.4300   26.0050   46.4800 C   0  0  0  0  0  0  0  0  0  0  0  0
   58.0030   24.9220   47.0350 N   0  0  0  0  0  0  0  0  0  0  0  0
   56.9550   24.1280   47.3400 C   0  0  0  0  0  0  0  0  0  0  0  0
   57.0920   23.0010   47.8820 O   0  0  0  0  0  0  0  0  0  0  0  0
   55.7470   24.6400   47.0220 N   0  0  0  0  0  0  0  0  0  0  0  0
   56.0650   25.8270   46.4830 C   0  0  0  0  0  0  0  0  0  0  0  0
   55.1260   26.7330   46.0050 O   0  0  0  0  0  0  0  0  0  0  0  0
   58.8120   28.1540   48.1640 C   0  0  0  0  0  0  0  0  0  0  0  0
   58.3807   27.4120   48.8520 H   0  0  0  0  0  0  0  0  0  0  0  0
   59.5300   29.2790   48.5130 C   0  0  0  0  0  0  0  0  0  0  0  0
   59.8810   29.6600   49.9200 C   0  0  0  0  0  0  0  0  0  0  0  0
   59.3074   29.0374   50.6224 H   0  0  0  0  0  0  0  0  0  0  0  0
   60.9571   29.5025   50.0849 H   0  0  0  0  0  0  0  0  0  0  0  0
   59.6360   30.7196   50.0849 H   0  0  0  0  0  0  0  0  0  0  0  0
   59.9260   29.9460   47.4080 N   0  0  0  0  0  0  0  0  0  0  0  0
   60.6950   31.1630   47.3890 C   0  0  0  0  0  0  0  0  0  0  0  0
   62.0940   31.0860   47.4390 C   0  0  0  0  0  0  0  0  0  0  0  0
   62.5856   30.1051   47.5180 H   0  0  0  0  0  0  0  0  0  0  0  0
   62.8670   32.2490   47.3890 C   0  0  0  0  0  0  0  0  0  0  0  0
   63.9644   32.1824   47.4253 H   0  0  0  0  0  0  0  0  0  0  0  0
   62.2460   33.4950   47.2930 C   0  0  0  0  0  0  0  0  0  0  0  0
   62.8552   34.4101   47.2535 H   0  0  0  0  0  0  0  0  0  0  0  0
   60.8530   33.5830   47.2470 C   0  0  0  0  0  0  0  0  0  0  0  0
   60.3705   34.5693   47.1805 H   0  0  0  0  0  0  0  0  0  0  0  0
   60.0630   32.4220   47.2850 C   0  0  0  0  0  0  0  0  0  0  0  0
   58.5890   32.5370   47.2730 C   0  0  0  0  0  0  0  0  0  0  0  0
   58.0000   33.0340   48.2700 O   0  0  0  0  0  0  0  0  0  0  0  0
   57.8020   32.0840   46.1650 N   0  0  0  0  0  0  0  0  0  0  0  0
   57.5870   32.8610   44.9510 C   0  0  0  0  0  0  0  0  0  0  0  0
   57.3529   32.0250   44.2755 H   0  0  0  0  0  0  0  0  0  0  0  0
   58.4590   34.0990   44.8510 C   0  0  0  0  0  0  0  0  0  0  0  0
   59.2440   34.2810   45.5998 H   0  0  0  0  0  0  0  0  0  0  0  0
   59.1000   34.5387   44.0726 H   0  0  0  0  0  0  0  0  0  0  0  0
   56.9940   34.2280   45.2380 C   0  0  0  0  0  0  0  0  0  0  0  0
   56.7189   34.5034   46.2668 H   0  0  0  0  0  0  0  0  0  0  0  0
   56.1355   34.7997   44.8557 H   0  0  0  0  0  0  0  0  0  0  0  0
  1  2  1  0
  2  3  1  0
  2  4  2  0
  4  5  1  0
  5  6  2  0
  6  7  1  0
  6  8  1  0
  8  9  1  0
  9 10  1  0
 10 11  2  0
 10 12  1  0
 12 13  1  0
 13 14  1  0
  5 15  1  0
 15 16  1  0
 15 17  2  0
 17 18  1  0
 18 19  1  0
 18 20  1  0
 18 21  1  0
 17 22  1  0
 22 23  1  0
 23 24  2  0
 24 25  1  0
 24 26  1  0
 26 27  1  0
 26 28  2  0
 28 29  1  0
 28 30  1  0
 30 31  1  0
 30 32  2  0
 32 33  1  0
 33 34  2  0
 33 35  1  0
 35 36  1  0
 36 37  1  0
 36 38  1  0
 38 39  1  0
 38 40  1  0
 38 41  1  0
 41 42  1  0
 41 43  1  0
 22  4  1  0
 32 23  1  0
 41 36  1  0
 13  8  2  0
M  CHG  4   9  -1  12  -1  14  -1  35  -1
M  END
>  <UniqueID>  (47) 
45

>  <SMILES>  (47) 
C=c1/c(=C/c2[n-]c(=O)[n-]c2[O-])cc(C)n1-c1ccccc1C(=O)[N-]C1CC1

>  <Energy>  (47) 
382.3823973774836

>  <Genealogy>  (47) 
C=c1c(=Cc2[n-]c(=O)[n-]c2[O-])cc(C)n1-c1ccccc1C(=O)[N-]C1CC1 (protonated)
C=c1/c(=C/c2[n-]c(=O)[n-]c2[O-])cc(C)n1-c1ccccc1C(=O)[N-]C1CC1 (cis-trans isomerization)
C=c1/c(=C/c2[n-]c(=O)[n-]c2[O-])cc(C)n1-c1ccccc1C(=O)[N-]C1CC1 (3D coordinates assigned)
C=c1/c(=C/c2[n-]c(=O)[n-]c2[O-])cc(C)n1-c1ccccc1C(=O)[N-]C1CC1 (nonaromatic ring conformer: 382.3823973774836 kcal/mol)

>  <smiles>  (47) 
C=c1c(=Cc2[nH]c(=O)[nH]c2O)cc(C)n1-c1ccccc1C(=O)NC1CC1

>  <score_type>  (47) 
oracle

>  <origin>  (47) 
adg

>  <m_score__min__energy>  (47) 
-16.66

>  <m_primary>  (47) 
energy

$$$$
47:0
     RDKit          3D

 50 52  0  0  0  0  0  0  0  0999 V2000
   58.9260   32.6990   50.0810 C   0  0  0  0  0  0  0  0  0  0  0  0
   59.9510   33.5720   48.9190 S   0  0  0  0  0  0  0  0  0  0  0  0
   59.3160   34.9000   48.6110 O   0  0  0  0  0  0  0  0  0  0  0  0
   61.3070   33.8140   49.5230 O   0  0  0  0  0  0  0  0  0  0  0  0
   60.1280   32.6390   47.4650 N   0  0  0  0  0  0  0  0  0  0  0  0
   61.2460   31.7100   47.2920 C   0  0  0  0  0  0  0  0  0  0  0  0
   60.7470   30.2940   47.3540 C   0  0  0  0  0  0  0  0  0  0  0  0
   60.4160   29.7160   48.5900 C   0  0  0  0  0  0  0  0  0  0  0  0
   59.9990   28.3830   48.6530 C   0  0  0  0  0  0  0  0  0  0  0  0
   59.9190   27.6170   47.4880 C   0  0  0  0  0  0  0  0  0  0  0  0
   60.2620   28.1810   46.2550 C   0  0  0  0  0  0  0  0  0  0  0  0
   60.6800   29.5140   46.1880 C   0  0  0  0  0  0  0  0  0  0  0  0
   59.1890   32.8240   46.4000 C   0  0  0  0  0  0  0  0  0  0  0  0
   59.2870   33.9400   45.5610 C   0  0  0  0  0  0  0  0  0  0  0  0
   58.3950   34.0960   44.4970 C   0  0  0  0  0  0  0  0  0  0  0  0
   57.3950   33.1440   44.2740 C   0  0  0  0  0  0  0  0  0  0  0  0
   57.2740   32.0340   45.1190 C   0  0  0  0  0  0  0  0  0  0  0  0
   56.2530   31.0650   44.8460 N   0  0  0  0  0  0  0  0  0  0  0  0
   56.4700   29.7250   44.3880 C   0  0  0  0  0  0  0  0  0  0  0  0
   56.1280   29.3870   43.2230 O   0  0  0  0  0  0  0  0  0  0  0  0
   57.1570   28.7600   45.2660 C   0  0  0  0  0  0  0  0  0  0  0  0
   57.4360   29.0950   46.4470 O   0  0  0  0  0  0  0  0  0  0  0  0
   57.5670   27.4680   44.7990 N   0  0  0  0  0  0  0  0  0  0  0  0
   57.3760   26.2220   45.4840 C   0  0  0  0  0  0  0  0  0  0  0  0
   58.4750   25.3690   45.6490 C   0  0  0  0  0  0  0  0  0  0  0  0
   58.3330   24.1520   46.3220 C   0  0  0  0  0  0  0  0  0  0  0  0
   57.0930   23.7830   46.8530 C   0  0  0  0  0  0  0  0  0  0  0  0
   56.9660   22.5690   47.5230 O   0  0  0  0  0  0  0  0  0  0  0  0
   55.9950   24.6410   46.7150 C   0  0  0  0  0  0  0  0  0  0  0  0
   56.1340   25.8650   46.0490 C   0  0  0  0  0  0  0  0  0  0  0  0
   55.0440   26.7250   45.9800 O   0  0  0  0  0  0  0  0  0  0  0  0
   58.1920   31.8670   46.1730 C   0  0  0  0  0  0  0  0  0  0  0  0
   59.2305   32.9584   51.1057 H   0  0  0  0  0  0  0  0  0  0  0  0
   57.8744   32.9831   49.9280 H   0  0  0  0  0  0  0  0  0  0  0  0
   59.0391   31.6156   49.9280 H   0  0  0  0  0  0  0  0  0  0  0  0
   61.7202   31.8874   46.3154 H   0  0  0  0  0  0  0  0  0  0  0  0
   61.9795   31.8716   48.0957 H   0  0  0  0  0  0  0  0  0  0  0  0
   60.4849   30.3134   49.5111 H   0  0  0  0  0  0  0  0  0  0  0  0
   59.7333   27.9365   49.6225 H   0  0  0  0  0  0  0  0  0  0  0  0
   59.5861   26.5699   47.5402 H   0  0  0  0  0  0  0  0  0  0  0  0
   60.2030   27.5763   45.3380 H   0  0  0  0  0  0  0  0  0  0  0  0
   60.9573   29.9532   45.2183 H   0  0  0  0  0  0  0  0  0  0  0  0
   60.0669   34.6949   45.7395 H   0  0  0  0  0  0  0  0  0  0  0  0
   58.4794   34.9692   43.8334 H   0  0  0  0  0  0  0  0  0  0  0  0
   56.7000   33.2679   43.4304 H   0  0  0  0  0  0  0  0  0  0  0  0
   59.4566   25.6589   45.2461 H   0  0  0  0  0  0  0  0  0  0  0  0
   59.1988   23.4829   46.4342 H   0  0  0  0  0  0  0  0  0  0  0  0
   56.2630   22.4300   48.2410 H   0  0  0  0  0  0  0  0  0  0  0  0
   55.0188   24.3522   47.1317 H   0  0  0  0  0  0  0  0  0  0  0  0
   58.1260   30.9808   46.8213 H   0  0  0  0  0  0  0  0  0  0  0  0
  1  2  1  0
  2  3  2  0
  2  4  2  0
  2  5  1  0
  5  6  1  0
  6  7  1  0
  7  8  2  0
  8  9  1  0
  9 10  2  0
 10 11  1  0
 11 12  2  0
  5 13  1  0
 13 14  2  0
 14 15  1  0
 15 16  2  0
 16 17  1  0
 17 18  1  0
 18 19  1  0
 19 20  2  0
 19 21  1  0
 21 22  2  0
 21 23  1  0
 23 24  1  0
 24 25  2  0
 25 26  1  0
 26 27  2  0
 27 28  1  0
 27 29  1  0
 29 30  2  0
 30 31  1  0
 17 32  2  0
 12  7  1  0
 32 13  1  0
 30 24  1  0
  1 33  1  0
  1 34  1  0
  1 35  1  0
  6 36  1  0
  6 37  1  0
  8 38  1  0
  9 39  1  0
 10 40  1  0
 11 41  1  0
 12 42  1  0
 14 43  1  0
 15 44  1  0
 16 45  1  0
 25 46  1  0
 26 47  1  0
 28 48  1  0
 29 49  1  0
 32 50  1  0
M  CHG  3  18  -1  23  -1  31  -1
M  END
>  <UniqueID>  (48) 
46

>  <SMILES>  (48) 
CS(=O)(=O)N(Cc1ccccc1)c1cccc([N-]C(=O)C(=O)[N-]c2ccc(O)cc2[O-])c1

>  <Energy>  (48) 
61.685166727144136

>  <Genealogy>  (48) 
CS(=O)(=O)N(Cc1ccccc1)c1cccc([N-]C(=O)C(=O)[N-]c2ccc(O)cc2[O-])c1 (protonated)
CS(=O)(=O)N(Cc1ccccc1)c1cccc([N-]C(=O)C(=O)[N-]c2ccc(O)cc2[O-])c1 (3D coordinates assigned)
CS(=O)(=O)N(Cc1ccccc1)c1cccc([N-]C(=O)C(=O)[N-]c2ccc(O)cc2[O-])c1 (optimized conformer: 61.685166727144136 kcal/mol)

>  <smiles>  (48) 
CS(=O)(=O)N(Cc1ccccc1)c1cccc(NC(=O)C(=O)Nc2ccc(O)cc2O)c1

>  <score_type>  (48) 
oracle

>  <origin>  (48) 
adg

>  <m_score__min__energy>  (48) 
-16.420000000000002

>  <m_primary>  (48) 
energy

$$$$
48:0
     RDKit          3D

 42 44  0  0  0  0  0  0  0  0999 V2000
   59.1394   25.7785   47.9502 H   0  0  0  0  0  0  0  0  0  0  0  0
   59.6010   26.7470   48.1930 C   0  0  0  0  0  0  0  0  0  0  0  0
   60.2131   26.8523   49.1009 H   0  0  0  0  0  0  0  0  0  0  0  0
   59.4180   27.7970   47.3840 C   0  0  0  0  0  0  0  0  0  0  0  0
   58.8160   27.8220   46.1150 C   0  0  0  0  0  0  0  0  0  0  0  0
   58.1510   26.8500   45.4560 C   0  0  0  0  0  0  0  0  0  0  0  0
   58.1715   26.8815   44.3566 H   0  0  0  0  0  0  0  0  0  0  0  0
   57.4010   25.7520   46.0850 C   0  0  0  0  0  0  0  0  0  0  0  0
   56.0540   25.7400   46.3640 C   0  0  0  0  0  0  0  0  0  0  0  0
   55.1390   26.7150   45.9840 O   0  0  0  0  0  0  0  0  0  0  0  0
   55.7260   24.6440   47.0750 N   0  0  0  0  0  0  0  0  0  0  0  0
   56.9150   24.0230   47.2300 C   0  0  0  0  0  0  0  0  0  0  0  0
   57.0440   22.9430   47.8650 O   0  0  0  0  0  0  0  0  0  0  0  0
   57.9520   24.6670   46.6590 N   0  0  0  0  0  0  0  0  0  0  0  0
   58.9610   24.4010   46.6920 H   0  0  0  0  0  0  0  0  0  0  0  0
   59.0680   29.0990   45.6020 C   0  0  0  0  0  0  0  0  0  0  0  0
   58.6030   29.6580   44.2740 C   0  0  0  0  0  0  0  0  0  0  0  0
   58.5633   30.7547   44.3489 H   0  0  0  0  0  0  0  0  0  0  0  0
   59.3183   29.3268   43.5067 H   0  0  0  0  0  0  0  0  0  0  0  0
   57.2130   29.1430   43.8640 C   0  0  0  0  0  0  0  0  0  0  0  0
   57.1206   29.2087   42.7699 H   0  0  0  0  0  0  0  0  0  0  0  0
   57.1235   28.1042   44.2146 H   0  0  0  0  0  0  0  0  0  0  0  0
   56.1050   29.9320   44.4880 C   0  0  0  0  0  0  0  0  0  0  0  0
   55.0510   29.3580   44.8670 O   0  0  0  0  0  0  0  0  0  0  0  0
   56.2370   31.3060   44.6470 O   0  0  0  0  0  0  0  0  0  0  0  0
   59.7870   29.7820   46.5780 C   0  0  0  0  0  0  0  0  0  0  0  0
   60.3610   31.1700   46.4800 C   0  0  0  0  0  0  0  0  0  0  0  0
   60.9037   31.3976   47.4093 H   0  0  0  0  0  0  0  0  0  0  0  0
   61.0353   31.2014   45.6115 H   0  0  0  0  0  0  0  0  0  0  0  0
   59.2870   32.2040   46.2770 C   0  0  0  0  0  0  0  0  0  0  0  0
   58.3470   32.4610   47.2920 C   0  0  0  0  0  0  0  0  0  0  0  0
   58.3822   31.8865   48.2294 H   0  0  0  0  0  0  0  0  0  0  0  0
   57.3690   33.4430   47.1140 C   0  0  0  0  0  0  0  0  0  0  0  0
   56.6288   33.6309   47.9057 H   0  0  0  0  0  0  0  0  0  0  0  0
   57.3300   34.1870   45.9310 C   0  0  0  0  0  0  0  0  0  0  0  0
   56.5578   34.9579   45.7916 H   0  0  0  0  0  0  0  0  0  0  0  0
   58.2710   33.9520   44.9260 C   0  0  0  0  0  0  0  0  0  0  0  0
   58.2444   34.5442   43.9994 H   0  0  0  0  0  0  0  0  0  0  0  0
   59.2470   32.9650   45.0960 C   0  0  0  0  0  0  0  0  0  0  0  0
   59.9865   32.7835   44.3021 H   0  0  0  0  0  0  0  0  0  0  0  0
   59.9700   28.9960   47.6540 N   0  0  0  0  0  0  0  0  0  0  0  0
   60.5130   29.2510   48.5100 H   0  0  0  0  0  0  0  0  0  0  0  0
  1  2  1  0
  2  3  1  0
  2  4  2  0
  4  5  1  0
  5  6  2  0
  6  7  1  0
  6  8  1  0
  8  9  2  0
  9 10  1  0
  9 11  1  0
 11 12  1  0
 12 13  2  0
 12 14  1  0
 14 15  1  0
  5 16  1  0
 16 17  1  0
 17 18  1  0
 17 19  1  0
 17 20  1  0
 20 21  1  0
 20 22  1  0
 20 23  1  0
 23 24  2  0
 23 25  1  0
 16 26  2  0
 26 27  1  0
 27 28  1  0
 27 29  1  0
 27 30  1  0
 30 31  2  0
 31 32  1  0
 31 33  1  0
 33 34  1  0
 33 35  2  0
 35 36  1  0
 35 37  1  0
 37 38  1  0
 37 39  2  0
 39 40  1  0
 26 41  1  0
 41 42  1  0
 41  4  1  0
 14  8  1  0
 39 30  1  0
M  CHG  3  10  -1  11  -1  25  -1
M  END
>  <UniqueID>  (49) 
47

>  <SMILES>  (49) 
C=c1[nH]c(Cc2ccccc2)c(CCC(=O)[O-])/c1=C/c1[nH]c(=O)[n-]c1[O-]

>  <Energy>  (49) 
108.3258542034215

>  <Genealogy>  (49) 
C=c1[nH]c(Cc2ccccc2)c(CCC(=O)[O-])c1=Cc1[nH]c(=O)[n-]c1[O-] (protonated)
C=c1[nH]c(Cc2ccccc2)c(CCC(=O)[O-])/c1=C/c1[nH]c(=O)[n-]c1[O-] (cis-trans isomerization)
C=c1[nH]c(Cc2ccccc2)c(CCC(=O)[O-])/c1=C/c1[nH]c(=O)[n-]c1[O-] (3D coordinates assigned)
C=c1[nH]c(Cc2ccccc2)c(CCC(=O)[O-])/c1=C/c1[nH]c(=O)[n-]c1[O-] (optimized conformer: 108.3258542034215 kcal/mol)

>  <smiles>  (49) 
C=c1[nH]c(Cc2ccccc2)c(CCC(=O)O)c1=Cc1[nH]c(=O)[nH]c1O

>  <score_type>  (49) 
oracle

>  <origin>  (49) 
adg

>  <m_score__min__energy>  (49) 
-17.010000000000002

>  <m_primary>  (49) 
energy

$$$$
49:0
     RDKit          3D

 44 46  0  0  0  0  0  0  0  0999 V2000
   63.5370   34.6330   51.2060 C   0  0  0  0  0  0  0  0  0  0  0  0
   63.1290   33.6620   50.1390 C   0  0  0  0  0  0  0  0  0  0  0  0
   63.4070   32.2970   50.2820 C   0  0  0  0  0  0  0  0  0  0  0  0
   63.0600   31.3960   49.2730 C   0  0  0  0  0  0  0  0  0  0  0  0
   62.4310   31.8460   48.0990 C   0  0  0  0  0  0  0  0  0  0  0  0
   62.1000   30.9210   47.0470 N   0  0  0  0  0  0  0  0  0  0  0  0
   60.7850   30.3690   46.8650 C   0  0  0  0  0  0  0  0  0  0  0  0
   59.8040   30.8600   47.4880 O   0  0  0  0  0  0  0  0  0  0  0  0
   60.5650   29.2680   45.9010 C   0  0  0  0  0  0  0  0  0  0  0  0
   61.4030   29.0900   44.9760 O   0  0  0  0  0  0  0  0  0  0  0  0
   59.3790   28.3810   45.9720 C   0  0  0  0  0  0  0  0  0  0  0  0
   59.4470   27.1230   46.5970 C   0  0  0  0  0  0  0  0  0  0  0  0
   58.3230   26.2940   46.6480 C   0  0  0  0  0  0  0  0  0  0  0  0
   57.1070   26.7060   46.0760 C   0  0  0  0  0  0  0  0  0  0  0  0
   55.9090   25.8350   46.1290 C   0  0  0  0  0  0  0  0  0  0  0  0
   54.7660   26.3480   45.9950 O   0  0  0  0  0  0  0  0  0  0  0  0
   56.0090   24.4110   46.2740 N   0  0  0  0  0  0  0  0  0  0  0  0
   56.4540   23.4860   45.2710 C   0  0  0  0  0  0  0  0  0  0  0  0
   57.4000   22.4850   45.5560 C   0  0  0  0  0  0  0  0  0  0  0  0
   57.8020   21.5920   44.5580 C   0  0  0  0  0  0  0  0  0  0  0  0
   57.2510   21.6810   43.2750 C   0  0  0  0  0  0  0  0  0  0  0  0
   56.2930   22.6580   42.9940 C   0  0  0  0  0  0  0  0  0  0  0  0
   55.8900   23.5540   43.9900 C   0  0  0  0  0  0  0  0  0  0  0  0
   57.0480   27.9470   45.4230 C   0  0  0  0  0  0  0  0  0  0  0  0
   58.1730   28.7760   45.3700 C   0  0  0  0  0  0  0  0  0  0  0  0
   62.1840   33.2240   47.9400 C   0  0  0  0  0  0  0  0  0  0  0  0
   61.4080   33.8530   46.4920 Cl  0  0  0  0  0  0  0  0  0  0  0  0
   62.5320   34.1220   48.9560 C   0  0  0  0  0  0  0  0  0  0  0  0
   63.3509   34.1900   52.1955 H   0  0  0  0  0  0  0  0  0  0  0  0
   64.6078   34.8628   51.1027 H   0  0  0  0  0  0  0  0  0  0  0  0
   62.9517   35.5586   51.1027 H   0  0  0  0  0  0  0  0  0  0  0  0
   63.9016   31.9323   51.1944 H   0  0  0  0  0  0  0  0  0  0  0  0
   63.2806   30.3256   49.3978 H   0  0  0  0  0  0  0  0  0  0  0  0
   62.8430   30.6740   46.3560 H   0  0  0  0  0  0  0  0  0  0  0  0
   60.3924   26.7889   47.0493 H   0  0  0  0  0  0  0  0  0  0  0  0
   58.3905   25.3121   47.1393 H   0  0  0  0  0  0  0  0  0  0  0  0
   57.8250   22.4044   46.5674 H   0  0  0  0  0  0  0  0  0  0  0  0
   58.5519   20.8190   44.7817 H   0  0  0  0  0  0  0  0  0  0  0  0
   57.5719   20.9823   42.4884 H   0  0  0  0  0  0  0  0  0  0  0  0
   55.8545   22.7230   41.9873 H   0  0  0  0  0  0  0  0  0  0  0  0
   55.1275   24.3148   43.7667 H   0  0  0  0  0  0  0  0  0  0  0  0
   56.1094   28.2701   44.9491 H   0  0  0  0  0  0  0  0  0  0  0  0
   58.1130   29.7450   44.8528 H   0  0  0  0  0  0  0  0  0  0  0  0
   62.3358   35.1965   48.8256 H   0  0  0  0  0  0  0  0  0  0  0  0
  1  2  1  0
  2  3  2  0
  3  4  1  0
  4  5  2  0
  5  6  1  0
  6  7  1  0
  7  8  2  0
  7  9  1  0
  9 10  2  0
  9 11  1  0
 11 12  2  0
 12 13  1  0
 13 14  2  0
 14 15  1  0
 15 16  2  0
 15 17  1  0
 17 18  1  0
 18 19  2  0
 19 20  1  0
 20 21  2  0
 21 22  1  0
 22 23  2  0
 14 24  1  0
 24 25  2  0
  5 26  1  0
 26 27  1  0
 26 28  2  0
 28  2  1  0
 25 11  1  0
 23 18  1  0
  1 29  1  0
  1 30  1  0
  1 31  1  0
  3 32  1  0
  4 33  1  0
  6 34  1  0
 12 35  1  0
 13 36  1  0
 19 37  1  0
 20 38  1  0
 21 39  1  0
 22 40  1  0
 23 41  1  0
 24 42  1  0
 25 43  1  0
 28 44  1  0
M  CHG  1  17  -1
M  END
>  <UniqueID>  (50) 
48

>  <SMILES>  (50) 
Cc1ccc(NC(=O)C(=O)c2ccc(C(=O)[N-]c3ccccc3)cc2)c(Cl)c1

>  <Energy>  (50) 
61.246123162102094

>  <Genealogy>  (50) 
Cc1ccc(NC(=O)C(=O)c2ccc(C(=O)[N-]c3ccccc3)cc2)c(Cl)c1 (protonated)
Cc1ccc(NC(=O)C(=O)c2ccc(C(=O)[N-]c3ccccc3)cc2)c(Cl)c1 (3D coordinates assigned)
Cc1ccc(NC(=O)C(=O)c2ccc(C(=O)[N-]c3ccccc3)cc2)c(Cl)c1 (optimized conformer: 61.246123162102094 kcal/mol)

>  <smiles>  (50) 
Cc1ccc(NC(=O)C(=O)c2ccc(C(=O)Nc3ccccc3)cc2)c(Cl)c1

>  <score_type>  (50) 
oracle

>  <origin>  (50) 
adg

>  <m_score__min__energy>  (50) 
-10.48

>  <m_primary>  (50) 
energy

$$$$
50:0
     RDKit          3D

 46 49  0  0  0  0  0  0  0  0999 V2000
   56.2380   28.2180   44.4290 H   0  0  0  0  0  0  0  0  0  0  0  0
   55.9100   27.8580   45.3160 O   0  0  0  0  0  0  0  0  0  0  0  0
   56.1000   26.5340   45.7130 C   0  0  0  0  0  0  0  0  0  0  0  0
   55.0050   25.7550   45.9190 N   0  0  0  0  0  0  0  0  0  0  0  0
   55.1200   24.4710   46.3410 C   0  0  0  0  0  0  0  0  0  0  0  0
   54.0890   23.7740   46.5230 O   0  0  0  0  0  0  0  0  0  0  0  0
   56.3470   23.9390   46.5730 N   0  0  0  0  0  0  0  0  0  0  0  0
   57.4760   24.6680   46.3800 C   0  0  0  0  0  0  0  0  0  0  0  0
   58.5980   24.1390   46.6020 O   0  0  0  0  0  0  0  0  0  0  0  0
   57.3860   25.9930   45.9220 C   0  0  0  0  0  0  0  0  0  0  0  0
   58.6170   26.7810   45.7000 C   0  0  0  0  0  0  0  0  0  0  0  0
   59.3352   26.4329   44.9431 H   0  0  0  0  0  0  0  0  0  0  0  0
   58.8970   27.9060   46.3840 C   0  0  0  0  0  0  0  0  0  0  0  0
   58.3790   28.2580   47.6240 C   0  0  0  0  0  0  0  0  0  0  0  0
   57.6934   27.6652   48.2473 H   0  0  0  0  0  0  0  0  0  0  0  0
   58.8980   29.4990   47.9140 C   0  0  0  0  0  0  0  0  0  0  0  0
   58.6250   30.2160   49.0730 O   0  0  0  0  0  0  0  0  0  0  0  0
   59.6900   29.9440   46.9190 N   0  0  0  0  0  0  0  0  0  0  0  0
   60.3390   31.2310   46.8850 C   0  0  0  0  0  0  0  0  0  0  0  0
   61.7030   31.3150   47.2050 C   0  0  0  0  0  0  0  0  0  0  0  0
   62.2469   30.4109   47.5160 H   0  0  0  0  0  0  0  0  0  0  0  0
   62.3750   32.5360   47.1320 C   0  0  0  0  0  0  0  0  0  0  0  0
   63.4438   32.5911   47.3860 H   0  0  0  0  0  0  0  0  0  0  0  0
   61.6920   33.6870   46.7370 C   0  0  0  0  0  0  0  0  0  0  0  0
   62.2265   34.6459   46.6680 H   0  0  0  0  0  0  0  0  0  0  0  0
   60.3310   33.6240   46.4290 C   0  0  0  0  0  0  0  0  0  0  0  0
   59.7998   34.5342   46.1137 H   0  0  0  0  0  0  0  0  0  0  0  0
   59.6360   32.4070   46.5190 C   0  0  0  0  0  0  0  0  0  0  0  0
   58.1890   32.3870   46.2130 C   0  0  0  0  0  0  0  0  0  0  0  0
   57.3970   33.0490   46.9370 O   0  0  0  0  0  0  0  0  0  0  0  0
   57.6760   31.6370   45.1040 N   0  0  0  0  0  0  0  0  0  0  0  0
   57.1640   30.2860   45.2110 C   0  0  0  0  0  0  0  0  0  0  0  0
   56.2446   30.2788   45.8149 H   0  0  0  0  0  0  0  0  0  0  0  0
   57.8986   29.6291   45.6996 H   0  0  0  0  0  0  0  0  0  0  0  0
   56.8750   29.8200   43.8530 N   0  0  0  0  0  0  0  0  0  0  0  0
   55.8840   29.4850   43.8100 H   0  0  0  0  0  0  0  0  0  0  0  0
   57.0260   30.9770   42.9610 C   0  0  0  0  0  0  0  0  0  0  0  0
   56.0358   31.3459   42.6555 H   0  0  0  0  0  0  0  0  0  0  0  0
   57.5847   30.6949   42.0564 H   0  0  0  0  0  0  0  0  0  0  0  0
   57.7670   32.0590   43.7270 C   0  0  0  0  0  0  0  0  0  0  0  0
   57.2854   33.0378   43.5854 H   0  0  0  0  0  0  0  0  0  0  0  0
   58.8069   32.1800   43.3893 H   0  0  0  0  0  0  0  0  0  0  0  0
   59.7250   28.9620   45.9840 C   0  0  0  0  0  0  0  0  0  0  0  0
   60.4840   29.0020   44.8780 C   0  0  0  0  0  0  0  0  0  0  0  0
   61.0981   29.8892   44.6642 H   0  0  0  0  0  0  0  0  0  0  0  0
   60.4920   28.1476   44.1853 H   0  0  0  0  0  0  0  0  0  0  0  0
  1  2  1  0
  2  3  1  0
  3  4  1  0
  4  5  1  0
  5  6  2  0
  5  7  1  0
  7  8  1  0
  8  9  2  0
  8 10  1  0
 10 11  1  0
 11 12  1  0
 11 13  2  0
 13 14  1  0
 14 15  1  0
 14 16  2  0
 16 17  1  0
 16 18  1  0
 18 19  1  0
 19 20  2  0
 20 21  1  0
 20 22  1  0
 22 23  1  0
 22 24  2  0
 24 25  1  0
 24 26  1  0
 26 27  1  0
 26 28  2  0
 28 29  1  0
 29 30  2  0
 29 31  1  0
 31 32  1  0
 32 33  1  0
 32 34  1  0
 32 35  1  0
 35 36  1  0
 35 37  1  0
 37 38  1  0
 37 39  1  0
 37 40  1  0
 40 41  1  0
 40 42  1  0
 18 43  1  0
 43 44  2  0
 44 45  1  0
 44 46  1  0
 10  3  2  0
 43 13  1  0
 28 19  1  0
 40 31  1  0
M  CHG  3   4  -1   7  -1  17  -1
M  END
>  <UniqueID>  (51) 
49

>  <SMILES>  (51) 
C=c1/c(=C/c2c(O)[n-]c(=O)[n-]c2=O)cc([O-])n1-c1ccccc1C(=O)N1CCNC1

>  <Energy>  (51) 
101.20395957098275

>  <Genealogy>  (51) 
C=c1c(=Cc2c(O)[n-]c(=O)[n-]c2=O)cc([O-])n1-c1ccccc1C(=O)N1CCNC1 (protonated)
C=c1/c(=C/c2c(O)[n-]c(=O)[n-]c2=O)cc([O-])n1-c1ccccc1C(=O)N1CCNC1 (cis-trans isomerization)
C=c1/c(=C/c2c(O)[n-]c(=O)[n-]c2=O)cc([O-])n1-c1ccccc1C(=O)N1CCNC1 (3D coordinates assigned)
C=c1/c(=C/c2c(O)[n-]c(=O)[n-]c2=O)cc([O-])n1-c1ccccc1C(=O)N1CCNC1 (nonaromatic ring conformer: 101.20395957098275 kcal/mol)

>  <smiles>  (51) 
C=c1c(=Cc2c(O)[nH]c(=O)[nH]c2=O)cc(O)n1-c1ccccc1C(=O)N1CCNC1

>  <score_type>  (51) 
oracle

>  <origin>  (51) 
adg

>  <m_score__min__energy>  (51) 
-14.02

>  <m_primary>  (51) 
energy

$$$$
51:0
     RDKit          3D

 25 26  0  0  0  0  0  0  0  0999 V2000
   56.7960   29.6980   43.8120 C   0  0  0  0  0  0  0  0  0  0  0  0
   57.6760   29.5000   45.0180 C   0  0  0  0  0  0  0  0  0  0  0  0
   58.1000   30.6280   45.7440 C   0  0  0  0  0  0  0  0  0  0  0  0
   58.9080   30.4850   46.8730 C   0  0  0  0  0  0  0  0  0  0  0  0
   59.3000   29.2160   47.2960 C   0  0  0  0  0  0  0  0  0  0  0  0
   60.0820   29.0800   48.3960 F   0  0  0  0  0  0  0  0  0  0  0  0
   58.8880   28.0850   46.5900 C   0  0  0  0  0  0  0  0  0  0  0  0
   58.0780   28.2070   45.4470 C   0  0  0  0  0  0  0  0  0  0  0  0
   57.6350   26.9480   44.7340 C   0  0  0  0  0  0  0  0  0  0  0  0
   57.1350   25.9230   45.7080 C   0  0  0  0  0  0  0  0  0  0  0  0
   57.8720   24.9170   46.2060 N   0  0  0  0  0  0  0  0  0  0  0  0
   57.0360   24.2590   47.0330 C   0  0  0  0  0  0  0  0  0  0  0  0
   57.3800   23.2410   47.6880 O   0  0  0  0  0  0  0  0  0  0  0  0
   55.7960   24.7900   47.1000 N   0  0  0  0  0  0  0  0  0  0  0  0
   55.8750   25.8400   46.2600 C   0  0  0  0  0  0  0  0  0  0  0  0
   54.8180   26.7060   46.0090 O   0  0  0  0  0  0  0  0  0  0  0  0
   55.7715   29.9285   44.1395 H   0  0  0  0  0  0  0  0  0  0  0  0
   57.1840   30.5313   43.2078 H   0  0  0  0  0  0  0  0  0  0  0  0
   56.7897   28.7788   43.2078 H   0  0  0  0  0  0  0  0  0  0  0  0
   57.7917   31.6325   45.4186 H   0  0  0  0  0  0  0  0  0  0  0  0
   59.2360   31.3751   47.4299 H   0  0  0  0  0  0  0  0  0  0  0  0
   59.2003   27.0870   46.9314 H   0  0  0  0  0  0  0  0  0  0  0  0
   56.8275   27.1989   44.0304 H   0  0  0  0  0  0  0  0  0  0  0  0
   58.4987   26.5281   44.1977 H   0  0  0  0  0  0  0  0  0  0  0  0
   58.8710   24.6940   46.0010 H   0  0  0  0  0  0  0  0  0  0  0  0
  1  2  1  0
  2  3  2  0
  3  4  1  0
  4  5  2  0
  5  6  1  0
  5  7  1  0
  7  8  2  0
  8  9  1  0
  9 10  1  0
 10 11  1  0
 11 12  1  0
 12 13  2  0
 12 14  1  0
 14 15  1  0
 15 16  1  0
  8  2  1  0
 15 10  2  0
  1 17  1  0
  1 18  1  0
  1 19  1  0
  3 20  1  0
  4 21  1  0
  7 22  1  0
  9 23  1  0
  9 24  1  0
 11 25  1  0
M  CHG  2  14  -1  16  -1
M  END
>  <UniqueID>  (52) 
50

>  <SMILES>  (52) 
Cc1ccc(F)cc1Cc1[nH]c(=O)[n-]c1[O-]

>  <Energy>  (52) 
55.8503415680387

>  <Genealogy>  (52) 
Cc1ccc(F)cc1Cc1[nH]c(=O)[n-]c1[O-] (protonated)
Cc1ccc(F)cc1Cc1[nH]c(=O)[n-]c1[O-] (3D coordinates assigned)
Cc1ccc(F)cc1Cc1[nH]c(=O)[n-]c1[O-] (optimized conformer: 55.8503415680387 kcal/mol)

>  <smiles>  (52) 
Cc1ccc(F)cc1Cc1[nH]c(=O)[nH]c1O

>  <score_type>  (52) 
oracle

>  <origin>  (52) 
adg

>  <m_score__min__energy>  (52) 
-12.789999999999999

>  <m_primary>  (52) 
energy

$$$$
52:0
     RDKit          3D

 45 47  0  0  0  0  0  0  0  0999 V2000
   58.8269   27.3419   42.1433 H   0  0  0  0  0  0  0  0  0  0  0  0
   58.1170   27.0840   42.9430 C   0  0  0  0  0  0  0  0  0  0  0  0
   57.1031   26.7413   42.6890 H   0  0  0  0  0  0  0  0  0  0  0  0
   58.4860   27.1870   44.2220 C   0  0  0  0  0  0  0  0  0  0  0  0
   59.5037   27.5314   44.4579 H   0  0  0  0  0  0  0  0  0  0  0  0
   57.5510   26.8460   45.3500 C   0  0  0  0  0  0  0  0  0  0  0  0
   56.9321   25.9843   45.0594 H   0  0  0  0  0  0  0  0  0  0  0  0
   58.1447   26.6019   46.2433 H   0  0  0  0  0  0  0  0  0  0  0  0
   56.6820   27.9820   45.6550 N   0  0  0  0  0  0  0  0  0  0  0  0
   56.9860   29.2260   45.4330 C   0  0  0  0  0  0  0  0  0  0  0  0
   58.0770   29.7940   46.0170 N   0  0  0  0  0  0  0  0  0  0  0  0
   58.4040   31.0960   45.8000 C   0  0  0  0  0  0  0  0  0  0  0  0
   59.5700   31.6570   46.4340 N   0  0  0  0  0  0  0  0  0  0  0  0
   60.3750   30.8180   47.3310 C   0  0  0  0  0  0  0  0  0  0  0  0
   60.0267   30.9532   48.3656 H   0  0  0  0  0  0  0  0  0  0  0  0
   60.2652   29.7647   47.0337 H   0  0  0  0  0  0  0  0  0  0  0  0
   61.8490   31.2130   47.2380 C   0  0  0  0  0  0  0  0  0  0  0  0
   62.4096   30.7188   48.0451 H   0  0  0  0  0  0  0  0  0  0  0  0
   62.2446   30.8993   46.2607 H   0  0  0  0  0  0  0  0  0  0  0  0
   61.9910   32.6690   47.3690 N   0  0  0  0  0  0  0  0  0  0  0  0
   63.1270   33.2330   48.0490 C   0  0  0  0  0  0  0  0  0  0  0  0
   63.7420   34.2080   47.5340 O   0  0  0  0  0  0  0  0  0  0  0  0
   63.5520   32.7080   49.3640 C   0  0  0  0  0  0  0  0  0  0  0  0
   64.4958   32.1471   49.4323 H   0  0  0  0  0  0  0  0  0  0  0  0
   62.8270   32.8920   50.4750 C   0  0  0  0  0  0  0  0  0  0  0  0
   63.3537   33.1297   51.4110 H   0  0  0  0  0  0  0  0  0  0  0  0
   61.3560   32.7910   50.5030 C   0  0  0  0  0  0  0  0  0  0  0  0
   60.5700   33.8310   50.3370 O   0  0  0  0  0  0  0  0  0  0  0  0
   59.3210   33.4340   50.4130 C   0  0  0  0  0  0  0  0  0  0  0  0
   58.4417   34.0872   50.3118 H   0  0  0  0  0  0  0  0  0  0  0  0
   59.2780   32.0740   50.6390 C   0  0  0  0  0  0  0  0  0  0  0  0
   58.3786   31.4505   50.7498 H   0  0  0  0  0  0  0  0  0  0  0  0
   60.5890   31.6540   50.6980 C   0  0  0  0  0  0  0  0  0  0  0  0
   60.9513   30.6289   50.8652 H   0  0  0  0  0  0  0  0  0  0  0  0
   61.1910   33.5090   46.4700 C   0  0  0  0  0  0  0  0  0  0  0  0
   61.3040   34.5639   46.7604 H   0  0  0  0  0  0  0  0  0  0  0  0
   61.5405   33.3671   45.4367 H   0  0  0  0  0  0  0  0  0  0  0  0
   59.7160   33.1140   46.5600 C   0  0  0  0  0  0  0  0  0  0  0  0
   59.3125   33.4366   47.5311 H   0  0  0  0  0  0  0  0  0  0  0  0
   59.1644   33.6011   45.7424 H   0  0  0  0  0  0  0  0  0  0  0  0
   57.6100   31.8640   44.9370 C   0  0  0  0  0  0  0  0  0  0  0  0
   57.8600   32.9151   44.7304 H   0  0  0  0  0  0  0  0  0  0  0  0
   56.4970   31.2680   44.3460 C   0  0  0  0  0  0  0  0  0  0  0  0
   55.8550   31.8515   43.6697 H   0  0  0  0  0  0  0  0  0  0  0  0
   56.2050   29.9670   44.6050 N   0  0  0  0  0  0  0  0  0  0  0  0
  1  2  1  0
  2  3  1  0
  2  4  2  0
  4  5  1  0
  4  6  1  0
  6  7  1  0
  6  8  1  0
  6  9  1  0
  9 10  2  3
 10 11  1  0
 11 12  2  0
 12 13  1  0
 13 14  1  0
 14 15  1  0
 14 16  1  0
 14 17  1  0
 17 18  1  0
 17 19  1  0
 17 20  1  0
 20 21  1  0
 21 22  2  0
 21 23  1  0
 23 24  1  0
 23 25  2  0
 25 26  1  0
 25 27  1  0
 27 28  1  0
 28 29  1  0
 29 30  1  0
 29 31  2  0
 31 32  1  0
 31 33  1  0
 33 34  1  0
 20 35  1  0
 35 36  1  0
 35 37  1  0
 35 38  1  0
 38 39  1  0
 38 40  1  0
 12 41  1  0
 41 42  1  0
 41 43  2  0
 43 44  1  0
 43 45  1  0
 45 10  1  0
 38 13  1  0
 33 27  2  0
M  CHG  1  45  -1
M  END
>  <UniqueID>  (53) 
51

>  <SMILES>  (53) 
C=CCN=c1nc(N2CCN(C(=O)/C=C/c3ccco3)CC2)cc[n-]1

>  <Energy>  (53) 
73.50864405925552

>  <Genealogy>  (53) 
C=CCN=c1nc(N2CCN(C(=O)C=Cc3ccco3)CC2)cc[n-]1 (protonated)
C=CCN=c1nc(N2CCN(C(=O)/C=C/c3ccco3)CC2)cc[n-]1 (cis-trans isomerization)
C=CCN=c1nc(N2CCN(C(=O)/C=C/c3ccco3)CC2)cc[n-]1 (3D coordinates assigned)
C=CCN=c1nc(N2CCN(C(=O)/C=C/c3ccco3)CC2)cc[n-]1 (nonaromatic ring conformer: 73.50864405925552 kcal/mol)

>  <smiles>  (53) 
C=CCN=c1nc(N2CCN(C(=O)C=Cc3ccco3)CC2)cc[nH]1

>  <score_type>  (53) 
oracle

>  <origin>  (53) 
adg

>  <m_score__min__energy>  (53) 
-9.2300000000000004

>  <m_primary>  (53) 
energy

$$$$
53:0
     RDKit          3D

 53 56  0  0  0  0  0  0  0  0999 V2000
   54.2500   30.0660   54.7660 C   0  0  0  0  0  0  0  0  0  0  0  0
   55.5830   30.0220   54.7640 C   0  0  0  0  0  0  0  0  0  0  0  0
   56.4230   30.2270   53.5580 C   0  0  0  0  0  0  0  0  0  0  0  0
   57.5250   29.4070   53.2490 C   0  0  0  0  0  0  0  0  0  0  0  0
   58.2730   29.6300   52.0880 C   0  0  0  0  0  0  0  0  0  0  0  0
   57.9350   30.6740   51.2120 C   0  0  0  0  0  0  0  0  0  0  0  0
   58.7030   30.9030   49.9680 C   0  0  0  0  0  0  0  0  0  0  0  0
   58.5330   31.9880   49.1810 N   0  0  0  0  0  0  0  0  0  0  0  0
   59.2930   31.9460   48.0520 C   0  0  0  0  0  0  0  0  0  0  0  0
   59.1400   33.0080   47.0020 C   0  0  0  0  0  0  0  0  0  0  0  0
   59.6770   34.6310   47.6450 S   0  0  0  0  0  0  0  0  0  0  0  0
   61.3370   34.0890   48.0700 C   0  0  0  0  0  0  0  0  0  0  0  0
   62.2750   33.8470   47.0590 C   0  0  0  0  0  0  0  0  0  0  0  0
   63.5730   33.4450   47.3840 C   0  0  0  0  0  0  0  0  0  0  0  0
   63.9390   33.2720   48.7260 C   0  0  0  0  0  0  0  0  0  0  0  0
   65.2300   32.8730   49.0640 O   0  0  0  0  0  0  0  0  0  0  0  0
   62.9980   33.5050   49.7380 C   0  0  0  0  0  0  0  0  0  0  0  0
   61.7010   33.9120   49.4110 C   0  0  0  0  0  0  0  0  0  0  0  0
   60.0710   30.7860   47.9110 C   0  0  0  0  0  0  0  0  0  0  0  0
   61.0010   30.4660   46.8050 C   0  0  0  0  0  0  0  0  0  0  0  0
   62.1960   30.8540   46.8820 O   0  0  0  0  0  0  0  0  0  0  0  0
   60.6080   29.7270   45.6390 N   0  0  0  0  0  0  0  0  0  0  0  0
   60.4050   28.2850   45.5220 C   0  0  0  0  0  0  0  0  0  0  0  0
   58.9560   27.9050   45.6890 C   0  0  0  0  0  0  0  0  0  0  0  0
   58.6150   26.6890   46.3080 C   0  0  0  0  0  0  0  0  0  0  0  0
   57.2770   26.2940   46.4030 C   0  0  0  0  0  0  0  0  0  0  0  0
   56.2690   27.1040   45.8730 C   0  0  0  0  0  0  0  0  0  0  0  0
   54.9390   26.7160   45.9770 O   0  0  0  0  0  0  0  0  0  0  0  0
   56.5990   28.3080   45.2440 C   0  0  0  0  0  0  0  0  0  0  0  0
   57.9360   28.7030   45.1430 C   0  0  0  0  0  0  0  0  0  0  0  0
   59.8090   29.8380   49.2800 S   0  0  0  0  0  0  0  0  0  0  0  0
   56.8310   31.4870   51.5150 C   0  0  0  0  0  0  0  0  0  0  0  0
   56.0820   31.2610   52.6720 C   0  0  0  0  0  0  0  0  0  0  0  0
   53.6957   29.9036   55.7022 H   0  0  0  0  0  0  0  0  0  0  0  0
   53.7049   30.2647   53.8315 H   0  0  0  0  0  0  0  0  0  0  0  0
   56.0926   29.8208   55.7178 H   0  0  0  0  0  0  0  0  0  0  0  0
   57.8000   28.5846   53.9258 H   0  0  0  0  0  0  0  0  0  0  0  0
   59.1325   28.9825   51.8597 H   0  0  0  0  0  0  0  0  0  0  0  0
   59.7545   32.7440   46.1287 H   0  0  0  0  0  0  0  0  0  0  0  0
   58.0799   33.0733   46.7160 H   0  0  0  0  0  0  0  0  0  0  0  0
   61.9888   33.9739   46.0045 H   0  0  0  0  0  0  0  0  0  0  0  0
   64.3083   33.2641   46.5861 H   0  0  0  0  0  0  0  0  0  0  0  0
   65.9860   32.9020   48.3890 H   0  0  0  0  0  0  0  0  0  0  0  0
   63.2805   33.3674   50.7922 H   0  0  0  0  0  0  0  0  0  0  0  0
   60.9651   34.0935   50.2082 H   0  0  0  0  0  0  0  0  0  0  0  0
   60.7462   27.9575   44.5289 H   0  0  0  0  0  0  0  0  0  0  0  0
   60.9799   27.7943   46.3211 H   0  0  0  0  0  0  0  0  0  0  0  0
   59.4057   26.0447   46.7199 H   0  0  0  0  0  0  0  0  0  0  0  0
   57.0177   25.3451   46.8952 H   0  0  0  0  0  0  0  0  0  0  0  0
   55.8052   28.9457   44.8278 H   0  0  0  0  0  0  0  0  0  0  0  0
   58.1913   29.6438   44.6333 H   0  0  0  0  0  0  0  0  0  0  0  0
   56.5542   32.3074   50.8366 H   0  0  0  0  0  0  0  0  0  0  0  0
   55.2146   31.9009   52.8915 H   0  0  0  0  0  0  0  0  0  0  0  0
  1  2  2  0
  2  3  1  0
  3  4  2  0
  4  5  1  0
  5  6  2  0
  6  7  1  0
  7  8  2  0
  8  9  1  0
  9 10  1  0
 10 11  1  0
 11 12  1  0
 12 13  2  0
 13 14  1  0
 14 15  2  0
 15 16  1  0
 15 17  1  0
 17 18  2  0
  9 19  2  0
 19 20  1  0
 20 21  2  0
 20 22  1  0
 22 23  1  0
 23 24  1  0
 24 25  2  0
 25 26  1  0
 26 27  2  0
 27 28  1  0
 27 29  1  0
 29 30  2  0
 19 31  1  0
  6 32  1  0
 32 33  2  0
 33  3  1  0
 31  7  1  0
 18 12  1  0
 30 24  1  0
  1 34  1  0
  1 35  1  0
  2 36  1  0
  4 37  1  0
  5 38  1  0
 10 39  1  0
 10 40  1  0
 13 41  1  0
 14 42  1  0
 16 43  1  0
 17 44  1  0
 18 45  1  0
 23 46  1  0
 23 47  1  0
 25 48  1  0
 26 49  1  0
 29 50  1  0
 30 51  1  0
 32 52  1  0
 33 53  1  0
M  CHG  2  22  -1  28  -1
M  END
>  <UniqueID>  (54) 
52

>  <SMILES>  (54) 
C=Cc1ccc(-c2nc(CSc3ccc(O)cc3)c(C(=O)[N-]Cc3ccc([O-])cc3)s2)cc1

>  <Energy>  (54) 
82.2978086414468

>  <Genealogy>  (54) 
C=Cc1ccc(-c2nc(CSc3ccc(O)cc3)c(C(=O)[N-]Cc3ccc([O-])cc3)s2)cc1 (protonated)
C=Cc1ccc(-c2nc(CSc3ccc(O)cc3)c(C(=O)[N-]Cc3ccc([O-])cc3)s2)cc1 (3D coordinates assigned)
C=Cc1ccc(-c2nc(CSc3ccc(O)cc3)c(C(=O)[N-]Cc3ccc([O-])cc3)s2)cc1 (optimized conformer: 82.2978086414468 kcal/mol)

>  <smiles>  (54) 
C=Cc1ccc(-c2nc(CSc3ccc(O)cc3)c(C(=O)NCc3ccc(O)cc3)s2)cc1

>  <score_type>  (54) 
oracle

>  <origin>  (54) 
adg

>  <m_score__min__energy>  (54) 
-12.890000000000001

>  <m_primary>  (54) 
energy

$$$$
54:0
     RDKit          3D

 71 75  0  0  0  0  0  0  0  0999 V2000
   60.1160   34.6500   48.4180 O   0  0  0  0  0  0  0  0  0  0  0  0
   59.9540   33.7590   49.2990 C   0  0  0  0  0  0  0  0  0  0  0  0
   59.2660   32.4920   48.9580 C   0  0  0  0  0  0  0  0  0  0  0  0
   58.1380   32.4090   48.2310 C   0  0  0  0  0  0  0  0  0  0  0  0
   58.1200   32.3910   46.7600 C   0  0  0  0  0  0  0  0  0  0  0  0
   58.0430   33.6140   46.0630 C   0  0  0  0  0  0  0  0  0  0  0  0
   57.9840   33.6380   44.6550 C   0  0  0  0  0  0  0  0  0  0  0  0
   58.0030   32.4450   43.9230 C   0  0  0  0  0  0  0  0  0  0  0  0
   58.0930   31.2450   44.6260 C   0  0  0  0  0  0  0  0  0  0  0  0
   58.1640   30.0140   44.0930 N   0  0  0  0  0  0  0  0  0  0  0  0
   58.2970   29.1610   45.1330 C   0  0  0  0  0  0  0  0  0  0  0  0
   58.4390   27.6760   44.9610 C   0  0  0  0  0  0  0  0  0  0  0  0
   57.2560   26.9560   45.5380 C   0  0  0  0  0  0  0  0  0  0  0  0
   57.2410   25.6780   46.0580 C   0  0  0  0  0  0  0  0  0  0  0  0
   55.9310   25.4530   46.4290 C   0  0  0  0  0  0  0  0  0  0  0  0
   55.4670   24.2690   46.9860 O   0  0  0  0  0  0  0  0  0  0  0  0
   55.1360   26.5130   46.1770 N   0  0  0  0  0  0  0  0  0  0  0  0
   55.9590   27.4270   45.6290 C   0  0  0  0  0  0  0  0  0  0  0  0
   55.5320   28.6810   45.2080 O   0  0  0  0  0  0  0  0  0  0  0  0
   58.2810   29.8580   46.3450 C   0  0  0  0  0  0  0  0  0  0  0  0
   58.4920   29.2550   47.7050 C   0  0  0  0  0  0  0  0  0  0  0  0
   59.9200   28.7150   47.8500 C   0  0  0  0  0  0  0  0  0  0  0  0
   60.8380   29.7180   48.5740 C   0  0  0  0  0  0  0  0  0  0  0  0
   61.5450   30.6700   47.6310 C   0  0  0  0  0  0  0  0  0  0  0  0
   61.2630   30.6290   46.3990 O   0  0  0  0  0  0  0  0  0  0  0  0
   62.4760   31.6660   48.1170 N   0  0  0  0  0  0  0  0  0  0  0  0
   62.7510   31.8020   49.5550 C   0  0  0  0  0  0  0  0  0  0  0  0
   63.6040   33.0480   49.8360 C   0  0  0  0  0  0  0  0  0  0  0  0
   63.1120   34.1870   49.0480 N   0  0  0  0  0  0  0  0  0  0  0  0
   63.2600   33.9690   47.5950 C   0  0  0  0  0  0  0  0  0  0  0  0
   63.2550   32.4850   47.1740 C   0  0  0  0  0  0  0  0  0  0  0  0
   58.1570   31.2040   46.0020 C   0  0  0  0  0  0  0  0  0  0  0  0
   60.4570   34.0040   50.6180 N   0  0  0  0  0  0  0  0  0  0  0  0
   59.5560   33.8050   52.0880 S   0  0  0  0  0  0  0  0  0  0  0  0
   58.5520   34.9150   52.2220 O   0  0  0  0  0  0  0  0  0  0  0  0
   60.4710   33.8220   53.2760 O   0  0  0  0  0  0  0  0  0  0  0  0
   58.7430   32.2460   52.0180 C   0  0  0  0  0  0  0  0  0  0  0  0
   59.4900   31.0580   51.9880 C   0  0  0  0  0  0  0  0  0  0  0  0
   58.8380   29.8180   51.9940 C   0  0  0  0  0  0  0  0  0  0  0  0
   57.4410   29.7610   52.0420 C   0  0  0  0  0  0  0  0  0  0  0  0
   56.6940   30.9420   52.0840 C   0  0  0  0  0  0  0  0  0  0  0  0
   57.3410   32.1830   52.0730 C   0  0  0  0  0  0  0  0  0  0  0  0
   59.7087   31.5543   49.3250 H   0  0  0  0  0  0  0  0  0  0  0  0
   57.1777   32.3515   48.7644 H   0  0  0  0  0  0  0  0  0  0  0  0
   58.0288   34.5600   46.6242 H   0  0  0  0  0  0  0  0  0  0  0  0
   57.9226   34.6013   44.1275 H   0  0  0  0  0  0  0  0  0  0  0  0
   57.9485   32.4544   42.8244 H   0  0  0  0  0  0  0  0  0  0  0  0
   58.1500   29.7690   43.0780 H   0  0  0  0  0  0  0  0  0  0  0  0
   58.5148   27.4430   43.8886 H   0  0  0  0  0  0  0  0  0  0  0  0
   59.3448   27.3453   45.4903 H   0  0  0  0  0  0  0  0  0  0  0  0
   58.0910   24.9867   46.1558 H   0  0  0  0  0  0  0  0  0  0  0  0
   58.3190   30.0252   48.4710 H   0  0  0  0  0  0  0  0  0  0  0  0
   57.7867   28.4205   47.8322 H   0  0  0  0  0  0  0  0  0  0  0  0
   59.8902   27.7787   48.4266 H   0  0  0  0  0  0  0  0  0  0  0  0
   60.3260   28.5446   46.8420 H   0  0  0  0  0  0  0  0  0  0  0  0
   60.2278   30.3081   49.2736 H   0  0  0  0  0  0  0  0  0  0  0  0
   61.6140   29.1352   49.0918 H   0  0  0  0  0  0  0  0  0  0  0  0
   61.7978   31.8887   50.0971 H   0  0  0  0  0  0  0  0  0  0  0  0
   63.3058   30.9138   49.8916 H   0  0  0  0  0  0  0  0  0  0  0  0
   63.5460   33.2944   50.9065 H   0  0  0  0  0  0  0  0  0  0  0  0
   64.6470   32.8403   49.5549 H   0  0  0  0  0  0  0  0  0  0  0  0
   62.0960   34.3260   49.2650 H   0  0  0  0  0  0  0  0  0  0  0  0
   62.4279   34.4753   47.0838 H   0  0  0  0  0  0  0  0  0  0  0  0
   64.2432   34.3739   47.3134 H   0  0  0  0  0  0  0  0  0  0  0  0
   62.8106   32.3981   46.1715 H   0  0  0  0  0  0  0  0  0  0  0  0
   64.2928   32.1205   47.1715 H   0  0  0  0  0  0  0  0  0  0  0  0
   60.5888   31.1007   51.9597 H   0  0  0  0  0  0  0  0  0  0  0  0
   59.4251   28.8883   51.9609 H   0  0  0  0  0  0  0  0  0  0  0  0
   56.9302   28.7868   52.0467 H   0  0  0  0  0  0  0  0  0  0  0  0
   55.5958   30.8958   52.1258 H   0  0  0  0  0  0  0  0  0  0  0  0
   56.7506   33.1105   52.1075 H   0  0  0  0  0  0  0  0  0  0  0  0
  1  2  2  0
  2  3  1  0
  3  4  2  3
  4  5  1  0
  5  6  2  0
  6  7  1  0
  7  8  2  0
  8  9  1  0
  9 10  1  0
 10 11  1  0
 11 12  1  0
 12 13  1  0
 13 14  1  0
 14 15  2  0
 15 16  1  0
 15 17  1  0
 17 18  1  0
 18 19  1  0
 11 20  2  0
 20 21  1  0
 21 22  1  0
 22 23  1  0
 23 24  1  0
 24 25  2  0
 24 26  1  0
 26 27  1  0
 27 28  1  0
 28 29  1  0
 29 30  1  0
 30 31  1  0
 20 32  1  0
  2 33  1  0
 33 34  1  0
 34 35  2  0
 34 36  2  0
 34 37  1  0
 37 38  2  0
 38 39  1  0
 39 40  2  0
 40 41  1  0
 41 42  2  0
 32  5  1  0
 42 37  1  0
 32  9  2  0
 18 13  2  0
 31 26  1  0
  3 43  1  0
  4 44  1  0
  6 45  1  0
  7 46  1  0
  8 47  1  0
 10 48  1  0
 12 49  1  0
 12 50  1  0
 14 51  1  0
 21 52  1  0
 21 53  1  0
 22 54  1  0
 22 55  1  0
 23 56  1  0
 23 57  1  0
 27 58  1  0
 27 59  1  0
 28 60  1  0
 28 61  1  0
 29 62  1  0
 30 63  1  0
 30 64  1  0
 31 65  1  0
 31 66  1  0
 38 67  1  0
 39 68  1  0
 40 69  1  0
 41 70  1  0
 42 71  1  0
M  CHG  4  16  -1  17  -1  19  -1  33  -1
M  END
>  <UniqueID>  (55) 
53

>  <SMILES>  (55) 
O=C(C=Cc1cccc2[nH]c(Cc3cc([O-])[n-]c3[O-])c(CCCC(=O)N3CCNCC3)c12)[N-]S(=O)(=O)c1ccccc1

>  <Energy>  (55) 
144.94508111993295

>  <Genealogy>  (55) 
O=C(C=Cc1cccc2[nH]c(Cc3cc([O-])[n-]c3[O-])c(CCCC(=O)N3CCNCC3)c12)[N-]S(=O)(=O)c1ccccc1 (protonated)
O=C(C=Cc1cccc2[nH]c(Cc3cc([O-])[n-]c3[O-])c(CCCC(=O)N3CCNCC3)c12)[N-]S(=O)(=O)c1ccccc1 (3D coordinates assigned)
O=C(C=Cc1cccc2[nH]c(Cc3cc([O-])[n-]c3[O-])c(CCCC(=O)N3CCNCC3)c12)[N-]S(=O)(=O)c1ccccc1 (nonaromatic ring conformer: 144.94508111993295 kcal/mol)

>  <smiles>  (55) 
O=C(C=Cc1cccc2[nH]c(Cc3cc(O)[nH]c3O)c(CCCC(=O)N3CCNCC3)c12)NS(=O)(=O)c1ccccc1

>  <score_type>  (55) 
oracle

>  <origin>  (55) 
adg

>  <m_score__min__energy>  (55) 
-19.420000000000002

>  <m_primary>  (55) 
energy

$$$$
55:0
     RDKit          3D

 54 58  0  0  0  0  0  0  0  0999 V2000
   57.5462   31.7793   52.0357 H   0  0  0  0  0  0  0  0  0  0  0  0
   56.4480   31.8230   52.0810 C   0  0  0  0  0  0  0  0  0  0  0  0
   55.9279   32.7769   51.9090 H   0  0  0  0  0  0  0  0  0  0  0  0
   55.7430   30.7130   52.3460 C   0  0  0  0  0  0  0  0  0  0  0  0
   54.3550   30.5960   52.4390 C   0  0  0  0  0  0  0  0  0  0  0  0
   53.4440   31.5540   52.1940 C   0  0  0  0  0  0  0  0  0  0  0  0
   53.4663   32.4598   52.8178 H   0  0  0  0  0  0  0  0  0  0  0  0
   52.4150   31.4640   51.1380 C   0  0  0  0  0  0  0  0  0  0  0  0
   52.4440   30.5300   50.1710 N   0  0  0  0  0  0  0  0  0  0  0  0
   51.3790   30.8370   49.4010 C   0  0  0  0  0  0  0  0  0  0  0  0
   51.0640   30.1680   48.3810 O   0  0  0  0  0  0  0  0  0  0  0  0
   50.6840   31.9210   49.8030 N   0  0  0  0  0  0  0  0  0  0  0  0
   51.3550   32.3150   50.8960 C   0  0  0  0  0  0  0  0  0  0  0  0
   51.0300   33.4540   51.6210 O   0  0  0  0  0  0  0  0  0  0  0  0
   54.0370   29.3280   52.7800 N   0  0  0  0  0  0  0  0  0  0  0  0
   55.2270   28.7080   52.8940 C   0  0  0  0  0  0  0  0  0  0  0  0
   55.3320   27.4890   53.1960 O   0  0  0  0  0  0  0  0  0  0  0  0
   56.2830   29.5060   52.6360 N   0  0  0  0  0  0  0  0  0  0  0  0
   57.6690   29.1180   52.6500 C   0  0  0  0  0  0  0  0  0  0  0  0
   58.1450   28.2420   53.6360 C   0  0  0  0  0  0  0  0  0  0  0  0
   57.4598   27.8613   54.4077 H   0  0  0  0  0  0  0  0  0  0  0  0
   59.4860   27.8510   53.6420 C   0  0  0  0  0  0  0  0  0  0  0  0
   59.8534   27.1633   54.4180 H   0  0  0  0  0  0  0  0  0  0  0  0
   60.3620   28.3310   52.6650 C   0  0  0  0  0  0  0  0  0  0  0  0
   61.4160   28.0163   52.6730 H   0  0  0  0  0  0  0  0  0  0  0  0
   59.9040   29.2130   51.6730 C   0  0  0  0  0  0  0  0  0  0  0  0
   60.8210   29.7090   50.6260 C   0  0  0  0  0  0  0  0  0  0  0  0
   62.0650   29.6950   50.8400 O   0  0  0  0  0  0  0  0  0  0  0  0
   60.3250   30.1990   49.3660 N   0  0  0  0  0  0  0  0  0  0  0  0
   61.0710   31.2470   48.6600 C   0  0  0  0  0  0  0  0  0  0  0  0
   61.5952   31.8759   49.3946 H   0  0  0  0  0  0  0  0  0  0  0  0
   61.7958   30.7732   47.9817 H   0  0  0  0  0  0  0  0  0  0  0  0
   60.1170   32.1210   47.8360 C   0  0  0  0  0  0  0  0  0  0  0  0
   59.5608   32.7803   48.5186 H   0  0  0  0  0  0  0  0  0  0  0  0
   60.7202   32.7026   47.1233 H   0  0  0  0  0  0  0  0  0  0  0  0
   59.1550   31.3150   47.0650 N   0  0  0  0  0  0  0  0  0  0  0  0
   58.2190   31.9630   46.1720 C   0  0  0  0  0  0  0  0  0  0  0  0
   57.3580   31.2800   45.5530 O   0  0  0  0  0  0  0  0  0  0  0  0
   58.2130   33.4600   46.0060 C   0  0  0  0  0  0  0  0  0  0  0  0
   58.6709   33.6821   46.9812 H   0  0  0  0  0  0  0  0  0  0  0  0
   58.4120   33.9310   44.5740 C   0  0  0  0  0  0  0  0  0  0  0  0
   58.9938   34.8423   44.3711 H   0  0  0  0  0  0  0  0  0  0  0  0
   58.8050   33.4743   43.6537 H   0  0  0  0  0  0  0  0  0  0  0  0
   57.0430   34.0340   45.2180 C   0  0  0  0  0  0  0  0  0  0  0  0
   56.6325   35.0196   45.4826 H   0  0  0  0  0  0  0  0  0  0  0  0
   56.0333   33.6830   44.9587 H   0  0  0  0  0  0  0  0  0  0  0  0
   59.1760   29.8500   47.1920 C   0  0  0  0  0  0  0  0  0  0  0  0
   58.2548   29.4338   46.7583 H   0  0  0  0  0  0  0  0  0  0  0  0
   60.0526   29.4545   46.6579 H   0  0  0  0  0  0  0  0  0  0  0  0
   59.2660   29.4520   48.6670 C   0  0  0  0  0  0  0  0  0  0  0  0
   58.3015   29.6611   49.1527 H   0  0  0  0  0  0  0  0  0  0  0  0
   59.5083   28.3803   48.7202 H   0  0  0  0  0  0  0  0  0  0  0  0
   58.5500   29.5880   51.6610 C   0  0  0  0  0  0  0  0  0  0  0  0
   58.1762   30.2554   50.8705 H   0  0  0  0  0  0  0  0  0  0  0  0
  1  2  1  0
  2  3  1  0
  2  4  2  0
  4  5  1  0
  5  6  2  0
  6  7  1  0
  6  8  1  0
  8  9  1  0
  9 10  1  0
 10 11  2  0
 10 12  1  0
 12 13  1  0
 13 14  1  0
  5 15  1  0
 15 16  1  0
 16 17  2  0
 16 18  1  0
 18 19  1  0
 19 20  2  0
 20 21  1  0
 20 22  1  0
 22 23  1  0
 22 24  2  0
 24 25  1  0
 24 26  1  0
 26 27  1  0
 27 28  2  0
 27 29  1  0
 29 30  1  0
 30 31  1  0
 30 32  1  0
 30 33  1  0
 33 34  1  0
 33 35  1  0
 33 36  1  0
 36 37  1  0
 37 38  2  0
 37 39  1  0
 39 40  1  0
 39 41  1  0
 41 42  1  0
 41 43  1  0
 41 44  1  0
 44 45  1  0
 44 46  1  0
 36 47  1  0
 47 48  1  0
 47 49  1  0
 47 50  1  0
 50 51  1  0
 50 52  1  0
 26 53  2  0
 53 54  1  0
 18  4  1  0
 53 19  1  0
 13  8  2  0
 50 29  1  0
 44 39  1  0
M  CHG  4   9  -1  12  -1  14  -1  15  -1
M  END
>  <UniqueID>  (56) 
54

>  <SMILES>  (56) 
C=c1/c(=C/c2[n-]c(=O)[n-]c2[O-])[n-]c(=O)n1-c1cccc(C(=O)N2CCN(C(=O)C3CC3)CC2)c1

>  <Energy>  (56) 
401.2482049847653

>  <Genealogy>  (56) 
C=c1c(=Cc2[n-]c(=O)[n-]c2[O-])[n-]c(=O)n1-c1cccc(C(=O)N2CCN(C(=O)C3CC3)CC2)c1 (protonated)
C=c1/c(=C/c2[n-]c(=O)[n-]c2[O-])[n-]c(=O)n1-c1cccc(C(=O)N2CCN(C(=O)C3CC3)CC2)c1 (cis-trans isomerization)
C=c1/c(=C/c2[n-]c(=O)[n-]c2[O-])[n-]c(=O)n1-c1cccc(C(=O)N2CCN(C(=O)C3CC3)CC2)c1 (3D coordinates assigned)
C=c1/c(=C/c2[n-]c(=O)[n-]c2[O-])[n-]c(=O)n1-c1cccc(C(=O)N2CCN(C(=O)C3CC3)CC2)c1 (nonaromatic ring conformer: 401.2482049847653 kcal/mol)

>  <smiles>  (56) 
C=c1c(=Cc2[nH]c(=O)[nH]c2O)[nH]c(=O)n1-c1cccc(C(=O)N2CCN(C(=O)C3CC3)CC2)c1

>  <score_type>  (56) 
oracle

>  <origin>  (56) 
adg

>  <m_score__min__energy>  (56) 
-19.300000000000001

>  <m_primary>  (56) 
energy

$$$$
56:0
     RDKit          3D

 45 47  0  0  0  0  0  0  0  0999 V2000
   58.3915   33.4580   44.9978 H   0  0  0  0  0  0  0  0  0  0  0  0
   58.5800   33.1440   46.0350 C   0  0  0  0  0  0  0  0  0  0  0  0
   59.1460   33.9920   46.8440 N   0  0  0  0  0  0  0  0  0  0  0  0
   60.5040   33.9160   47.2970 C   0  0  0  0  0  0  0  0  0  0  0  0
   61.5220   33.8280   46.3420 C   0  0  0  0  0  0  0  0  0  0  0  0
   61.2682   33.8330   45.2717 H   0  0  0  0  0  0  0  0  0  0  0  0
   62.8550   33.7340   46.7360 C   0  0  0  0  0  0  0  0  0  0  0  0
   63.6487   33.6668   45.9773 H   0  0  0  0  0  0  0  0  0  0  0  0
   63.1840   33.7250   48.0900 C   0  0  0  0  0  0  0  0  0  0  0  0
   64.2379   33.6412   48.3938 H   0  0  0  0  0  0  0  0  0  0  0  0
   62.1820   33.8220   49.0720 C   0  0  0  0  0  0  0  0  0  0  0  0
   62.5840   33.8150   50.5240 C   0  0  0  0  0  0  0  0  0  0  0  0
   61.6825   33.8307   51.1541 H   0  0  0  0  0  0  0  0  0  0  0  0
   63.1659   32.9066   50.7390 H   0  0  0  0  0  0  0  0  0  0  0  0
   63.1971   34.7026   50.7390 H   0  0  0  0  0  0  0  0  0  0  0  0
   60.8270   33.9600   48.6760 C   0  0  0  0  0  0  0  0  0  0  0  0
   59.7350   34.1000   49.7120 C   0  0  0  0  0  0  0  0  0  0  0  0
   60.1751   34.0436   50.7185 H   0  0  0  0  0  0  0  0  0  0  0  0
   59.2319   35.0700   49.5856 H   0  0  0  0  0  0  0  0  0  0  0  0
   59.0035   33.2883   49.5856 H   0  0  0  0  0  0  0  0  0  0  0  0
   58.1690   31.7510   46.4480 C   0  0  1  0  0  0  0  0  0  0  0  0
   57.3063   31.8158   47.1273 H   0  0  0  0  0  0  0  0  0  0  0  0
   57.7720   30.9510   45.2330 C   0  0  0  0  0  0  0  0  0  0  0  0
   56.6040   30.9400   44.8720 O   0  0  0  0  0  0  0  0  0  0  0  0
   58.8130   30.2480   44.3970 C   0  0  0  0  0  0  0  0  0  0  0  0
   58.3107   29.5022   43.7635 H   0  0  0  0  0  0  0  0  0  0  0  0
   59.3277   31.0119   43.7958 H   0  0  0  0  0  0  0  0  0  0  0  0
   59.8800   29.5310   45.2530 C   0  0  2  0  0  0  0  0  0  0  0  0
   60.7282   29.3333   44.5811 H   0  0  0  0  0  0  0  0  0  0  0  0
   59.4160   28.1690   45.7560 C   0  0  0  0  0  0  0  0  0  0  0  0
   60.3150   27.2260   46.2950 C   0  0  0  0  0  0  0  0  0  0  0  0
   61.3854   27.4702   46.3634 H   0  0  0  0  0  0  0  0  0  0  0  0
   59.8580   25.9840   46.7430 C   0  0  0  0  0  0  0  0  0  0  0  0
   60.5689   25.2574   47.1633 H   0  0  0  0  0  0  0  0  0  0  0  0
   58.5020   25.6620   46.6590 C   0  0  0  0  0  0  0  0  0  0  0  0
   58.1456   24.6835   47.0133 H   0  0  0  0  0  0  0  0  0  0  0  0
   57.5990   26.5830   46.1250 C   0  0  0  0  0  0  0  0  0  0  0  0
   55.8950   26.1780   46.0180 Cl  0  0  0  0  0  0  0  0  0  0  0  0
   58.0510   27.8280   45.6760 C   0  0  0  0  0  0  0  0  0  0  0  0
   57.3336   28.5485   45.2561 H   0  0  0  0  0  0  0  0  0  0  0  0
   60.4190   30.4260   46.3890 C   0  0  0  0  0  0  0  0  0  0  0  0
   61.0199   29.8090   47.0733 H   0  0  0  0  0  0  0  0  0  0  0  0
   61.0275   31.2227   45.9362 H   0  0  0  0  0  0  0  0  0  0  0  0
   59.3060   31.0740   47.1680 C   0  0  0  0  0  0  0  0  0  0  0  0
   59.3580   31.1040   48.3890 O   0  0  0  0  0  0  0  0  0  0  0  0
  1  2  1  0
  2  3  2  0
  3  4  1  0
  4  5  2  0
  5  6  1  0
  5  7  1  0
  7  8  1  0
  7  9  2  0
  9 10  1  0
  9 11  1  0
 11 12  1  0
 12 13  1  0
 12 14  1  0
 12 15  1  0
 11 16  2  0
 16 17  1  0
 17 18  1  0
 17 19  1  0
 17 20  1  0
  2 21  1  0
 21 22  1  1
 21 23  1  0
 23 24  2  0
 23 25  1  0
 25 26  1  0
 25 27  1  0
 25 28  1  0
 28 29  1  6
 28 30  1  0
 30 31  2  0
 31 32  1  0
 31 33  1  0
 33 34  1  0
 33 35  2  0
 35 36  1  0
 35 37  1  0
 37 38  1  0
 37 39  2  0
 39 40  1  0
 28 41  1  0
 41 42  1  0
 41 43  1  0
 41 44  1  0
 44 45  2  0
 16  4  1  0
 44 21  1  0
 39 30  1  0
M  END
>  <UniqueID>  (57) 
55

>  <SMILES>  (57) 
Cc1cccc(/N=C\C2C(=O)CC(c3cccc(Cl)c3)CC2=O)c1C

>  <Energy>  (57) 
57.24450852926115

>  <Genealogy>  (57) 
Cc1cccc(/N=C\C2C(=O)CC(c3cccc(Cl)c3)CC2=O)c1C (cis-trans isomerization)
Cc1cccc(/N=C\C2C(=O)CC(c3cccc(Cl)c3)CC2=O)c1C (3D coordinates assigned)
Cc1cccc(/N=C\C2C(=O)CC(c3cccc(Cl)c3)CC2=O)c1C (nonaromatic ring conformer: 57.24450852926115 kcal/mol)

>  <smiles>  (57) 
Cc1cccc(N=CC2C(=O)CC(c3cccc(Cl)c3)CC2=O)c1C

>  <score_type>  (57) 
oracle

>  <origin>  (57) 
adg

>  <m_score__min__energy>  (57) 
-9

>  <m_primary>  (57) 
energy

$$$$
57:0
     RDKit          3D

 54 57  0  0  0  0  0  0  0  0999 V2000
   62.6660   30.8900   50.2970 N   0  0  0  0  0  0  0  0  0  0  0  0
   61.3190   29.8060   50.3210 S   0  0  0  0  0  0  0  0  0  0  0  0
   60.4080   30.1670   51.4620 O   0  0  0  0  0  0  0  0  0  0  0  0
   61.8090   28.3980   50.5240 O   0  0  0  0  0  0  0  0  0  0  0  0
   60.4470   29.9110   48.7950 C   0  0  0  0  0  0  0  0  0  0  0  0
   61.0100   30.5810   47.7000 C   0  0  0  0  0  0  0  0  0  0  0  0
   60.3200   30.6500   46.4860 C   0  0  0  0  0  0  0  0  0  0  0  0
   59.0510   30.0600   46.3580 C   0  0  0  0  0  0  0  0  0  0  0  0
   58.3280   30.0960   45.1190 N   0  0  0  0  0  0  0  0  0  0  0  0
   57.1210   30.8290   44.8670 C   0  0  0  0  0  0  0  0  0  0  0  0
   56.1150   30.2090   44.4300 O   0  0  0  0  0  0  0  0  0  0  0  0
   57.0240   32.3080   45.1360 C   0  0  0  0  0  0  0  0  0  0  0  0
   58.2110   33.0700   44.5390 C   0  0  0  0  0  0  0  0  0  0  0  0
   58.9050   33.8510   45.6070 C   0  0  0  0  0  0  0  0  0  0  0  0
   59.2460   35.1490   45.5020 N   0  0  0  0  0  0  0  0  0  0  0  0
   59.8810   35.4550   46.6230 N   0  0  0  0  0  0  0  0  0  0  0  0
   59.9060   34.3290   47.3650 C   0  0  0  0  0  0  0  0  0  0  0  0
   60.5790   34.2230   48.7120 C   0  0  1  0  0  0  0  0  0  0  0  0
   59.6710   33.5840   49.7330 C   0  0  0  0  0  0  0  0  0  0  0  0
   59.7130   33.8110   51.1060 C   0  0  0  0  0  0  0  0  0  0  0  0
   58.7680   33.0710   51.8250 C   0  0  0  0  0  0  0  0  0  0  0  0
   57.9750   32.2570   51.0290 C   0  0  0  0  0  0  0  0  0  0  0  0
   58.4530   32.4600   49.4310 S   0  0  0  0  0  0  0  0  0  0  0  0
   61.8850   33.5080   48.6730 N   0  0  0  0  0  0  0  0  0  0  0  0
   62.5330   33.4410   47.3460 C   0  0  0  0  0  0  0  0  0  0  0  0
   63.7430   32.4840   47.4130 C   0  0  0  0  0  0  0  0  0  0  0  0
   64.1620   32.2200   48.7440 O   0  0  0  0  0  0  0  0  0  0  0  0
   64.2390   33.4260   49.4810 C   0  0  0  0  0  0  0  0  0  0  0  0
   62.8350   34.0320   49.6780 C   0  0  0  0  0  0  0  0  0  0  0  0
   59.3100   33.3400   46.7440 O   0  0  0  0  0  0  0  0  0  0  0  0
   58.5070   29.3610   47.4430 C   0  0  0  0  0  0  0  0  0  0  0  0
   59.1960   29.2930   48.6580 C   0  0  0  0  0  0  0  0  0  0  0  0
   62.3580   31.7470   49.7870 H   0  0  0  0  0  0  0  0  0  0  0  0
   63.4080   30.4410   49.7130 H   0  0  0  0  0  0  0  0  0  0  0  0
   61.9983   31.0542   47.7962 H   0  0  0  0  0  0  0  0  0  0  0  0
   60.7723   31.1682   45.6276 H   0  0  0  0  0  0  0  0  0  0  0  0
   56.0939   32.6913   44.6911 H   0  0  0  0  0  0  0  0  0  0  0  0
   57.0310   32.4602   46.2254 H   0  0  0  0  0  0  0  0  0  0  0  0
   58.9173   32.3537   44.0940 H   0  0  0  0  0  0  0  0  0  0  0  0
   57.8447   33.7614   43.7658 H   0  0  0  0  0  0  0  0  0  0  0  0
   60.7916   35.2596   49.0125 H   0  0  0  0  0  0  0  0  0  0  0  0
   60.4216   34.5059   51.5803 H   0  0  0  0  0  0  0  0  0  0  0  0
   58.6636   33.1291   52.9185 H   0  0  0  0  0  0  0  0  0  0  0  0
   57.1722   31.5935   51.3829 H   0  0  0  0  0  0  0  0  0  0  0  0
   61.8115   33.0688   46.6038 H   0  0  0  0  0  0  0  0  0  0  0  0
   62.8746   34.4448   47.0532 H   0  0  0  0  0  0  0  0  0  0  0  0
   63.4653   31.5322   46.9365 H   0  0  0  0  0  0  0  0  0  0  0  0
   64.5804   32.9715   46.8924 H   0  0  0  0  0  0  0  0  0  0  0  0
   64.6854   33.2204   50.4651 H   0  0  0  0  0  0  0  0  0  0  0  0
   64.8599   34.1431   48.9239 H   0  0  0  0  0  0  0  0  0  0  0  0
   62.4711   33.7767   50.6842 H   0  0  0  0  0  0  0  0  0  0  0  0
   62.9047   35.1233   49.5584 H   0  0  0  0  0  0  0  0  0  0  0  0
   57.5320   28.8625   47.3388 H   0  0  0  0  0  0  0  0  0  0  0  0
   58.7551   28.7530   49.5089 H   0  0  0  0  0  0  0  0  0  0  0  0
  1  2  1  0
  2  3  2  0
  2  4  2  0
  2  5  1  0
  5  6  2  0
  6  7  1  0
  7  8  2  0
  8  9  1  0
  9 10  1  0
 10 11  2  0
 10 12  1  0
 12 13  1  0
 13 14  1  0
 14 15  2  0
 15 16  1  0
 16 17  2  0
 17 18  1  0
 18 19  1  0
 19 20  2  0
 20 21  1  0
 21 22  2  0
 22 23  1  0
 18 24  1  0
 24 25  1  0
 25 26  1  0
 26 27  1  0
 27 28  1  0
 28 29  1  0
 17 30  1  0
  8 31  1  0
 31 32  2  0
 32  5  1  0
 30 14  1  0
 23 19  1  0
 29 24  1  0
  1 33  1  0
  1 34  1  0
  6 35  1  0
  7 36  1  0
 12 37  1  0
 12 38  1  0
 13 39  1  0
 13 40  1  0
 18 41  1  1
 20 42  1  0
 21 43  1  0
 22 44  1  0
 25 45  1  0
 25 46  1  0
 26 47  1  0
 26 48  1  0
 28 49  1  0
 28 50  1  0
 29 51  1  0
 29 52  1  0
 31 53  1  0
 32 54  1  0
M  CHG  1   9  -1
M  END
>  <UniqueID>  (58) 
56

>  <SMILES>  (58) 
NS(=O)(=O)c1ccc([N-]C(=O)CCc2nnc([C@@H](c3cccs3)N3CCOCC3)o2)cc1

>  <Energy>  (58) 
130.545007584058

>  <Genealogy>  (58) 
NS(=O)(=O)c1ccc([N-]C(=O)CCc2nnc(C(c3cccs3)N3CCOCC3)o2)cc1 (protonated)
NS(=O)(=O)c1ccc([N-]C(=O)CCc2nnc([C@@H](c3cccs3)N3CCOCC3)o2)cc1 (chirality)
NS(=O)(=O)c1ccc([N-]C(=O)CCc2nnc([C@@H](c3cccs3)N3CCOCC3)o2)cc1 (3D coordinates assigned)
NS(=O)(=O)c1ccc([N-]C(=O)CCc2nnc([C@@H](c3cccs3)N3CCOCC3)o2)cc1 (nonaromatic ring conformer: 130.545007584058 kcal/mol)

>  <smiles>  (58) 
NS(=O)(=O)c1ccc(NC(=O)CCc2nnc(C(c3cccs3)N3CCOCC3)o2)cc1

>  <score_type>  (58) 
oracle

>  <origin>  (58) 
adg

>  <m_score__min__energy>  (58) 
-11.609999999999999

>  <m_primary>  (58) 
energy

$$$$
58:0
     RDKit          3D

 59 62  0  0  0  0  0  0  0  0999 V2000
   57.7780   19.5330   47.0610 C   0  0  0  0  0  0  0  0  0  0  0  0
   57.5130   20.7310   47.7830 O   0  0  0  0  0  0  0  0  0  0  0  0
   56.7740   21.8120   47.2810 C   0  0  0  0  0  0  0  0  0  0  0  0
   56.2850   22.8380   48.1060 C   0  0  0  0  0  0  0  0  0  0  0  0
   55.5530   23.8940   47.5590 C   0  0  0  0  0  0  0  0  0  0  0  0
   55.2870   23.9400   46.1830 C   0  0  0  0  0  0  0  0  0  0  0  0
   54.5170   25.1000   45.6130 C   0  0  0  0  0  0  0  0  0  0  0  0
   55.1640   26.3470   45.9990 N   0  0  0  0  0  0  0  0  0  0  0  0
   56.5810   26.5420   46.0850 C   0  0  0  0  0  0  0  0  0  0  0  0
   57.1840   26.1490   47.1200 O   0  0  0  0  0  0  0  0  0  0  0  0
   57.3570   27.2600   45.0100 C   0  0  0  0  0  0  0  0  0  0  0  0
   57.6570   28.6420   45.4260 N   0  0  0  0  0  0  0  0  0  0  0  0
   58.2690   28.8480   46.6290 C   0  0  0  0  0  0  0  0  0  0  0  0
   58.6150   30.1330   47.0640 C   0  0  0  0  0  0  0  0  0  0  0  0
   59.2600   30.2700   48.3940 C   0  0  0  0  0  0  0  0  0  0  0  0
   58.5580   30.1950   49.4370 O   0  0  0  0  0  0  0  0  0  0  0  0
   60.6850   30.3720   48.5260 N   0  0  0  0  0  0  0  0  0  0  0  0
   61.4670   31.5510   48.2810 C   0  0  0  0  0  0  0  0  0  0  0  0
   62.5880   31.5140   47.4290 C   0  0  0  0  0  0  0  0  0  0  0  0
   63.3450   32.6660   47.2050 C   0  0  0  0  0  0  0  0  0  0  0  0
   62.9870   33.8680   47.8170 C   0  0  0  0  0  0  0  0  0  0  0  0
   61.8630   33.9230   48.6450 C   0  0  0  0  0  0  0  0  0  0  0  0
   61.0960   32.7740   48.8750 C   0  0  0  0  0  0  0  0  0  0  0  0
   59.9770   32.8660   49.7060 O   0  0  0  0  0  0  0  0  0  0  0  0
   58.3320   31.2380   46.2280 C   0  0  0  0  0  0  0  0  0  0  0  0
   58.7020   32.5560   46.5770 C   0  0  0  0  0  0  0  0  0  0  0  0
   58.4120   33.6250   45.7270 C   0  0  0  0  0  0  0  0  0  0  0  0
   57.7630   33.4010   44.5160 C   0  0  0  0  0  0  0  0  0  0  0  0
   57.4100   32.1050   44.1380 C   0  0  0  0  0  0  0  0  0  0  0  0
   57.6940   31.0130   44.9810 C   0  0  0  0  0  0  0  0  0  0  0  0
   57.3700   29.6960   44.5980 C   0  0  0  0  0  0  0  0  0  0  0  0
   56.8190   29.4880   43.4790 O   0  0  0  0  0  0  0  0  0  0  0  0
   55.7880   22.9260   45.3410 C   0  0  0  0  0  0  0  0  0  0  0  0
   55.5400   23.0060   43.9610 O   0  0  0  0  0  0  0  0  0  0  0  0
   56.5050   23.3960   42.9880 C   0  0  0  0  0  0  0  0  0  0  0  0
   56.5220   21.8640   45.9050 C   0  0  0  0  0  0  0  0  0  0  0  0
   57.9599   18.7109   47.7689 H   0  0  0  0  0  0  0  0  0  0  0  0
   56.9125   19.2872   46.4281 H   0  0  0  0  0  0  0  0  0  0  0  0
   58.6664   19.6752   46.4281 H   0  0  0  0  0  0  0  0  0  0  0  0
   56.4795   22.8097   49.1883 H   0  0  0  0  0  0  0  0  0  0  0  0
   55.1819   24.6967   48.2132 H   0  0  0  0  0  0  0  0  0  0  0  0
   54.4950   25.0223   44.5160 H   0  0  0  0  0  0  0  0  0  0  0  0
   53.4881   25.0844   46.0016 H   0  0  0  0  0  0  0  0  0  0  0  0
   58.3000   26.7247   44.8254 H   0  0  0  0  0  0  0  0  0  0  0  0
   56.7512   27.2881   44.0923 H   0  0  0  0  0  0  0  0  0  0  0  0
   58.4955   27.9843   47.2714 H   0  0  0  0  0  0  0  0  0  0  0  0
   62.8691   30.5713   46.9367 H   0  0  0  0  0  0  0  0  0  0  0  0
   64.2244   32.6259   46.5454 H   0  0  0  0  0  0  0  0  0  0  0  0
   63.5899   34.7723   47.6475 H   0  0  0  0  0  0  0  0  0  0  0  0
   61.5789   34.8741   49.1189 H   0  0  0  0  0  0  0  0  0  0  0  0
   59.4170   32.0590   49.9520 H   0  0  0  0  0  0  0  0  0  0  0  0
   59.2236   32.7418   47.5275 H   0  0  0  0  0  0  0  0  0  0  0  0
   58.6973   34.6475   46.0152 H   0  0  0  0  0  0  0  0  0  0  0  0
   57.5277   34.2482   43.8551 H   0  0  0  0  0  0  0  0  0  0  0  0
   56.9064   31.9350   43.1749 H   0  0  0  0  0  0  0  0  0  0  0  0
   57.4100   23.7617   43.4952 H   0  0  0  0  0  0  0  0  0  0  0  0
   56.7616   22.5310   42.3588 H   0  0  0  0  0  0  0  0  0  0  0  0
   56.0885   24.1964   42.3588 H   0  0  0  0  0  0  0  0  0  0  0  0
   56.9030   21.0633   45.2541 H   0  0  0  0  0  0  0  0  0  0  0  0
  1  2  1  0
  2  3  1  0
  3  4  2  0
  4  5  1  0
  5  6  2  0
  6  7  1  0
  7  8  1  0
  8  9  1  0
  9 10  2  0
  9 11  1  0
 11 12  1  0
 12 13  1  0
 13 14  2  0
 14 15  1  0
 15 16  2  0
 15 17  1  0
 17 18  1  0
 18 19  2  0
 19 20  1  0
 20 21  2  0
 21 22  1  0
 22 23  2  0
 23 24  1  0
 14 25  1  0
 25 26  2  0
 26 27  1  0
 27 28  2  0
 28 29  1  0
 29 30  2  0
 30 31  1  0
 31 32  2  0
  6 33  1  0
 33 34  1  0
 34 35  1  0
 33 36  2  0
 36  3  1  0
 31 12  1  0
 23 18  1  0
 30 25  1  0
  1 37  1  0
  1 38  1  0
  1 39  1  0
  4 40  1  0
  5 41  1  0
  7 42  1  0
  7 43  1  0
 11 44  1  0
 11 45  1  0
 13 46  1  0
 19 47  1  0
 20 48  1  0
 21 49  1  0
 22 50  1  0
 24 51  1  0
 26 52  1  0
 27 53  1  0
 28 54  1  0
 29 55  1  0
 35 56  1  0
 35 57  1  0
 35 58  1  0
 36 59  1  0
M  CHG  2   8  -1  17  -1
M  END
>  <UniqueID>  (59) 
57

>  <SMILES>  (59) 
COc1ccc(C[N-]C(=O)Cn2cc(C(=O)[N-]c3ccccc3O)c3ccccc3c2=O)c(OC)c1

>  <Energy>  (59) 
77.34042531980805

>  <Genealogy>  (59) 
COc1ccc(C[N-]C(=O)Cn2cc(C(=O)[N-]c3ccccc3O)c3ccccc3c2=O)c(OC)c1 (protonated)
COc1ccc(C[N-]C(=O)Cn2cc(C(=O)[N-]c3ccccc3O)c3ccccc3c2=O)c(OC)c1 (3D coordinates assigned)
COc1ccc(C[N-]C(=O)Cn2cc(C(=O)[N-]c3ccccc3O)c3ccccc3c2=O)c(OC)c1 (optimized conformer: 77.34042531980805 kcal/mol)

>  <smiles>  (59) 
COc1ccc(CNC(=O)Cn2cc(C(=O)Nc3ccccc3O)c3ccccc3c2=O)c(OC)c1

>  <score_type>  (59) 
oracle

>  <origin>  (59) 
adg

>  <m_score__min__energy>  (59) 
-12.92

>  <m_primary>  (59) 
energy

$$$$
59:0
     RDKit          3D

 56 59  0  0  0  0  0  0  0  0999 V2000
   55.9210   28.0071   44.3961 H   0  0  0  0  0  0  0  0  0  0  0  0
   56.3290   29.0040   44.6190 C   0  0  0  0  0  0  0  0  0  0  0  0
   55.7606   29.9048   44.3444 H   0  0  0  0  0  0  0  0  0  0  0  0
   57.5280   29.1220   45.2300 C   0  0  0  0  0  0  0  0  0  0  0  0
   58.0430   30.4210   45.5120 C   0  0  0  0  0  0  0  0  0  0  0  0
   57.5660   31.6410   44.8280 C   0  0  0  0  0  0  0  0  0  0  0  0
   56.3400   31.9370   44.8520 O   0  0  0  0  0  0  0  0  0  0  0  0
   58.5070   32.5150   44.1930 N   0  0  0  0  0  0  0  0  0  0  0  0
   58.6680   33.9230   44.5360 C   0  0  0  0  0  0  0  0  0  0  0  0
   59.7275   34.1192   44.7575 H   0  0  0  0  0  0  0  0  0  0  0  0
   58.3307   34.5295   43.6826 H   0  0  0  0  0  0  0  0  0  0  0  0
   57.8240   34.2970   45.7600 C   0  0  0  0  0  0  0  0  0  0  0  0
   57.5496   35.3600   45.6912 H   0  0  0  0  0  0  0  0  0  0  0  0
   56.9302   33.6559   45.7661 H   0  0  0  0  0  0  0  0  0  0  0  0
   58.5710   34.0690   47.0500 C   0  0  0  0  0  0  0  0  0  0  0  0
   58.1330   33.0960   47.9640 C   0  0  0  0  0  0  0  0  0  0  0  0
   57.2372   32.4989   47.7382 H   0  0  0  0  0  0  0  0  0  0  0  0
   58.8270   32.8810   49.1580 C   0  0  0  0  0  0  0  0  0  0  0  0
   58.4793   32.1148   49.8666 H   0  0  0  0  0  0  0  0  0  0  0  0
   59.9640   33.6410   49.4510 C   0  0  0  0  0  0  0  0  0  0  0  0
   60.6540   33.4300   50.6390 O   0  0  0  0  0  0  0  0  0  0  0  0
   60.4100   34.6090   48.5450 C   0  0  0  0  0  0  0  0  0  0  0  0
   61.3051   35.2054   48.7755 H   0  0  0  0  0  0  0  0  0  0  0  0
   59.7210   34.8200   47.3480 C   0  0  0  0  0  0  0  0  0  0  0  0
   60.0802   35.5773   46.6356 H   0  0  0  0  0  0  0  0  0  0  0  0
   59.0490   30.5750   46.4760 C   0  0  0  0  0  0  0  0  0  0  0  0
   59.4405   31.5793   46.6955 H   0  0  0  0  0  0  0  0  0  0  0  0
   59.5600   29.4740   47.1600 C   0  0  0  0  0  0  0  0  0  0  0  0
   60.5970   29.6680   48.1920 C   0  0  0  0  0  0  0  0  0  0  0  0
   60.8260   28.7290   49.0020 O   0  0  0  0  0  0  0  0  0  0  0  0
   61.3670   30.8860   48.2620 N   0  0  0  0  0  0  0  0  0  0  0  0
   62.0790   31.2610   49.4920 C   0  0  0  0  0  0  0  0  0  0  0  0
   61.5719   32.1204   49.9549 H   0  0  0  0  0  0  0  0  0  0  0  0
   62.0764   30.4010   50.1779 H   0  0  0  0  0  0  0  0  0  0  0  0
   63.5450   31.6440   49.1810 C   0  0  0  0  0  0  0  0  0  0  0  0
   63.7750   32.5851   49.7020 H   0  0  0  0  0  0  0  0  0  0  0  0
   64.1725   30.8076   49.5225 H   0  0  0  0  0  0  0  0  0  0  0  0
   63.8130   31.8220   47.7970 O   0  0  0  0  0  0  0  0  0  0  0  0
   62.7920   32.5890   47.1930 C   0  0  0  0  0  0  0  0  0  0  0  0
   62.5865   33.4768   47.8092 H   0  0  0  0  0  0  0  0  0  0  0  0
   63.1149   32.9067   46.1906 H   0  0  0  0  0  0  0  0  0  0  0  0
   61.5200   31.7410   47.0770 C   0  0  0  0  0  0  0  0  0  0  0  0
   60.6473   32.4054   46.9939 H   0  0  0  0  0  0  0  0  0  0  0  0
   61.5951   31.1038   46.1835 H   0  0  0  0  0  0  0  0  0  0  0  0
   59.1480   28.1880   46.8040 C   0  0  0  0  0  0  0  0  0  0  0  0
   59.5647   27.3214   47.3381 H   0  0  0  0  0  0  0  0  0  0  0  0
   58.2080   27.9780   45.7730 C   0  0  0  0  0  0  0  0  0  0  0  0
   58.0380   26.6960   45.3520 C   0  0  0  0  0  0  0  0  0  0  0  0
   58.5098   26.4163   44.3985 H   0  0  0  0  0  0  0  0  0  0  0  0
   57.2770   25.6440   46.0590 C   0  0  0  0  0  0  0  0  0  0  0  0
   57.8080   24.5270   46.5890 N   0  0  0  0  0  0  0  0  0  0  0  0
   56.7440   23.9200   47.1580 C   0  0  0  0  0  0  0  0  0  0  0  0
   56.8350   22.8110   47.7470 O   0  0  0  0  0  0  0  0  0  0  0  0
   55.5760   24.5870   47.0420 N   0  0  0  0  0  0  0  0  0  0  0  0
   55.9340   25.6850   46.3570 C   0  0  0  0  0  0  0  0  0  0  0  0
   55.0560   26.7050   46.0170 O   0  0  0  0  0  0  0  0  0  0  0  0
  1  2  1  0
  2  3  1  0
  2  4  2  0
  4  5  1  0
  5  6  1  0
  6  7  2  0
  6  8  1  0
  8  9  1  0
  9 10  1  0
  9 11  1  0
  9 12  1  0
 12 13  1  0
 12 14  1  0
 12 15  1  0
 15 16  2  0
 16 17  1  0
 16 18  1  0
 18 19  1  0
 18 20  2  0
 20 21  1  0
 20 22  1  0
 22 23  1  0
 22 24  2  0
 24 25  1  0
  5 26  2  0
 26 27  1  0
 26 28  1  0
 28 29  1  0
 29 30  2  0
 29 31  1  0
 31 32  1  0
 32 33  1  0
 32 34  1  0
 32 35  1  0
 35 36  1  0
 35 37  1  0
 35 38  1  0
 38 39  1  0
 39 40  1  0
 39 41  1  0
 39 42  1  0
 42 43  1  0
 42 44  1  0
 28 45  2  0
 45 46  1  0
 45 47  1  0
 47 48  2  0
 48 49  1  0
 48 50  1  0
 50 51  1  0
 51 52  1  0
 52 53  2  0
 52 54  1  0
 54 55  1  0
 55 56  1  0
 47  4  1  0
 55 50  2  0
 24 15  1  0
 42 31  1  0
M  CHG  5   8  -1  21  -1  51  -1  54  -1  56  -1
M  END
>  <UniqueID>  (60) 
58

>  <SMILES>  (60) 
C=c1c(C(=O)[N-]CCc2ccc([O-])cc2)cc(C(=O)N2CCOCC2)c/c1=C/c1[n-]c(=O)[n-]c1[O-]

>  <Energy>  (60) 
124.9782676530284

>  <Genealogy>  (60) 
C=c1c(C(=O)[N-]CCc2ccc([O-])cc2)cc(C(=O)N2CCOCC2)cc1=Cc1[n-]c(=O)[n-]c1[O-] (protonated)
C=c1c(C(=O)[N-]CCc2ccc([O-])cc2)cc(C(=O)N2CCOCC2)c/c1=C/c1[n-]c(=O)[n-]c1[O-] (cis-trans isomerization)
C=c1c(C(=O)[N-]CCc2ccc([O-])cc2)cc(C(=O)N2CCOCC2)c/c1=C/c1[n-]c(=O)[n-]c1[O-] (3D coordinates assigned)
C=c1c(C(=O)[N-]CCc2ccc([O-])cc2)cc(C(=O)N2CCOCC2)c/c1=C/c1[n-]c(=O)[n-]c1[O-] (nonaromatic ring conformer: 124.9782676530284 kcal/mol)

>  <smiles>  (60) 
C=c1c(C(=O)NCCc2ccc(O)cc2)cc(C(=O)N2CCOCC2)cc1=Cc1[nH]c(=O)[nH]c1O

>  <score_type>  (60) 
oracle

>  <origin>  (60) 
adg

>  <m_score__min__energy>  (60) 
-20.390000000000001

>  <m_primary>  (60) 
energy

$$$$
60:0
     RDKit          3D

 40 41  0  0  0  0  0  0  0  0999 V2000
   54.9300   21.9040   48.0480 C   0  0  0  0  0  0  0  0  0  0  0  0
   55.9000   22.9600   47.6270 C   0  0  0  0  0  0  0  0  0  0  0  0
   56.9980   23.0710   48.2370 O   0  0  0  0  0  0  0  0  0  0  0  0
   55.6140   23.7790   46.4840 N   0  0  0  0  0  0  0  0  0  0  0  0
   56.4410   24.8830   46.0780 C   0  0  0  0  0  0  0  0  0  0  0  0
   55.8690   26.1430   45.8490 C   0  0  0  0  0  0  0  0  0  0  0  0
   54.5000   26.3310   45.9860 O   0  0  0  0  0  0  0  0  0  0  0  0
   56.6540   27.1870   45.4790 N   0  0  0  0  0  0  0  0  0  0  0  0
   57.9960   27.0390   45.3320 C   0  0  0  0  0  0  0  0  0  0  0  0
   59.0000   28.4330   44.8290 S   0  0  0  0  0  0  0  0  0  0  0  0
   57.5810   29.4680   44.3330 C   0  0  0  0  0  0  0  0  0  0  0  0
   57.3910   30.5960   45.2940 C   0  0  0  0  0  0  0  0  0  0  0  0
   57.8500   30.5060   46.4650 O   0  0  0  0  0  0  0  0  0  0  0  0
   56.7180   31.7840   44.8680 N   0  0  0  0  0  0  0  0  0  0  0  0
   57.4050   33.0320   44.5550 C   0  0  0  0  0  0  0  0  0  0  0  0
   58.3690   33.3880   45.6550 C   0  0  0  0  0  0  0  0  0  0  0  0
   57.9870   33.2820   47.0020 C   0  0  0  0  0  0  0  0  0  0  0  0
   58.8810   33.6340   48.0180 C   0  0  0  0  0  0  0  0  0  0  0  0
   60.1610   34.1130   47.7000 C   0  0  0  0  0  0  0  0  0  0  0  0
   61.1320   34.4540   48.7910 C   0  0  0  0  0  0  0  0  0  0  0  0
   60.5470   34.2060   46.3540 C   0  0  0  0  0  0  0  0  0  0  0  0
   59.6540   33.8540   45.3390 C   0  0  0  0  0  0  0  0  0  0  0  0
   58.5770   25.8370   45.5770 N   0  0  0  0  0  0  0  0  0  0  0  0
   57.8360   24.7610   45.9530 C   0  0  0  0  0  0  0  0  0  0  0  0
   58.4160   23.6740   46.2090 O   0  0  0  0  0  0  0  0  0  0  0  0
   54.8897   21.8601   49.1464 H   0  0  0  0  0  0  0  0  0  0  0  0
   53.9317   22.1449   47.6538 H   0  0  0  0  0  0  0  0  0  0  0  0
   55.2546   20.9297   47.6538 H   0  0  0  0  0  0  0  0  0  0  0  0
   54.8420   23.4780   45.8470 H   0  0  0  0  0  0  0  0  0  0  0  0
   57.7651   29.8763   43.3283 H   0  0  0  0  0  0  0  0  0  0  0  0
   56.6729   28.8472   44.3312 H   0  0  0  0  0  0  0  0  0  0  0  0
   57.9583   32.9149   43.6115 H   0  0  0  0  0  0  0  0  0  0  0  0
   56.6603   33.8357   44.4580 H   0  0  0  0  0  0  0  0  0  0  0  0
   56.9804   32.9206   47.2591 H   0  0  0  0  0  0  0  0  0  0  0  0
   58.5795   33.5350   49.0712 H   0  0  0  0  0  0  0  0  0  0  0  0
   60.6576   34.2874   49.7694 H   0  0  0  0  0  0  0  0  0  0  0  0
   62.0229   33.8149   48.7019 H   0  0  0  0  0  0  0  0  0  0  0  0
   61.4277   35.5098   48.7019 H   0  0  0  0  0  0  0  0  0  0  0  0
   61.5571   34.5576   46.0970 H   0  0  0  0  0  0  0  0  0  0  0  0
   59.9601   33.9427   44.2862 H   0  0  0  0  0  0  0  0  0  0  0  0
  1  2  1  0
  2  3  2  0
  2  4  1  0
  4  5  1  0
  5  6  2  0
  6  7  1  0
  6  8  1  0
  8  9  1  0
  9 10  1  0
 10 11  1  0
 11 12  1  0
 12 13  2  0
 12 14  1  0
 14 15  1  0
 15 16  1  0
 16 17  2  0
 17 18  1  0
 18 19  2  0
 19 20  1  0
 19 21  1  0
 21 22  2  0
  9 23  2  0
 23 24  1  0
 24 25  2  0
 24  5  1  0
 22 16  1  0
  1 26  1  0
  1 27  1  0
  1 28  1  0
  4 29  1  0
 11 30  1  0
 11 31  1  0
 15 32  1  0
 15 33  1  0
 17 34  1  0
 18 35  1  0
 20 36  1  0
 20 37  1  0
 20 38  1  0
 21 39  1  0
 22 40  1  0
M  CHG  3   7  -1   8  -1  14  -1
M  END
>  <UniqueID>  (61) 
59

>  <SMILES>  (61) 
CC(=O)Nc1c([O-])[n-]c(SCC(=O)[N-]Cc2ccc(C)cc2)nc1=O

>  <Energy>  (61) 
36.71529575240135

>  <Genealogy>  (61) 
CC(=O)Nc1c([O-])[n-]c(SCC(=O)[N-]Cc2ccc(C)cc2)nc1=O (protonated)
CC(=O)Nc1c([O-])[n-]c(SCC(=O)[N-]Cc2ccc(C)cc2)nc1=O (3D coordinates assigned)
CC(=O)Nc1c([O-])[n-]c(SCC(=O)[N-]Cc2ccc(C)cc2)nc1=O (optimized conformer: 36.71529575240135 kcal/mol)

>  <smiles>  (61) 
CC(=O)Nc1c(O)[nH]c(SCC(=O)NCc2ccc(C)cc2)nc1=O

>  <score_type>  (61) 
oracle

>  <origin>  (61) 
adg

>  <m_score__min__energy>  (61) 
-15.48

>  <m_primary>  (61) 
energy

$$$$
61:0
     RDKit          3D

 54 57  0  0  0  0  0  0  0  0999 V2000
   57.4443   24.2357   43.3528 H   0  0  0  0  0  0  0  0  0  0  0  0
   57.2270   24.0090   44.4070 C   0  0  0  0  0  0  0  0  0  0  0  0
   57.1980   25.0330   45.2730 C   0  0  0  0  0  0  0  0  0  0  0  0
   58.7260   25.6780   45.9390 S   0  0  0  0  0  0  0  0  0  0  0  0
   58.3860   27.3520   45.3690 C   0  0  0  0  0  0  0  0  0  0  0  0
   59.4240   28.1180   44.8320 C   0  0  0  0  0  0  0  0  0  0  0  0
   60.4068   27.6583   44.6510 H   0  0  0  0  0  0  0  0  0  0  0  0
   59.2190   29.4650   44.5240 C   0  0  0  0  0  0  0  0  0  0  0  0
   60.0380   30.0587   44.0917 H   0  0  0  0  0  0  0  0  0  0  0  0
   57.9710   30.0650   44.7640 C   0  0  0  0  0  0  0  0  0  0  0  0
   57.7610   31.4900   44.4300 C   0  0  0  0  0  0  0  0  0  0  0  0
   57.5190   31.8040   43.2320 O   0  0  0  0  0  0  0  0  0  0  0  0
   57.8260   32.5230   45.4380 N   0  0  0  0  0  0  0  0  0  0  0  0
   58.1300   32.1630   46.8310 C   0  0  0  0  0  0  0  0  0  0  0  0
   57.5755   32.8325   47.5050 H   0  0  0  0  0  0  0  0  0  0  0  0
   57.8316   31.1172   46.9964 H   0  0  0  0  0  0  0  0  0  0  0  0
   59.6140   32.2930   47.1130 C   0  0  0  0  0  0  0  0  0  0  0  0
   60.4380   31.1800   46.8640 C   0  0  0  0  0  0  0  0  0  0  0  0
   59.9977   30.2581   46.4564 H   0  0  0  0  0  0  0  0  0  0  0  0
   61.8070   31.2320   47.1280 C   0  0  0  0  0  0  0  0  0  0  0  0
   62.4370   30.3512   46.9346 H   0  0  0  0  0  0  0  0  0  0  0  0
   62.3780   32.3970   47.6360 C   0  0  0  0  0  0  0  0  0  0  0  0
   63.4567   32.4330   47.8486 H   0  0  0  0  0  0  0  0  0  0  0  0
   61.5830   33.5170   47.8750 C   0  0  0  0  0  0  0  0  0  0  0  0
   62.0418   34.4352   48.2704 H   0  0  0  0  0  0  0  0  0  0  0  0
   60.2000   33.4860   47.6160 C   0  0  0  0  0  0  0  0  0  0  0  0
   59.3870   34.7280   47.8720 C   0  0  0  0  0  0  0  0  0  0  0  0
   59.2856   34.8829   48.9563 H   0  0  0  0  0  0  0  0  0  0  0  0
   59.8923   35.5960   47.4233 H   0  0  0  0  0  0  0  0  0  0  0  0
   58.3894   34.6122   47.4233 H   0  0  0  0  0  0  0  0  0  0  0  0
   57.5530   33.9300   45.0950 C   0  0  0  0  0  0  0  0  0  0  0  0
   57.0624   34.4199   45.9490 H   0  0  0  0  0  0  0  0  0  0  0  0
   56.9004   33.9550   44.2099 H   0  0  0  0  0  0  0  0  0  0  0  0
   58.8450   34.6730   44.7680 C   0  0  0  0  0  0  0  0  0  0  0  0
   59.3481   34.9623   45.7024 H   0  0  0  0  0  0  0  0  0  0  0  0
   59.5069   34.0176   44.1829 H   0  0  0  0  0  0  0  0  0  0  0  0
   58.6114   35.5747   44.1829 H   0  0  0  0  0  0  0  0  0  0  0  0
   56.9140   29.2830   45.2590 C   0  0  0  0  0  0  0  0  0  0  0  0
   55.9252   29.7382   45.4174 H   0  0  0  0  0  0  0  0  0  0  0  0
   57.1110   27.9280   45.5520 C   0  0  0  0  0  0  0  0  0  0  0  0
   55.9810   27.1220   45.9180 N   0  0  0  0  0  0  0  0  0  0  0  0
   55.9720   25.7020   45.7390 C   0  0  0  0  0  0  0  0  0  0  0  0
   54.9230   25.0470   45.9780 O   0  0  0  0  0  0  0  0  0  0  0  0
   56.9870   22.5970   44.7720 C   0  0  0  0  0  0  0  0  0  0  0  0
   56.5330   21.7090   43.7860 C   0  0  0  0  0  0  0  0  0  0  0  0
   56.3839   22.0647   42.7558 H   0  0  0  0  0  0  0  0  0  0  0  0
   56.2690   20.3740   44.1060 C   0  0  0  0  0  0  0  0  0  0  0  0
   55.9272   19.6789   43.3250 H   0  0  0  0  0  0  0  0  0  0  0  0
   56.4390   19.9220   45.4170 C   0  0  0  0  0  0  0  0  0  0  0  0
   56.2396   18.8691   45.6654 H   0  0  0  0  0  0  0  0  0  0  0  0
   56.8620   20.8060   46.4130 C   0  0  0  0  0  0  0  0  0  0  0  0
   56.9846   20.4500   47.4465 H   0  0  0  0  0  0  0  0  0  0  0  0
   57.1300   22.1430   46.0990 C   0  0  0  0  0  0  0  0  0  0  0  0
   57.4850   22.9970   47.0920 F   0  0  0  0  0  0  0  0  0  0  0  0
  1  2  1  0
  2  3  2  0
  3  4  1  0
  4  5  1  0
  5  6  2  0
  6  7  1  0
  6  8  1  0
  8  9  1  0
  8 10  2  0
 10 11  1  0
 11 12  2  0
 11 13  1  0
 13 14  1  0
 14 15  1  0
 14 16  1  0
 14 17  1  0
 17 18  2  0
 18 19  1  0
 18 20  1  0
 20 21  1  0
 20 22  2  0
 22 23  1  0
 22 24  1  0
 24 25  1  0
 24 26  2  0
 26 27  1  0
 27 28  1  0
 27 29  1  0
 27 30  1  0
 13 31  1  0
 31 32  1  0
 31 33  1  0
 31 34  1  0
 34 35  1  0
 34 36  1  0
 34 37  1  0
 10 38  1  0
 38 39  1  0
 38 40  2  0
 40 41  1  0
 41 42  1  0
 42 43  2  0
  2 44  1  0
 44 45  2  0
 45 46  1  0
 45 47  1  0
 47 48  1  0
 47 49  2  0
 49 50  1  0
 49 51  1  0
 51 52  1  0
 51 53  2  0
 53 54  1  0
 42  3  1  0
 53 44  1  0
 40  5  1  0
 26 17  1  0
M  CHG  1  41  -1
M  END
>  <UniqueID>  (62) 
60

>  <SMILES>  (62) 
CCN(Cc1ccccc1C)C(=O)c1ccc2c(c1)[N-]C(=O)/C(=C\c1ccccc1F)S2

>  <Energy>  (62) 
79.2761331035439

>  <Genealogy>  (62) 
CCN(Cc1ccccc1C)C(=O)c1ccc2c(c1)[N-]C(=O)C(=Cc1ccccc1F)S2 (protonated)
CCN(Cc1ccccc1C)C(=O)c1ccc2c(c1)[N-]C(=O)/C(=C\c1ccccc1F)S2 (cis-trans isomerization)
CCN(Cc1ccccc1C)C(=O)c1ccc2c(c1)[N-]C(=O)/C(=C\c1ccccc1F)S2 (3D coordinates assigned)
CCN(Cc1ccccc1C)C(=O)c1ccc2c(c1)[N-]C(=O)/C(=C\c1ccccc1F)S2 (nonaromatic ring conformer: 79.2761331035439 kcal/mol)

>  <smiles>  (62) 
CCN(Cc1ccccc1C)C(=O)c1ccc2c(c1)NC(=O)C(=Cc1ccccc1F)S2

>  <score_type>  (62) 
oracle

>  <origin>  (62) 
adg

>  <m_score__min__energy>  (62) 
-11.630000000000001

>  <m_primary>  (62) 
energy

$$$$
62:0
     RDKit          3D

 46 49  0  0  0  0  0  0  0  0999 V2000
   59.8860   27.0110   46.5780 N   0  0  0  0  0  0  0  0  0  0  0  0
   58.5670   27.3180   46.0850 C   0  0  0  0  0  0  0  0  0  0  0  0
   58.2740   28.6240   45.6240 C   0  0  0  0  0  0  0  0  0  0  0  0
   59.3360   29.6460   45.4600 C   0  0  0  0  0  0  0  0  0  0  0  0
   59.2660   30.4660   44.5050 O   0  0  0  0  0  0  0  0  0  0  0  0
   60.4950   29.7240   46.4070 C   0  0  0  0  0  0  0  0  0  0  0  0
   60.1510   30.9500   47.7100 S   0  0  0  0  0  0  0  0  0  0  0  0
   61.6830   31.8390   47.4350 C   0  0  0  0  0  0  0  0  0  0  0  0
   62.8460   31.2300   47.1190 N   0  0  0  0  0  0  0  0  0  0  0  0
   63.7430   32.1950   46.9820 N   0  0  0  0  0  0  0  0  0  0  0  0
   63.1210   33.3620   47.2110 C   0  0  0  0  0  0  0  0  0  0  0  0
   63.6890   34.4850   47.1480 O   0  0  0  0  0  0  0  0  0  0  0  0
   61.8210   33.1810   47.5080 N   0  0  0  0  0  0  0  0  0  0  0  0
   60.7990   34.1980   47.7530 C   0  0  0  0  0  0  0  0  0  0  0  0
   59.6680   34.0440   46.7740 C   0  0  0  0  0  0  0  0  0  0  0  0
   58.3890   33.6590   47.2130 C   0  0  0  0  0  0  0  0  0  0  0  0
   57.3500   33.4880   46.2940 C   0  0  0  0  0  0  0  0  0  0  0  0
   57.5790   33.6940   44.9300 C   0  0  0  0  0  0  0  0  0  0  0  0
   58.8490   34.0710   44.4840 C   0  0  0  0  0  0  0  0  0  0  0  0
   59.8910   34.2430   45.4010 C   0  0  0  0  0  0  0  0  0  0  0  0
   56.9420   28.9310   45.3120 C   0  0  0  0  0  0  0  0  0  0  0  0
   56.6240   30.0720   44.8830 O   0  0  0  0  0  0  0  0  0  0  0  0
   55.9800   27.9940   45.4640 N   0  0  0  0  0  0  0  0  0  0  0  0
   56.2690   26.7370   45.8760 C   0  0  0  0  0  0  0  0  0  0  0  0
   55.3240   25.9170   46.0270 O   0  0  0  0  0  0  0  0  0  0  0  0
   57.5670   26.3690   46.1250 N   0  0  0  0  0  0  0  0  0  0  0  0
   57.8590   24.9800   46.5340 C   0  0  0  0  0  0  0  0  0  0  0  0
   58.8670   24.2610   45.6410 C   0  0  0  0  0  0  0  0  0  0  0  0
   57.3990   23.9090   45.5460 C   0  0  0  0  0  0  0  0  0  0  0  0
   60.5250   26.3560   46.0780 H   0  0  0  0  0  0  0  0  0  0  0  0
   60.2120   27.3180   47.5200 H   0  0  0  0  0  0  0  0  0  0  0  0
   60.6565   28.7382   46.8675 H   0  0  0  0  0  0  0  0  0  0  0  0
   61.3952   30.0280   45.8528 H   0  0  0  0  0  0  0  0  0  0  0  0
   64.7460   32.0490   46.7340 H   0  0  0  0  0  0  0  0  0  0  0  0
   60.4117   34.0848   48.7763 H   0  0  0  0  0  0  0  0  0  0  0  0
   61.2476   35.1947   47.6293 H   0  0  0  0  0  0  0  0  0  0  0  0
   58.2053   33.4916   48.2846 H   0  0  0  0  0  0  0  0  0  0  0  0
   56.3505   33.1909   46.6442 H   0  0  0  0  0  0  0  0  0  0  0  0
   56.7599   33.5594   44.2082 H   0  0  0  0  0  0  0  0  0  0  0  0
   59.0291   34.2325   43.4109 H   0  0  0  0  0  0  0  0  0  0  0  0
   60.8901   34.5355   45.0456 H   0  0  0  0  0  0  0  0  0  0  0  0
   57.7432   25.1460   47.6152 H   0  0  0  0  0  0  0  0  0  0  0  0
   59.3560   24.8030   44.8181 H   0  0  0  0  0  0  0  0  0  0  0  0
   59.7914   23.6914   45.8171 H   0  0  0  0  0  0  0  0  0  0  0  0
   56.8220   24.1957   44.6544 H   0  0  0  0  0  0  0  0  0  0  0  0
   56.8171   22.9788   45.6248 H   0  0  0  0  0  0  0  0  0  0  0  0
  1  2  1  0
  2  3  2  0
  3  4  1  0
  4  5  2  0
  4  6  1  0
  6  7  1  0
  7  8  1  0
  8  9  2  0
  9 10  1  0
 10 11  1  0
 11 12  2  0
 11 13  1  0
 13 14  1  0
 14 15  1  0
 15 16  2  0
 16 17  1  0
 17 18  2  0
 18 19  1  0
 19 20  2  0
  3 21  1  0
 21 22  2  0
 21 23  1  0
 23 24  1  0
 24 25  2  0
 24 26  1  0
 26 27  1  0
 27 28  1  0
 28 29  1  0
 26  2  1  0
 29 27  1  0
 13  8  1  0
 20 15  1  0
  1 30  1  0
  1 31  1  0
  6 32  1  0
  6 33  1  0
 10 34  1  0
 14 35  1  0
 14 36  1  0
 16 37  1  0
 17 38  1  0
 18 39  1  0
 19 40  1  0
 20 41  1  0
 27 42  1  0
 28 43  1  0
 28 44  1  0
 29 45  1  0
 29 46  1  0
M  CHG  1  23  -1
M  END
>  <UniqueID>  (63) 
61

>  <SMILES>  (63) 
Nc1c(C(=O)CSc2n[nH]c(=O)n2Cc2ccccc2)c(=O)[n-]c(=O)n1C1CC1

>  <Energy>  (63) 
358.3091956165733

>  <Genealogy>  (63) 
Nc1c(C(=O)CSc2n[nH]c(=O)n2Cc2ccccc2)c(=O)[n-]c(=O)n1C1CC1 (protonated)
Nc1c(C(=O)CSc2n[nH]c(=O)n2Cc2ccccc2)c(=O)[n-]c(=O)n1C1CC1 (3D coordinates assigned)
Nc1c(C(=O)CSc2n[nH]c(=O)n2Cc2ccccc2)c(=O)[n-]c(=O)n1C1CC1 (nonaromatic ring conformer: 358.3091956165733 kcal/mol)

>  <smiles>  (63) 
Nc1c(C(=O)CSc2n[nH]c(=O)n2Cc2ccccc2)c(=O)[nH]c(=O)n1C1CC1

>  <score_type>  (63) 
oracle

>  <origin>  (63) 
adg

>  <m_score__min__energy>  (63) 
-10.67

>  <m_primary>  (63) 
energy

$$$$
63:0
     RDKit          3D

 59 61  0  0  0  0  0  0  0  0999 V2000
   54.5410   24.4650   45.2660 C   0  0  0  0  0  0  0  0  0  0  0  0
   55.1570   23.8110   44.0310 C   0  0  0  0  0  0  0  0  0  0  0  0
   56.3840   23.0730   44.3790 N   0  0  0  0  0  0  0  0  0  0  0  0
   56.2940   21.6150   44.5590 C   0  0  0  0  0  0  0  0  0  0  0  0
   56.6750   20.8810   43.2740 C   0  0  0  0  0  0  0  0  0  0  0  0
   57.6920   23.6980   44.3320 C   0  0  0  0  0  0  0  0  0  0  0  0
   58.7100   22.9730   44.1680 O   0  0  0  0  0  0  0  0  0  0  0  0
   57.8970   25.1600   44.4980 C   0  0  0  0  0  0  0  0  0  0  0  0
   57.7700   26.3050   43.2660 S   0  0  0  0  0  0  0  0  0  0  0  0
   58.0130   27.6610   44.2290 C   0  0  0  0  0  0  0  0  0  0  0  0
   57.9820   29.0280   43.7890 N   0  0  0  0  0  0  0  0  0  0  0  0
   56.9260   29.9520   44.1060 C   0  0  0  0  0  0  0  0  0  0  0  0
   55.8800   29.5560   44.6830 O   0  0  0  0  0  0  0  0  0  0  0  0
   57.0170   31.3800   43.6600 C   0  0  0  0  0  0  0  0  0  0  0  0
   57.9410   32.1130   44.5200 N   0  0  0  0  0  0  0  0  0  0  0  0
   59.0090   31.5380   45.2830 C   0  0  0  0  0  0  0  0  0  0  0  0
   59.4990   30.3980   45.0650 O   0  0  0  0  0  0  0  0  0  0  0  0
   59.4070   32.4410   46.3560 C   0  0  0  0  0  0  0  0  0  0  0  0
   60.3840   32.3100   47.3430 C   0  0  0  0  0  0  0  0  0  0  0  0
   60.5210   33.3520   48.2780 C   0  0  0  0  0  0  0  0  0  0  0  0
   59.6850   34.4880   48.2110 C   0  0  0  0  0  0  0  0  0  0  0  0
   58.7030   34.5920   47.2100 C   0  0  0  0  0  0  0  0  0  0  0  0
   58.5910   33.5510   46.2910 C   0  0  0  0  0  0  0  0  0  0  0  0
   57.6710   33.3550   45.1760 C   0  0  0  0  0  0  0  0  0  0  0  0
   56.7420   34.1400   44.8510 O   0  0  0  0  0  0  0  0  0  0  0  0
   58.1560   27.2480   45.5520 C   0  0  0  0  0  0  0  0  0  0  0  0
   58.3330   28.2010   46.6640 C   0  0  0  0  0  0  0  0  0  0  0  0
   57.4110   29.0270   46.9030 O   0  0  0  0  0  0  0  0  0  0  0  0
   59.5140   28.1750   47.4890 N   0  0  0  0  0  0  0  0  0  0  0  0
   59.6800   29.1890   48.5390 C   0  0  0  0  0  0  0  0  0  0  0  0
   60.5300   27.1350   47.2940 C   0  0  0  0  0  0  0  0  0  0  0  0
   58.1010   25.8460   45.7110 C   0  0  0  0  0  0  0  0  0  0  0  0
   58.2220   25.1610   47.0470 C   0  0  0  0  0  0  0  0  0  0  0  0
   54.9681   24.0115   46.1726 H   0  0  0  0  0  0  0  0  0  0  0  0
   54.7594   25.5431   45.2575 H   0  0  0  0  0  0  0  0  0  0  0  0
   53.4518   24.3115   45.2575 H   0  0  0  0  0  0  0  0  0  0  0  0
   54.4290   23.1120   43.5935 H   0  0  0  0  0  0  0  0  0  0  0  0
   55.4161   24.6001   43.3098 H   0  0  0  0  0  0  0  0  0  0  0  0
   56.9777   21.3089   45.3645 H   0  0  0  0  0  0  0  0  0  0  0  0
   55.2562   21.3566   44.8161 H   0  0  0  0  0  0  0  0  0  0  0  0
   57.1682   19.9309   43.5269 H   0  0  0  0  0  0  0  0  0  0  0  0
   55.7684   20.6781   42.6850 H   0  0  0  0  0  0  0  0  0  0  0  0
   57.3627   21.5057   42.6850 H   0  0  0  0  0  0  0  0  0  0  0  0
   58.7360   29.3540   43.1400 H   0  0  0  0  0  0  0  0  0  0  0  0
   57.3795   31.4152   42.6220 H   0  0  0  0  0  0  0  0  0  0  0  0
   56.0209   31.8424   43.7228 H   0  0  0  0  0  0  0  0  0  0  0  0
   61.0276   31.4191   47.3888 H   0  0  0  0  0  0  0  0  0  0  0  0
   61.2845   33.2814   49.0667 H   0  0  0  0  0  0  0  0  0  0  0  0
   59.8028   35.2971   48.9469 H   0  0  0  0  0  0  0  0  0  0  0  0
   58.0424   35.4698   47.1542 H   0  0  0  0  0  0  0  0  0  0  0  0
   59.6017   28.7106   49.5264 H   0  0  0  0  0  0  0  0  0  0  0  0
   60.6677   29.6627   48.4384 H   0  0  0  0  0  0  0  0  0  0  0  0
   58.8950   29.9529   48.4384 H   0  0  0  0  0  0  0  0  0  0  0  0
   60.8803   26.7764   48.2731 H   0  0  0  0  0  0  0  0  0  0  0  0
   60.0933   26.2967   46.7313 H   0  0  0  0  0  0  0  0  0  0  0  0
   61.3782   27.5520   46.7313 H   0  0  0  0  0  0  0  0  0  0  0  0
   58.0914   25.9001   47.8512 H   0  0  0  0  0  0  0  0  0  0  0  0
   57.4470   24.3851   47.1328 H   0  0  0  0  0  0  0  0  0  0  0  0
   59.2159   24.6976   47.1328 H   0  0  0  0  0  0  0  0  0  0  0  0
  1  2  1  0
  2  3  1  0
  3  4  1  0
  4  5  1  0
  3  6  1  0
  6  7  2  0
  6  8  1  0
  8  9  1  0
  9 10  1  0
 10 11  1  0
 11 12  1  0
 12 13  2  0
 12 14  1  0
 14 15  1  0
 15 16  1  0
 16 17  2  0
 16 18  1  0
 18 19  2  0
 19 20  1  0
 20 21  2  0
 21 22  1  0
 22 23  2  0
 23 24  1  0
 24 25  2  0
 10 26  2  0
 26 27  1  0
 27 28  2  0
 27 29  1  0
 29 30  1  0
 29 31  1  0
 26 32  1  0
 32 33  1  0
 32  8  2  0
 24 15  1  0
 23 18  1  0
  1 34  1  0
  1 35  1  0
  1 36  1  0
  2 37  1  0
  2 38  1  0
  4 39  1  0
  4 40  1  0
  5 41  1  0
  5 42  1  0
  5 43  1  0
 11 44  1  0
 14 45  1  0
 14 46  1  0
 19 47  1  0
 20 48  1  0
 21 49  1  0
 22 50  1  0
 30 51  1  0
 30 52  1  0
 30 53  1  0
 31 54  1  0
 31 55  1  0
 31 56  1  0
 33 57  1  0
 33 58  1  0
 33 59  1  0
M  END
>  <UniqueID>  (64) 
62

>  <SMILES>  (64) 
CCN(CC)C(=O)c1sc(NC(=O)CN2C(=O)c3ccccc3C2=O)c(C(=O)N(C)C)c1C

>  <Energy>  (64) 
121.26702273536253

>  <Genealogy>  (64) 
CCN(CC)C(=O)c1sc(NC(=O)CN2C(=O)c3ccccc3C2=O)c(C(=O)N(C)C)c1C (3D coordinates assigned)
CCN(CC)C(=O)c1sc(NC(=O)CN2C(=O)c3ccccc3C2=O)c(C(=O)N(C)C)c1C (nonaromatic ring conformer: 121.26702273536253 kcal/mol)

>  <smiles>  (64) 
CCN(CC)C(=O)c1sc(NC(=O)CN2C(=O)c3ccccc3C2=O)c(C(=O)N(C)C)c1C

>  <score_type>  (64) 
oracle

>  <origin>  (64) 
adg

>  <m_score__min__energy>  (64) 
-8.8800000000000008

>  <m_primary>  (64) 
energy

$$$$
64:0
     RDKit          3D

 36 37  0  0  0  0  0  0  0  0999 V2000
   54.8930   29.3390   44.1830 O   0  0  0  0  0  0  0  0  0  0  0  0
   56.0250   29.7160   44.5850 C   0  0  0  0  0  0  0  0  0  0  0  0
   57.0970   28.7170   44.7500 C   0  0  0  0  0  0  0  0  0  0  0  0
   57.5150   28.2220   45.9250 C   0  0  0  0  0  0  0  0  0  0  0  0
   57.4420   26.7960   46.3250 C   0  0  0  0  0  0  0  0  0  0  0  0
   58.5830   26.0990   46.7510 C   0  0  0  0  0  0  0  0  0  0  0  0
   58.4820   24.8060   47.1510 N   0  0  0  0  0  0  0  0  0  0  0  0
   57.2830   24.1710   47.1660 C   0  0  0  0  0  0  0  0  0  0  0  0
   57.2110   22.9710   47.5350 O   0  0  0  0  0  0  0  0  0  0  0  0
   56.1580   24.8320   46.7880 N   0  0  0  0  0  0  0  0  0  0  0  0
   56.2090   26.1270   46.3780 C   0  0  0  0  0  0  0  0  0  0  0  0
   55.1450   26.7100   46.0400 O   0  0  0  0  0  0  0  0  0  0  0  0
   56.2770   31.1050   44.8190 N   0  0  0  0  0  0  0  0  0  0  0  0
   57.8320   31.8260   44.5900 S   0  0  0  0  0  0  0  0  0  0  0  0
   58.7950   31.2110   45.5650 O   0  0  0  0  0  0  0  0  0  0  0  0
   58.3110   31.5600   43.1900 O   0  0  0  0  0  0  0  0  0  0  0  0
   57.7080   33.5850   44.8950 C   0  0  0  0  0  0  0  0  0  0  0  0
   59.0770   34.2760   44.9110 C   0  0  0  0  0  0  0  0  0  0  0  0
   59.7520   34.1700   46.2550 C   0  0  0  0  0  0  0  0  0  0  0  0
   59.0190   34.3850   47.4340 C   0  0  0  0  0  0  0  0  0  0  0  0
   59.6390   34.2710   48.6810 C   0  0  0  0  0  0  0  0  0  0  0  0
   60.9950   33.9410   48.7610 C   0  0  0  0  0  0  0  0  0  0  0  0
   61.7310   33.7210   47.5940 C   0  0  0  0  0  0  0  0  0  0  0  0
   61.1150   33.8350   46.3440 C   0  0  0  0  0  0  0  0  0  0  0  0
   57.5923   28.3491   43.8393 H   0  0  0  0  0  0  0  0  0  0  0  0
   57.9458   28.9298   46.6485 H   0  0  0  0  0  0  0  0  0  0  0  0
   59.5614   26.6017   46.7608 H   0  0  0  0  0  0  0  0  0  0  0  0
   57.0934   34.0379   44.1031 H   0  0  0  0  0  0  0  0  0  0  0  0
   57.2532   33.7210   45.8873 H   0  0  0  0  0  0  0  0  0  0  0  0
   59.7205   33.8052   44.1532 H   0  0  0  0  0  0  0  0  0  0  0  0
   58.9196   35.3430   44.6950 H   0  0  0  0  0  0  0  0  0  0  0  0
   57.9516   34.6444   47.3752 H   0  0  0  0  0  0  0  0  0  0  0  0
   59.0596   34.4411   49.6004 H   0  0  0  0  0  0  0  0  0  0  0  0
   61.4828   33.8545   49.7431 H   0  0  0  0  0  0  0  0  0  0  0  0
   62.7970   33.4576   47.6587 H   0  0  0  0  0  0  0  0  0  0  0  0
   61.6982   33.6622   45.4275 H   0  0  0  0  0  0  0  0  0  0  0  0
  1  2  2  0
  2  3  1  0
  3  4  2  3
  4  5  1  0
  5  6  2  0
  6  7  1  0
  7  8  1  0
  8  9  2  0
  8 10  1  0
 10 11  1  0
 11 12  2  0
  2 13  1  0
 13 14  1  0
 14 15  2  0
 14 16  2  0
 14 17  1  0
 17 18  1  0
 18 19  1  0
 19 20  2  0
 20 21  1  0
 21 22  2  0
 22 23  1  0
 23 24  2  0
 11  5  1  0
 24 19  1  0
  3 25  1  0
  4 26  1  0
  6 27  1  0
 17 28  1  0
 17 29  1  0
 18 30  1  0
 18 31  1  0
 20 32  1  0
 21 33  1  0
 22 34  1  0
 23 35  1  0
 24 36  1  0
M  CHG  3   7  -1  10  -1  13  -1
M  END
>  <UniqueID>  (65) 
63

>  <SMILES>  (65) 
O=C(C=Cc1c[n-]c(=O)[n-]c1=O)[N-]S(=O)(=O)CCc1ccccc1

>  <Energy>  (65) 
40.65382784228879

>  <Genealogy>  (65) 
O=C(C=Cc1c[n-]c(=O)[n-]c1=O)[N-]S(=O)(=O)CCc1ccccc1 (protonated)
O=C(C=Cc1c[n-]c(=O)[n-]c1=O)[N-]S(=O)(=O)CCc1ccccc1 (3D coordinates assigned)
O=C(C=Cc1c[n-]c(=O)[n-]c1=O)[N-]S(=O)(=O)CCc1ccccc1 (optimized conformer: 40.65382784228879 kcal/mol)

>  <smiles>  (65) 
O=C(C=Cc1c[nH]c(=O)[nH]c1=O)NS(=O)(=O)CCc1ccccc1

>  <score_type>  (65) 
oracle

>  <origin>  (65) 
adg

>  <m_score__min__energy>  (65) 
-14.07

>  <m_primary>  (65) 
energy

$$$$
65:0
     RDKit          3D

 50 52  0  0  1  0  0  0  0  0999 V2000
   56.0580   29.4820   53.2660 C   0  0  0  0  0  0  0  0  0  0  0  0
   56.1580   30.0760   51.9820 O   0  0  0  0  0  0  0  0  0  0  0  0
   57.4290   30.4180   51.5140 C   0  0  0  0  0  0  0  0  0  0  0  0
   58.0310   29.4950   50.8750 O   0  0  0  0  0  0  0  0  0  0  0  0
   58.0260   31.7290   51.7390 C   0  0  0  0  0  0  0  0  0  0  0  0
   57.8800   32.4020   52.9450 C   0  0  0  0  0  0  0  0  0  0  0  0
   58.4760   33.6330   53.0670 C   0  0  0  0  0  0  0  0  0  0  0  0
   59.2110   34.2140   52.0260 C   0  0  0  0  0  0  0  0  0  0  0  0
   59.3560   33.5450   50.8290 C   0  0  0  0  0  0  0  0  0  0  0  0
   60.1290   34.1080   49.6780 C   0  0  0  0  0  0  0  0  0  0  0  0
   60.1480   33.0040   48.6200 C   0  0  0  0  0  0  0  0  0  0  0  0
   59.6700   33.5700   47.3300 C   0  0  0  0  0  0  0  0  0  0  0  0
   60.0070   34.8120   46.9890 N   0  0  0  0  0  0  0  0  0  0  0  0
   59.6310   35.4110   45.8560 C   0  0  0  0  0  0  0  0  0  0  0  0
   58.8330   34.6780   44.9800 C   0  0  0  0  0  0  0  0  0  0  0  0
   58.4740   33.3770   45.3270 C   0  0  0  0  0  0  0  0  0  0  0  0
   58.8700   32.7780   46.4970 C   0  0  0  0  0  0  0  0  0  0  0  0
   58.5770   31.5320   46.9220 O   0  0  0  0  0  0  0  0  0  0  0  0
   57.9380   30.5660   46.2480 C   0  0  0  0  0  0  0  0  0  0  0  0
   57.1680   30.6860   45.1510 N   0  0  0  0  0  0  0  0  0  0  0  0
   56.5620   29.6580   44.5380 C   0  0  0  0  0  0  0  0  0  0  0  0
   56.6750   28.3980   44.9760 N   0  0  0  0  0  0  0  0  0  0  0  0
   57.4290   28.1950   46.0690 C   0  0  0  0  0  0  0  0  0  0  0  0
   57.5900   27.0170   46.5650 N   0  0  0  0  0  0  0  0  0  0  0  0
   56.4640   25.7300   46.2720 S   0  0  0  0  0  0  0  0  0  0  0  0
   56.8830   24.8450   44.7890 C   0  0  0  0  0  0  0  0  0  0  0  0
   55.1370   26.4290   46.0030 O   0  0  0  0  0  0  0  0  0  0  0  0
   56.2510   24.8570   47.4490 O   0  0  0  0  0  0  0  0  0  0  0  0
   58.0670   29.2460   46.7220 C   0  0  0  0  0  0  0  0  0  0  0  0
   58.8210   28.9850   47.8270 F   0  0  0  0  0  0  0  0  0  0  0  0
   58.7450   32.2900   50.7130 C   0  0  0  0  0  0  0  0  0  0  0  0
   56.1880   30.2543   54.0384 H   0  0  0  0  0  0  0  0  0  0  0  0
   55.0685   29.0146   53.3777 H   0  0  0  0  0  0  0  0  0  0  0  0
   56.8399   28.7164   53.3777 H   0  0  0  0  0  0  0  0  0  0  0  0
   57.3061   31.9636   53.7747 H   0  0  0  0  0  0  0  0  0  0  0  0
   58.3726   34.1816   54.0148 H   0  0  0  0  0  0  0  0  0  0  0  0
   59.6722   35.2032   52.1631 H   0  0  0  0  0  0  0  0  0  0  0  0
   59.6333   35.0082   49.2855 H   0  0  0  0  0  0  0  0  0  0  0  0
   61.1453   34.4059   49.9755 H   0  0  0  0  0  0  0  0  0  0  0  0
   61.1733   32.6241   48.5000 H   0  0  0  0  0  0  0  0  0  0  0  0
   59.4937   32.1762   48.9309 H   0  0  0  0  0  0  0  0  0  0  0  0
   59.9388   36.4412   45.6238 H   0  0  0  0  0  0  0  0  0  0  0  0
   58.4924   35.1185   44.0313 H   0  0  0  0  0  0  0  0  0  0  0  0
   57.8441   32.8034   44.6311 H   0  0  0  0  0  0  0  0  0  0  0  0
   55.9514   29.8572   43.6450 H   0  0  0  0  0  0  0  0  0  0  0  0
   56.2190   27.5780   44.5260 H   0  0  0  0  0  0  0  0  0  0  0  0
   57.3398   23.8802   45.0545 H   0  0  0  0  0  0  0  0  0  0  0  0
   55.9725   24.6692   44.1973 H   0  0  0  0  0  0  0  0  0  0  0  0
   57.5960   25.4378   44.1973 H   0  0  0  0  0  0  0  0  0  0  0  0
   58.8446   31.7354   49.7683 H   0  0  0  0  0  0  0  0  0  0  0  0
  1  2  1  0
  2  3  1  0
  3  4  2  0
  3  5  1  0
  5  6  2  0
  6  7  1  0
  7  8  2  0
  8  9  1  0
  9 10  1  0
 10 11  1  0
 11 12  1  0
 12 13  2  0
 13 14  1  0
 14 15  2  0
 15 16  1  0
 16 17  2  0
 17 18  1  0
 18 19  1  0
 19 20  1  0
 20 21  2  0
 21 22  1  0
 22 23  1  0
 23 24  2  0
 24 25  1  0
 25 26  1  0
 25 27  2  0
 25 28  2  0
 23 29  1  0
 29 30  1  0
  9 31  2  0
 31  5  1  0
 17 12  1  0
 29 19  2  0
  1 32  1  0
  1 33  1  0
  1 34  1  0
  6 35  1  0
  7 36  1  0
  8 37  1  0
 10 38  1  0
 10 39  1  0
 11 40  1  0
 11 41  1  0
 14 42  1  0
 15 43  1  0
 16 44  1  0
 21 45  1  0
 22 46  1  0
 26 47  1  0
 26 48  1  0
 26 49  1  0
 31 50  1  0
M  END
>  <smiles>  (66) 
COC(=O)c1cccc(CCc2ncccc2Oc2nc[nH]c(=NS(C)(=O)=O)c2F)c1

>  <score_type>  (66) 
oracle

>  <origin>  (66) 
adg

>  <m_score__min__energy>  (66) 
-9.2899999999999991

>  <m_primary>  (66) 
energy

$$$$
66:0
     RDKit          3D

 56 59  0  0  0  0  0  0  0  0999 V2000
   60.8000   27.7560   46.1790 O   0  0  0  0  0  0  0  0  0  0  0  0
   59.8640   27.9090   47.0080 C   0  0  0  0  0  0  0  0  0  0  0  0
   60.1410   28.5820   48.2440 N   0  0  0  0  0  0  0  0  0  0  0  0
   59.6750   29.8950   48.6000 C   0  0  0  0  0  0  0  0  0  0  0  0
   58.9390   30.1230   49.7780 C   0  0  0  0  0  0  0  0  0  0  0  0
   58.5120   31.4140   50.1010 C   0  0  0  0  0  0  0  0  0  0  0  0
   58.8200   32.4860   49.2600 C   0  0  0  0  0  0  0  0  0  0  0  0
   59.5690   32.2740   48.0930 C   0  0  0  0  0  0  0  0  0  0  0  0
   59.9460   33.6260   47.0250 S   0  0  0  0  0  0  0  0  0  0  0  0
   59.2860   34.8710   47.5540 O   0  0  0  0  0  0  0  0  0  0  0  0
   61.4330   33.8550   47.0410 O   0  0  0  0  0  0  0  0  0  0  0  0
   59.4280   33.3510   45.3750 N   0  0  0  0  0  0  0  0  0  0  0  0
   58.5450   34.4210   44.8690 C   0  0  0  0  0  0  0  0  0  0  0  0
   57.0700   34.2380   45.2920 C   0  0  0  0  0  0  0  0  0  0  0  0
   56.8090   32.9810   45.8900 O   0  0  0  0  0  0  0  0  0  0  0  0
   57.3570   31.9570   45.0920 C   0  0  0  0  0  0  0  0  0  0  0  0
   58.8910   31.9900   45.1620 C   0  0  0  0  0  0  0  0  0  0  0  0
   59.9970   30.9760   47.7710 C   0  0  0  0  0  0  0  0  0  0  0  0
   58.5070   27.4240   46.6730 C   0  0  0  0  0  0  0  0  0  0  0  0
   57.9920   26.2660   47.2810 C   0  0  0  0  0  0  0  0  0  0  0  0
   56.7150   25.8030   46.9500 C   0  0  0  0  0  0  0  0  0  0  0  0
   55.9460   26.4760   45.9960 C   0  0  0  0  0  0  0  0  0  0  0  0
   54.6550   25.9610   45.6550 N   0  0  0  0  0  0  0  0  0  0  0  0
   54.3590   24.2800   45.3560 S   0  0  0  0  0  0  0  0  0  0  0  0
   53.4380   23.7570   46.4230 O   0  0  0  0  0  0  0  0  0  0  0  0
   53.6980   24.0780   44.0210 O   0  0  0  0  0  0  0  0  0  0  0  0
   55.8940   23.4160   45.4070 C   0  0  0  0  0  0  0  0  0  0  0  0
   56.8430   23.6200   44.3930 C   0  0  0  0  0  0  0  0  0  0  0  0
   58.0870   22.9770   44.4500 C   0  0  0  0  0  0  0  0  0  0  0  0
   58.3870   22.1270   45.5240 C   0  0  0  0  0  0  0  0  0  0  0  0
   59.6270   21.4900   45.5940 O   0  0  0  0  0  0  0  0  0  0  0  0
   57.4370   21.9190   46.5370 C   0  0  0  0  0  0  0  0  0  0  0  0
   57.7260   21.0750   47.6040 O   0  0  0  0  0  0  0  0  0  0  0  0
   56.1960   22.5620   46.4790 C   0  0  0  0  0  0  0  0  0  0  0  0
   56.4430   27.6490   45.4090 C   0  0  0  0  0  0  0  0  0  0  0  0
   57.7120   28.1240   45.7520 C   0  0  0  0  0  0  0  0  0  0  0  0
   58.6992   29.2828   50.4462 H   0  0  0  0  0  0  0  0  0  0  0  0
   57.9320   31.5863   51.0197 H   0  0  0  0  0  0  0  0  0  0  0  0
   58.4743   33.4990   49.5135 H   0  0  0  0  0  0  0  0  0  0  0  0
   58.9041   35.3851   45.2583 H   0  0  0  0  0  0  0  0  0  0  0  0
   58.5790   34.3831   43.7702 H   0  0  0  0  0  0  0  0  0  0  0  0
   56.8135   35.0276   46.0136 H   0  0  0  0  0  0  0  0  0  0  0  0
   56.4602   34.2963   44.3784 H   0  0  0  0  0  0  0  0  0  0  0  0
   56.9980   30.9826   45.4550 H   0  0  0  0  0  0  0  0  0  0  0  0
   57.0430   32.1094   44.0488 H   0  0  0  0  0  0  0  0  0  0  0  0
   59.2183   31.3493   45.9941 H   0  0  0  0  0  0  0  0  0  0  0  0
   59.2734   31.6318   44.1948 H   0  0  0  0  0  0  0  0  0  0  0  0
   60.5901   30.8073   46.8601 H   0  0  0  0  0  0  0  0  0  0  0  0
   58.5968   25.7213   48.0210 H   0  0  0  0  0  0  0  0  0  0  0  0
   56.3135   24.9051   47.4425 H   0  0  0  0  0  0  0  0  0  0  0  0
   56.6093   24.2872   43.5503 H   0  0  0  0  0  0  0  0  0  0  0  0
   58.8274   23.1390   43.6528 H   0  0  0  0  0  0  0  0  0  0  0  0
   59.7060   20.4760   45.6340 H   0  0  0  0  0  0  0  0  0  0  0  0
   55.4552   22.3979   47.2754 H   0  0  0  0  0  0  0  0  0  0  0  0
   55.8321   28.1968   44.6764 H   0  0  0  0  0  0  0  0  0  0  0  0
   58.0899   29.0517   45.2976 H   0  0  0  0  0  0  0  0  0  0  0  0
  1  2  2  0
  2  3  1  0
  3  4  1  0
  4  5  2  0
  5  6  1  0
  6  7  2  0
  7  8  1  0
  8  9  1  0
  9 10  2  0
  9 11  2  0
  9 12  1  0
 12 13  1  0
 13 14  1  0
 14 15  1  0
 15 16  1  0
 16 17  1  0
  8 18  2  0
  2 19  1  0
 19 20  2  0
 20 21  1  0
 21 22  2  0
 22 23  1  0
 23 24  1  0
 24 25  2  0
 24 26  2  0
 24 27  1  0
 27 28  2  0
 28 29  1  0
 29 30  2  0
 30 31  1  0
 30 32  1  0
 32 33  1  0
 32 34  2  0
 22 35  1  0
 35 36  2  0
 18  4  1  0
 36 19  1  0
 17 12  1  0
 34 27  1  0
  5 37  1  0
  6 38  1  0
  7 39  1  0
 13 40  1  0
 13 41  1  0
 14 42  1  0
 14 43  1  0
 16 44  1  0
 16 45  1  0
 17 46  1  0
 17 47  1  0
 18 48  1  0
 20 49  1  0
 21 50  1  0
 28 51  1  0
 29 52  1  0
 31 53  1  0
 34 54  1  0
 35 55  1  0
 36 56  1  0
M  CHG  3   3  -1  23  -1  33  -1
M  END
>  <UniqueID>  (67) 
64

>  <SMILES>  (67) 
O=C([N-]c1cccc(S(=O)(=O)N2CCOCC2)c1)c1ccc([N-]S(=O)(=O)c2ccc(O)c([O-])c2)cc1

>  <Energy>  (67) 
83.92087177586991

>  <Genealogy>  (67) 
O=C([N-]c1cccc(S(=O)(=O)N2CCOCC2)c1)c1ccc([N-]S(=O)(=O)c2ccc(O)c([O-])c2)cc1 (protonated)
O=C([N-]c1cccc(S(=O)(=O)N2CCOCC2)c1)c1ccc([N-]S(=O)(=O)c2ccc(O)c([O-])c2)cc1 (3D coordinates assigned)
O=C([N-]c1cccc(S(=O)(=O)N2CCOCC2)c1)c1ccc([N-]S(=O)(=O)c2ccc(O)c([O-])c2)cc1 (nonaromatic ring conformer: 83.92087177586991 kcal/mol)

>  <smiles>  (67) 
O=C(Nc1cccc(S(=O)(=O)N2CCOCC2)c1)c1ccc(NS(=O)(=O)c2ccc(O)c(O)c2)cc1

>  <score_type>  (67) 
oracle

>  <origin>  (67) 
adg

>  <m_score__min__energy>  (67) 
-16.760000000000002

>  <m_primary>  (67) 
energy

$$$$
67:0
     RDKit          3D

 60 62  0  0  0  0  0  0  0  0999 V2000
   64.1140   31.6860   50.2200 C   0  0  0  0  0  0  0  0  0  0  0  0
   63.4120   32.4210   49.1220 C   0  0  0  0  0  0  0  0  0  0  0  0
   64.0410   33.0090   48.0870 N   0  0  0  0  0  0  0  0  0  0  0  0
   63.0900   33.5520   47.3010 C   0  0  0  0  0  0  0  0  0  0  0  0
   63.3970   34.2090   45.9940 C   0  0  0  0  0  0  0  0  0  0  0  0
   61.8300   33.3060   47.8370 C   0  0  0  0  0  0  0  0  0  0  0  0
   60.2570   33.6020   47.0850 S   0  0  0  0  0  0  0  0  0  0  0  0
   59.6040   34.7800   47.7480 O   0  0  0  0  0  0  0  0  0  0  0  0
   60.3880   33.9100   45.6200 O   0  0  0  0  0  0  0  0  0  0  0  0
   59.2560   32.2050   47.3260 N   0  0  0  0  0  0  0  0  0  0  0  0
   58.5700   31.4970   46.2840 C   0  0  0  0  0  0  0  0  0  0  0  0
   58.6730   30.0990   46.1590 C   0  0  0  0  0  0  0  0  0  0  0  0
   58.0310   29.4080   45.1030 C   0  0  0  0  0  0  0  0  0  0  0  0
   58.1510   27.8810   44.9050 C   0  0  0  0  0  0  0  0  0  0  0  0
   59.4970   27.3980   45.4900 C   0  0  0  0  0  0  0  0  0  0  0  0
   58.0950   27.4490   43.4190 C   0  0  0  0  0  0  0  0  0  0  0  0
   56.9880   27.1680   45.6360 C   0  0  0  0  0  0  0  0  0  0  0  0
   57.2450   30.1630   44.2050 C   0  0  0  0  0  0  0  0  0  0  0  0
   57.1470   31.5500   44.3240 C   0  0  0  0  0  0  0  0  0  0  0  0
   57.8140   32.2220   45.3480 C   0  0  0  0  0  0  0  0  0  0  0  0
   57.6980   33.6120   45.4260 O   0  0  0  0  0  0  0  0  0  0  0  0
   62.0440   32.5850   49.0040 C   0  0  0  0  0  0  0  0  0  0  0  0
   61.0230   32.0560   49.9230 C   0  0  0  0  0  0  0  0  0  0  0  0
   60.4160   32.8590   50.6810 O   0  0  0  0  0  0  0  0  0  0  0  0
   60.6750   30.6570   49.9190 N   0  0  0  0  0  0  0  0  0  0  0  0
   59.9430   30.0810   51.0580 C   0  0  0  0  0  0  0  0  0  0  0  0
   60.4300   28.6520   51.3620 C   0  0  0  0  0  0  0  0  0  0  0  0
   60.7440   27.8140   50.1030 C   0  0  0  0  0  0  0  0  0  0  0  0
   60.2460   28.4680   48.8110 C   0  0  0  0  0  0  0  0  0  0  0  0
   60.8230   29.8830   48.6740 C   0  0  0  0  0  0  0  0  0  0  0  0
   63.7604   32.0563   51.1936 H   0  0  0  0  0  0  0  0  0  0  0  0
   63.8994   30.6104   50.1368 H   0  0  0  0  0  0  0  0  0  0  0  0
   65.1984   31.8510   50.1368 H   0  0  0  0  0  0  0  0  0  0  0  0
   65.0700   33.0160   47.9100 H   0  0  0  0  0  0  0  0  0  0  0  0
   63.8562   35.1918   46.1766 H   0  0  0  0  0  0  0  0  0  0  0  0
   64.0941   33.5792   45.4218 H   0  0  0  0  0  0  0  0  0  0  0  0
   62.4667   34.3396   45.4218 H   0  0  0  0  0  0  0  0  0  0  0  0
   59.2629   29.5329   46.8949 H   0  0  0  0  0  0  0  0  0  0  0  0
   59.4468   27.4160   46.5887 H   0  0  0  0  0  0  0  0  0  0  0  0
   59.6979   26.3717   45.1489 H   0  0  0  0  0  0  0  0  0  0  0  0
   60.3046   28.0624   45.1489 H   0  0  0  0  0  0  0  0  0  0  0  0
   57.9538   26.3598   43.3589 H   0  0  0  0  0  0  0  0  0  0  0  0
   57.2550   27.9556   42.9213 H   0  0  0  0  0  0  0  0  0  0  0  0
   59.0364   27.7247   42.9213 H   0  0  0  0  0  0  0  0  0  0  0  0
   57.1301   27.2551   46.7233 H   0  0  0  0  0  0  0  0  0  0  0  0
   56.0342   27.6368   45.3521 H   0  0  0  0  0  0  0  0  0  0  0  0
   56.9731   26.1054   45.3521 H   0  0  0  0  0  0  0  0  0  0  0  0
   56.7011   29.6494   43.3985 H   0  0  0  0  0  0  0  0  0  0  0  0
   56.5388   32.1178   43.6044 H   0  0  0  0  0  0  0  0  0  0  0  0
   58.2820   34.1740   46.0380 H   0  0  0  0  0  0  0  0  0  0  0  0
   60.1035   30.7119   51.9447 H   0  0  0  0  0  0  0  0  0  0  0  0
   58.8739   30.0397   50.8024 H   0  0  0  0  0  0  0  0  0  0  0  0
   61.3447   28.7202   51.9691 H   0  0  0  0  0  0  0  0  0  0  0  0
   59.6097   28.1414   51.8877 H   0  0  0  0  0  0  0  0  0  0  0  0
   61.8338   27.6824   50.0321 H   0  0  0  0  0  0  0  0  0  0  0  0
   60.2209   26.8521   50.2084 H   0  0  0  0  0  0  0  0  0  0  0  0
   60.5649   27.8612   47.9508 H   0  0  0  0  0  0  0  0  0  0  0  0
   59.1482   28.5306   48.8416 H   0  0  0  0  0  0  0  0  0  0  0  0
   61.8920   29.8091   48.4256 H   0  0  0  0  0  0  0  0  0  0  0  0
   60.2677   30.4034   47.8797 H   0  0  0  0  0  0  0  0  0  0  0  0
  1  2  1  0
  2  3  1  0
  3  4  1  0
  4  5  1  0
  4  6  2  0
  6  7  1  0
  7  8  2  0
  7  9  2  0
  7 10  1  0
 10 11  1  0
 11 12  2  0
 12 13  1  0
 13 14  1  0
 14 15  1  0
 14 16  1  0
 14 17  1  0
 13 18  2  0
 18 19  1  0
 19 20  2  0
 20 21  1  0
  6 22  1  0
 22 23  1  0
 23 24  2  0
 23 25  1  0
 25 26  1  0
 26 27  1  0
 27 28  1  0
 28 29  1  0
 29 30  1  0
 22  2  2  0
 30 25  1  0
 20 11  1  0
  1 31  1  0
  1 32  1  0
  1 33  1  0
  3 34  1  0
  5 35  1  0
  5 36  1  0
  5 37  1  0
 12 38  1  0
 15 39  1  0
 15 40  1  0
 15 41  1  0
 16 42  1  0
 16 43  1  0
 16 44  1  0
 17 45  1  0
 17 46  1  0
 17 47  1  0
 18 48  1  0
 19 49  1  0
 21 50  1  0
 26 51  1  0
 26 52  1  0
 27 53  1  0
 27 54  1  0
 28 55  1  0
 28 56  1  0
 29 57  1  0
 29 58  1  0
 30 59  1  0
 30 60  1  0
M  CHG  1  10  -1
M  END
>  <UniqueID>  (68) 
65

>  <SMILES>  (68) 
Cc1[nH]c(C)c(S(=O)(=O)[N-]c2cc(C(C)(C)C)ccc2O)c1C(=O)N1CCCCC1

>  <Energy>  (68) 
97.47757657605129

>  <Genealogy>  (68) 
Cc1[nH]c(C)c(S(=O)(=O)[N-]c2cc(C(C)(C)C)ccc2O)c1C(=O)N1CCCCC1 (protonated)
Cc1[nH]c(C)c(S(=O)(=O)[N-]c2cc(C(C)(C)C)ccc2O)c1C(=O)N1CCCCC1 (3D coordinates assigned)
Cc1[nH]c(C)c(S(=O)(=O)[N-]c2cc(C(C)(C)C)ccc2O)c1C(=O)N1CCCCC1 (nonaromatic ring conformer: 97.47757657605129 kcal/mol)

>  <smiles>  (68) 
Cc1[nH]c(C)c(S(=O)(=O)Nc2cc(C(C)(C)C)ccc2O)c1C(=O)N1CCCCC1

>  <score_type>  (68) 
oracle

>  <origin>  (68) 
adg

>  <m_score__min__energy>  (68) 
-9.9900000000000002

>  <m_primary>  (68) 
energy

$$$$
68:0
     RDKit          3D

 38 40  0  0  0  0  0  0  0  0999 V2000
   59.3200   29.1650   45.2370 O   0  0  0  0  0  0  0  0  0  0  0  0
   58.0980   29.2690   45.5270 C   0  0  0  0  0  0  0  0  0  0  0  0
   57.4730   30.5630   45.5660 N   0  0  0  0  0  0  0  0  0  0  0  0
   58.2010   31.7990   45.6730 C   0  0  0  0  0  0  0  0  0  0  0  0
   58.1430   32.7240   44.6200 C   0  0  0  0  0  0  0  0  0  0  0  0
   58.8260   33.9400   44.7100 C   0  0  0  0  0  0  0  0  0  0  0  0
   59.5590   34.2510   45.8570 C   0  0  0  0  0  0  0  0  0  0  0  0
   59.6030   33.3490   46.9280 C   0  0  0  0  0  0  0  0  0  0  0  0
   60.5040   33.7410   48.3900 S   0  0  0  0  0  0  0  0  0  0  0  0
   60.5430   32.5460   49.3020 O   0  0  0  0  0  0  0  0  0  0  0  0
   59.8030   34.8720   49.0900 O   0  0  0  0  0  0  0  0  0  0  0  0
   62.1340   34.2240   47.9720 N   0  0  0  0  0  0  0  0  0  0  0  0
   62.5940   33.5040   46.7770 C   0  0  0  0  0  0  0  0  0  0  0  0
   63.3610   32.2710   47.2340 C   0  0  0  0  0  0  0  0  0  0  0  0
   63.6540   32.4900   48.7050 C   0  0  0  0  0  0  0  0  0  0  0  0
   63.0700   33.8550   49.0380 C   0  0  0  0  0  0  0  0  0  0  0  0
   58.9240   32.1260   46.8350 C   0  0  0  0  0  0  0  0  0  0  0  0
   57.3190   28.0440   45.7800 C   0  0  0  0  0  0  0  0  0  0  0  0
   57.8320   26.8210   46.1830 C   0  0  0  0  0  0  0  0  0  0  0  0
   56.7580   25.9650   46.2810 C   0  0  0  0  0  0  0  0  0  0  0  0
   55.6560   26.7110   45.9290 C   0  0  0  0  0  0  0  0  0  0  0  0
   54.3550   26.2280   45.8910 O   0  0  0  0  0  0  0  0  0  0  0  0
   55.9810   27.9800   45.6190 N   0  0  0  0  0  0  0  0  0  0  0  0
   56.4420   30.6180   45.4090 H   0  0  0  0  0  0  0  0  0  0  0  0
   57.5569   32.4911   43.7188 H   0  0  0  0  0  0  0  0  0  0  0  0
   58.7860   34.6544   43.8745 H   0  0  0  0  0  0  0  0  0  0  0  0
   60.1025   35.2053   45.9197 H   0  0  0  0  0  0  0  0  0  0  0  0
   61.7293   33.2009   46.1684 H   0  0  0  0  0  0  0  0  0  0  0  0
   63.2415   34.1515   46.1676 H   0  0  0  0  0  0  0  0  0  0  0  0
   62.7504   31.3666   47.0954 H   0  0  0  0  0  0  0  0  0  0  0  0
   64.2846   32.1299   46.6534 H   0  0  0  0  0  0  0  0  0  0  0  0
   63.1748   31.7084   49.3128 H   0  0  0  0  0  0  0  0  0  0  0  0
   64.7325   32.4452   48.9170 H   0  0  0  0  0  0  0  0  0  0  0  0
   62.5391   33.8084   50.0003 H   0  0  0  0  0  0  0  0  0  0  0  0
   63.8724   34.6034   49.1156 H   0  0  0  0  0  0  0  0  0  0  0  0
   58.9567   31.4175   47.6758 H   0  0  0  0  0  0  0  0  0  0  0  0
   58.8867   26.5820   46.3843 H   0  0  0  0  0  0  0  0  0  0  0  0
   56.7767   24.9061   46.5785 H   0  0  0  0  0  0  0  0  0  0  0  0
  1  2  2  0
  2  3  1  0
  3  4  1  0
  4  5  2  0
  5  6  1  0
  6  7  2  0
  7  8  1  0
  8  9  1  0
  9 10  2  0
  9 11  2  0
  9 12  1  0
 12 13  1  0
 13 14  1  0
 14 15  1  0
 15 16  1  0
  8 17  2  0
  2 18  1  0
 18 19  2  0
 19 20  1  0
 20 21  2  0
 21 22  1  0
 21 23  1  0
 17  4  1  0
 23 18  1  0
 16 12  1  0
  3 24  1  0
  5 25  1  0
  6 26  1  0
  7 27  1  0
 13 28  1  0
 13 29  1  0
 14 30  1  0
 14 31  1  0
 15 32  1  0
 15 33  1  0
 16 34  1  0
 16 35  1  0
 17 36  1  0
 19 37  1  0
 20 38  1  0
M  CHG  2  22  -1  23  -1
M  END
>  <UniqueID>  (69) 
66

>  <SMILES>  (69) 
O=C(Nc1cccc(S(=O)(=O)N2CCCC2)c1)c1ccc([O-])[n-]1

>  <Energy>  (69) 
68.28677433251536

>  <Genealogy>  (69) 
O=C(Nc1cccc(S(=O)(=O)N2CCCC2)c1)c1ccc([O-])[n-]1 (protonated)
O=C(Nc1cccc(S(=O)(=O)N2CCCC2)c1)c1ccc([O-])[n-]1 (3D coordinates assigned)
O=C(Nc1cccc(S(=O)(=O)N2CCCC2)c1)c1ccc([O-])[n-]1 (nonaromatic ring conformer: 68.28677433251536 kcal/mol)

>  <smiles>  (69) 
O=C(Nc1cccc(S(=O)(=O)N2CCCC2)c1)c1ccc(O)[nH]1

>  <score_type>  (69) 
oracle

>  <origin>  (69) 
adg

>  <m_score__min__energy>  (69) 
-13.84

>  <m_primary>  (69) 
energy

$$$$
69:0
     RDKit          3D

 85 89  0  0  0  0  0  0  0  0999 V2000
   66.4930   33.3210   50.5170 C   0  0  0  0  0  0  0  0  0  0  0  0
   67.1480   31.9340   50.5380 C   0  0  0  0  0  0  0  0  0  0  0  0
   66.5640   31.0420   51.5720 N   0  0  0  0  0  0  0  0  0  0  0  0
   67.5290   29.9770   51.9870 C   0  0  0  0  0  0  0  0  0  0  0  0
   67.2020   28.6260   51.3470 C   0  0  0  0  0  0  0  0  0  0  0  0
   66.1460   31.8620   52.7400 C   0  0  0  0  0  0  0  0  0  0  0  0
   64.6800   31.6870   53.0600 C   0  0  0  0  0  0  0  0  0  0  0  0
   63.8910   30.8160   52.4940 N   0  0  0  0  0  0  0  0  0  0  0  0
   63.4550   30.7490   51.1250 C   0  0  0  0  0  0  0  0  0  0  0  0
   64.0010   31.4530   50.2370 O   0  0  0  0  0  0  0  0  0  0  0  0
   62.3260   29.8640   50.7690 C   0  0  0  0  0  0  0  0  0  0  0  0
   62.1020   28.5820   51.2560 C   0  0  0  0  0  0  0  0  0  0  0  0
   62.9670   27.8310   52.2210 C   0  0  0  0  0  0  0  0  0  0  0  0
   60.9460   28.0940   50.7740 N   0  0  0  0  0  0  0  0  0  0  0  0
   60.4160   29.0360   49.9720 C   0  0  0  0  0  0  0  0  0  0  0  0
   59.0500   28.8940   49.3570 C   0  0  0  0  0  0  0  0  0  0  0  0
   59.1060   27.9780   48.1700 C   0  0  0  0  0  0  0  0  0  0  0  0
   59.5510   26.6610   48.1470 C   0  0  0  0  0  0  0  0  0  0  0  0
   60.0890   25.9880   49.2370 O   0  0  0  0  0  0  0  0  0  0  0  0
   59.4080   26.0890   46.9290 N   0  0  0  0  0  0  0  0  0  0  0  0
   58.8610   27.0620   46.1750 C   0  0  0  0  0  0  0  0  0  0  0  0
   58.5210   26.9700   44.8270 C   0  0  0  0  0  0  0  0  0  0  0  0
   57.9780   28.1060   44.2030 C   0  0  0  0  0  0  0  0  0  0  0  0
   57.7970   29.3090   44.9280 C   0  0  0  0  0  0  0  0  0  0  0  0
   57.1320   30.7320   44.1310 S   0  0  0  0  0  0  0  0  0  0  0  0
   57.0700   30.4710   42.6510 O   0  0  0  0  0  0  0  0  0  0  0  0
   55.7250   30.9420   44.6170 O   0  0  0  0  0  0  0  0  0  0  0  0
   58.0610   32.1900   44.4160 N   0  0  0  0  0  0  0  0  0  0  0  0
   59.2600   31.9820   45.2480 C   0  0  0  0  0  0  0  0  0  0  0  0
   59.0010   32.1690   46.7540 C   0  0  0  0  0  0  0  0  0  0  0  0
   58.2780   33.4150   47.0660 N   0  0  0  0  0  0  0  0  0  0  0  0
   59.1040   34.6350   46.9230 C   0  0  0  0  0  0  0  0  0  0  0  0
   60.5250   34.3630   47.3390 C   0  0  0  0  0  0  0  0  0  0  0  0
   61.4770   33.9330   46.3990 C   0  0  0  0  0  0  0  0  0  0  0  0
   62.7920   33.6710   46.7990 C   0  0  0  0  0  0  0  0  0  0  0  0
   63.1640   33.8340   48.1360 C   0  0  0  0  0  0  0  0  0  0  0  0
   62.2230   34.2590   49.0760 C   0  0  0  0  0  0  0  0  0  0  0  0
   60.9070   34.5220   48.6830 C   0  0  0  0  0  0  0  0  0  0  0  0
   57.0210   33.4910   46.3020 C   0  0  0  0  0  0  0  0  0  0  0  0
   57.2450   33.3610   44.7860 C   0  0  0  0  0  0  0  0  0  0  0  0
   58.1220   29.3610   46.2990 C   0  0  0  0  0  0  0  0  0  0  0  0
   58.6610   28.2180   46.8880 C   0  0  0  0  0  0  0  0  0  0  0  0
   61.2530   30.1480   49.9250 C   0  0  0  0  0  0  0  0  0  0  0  0
   60.9530   31.4640   49.2660 C   0  0  0  0  0  0  0  0  0  0  0  0
   66.3304   33.6654   51.5490 H   0  0  0  0  0  0  0  0  0  0  0  0
   67.1516   34.0296   49.9935 H   0  0  0  0  0  0  0  0  0  0  0  0
   65.5273   33.2626   49.9935 H   0  0  0  0  0  0  0  0  0  0  0  0
   67.0131   31.4657   49.5518 H   0  0  0  0  0  0  0  0  0  0  0  0
   68.2123   32.0719   50.7796 H   0  0  0  0  0  0  0  0  0  0  0  0
   65.7020   30.6140   51.1590 H   0  0  0  0  0  0  0  0  0  0  0  0
   68.5424   30.2780   51.6830 H   0  0  0  0  0  0  0  0  0  0  0  0
   67.4588   29.8616   53.0787 H   0  0  0  0  0  0  0  0  0  0  0  0
   67.0216   27.8807   52.1357 H   0  0  0  0  0  0  0  0  0  0  0  0
   66.3017   28.7244   50.7226 H   0  0  0  0  0  0  0  0  0  0  0  0
   68.0476   28.3018   50.7226 H   0  0  0  0  0  0  0  0  0  0  0  0
   66.7390   31.5603   53.6160 H   0  0  0  0  0  0  0  0  0  0  0  0
   66.3148   32.9198   52.4898 H   0  0  0  0  0  0  0  0  0  0  0  0
   64.2452   32.3435   53.8281 H   0  0  0  0  0  0  0  0  0  0  0  0
   62.6742   28.0852   53.2504 H   0  0  0  0  0  0  0  0  0  0  0  0
   62.8422   26.7499   52.0607 H   0  0  0  0  0  0  0  0  0  0  0  0
   64.0198   28.1063   52.0607 H   0  0  0  0  0  0  0  0  0  0  0  0
   60.5240   27.1660   51.0030 H   0  0  0  0  0  0  0  0  0  0  0  0
   58.3573   28.4785   50.1037 H   0  0  0  0  0  0  0  0  0  0  0  0
   58.7007   29.8841   49.0288 H   0  0  0  0  0  0  0  0  0  0  0  0
   58.6732   26.0353   44.2674 H   0  0  0  0  0  0  0  0  0  0  0  0
   57.6910   28.0604   43.1421 H   0  0  0  0  0  0  0  0  0  0  0  0
   59.6259   30.9580   45.0819 H   0  0  0  0  0  0  0  0  0  0  0  0
   59.9975   32.7415   44.9493 H   0  0  0  0  0  0  0  0  0  0  0  0
   58.4043   31.3183   47.1149 H   0  0  0  0  0  0  0  0  0  0  0  0
   59.9808   32.2251   47.2508 H   0  0  0  0  0  0  0  0  0  0  0  0
   59.0906   34.9598   45.8721 H   0  0  0  0  0  0  0  0  0  0  0  0
   58.6892   35.4225   47.5694 H   0  0  0  0  0  0  0  0  0  0  0  0
   61.1876   33.8020   45.3459 H   0  0  0  0  0  0  0  0  0  0  0  0
   63.5343   33.3361   46.0596 H   0  0  0  0  0  0  0  0  0  0  0  0
   64.1984   33.6275   48.4481 H   0  0  0  0  0  0  0  0  0  0  0  0
   62.5176   34.3872   50.1280 H   0  0  0  0  0  0  0  0  0  0  0  0
   60.1684   34.8542   49.4274 H   0  0  0  0  0  0  0  0  0  0  0  0
   56.3579   32.6776   46.6317 H   0  0  0  0  0  0  0  0  0  0  0  0
   56.5742   34.4783   46.4906 H   0  0  0  0  0  0  0  0  0  0  0  0
   56.2649   33.2731   44.2944 H   0  0  0  0  0  0  0  0  0  0  0  0
   57.7933   34.2569   44.4594 H   0  0  0  0  0  0  0  0  0  0  0  0
   57.9553   30.2760   46.8864 H   0  0  0  0  0  0  0  0  0  0  0  0
   60.7786   32.2289   50.0371 H   0  0  0  0  0  0  0  0  0  0  0  0
   61.8060   31.7631   48.6392 H   0  0  0  0  0  0  0  0  0  0  0  0
   60.0547   31.3638   48.6392 H   0  0  0  0  0  0  0  0  0  0  0  0
  1  2  1  0
  2  3  1  0
  3  4  1  0
  4  5  1  0
  3  6  1  0
  6  7  1  0
  7  8  2  3
  8  9  1  0
  9 10  2  0
  9 11  1  0
 11 12  2  0
 12 13  1  0
 12 14  1  0
 14 15  1  0
 15 16  1  0
 16 17  1  0
 17 18  2  0
 18 19  1  0
 18 20  1  0
 20 21  1  0
 21 22  2  0
 22 23  1  0
 23 24  2  0
 24 25  1  0
 25 26  2  0
 25 27  2  0
 25 28  1  0
 28 29  1  0
 29 30  1  0
 30 31  1  0
 31 32  1  0
 32 33  1  0
 33 34  2  0
 34 35  1  0
 35 36  2  0
 36 37  1  0
 37 38  2  0
 31 39  1  0
 39 40  1  0
 24 41  1  0
 41 42  2  0
 15 43  2  0
 43 44  1  0
 43 11  1  0
 42 17  1  0
 42 21  1  0
 40 28  1  0
 38 33  1  0
  1 45  1  0
  1 46  1  0
  1 47  1  0
  2 48  1  0
  2 49  1  0
  3 50  1  0
  4 51  1  0
  4 52  1  0
  5 53  1  0
  5 54  1  0
  5 55  1  0
  6 56  1  0
  6 57  1  0
  7 58  1  0
 13 59  1  0
 13 60  1  0
 13 61  1  0
 14 62  1  0
 16 63  1  0
 16 64  1  0
 22 65  1  0
 23 66  1  0
 29 67  1  0
 29 68  1  0
 30 69  1  0
 30 70  1  0
 32 71  1  0
 32 72  1  0
 34 73  1  0
 35 74  1  0
 36 75  1  0
 37 76  1  0
 38 77  1  0
 39 78  1  0
 39 79  1  0
 40 80  1  0
 40 81  1  0
 41 82  1  0
 44 83  1  0
 44 84  1  0
 44 85  1  0
M  CHG  3   3   1  19  -1  20  -1
M  END
>  <UniqueID>  (70) 
67

>  <SMILES>  (70) 
CC[NH+](CC)CC=NC(=O)c1c(C)[nH]c(Cc2c([O-])[n-]c3ccc(S(=O)(=O)N4CCN(Cc5ccccc5)CC4)cc23)c1C

>  <Energy>  (70) 
159.66213739251464

>  <Genealogy>  (70) 
CC[NH+](CC)CC=NC(=O)c1c(C)[nH]c(Cc2c([O-])[n-]c3ccc(S(=O)(=O)N4CCN(Cc5ccccc5)CC4)cc23)c1C (protonated)
CC[NH+](CC)CC=NC(=O)c1c(C)[nH]c(Cc2c([O-])[n-]c3ccc(S(=O)(=O)N4CCN(Cc5ccccc5)CC4)cc23)c1C (3D coordinates assigned)
CC[NH+](CC)CC=NC(=O)c1c(C)[nH]c(Cc2c([O-])[n-]c3ccc(S(=O)(=O)N4CCN(Cc5ccccc5)CC4)cc23)c1C (nonaromatic ring conformer: 159.66213739251464 kcal/mol)

>  <smiles>  (70) 
CCN(CC)CC=NC(=O)c1c(C)[nH]c(Cc2c(O)[nH]c3ccc(S(=O)(=O)N4CCN(Cc5ccccc5)CC4)cc23)c1C

>  <score_type>  (70) 
oracle

>  <origin>  (70) 
adg

>  <m_score__min__energy>  (70) 
-13.59

>  <m_primary>  (70) 
energy

$$$$
70:0
     RDKit          3D

 57 61  0  0  1  0  0  0  0  0999 V2000
   62.8460   34.1880   50.9810 C   0  0  0  0  0  0  0  0  0  0  0  0
   62.8350   33.9430   49.5150 C   0  0  0  0  0  0  0  0  0  0  0  0
   61.6780   34.1120   48.7470 C   0  0  0  0  0  0  0  0  0  0  0  0
   61.6860   33.8780   47.3870 C   0  0  0  0  0  0  0  0  0  0  0  0
   60.4940   34.0470   46.5520 C   0  0  0  0  0  0  0  0  0  0  0  0
   60.0400   35.2020   46.0130 N   0  0  0  0  0  0  0  0  0  0  0  0
   58.9350   35.0000   45.3120 N   0  0  0  0  0  0  0  0  0  0  0  0
   58.6110   33.7120   45.3540 C   0  0  0  0  0  0  0  0  0  0  0  0
   57.5850   32.9210   44.8250 C   0  0  0  0  0  0  0  0  0  0  0  0
   57.5690   31.5590   45.0900 C   0  0  0  0  0  0  0  0  0  0  0  0
   56.6260   30.8480   44.6010 N   0  0  0  0  0  0  0  0  0  0  0  0
   56.7710   29.4230   44.4330 C   0  0  0  0  0  0  0  0  0  0  0  0
   55.8920   28.6190   44.8770 O   0  0  0  0  0  0  0  0  0  0  0  0
   57.9250   28.9110   43.7530 N   0  0  0  0  0  0  0  0  0  0  0  0
   58.1200   27.4940   43.5590 C   0  0  0  0  0  0  0  0  0  0  0  0
   57.7800   26.6820   44.7610 C   0  0  0  0  0  0  0  0  0  0  0  0
   58.1130   26.8850   46.0780 C   0  0  0  0  0  0  0  0  0  0  0  0
   57.5890   25.9060   46.8090 N   0  0  0  0  0  0  0  0  0  0  0  0
   56.9180   25.0500   46.0410 N   0  0  0  0  0  0  0  0  0  0  0  0
   56.2670   23.9150   46.5800 C   0  0  0  0  0  0  0  0  0  0  0  0
   56.9880   23.1150   47.2740 O   0  0  0  0  0  0  0  0  0  0  0  0
   54.9110   23.5610   46.4410 N   0  0  0  0  0  0  0  0  0  0  0  0
   53.9220   24.3020   45.6950 C   0  0  0  0  0  0  0  0  0  0  0  0
   52.5710   23.6020   45.6430 C   0  0  0  0  0  0  0  0  0  0  0  0
   52.7660   22.2530   45.4060 O   0  0  0  0  0  0  0  0  0  0  0  0
   53.2450   21.7190   46.6000 C   0  0  0  0  0  0  0  0  0  0  0  0
   54.4770   22.3470   47.1190 C   0  0  0  0  0  0  0  0  0  0  0  0
   57.0190   25.5020   44.7890 C   0  0  0  0  0  0  0  0  0  0  0  0
   58.5360   30.9950   45.8530 N   0  0  0  0  0  0  0  0  0  0  0  0
   59.5240   31.7390   46.3660 C   0  0  0  0  0  0  0  0  0  0  0  0
   59.5870   33.0850   46.1360 C   0  0  0  0  0  0  0  0  0  0  0  0
   62.9030   33.4700   46.8290 C   0  0  0  0  0  0  0  0  0  0  0  0
   64.0280   33.3080   47.5870 C   0  0  0  0  0  0  0  0  0  0  0  0
   63.9920   33.5440   48.9240 N   0  0  0  0  0  0  0  0  0  0  0  0
   62.8028   33.2266   51.5138 H   0  0  0  0  0  0  0  0  0  0  0  0
   63.7689   34.7191   51.2571 H   0  0  0  0  0  0  0  0  0  0  0  0
   61.9744   34.7997   51.2571 H   0  0  0  0  0  0  0  0  0  0  0  0
   60.7471   34.4366   49.2349 H   0  0  0  0  0  0  0  0  0  0  0  0
   58.4070   35.7450   44.8060 H   0  0  0  0  0  0  0  0  0  0  0  0
   56.7982   33.3749   44.2046 H   0  0  0  0  0  0  0  0  0  0  0  0
   58.6050   29.6360   43.4160 H   0  0  0  0  0  0  0  0  0  0  0  0
   57.4837   27.1651   42.7242 H   0  0  0  0  0  0  0  0  0  0  0  0
   59.1890   27.3377   43.3521 H   0  0  0  0  0  0  0  0  0  0  0  0
   58.7147   27.7208   46.4646 H   0  0  0  0  0  0  0  0  0  0  0  0
   53.7894   25.2857   46.1690 H   0  0  0  0  0  0  0  0  0  0  0  0
   54.2872   24.3912   44.6612 H   0  0  0  0  0  0  0  0  0  0  0  0
   52.0504   23.7354   46.6028 H   0  0  0  0  0  0  0  0  0  0  0  0
   51.9617   24.0346   44.8358 H   0  0  0  0  0  0  0  0  0  0  0  0
   52.4594   21.8297   47.3619 H   0  0  0  0  0  0  0  0  0  0  0  0
   53.5030   20.6716   46.3847 H   0  0  0  0  0  0  0  0  0  0  0  0
   54.3079   22.5950   48.1773 H   0  0  0  0  0  0  0  0  0  0  0  0
   55.2776   21.6117   46.9505 H   0  0  0  0  0  0  0  0  0  0  0  0
   56.5712   25.0202   43.9073 H   0  0  0  0  0  0  0  0  0  0  0  0
   58.5160   29.9880   46.0430 H   0  0  0  0  0  0  0  0  0  0  0  0
   60.2980   31.2590   46.9829 H   0  0  0  0  0  0  0  0  0  0  0  0
   62.9552   33.2739   45.7479 H   0  0  0  0  0  0  0  0  0  0  0  0
   64.9665   32.9852   47.1127 H   0  0  0  0  0  0  0  0  0  0  0  0
  1  2  1  0
  2  3  2  0
  3  4  1  0
  4  5  1  0
  5  6  2  0
  6  7  1  0
  7  8  1  0
  8  9  2  0
  9 10  1  0
 10 11  2  0
 11 12  1  0
 12 13  2  0
 12 14  1  0
 14 15  1  0
 15 16  1  0
 16 17  1  0
 17 18  2  0
 18 19  1  0
 19 20  1  0
 20 21  2  0
 20 22  1  0
 22 23  1  0
 23 24  1  0
 24 25  1  0
 25 26  1  0
 26 27  1  0
 19 28  1  0
 10 29  1  0
 29 30  1  0
 30 31  2  0
  4 32  2  0
 32 33  1  0
 33 34  2  0
 34  2  1  0
 31  5  1  0
 31  8  1  0
 28 16  2  0
 27 22  1  0
  1 35  1  0
  1 36  1  0
  1 37  1  0
  3 38  1  0
  7 39  1  0
  9 40  1  0
 14 41  1  0
 15 42  1  0
 15 43  1  0
 17 44  1  0
 23 45  1  0
 23 46  1  0
 24 47  1  0
 24 48  1  0
 26 49  1  0
 26 50  1  0
 27 51  1  0
 27 52  1  0
 28 53  1  0
 29 54  1  0
 30 55  1  0
 32 56  1  0
 33 57  1  0
M  END
>  <smiles>  (71) 
Cc1cc(-c2n[nH]c3cc(=NC(=O)NCc4cnn(C(=O)N5CCOCC5)c4)[nH]cc23)ccn1

>  <score_type>  (71) 
oracle

>  <origin>  (71) 
adg

>  <m_score__min__energy>  (71) 
-10.220000000000001

>  <m_primary>  (71) 
energy

$$$$
71:0
     RDKit          3D

 34 35  0  0  0  0  0  0  0  0999 V2000
   58.7730   25.5060   46.1900 C   0  0  0  0  0  0  0  0  0  0  0  0
   57.5280   26.1590   45.6430 C   0  0  0  0  0  0  0  0  0  0  0  0
   57.5530   26.9480   44.6050 N   0  0  0  0  0  0  0  0  0  0  0  0
   57.5170   28.3840   44.6020 C   0  0  0  0  0  0  0  0  0  0  0  0
   56.3530   29.0860   44.2480 C   0  0  0  0  0  0  0  0  0  0  0  0
   56.3540   30.4820   44.2110 C   0  0  0  0  0  0  0  0  0  0  0  0
   57.5230   31.2000   44.5210 C   0  0  0  0  0  0  0  0  0  0  0  0
   57.5540   32.6360   44.4660 N   0  0  0  0  0  0  0  0  0  0  0  0
   58.2690   33.4680   45.3970 C   0  0  0  0  0  0  0  0  0  0  0  0
   58.9020   34.6290   44.9350 C   0  0  0  0  0  0  0  0  0  0  0  0
   59.6210   35.4400   45.8160 C   0  0  0  0  0  0  0  0  0  0  0  0
   59.7270   35.0910   47.1640 C   0  0  0  0  0  0  0  0  0  0  0  0
   59.1200   33.9190   47.6440 C   0  0  0  0  0  0  0  0  0  0  0  0
   59.2470   33.5440   49.0710 C   0  0  0  0  0  0  0  0  0  0  0  0
   58.5510   32.6100   49.5520 O   0  0  0  0  0  0  0  0  0  0  0  0
   60.1350   34.2180   49.9000 O   0  0  0  0  0  0  0  0  0  0  0  0
   58.3990   33.1060   46.7510 C   0  0  0  0  0  0  0  0  0  0  0  0
   58.6990   30.4950   44.8150 C   0  0  0  0  0  0  0  0  0  0  0  0
   58.6970   29.0970   44.8510 C   0  0  0  0  0  0  0  0  0  0  0  0
   59.8450   28.4350   45.1440 F   0  0  0  0  0  0  0  0  0  0  0  0
   56.2270   25.9020   46.2880 C   0  0  0  0  0  0  0  0  0  0  0  0
   56.0930   24.9590   47.1120 O   0  0  0  0  0  0  0  0  0  0  0  0
   55.1340   26.7110   45.9980 O   0  0  0  0  0  0  0  0  0  0  0  0
   58.7426   25.5220   47.2895 H   0  0  0  0  0  0  0  0  0  0  0  0
   58.8250   24.4646   45.8397 H   0  0  0  0  0  0  0  0  0  0  0  0
   59.6593   26.0553   45.8397 H   0  0  0  0  0  0  0  0  0  0  0  0
   55.4354   28.5330   43.9985 H   0  0  0  0  0  0  0  0  0  0  0  0
   55.4359   31.0228   43.9380 H   0  0  0  0  0  0  0  0  0  0  0  0
   57.0210   33.1080   43.7000 H   0  0  0  0  0  0  0  0  0  0  0  0
   58.8324   34.9036   43.8721 H   0  0  0  0  0  0  0  0  0  0  0  0
   60.1051   36.3562   45.4470 H   0  0  0  0  0  0  0  0  0  0  0  0
   60.2891   35.7377   47.8538 H   0  0  0  0  0  0  0  0  0  0  0  0
   57.9323   32.1785   47.1142 H   0  0  0  0  0  0  0  0  0  0  0  0
   59.6294   31.0454   45.0187 H   0  0  0  0  0  0  0  0  0  0  0  0
  1  2  1  0
  2  3  2  3
  3  4  1  0
  4  5  2  0
  5  6  1  0
  6  7  2  0
  7  8  1  0
  8  9  1  0
  9 10  2  0
 10 11  1  0
 11 12  2  0
 12 13  1  0
 13 14  1  0
 14 15  2  0
 14 16  1  0
 13 17  2  0
  7 18  1  0
 18 19  2  0
 19 20  1  0
  2 21  1  0
 21 22  2  0
 21 23  1  0
 19  4  1  0
 17  9  1  0
  1 24  1  0
  1 25  1  0
  1 26  1  0
  5 27  1  0
  6 28  1  0
  8 29  1  0
 10 30  1  0
 11 31  1  0
 12 32  1  0
 17 33  1  0
 18 34  1  0
M  CHG  2  16  -1  23  -1
M  END
>  <UniqueID>  (72) 
68

>  <SMILES>  (72) 
CC(=Nc1ccc(Nc2cccc(C(=O)[O-])c2)cc1F)C(=O)[O-]

>  <Energy>  (72) 
46.81147953641605

>  <Genealogy>  (72) 
CC(=Nc1ccc(Nc2cccc(C(=O)[O-])c2)cc1F)C(=O)[O-] (protonated)
CC(=Nc1ccc(Nc2cccc(C(=O)[O-])c2)cc1F)C(=O)[O-] (3D coordinates assigned)
CC(=Nc1ccc(Nc2cccc(C(=O)[O-])c2)cc1F)C(=O)[O-] (optimized conformer: 46.81147953641605 kcal/mol)

>  <smiles>  (72) 
CC(=Nc1ccc(Nc2cccc(C(=O)O)c2)cc1F)C(=O)O

>  <score_type>  (72) 
oracle

>  <origin>  (72) 
adg

>  <m_score__min__energy>  (72) 
-10.960000000000001

>  <m_primary>  (72) 
energy

$$$$
72:0
     RDKit          3D

 52 54  0  0  0  0  0  0  0  0999 V2000
   56.6640   30.2670   42.5920 C   0  0  0  0  0  0  0  0  0  0  0  0
   56.2870   29.6080   44.2020 S   0  0  0  0  0  0  0  0  0  0  0  0
   54.8090   29.3450   44.3050 O   0  0  0  0  0  0  0  0  0  0  0  0
   56.6780   30.6180   45.2420 O   0  0  0  0  0  0  0  0  0  0  0  0
   57.1790   28.1410   44.4750 N   0  0  0  0  0  0  0  0  0  0  0  0
   58.6160   28.4220   44.4950 C   0  0  0  0  0  0  0  0  0  0  0  0
   59.0310   28.8320   45.8800 C   0  0  0  0  0  0  0  0  0  0  0  0
   58.8050   27.9750   46.9670 C   0  0  0  0  0  0  0  0  0  0  0  0
   59.2250   28.3350   48.2500 C   0  0  0  0  0  0  0  0  0  0  0  0
   59.9010   29.5490   48.4630 C   0  0  0  0  0  0  0  0  0  0  0  0
   60.3470   29.9410   49.8210 C   0  0  0  0  0  0  0  0  0  0  0  0
   61.3900   30.6360   49.9500 O   0  0  0  0  0  0  0  0  0  0  0  0
   59.5960   29.6070   51.0000 N   0  0  0  0  0  0  0  0  0  0  0  0
   58.5100   30.2000   51.4110 C   0  0  0  0  0  0  0  0  0  0  0  0
   57.4560   29.4750   51.8840 N   0  0  0  0  0  0  0  0  0  0  0  0
   56.3200   30.0650   52.3380 C   0  0  0  0  0  0  0  0  0  0  0  0
   56.2050   31.4520   52.3300 C   0  0  0  0  0  0  0  0  0  0  0  0
   57.2670   32.2250   51.8600 C   0  0  0  0  0  0  0  0  0  0  0  0
   58.4470   31.6040   51.4090 C   0  0  0  0  0  0  0  0  0  0  0  0
   59.5630   32.3300   50.9510 O   0  0  0  0  0  0  0  0  0  0  0  0
   59.6400   33.0820   49.7380 C   0  0  0  0  0  0  0  0  0  0  0  0
   58.4970   32.7180   48.7830 C   0  0  0  0  0  0  0  0  0  0  0  0
   58.6120   33.4250   47.4580 C   0  0  0  0  0  0  0  0  0  0  0  0
   57.7220   33.1280   46.4130 C   0  0  0  0  0  0  0  0  0  0  0  0
   57.8660   33.7440   45.1670 C   0  0  0  0  0  0  0  0  0  0  0  0
   58.8980   34.6650   44.9570 C   0  0  0  0  0  0  0  0  0  0  0  0
   59.7840   34.9700   45.9930 C   0  0  0  0  0  0  0  0  0  0  0  0
   59.6440   34.3530   47.2400 C   0  0  0  0  0  0  0  0  0  0  0  0
   60.1230   30.4070   47.3730 C   0  0  0  0  0  0  0  0  0  0  0  0
   59.7020   30.0460   46.0900 C   0  0  0  0  0  0  0  0  0  0  0  0
   57.2075   31.2170   42.7027 H   0  0  0  0  0  0  0  0  0  0  0  0
   57.2884   29.5497   42.0392 H   0  0  0  0  0  0  0  0  0  0  0  0
   55.7292   30.4416   42.0392 H   0  0  0  0  0  0  0  0  0  0  0  0
   56.9830   27.5140   43.6610 H   0  0  0  0  0  0  0  0  0  0  0  0
   59.1697   27.5186   44.1994 H   0  0  0  0  0  0  0  0  0  0  0  0
   58.8383   29.2374   43.7909 H   0  0  0  0  0  0  0  0  0  0  0  0
   58.2941   27.0138   46.8085 H   0  0  0  0  0  0  0  0  0  0  0  0
   59.0255   27.6643   49.0987 H   0  0  0  0  0  0  0  0  0  0  0  0
   55.4908   29.4466   52.7121 H   0  0  0  0  0  0  0  0  0  0  0  0
   55.2848   31.9345   52.6911 H   0  0  0  0  0  0  0  0  0  0  0  0
   57.1821   33.3216   51.8418 H   0  0  0  0  0  0  0  0  0  0  0  0
   59.5798   34.1541   49.9767 H   0  0  0  0  0  0  0  0  0  0  0  0
   60.5939   32.8463   49.2435 H   0  0  0  0  0  0  0  0  0  0  0  0
   58.5150   31.6323   48.6073 H   0  0  0  0  0  0  0  0  0  0  0  0
   57.5533   33.0335   49.2520 H   0  0  0  0  0  0  0  0  0  0  0  0
   56.9075   32.4069   46.5761 H   0  0  0  0  0  0  0  0  0  0  0  0
   57.1679   33.5048   44.3512 H   0  0  0  0  0  0  0  0  0  0  0  0
   59.0117   35.1491   43.9758 H   0  0  0  0  0  0  0  0  0  0  0  0
   60.5931   35.6967   45.8276 H   0  0  0  0  0  0  0  0  0  0  0  0
   60.3443   34.5951   48.0530 H   0  0  0  0  0  0  0  0  0  0  0  0
   60.6317   31.3696   47.5303 H   0  0  0  0  0  0  0  0  0  0  0  0
   59.8978   30.7171   45.2407 H   0  0  0  0  0  0  0  0  0  0  0  0
  1  2  1  0
  2  3  2  0
  2  4  2  0
  2  5  1  0
  5  6  1  0
  6  7  1  0
  7  8  2  0
  8  9  1  0
  9 10  2  0
 10 11  1  0
 11 12  2  0
 11 13  1  0
 13 14  2  3
 14 15  1  0
 15 16  1  0
 16 17  2  0
 17 18  1  0
 18 19  2  0
 19 20  1  0
 20 21  1  0
 21 22  1  0
 22 23  1  0
 23 24  2  0
 24 25  1  0
 25 26  2  0
 26 27  1  0
 27 28  2  0
 10 29  1  0
 29 30  2  0
 30  7  1  0
 19 14  1  0
 28 23  1  0
  1 31  1  0
  1 32  1  0
  1 33  1  0
  5 34  1  0
  6 35  1  0
  6 36  1  0
  8 37  1  0
  9 38  1  0
 16 39  1  0
 17 40  1  0
 18 41  1  0
 21 42  1  0
 21 43  1  0
 22 44  1  0
 22 45  1  0
 24 46  1  0
 25 47  1  0
 26 48  1  0
 27 49  1  0
 28 50  1  0
 29 51  1  0
 30 52  1  0
M  CHG  1  15  -1
M  END
>  <UniqueID>  (73) 
69

>  <SMILES>  (73) 
CS(=O)(=O)NCc1ccc(C(=O)N=c2[n-]cccc2OCCc2ccccc2)cc1

>  <Energy>  (73) 
53.30754591454137

>  <Genealogy>  (73) 
CS(=O)(=O)NCc1ccc(C(=O)N=c2[n-]cccc2OCCc2ccccc2)cc1 (protonated)
CS(=O)(=O)NCc1ccc(C(=O)N=c2[n-]cccc2OCCc2ccccc2)cc1 (3D coordinates assigned)
CS(=O)(=O)NCc1ccc(C(=O)N=c2[n-]cccc2OCCc2ccccc2)cc1 (optimized conformer: 53.30754591454137 kcal/mol)

>  <smiles>  (73) 
CS(=O)(=O)NCc1ccc(C(=O)N=c2[nH]cccc2OCCc2ccccc2)cc1

>  <score_type>  (73) 
oracle

>  <origin>  (73) 
adg

>  <m_score__min__energy>  (73) 
-10.359999999999999

>  <m_primary>  (73) 
energy

$$$$
73:0
     RDKit          3D

 63 66  0  0  0  0  0  0  0  0999 V2000
   58.1590   32.3490   43.4630 O   0  0  0  0  0  0  0  0  0  0  0  0
   57.2860   32.2870   44.3720 C   0  0  0  0  0  0  0  0  0  0  0  0
   56.9850   33.4980   45.1930 C   0  0  0  0  0  0  0  0  0  0  0  0
   58.1770   33.8310   46.0500 C   0  0  0  0  0  0  0  0  0  0  0  0
   59.2440   34.5800   45.5240 C   0  0  0  0  0  0  0  0  0  0  0  0
   60.3210   34.9390   46.3400 C   0  0  0  0  0  0  0  0  0  0  0  0
   60.3370   34.5640   47.6870 C   0  0  0  0  0  0  0  0  0  0  0  0
   59.2740   33.8280   48.2200 C   0  0  0  0  0  0  0  0  0  0  0  0
   58.1950   33.4650   47.4070 C   0  0  0  0  0  0  0  0  0  0  0  0
   56.5570   31.0760   44.6010 N   0  0  0  0  0  0  0  0  0  0  0  0
   57.1370   29.7670   44.6620 C   0  0  0  0  0  0  0  0  0  0  0  0
   57.2090   28.9990   43.4960 C   0  0  0  0  0  0  0  0  0  0  0  0
   57.8000   27.7350   43.5190 C   0  0  0  0  0  0  0  0  0  0  0  0
   58.3560   27.2410   44.7020 C   0  0  0  0  0  0  0  0  0  0  0  0
   58.3400   28.0180   45.8710 C   0  0  0  0  0  0  0  0  0  0  0  0
   58.9870   27.5170   47.1470 C   0  0  0  0  0  0  0  0  0  0  0  0
   60.1340   28.3380   47.5960 N   0  0  0  0  0  0  0  0  0  0  0  0
   60.7620   29.1560   46.5270 C   0  0  0  0  0  0  0  0  0  0  0  0
   60.5230   30.6610   46.7180 C   0  0  0  0  0  0  0  0  0  0  0  0
   61.0400   31.1550   48.0920 C   0  0  0  0  0  0  0  0  0  0  0  0
   62.4200   31.7530   47.9680 C   0  0  0  0  0  0  0  0  0  0  0  0
   63.2260   31.2980   47.1100 O   0  0  0  0  0  0  0  0  0  0  0  0
   62.8050   32.8580   48.7990 N   0  0  0  0  0  0  0  0  0  0  0  0
   64.1760   33.3580   48.8460 C   0  0  0  0  0  0  0  0  0  0  0  0
   65.0030   32.5100   49.7720 C   0  0  0  0  0  0  0  0  0  0  0  0
   66.3740   32.7750   49.9310 C   0  0  0  0  0  0  0  0  0  0  0  0
   67.1420   32.0110   50.8150 C   0  0  0  0  0  0  0  0  0  0  0  0
   66.5460   30.9830   51.5490 C   0  0  0  0  0  0  0  0  0  0  0  0
   65.1810   30.7190   51.4040 C   0  0  0  0  0  0  0  0  0  0  0  0
   64.4100   31.4810   50.5220 C   0  0  0  0  0  0  0  0  0  0  0  0
   61.0190   30.0410   49.1680 C   0  0  0  0  0  0  0  0  0  0  0  0
   59.9000   29.0390   48.8800 C   0  0  0  0  0  0  0  0  0  0  0  0
   57.7080   29.2730   45.8480 C   0  0  0  0  0  0  0  0  0  0  0  0
   56.7627   34.3458   44.5283 H   0  0  0  0  0  0  0  0  0  0  0  0
   56.1149   33.2987   45.8358 H   0  0  0  0  0  0  0  0  0  0  0  0
   59.2315   34.8846   44.4671 H   0  0  0  0  0  0  0  0  0  0  0  0
   61.1576   35.5177   45.9215 H   0  0  0  0  0  0  0  0  0  0  0  0
   61.1854   34.8478   48.3271 H   0  0  0  0  0  0  0  0  0  0  0  0
   59.2863   33.5341   49.2799 H   0  0  0  0  0  0  0  0  0  0  0  0
   57.3578   32.8912   47.8311 H   0  0  0  0  0  0  0  0  0  0  0  0
   56.7975   29.3933   42.5551 H   0  0  0  0  0  0  0  0  0  0  0  0
   57.8282   27.1259   42.6035 H   0  0  0  0  0  0  0  0  0  0  0  0
   58.8084   26.2384   44.7173 H   0  0  0  0  0  0  0  0  0  0  0  0
   58.2283   27.5156   47.9435 H   0  0  0  0  0  0  0  0  0  0  0  0
   59.3763   26.5101   46.9356 H   0  0  0  0  0  0  0  0  0  0  0  0
   61.8458   28.9681   46.5304 H   0  0  0  0  0  0  0  0  0  0  0  0
   60.3028   28.8643   45.5709 H   0  0  0  0  0  0  0  0  0  0  0  0
   61.0483   31.2089   45.9218 H   0  0  0  0  0  0  0  0  0  0  0  0
   59.4391   30.8436   46.6744 H   0  0  0  0  0  0  0  0  0  0  0  0
   60.3464   31.9400   48.4278 H   0  0  0  0  0  0  0  0  0  0  0  0
   62.0910   33.3130   49.4100 H   0  0  0  0  0  0  0  0  0  0  0  0
   64.6106   33.3242   47.8360 H   0  0  0  0  0  0  0  0  0  0  0  0
   64.1693   34.3940   49.2157 H   0  0  0  0  0  0  0  0  0  0  0  0
   66.8449   33.5870   49.3575 H   0  0  0  0  0  0  0  0  0  0  0  0
   68.2156   32.2196   50.9324 H   0  0  0  0  0  0  0  0  0  0  0  0
   67.1515   30.3804   52.2420 H   0  0  0  0  0  0  0  0  0  0  0  0
   64.7131   29.9105   51.9848 H   0  0  0  0  0  0  0  0  0  0  0  0
   63.3350   31.2742   50.4147 H   0  0  0  0  0  0  0  0  0  0  0  0
   61.9854   29.5155   49.1639 H   0  0  0  0  0  0  0  0  0  0  0  0
   60.8410   30.4999   50.1517 H   0  0  0  0  0  0  0  0  0  0  0  0
   59.8620   28.2986   49.6926 H   0  0  0  0  0  0  0  0  0  0  0  0
   58.9480   29.5859   48.8128 H   0  0  0  0  0  0  0  0  0  0  0  0
   57.6596   29.8750   46.7674 H   0  0  0  0  0  0  0  0  0  0  0  0
  1  2  2  0
  2  3  1  0
  3  4  1  0
  4  5  2  0
  5  6  1  0
  6  7  2  0
  7  8  1  0
  8  9  2  0
  2 10  1  0
 10 11  1  0
 11 12  2  0
 12 13  1  0
 13 14  2  0
 14 15  1  0
 15 16  1  0
 16 17  1  0
 17 18  1  0
 18 19  1  0
 19 20  1  0
 20 21  1  0
 21 22  2  0
 21 23  1  0
 23 24  1  0
 24 25  1  0
 25 26  2  0
 26 27  1  0
 27 28  2  0
 28 29  1  0
 29 30  2  0
 20 31  1  0
 31 32  1  0
 15 33  2  0
  9  4  1  0
 33 11  1  0
 32 17  1  0
 30 25  1  0
  3 34  1  0
  3 35  1  0
  5 36  1  0
  6 37  1  0
  7 38  1  0
  8 39  1  0
  9 40  1  0
 12 41  1  0
 13 42  1  0
 14 43  1  0
 16 44  1  0
 16 45  1  0
 18 46  1  0
 18 47  1  0
 19 48  1  0
 19 49  1  0
 20 50  1  0
 23 51  1  0
 24 52  1  0
 24 53  1  0
 26 54  1  0
 27 55  1  0
 28 56  1  0
 29 57  1  0
 30 58  1  0
 31 59  1  0
 31 60  1  0
 32 61  1  0
 32 62  1  0
 33 63  1  0
M  CHG  1  10  -1
M  END
>  <UniqueID>  (74) 
70

>  <SMILES>  (74) 
O=C(Cc1ccccc1)[N-]c1cccc(CN2CCC(C(=O)NCc3ccccc3)CC2)c1

>  <Energy>  (74) 
74.90316528895889

>  <Genealogy>  (74) 
O=C(Cc1ccccc1)[N-]c1cccc(CN2CCC(C(=O)NCc3ccccc3)CC2)c1 (protonated)
O=C(Cc1ccccc1)[N-]c1cccc(CN2CCC(C(=O)NCc3ccccc3)CC2)c1 (3D coordinates assigned)
O=C(Cc1ccccc1)[N-]c1cccc(CN2CCC(C(=O)NCc3ccccc3)CC2)c1 (nonaromatic ring conformer: 74.90316528895889 kcal/mol)

>  <smiles>  (74) 
O=C(Cc1ccccc1)Nc1cccc(CN2CCC(C(=O)NCc3ccccc3)CC2)c1

>  <score_type>  (74) 
oracle

>  <origin>  (74) 
adg

>  <m_score__min__energy>  (74) 
-11.99

>  <m_primary>  (74) 
energy

$$$$
74:0
     RDKit          3D

 31 32  0  0  0  0  0  0  0  0999 V2000
   59.1740   29.6290   44.1210 O   0  0  0  0  0  0  0  0  0  0  0  0
   58.0050   29.6420   44.5960 C   0  0  0  0  0  0  0  0  0  0  0  0
   57.2590   30.8690   44.6260 N   0  0  0  0  0  0  0  0  0  0  0  0
   57.7860   32.1260   44.0940 C   0  0  0  0  0  0  0  0  0  0  0  0
   57.2570   33.3290   44.8850 C   0  0  0  0  0  0  0  0  0  0  0  0
   58.1660   33.6750   46.0350 C   0  0  0  0  0  0  0  0  0  0  0  0
   59.1560   34.6620   45.8850 C   0  0  0  0  0  0  0  0  0  0  0  0
   60.0230   34.9560   46.9420 C   0  0  0  0  0  0  0  0  0  0  0  0
   59.9140   34.2620   48.1510 C   0  0  0  0  0  0  0  0  0  0  0  0
   58.9390   33.2720   48.3040 C   0  0  0  0  0  0  0  0  0  0  0  0
   58.8400   32.5950   49.4740 F   0  0  0  0  0  0  0  0  0  0  0  0
   58.0700   32.9750   47.2490 C   0  0  0  0  0  0  0  0  0  0  0  0
   57.4400   28.3960   45.1560 C   0  0  0  0  0  0  0  0  0  0  0  0
   58.3030   27.3690   45.5690 C   0  0  0  0  0  0  0  0  0  0  0  0
   57.7860   26.1920   46.1140 C   0  0  0  0  0  0  0  0  0  0  0  0
   56.4030   26.0440   46.2320 C   0  0  0  0  0  0  0  0  0  0  0  0
   55.9200   24.9910   46.7250 O   0  0  0  0  0  0  0  0  0  0  0  0
   55.5750   27.0350   45.8090 N   0  0  0  0  0  0  0  0  0  0  0  0
   56.0500   28.1930   45.2740 C   0  0  0  0  0  0  0  0  0  0  0  0
   55.1440   29.1460   44.8220 O   0  0  0  0  0  0  0  0  0  0  0  0
   56.3230   30.8930   45.0910 H   0  0  0  0  0  0  0  0  0  0  0  0
   58.8841   32.1099   44.1573 H   0  0  0  0  0  0  0  0  0  0  0  0
   57.4588   32.2258   43.0485 H   0  0  0  0  0  0  0  0  0  0  0  0
   57.1858   34.1962   44.2120 H   0  0  0  0  0  0  0  0  0  0  0  0
   56.2690   33.0676   45.2919 H   0  0  0  0  0  0  0  0  0  0  0  0
   59.2489   35.2048   44.9328 H   0  0  0  0  0  0  0  0  0  0  0  0
   60.7914   35.7339   46.8223 H   0  0  0  0  0  0  0  0  0  0  0  0
   60.5958   34.4952   48.9821 H   0  0  0  0  0  0  0  0  0  0  0  0
   57.3086   32.1904   47.3705 H   0  0  0  0  0  0  0  0  0  0  0  0
   59.3910   27.4919   45.4629 H   0  0  0  0  0  0  0  0  0  0  0  0
   58.4613   25.3900   46.4468 H   0  0  0  0  0  0  0  0  0  0  0  0
  1  2  2  0
  2  3  1  0
  3  4  1  0
  4  5  1  0
  5  6  1  0
  6  7  2  0
  7  8  1  0
  8  9  2  0
  9 10  1  0
 10 11  1  0
 10 12  2  0
  2 13  1  0
 13 14  1  0
 14 15  2  0
 15 16  1  0
 16 17  2  0
 16 18  1  0
 18 19  1  0
 19 20  1  0
 12  6  1  0
 19 13  2  0
  3 21  1  0
  4 22  1  0
  4 23  1  0
  5 24  1  0
  5 25  1  0
  7 26  1  0
  8 27  1  0
  9 28  1  0
 12 29  1  0
 14 30  1  0
 15 31  1  0
M  CHG  2  18  -1  20  -1
M  END
>  <UniqueID>  (75) 
71

>  <SMILES>  (75) 
O=C(NCCc1cccc(F)c1)c1ccc(=O)[n-]c1[O-]

>  <Energy>  (75) 
32.05618940337226

>  <Genealogy>  (75) 
O=C(NCCc1cccc(F)c1)c1ccc(=O)[n-]c1[O-] (protonated)
O=C(NCCc1cccc(F)c1)c1ccc(=O)[n-]c1[O-] (3D coordinates assigned)
O=C(NCCc1cccc(F)c1)c1ccc(=O)[n-]c1[O-] (optimized conformer: 32.05618940337226 kcal/mol)

>  <smiles>  (75) 
O=C(NCCc1cccc(F)c1)c1ccc(=O)[nH]c1O

>  <score_type>  (75) 
oracle

>  <origin>  (75) 
adg

>  <m_score__min__energy>  (75) 
-13.76

>  <m_primary>  (75) 
energy

$$$$
75:0
     RDKit          3D

 62 65  0  0  0  0  0  0  0  0999 V2000
   59.5780   33.0760   46.0670 O   0  0  0  0  0  0  0  0  0  0  0  0
   58.3300   32.9290   46.1540 C   0  0  0  0  0  0  0  0  0  0  0  0
   57.7250   32.8970   47.4040 O   0  0  0  0  0  0  0  0  0  0  0  0
   57.4980   32.8250   44.9140 C   0  0  0  0  0  0  0  0  0  0  0  0
   57.9670   31.7660   44.0770 O   0  0  0  0  0  0  0  0  0  0  0  0
   58.2460   30.4550   44.5010 C   0  0  0  0  0  0  0  0  0  0  0  0
   59.5410   30.0410   44.8720 C   0  0  0  0  0  0  0  0  0  0  0  0
   59.7700   28.7270   45.2880 C   0  0  0  0  0  0  0  0  0  0  0  0
   58.7120   27.8080   45.3530 C   0  0  0  0  0  0  0  0  0  0  0  0
   58.9670   26.3810   45.7580 C   0  0  0  0  0  0  0  0  0  0  0  0
   58.3150   26.0850   47.1120 C   0  0  0  0  0  0  0  0  0  0  0  0
   58.1120   27.3180   47.8720 N   0  0  0  0  0  0  0  0  0  0  0  0
   59.0630   28.0650   48.3500 C   0  0  0  0  0  0  0  0  0  0  0  0
   59.1440   29.3670   47.9740 N   0  0  0  0  0  0  0  0  0  0  0  0
   60.1040   30.1590   48.4510 N   0  0  0  0  0  0  0  0  0  0  0  0
   61.0280   29.7020   49.3370 C   0  0  0  0  0  0  0  0  0  0  0  0
   62.1050   30.6370   49.8210 C   0  0  0  0  0  0  0  0  0  0  0  0
   62.3500   31.8030   48.8780 C   0  0  0  0  0  0  0  0  0  0  0  0
   63.4180   31.6790   47.9670 C   0  0  0  0  0  0  0  0  0  0  0  0
   63.7120   32.6950   47.0620 C   0  0  0  0  0  0  0  0  0  0  0  0
   62.9450   33.8530   47.0460 C   0  0  0  0  0  0  0  0  0  0  0  0
   61.8830   34.0020   47.9360 C   0  0  0  0  0  0  0  0  0  0  0  0
   61.5560   32.9910   48.8640 C   0  0  0  0  0  0  0  0  0  0  0  0
   60.2120   33.2410   50.0260 S   0  0  0  0  0  0  0  0  0  0  0  0
   59.3270   34.3270   49.4810 O   0  0  0  0  0  0  0  0  0  0  0  0
   60.7850   33.6990   51.3370 O   0  0  0  0  0  0  0  0  0  0  0  0
   59.2040   31.8510   50.3810 N   0  0  0  0  0  0  0  0  0  0  0  0
   57.7610   32.1920   50.3470 C   0  0  0  0  0  0  0  0  0  0  0  0
   56.9350   31.2680   51.2480 C   0  0  0  0  0  0  0  0  0  0  0  0
   57.4980   29.9750   51.2450 O   0  0  0  0  0  0  0  0  0  0  0  0
   58.7120   29.9800   51.9730 C   0  0  0  0  0  0  0  0  0  0  0  0
   59.6440   31.1610   51.6120 C   0  0  0  0  0  0  0  0  0  0  0  0
   60.9730   28.3500   49.7120 C   0  0  0  0  0  0  0  0  0  0  0  0
   61.8270   27.8540   50.4940 O   0  0  0  0  0  0  0  0  0  0  0  0
   59.9870   27.5630   49.2140 N   0  0  0  0  0  0  0  0  0  0  0  0
   57.4250   28.2150   44.9740 C   0  0  0  0  0  0  0  0  0  0  0  0
   57.1910   29.5300   44.5550 C   0  0  0  0  0  0  0  0  0  0  0  0
   55.5640   30.0040   44.0900 Cl  0  0  0  0  0  0  0  0  0  0  0  0
   56.4534   32.6265   45.1959 H   0  0  0  0  0  0  0  0  0  0  0  0
   57.5709   33.7721   44.3594 H   0  0  0  0  0  0  0  0  0  0  0  0
   60.3759   30.7562   44.8339 H   0  0  0  0  0  0  0  0  0  0  0  0
   60.7862   28.4111   45.5663 H   0  0  0  0  0  0  0  0  0  0  0  0
   58.5448   25.7076   44.9976 H   0  0  0  0  0  0  0  0  0  0  0  0
   60.0523   26.2229   45.8427 H   0  0  0  0  0  0  0  0  0  0  0  0
   57.3419   25.6000   46.9452 H   0  0  0  0  0  0  0  0  0  0  0  0
   58.9799   25.4228   47.6859 H   0  0  0  0  0  0  0  0  0  0  0  0
   61.8071   31.0365   50.8016 H   0  0  0  0  0  0  0  0  0  0  0  0
   63.0394   30.0594   49.8782 H   0  0  0  0  0  0  0  0  0  0  0  0
   64.0293   30.7645   47.9711 H   0  0  0  0  0  0  0  0  0  0  0  0
   64.5512   32.5809   46.3600 H   0  0  0  0  0  0  0  0  0  0  0  0
   63.1765   34.6545   46.3290 H   0  0  0  0  0  0  0  0  0  0  0  0
   61.2876   34.9267   47.9145 H   0  0  0  0  0  0  0  0  0  0  0  0
   59.3750   31.1760   49.5980 H   0  0  0  0  0  0  0  0  0  0  0  0
   57.6325   33.2298   50.6884 H   0  0  0  0  0  0  0  0  0  0  0  0
   57.4053   32.0681   49.3135 H   0  0  0  0  0  0  0  0  0  0  0  0
   56.9331   31.6638   52.2743 H   0  0  0  0  0  0  0  0  0  0  0  0
   55.9031   31.2173   50.8703 H   0  0  0  0  0  0  0  0  0  0  0  0
   58.4745   30.0393   53.0454 H   0  0  0  0  0  0  0  0  0  0  0  0
   59.2477   29.0547   51.7145 H   0  0  0  0  0  0  0  0  0  0  0  0
   59.6442   31.8814   52.4433 H   0  0  0  0  0  0  0  0  0  0  0  0
   60.6529   30.7592   51.4368 H   0  0  0  0  0  0  0  0  0  0  0  0
   56.5932   27.4959   45.0061 H   0  0  0  0  0  0  0  0  0  0  0  0
  1  2  2  0
  2  3  1  0
  2  4  1  0
  4  5  1  0
  5  6  1  0
  6  7  2  0
  7  8  1  0
  8  9  2  0
  9 10  1  0
 10 11  1  0
 11 12  1  0
 12 13  2  3
 13 14  1  0
 14 15  1  0
 15 16  2  0
 16 17  1  0
 17 18  1  0
 18 19  2  0
 19 20  1  0
 20 21  2  0
 21 22  1  0
 22 23  2  0
 23 24  1  0
 24 25  2  0
 24 26  2  0
 24 27  1  0
 27 28  1  0
 28 29  1  0
 29 30  1  0
 30 31  1  0
 31 32  1  0
 16 33  1  0
 33 34  2  0
 33 35  1  0
  9 36  1  0
 36 37  2  0
 37 38  1  0
 37  6  1  0
 35 13  1  0
 23 18  1  0
 32 27  1  0
  4 39  1  0
  4 40  1  0
  7 41  1  0
  8 42  1  0
 10 43  1  0
 10 44  1  0
 11 45  1  0
 11 46  1  0
 17 47  1  0
 17 48  1  0
 19 49  1  0
 20 50  1  0
 21 51  1  0
 22 52  1  0
 27 53  1  0
 28 54  1  0
 28 55  1  0
 29 56  1  0
 29 57  1  0
 31 58  1  0
 31 59  1  0
 32 60  1  0
 32 61  1  0
 36 62  1  0
M  CHG  4   3  -1  14  -1  27   1  35  -1
M  END
>  <UniqueID>  (76) 
72

>  <SMILES>  (76) 
O=C([O-])COc1ccc(CCN=c2[n-]nc(Cc3ccccc3S(=O)(=O)[NH+]3CCOCC3)c(=O)[n-]2)cc1Cl

>  <Energy>  (76) 
82.57306780942214

>  <Genealogy>  (76) 
O=C([O-])COc1ccc(CCN=c2[n-]nc(Cc3ccccc3S(=O)(=O)[NH+]3CCOCC3)c(=O)[n-]2)cc1Cl (protonated)
O=C([O-])COc1ccc(CCN=c2[n-]nc(Cc3ccccc3S(=O)(=O)[NH+]3CCOCC3)c(=O)[n-]2)cc1Cl (3D coordinates assigned)
O=C([O-])COc1ccc(CCN=c2[n-]nc(Cc3ccccc3S(=O)(=O)[NH+]3CCOCC3)c(=O)[n-]2)cc1Cl (nonaromatic ring conformer: 82.57306780942214 kcal/mol)

>  <smiles>  (76) 
O=C(O)COc1ccc(CCN=c2[nH]nc(Cc3ccccc3S(=O)(=O)N3CCOCC3)c(=O)[nH]2)cc1Cl

>  <score_type>  (76) 
oracle

>  <origin>  (76) 
adg

>  <m_score__min__energy>  (76) 
-12.789999999999999

>  <m_primary>  (76) 
energy

$$$$
76:0
     RDKit          3D

 44 46  0  0  0  0  0  0  0  0999 V2000
   59.8990   32.8610   51.3480 C   0  0  0  0  0  0  0  0  0  0  0  0
   61.0090   32.2320   50.9350 C   0  0  0  0  0  0  0  0  0  0  0  0
   61.3570   32.0540   49.4600 C   0  0  1  0  0  0  0  0  0  0  0  0
   62.8280   31.5800   49.3780 C   0  0  0  0  0  0  0  0  0  0  0  0
   60.4000   30.9820   48.8330 C   0  0  0  0  0  0  0  0  0  0  0  0
   60.0410   31.1650   47.3170 C   0  0  2  0  0  0  0  0  0  0  0  0
   61.2660   30.8610   46.4270 C   0  0  0  0  0  0  0  0  0  0  0  0
   59.6120   32.6190   47.0900 C   0  0  0  0  0  0  0  0  0  0  0  0
   60.2220   33.6270   47.7310 C   0  0  0  0  0  0  0  0  0  0  0  0
   61.2330   33.3940   48.7660 C   0  0  0  0  0  0  0  0  0  0  0  0
   61.9600   34.3590   49.1300 O   0  0  0  0  0  0  0  0  0  0  0  0
   58.5040   32.9730   46.1310 C   0  0  0  0  0  0  0  0  0  0  0  0
   58.2280   31.8670   45.1220 C   0  0  0  0  0  0  0  0  0  0  0  0
   58.0540   30.5300   45.8040 C   0  0  0  0  0  0  0  0  0  0  0  0
   58.9080   30.1980   46.8910 C   0  0  0  0  0  0  0  0  0  0  0  0
   58.7710   28.9210   47.4810 C   0  0  0  0  0  0  0  0  0  0  0  0
   57.7860   28.0330   47.0590 C   0  0  0  0  0  0  0  0  0  0  0  0
   56.9500   28.3600   45.9970 C   0  0  0  0  0  0  0  0  0  0  0  0
   55.9960   27.4370   45.5800 O   0  0  0  0  0  0  0  0  0  0  0  0
   57.0920   29.5910   45.3400 C   0  0  0  0  0  0  0  0  0  0  0  0
   56.2440   29.8540   44.1550 C   0  0  0  0  0  0  0  0  0  0  0  0
   56.6420   29.3740   42.7940 C   0  0  0  0  0  0  0  0  0  0  0  0
   55.1440   30.4520   44.2980 O   0  0  0  0  0  0  0  0  0  0  0  0
   59.6929   32.9636   52.4236 H   0  0  0  0  0  0  0  0  0  0  0  0
   59.1946   33.2744   50.6111 H   0  0  0  0  0  0  0  0  0  0  0  0
   61.6976   31.8273   51.6913 H   0  0  0  0  0  0  0  0  0  0  0  0
   63.2288   31.4508   50.3942 H   0  0  0  0  0  0  0  0  0  0  0  0
   62.8749   30.6213   48.8408 H   0  0  0  0  0  0  0  0  0  0  0  0
   63.4258   32.3310   48.8408 H   0  0  0  0  0  0  0  0  0  0  0  0
   60.8798   29.9987   48.9464 H   0  0  0  0  0  0  0  0  0  0  0  0
   59.4477   31.0909   49.3727 H   0  0  0  0  0  0  0  0  0  0  0  0
   62.1369   30.6449   47.0633 H   0  0  0  0  0  0  0  0  0  0  0  0
   61.0505   29.9891   45.7919 H   0  0  0  0  0  0  0  0  0  0  0  0
   61.4831   31.7325   45.7919 H   0  0  0  0  0  0  0  0  0  0  0  0
   59.9548   34.6620   47.4714 H   0  0  0  0  0  0  0  0  0  0  0  0
   57.5861   33.1615   46.7071 H   0  0  0  0  0  0  0  0  0  0  0  0
   58.8209   33.8646   45.5700 H   0  0  0  0  0  0  0  0  0  0  0  0
   57.3087   32.1088   44.5684 H   0  0  0  0  0  0  0  0  0  0  0  0
   59.0879   31.7984   44.4394 H   0  0  0  0  0  0  0  0  0  0  0  0
   59.4557   28.6234   48.2888 H   0  0  0  0  0  0  0  0  0  0  0  0
   57.6679   27.0656   47.5691 H   0  0  0  0  0  0  0  0  0  0  0  0
   57.3413   28.5306   42.8926 H   0  0  0  0  0  0  0  0  0  0  0  0
   55.7472   29.0461   42.2447 H   0  0  0  0  0  0  0  0  0  0  0  0
   57.1300   30.1926   42.2447 H   0  0  0  0  0  0  0  0  0  0  0  0
  1  2  2  0
  2  3  1  0
  3  4  1  1
  3  5  1  0
  5  6  1  0
  6  7  1  6
  6  8  1  0
  8  9  2  0
  9 10  1  0
 10 11  2  0
  8 12  1  0
 12 13  1  0
 13 14  1  0
 14 15  2  0
 15 16  1  0
 16 17  2  0
 17 18  1  0
 18 19  1  0
 18 20  2  0
 20 21  1  0
 21 22  1  0
 21 23  2  0
 10  3  1  0
 20 14  1  0
 15  6  1  0
  1 24  1  0
  1 25  1  0
  2 26  1  0
  4 27  1  0
  4 28  1  0
  4 29  1  0
  5 30  1  0
  5 31  1  0
  7 32  1  0
  7 33  1  0
  7 34  1  0
  9 35  1  0
 12 36  1  0
 12 37  1  0
 13 38  1  0
 13 39  1  0
 16 40  1  0
 17 41  1  0
 22 42  1  0
 22 43  1  0
 22 44  1  0
M  CHG  1  19  -1
M  END
>  <UniqueID>  (77) 
73

>  <SMILES>  (77) 
C=C[C@@]1(C)C[C@]2(C)C(=CC1=O)CCc1c2ccc([O-])c1C(C)=O

>  <Energy>  (77) 
62.69606313621269

>  <Genealogy>  (77) 
C=CC1(C)CC2(C)C(=CC1=O)CCc1c2ccc([O-])c1C(C)=O (protonated)
C=C[C@@]1(C)C[C@]2(C)C(=CC1=O)CCc1c2ccc([O-])c1C(C)=O (chirality)
C=C[C@@]1(C)C[C@]2(C)C(=CC1=O)CCc1c2ccc([O-])c1C(C)=O (3D coordinates assigned)
C=C[C@@]1(C)C[C@]2(C)C(=CC1=O)CCc1c2ccc([O-])c1C(C)=O (nonaromatic ring conformer: 62.69606313621269 kcal/mol)

>  <smiles>  (77) 
C=CC1(C)CC2(C)C(=CC1=O)CCc1c2ccc(O)c1C(C)=O

>  <score_type>  (77) 
oracle

>  <origin>  (77) 
adg

>  <m_score__min__energy>  (77) 
-9.8499999999999996

>  <m_primary>  (77) 
energy

$$$$
77:0
     RDKit          3D

 72 75  0  0  0  0  0  0  0  0999 V2000
   57.7760   34.5980   44.9430 O   0  0  0  0  0  0  0  0  0  0  0  0
   57.9730   33.4070   45.3050 C   0  0  0  0  0  0  0  0  0  0  0  0
   56.9970   32.3450   44.8990 C   0  0  0  0  0  0  0  0  0  0  0  0
   57.3600   31.0670   45.5250 N   0  0  0  0  0  0  0  0  0  0  0  0
   58.3930   30.3620   44.7530 C   0  0  0  0  0  0  0  0  0  0  0  0
   58.0770   28.8930   44.6360 C   0  0  0  0  0  0  0  0  0  0  0  0
   57.0590   28.3260   45.4170 C   0  0  0  0  0  0  0  0  0  0  0  0
   56.7600   26.9650   45.3080 C   0  0  0  0  0  0  0  0  0  0  0  0
   57.4880   26.1500   44.4270 C   0  0  0  0  0  0  0  0  0  0  0  0
   57.1470   24.7180   44.2860 C   0  0  0  0  0  0  0  0  0  0  0  0
   56.8600   24.2250   43.0000 C   0  0  0  0  0  0  0  0  0  0  0  0
   56.5740   22.8740   42.8050 C   0  0  0  0  0  0  0  0  0  0  0  0
   56.5840   21.9950   43.8880 C   0  0  0  0  0  0  0  0  0  0  0  0
   56.8570   22.4680   45.1720 C   0  0  0  0  0  0  0  0  0  0  0  0
   57.1200   23.8310   45.3920 C   0  0  0  0  0  0  0  0  0  0  0  0
   57.3480   24.3880   47.0600 S   0  0  0  0  0  0  0  0  0  0  0  0
   56.2100   25.2920   47.4440 O   0  0  0  0  0  0  0  0  0  0  0  0
   57.3940   23.2160   48.0040 O   0  0  0  0  0  0  0  0  0  0  0  0
   58.8380   25.2740   47.1860 N   0  0  0  0  0  0  0  0  0  0  0  0
   58.6190   26.5520   47.8730 C   0  0  0  0  0  0  0  0  0  0  0  0
   59.6110   27.5880   47.4190 C   0  0  0  0  0  0  0  0  0  0  0  0
   60.3610   27.3310   46.4380 O   0  0  0  0  0  0  0  0  0  0  0  0
   59.8180   28.8470   48.1580 C   0  0  0  0  0  0  0  0  0  0  0  0
   58.9470   29.9280   47.9450 C   0  0  0  0  0  0  0  0  0  0  0  0
   59.1190   31.1210   48.6550 C   0  0  0  0  0  0  0  0  0  0  0  0
   60.1500   31.2380   49.5900 C   0  0  0  0  0  0  0  0  0  0  0  0
   61.0090   30.1600   49.8220 C   0  0  0  0  0  0  0  0  0  0  0  0
   60.8390   28.9640   49.1170 C   0  0  0  0  0  0  0  0  0  0  0  0
   58.5020   26.7190   43.6420 C   0  0  0  0  0  0  0  0  0  0  0  0
   58.8020   28.0790   43.7540 C   0  0  0  0  0  0  0  0  0  0  0  0
   59.1170   33.0610   46.1060 N   0  0  0  0  0  0  0  0  0  0  0  0
   60.0610   34.0210   46.6100 C   0  0  0  0  0  0  0  0  0  0  0  0
   59.8950   35.2550   46.4010 O   0  0  0  0  0  0  0  0  0  0  0  0
   61.2420   33.5610   47.4290 C   0  0  0  0  0  0  0  0  0  0  0  0
   62.5650   33.8110   46.6840 C   0  0  0  0  0  0  0  0  0  0  0  0
   63.7740   33.2430   47.4600 C   0  0  0  0  0  0  0  0  0  0  0  0
   63.5450   33.1690   48.9840 C   0  0  0  0  0  0  0  0  0  0  0  0
   62.6400   34.3010   49.4710 C   0  0  0  0  0  0  0  0  0  0  0  0
   61.2430   34.2410   48.8210 C   0  0  0  0  0  0  0  0  0  0  0  0
   55.9865   32.6355   45.2222 H   0  0  0  0  0  0  0  0  0  0  0  0
   57.0192   32.2317   43.8051 H   0  0  0  0  0  0  0  0  0  0  0  0
   56.5100   30.4560   45.5260 H   0  0  0  0  0  0  0  0  0  0  0  0
   58.4484   30.7987   43.7449 H   0  0  0  0  0  0  0  0  0  0  0  0
   59.3546   30.4713   45.2759 H   0  0  0  0  0  0  0  0  0  0  0  0
   56.4930   28.9559   46.1190 H   0  0  0  0  0  0  0  0  0  0  0  0
   55.9515   26.5311   45.9146 H   0  0  0  0  0  0  0  0  0  0  0  0
   56.8612   24.9114   42.1404 H   0  0  0  0  0  0  0  0  0  0  0  0
   56.3404   22.5015   41.7967 H   0  0  0  0  0  0  0  0  0  0  0  0
   56.3762   20.9265   43.7295 H   0  0  0  0  0  0  0  0  0  0  0  0
   56.8665   21.7675   46.0201 H   0  0  0  0  0  0  0  0  0  0  0  0
   59.1500   25.4760   46.2090 H   0  0  0  0  0  0  0  0  0  0  0  0
   57.6017   26.9082   47.6534 H   0  0  0  0  0  0  0  0  0  0  0  0
   58.7486   26.3943   48.9539 H   0  0  0  0  0  0  0  0  0  0  0  0
   58.1270   29.8363   47.2176 H   0  0  0  0  0  0  0  0  0  0  0  0
   58.4410   31.9686   48.4766 H   0  0  0  0  0  0  0  0  0  0  0  0
   60.2860   32.1786   50.1439 H   0  0  0  0  0  0  0  0  0  0  0  0
   61.8196   30.2523   50.5598 H   0  0  0  0  0  0  0  0  0  0  0  0
   61.5065   28.1121   49.3137 H   0  0  0  0  0  0  0  0  0  0  0  0
   59.0638   26.0912   42.9347 H   0  0  0  0  0  0  0  0  0  0  0  0
   59.6106   28.5131   43.1475 H   0  0  0  0  0  0  0  0  0  0  0  0
   59.2650   32.0520   46.3300 H   0  0  0  0  0  0  0  0  0  0  0  0
   61.1489   32.4758   47.5827 H   0  0  0  0  0  0  0  0  0  0  0  0
   62.5155   33.3271   45.6974 H   0  0  0  0  0  0  0  0  0  0  0  0
   62.7019   34.8978   46.5837 H   0  0  0  0  0  0  0  0  0  0  0  0
   63.9808   32.2283   47.0890 H   0  0  0  0  0  0  0  0  0  0  0  0
   64.6182   33.9278   47.2917 H   0  0  0  0  0  0  0  0  0  0  0  0
   63.0745   32.2052   49.2282 H   0  0  0  0  0  0  0  0  0  0  0  0
   64.5197   33.2673   49.4843 H   0  0  0  0  0  0  0  0  0  0  0  0
   62.5280   34.2221   50.5624 H   0  0  0  0  0  0  0  0  0  0  0  0
   63.1067   35.2560   49.1880 H   0  0  0  0  0  0  0  0  0  0  0  0
   60.5729   33.6761   49.4857 H   0  0  0  0  0  0  0  0  0  0  0  0
   60.9067   35.2783   48.6764 H   0  0  0  0  0  0  0  0  0  0  0  0
  1  2  2  0
  2  3  1  0
  3  4  1  0
  4  5  1  0
  5  6  1  0
  6  7  2  0
  7  8  1  0
  8  9  2  0
  9 10  1  0
 10 11  2  0
 11 12  1  0
 12 13  2  0
 13 14  1  0
 14 15  2  0
 15 16  1  0
 16 17  2  0
 16 18  2  0
 16 19  1  0
 19 20  1  0
 20 21  1  0
 21 22  2  0
 21 23  1  0
 23 24  2  0
 24 25  1  0
 25 26  2  0
 26 27  1  0
 27 28  2  0
  9 29  1  0
 29 30  2  0
  2 31  1  0
 31 32  1  0
 32 33  2  0
 32 34  1  0
 34 35  1  0
 35 36  1  0
 36 37  1  0
 37 38  1  0
 38 39  1  0
 30  6  1  0
 39 34  1  0
 15 10  1  0
 28 23  1  0
  3 40  1  0
  3 41  1  0
  4 42  1  0
  5 43  1  0
  5 44  1  0
  7 45  1  0
  8 46  1  0
 11 47  1  0
 12 48  1  0
 13 49  1  0
 14 50  1  0
 19 51  1  0
 20 52  1  0
 20 53  1  0
 24 54  1  0
 25 55  1  0
 26 56  1  0
 27 57  1  0
 28 58  1  0
 29 59  1  0
 30 60  1  0
 31 61  1  0
 34 62  1  0
 35 63  1  0
 35 64  1  0
 36 65  1  0
 36 66  1  0
 37 67  1  0
 37 68  1  0
 38 69  1  0
 38 70  1  0
 39 71  1  0
 39 72  1  0
M  END
>  <UniqueID>  (78) 
74

>  <SMILES>  (78) 
O=C(CNCc1ccc(-c2ccccc2S(=O)(=O)NCC(=O)c2ccccc2)cc1)NC(=O)C1CCCCC1

>  <Energy>  (78) 
86.58038536069596

>  <Genealogy>  (78) 
O=C(CNCc1ccc(-c2ccccc2S(=O)(=O)NCC(=O)c2ccccc2)cc1)NC(=O)C1CCCCC1 (3D coordinates assigned)
O=C(CNCc1ccc(-c2ccccc2S(=O)(=O)NCC(=O)c2ccccc2)cc1)NC(=O)C1CCCCC1 (nonaromatic ring conformer: 86.58038536069596 kcal/mol)

>  <smiles>  (78) 
O=C(CNCc1ccc(-c2ccccc2S(=O)(=O)NCC(=O)c2ccccc2)cc1)NC(=O)C1CCCCC1

>  <score_type>  (78) 
oracle

>  <origin>  (78) 
adg

>  <m_score__min__energy>  (78) 
-11.41

>  <m_primary>  (78) 
energy

$$$$
78:0
     RDKit          3D

 63 66  0  0  0  0  0  0  0  0999 V2000
   55.6660   30.8200   44.4920 O   0  0  0  0  0  0  0  0  0  0  0  0
   56.5690   30.6050   43.6400 C   0  0  0  0  0  0  0  0  0  0  0  0
   56.4170   29.4420   42.6980 C   0  0  0  0  0  0  0  0  0  0  0  0
   57.0180   28.2260   43.2540 N   0  0  0  0  0  0  0  0  0  0  0  0
   57.6900   28.1720   44.5310 C   0  0  0  0  0  0  0  0  0  0  0  0
   59.0660   28.4520   44.6430 C   0  0  0  0  0  0  0  0  0  0  0  0
   59.7250   28.2950   45.8650 C   0  0  0  0  0  0  0  0  0  0  0  0
   59.0180   27.8690   46.9970 C   0  0  0  0  0  0  0  0  0  0  0  0
   59.7140   27.6380   48.2740 C   0  0  0  0  0  0  0  0  0  0  0  0
   60.0450   26.4550   48.5700 O   0  0  0  0  0  0  0  0  0  0  0  0
   60.0820   28.7360   49.1390 N   0  0  0  0  0  0  0  0  0  0  0  0
   60.0160   30.1220   48.6510 C   0  0  0  0  0  0  0  0  0  0  0  0
   60.6900   31.1060   49.6170 C   0  0  0  0  0  0  0  0  0  0  0  0
   62.1000   30.6030   50.0350 C   0  0  0  0  0  0  0  0  0  0  0  0
   62.7760   31.4850   51.0360 N   0  0  0  0  0  0  0  0  0  0  0  0
   64.2520   31.2510   51.0960 C   0  0  0  0  0  0  0  0  0  0  0  0
   65.1090   32.4100   50.5450 C   0  0  0  0  0  0  0  0  0  0  0  0
   64.4360   33.0580   49.3340 C   0  0  0  0  0  0  0  0  0  0  0  0
   63.0290   33.5750   49.6750 C   0  0  0  0  0  0  0  0  0  0  0  0
   62.4550   32.9280   50.9480 C   0  0  0  0  0  0  0  0  0  0  0  0
   62.0200   29.1440   50.5950 C   0  0  0  0  0  0  0  0  0  0  0  0
   60.6390   28.4890   50.4760 C   0  0  0  0  0  0  0  0  0  0  0  0
   57.6370   27.6520   46.9060 C   0  0  0  0  0  0  0  0  0  0  0  0
   56.9760   27.7900   45.6810 C   0  0  0  0  0  0  0  0  0  0  0  0
   55.6120   27.5190   45.6120 O   0  0  0  0  0  0  0  0  0  0  0  0
   57.7350   31.4430   43.5790 N   0  0  0  0  0  0  0  0  0  0  0  0
   58.1980   32.2160   44.6970 C   0  0  0  0  0  0  0  0  0  0  0  0
   58.7040   33.5170   44.5310 C   0  0  0  0  0  0  0  0  0  0  0  0
   59.1350   34.2530   45.6400 C   0  0  0  0  0  0  0  0  0  0  0  0
   59.0750   33.6930   46.9210 C   0  0  0  0  0  0  0  0  0  0  0  0
   59.6110   34.6210   48.3090 Cl  0  0  0  0  0  0  0  0  0  0  0  0
   58.5970   32.3900   47.0900 C   0  0  0  0  0  0  0  0  0  0  0  0
   58.1660   31.6520   45.9830 C   0  0  0  0  0  0  0  0  0  0  0  0
   55.3465   29.2633   42.5187 H   0  0  0  0  0  0  0  0  0  0  0  0
   56.9328   29.6863   41.7577 H   0  0  0  0  0  0  0  0  0  0  0  0
   57.0550   27.3920   42.6280 H   0  0  0  0  0  0  0  0  0  0  0  0
   59.6261   28.7970   43.7614 H   0  0  0  0  0  0  0  0  0  0  0  0
   60.8020   28.5065   45.9385 H   0  0  0  0  0  0  0  0  0  0  0  0
   60.5218   30.1793   47.6759 H   0  0  0  0  0  0  0  0  0  0  0  0
   58.9555   30.4018   48.5671 H   0  0  0  0  0  0  0  0  0  0  0  0
   60.7893   32.0836   49.1226 H   0  0  0  0  0  0  0  0  0  0  0  0
   60.0675   31.1907   50.5200 H   0  0  0  0  0  0  0  0  0  0  0  0
   62.7107   30.6260   49.1204 H   0  0  0  0  0  0  0  0  0  0  0  0
   64.5310   31.0877   52.1474 H   0  0  0  0  0  0  0  0  0  0  0  0
   64.4560   30.3804   50.4553 H   0  0  0  0  0  0  0  0  0  0  0  0
   65.2400   33.1670   51.3322 H   0  0  0  0  0  0  0  0  0  0  0  0
   66.0842   32.0085   50.2323 H   0  0  0  0  0  0  0  0  0  0  0  0
   65.0530   33.9022   48.9925 H   0  0  0  0  0  0  0  0  0  0  0  0
   64.3400   32.2962   48.5464 H   0  0  0  0  0  0  0  0  0  0  0  0
   63.0801   34.6635   49.8250 H   0  0  0  0  0  0  0  0  0  0  0  0
   62.3649   33.3123   48.8384 H   0  0  0  0  0  0  0  0  0  0  0  0
   62.8769   33.4389   51.8261 H   0  0  0  0  0  0  0  0  0  0  0  0
   61.3602   33.0288   50.9137 H   0  0  0  0  0  0  0  0  0  0  0  0
   62.7421   28.5246   50.0429 H   0  0  0  0  0  0  0  0  0  0  0  0
   62.2416   29.2105   51.6704 H   0  0  0  0  0  0  0  0  0  0  0  0
   60.7344   27.4050   50.6369 H   0  0  0  0  0  0  0  0  0  0  0  0
   59.9674   28.9196   51.2334 H   0  0  0  0  0  0  0  0  0  0  0  0
   57.0682   27.3710   47.8046 H   0  0  0  0  0  0  0  0  0  0  0  0
   58.4160   31.2720   42.8030 H   0  0  0  0  0  0  0  0  0  0  0  0
   58.7613   33.9582   43.5250 H   0  0  0  0  0  0  0  0  0  0  0  0
   59.5218   35.2738   45.5047 H   0  0  0  0  0  0  0  0  0  0  0  0
   58.5599   31.9447   48.0951 H   0  0  0  0  0  0  0  0  0  0  0  0
   57.7998   30.6239   46.1202 H   0  0  0  0  0  0  0  0  0  0  0  0
  1  2  2  0
  2  3  1  0
  3  4  1  0
  4  5  1  0
  5  6  2  0
  6  7  1  0
  7  8  2  0
  8  9  1  0
  9 10  2  0
  9 11  1  0
 11 12  1  0
 12 13  1  0
 13 14  1  0
 14 15  1  0
 15 16  1  0
 16 17  1  0
 17 18  1  0
 18 19  1  0
 19 20  1  0
 14 21  1  0
 21 22  1  0
  8 23  1  0
 23 24  2  0
 24 25  1  0
  2 26  1  0
 26 27  1  0
 27 28  2  0
 28 29  1  0
 29 30  2  0
 30 31  1  0
 30 32  1  0
 32 33  2  0
 24  5  1  0
 33 27  1  0
 22 11  1  0
 20 15  1  0
  3 34  1  0
  3 35  1  0
  4 36  1  0
  6 37  1  0
  7 38  1  0
 12 39  1  0
 12 40  1  0
 13 41  1  0
 13 42  1  0
 14 43  1  0
 16 44  1  0
 16 45  1  0
 17 46  1  0
 17 47  1  0
 18 48  1  0
 18 49  1  0
 19 50  1  0
 19 51  1  0
 20 52  1  0
 20 53  1  0
 21 54  1  0
 21 55  1  0
 22 56  1  0
 22 57  1  0
 23 58  1  0
 26 59  1  0
 28 60  1  0
 29 61  1  0
 32 62  1  0
 33 63  1  0
M  CHG  1  25  -1
M  END
>  <UniqueID>  (79) 
75

>  <SMILES>  (79) 
O=C(CNc1ccc(C(=O)N2CCC(N3CCCCC3)CC2)cc1[O-])Nc1ccc(Cl)cc1

>  <Energy>  (79) 
88.4353274256757

>  <Genealogy>  (79) 
O=C(CNc1ccc(C(=O)N2CCC(N3CCCCC3)CC2)cc1[O-])Nc1ccc(Cl)cc1 (protonated)
O=C(CNc1ccc(C(=O)N2CCC(N3CCCCC3)CC2)cc1[O-])Nc1ccc(Cl)cc1 (3D coordinates assigned)
O=C(CNc1ccc(C(=O)N2CCC(N3CCCCC3)CC2)cc1[O-])Nc1ccc(Cl)cc1 (nonaromatic ring conformer: 88.4353274256757 kcal/mol)

>  <smiles>  (79) 
O=C(CNc1ccc(C(=O)N2CCC(N3CCCCC3)CC2)cc1O)Nc1ccc(Cl)cc1

>  <score_type>  (79) 
oracle

>  <origin>  (79) 
adg

>  <m_score__min__energy>  (79) 
-13.130000000000001

>  <m_primary>  (79) 
energy

$$$$
79:0
     RDKit          3D

 32 34  0  0  0  0  0  0  0  0999 V2000
   55.6130   22.0380   46.4190 O   0  0  0  0  0  0  0  0  0  0  0  0
   56.6260   22.6720   46.8190 C   0  0  0  0  0  0  0  0  0  0  0  0
   57.3740   22.1530   47.8690 O   0  0  0  0  0  0  0  0  0  0  0  0
   57.0150   23.9480   46.1800 C   0  0  0  0  0  0  0  0  0  0  0  0
   57.2230   25.0980   46.9610 C   0  0  0  0  0  0  0  0  0  0  0  0
   57.5910   26.3070   46.3600 C   0  0  0  0  0  0  0  0  0  0  0  0
   57.7810   26.3790   44.9760 C   0  0  0  0  0  0  0  0  0  0  0  0
   58.1000   27.6450   44.3790 N   0  0  0  0  0  0  0  0  0  0  0  0
   58.3680   28.7670   44.9910 C   0  0  0  0  0  0  0  0  0  0  0  0
   59.5580   28.9560   45.6460 N   0  0  0  0  0  0  0  0  0  0  0  0
   59.8380   30.1280   46.2830 C   0  0  0  0  0  0  0  0  0  0  0  0
   61.0620   30.3190   46.9440 C   0  0  0  0  0  0  0  0  0  0  0  0
   61.3270   31.5300   47.5920 C   0  0  0  0  0  0  0  0  0  0  0  0
   60.3730   32.5540   47.5880 C   0  0  0  0  0  0  0  0  0  0  0  0
   60.7400   34.2040   48.4770 Br  0  0  0  0  0  0  0  0  0  0  0  0
   59.1490   32.3680   46.9350 C   0  0  0  0  0  0  0  0  0  0  0  0
   58.8800   31.1580   46.2850 C   0  0  0  0  0  0  0  0  0  0  0  0
   57.6950   30.9640   45.6600 N   0  0  0  0  0  0  0  0  0  0  0  0
   57.3990   29.8030   45.0180 C   0  0  0  0  0  0  0  0  0  0  0  0
   56.0720   29.6950   44.3670 C   0  0  0  0  0  0  0  0  0  0  0  0
   55.1470   29.0000   44.8660 O   0  0  0  0  0  0  0  0  0  0  0  0
   55.8350   30.3750   43.1780 O   0  0  0  0  0  0  0  0  0  0  0  0
   57.5380   25.2430   44.1870 C   0  0  0  0  0  0  0  0  0  0  0  0
   57.1700   24.0340   44.7840 C   0  0  0  0  0  0  0  0  0  0  0  0
   57.0956   25.0473   48.0524 H   0  0  0  0  0  0  0  0  0  0  0  0
   57.7316   27.2053   46.9791 H   0  0  0  0  0  0  0  0  0  0  0  0
   60.2630   28.1890   45.7020 H   0  0  0  0  0  0  0  0  0  0  0  0
   61.8132   29.5155   46.9523 H   0  0  0  0  0  0  0  0  0  0  0  0
   62.2881   31.6779   48.1063 H   0  0  0  0  0  0  0  0  0  0  0  0
   58.3988   33.1725   46.9327 H   0  0  0  0  0  0  0  0  0  0  0  0
   57.6378   25.3050   43.0933 H   0  0  0  0  0  0  0  0  0  0  0  0
   57.0006   23.1447   44.1591 H   0  0  0  0  0  0  0  0  0  0  0  0
  1  2  2  0
  2  3  1  0
  2  4  1  0
  4  5  2  0
  5  6  1  0
  6  7  2  0
  7  8  1  0
  8  9  2  3
  9 10  1  0
 10 11  1  0
 11 12  2  0
 12 13  1  0
 13 14  2  0
 14 15  1  0
 14 16  1  0
 16 17  2  0
 17 18  1  0
 18 19  2  0
 19 20  1  0
 20 21  2  0
 20 22  1  0
  7 23  1  0
 23 24  2  0
 24  4  1  0
 19  9  1  0
 17 11  1  0
  5 25  1  0
  6 26  1  0
 10 27  1  0
 12 28  1  0
 13 29  1  0
 16 30  1  0
 23 31  1  0
 24 32  1  0
M  CHG  2   3  -1  22  -1
M  END
>  <UniqueID>  (80) 
76

>  <SMILES>  (80) 
O=C([O-])c1ccc(N=c2[nH]c3ccc(Br)cc3nc2C(=O)[O-])cc1

>  <Energy>  (80) 
50.47451467769693

>  <Genealogy>  (80) 
O=C([O-])c1ccc(N=c2[nH]c3ccc(Br)cc3nc2C(=O)[O-])cc1 (protonated)
O=C([O-])c1ccc(N=c2[nH]c3ccc(Br)cc3nc2C(=O)[O-])cc1 (3D coordinates assigned)
O=C([O-])c1ccc(N=c2[nH]c3ccc(Br)cc3nc2C(=O)[O-])cc1 (optimized conformer: 50.47451467769693 kcal/mol)

>  <smiles>  (80) 
O=C(O)c1ccc(N=c2[nH]c3ccc(Br)cc3nc2C(=O)O)cc1

>  <score_type>  (80) 
oracle

>  <origin>  (80) 
adg

>  <m_score__min__energy>  (80) 
-11.15

>  <m_primary>  (80) 
energy

$$$$
80:0
     RDKit          3D

 54 57  0  0  0  0  0  0  0  0999 V2000
   60.9110   33.7960   51.5400 O   0  0  0  0  0  0  0  0  0  0  0  0
   59.9170   33.3300   50.9200 C   0  0  0  0  0  0  0  0  0  0  0  0
   58.6490   33.0550   51.6620 C   0  0  0  0  0  0  0  0  0  0  0  0
   57.7870   32.1870   50.8700 N   0  0  0  0  0  0  0  0  0  0  0  0
   57.8710   30.7570   50.8880 C   0  0  0  0  0  0  0  0  0  0  0  0
   57.0920   30.0940   51.6280 O   0  0  0  0  0  0  0  0  0  0  0  0
   58.8640   30.0570   50.0400 C   0  0  0  0  0  0  0  0  0  0  0  0
   58.8940   30.2650   48.6480 C   0  0  0  0  0  0  0  0  0  0  0  0
   59.8320   29.6010   47.8510 C   0  0  0  0  0  0  0  0  0  0  0  0
   60.7520   28.7280   48.4330 C   0  0  0  0  0  0  0  0  0  0  0  0
   60.7360   28.5150   49.8140 C   0  0  0  0  0  0  0  0  0  0  0  0
   59.7990   29.1740   50.6150 C   0  0  0  0  0  0  0  0  0  0  0  0
   59.9960   33.0460   49.5200 N   0  0  0  0  0  0  0  0  0  0  0  0
   61.1880   33.0850   48.7180 C   0  0  0  0  0  0  0  0  0  0  0  0
   62.3590   32.4290   49.1400 C   0  0  0  0  0  0  0  0  0  0  0  0
   63.5110   32.4650   48.3550 C   0  0  0  0  0  0  0  0  0  0  0  0
   63.5140   33.1630   47.1490 C   0  0  0  0  0  0  0  0  0  0  0  0
   62.3700   33.8400   46.7300 C   0  0  0  0  0  0  0  0  0  0  0  0
   61.1980   33.8110   47.5060 C   0  0  0  0  0  0  0  0  0  0  0  0
   59.9900   34.5320   47.0290 C   0  0  0  0  0  0  0  0  0  0  0  0
   59.4010   35.3370   47.7980 O   0  0  0  0  0  0  0  0  0  0  0  0
   59.5000   34.3770   45.6900 N   0  0  0  0  0  0  0  0  0  0  0  0
   58.7650   33.2500   45.1890 C   0  0  0  0  0  0  0  0  0  0  0  0
   58.3510   33.1780   43.8470 C   0  0  0  0  0  0  0  0  0  0  0  0
   57.6390   32.0670   43.3880 C   0  0  0  0  0  0  0  0  0  0  0  0
   57.3470   31.0080   44.2580 C   0  0  0  0  0  0  0  0  0  0  0  0
   56.4470   29.6090   43.6810 S   0  0  0  0  0  0  0  0  0  0  0  0
   56.0470   29.7990   42.2430 O   0  0  0  0  0  0  0  0  0  0  0  0
   55.2080   29.4420   44.5170 O   0  0  0  0  0  0  0  0  0  0  0  0
   57.4180   28.1760   43.8100 N   0  0  0  0  0  0  0  0  0  0  0  0
   57.5790   27.5270   44.9210 C   0  0  0  0  0  0  0  0  0  0  0  0
   56.5600   27.0630   45.6780 N   0  0  0  0  0  0  0  0  0  0  0  0
   57.0190   26.4170   46.7820 C   0  0  0  0  0  0  0  0  0  0  0  0
   58.4040   26.3700   46.9050 C   0  0  0  0  0  0  0  0  0  0  0  0
   59.0770   27.1640   45.5810 S   0  0  0  0  0  0  0  0  0  0  0  0
   57.7730   31.0710   45.5910 C   0  0  0  0  0  0  0  0  0  0  0  0
   58.4880   32.1820   46.0500 C   0  0  0  0  0  0  0  0  0  0  0  0
   58.8850   32.5616   52.6164 H   0  0  0  0  0  0  0  0  0  0  0  0
   58.1283   34.0051   51.8523 H   0  0  0  0  0  0  0  0  0  0  0  0
   58.1742   30.9551   48.1836 H   0  0  0  0  0  0  0  0  0  0  0  0
   59.8446   29.7672   46.7637 H   0  0  0  0  0  0  0  0  0  0  0  0
   61.4898   28.2075   47.8047 H   0  0  0  0  0  0  0  0  0  0  0  0
   61.4623   27.8273   50.2717 H   0  0  0  0  0  0  0  0  0  0  0  0
   59.7917   29.0020   51.7014 H   0  0  0  0  0  0  0  0  0  0  0  0
   62.3658   31.8841   50.0955 H   0  0  0  0  0  0  0  0  0  0  0  0
   64.4191   31.9414   48.6885 H   0  0  0  0  0  0  0  0  0  0  0  0
   64.4208   33.1797   46.5266 H   0  0  0  0  0  0  0  0  0  0  0  0
   62.3842   34.4017   45.7843 H   0  0  0  0  0  0  0  0  0  0  0  0
   58.5888   33.9999   43.1557 H   0  0  0  0  0  0  0  0  0  0  0  0
   57.3066   32.0234   42.3403 H   0  0  0  0  0  0  0  0  0  0  0  0
   56.3448   25.9644   47.5240 H   0  0  0  0  0  0  0  0  0  0  0  0
   58.9630   25.8961   47.7253 H   0  0  0  0  0  0  0  0  0  0  0  0
   57.5444   30.2438   46.2791 H   0  0  0  0  0  0  0  0  0  0  0  0
   58.8345   32.2165   47.0934 H   0  0  0  0  0  0  0  0  0  0  0  0
  1  2  2  0
  2  3  1  0
  3  4  1  0
  4  5  1  0
  5  6  2  0
  5  7  1  0
  7  8  2  0
  8  9  1  0
  9 10  2  0
 10 11  1  0
 11 12  2  0
  2 13  1  0
 13 14  1  0
 14 15  2  0
 15 16  1  0
 16 17  2  0
 17 18  1  0
 18 19  2  0
 19 20  1  0
 20 21  2  0
 20 22  1  0
 22 23  1  0
 23 24  2  0
 24 25  1  0
 25 26  2  0
 26 27  1  0
 27 28  2  0
 27 29  2  0
 27 30  1  0
 30 31  2  3
 31 32  1  0
 32 33  1  0
 33 34  2  0
 34 35  1  0
 26 36  1  0
 36 37  2  0
 12  7  1  0
 19 14  1  0
 37 23  1  0
 35 31  1  0
  3 38  1  0
  3 39  1  0
  8 40  1  0
  9 41  1  0
 10 42  1  0
 11 43  1  0
 12 44  1  0
 15 45  1  0
 16 46  1  0
 17 47  1  0
 18 48  1  0
 24 49  1  0
 25 50  1  0
 33 51  1  0
 34 52  1  0
 36 53  1  0
 37 54  1  0
M  CHG  4   4  -1  13  -1  22  -1  32  -1
M  END
>  <UniqueID>  (81) 
77

>  <SMILES>  (81) 
O=C(C[N-]C(=O)c1ccccc1)[N-]c1ccccc1C(=O)[N-]c1ccc(S(=O)(=O)N=c2[n-]ccs2)cc1

>  <Energy>  (81) 
100.9126086254001

>  <Genealogy>  (81) 
O=C(C[N-]C(=O)c1ccccc1)[N-]c1ccccc1C(=O)[N-]c1ccc(S(=O)(=O)N=c2[n-]ccs2)cc1 (protonated)
O=C(C[N-]C(=O)c1ccccc1)[N-]c1ccccc1C(=O)[N-]c1ccc(S(=O)(=O)N=c2[n-]ccs2)cc1 (3D coordinates assigned)
O=C(C[N-]C(=O)c1ccccc1)[N-]c1ccccc1C(=O)[N-]c1ccc(S(=O)(=O)N=c2[n-]ccs2)cc1 (optimized conformer: 100.9126086254001 kcal/mol)

>  <smiles>  (81) 
O=C(CNC(=O)c1ccccc1)Nc1ccccc1C(=O)Nc1ccc(S(=O)(=O)N=c2[nH]ccs2)cc1

>  <score_type>  (81) 
oracle

>  <origin>  (81) 
adg

>  <m_score__min__energy>  (81) 
-15.470000000000001

>  <m_primary>  (81) 
energy

$$$$
81:0
     RDKit          3D

 61 64  0  0  0  0  0  0  0  0999 V2000
   57.9020   27.2200   42.8700 C   0  0  0  0  0  0  0  0  0  0  0  0
   58.0600   27.0700   44.1940 C   0  0  0  0  0  0  0  0  0  0  0  0
   57.6690   25.9730   44.9660 C   0  0  0  0  0  0  0  0  0  0  0  0
   57.0430   24.8580   44.5310 C   0  0  0  0  0  0  0  0  0  0  0  0
   55.6520   24.5060   44.8660 C   0  0  0  0  0  0  0  0  0  0  0  0
   54.8410   25.3950   45.5860 C   0  0  0  0  0  0  0  0  0  0  0  0
   55.3270   26.6430   45.9680 O   0  0  0  0  0  0  0  0  0  0  0  0
   53.5700   25.0370   45.9120 N   0  0  0  0  0  0  0  0  0  0  0  0
   53.0730   23.8240   45.5600 C   0  0  0  0  0  0  0  0  0  0  0  0
   51.5420   23.4230   45.9630 S   0  0  0  0  0  0  0  0  0  0  0  0
   53.8480   22.9400   44.8810 N   0  0  0  0  0  0  0  0  0  0  0  0
   55.1240   23.2490   44.5330 C   0  0  0  0  0  0  0  0  0  0  0  0
   55.8200   22.4040   43.9080 O   0  0  0  0  0  0  0  0  0  0  0  0
   58.0710   26.3130   46.2630 C   0  0  0  0  0  0  0  0  0  0  0  0
   57.9070   25.5260   47.5250 C   0  0  0  0  0  0  0  0  0  0  0  0
   58.6590   27.5240   46.2490 N   0  0  0  0  0  0  0  0  0  0  0  0
   58.6540   27.9790   45.0070 N   0  0  0  0  0  0  0  0  0  0  0  0
   59.2050   29.2890   44.6500 C   0  0  0  0  0  0  0  0  0  0  0  0
   58.1100   30.3200   44.5560 C   0  0  0  0  0  0  0  0  0  0  0  0
   57.1250   30.0820   43.8080 O   0  0  0  0  0  0  0  0  0  0  0  0
   58.1630   31.5640   45.2900 N   0  0  0  0  0  0  0  0  0  0  0  0
   57.3140   32.6890   44.8640 C   0  0  0  0  0  0  0  0  0  0  0  0
   58.0190   34.0170   45.1500 C   0  0  0  0  0  0  0  0  0  0  0  0
   58.3560   34.1850   46.6510 C   0  0  0  0  0  0  0  0  0  0  0  0
   59.5790   35.0700   46.8000 C   0  0  0  0  0  0  0  0  0  0  0  0
   59.7370   36.0540   46.0280 O   0  0  0  0  0  0  0  0  0  0  0  0
   60.4750   34.9270   47.9100 N   0  0  0  0  0  0  0  0  0  0  0  0
   61.5690   34.0040   47.9920 C   0  0  0  0  0  0  0  0  0  0  0  0
   62.4390   33.8360   46.9030 C   0  0  0  0  0  0  0  0  0  0  0  0
   63.5250   32.9610   46.9950 C   0  0  0  0  0  0  0  0  0  0  0  0
   63.7590   32.2610   48.1790 C   0  0  0  0  0  0  0  0  0  0  0  0
   62.9150   32.4390   49.2780 C   0  0  0  0  0  0  0  0  0  0  0  0
   61.8230   33.3200   49.1990 C   0  0  0  0  0  0  0  0  0  0  0  0
   60.9100   33.4970   50.3820 C   0  0  0  0  0  0  0  0  0  0  0  0
   58.5150   32.8320   47.3920 C   0  0  0  0  0  0  0  0  0  0  0  0
   59.0240   31.7120   46.4750 C   0  0  0  0  0  0  0  0  0  0  0  0
   58.2546   28.1365   42.3744 H   0  0  0  0  0  0  0  0  0  0  0  0
   57.4199   26.4264   42.2802 H   0  0  0  0  0  0  0  0  0  0  0  0
   57.6075   24.1689   43.8856 H   0  0  0  0  0  0  0  0  0  0  0  0
   55.1420   27.4670   45.4090 H   0  0  0  0  0  0  0  0  0  0  0  0
   58.0453   26.1895   48.3914 H   0  0  0  0  0  0  0  0  0  0  0  0
   56.8983   25.0882   47.5557 H   0  0  0  0  0  0  0  0  0  0  0  0
   58.6569   24.7218   47.5557 H   0  0  0  0  0  0  0  0  0  0  0  0
   59.9274   29.5987   45.4195 H   0  0  0  0  0  0  0  0  0  0  0  0
   59.7005   29.2093   43.6712 H   0  0  0  0  0  0  0  0  0  0  0  0
   57.1158   32.6072   43.7851 H   0  0  0  0  0  0  0  0  0  0  0  0
   56.3665   32.6567   45.4219 H   0  0  0  0  0  0  0  0  0  0  0  0
   58.9531   34.0549   44.5702 H   0  0  0  0  0  0  0  0  0  0  0  0
   57.3377   34.8313   44.8623 H   0  0  0  0  0  0  0  0  0  0  0  0
   57.5012   34.6769   47.1383 H   0  0  0  0  0  0  0  0  0  0  0  0
   62.2650   34.3960   45.9724 H   0  0  0  0  0  0  0  0  0  0  0  0
   64.1954   32.8242   46.1337 H   0  0  0  0  0  0  0  0  0  0  0  0
   64.6100   31.5674   48.2473 H   0  0  0  0  0  0  0  0  0  0  0  0
   63.1062   31.8867   50.2099 H   0  0  0  0  0  0  0  0  0  0  0  0
   61.4879   33.3850   51.3112 H   0  0  0  0  0  0  0  0  0  0  0  0
   60.4583   34.4994   50.3498 H   0  0  0  0  0  0  0  0  0  0  0  0
   60.1164   32.7360   50.3498 H   0  0  0  0  0  0  0  0  0  0  0  0
   59.2307   32.9643   48.2168 H   0  0  0  0  0  0  0  0  0  0  0  0
   57.5216   32.5353   47.7596 H   0  0  0  0  0  0  0  0  0  0  0  0
   60.0465   31.9522   46.1483 H   0  0  0  0  0  0  0  0  0  0  0  0
   59.0095   30.7667   47.0373 H   0  0  0  0  0  0  0  0  0  0  0  0
  1  2  2  0
  2  3  1  0
  3  4  2  3
  4  5  1  0
  5  6  2  0
  6  7  1  0
  6  8  1  0
  8  9  1  0
  9 10  2  0
  9 11  1  0
 11 12  1  0
 12 13  2  0
  3 14  1  0
 14 15  1  0
 14 16  2  0
 16 17  1  0
 17 18  1  0
 18 19  1  0
 19 20  2  0
 19 21  1  0
 21 22  1  0
 22 23  1  0
 23 24  1  0
 24 25  1  0
 25 26  2  0
 25 27  1  0
 27 28  1  0
 28 29  2  0
 29 30  1  0
 30 31  2  0
 31 32  1  0
 32 33  2  0
 33 34  1  0
 24 35  1  0
 35 36  1  0
 17  2  1  0
 36 21  1  0
 12  5  1  0
 33 28  1  0
  1 37  1  0
  1 38  1  0
  4 39  1  0
  7 40  1  0
 15 41  1  0
 15 42  1  0
 15 43  1  0
 18 44  1  0
 18 45  1  0
 22 46  1  0
 22 47  1  0
 23 48  1  0
 23 49  1  0
 24 50  1  0
 29 51  1  0
 30 52  1  0
 31 53  1  0
 32 54  1  0
 34 55  1  0
 34 56  1  0
 34 57  1  0
 35 58  1  0
 35 59  1  0
 36 60  1  0
 36 61  1  0
M  CHG  3   8  -1  11  -1  27  -1
M  END
>  <UniqueID>  (82) 
78

>  <SMILES>  (82) 
C=c1c(=Cc2c(O)[n-]c(=S)[n-]c2=O)c(C)nn1CC(=O)N1CCC(C(=O)[N-]c2ccccc2C)CC1

>  <Energy>  (82) 
116.30135421106148

>  <Genealogy>  (82) 
C=c1c(=Cc2c(O)[n-]c(=S)[n-]c2=O)c(C)nn1CC(=O)N1CCC(C(=O)[N-]c2ccccc2C)CC1 (protonated)
C=c1c(=Cc2c(O)[n-]c(=S)[n-]c2=O)c(C)nn1CC(=O)N1CCC(C(=O)[N-]c2ccccc2C)CC1 (3D coordinates assigned)
C=c1c(=Cc2c(O)[n-]c(=S)[n-]c2=O)c(C)nn1CC(=O)N1CCC(C(=O)[N-]c2ccccc2C)CC1 (nonaromatic ring conformer: 116.30135421106148 kcal/mol)

>  <smiles>  (82) 
C=c1c(=Cc2c(O)[nH]c(=S)[nH]c2=O)c(C)nn1CC(=O)N1CCC(C(=O)Nc2ccccc2C)CC1

>  <score_type>  (82) 
oracle

>  <origin>  (82) 
adg

>  <m_score__min__energy>  (82) 
-16.309999999999999

>  <m_primary>  (82) 
energy

$$$$
82:0
     RDKit          3D

 66 69  0  0  0  0  0  0  0  0999 V2000
   55.3722   28.4820   43.6822 H   0  0  0  0  0  0  0  0  0  0  0  0
   55.6620   29.4500   44.1170 C   0  0  0  0  0  0  0  0  0  0  0  0
   55.0172   30.3303   43.9784 H   0  0  0  0  0  0  0  0  0  0  0  0
   56.8030   29.5570   44.8170 C   0  0  0  0  0  0  0  0  0  0  0  0
   57.0900   30.7880   45.3220 N   0  0  0  0  0  0  0  0  0  0  0  0
   58.2240   31.0780   46.0110 C   0  0  0  0  0  0  0  0  0  0  0  0
   58.4290   32.4820   46.5450 C   0  0  0  0  0  0  0  0  0  0  0  0
   57.5327   33.0764   46.3143 H   0  0  0  0  0  0  0  0  0  0  0  0
   58.6044   32.3937   47.6273 H   0  0  0  0  0  0  0  0  0  0  0  0
   59.6520   33.1940   45.9460 C   0  0  0  0  0  0  0  0  0  0  0  0
   60.4721   32.4674   45.8484 H   0  0  0  0  0  0  0  0  0  0  0  0
   59.3590   33.6017   44.9673 H   0  0  0  0  0  0  0  0  0  0  0  0
   60.1290   34.3630   46.8190 C   0  0  0  0  0  0  0  0  0  0  0  0
   60.2485   35.2590   46.1921 H   0  0  0  0  0  0  0  0  0  0  0  0
   59.3829   34.5502   47.6054 H   0  0  0  0  0  0  0  0  0  0  0  0
   61.4470   34.0290   47.4640 C   0  0  0  0  0  0  0  0  0  0  0  0
   61.6290   34.2290   48.8430 C   0  0  0  0  0  0  0  0  0  0  0  0
   60.8187   34.6647   49.4460 H   0  0  0  0  0  0  0  0  0  0  0  0
   62.8390   33.8750   49.4510 C   0  0  0  0  0  0  0  0  0  0  0  0
   62.9806   34.0391   50.5294 H   0  0  0  0  0  0  0  0  0  0  0  0
   63.8680   33.3130   48.6890 C   0  0  0  0  0  0  0  0  0  0  0  0
   64.8191   33.0375   49.1681 H   0  0  0  0  0  0  0  0  0  0  0  0
   63.6890   33.1010   47.3190 C   0  0  0  0  0  0  0  0  0  0  0  0
   64.4982   32.6565   46.7211 H   0  0  0  0  0  0  0  0  0  0  0  0
   62.4810   33.4540   46.7080 C   0  0  0  0  0  0  0  0  0  0  0  0
   62.3407   33.2804   45.6309 H   0  0  0  0  0  0  0  0  0  0  0  0
   59.1410   30.0470   46.2750 C   0  0  0  0  0  0  0  0  0  0  0  0
   60.3570   30.2720   47.0780 C   0  0  0  0  0  0  0  0  0  0  0  0
   61.4750   30.1900   46.5010 O   0  0  0  0  0  0  0  0  0  0  0  0
   60.2900   30.5790   48.4880 N   0  0  0  0  0  0  0  0  0  0  0  0
   61.5160   30.9280   49.2200 C   0  0  0  0  0  0  0  0  0  0  0  0
   62.3561   30.3444   48.8153 H   0  0  0  0  0  0  0  0  0  0  0  0
   61.7043   32.0050   49.0990 H   0  0  0  0  0  0  0  0  0  0  0  0
   61.3640   30.6200   50.7180 C   0  0  0  0  0  0  0  0  0  0  0  0
   61.2965   29.5293   50.8437 H   0  0  0  0  0  0  0  0  0  0  0  0
   62.2419   31.0459   51.2258 H   0  0  0  0  0  0  0  0  0  0  0  0
   60.1600   31.2400   51.3340 N   0  0  0  0  0  0  0  0  0  0  0  0
   60.4930   32.4320   52.1440 C   0  0  0  0  0  0  0  0  0  0  0  0
   61.3823   32.2170   52.7547 H   0  0  0  0  0  0  0  0  0  0  0  0
   60.6907   33.2763   51.4672 H   0  0  0  0  0  0  0  0  0  0  0  0
   59.3280   32.8010   53.0650 C   0  0  0  0  0  0  0  0  0  0  0  0
   58.8147   31.8851   53.3933 H   0  0  0  0  0  0  0  0  0  0  0  0
   59.7099   33.3400   53.9446 H   0  0  0  0  0  0  0  0  0  0  0  0
   58.4200   33.6250   52.3620 O   0  0  0  0  0  0  0  0  0  0  0  0
   57.1480   33.0200   52.3560 C   0  0  0  0  0  0  0  0  0  0  0  0
   56.8129   32.8606   53.3915 H   0  0  0  0  0  0  0  0  0  0  0  0
   56.4331   33.6745   51.8359 H   0  0  0  0  0  0  0  0  0  0  0  0
   57.2046   32.0524   51.8359 H   0  0  0  0  0  0  0  0  0  0  0  0
   59.0640   31.5330   50.3820 C   0  0  0  0  0  0  0  0  0  0  0  0
   58.1061   31.4955   50.9215 H   0  0  0  0  0  0  0  0  0  0  0  0
   59.2433   32.5311   49.9559 H   0  0  0  0  0  0  0  0  0  0  0  0
   59.0200   30.5290   49.2280 C   0  0  0  0  0  0  0  0  0  0  0  0
   58.8684   29.5158   49.6287 H   0  0  0  0  0  0  0  0  0  0  0  0
   58.1905   30.7829   48.5516 H   0  0  0  0  0  0  0  0  0  0  0  0
   58.8890   28.7680   45.7750 C   0  0  0  0  0  0  0  0  0  0  0  0
   59.6129   27.9630   45.9698 H   0  0  0  0  0  0  0  0  0  0  0  0
   57.7250   28.4830   45.0240 C   0  0  0  0  0  0  0  0  0  0  0  0
   57.4940   27.2190   44.5780 C   0  0  0  0  0  0  0  0  0  0  0  0
   57.6010   27.0357   43.4987 H   0  0  0  0  0  0  0  0  0  0  0  0
   57.1110   26.0730   45.4270 C   0  0  0  0  0  0  0  0  0  0  0  0
   57.9690   25.1070   45.8000 N   0  0  0  0  0  0  0  0  0  0  0  0
   57.2360   24.3420   46.6360 C   0  0  0  0  0  0  0  0  0  0  0  0
   57.6970   23.3100   47.1890 O   0  0  0  0  0  0  0  0  0  0  0  0
   55.9730   24.7730   46.8410 N   0  0  0  0  0  0  0  0  0  0  0  0
   55.9130   25.8770   46.0800 C   0  0  0  0  0  0  0  0  0  0  0  0
   54.8010   26.7080   46.0150 O   0  0  0  0  0  0  0  0  0  0  0  0
  1  2  1  0
  2  3  1  0
  2  4  2  0
  4  5  1  0
  5  6  2  0
  6  7  1  0
  7  8  1  0
  7  9  1  0
  7 10  1  0
 10 11  1  0
 10 12  1  0
 10 13  1  0
 13 14  1  0
 13 15  1  0
 13 16  1  0
 16 17  2  0
 17 18  1  0
 17 19  1  0
 19 20  1  0
 19 21  2  0
 21 22  1  0
 21 23  1  0
 23 24  1  0
 23 25  2  0
 25 26  1  0
  6 27  1  0
 27 28  1  0
 28 29  2  0
 28 30  1  0
 30 31  1  0
 31 32  1  0
 31 33  1  0
 31 34  1  0
 34 35  1  0
 34 36  1  0
 34 37  1  0
 37 38  1  0
 38 39  1  0
 38 40  1  0
 38 41  1  0
 41 42  1  0
 41 43  1  0
 41 44  1  0
 44 45  1  0
 45 46  1  0
 45 47  1  0
 45 48  1  0
 37 49  1  0
 49 50  1  0
 49 51  1  0
 49 52  1  0
 52 53  1  0
 52 54  1  0
 27 55  2  0
 55 56  1  0
 55 57  1  0
 57 58  2  0
 58 59  1  0
 58 60  1  0
 60 61  1  0
 61 62  1  0
 62 63  2  0
 62 64  1  0
 64 65  1  0
 65 66  1  0
 57  4  1  0
 65 60  2  0
 25 16  1  0
 52 30  1  0
M  CHG  3  61  -1  64  -1  66  -1
M  END
>  <UniqueID>  (83) 
79

>  <SMILES>  (83) 
C=c1nc(CCCc2ccccc2)c(C(=O)N2CCN(CCOC)CC2)c/c1=C\c1[n-]c(=O)[n-]c1[O-]

>  <Energy>  (83) 
124.8656377704236

>  <Genealogy>  (83) 
C=c1nc(CCCc2ccccc2)c(C(=O)N2CCN(CCOC)CC2)cc1=Cc1[n-]c(=O)[n-]c1[O-] (protonated)
C=c1nc(CCCc2ccccc2)c(C(=O)N2CCN(CCOC)CC2)c/c1=C\c1[n-]c(=O)[n-]c1[O-] (cis-trans isomerization)
C=c1nc(CCCc2ccccc2)c(C(=O)N2CCN(CCOC)CC2)c/c1=C\c1[n-]c(=O)[n-]c1[O-] (3D coordinates assigned)
C=c1nc(CCCc2ccccc2)c(C(=O)N2CCN(CCOC)CC2)c/c1=C\c1[n-]c(=O)[n-]c1[O-] (nonaromatic ring conformer: 124.8656377704236 kcal/mol)

>  <smiles>  (83) 
C=c1nc(CCCc2ccccc2)c(C(=O)N2CCN(CCOC)CC2)cc1=Cc1[nH]c(=O)[nH]c1O

>  <score_type>  (83) 
oracle

>  <origin>  (83) 
adg

>  <m_score__min__energy>  (83) 
-17.489999999999998

>  <m_primary>  (83) 
energy

$$$$
83:0
     RDKit          3D

 31 33  0  0  0  0  0  0  0  0999 V2000
   60.3105   34.1421   50.0422 H   0  0  0  0  0  0  0  0  0  0  0  0
   60.1750   34.1980   48.9520 C   0  0  0  0  0  0  0  0  0  0  0  0
   60.7993   34.8785   48.3543 H   0  0  0  0  0  0  0  0  0  0  0  0
   59.2540   33.4410   48.3550 C   0  0  0  0  0  0  0  0  0  0  0  0
   58.6492   32.7732   48.9861 H   0  0  0  0  0  0  0  0  0  0  0  0
   58.9920   33.4410   46.8950 C   0  0  0  0  0  0  0  0  0  0  0  0
   59.3170   34.5890   46.1560 C   0  0  0  0  0  0  0  0  0  0  0  0
   59.7516   35.4608   46.6669 H   0  0  0  0  0  0  0  0  0  0  0  0
   59.0940   34.6350   44.7790 C   0  0  0  0  0  0  0  0  0  0  0  0
   59.3678   35.5351   44.2091 H   0  0  0  0  0  0  0  0  0  0  0  0
   58.5250   33.5430   44.1230 C   0  0  0  0  0  0  0  0  0  0  0  0
   58.3667   33.5796   43.0351 H   0  0  0  0  0  0  0  0  0  0  0  0
   58.1530   32.3960   44.8460 C   0  0  0  0  0  0  0  0  0  0  0  0
   57.5540   31.2130   44.1870 C   0  0  0  0  0  0  0  0  0  0  0  0
   57.0731   31.3544   43.2078 H   0  0  0  0  0  0  0  0  0  0  0  0
   57.5630   29.9820   44.7120 C   0  0  0  0  0  0  0  0  0  0  0  0
   58.7060   29.2470   45.0400 O   0  0  0  0  0  0  0  0  0  0  0  0
   58.2760   28.0160   45.5300 C   0  0  0  0  0  0  0  0  0  0  0  0
   59.0770   26.9680   45.9800 C   0  0  0  0  0  0  0  0  0  0  0  0
   60.1736   27.0543   45.9768 H   0  0  0  0  0  0  0  0  0  0  0  0
   58.4470   25.7980   46.4380 C   0  0  0  0  0  0  0  0  0  0  0  0
   59.0559   24.9559   46.7986 H   0  0  0  0  0  0  0  0  0  0  0  0
   57.0400   25.6950   46.4390 C   0  0  0  0  0  0  0  0  0  0  0  0
   56.5587   24.7743   46.8005 H   0  0  0  0  0  0  0  0  0  0  0  0
   56.2500   26.7640   45.9800 C   0  0  0  0  0  0  0  0  0  0  0  0
   54.8640   26.6750   45.9770 O   0  0  0  0  0  0  0  0  0  0  0  0
   56.8990   27.9150   45.5320 C   0  0  0  0  0  0  0  0  0  0  0  0
   56.3850   29.1660   45.0070 C   0  0  0  0  0  0  0  0  0  0  0  0
   55.1770   29.4800   44.8410 O   0  0  0  0  0  0  0  0  0  0  0  0
   58.4040   32.3460   46.2270 C   0  0  0  0  0  0  0  0  0  0  0  0
   58.1389   31.4420   46.7949 H   0  0  0  0  0  0  0  0  0  0  0  0
  1  2  1  0
  2  3  1  0
  2  4  2  0
  4  5  1  0
  4  6  1  0
  6  7  2  0
  7  8  1  0
  7  9  1  0
  9 10  1  0
  9 11  2  0
 11 12  1  0
 11 13  1  0
 13 14  1  0
 14 15  1  0
 14 16  2  0
 16 17  1  0
 17 18  1  0
 18 19  2  0
 19 20  1  0
 19 21  1  0
 21 22  1  0
 21 23  2  0
 23 24  1  0
 23 25  1  0
 25 26  1  0
 25 27  2  0
 27 28  1  0
 28 29  2  0
 13 30  2  0
 30 31  1  0
 30  6  1  0
 28 16  1  0
 27 18  1  0
M  CHG  1  26  -1
M  END
>  <UniqueID>  (84) 
80

>  <SMILES>  (84) 
C=Cc1cccc(/C=C2\Oc3cccc([O-])c3C2=O)c1

>  <Energy>  (84) 
70.55152322927343

>  <Genealogy>  (84) 
C=Cc1cccc(C=C2Oc3cccc([O-])c3C2=O)c1 (protonated)
C=Cc1cccc(/C=C2\Oc3cccc([O-])c3C2=O)c1 (cis-trans isomerization)
C=Cc1cccc(/C=C2\Oc3cccc([O-])c3C2=O)c1 (3D coordinates assigned)
C=Cc1cccc(/C=C2\Oc3cccc([O-])c3C2=O)c1 (nonaromatic ring conformer: 70.55152322927343 kcal/mol)

>  <smiles>  (84) 
C=Cc1cccc(C=C2Oc3cccc(O)c3C2=O)c1

>  <score_type>  (84) 
oracle

>  <origin>  (84) 
adg

>  <m_score__min__energy>  (84) 
-12.359999999999999

>  <m_primary>  (84) 
energy

$$$$
84:0
     RDKit          3D

 58 62  0  0  0  0  0  0  0  0999 V2000
   51.8310   25.2960   44.4320 H   0  0  0  0  0  0  0  0  0  0  0  0
   52.0290   24.4430   45.0030 N   0  0  0  0  0  0  0  0  0  0  0  0
   53.2330   24.1370   45.3640 C   0  0  0  0  0  0  0  0  0  0  0  0
   54.1410   25.1210   45.5930 N   0  0  0  0  0  0  0  0  0  0  0  0
   55.4180   24.8370   45.9720 C   0  0  0  0  0  0  0  0  0  0  0  0
   56.3820   25.9380   46.1770 C   0  0  0  0  0  0  0  0  0  0  0  0
   57.4120   25.7490   46.8820 O   0  0  0  0  0  0  0  0  0  0  0  0
   56.1420   27.2280   45.5940 N   0  0  0  0  0  0  0  0  0  0  0  0
   55.1520   27.5130   45.4040 H   0  0  0  0  0  0  0  0  0  0  0  0
   57.1830   28.1600   45.2580 C   0  0  0  0  0  0  0  0  0  0  0  0
   58.4410   27.6750   44.8710 C   0  0  0  0  0  0  0  0  0  0  0  0
   58.6070   26.5908   44.7870 H   0  0  0  0  0  0  0  0  0  0  0  0
   59.4830   28.5600   44.5920 C   0  0  0  0  0  0  0  0  0  0  0  0
   60.4626   28.1716   44.2766 H   0  0  0  0  0  0  0  0  0  0  0  0
   59.2860   29.9380   44.7120 C   0  0  0  0  0  0  0  0  0  0  0  0
   60.1064   30.6317   44.4759 H   0  0  0  0  0  0  0  0  0  0  0  0
   58.0470   30.4390   45.1320 C   0  0  0  0  0  0  0  0  0  0  0  0
   57.8700   31.8950   45.3020 C   0  0  0  0  0  0  0  0  0  0  0  0
   57.5360   32.5720   44.2890 O   0  0  0  0  0  0  0  0  0  0  0  0
   58.1220   32.5530   46.5680 N   0  0  0  0  0  0  0  0  0  0  0  0
   58.4680   31.7690   47.7690 C   0  0  0  0  0  0  0  0  0  0  0  0
   57.5759   31.2166   48.0990 H   0  0  0  0  0  0  0  0  0  0  0  0
   59.2881   31.0874   47.4991 H   0  0  0  0  0  0  0  0  0  0  0  0
   58.9560   32.6520   48.9250 C   0  0  0  0  0  0  0  0  0  0  0  0
   58.0795   33.1097   49.4069 H   0  0  0  0  0  0  0  0  0  0  0  0
   59.5193   32.0027   49.6113 H   0  0  0  0  0  0  0  0  0  0  0  0
   59.9160   33.7830   48.4790 C   0  0  0  0  0  0  0  0  0  0  0  0
   59.8697   34.5575   49.2588 H   0  0  0  0  0  0  0  0  0  0  0  0
   61.3220   33.3040   48.4200 N   0  0  0  0  0  0  0  0  0  0  0  0
   61.8670   32.6140   47.2710 C   0  0  0  0  0  0  0  0  0  0  0  0
   61.1180   32.0940   46.4020 O   0  0  0  0  0  0  0  0  0  0  0  0
   63.2520   32.4870   47.1320 O   0  0  0  0  0  0  0  0  0  0  0  0
   64.1510   33.2500   47.9320 C   0  0  0  0  0  0  0  0  0  0  0  0
   65.1220   32.7347   47.9730 H   0  0  0  0  0  0  0  0  0  0  0  0
   64.2624   34.2468   47.4803 H   0  0  0  0  0  0  0  0  0  0  0  0
   63.6220   33.4140   49.3300 C   0  0  0  0  0  0  0  0  0  0  0  0
   64.5130   33.5910   50.4000 C   0  0  0  0  0  0  0  0  0  0  0  0
   65.5978   33.5742   50.2184 H   0  0  0  0  0  0  0  0  0  0  0  0
   64.0280   33.7880   51.6920 C   0  0  0  0  0  0  0  0  0  0  0  0
   64.7291   33.9228   52.5288 H   0  0  0  0  0  0  0  0  0  0  0  0
   62.6480   33.8140   51.9230 C   0  0  0  0  0  0  0  0  0  0  0  0
   62.2671   33.9596   52.9446 H   0  0  0  0  0  0  0  0  0  0  0  0
   61.7510   33.6560   50.8630 C   0  0  0  0  0  0  0  0  0  0  0  0
   60.6683   33.6727   51.0566 H   0  0  0  0  0  0  0  0  0  0  0  0
   62.2250   33.4750   49.5450 C   0  0  0  0  0  0  0  0  0  0  0  0
   59.4620   34.5200   47.1840 C   0  0  0  0  0  0  0  0  0  0  0  0
   59.3789   35.5950   47.4020 H   0  0  0  0  0  0  0  0  0  0  0  0
   60.2141   34.3185   46.4070 H   0  0  0  0  0  0  0  0  0  0  0  0
   58.1120   34.0210   46.6600 C   0  0  0  0  0  0  0  0  0  0  0  0
   57.3142   34.3379   47.3478 H   0  0  0  0  0  0  0  0  0  0  0  0
   57.9322   34.4451   45.6611 H   0  0  0  0  0  0  0  0  0  0  0  0
   56.9920   29.5480   45.3850 C   0  0  0  0  0  0  0  0  0  0  0  0
   56.0082   29.9382   45.6849 H   0  0  0  0  0  0  0  0  0  0  0  0
   55.8030   23.4980   46.1270 C   0  0  0  0  0  0  0  0  0  0  0  0
   56.8283   23.2398   46.4306 H   0  0  0  0  0  0  0  0  0  0  0  0
   54.8580   22.5000   45.8880 C   0  0  0  0  0  0  0  0  0  0  0  0
   55.1342   21.4417   46.0049 H   0  0  0  0  0  0  0  0  0  0  0  0
   53.5970   22.8350   45.5110 N   0  0  0  0  0  0  0  0  0  0  0  0
  1  2  1  0
  2  3  2  0
  3  4  1  0
  4  5  2  0
  5  6  1  0
  6  7  2  0
  6  8  1  0
  8  9  1  0
  8 10  1  0
 10 11  2  0
 11 12  1  0
 11 13  1  0
 13 14  1  0
 13 15  2  0
 15 16  1  0
 15 17  1  0
 17 18  1  0
 18 19  2  0
 18 20  1  0
 20 21  1  0
 21 22  1  0
 21 23  1  0
 21 24  1  0
 24 25  1  0
 24 26  1  0
 24 27  1  0
 27 28  1  0
 27 29  1  0
 29 30  1  0
 30 31  2  0
 30 32  1  0
 32 33  1  0
 33 34  1  0
 33 35  1  0
 33 36  1  0
 36 37  2  0
 37 38  1  0
 37 39  1  0
 39 40  1  0
 39 41  2  0
 41 42  1  0
 41 43  1  0
 43 44  1  0
 43 45  2  0
 27 46  1  0
 46 47  1  0
 46 48  1  0
 46 49  1  0
 49 50  1  0
 49 51  1  0
 17 52  2  0
 52 53  1  0
  5 54  1  0
 54 55  1  0
 54 56  2  0
 56 57  1  0
 56 58  1  0
 58  3  1  0
 52 10  1  0
 49 20  1  0
 45 29  1  0
 45 36  1  0
M  CHG  1  58  -1
M  END
>  <UniqueID>  (85) 
81

>  <SMILES>  (85) 
[H]/N=c1/nc(C(=O)Nc2cccc(C(=O)N3CCC(N4C(=O)OCc5ccccc54)CC3)c2)cc[n-]1

>  <Energy>  (85) 
87.55367900172257

>  <Genealogy>  (85) 
N=c1nc(C(=O)Nc2cccc(C(=O)N3CCC(N4C(=O)OCc5ccccc54)CC3)c2)cc[n-]1 (protonated)
[H]/N=c1/nc(C(=O)Nc2cccc(C(=O)N3CCC(N4C(=O)OCc5ccccc54)CC3)c2)cc[n-]1 (cis-trans isomerization)
[H]/N=c1/nc(C(=O)Nc2cccc(C(=O)N3CCC(N4C(=O)OCc5ccccc54)CC3)c2)cc[n-]1 (3D coordinates assigned)
[H]/N=c1/nc(C(=O)Nc2cccc(C(=O)N3CCC(N4C(=O)OCc5ccccc54)CC3)c2)cc[n-]1 (nonaromatic ring conformer: 87.55367900172257 kcal/mol)

>  <smiles>  (85) 
N=c1nc(C(=O)Nc2cccc(C(=O)N3CCC(N4C(=O)OCc5ccccc54)CC3)c2)cc[nH]1

>  <score_type>  (85) 
oracle

>  <origin>  (85) 
adg

>  <m_score__min__energy>  (85) 
-11.92

>  <m_primary>  (85) 
energy

$$$$
85:0
     RDKit          3D

 59 62  0  0  0  0  0  0  0  0999 V2000
   54.1420   26.9520   55.5620 C   0  0  0  0  0  0  0  0  0  0  0  0
   55.0730   27.9260   54.8860 C   0  0  0  0  0  0  0  0  0  0  0  0
   56.3890   27.5220   54.6080 C   0  0  0  0  0  0  0  0  0  0  0  0
   57.2930   28.4010   54.0110 C   0  0  0  0  0  0  0  0  0  0  0  0
   56.8970   29.6940   53.6560 C   0  0  0  0  0  0  0  0  0  0  0  0
   57.8550   30.5850   53.0600 N   0  0  0  0  0  0  0  0  0  0  0  0
   57.8910   30.8990   51.6540 C   0  0  0  0  0  0  0  0  0  0  0  0
   57.0400   30.3910   50.8730 O   0  0  0  0  0  0  0  0  0  0  0  0
   58.9230   31.8060   51.0970 C   0  0  0  0  0  0  0  0  0  0  0  0
   59.4980   32.7940   51.9110 C   0  0  0  0  0  0  0  0  0  0  0  0
   60.4610   33.6670   51.3980 C   0  0  0  0  0  0  0  0  0  0  0  0
   60.8690   33.5720   50.0600 C   0  0  0  0  0  0  0  0  0  0  0  0
   61.8910   34.5390   49.5290 C   0  0  0  0  0  0  0  0  0  0  0  0
   60.2690   32.6060   49.2240 C   0  0  0  0  0  0  0  0  0  0  0  0
   60.5970   32.5320   47.8240 N   0  0  0  0  0  0  0  0  0  0  0  0
   61.8530   31.8830   47.4380 C   0  0  0  0  0  0  0  0  0  0  0  0
   59.7410   33.1560   46.8370 C   0  0  0  0  0  0  0  0  0  0  0  0
   58.4990   32.5790   46.5010 C   0  0  0  0  0  0  0  0  0  0  0  0
   57.6650   33.1850   45.5570 C   0  0  0  0  0  0  0  0  0  0  0  0
   58.0560   34.3720   44.9350 C   0  0  0  0  0  0  0  0  0  0  0  0
   59.2820   34.9570   45.2570 C   0  0  0  0  0  0  0  0  0  0  0  0
   60.1220   34.3560   46.2010 C   0  0  0  0  0  0  0  0  0  0  0  0
   59.3100   31.7270   49.7480 C   0  0  0  0  0  0  0  0  0  0  0  0
   55.5880   30.1130   53.9400 C   0  0  0  0  0  0  0  0  0  0  0  0
   54.6620   29.2390   54.5410 C   0  0  0  0  0  0  0  0  0  0  0  0
   53.2850   29.7330   54.8020 C   0  0  0  0  0  0  0  0  0  0  0  0
   52.9580   30.0860   55.9670 O   0  0  0  0  0  0  0  0  0  0  0  0
   52.2690   29.7020   53.7860 N   0  0  0  0  0  0  0  0  0  0  0  0
   51.8720   30.6860   53.0240 C   0  0  0  0  0  0  0  0  0  0  0  0
   50.9260   31.6470   53.4420 C   0  0  0  0  0  0  0  0  0  0  0  0
   50.5360   32.6600   52.5610 C   0  0  0  0  0  0  0  0  0  0  0  0
   51.0560   32.7120   51.3070 N   0  0  0  0  0  0  0  0  0  0  0  0
   51.9550   31.7930   50.8720 C   0  0  0  0  0  0  0  0  0  0  0  0
   52.3760   30.7650   51.7190 C   0  0  0  0  0  0  0  0  0  0  0  0
   54.2369   27.0513   56.6534 H   0  0  0  0  0  0  0  0  0  0  0  0
   53.1056   27.1676   55.2629 H   0  0  0  0  0  0  0  0  0  0  0  0
   54.4041   25.9264   55.2629 H   0  0  0  0  0  0  0  0  0  0  0  0
   56.7104   26.5016   54.8637 H   0  0  0  0  0  0  0  0  0  0  0  0
   58.3255   28.0742   53.8181 H   0  0  0  0  0  0  0  0  0  0  0  0
   58.6070   30.9530   53.6830 H   0  0  0  0  0  0  0  0  0  0  0  0
   59.1878   32.8820   52.9627 H   0  0  0  0  0  0  0  0  0  0  0  0
   60.9028   34.4354   52.0495 H   0  0  0  0  0  0  0  0  0  0  0  0
   62.4062   35.0265   50.3698 H   0  0  0  0  0  0  0  0  0  0  0  0
   62.6245   33.9965   48.9144 H   0  0  0  0  0  0  0  0  0  0  0  0
   61.3899   35.3013   48.9144 H   0  0  0  0  0  0  0  0  0  0  0  0
   62.4099   31.5952   48.3419 H   0  0  0  0  0  0  0  0  0  0  0  0
   61.6336   30.9854   46.8412 H   0  0  0  0  0  0  0  0  0  0  0  0
   62.4582   32.5812   46.8412 H   0  0  0  0  0  0  0  0  0  0  0  0
   58.1836   31.6435   46.9862 H   0  0  0  0  0  0  0  0  0  0  0  0
   56.6983   32.7254   45.3036 H   0  0  0  0  0  0  0  0  0  0  0  0
   57.3984   34.8462   44.1915 H   0  0  0  0  0  0  0  0  0  0  0  0
   59.5885   35.8930   44.7672 H   0  0  0  0  0  0  0  0  0  0  0  0
   61.0867   34.8228   46.4490 H   0  0  0  0  0  0  0  0  0  0  0  0
   58.8554   30.9669   49.0957 H   0  0  0  0  0  0  0  0  0  0  0  0
   55.2810   31.1391   53.6894 H   0  0  0  0  0  0  0  0  0  0  0  0
   50.4985   31.5990   54.4544 H   0  0  0  0  0  0  0  0  0  0  0  0
   49.8062   33.4170   52.8840 H   0  0  0  0  0  0  0  0  0  0  0  0
   52.3536   31.8579   49.8488 H   0  0  0  0  0  0  0  0  0  0  0  0
   53.1016   30.0192   51.3622 H   0  0  0  0  0  0  0  0  0  0  0  0
  1  2  1  0
  2  3  2  0
  3  4  1  0
  4  5  2  0
  5  6  1  0
  6  7  1  0
  7  8  2  0
  7  9  1  0
  9 10  2  0
 10 11  1  0
 11 12  2  0
 12 13  1  0
 12 14  1  0
 14 15  1  0
 15 16  1  0
 15 17  1  0
 17 18  2  0
 18 19  1  0
 19 20  2  0
 20 21  1  0
 21 22  2  0
 14 23  2  0
  5 24  1  0
 24 25  2  0
 25 26  1  0
 26 27  2  0
 26 28  1  0
 28 29  2  3
 29 30  1  0
 30 31  2  0
 31 32  1  0
 32 33  1  0
 33 34  2  0
 25  2  1  0
 34 29  1  0
 23  9  1  0
 22 17  1  0
  1 35  1  0
  1 36  1  0
  1 37  1  0
  3 38  1  0
  4 39  1  0
  6 40  1  0
 10 41  1  0
 11 42  1  0
 13 43  1  0
 13 44  1  0
 13 45  1  0
 16 46  1  0
 16 47  1  0
 16 48  1  0
 18 49  1  0
 19 50  1  0
 20 51  1  0
 21 52  1  0
 22 53  1  0
 23 54  1  0
 24 55  1  0
 30 56  1  0
 31 57  1  0
 33 58  1  0
 34 59  1  0
M  CHG  1  32  -1
M  END
>  <UniqueID>  (86) 
82

>  <SMILES>  (86) 
Cc1ccc(NC(=O)c2ccc(C)c(N(C)c3ccccc3)c2)cc1C(=O)N=c1cc[n-]cc1

>  <Energy>  (86) 
92.54349949746026

>  <Genealogy>  (86) 
Cc1ccc(NC(=O)c2ccc(C)c(N(C)c3ccccc3)c2)cc1C(=O)N=c1cc[n-]cc1 (protonated)
Cc1ccc(NC(=O)c2ccc(C)c(N(C)c3ccccc3)c2)cc1C(=O)N=c1cc[n-]cc1 (3D coordinates assigned)
Cc1ccc(NC(=O)c2ccc(C)c(N(C)c3ccccc3)c2)cc1C(=O)N=c1cc[n-]cc1 (optimized conformer: 92.54349949746026 kcal/mol)

>  <smiles>  (86) 
Cc1ccc(NC(=O)c2ccc(C)c(N(C)c3ccccc3)c2)cc1C(=O)N=c1cc[nH]cc1

>  <score_type>  (86) 
oracle

>  <origin>  (86) 
adg

>  <m_score__min__energy>  (86) 
-12.52

>  <m_primary>  (86) 
energy

$$$$
86:0
     RDKit          3D

 32 34  0  0  0  0  0  0  0  0999 V2000
   55.9010   29.8220   43.2450 C   0  0  0  0  0  0  0  0  0  0  0  0
   56.1560   30.4110   44.5150 O   0  0  0  0  0  0  0  0  0  0  0  0
   57.3900   30.3620   45.1860 C   0  0  0  0  0  0  0  0  0  0  0  0
   58.1350   31.5280   45.4430 C   0  0  0  0  0  0  0  0  0  0  0  0
   59.3590   31.4570   46.1100 C   0  0  0  0  0  0  0  0  0  0  0  0
   59.8600   30.2260   46.5310 C   0  0  0  0  0  0  0  0  0  0  0  0
   59.1370   29.0460   46.2880 C   0  0  0  0  0  0  0  0  0  0  0  0
   59.6190   27.7930   46.7060 C   0  0  0  0  0  0  0  0  0  0  0  0
   60.7200   27.6900   47.3130 O   0  0  0  0  0  0  0  0  0  0  0  0
   58.8750   26.6430   46.4470 C   0  0  0  0  0  0  0  0  0  0  0  0
   57.6530   26.7380   45.7690 C   0  0  0  0  0  0  0  0  0  0  0  0
   56.8610   25.5140   45.4910 C   0  0  0  0  0  0  0  0  0  0  0  0
   57.5120   24.3370   45.0800 C   0  0  0  0  0  0  0  0  0  0  0  0
   56.7790   23.1730   44.8260 C   0  0  0  0  0  0  0  0  0  0  0  0
   57.6040   21.7090   44.3220 Cl  0  0  0  0  0  0  0  0  0  0  0  0
   55.3900   23.1750   44.9770 C   0  0  0  0  0  0  0  0  0  0  0  0
   54.7320   24.3410   45.3770 C   0  0  0  0  0  0  0  0  0  0  0  0
   55.4580   25.5100   45.6290 C   0  0  0  0  0  0  0  0  0  0  0  0
   54.7740   26.6650   45.9940 O   0  0  0  0  0  0  0  0  0  0  0  0
   57.1910   27.9610   45.3750 N   0  0  0  0  0  0  0  0  0  0  0  0
   57.8940   29.1110   45.6100 C   0  0  0  0  0  0  0  0  0  0  0  0
   55.4676   28.8208   43.3855 H   0  0  0  0  0  0  0  0  0  0  0  0
   55.1949   30.4518   42.6839 H   0  0  0  0  0  0  0  0  0  0  0  0
   56.8434   29.7381   42.6839 H   0  0  0  0  0  0  0  0  0  0  0  0
   57.7490   32.5045   45.1151 H   0  0  0  0  0  0  0  0  0  0  0  0
   59.9309   32.3764   46.3043 H   0  0  0  0  0  0  0  0  0  0  0  0
   60.8256   30.1783   47.0557 H   0  0  0  0  0  0  0  0  0  0  0  0
   59.2474   25.6613   46.7749 H   0  0  0  0  0  0  0  0  0  0  0  0
   58.6051   24.3317   44.9574 H   0  0  0  0  0  0  0  0  0  0  0  0
   54.8143   22.2584   44.7809 H   0  0  0  0  0  0  0  0  0  0  0  0
   53.6383   24.3397   45.4943 H   0  0  0  0  0  0  0  0  0  0  0  0
   56.2610   28.0110   44.9000 H   0  0  0  0  0  0  0  0  0  0  0  0
  1  2  1  0
  2  3  1  0
  3  4  2  0
  4  5  1  0
  5  6  2  0
  6  7  1  0
  7  8  1  0
  8  9  2  0
  8 10  1  0
 10 11  2  0
 11 12  1  0
 12 13  2  0
 13 14  1  0
 14 15  1  0
 14 16  2  0
 16 17  1  0
 17 18  2  0
 18 19  1  0
 11 20  1  0
 20 21  1  0
 21  3  1  0
 21  7  2  0
 18 12  1  0
  1 22  1  0
  1 23  1  0
  1 24  1  0
  4 25  1  0
  5 26  1  0
  6 27  1  0
 10 28  1  0
 13 29  1  0
 16 30  1  0
 17 31  1  0
 20 32  1  0
M  CHG  1  19  -1
M  END
>  <UniqueID>  (87) 
83

>  <SMILES>  (87) 
COc1cccc2c(=O)cc(-c3cc(Cl)ccc3[O-])[nH]c12

>  <Energy>  (87) 
46.02974039388819

>  <Genealogy>  (87) 
COc1cccc2c(=O)cc(-c3cc(Cl)ccc3[O-])[nH]c12 (protonated)
COc1cccc2c(=O)cc(-c3cc(Cl)ccc3[O-])[nH]c12 (3D coordinates assigned)
COc1cccc2c(=O)cc(-c3cc(Cl)ccc3[O-])[nH]c12 (optimized conformer: 46.02974039388819 kcal/mol)

>  <smiles>  (87) 
COc1cccc2c(=O)cc(-c3cc(Cl)ccc3O)[nH]c12

>  <score_type>  (87) 
oracle

>  <origin>  (87) 
adg

>  <m_score__min__energy>  (87) 
-11.43

>  <m_primary>  (87) 
energy

$$$$
87:0
     RDKit          3D

 40 43  0  0  1  0  0  0  0  0999 V2000
   63.9720   33.3000   48.9320 C   0  0  0  0  0  0  0  0  0  0  0  0
   63.1740   32.8820   47.3980 S   0  0  0  0  0  0  0  0  0  0  0  0
   63.1960   34.0970   46.4990 O   0  0  0  0  0  0  0  0  0  0  0  0
   63.8640   31.7130   46.7640 O   0  0  0  0  0  0  0  0  0  0  0  0
   61.4950   32.5400   47.7420 C   0  0  0  0  0  0  0  0  0  0  0  0
   60.8650   33.1630   48.8220 C   0  0  0  0  0  0  0  0  0  0  0  0
   59.5410   32.9190   49.1270 C   0  0  0  0  0  0  0  0  0  0  0  0
   58.8240   32.0450   48.3520 C   0  0  0  0  0  0  0  0  0  0  0  0
   59.4180   31.4240   47.2930 C   0  0  0  0  0  0  0  0  0  0  0  0
   58.7870   30.3400   46.5090 C   0  0  0  0  0  0  0  0  0  0  0  0
   59.4140   29.0770   46.9280 C   0  0  0  0  0  0  0  0  0  0  0  0
   58.7970   27.8620   45.7860 S   0  0  0  0  0  0  0  0  0  0  0  0
   57.8330   28.9750   44.8990 C   0  0  0  0  0  0  0  0  0  0  0  0
   57.0740   28.6600   43.8380 N   0  0  0  0  0  0  0  0  0  0  0  0
   56.3590   29.6140   43.2240 C   0  0  0  0  0  0  0  0  0  0  0  0
   56.4480   30.8420   43.7280 N   0  0  0  0  0  0  0  0  0  0  0  0
   57.2120   31.1810   44.8070 C   0  0  0  0  0  0  0  0  0  0  0  0
   57.0990   32.2780   45.2530 N   0  0  0  0  0  0  0  0  0  0  0  0
   57.4550   33.5150   45.2350 C   0  0  0  0  0  0  0  0  0  0  0  0
   56.7520   34.5960   45.1930 O   0  0  0  0  0  0  0  0  0  0  0  0
   58.9600   33.8710   45.2890 C   0  0  0  0  0  0  0  0  0  0  0  0
   59.2730   35.3240   44.8760 C   0  0  0  0  0  0  0  0  0  0  0  0
   59.4360   34.8470   46.2660 C   0  0  0  0  0  0  0  0  0  0  0  0
   57.9910   30.2110   45.4740 C   0  0  0  0  0  0  0  0  0  0  0  0
   60.7690   31.6480   46.9500 C   0  0  0  0  0  0  0  0  0  0  0  0
   63.3443   32.9712   49.7733 H   0  0  0  0  0  0  0  0  0  0  0  0
   64.9493   32.7980   48.9856 H   0  0  0  0  0  0  0  0  0  0  0  0
   64.1158   34.3892   48.9856 H   0  0  0  0  0  0  0  0  0  0  0  0
   61.4382   33.8655   49.4449 H   0  0  0  0  0  0  0  0  0  0  0  0
   59.0663   33.4208   49.9831 H   0  0  0  0  0  0  0  0  0  0  0  0
   57.7678   31.8441   48.5845 H   0  0  0  0  0  0  0  0  0  0  0  0
   60.1112   28.9190   47.7640 H   0  0  0  0  0  0  0  0  0  0  0  0
   57.0060   27.7020   43.4530 H   0  0  0  0  0  0  0  0  0  0  0  0
   55.7310   29.3925   42.3484 H   0  0  0  0  0  0  0  0  0  0  0  0
   59.2865   32.8557   45.0196 H   0  0  0  0  0  0  0  0  0  0  0  0
   60.1549   35.5488   44.2582 H   0  0  0  0  0  0  0  0  0  0  0  0
   58.7275   36.1396   44.3789 H   0  0  0  0  0  0  0  0  0  0  0  0
   60.4470   34.7421   46.6865 H   0  0  0  0  0  0  0  0  0  0  0  0
   59.0538   35.1959   47.2367 H   0  0  0  0  0  0  0  0  0  0  0  0
   61.2321   31.1393   46.0916 H   0  0  0  0  0  0  0  0  0  0  0  0
  1  2  1  0
  2  3  2  0
  2  4  2  0
  2  5  1  0
  5  6  2  0
  6  7  1  0
  7  8  2  0
  8  9  1  0
  9 10  1  0
 10 11  2  0
 11 12  1  0
 12 13  1  0
 13 14  1  0
 14 15  1  0
 15 16  2  0
 16 17  1  0
 17 18  2  0
 18 19  1  0
 19 20  2  0
 19 21  1  0
 21 22  1  0
 22 23  1  0
 17 24  1  0
  9 25  2  0
 25  5  1  0
 24 10  1  0
 24 13  2  0
 23 21  1  0
  1 26  1  0
  1 27  1  0
  1 28  1  0
  6 29  1  0
  7 30  1  0
  8 31  1  0
 11 32  1  0
 14 33  1  0
 15 34  1  0
 21 35  1  0
 22 36  1  0
 22 37  1  0
 23 38  1  0
 23 39  1  0
 25 40  1  0
M  END
>  <smiles>  (88) 
CS(=O)(=O)c1cccc(-c2csc3[nH]cnc(=NC(=O)C4CC4)c23)c1

>  <score_type>  (88) 
oracle

>  <origin>  (88) 
adg

>  <m_score__min__energy>  (88) 
-9.0199999999999996

>  <m_primary>  (88) 
energy

$$$$
88:0
     RDKit          3D

 63 66  0  0  0  0  0  0  0  0999 V2000
   65.2560   31.9310   49.8500 C   0  0  0  0  0  0  0  0  0  0  0  0
   64.3960   33.1500   50.0320 C   0  0  0  0  0  0  0  0  0  0  0  0
   64.6280   33.9070   51.0140 O   0  0  0  0  0  0  0  0  0  0  0  0
   63.3370   33.4720   49.1020 N   0  0  0  0  0  0  0  0  0  0  0  0
   62.4600   34.6330   49.3520 C   0  0  0  0  0  0  0  0  0  0  0  0
   61.0070   34.2840   49.0020 C   0  0  0  0  0  0  0  0  0  0  0  0
   60.9120   33.5800   47.7130 N   0  0  0  0  0  0  0  0  0  0  0  0
   59.6060   33.2940   47.1720 C   0  0  0  0  0  0  0  0  0  0  0  0
   58.6620   34.1050   47.3680 O   0  0  0  0  0  0  0  0  0  0  0  0
   59.3530   32.0730   46.3790 C   0  0  0  0  0  0  0  0  0  0  0  0
   60.0450   30.8860   46.6670 C   0  0  0  0  0  0  0  0  0  0  0  0
   59.7900   29.7220   45.9340 C   0  0  0  0  0  0  0  0  0  0  0  0
   58.8550   29.7380   44.8850 C   0  0  0  0  0  0  0  0  0  0  0  0
   58.5280   28.4720   44.1310 C   0  0  0  0  0  0  0  0  0  0  0  0
   58.0490   27.3810   45.0570 C   0  0  0  0  0  0  0  0  0  0  0  0
   58.8940   26.3140   45.4140 C   0  0  0  0  0  0  0  0  0  0  0  0
   58.4370   25.3040   46.2640 C   0  0  0  0  0  0  0  0  0  0  0  0
   57.1230   25.3330   46.7520 C   0  0  0  0  0  0  0  0  0  0  0  0
   56.6320   24.2670   47.6420 C   0  0  0  0  0  0  0  0  0  0  0  0
   57.4040   23.8030   48.5240 O   0  0  0  0  0  0  0  0  0  0  0  0
   55.3100   23.7280   47.5220 N   0  0  0  0  0  0  0  0  0  0  0  0
   54.7150   23.1700   46.3070 C   0  0  0  0  0  0  0  0  0  0  0  0
   55.7710   22.6470   45.3600 C   0  0  0  0  0  0  0  0  0  0  0  0
   55.6640   22.9360   43.9870 C   0  0  0  0  0  0  0  0  0  0  0  0
   56.6380   22.4960   43.0910 C   0  0  0  0  0  0  0  0  0  0  0  0
   57.7390   21.7740   43.5540 C   0  0  0  0  0  0  0  0  0  0  0  0
   57.8570   21.4700   44.9100 C   0  0  0  0  0  0  0  0  0  0  0  0
   56.8710   21.8800   45.8180 C   0  0  0  0  0  0  0  0  0  0  0  0
   57.0080   21.4990   47.1530 O   0  0  0  0  0  0  0  0  0  0  0  0
   56.2640   26.3710   46.3660 C   0  0  0  0  0  0  0  0  0  0  0  0
   56.7250   27.3910   45.5290 C   0  0  0  0  0  0  0  0  0  0  0  0
   58.2010   30.9380   44.5640 C   0  0  0  0  0  0  0  0  0  0  0  0
   58.4420   32.0960   45.3100 C   0  0  0  0  0  0  0  0  0  0  0  0
   62.1290   33.3390   46.9260 C   0  0  0  0  0  0  0  0  0  0  0  0
   63.2190   32.7410   47.8260 C   0  0  0  0  0  0  0  0  0  0  0  0
   65.5382   31.5310   50.8351 H   0  0  0  0  0  0  0  0  0  0  0  0
   64.6957   31.1672   49.2909 H   0  0  0  0  0  0  0  0  0  0  0  0
   66.1635   32.2027   49.2909 H   0  0  0  0  0  0  0  0  0  0  0  0
   62.5209   34.9125   50.4142 H   0  0  0  0  0  0  0  0  0  0  0  0
   62.7889   35.4736   48.7233 H   0  0  0  0  0  0  0  0  0  0  0  0
   60.5951   33.6387   49.7919 H   0  0  0  0  0  0  0  0  0  0  0  0
   60.4382   35.2222   48.9232 H   0  0  0  0  0  0  0  0  0  0  0  0
   60.7923   30.8710   47.4740 H   0  0  0  0  0  0  0  0  0  0  0  0
   60.3229   28.7915   46.1795 H   0  0  0  0  0  0  0  0  0  0  0  0
   57.7387   28.6882   43.3960 H   0  0  0  0  0  0  0  0  0  0  0  0
   59.4442   28.1223   43.6328 H   0  0  0  0  0  0  0  0  0  0  0  0
   59.9208   26.2749   45.0213 H   0  0  0  0  0  0  0  0  0  0  0  0
   59.1104   24.4831   46.5514 H   0  0  0  0  0  0  0  0  0  0  0  0
   54.0440   22.3439   46.5850 H   0  0  0  0  0  0  0  0  0  0  0  0
   54.1608   23.9711   45.7960 H   0  0  0  0  0  0  0  0  0  0  0  0
   54.8044   23.5142   43.6171 H   0  0  0  0  0  0  0  0  0  0  0  0
   56.5383   22.7182   42.0183 H   0  0  0  0  0  0  0  0  0  0  0  0
   58.5153   21.4440   42.8480 H   0  0  0  0  0  0  0  0  0  0  0  0
   58.7296   20.9048   45.2693 H   0  0  0  0  0  0  0  0  0  0  0  0
   56.5140   21.9520   47.9110 H   0  0  0  0  0  0  0  0  0  0  0  0
   55.2236   26.3830   46.7230 H   0  0  0  0  0  0  0  0  0  0  0  0
   56.0472   28.2070   45.2377 H   0  0  0  0  0  0  0  0  0  0  0  0
   57.4950   30.9676   43.7210 H   0  0  0  0  0  0  0  0  0  0  0  0
   57.9160   33.0288   45.0586 H   0  0  0  0  0  0  0  0  0  0  0  0
   61.9033   32.6369   46.1098 H   0  0  0  0  0  0  0  0  0  0  0  0
   62.4856   34.2915   46.5069 H   0  0  0  0  0  0  0  0  0  0  0  0
   62.9689   31.6912   48.0388 H   0  0  0  0  0  0  0  0  0  0  0  0
   64.1803   32.8187   47.2970 H   0  0  0  0  0  0  0  0  0  0  0  0
  1  2  1  0
  2  3  2  0
  2  4  1  0
  4  5  1  0
  5  6  1  0
  6  7  1  0
  7  8  1  0
  8  9  2  0
  8 10  1  0
 10 11  2  0
 11 12  1  0
 12 13  2  0
 13 14  1  0
 14 15  1  0
 15 16  2  0
 16 17  1  0
 17 18  2  0
 18 19  1  0
 19 20  2  0
 19 21  1  0
 21 22  1  0
 22 23  1  0
 23 24  2  0
 24 25  1  0
 25 26  2  0
 26 27  1  0
 27 28  2  0
 28 29  1  0
 18 30  1  0
 30 31  2  0
 13 32  1  0
 32 33  2  0
  7 34  1  0
 34 35  1  0
 35  4  1  0
 33 10  1  0
 31 15  1  0
 28 23  1  0
  1 36  1  0
  1 37  1  0
  1 38  1  0
  5 39  1  0
  5 40  1  0
  6 41  1  0
  6 42  1  0
 11 43  1  0
 12 44  1  0
 14 45  1  0
 14 46  1  0
 16 47  1  0
 17 48  1  0
 22 49  1  0
 22 50  1  0
 24 51  1  0
 25 52  1  0
 26 53  1  0
 27 54  1  0
 29 55  1  0
 30 56  1  0
 31 57  1  0
 32 58  1  0
 33 59  1  0
 34 60  1  0
 34 61  1  0
 35 62  1  0
 35 63  1  0
M  CHG  1  21  -1
M  END
>  <UniqueID>  (89) 
84

>  <SMILES>  (89) 
CC(=O)N1CCN(C(=O)c2ccc(Cc3ccc(C(=O)[N-]Cc4ccccc4O)cc3)cc2)CC1

>  <Energy>  (89) 
72.76848855465792

>  <Genealogy>  (89) 
CC(=O)N1CCN(C(=O)c2ccc(Cc3ccc(C(=O)[N-]Cc4ccccc4O)cc3)cc2)CC1 (protonated)
CC(=O)N1CCN(C(=O)c2ccc(Cc3ccc(C(=O)[N-]Cc4ccccc4O)cc3)cc2)CC1 (3D coordinates assigned)
CC(=O)N1CCN(C(=O)c2ccc(Cc3ccc(C(=O)[N-]Cc4ccccc4O)cc3)cc2)CC1 (nonaromatic ring conformer: 72.76848855465792 kcal/mol)

>  <smiles>  (89) 
CC(=O)N1CCN(C(=O)c2ccc(Cc3ccc(C(=O)NCc4ccccc4O)cc3)cc2)CC1

>  <score_type>  (89) 
oracle

>  <origin>  (89) 
adg

>  <m_score__min__energy>  (89) 
-12.640000000000001

>  <m_primary>  (89) 
energy

$$$$
89:0
     RDKit          3D

 44 46  0  0  0  0  0  0  0  0999 V2000
   59.5040   25.7270   46.7040 C   0  0  0  0  0  0  0  0  0  0  0  0
   58.9680   26.9700   46.0490 C   0  0  0  0  0  0  0  0  0  0  0  0
   59.8520   27.9240   45.5250 C   0  0  0  0  0  0  0  0  0  0  0  0
   59.3650   29.0890   44.9300 C   0  0  0  0  0  0  0  0  0  0  0  0
   57.9870   29.3160   44.8380 C   0  0  0  0  0  0  0  0  0  0  0  0
   57.3830   30.8350   44.1640 S   0  0  0  0  0  0  0  0  0  0  0  0
   57.1260   30.6470   42.6940 O   0  0  0  0  0  0  0  0  0  0  0  0
   56.0640   31.1420   44.8180 O   0  0  0  0  0  0  0  0  0  0  0  0
   58.4570   32.2020   44.4080 N   0  0  0  0  0  0  0  0  0  0  0  0
   57.8010   33.4980   44.1170 C   0  0  0  0  0  0  0  0  0  0  0  0
   57.2660   34.1930   45.3840 C   0  0  0  0  0  0  0  0  0  0  0  0
   56.9530   33.2470   46.3790 O   0  0  0  0  0  0  0  0  0  0  0  0
   58.1370   32.6390   46.8610 C   0  0  0  0  0  0  0  0  0  0  0  0
   59.0960   32.1860   45.7400 C   0  0  0  0  0  0  0  0  0  0  0  0
   57.0970   28.3600   45.3510 C   0  0  0  0  0  0  0  0  0  0  0  0
   57.5780   27.1840   45.9550 C   0  0  0  0  0  0  0  0  0  0  0  0
   56.6720   26.2390   46.5430 N   0  0  0  0  0  0  0  0  0  0  0  0
   55.6230   25.5610   45.8440 C   0  0  0  0  0  0  0  0  0  0  0  0
   54.4380   25.9670   45.9860 O   0  0  0  0  0  0  0  0  0  0  0  0
   55.8930   24.3610   45.0190 C   0  0  0  0  0  0  0  0  0  0  0  0
   57.1960   23.8510   44.9070 C   0  0  0  0  0  0  0  0  0  0  0  0
   57.4490   22.7420   44.0980 C   0  0  0  0  0  0  0  0  0  0  0  0
   56.3960   22.1560   43.3920 C   0  0  0  0  0  0  0  0  0  0  0  0
   56.6060   21.1560   42.6570 O   0  0  0  0  0  0  0  0  0  0  0  0
   55.1400   22.6650   43.5000 N   0  0  0  0  0  0  0  0  0  0  0  0
   54.8670   23.7390   44.2870 C   0  0  0  0  0  0  0  0  0  0  0  0
   59.4558   25.8387   47.7972 H   0  0  0  0  0  0  0  0  0  0  0  0
   58.8994   24.8609   46.3969 H   0  0  0  0  0  0  0  0  0  0  0  0
   60.5489   25.5722   46.3969 H   0  0  0  0  0  0  0  0  0  0  0  0
   60.9371   27.7531   45.5832 H   0  0  0  0  0  0  0  0  0  0  0  0
   60.0691   29.8338   44.5307 H   0  0  0  0  0  0  0  0  0  0  0  0
   59.2250   32.0760   43.7050 H   0  0  0  0  0  0  0  0  0  0  0  0
   58.5330   34.1621   43.6341 H   0  0  0  0  0  0  0  0  0  0  0  0
   56.9410   33.2947   43.4620 H   0  0  0  0  0  0  0  0  0  0  0  0
   58.0330   34.8810   45.7691 H   0  0  0  0  0  0  0  0  0  0  0  0
   56.3516   34.7461   45.1233 H   0  0  0  0  0  0  0  0  0  0  0  0
   58.6649   33.3624   47.4997 H   0  0  0  0  0  0  0  0  0  0  0  0
   57.8359   31.7369   47.4137 H   0  0  0  0  0  0  0  0  0  0  0  0
   59.9635   32.8622   45.7232 H   0  0  0  0  0  0  0  0  0  0  0  0
   59.3952   31.1495   45.9547 H   0  0  0  0  0  0  0  0  0  0  0  0
   56.0128   28.5318   45.2802 H   0  0  0  0  0  0  0  0  0  0  0  0
   58.0203   24.3268   45.4585 H   0  0  0  0  0  0  0  0  0  0  0  0
   58.4673   22.3338   44.0173 H   0  0  0  0  0  0  0  0  0  0  0  0
   53.8383   24.1232   44.3513 H   0  0  0  0  0  0  0  0  0  0  0  0
  1  2  1  0
  2  3  2  0
  3  4  1  0
  4  5  2  0
  5  6  1  0
  6  7  2  0
  6  8  2  0
  6  9  1  0
  9 10  1  0
 10 11  1  0
 11 12  1  0
 12 13  1  0
 13 14  1  0
  5 15  1  0
 15 16  2  0
 16 17  1  0
 17 18  1  0
 18 19  2  0
 18 20  1  0
 20 21  1  0
 21 22  2  0
 22 23  1  0
 23 24  2  0
 23 25  1  0
 25 26  1  0
 16  2  1  0
 26 20  2  0
 14  9  1  0
  1 27  1  0
  1 28  1  0
  1 29  1  0
  3 30  1  0
  4 31  1  0
  9 32  1  0
 10 33  1  0
 10 34  1  0
 11 35  1  0
 11 36  1  0
 13 37  1  0
 13 38  1  0
 14 39  1  0
 14 40  1  0
 15 41  1  0
 21 42  1  0
 22 43  1  0
 26 44  1  0
M  CHG  3   9   1  17  -1  25  -1
M  END
>  <UniqueID>  (90) 
85

>  <SMILES>  (90) 
Cc1ccc(S(=O)(=O)[NH+]2CCOCC2)cc1[N-]C(=O)c1ccc(=O)[n-]c1

>  <Energy>  (90) 
62.14923265061761

>  <Genealogy>  (90) 
Cc1ccc(S(=O)(=O)[NH+]2CCOCC2)cc1[N-]C(=O)c1ccc(=O)[n-]c1 (protonated)
Cc1ccc(S(=O)(=O)[NH+]2CCOCC2)cc1[N-]C(=O)c1ccc(=O)[n-]c1 (3D coordinates assigned)
Cc1ccc(S(=O)(=O)[NH+]2CCOCC2)cc1[N-]C(=O)c1ccc(=O)[n-]c1 (nonaromatic ring conformer: 62.14923265061761 kcal/mol)

>  <smiles>  (90) 
Cc1ccc(S(=O)(=O)N2CCOCC2)cc1NC(=O)c1ccc(=O)[nH]c1

>  <score_type>  (90) 
oracle

>  <origin>  (90) 
adg

>  <m_score__min__energy>  (90) 
-11.199999999999999

>  <m_primary>  (90) 
energy

$$$$
90:0
     RDKit          3D

 43 47  0  0  0  0  0  0  0  0999 V2000
   54.7740   27.4670   46.3720 H   0  0  0  0  0  0  0  0  0  0  0  0
   55.1300   26.6920   45.8260 O   0  0  0  0  0  0  0  0  0  0  0  0
   56.1120   25.8540   46.3450 C   0  0  0  0  0  0  0  0  0  0  0  0
   55.8560   24.8030   47.1410 N   0  0  0  0  0  0  0  0  0  0  0  0
   57.0920   24.3230   47.4010 C   0  0  0  0  0  0  0  0  0  0  0  0
   57.2890   23.3230   48.1380 O   0  0  0  0  0  0  0  0  0  0  0  0
   58.0990   25.0090   46.8190 N   0  0  0  0  0  0  0  0  0  0  0  0
   57.4640   25.9730   46.1290 C   0  0  0  0  0  0  0  0  0  0  0  0
   58.1210   27.0730   45.3960 C   0  0  0  0  0  0  0  0  0  0  0  0
   59.0164   26.8229   44.8081 H   0  0  0  0  0  0  0  0  0  0  0  0
   57.7170   28.3530   45.3870 C   0  0  0  0  0  0  0  0  0  0  0  0
   56.6660   28.8610   44.6260 C   0  0  0  0  0  0  0  0  0  0  0  0
   56.0295   28.2668   43.9539 H   0  0  0  0  0  0  0  0  0  0  0  0
   56.5430   30.1930   44.8350 N   0  0  0  0  0  0  0  0  0  0  0  0
   57.4880   30.5420   45.6940 N   0  0  0  0  0  0  0  0  0  0  0  0
   57.7870   31.7840   46.1770 C   0  0  0  0  0  0  0  0  0  0  0  0
   57.1020   32.8510   45.8780 N   0  0  0  0  0  0  0  0  0  0  0  0
   57.5120   33.9270   44.9820 C   0  0  0  0  0  0  0  0  0  0  0  0
   56.5084   34.2817   44.7047 H   0  0  0  0  0  0  0  0  0  0  0  0
   58.8080   34.6070   45.3870 C   0  0  0  0  0  0  0  0  0  0  0  0
   58.9557   35.6775   45.1813 H   0  0  0  0  0  0  0  0  0  0  0  0
   59.3735   34.7100   46.3249 H   0  0  0  0  0  0  0  0  0  0  0  0
   58.7950   33.6060   44.2410 C   0  0  0  0  0  0  0  0  0  0  0  0
   58.9341   33.9526   43.2063 H   0  0  0  0  0  0  0  0  0  0  0  0
   59.3483   32.6846   44.0067 H   0  0  0  0  0  0  0  0  0  0  0  0
   58.8560   31.8990   47.0120 N   0  0  0  0  0  0  0  0  0  0  0  0
   59.6080   30.8070   47.3470 C   0  0  0  0  0  0  0  0  0  0  0  0
   60.7710   30.9570   48.2330 C   0  0  0  0  0  0  0  0  0  0  0  0
   61.9110   32.1890   48.1460 S   0  0  0  0  0  0  0  0  0  0  0  0
   62.8530   31.6760   49.4480 C   0  0  0  0  0  0  0  0  0  0  0  0
   64.0600   32.3280   50.0110 C   0  0  0  0  0  0  0  0  0  0  0  0
   65.1260   31.6590   50.0750 O   0  0  0  0  0  0  0  0  0  0  0  0
   64.0940   33.6850   50.4790 N   0  0  0  0  0  0  0  0  0  0  0  0
   62.9900   34.6310   50.5040 C   0  0  0  0  0  0  0  0  0  0  0  0
   62.7252   34.8579   51.5472 H   0  0  0  0  0  0  0  0  0  0  0  0
   63.2892   35.5574   49.9918 H   0  0  0  0  0  0  0  0  0  0  0  0
   62.1204   34.1933   49.9918 H   0  0  0  0  0  0  0  0  0  0  0  0
   62.2630   30.5260   49.9710 C   0  0  0  0  0  0  0  0  0  0  0  0
   62.6696   29.9844   50.8378 H   0  0  0  0  0  0  0  0  0  0  0  0
   61.1060   30.1230   49.2930 C   0  0  0  0  0  0  0  0  0  0  0  0
   60.5204   29.2345   49.5717 H   0  0  0  0  0  0  0  0  0  0  0  0
   59.2870   29.5790   46.8510 N   0  0  0  0  0  0  0  0  0  0  0  0
   58.2090   29.4700   46.0410 C   0  0  0  0  0  0  0  0  0  0  0  0
  1  2  1  0
  2  3  1  0
  3  4  1  0
  4  5  1  0
  5  6  2  0
  5  7  1  0
  7  8  1  0
  8  9  1  0
  9 10  1  0
  9 11  2  0
 11 12  1  0
 12 13  1  0
 12 14  2  0
 14 15  1  0
 15 16  1  0
 16 17  2  3
 17 18  1  0
 18 19  1  0
 18 20  1  0
 20 21  1  0
 20 22  1  0
 20 23  1  0
 23 24  1  0
 23 25  1  0
 16 26  1  0
 26 27  2  0
 27 28  1  0
 28 29  1  0
 29 30  1  0
 30 31  1  0
 31 32  2  0
 31 33  1  0
 33 34  1  0
 34 35  1  0
 34 36  1  0
 34 37  1  0
 30 38  2  0
 38 39  1  0
 38 40  1  0
 40 41  1  0
 27 42  1  0
 42 43  2  0
  8  3  2  0
 43 11  1  0
 43 15  1  0
 23 18  1  0
 40 28  2  0
M  CHG  3   4  -1   7  -1  33  -1
M  END
>  <UniqueID>  (91) 
86

>  <SMILES>  (91) 
C[N-]C(=O)c1ccc(-c2nc(=NC3CC3)n3nc/c(=C/c4[n-]c(=O)[n-]c4O)c3n2)s1

>  <Energy>  (91) 
412.76771997167583

>  <Genealogy>  (91) 
C[N-]C(=O)c1ccc(-c2nc(=NC3CC3)n3ncc(=Cc4[n-]c(=O)[n-]c4O)c3n2)s1 (protonated)
C[N-]C(=O)c1ccc(-c2nc(=NC3CC3)n3nc/c(=C/c4[n-]c(=O)[n-]c4O)c3n2)s1 (cis-trans isomerization)
C[N-]C(=O)c1ccc(-c2nc(=NC3CC3)n3nc/c(=C/c4[n-]c(=O)[n-]c4O)c3n2)s1 (3D coordinates assigned)
C[N-]C(=O)c1ccc(-c2nc(=NC3CC3)n3nc/c(=C/c4[n-]c(=O)[n-]c4O)c3n2)s1 (nonaromatic ring conformer: 412.76771997167583 kcal/mol)

>  <smiles>  (91) 
CNC(=O)c1ccc(-c2nc(=NC3CC3)n3ncc(=Cc4[nH]c(=O)[nH]c4O)c3n2)s1

>  <score_type>  (91) 
oracle

>  <origin>  (91) 
adg

>  <m_score__min__energy>  (91) 
-14.039999999999999

>  <m_primary>  (91) 
energy

$$$$
91:0
     RDKit          3D

 51 52  0  0  0  0  0  0  0  0999 V2000
   58.1410   32.0390   43.0140 C   0  0  0  0  0  0  0  0  0  0  0  0
   57.2850   31.7770   44.1760 N   0  0  0  0  0  0  0  0  0  0  0  0
   57.0460   32.8520   45.1500 C   0  0  0  0  0  0  0  0  0  0  0  0
   58.3500   33.4330   45.5950 C   0  0  0  0  0  0  0  0  0  0  0  0
   58.7020   34.7210   45.3920 N   0  0  0  0  0  0  0  0  0  0  0  0
   59.9270   34.8010   45.9480 C   0  0  0  0  0  0  0  0  0  0  0  0
   60.2670   33.5660   46.4650 C   0  0  0  0  0  0  0  0  0  0  0  0
   61.5500   33.1930   47.1780 C   0  0  0  0  0  0  0  0  0  0  0  0
   61.5300   33.7690   48.6070 C   0  0  0  0  0  0  0  0  0  0  0  0
   62.7630   33.7720   46.4210 C   0  0  0  0  0  0  0  0  0  0  0  0
   61.6760   31.6600   47.2370 C   0  0  0  0  0  0  0  0  0  0  0  0
   59.2700   32.7480   46.2360 O   0  0  0  0  0  0  0  0  0  0  0  0
   56.7110   30.4670   44.4070 C   0  0  0  0  0  0  0  0  0  0  0  0
   55.4570   30.3440   44.4710 O   0  0  0  0  0  0  0  0  0  0  0  0
   57.5630   29.2310   44.6150 C   0  0  1  0  0  0  0  0  0  0  0  0
   59.0650   29.5730   44.4780 C   0  0  0  0  0  0  0  0  0  0  0  0
   59.9660   28.5970   45.2560 C   0  0  0  0  0  0  0  0  0  0  0  0
   59.2910   27.2310   45.4240 C   0  0  0  0  0  0  0  0  0  0  0  0
   58.0340   27.3320   46.2020 N   0  0  0  0  0  0  0  0  0  0  0  0
   57.0290   25.9340   45.9010 S   0  0  0  0  0  0  0  0  0  0  0  0
   57.3650   25.2620   44.2850 C   0  0  0  0  0  0  0  0  0  0  0  0
   55.5760   26.3130   45.9860 O   0  0  0  0  0  0  0  0  0  0  0  0
   57.3230   24.8740   46.9260 O   0  0  0  0  0  0  0  0  0  0  0  0
   57.2740   28.5900   45.9860 C   0  0  0  0  0  0  0  0  0  0  0  0
   59.1406   32.3449   43.3565 H   0  0  0  0  0  0  0  0  0  0  0  0
   58.2250   31.1255   42.4071 H   0  0  0  0  0  0  0  0  0  0  0  0
   57.6993   32.8431   42.4071 H   0  0  0  0  0  0  0  0  0  0  0  0
   56.4363   33.6392   44.6825 H   0  0  0  0  0  0  0  0  0  0  0  0
   56.5160   32.4405   46.0216 H   0  0  0  0  0  0  0  0  0  0  0  0
   60.5546   35.7037   45.9843 H   0  0  0  0  0  0  0  0  0  0  0  0
   61.5586   32.9448   49.3350 H   0  0  0  0  0  0  0  0  0  0  0  0
   62.4062   34.4179   48.7531 H   0  0  0  0  0  0  0  0  0  0  0  0
   60.6109   34.3555   48.7531 H   0  0  0  0  0  0  0  0  0  0  0  0
   63.5106   34.1289   47.1447 H   0  0  0  0  0  0  0  0  0  0  0  0
   63.2086   32.9895   45.7893 H   0  0  0  0  0  0  0  0  0  0  0  0
   62.4348   34.6105   45.7893 H   0  0  0  0  0  0  0  0  0  0  0  0
   61.7028   31.3345   48.2874 H   0  0  0  0  0  0  0  0  0  0  0  0
   60.8125   31.2015   46.7329 H   0  0  0  0  0  0  0  0  0  0  0  0
   62.6028   31.3486   46.7329 H   0  0  0  0  0  0  0  0  0  0  0  0
   57.3026   28.5012   43.8343 H   0  0  0  0  0  0  0  0  0  0  0  0
   59.3398   29.5343   43.4136 H   0  0  0  0  0  0  0  0  0  0  0  0
   59.2185   30.5774   44.8995 H   0  0  0  0  0  0  0  0  0  0  0  0
   60.9100   28.4653   44.7069 H   0  0  0  0  0  0  0  0  0  0  0  0
   60.1529   29.0176   46.2551 H   0  0  0  0  0  0  0  0  0  0  0  0
   59.0623   26.8218   44.4289 H   0  0  0  0  0  0  0  0  0  0  0  0
   59.9812   26.5729   45.9722 H   0  0  0  0  0  0  0  0  0  0  0  0
   57.8547   24.2826   44.3897 H   0  0  0  0  0  0  0  0  0  0  0  0
   56.4205   25.1426   43.7339 H   0  0  0  0  0  0  0  0  0  0  0  0
   58.0272   25.9460   43.7339 H   0  0  0  0  0  0  0  0  0  0  0  0
   56.1988   28.3671   46.0507 H   0  0  0  0  0  0  0  0  0  0  0  0
   57.5883   29.3053   46.7603 H   0  0  0  0  0  0  0  0  0  0  0  0
  1  2  1  0
  2  3  1  0
  3  4  1  0
  4  5  2  0
  5  6  1  0
  6  7  2  0
  7  8  1  0
  8  9  1  0
  8 10  1  0
  8 11  1  0
  7 12  1  0
  2 13  1  0
 13 14  2  0
 13 15  1  0
 15 16  1  0
 16 17  1  0
 17 18  1  0
 18 19  1  0
 19 20  1  0
 20 21  1  0
 20 22  2  0
 20 23  2  0
 19 24  1  0
 12  4  1  0
 24 15  1  0
  1 25  1  0
  1 26  1  0
  1 27  1  0
  3 28  1  0
  3 29  1  0
  6 30  1  0
  9 31  1  0
  9 32  1  0
  9 33  1  0
 10 34  1  0
 10 35  1  0
 10 36  1  0
 11 37  1  0
 11 38  1  0
 11 39  1  0
 15 40  1  6
 16 41  1  0
 16 42  1  0
 17 43  1  0
 17 44  1  0
 18 45  1  0
 18 46  1  0
 21 47  1  0
 21 48  1  0
 21 49  1  0
 24 50  1  0
 24 51  1  0
M  END
>  <UniqueID>  (92) 
87

>  <SMILES>  (92) 
CN(Cc1ncc(C(C)(C)C)o1)C(=O)[C@H]1CCCN(S(C)(=O)=O)C1

>  <Energy>  (92) 
72.63490166504094

>  <Genealogy>  (92) 
CN(Cc1ncc(C(C)(C)C)o1)C(=O)[C@H]1CCCN(S(C)(=O)=O)C1 (chirality)
CN(Cc1ncc(C(C)(C)C)o1)C(=O)[C@H]1CCCN(S(C)(=O)=O)C1 (3D coordinates assigned)
CN(Cc1ncc(C(C)(C)C)o1)C(=O)[C@H]1CCCN(S(C)(=O)=O)C1 (nonaromatic ring conformer: 72.63490166504094 kcal/mol)

>  <smiles>  (92) 
CN(Cc1ncc(C(C)(C)C)o1)C(=O)C1CCCN(S(C)(=O)=O)C1

>  <score_type>  (92) 
oracle

>  <origin>  (92) 
adg

>  <m_score__min__energy>  (92) 
-8.5399999999999991

>  <m_primary>  (92) 
energy

$$$$
92:0
     RDKit          3D

 53 55  0  0  0  0  0  0  0  0999 V2000
   64.7130   31.3750   51.2570 C   0  0  0  0  0  0  0  0  0  0  0  0
   64.9510   32.8180   50.2460 S   0  0  0  0  0  0  0  0  0  0  0  0
   66.3570   32.8350   49.7160 O   0  0  0  0  0  0  0  0  0  0  0  0
   64.7340   34.0530   51.0750 O   0  0  0  0  0  0  0  0  0  0  0  0
   63.8100   32.7840   48.9060 C   0  0  0  0  0  0  0  0  0  0  0  0
   63.7770   33.8420   47.9870 C   0  0  0  0  0  0  0  0  0  0  0  0
   62.8760   33.8170   46.9220 C   0  0  0  0  0  0  0  0  0  0  0  0
   62.0130   32.7290   46.7590 C   0  0  0  0  0  0  0  0  0  0  0  0
   62.0580   31.6460   47.6510 C   0  0  0  0  0  0  0  0  0  0  0  0
   61.1480   30.5470   47.4630 N   0  0  0  0  0  0  0  0  0  0  0  0
   60.3690   29.9530   48.5170 C   0  0  0  0  0  0  0  0  0  0  0  0
   60.3430   30.4690   49.6640 O   0  0  0  0  0  0  0  0  0  0  0  0
   59.5800   28.7800   48.2750 N   0  0  0  0  0  0  0  0  0  0  0  0
   59.0850   28.3550   46.9990 C   0  0  0  0  0  0  0  0  0  0  0  0
   59.4380   27.1080   46.4510 C   0  0  0  0  0  0  0  0  0  0  0  0
   58.9110   26.7060   45.2210 C   0  0  0  0  0  0  0  0  0  0  0  0
   58.0190   27.5360   44.5360 C   0  0  0  0  0  0  0  0  0  0  0  0
   57.6460   28.7690   45.0830 C   0  0  0  0  0  0  0  0  0  0  0  0
   56.4920   29.7870   44.2230 S   0  0  0  0  0  0  0  0  0  0  0  0
   55.1030   29.2890   44.5010 O   0  0  0  0  0  0  0  0  0  0  0  0
   56.7380   29.7230   42.7400 O   0  0  0  0  0  0  0  0  0  0  0  0
   56.6270   31.4320   44.7610 N   0  0  0  0  0  0  0  0  0  0  0  0
   57.8050   32.0540   44.1580 C   0  0  0  0  0  0  0  0  0  0  0  0
   57.8900   33.5250   44.5710 C   0  0  0  0  0  0  0  0  0  0  0  0
   58.4590   33.6760   45.9590 C   0  0  0  0  0  0  0  0  0  0  0  0
   58.1780   32.7170   46.9470 C   0  0  0  0  0  0  0  0  0  0  0  0
   58.6820   32.8720   48.2410 C   0  0  0  0  0  0  0  0  0  0  0  0
   59.4620   33.9860   48.5600 C   0  0  0  0  0  0  0  0  0  0  0  0
   59.7370   34.9500   47.5860 C   0  0  0  0  0  0  0  0  0  0  0  0
   59.2350   34.7990   46.2910 C   0  0  0  0  0  0  0  0  0  0  0  0
   58.1690   29.1680   46.3210 C   0  0  0  0  0  0  0  0  0  0  0  0
   62.9490   31.6900   48.7380 C   0  0  0  0  0  0  0  0  0  0  0  0
   64.7599   31.6593   52.3186 H   0  0  0  0  0  0  0  0  0  0  0  0
   63.7298   30.9326   51.0390 H   0  0  0  0  0  0  0  0  0  0  0  0
   65.5021   30.6403   51.0390 H   0  0  0  0  0  0  0  0  0  0  0  0
   64.4629   34.6937   48.1057 H   0  0  0  0  0  0  0  0  0  0  0  0
   62.8445   34.6545   46.2095 H   0  0  0  0  0  0  0  0  0  0  0  0
   61.2942   32.7217   45.9264 H   0  0  0  0  0  0  0  0  0  0  0  0
   61.1300   30.0990   46.5200 H   0  0  0  0  0  0  0  0  0  0  0  0
   60.1311   26.4475   46.9927 H   0  0  0  0  0  0  0  0  0  0  0  0
   59.1984   25.7351   44.7912 H   0  0  0  0  0  0  0  0  0  0  0  0
   57.6095   27.2195   43.5654 H   0  0  0  0  0  0  0  0  0  0  0  0
   58.7090   31.5275   44.4979 H   0  0  0  0  0  0  0  0  0  0  0  0
   57.7257   31.9907   43.0627 H   0  0  0  0  0  0  0  0  0  0  0  0
   58.5364   34.0595   43.8594 H   0  0  0  0  0  0  0  0  0  0  0  0
   56.8731   33.9445   44.5668 H   0  0  0  0  0  0  0  0  0  0  0  0
   57.5593   31.8414   46.7009 H   0  0  0  0  0  0  0  0  0  0  0  0
   58.4642   32.1157   49.0095 H   0  0  0  0  0  0  0  0  0  0  0  0
   59.8601   34.1047   49.5785 H   0  0  0  0  0  0  0  0  0  0  0  0
   60.3491   35.8282   47.8393 H   0  0  0  0  0  0  0  0  0  0  0  0
   59.4482   35.5625   45.5283 H   0  0  0  0  0  0  0  0  0  0  0  0
   57.8576   30.1262   46.7625 H   0  0  0  0  0  0  0  0  0  0  0  0
   62.9707   30.8612   49.4609 H   0  0  0  0  0  0  0  0  0  0  0  0
  1  2  1  0
  2  3  2  0
  2  4  2  0
  2  5  1  0
  5  6  2  0
  6  7  1  0
  7  8  2  0
  8  9  1  0
  9 10  1  0
 10 11  1  0
 11 12  2  0
 11 13  1  0
 13 14  1  0
 14 15  2  0
 15 16  1  0
 16 17  2  0
 17 18  1  0
 18 19  1  0
 19 20  2  0
 19 21  2  0
 19 22  1  0
 22 23  1  0
 23 24  1  0
 24 25  1  0
 25 26  2  0
 26 27  1  0
 27 28  2  0
 28 29  1  0
 29 30  2  0
 18 31  2  0
  9 32  2  0
 32  5  1  0
 31 14  1  0
 30 25  1  0
  1 33  1  0
  1 34  1  0
  1 35  1  0
  6 36  1  0
  7 37  1  0
  8 38  1  0
 10 39  1  0
 15 40  1  0
 16 41  1  0
 17 42  1  0
 23 43  1  0
 23 44  1  0
 24 45  1  0
 24 46  1  0
 26 47  1  0
 27 48  1  0
 28 49  1  0
 29 50  1  0
 30 51  1  0
 31 52  1  0
 32 53  1  0
M  CHG  2  13  -1  22  -1
M  END
>  <UniqueID>  (93) 
88

>  <SMILES>  (93) 
CS(=O)(=O)c1cccc(NC(=O)[N-]c2cccc(S(=O)(=O)[N-]CCc3ccccc3)c2)c1

>  <Energy>  (93) 
55.99538581082175

>  <Genealogy>  (93) 
CS(=O)(=O)c1cccc(NC(=O)[N-]c2cccc(S(=O)(=O)[N-]CCc3ccccc3)c2)c1 (protonated)
CS(=O)(=O)c1cccc(NC(=O)[N-]c2cccc(S(=O)(=O)[N-]CCc3ccccc3)c2)c1 (3D coordinates assigned)
CS(=O)(=O)c1cccc(NC(=O)[N-]c2cccc(S(=O)(=O)[N-]CCc3ccccc3)c2)c1 (optimized conformer: 55.99538581082175 kcal/mol)

>  <smiles>  (93) 
CS(=O)(=O)c1cccc(NC(=O)Nc2cccc(S(=O)(=O)NCCc3ccccc3)c2)c1

>  <score_type>  (93) 
oracle

>  <origin>  (93) 
adg

>  <m_score__min__energy>  (93) 
-12.59

>  <m_primary>  (93) 
energy

$$$$
93:0
     RDKit          3D

 64 67  0  0  0  0  0  0  0  0999 V2000
   59.4150   22.0740   44.2400 C   0  0  0  0  0  0  0  0  0  0  0  0
   57.9770   22.5170   44.2640 C   0  0  0  0  0  0  0  0  0  0  0  0
   57.0520   21.8390   43.4590 C   0  0  0  0  0  0  0  0  0  0  0  0
   55.7520   22.2250   43.4290 N   0  0  0  0  0  0  0  0  0  0  0  0
   55.2910   23.2680   44.1660 C   0  0  0  0  0  0  0  0  0  0  0  0
   54.0740   23.5870   44.0930 O   0  0  0  0  0  0  0  0  0  0  0  0
   56.1650   23.9830   44.9970 C   0  0  0  0  0  0  0  0  0  0  0  0
   55.5300   25.3590   45.9150 Cl  0  0  0  0  0  0  0  0  0  0  0  0
   57.5260   23.5980   45.0680 C   0  0  0  0  0  0  0  0  0  0  0  0
   58.4880   24.3850   45.9410 C   0  0  0  0  0  0  0  0  0  0  0  0
   58.7560   25.7670   45.3350 C   0  0  0  0  0  0  0  0  0  0  0  0
   58.5650   26.8540   46.3660 C   0  0  0  0  0  0  0  0  0  0  0  0
   58.2840   26.5290   47.5490 O   0  0  0  0  0  0  0  0  0  0  0  0
   58.7680   28.2430   46.0590 N   0  0  0  0  0  0  0  0  0  0  0  0
   57.8470   29.0710   45.3430 C   0  0  0  0  0  0  0  0  0  0  0  0
   56.6340   28.5290   44.9070 C   0  0  0  0  0  0  0  0  0  0  0  0
   55.6940   29.3440   44.2700 C   0  0  0  0  0  0  0  0  0  0  0  0
   55.9590   30.7010   44.0720 C   0  0  0  0  0  0  0  0  0  0  0  0
   57.1800   31.2490   44.4990 C   0  0  0  0  0  0  0  0  0  0  0  0
   57.4690   32.6160   44.3900 O   0  0  0  0  0  0  0  0  0  0  0  0
   56.9970   33.6080   45.2990 C   0  0  0  0  0  0  0  0  0  0  0  0
   58.0830   33.9690   46.2740 C   0  0  0  0  0  0  0  0  0  0  0  0
   58.3390   33.3000   47.4550 C   0  0  0  0  0  0  0  0  0  0  0  0
   59.5040   33.8800   47.9300 C   0  0  0  0  0  0  0  0  0  0  0  0
   60.2210   33.5040   49.1590 C   0  0  0  0  0  0  0  0  0  0  0  0
   59.6000   33.4650   50.2540 O   0  0  0  0  0  0  0  0  0  0  0  0
   61.6170   33.1680   49.1200 N   0  0  0  0  0  0  0  0  0  0  0  0
   62.5890   34.1400   48.6080 C   0  0  0  0  0  0  0  0  0  0  0  0
   63.7800   33.4500   47.9070 C   0  0  0  0  0  0  0  0  0  0  0  0
   63.8530   32.0040   48.1700 N   0  0  0  0  0  0  0  0  0  0  0  0
   63.5500   31.7020   49.5730 C   0  0  0  0  0  0  0  0  0  0  0  0
   62.0720   31.9760   49.8400 C   0  0  0  0  0  0  0  0  0  0  0  0
   59.9070   34.8430   47.0780 N   0  0  0  0  0  0  0  0  0  0  0  0
   59.0550   34.8890   46.0680 N   0  0  0  0  0  0  0  0  0  0  0  0
   59.2760   35.6720   44.8580 C   0  0  0  0  0  0  0  0  0  0  0  0
   58.1380   30.4180   45.0810 C   0  0  0  0  0  0  0  0  0  0  0  0
   59.7812   21.9612   45.2711 H   0  0  0  0  0  0  0  0  0  0  0  0
   59.4930   21.1102   43.7157 H   0  0  0  0  0  0  0  0  0  0  0  0
   60.0219   22.8268   43.7157 H   0  0  0  0  0  0  0  0  0  0  0  0
   57.3826   20.9871   42.8466 H   0  0  0  0  0  0  0  0  0  0  0  0
   58.0500   24.5078   46.9425 H   0  0  0  0  0  0  0  0  0  0  0  0
   59.4386   23.8355   46.0072 H   0  0  0  0  0  0  0  0  0  0  0  0
   59.7902   25.8022   44.9619 H   0  0  0  0  0  0  0  0  0  0  0  0
   58.0449   25.9339   44.5125 H   0  0  0  0  0  0  0  0  0  0  0  0
   56.4197   27.4618   45.0653 H   0  0  0  0  0  0  0  0  0  0  0  0
   54.7422   28.9152   43.9234 H   0  0  0  0  0  0  0  0  0  0  0  0
   55.2110   31.3411   43.5813 H   0  0  0  0  0  0  0  0  0  0  0  0
   56.6990   34.5053   44.7368 H   0  0  0  0  0  0  0  0  0  0  0  0
   56.1329   33.2103   45.8513 H   0  0  0  0  0  0  0  0  0  0  0  0
   57.7517   32.4910   47.9138 H   0  0  0  0  0  0  0  0  0  0  0  0
   62.0854   34.7999   47.8862 H   0  0  0  0  0  0  0  0  0  0  0  0
   62.9811   34.7117   49.4620 H   0  0  0  0  0  0  0  0  0  0  0  0
   63.6826   33.6029   46.8220 H   0  0  0  0  0  0  0  0  0  0  0  0
   64.6996   33.9007   48.3086 H   0  0  0  0  0  0  0  0  0  0  0  0
   64.8410   31.7000   47.9840 H   0  0  0  0  0  0  0  0  0  0  0  0
   63.7703   30.6438   49.7770 H   0  0  0  0  0  0  0  0  0  0  0  0
   64.1665   32.3354   50.2278 H   0  0  0  0  0  0  0  0  0  0  0  0
   61.4807   31.1093   49.5094 H   0  0  0  0  0  0  0  0  0  0  0  0
   61.9382   32.1474   50.9183 H   0  0  0  0  0  0  0  0  0  0  0  0
   60.7760   35.4220   47.1520 H   0  0  0  0  0  0  0  0  0  0  0  0
   59.5654   36.6972   45.1324 H   0  0  0  0  0  0  0  0  0  0  0  0
   60.0791   35.2108   44.2644 H   0  0  0  0  0  0  0  0  0  0  0  0
   58.3503   35.6987   44.2644 H   0  0  0  0  0  0  0  0  0  0  0  0
   59.1287   30.8222   45.3362 H   0  0  0  0  0  0  0  0  0  0  0  0
  1  2  1  0
  2  3  2  0
  3  4  1  0
  4  5  1  0
  5  6  2  0
  5  7  1  0
  7  8  1  0
  7  9  2  0
  9 10  1  0
 10 11  1  0
 11 12  1  0
 12 13  2  0
 12 14  1  0
 14 15  1  0
 15 16  2  0
 16 17  1  0
 17 18  2  0
 18 19  1  0
 19 20  1  0
 20 21  1  0
 21 22  1  0
 22 23  2  0
 23 24  1  0
 24 25  1  0
 25 26  2  0
 25 27  1  0
 27 28  1  0
 28 29  1  0
 29 30  1  0
 30 31  1  0
 31 32  1  0
 24 33  2  0
 33 34  1  0
 34 35  1  0
 19 36  2  0
  9  2  1  0
 36 15  1  0
 34 22  1  0
 32 27  1  0
  1 37  1  0
  1 38  1  0
  1 39  1  0
  3 40  1  0
 10 41  1  0
 10 42  1  0
 11 43  1  0
 11 44  1  0
 16 45  1  0
 17 46  1  0
 18 47  1  0
 21 48  1  0
 21 49  1  0
 23 50  1  0
 28 51  1  0
 28 52  1  0
 29 53  1  0
 29 54  1  0
 30 55  1  0
 31 56  1  0
 31 57  1  0
 32 58  1  0
 32 59  1  0
 33 60  1  0
 35 61  1  0
 35 62  1  0
 35 63  1  0
 36 64  1  0
M  CHG  3   4  -1  14  -1  33   1
M  END
>  <UniqueID>  (94) 
89

>  <SMILES>  (94) 
Cc1c[n-]c(=O)c(Cl)c1CCC(=O)[N-]c1cccc(OCc2cc(C(=O)N3CCNCC3)[nH+]n2C)c1

>  <Energy>  (94) 
103.82223219380153

>  <Genealogy>  (94) 
Cc1c[n-]c(=O)c(Cl)c1CCC(=O)[N-]c1cccc(OCc2cc(C(=O)N3CCNCC3)[nH+]n2C)c1 (protonated)
Cc1c[n-]c(=O)c(Cl)c1CCC(=O)[N-]c1cccc(OCc2cc(C(=O)N3CCNCC3)[nH+]n2C)c1 (3D coordinates assigned)
Cc1c[n-]c(=O)c(Cl)c1CCC(=O)[N-]c1cccc(OCc2cc(C(=O)N3CCNCC3)[nH+]n2C)c1 (nonaromatic ring conformer: 103.82223219380153 kcal/mol)

>  <smiles>  (94) 
Cc1c[nH]c(=O)c(Cl)c1CCC(=O)Nc1cccc(OCc2cc(C(=O)N3CCNCC3)nn2C)c1

>  <score_type>  (94) 
oracle

>  <origin>  (94) 
adg

>  <m_score__min__energy>  (94) 
-11.41

>  <m_primary>  (94) 
energy

$$$$
94:0
     RDKit          3D

 39 41  0  0  0  0  0  0  0  0999 V2000
   55.5630   28.9660   43.8650 H   0  0  0  0  0  0  0  0  0  0  0  0
   55.5620   28.8210   44.8660 O   0  0  0  0  0  0  0  0  0  0  0  0
   56.2790   27.7730   45.4400 C   0  0  0  0  0  0  0  0  0  0  0  0
   55.6100   26.7310   46.0010 N   0  0  0  0  0  0  0  0  0  0  0  0
   56.2760   25.6770   46.5360 C   0  0  0  0  0  0  0  0  0  0  0  0
   55.6340   24.7260   47.0530 O   0  0  0  0  0  0  0  0  0  0  0  0
   57.6320   25.6440   46.5090 N   0  0  0  0  0  0  0  0  0  0  0  0
   58.3480   26.6600   45.9620 C   0  0  0  0  0  0  0  0  0  0  0  0
   59.6070   26.5940   45.9510 O   0  0  0  0  0  0  0  0  0  0  0  0
   57.6850   27.7760   45.4260 C   0  0  0  0  0  0  0  0  0  0  0  0
   58.4530   28.8790   44.8050 C   0  0  0  0  0  0  0  0  0  0  0  0
   59.1146   28.6415   43.9589 H   0  0  0  0  0  0  0  0  0  0  0  0
   58.3840   30.1590   45.2220 C   0  0  0  0  0  0  0  0  0  0  0  0
   58.0080   31.2470   44.4490 C   0  0  0  0  0  0  0  0  0  0  0  0
   57.7361   31.2327   43.3832 H   0  0  0  0  0  0  0  0  0  0  0  0
   58.0410   32.3500   45.2750 C   0  0  0  0  0  0  0  0  0  0  0  0
   57.7360   33.7460   44.8200 C   0  0  0  0  0  0  0  0  0  0  0  0
   57.5943   34.3947   45.6970 H   0  0  0  0  0  0  0  0  0  0  0  0
   58.5725   34.1253   44.2146 H   0  0  0  0  0  0  0  0  0  0  0  0
   56.8176   33.7419   44.2146 H   0  0  0  0  0  0  0  0  0  0  0  0
   58.4320   32.0020   46.5260 N   0  0  0  0  0  0  0  0  0  0  0  0
   58.5980   32.9390   47.6520 C   0  0  0  0  0  0  0  0  0  0  0  0
   58.0526   33.8682   47.4303 H   0  0  0  0  0  0  0  0  0  0  0  0
   58.2004   32.4670   48.5625 H   0  0  0  0  0  0  0  0  0  0  0  0
   60.0550   33.2630   47.8750 C   0  0  0  0  0  0  0  0  0  0  0  0
   61.0070   32.9410   46.8900 C   0  0  0  0  0  0  0  0  0  0  0  0
   60.6848   32.4588   45.9553 H   0  0  0  0  0  0  0  0  0  0  0  0
   62.3590   33.2300   47.0920 C   0  0  0  0  0  0  0  0  0  0  0  0
   63.0973   32.9695   46.3193 H   0  0  0  0  0  0  0  0  0  0  0  0
   62.7750   33.8490   48.2730 C   0  0  0  0  0  0  0  0  0  0  0  0
   64.0870   34.1290   48.4670 F   0  0  0  0  0  0  0  0  0  0  0  0
   61.8370   34.1820   49.2530 C   0  0  0  0  0  0  0  0  0  0  0  0
   62.1653   34.6726   50.1811 H   0  0  0  0  0  0  0  0  0  0  0  0
   60.4810   33.8940   49.0590 C   0  0  0  0  0  0  0  0  0  0  0  0
   59.5920   34.2370   50.0220 F   0  0  0  0  0  0  0  0  0  0  0  0
   58.6360   30.6550   46.5060 C   0  0  0  0  0  0  0  0  0  0  0  0
   59.0280   29.9220   47.5620 C   0  0  0  0  0  0  0  0  0  0  0  0
   59.2011   30.4067   48.5341 H   0  0  0  0  0  0  0  0  0  0  0  0
   59.1757   28.8373   47.4542 H   0  0  0  0  0  0  0  0  0  0  0  0
  1  2  1  0
  2  3  1  0
  3  4  1  0
  4  5  1  0
  5  6  2  0
  5  7  1  0
  7  8  1  0
  8  9  2  0
  8 10  1  0
 10 11  1  0
 11 12  1  0
 11 13  2  0
 13 14  1  0
 14 15  1  0
 14 16  2  0
 16 17  1  0
 17 18  1  0
 17 19  1  0
 17 20  1  0
 16 21  1  0
 21 22  1  0
 22 23  1  0
 22 24  1  0
 22 25  1  0
 25 26  2  0
 26 27  1  0
 26 28  1  0
 28 29  1  0
 28 30  2  0
 30 31  1  0
 30 32  1  0
 32 33  1  0
 32 34  2  0
 34 35  1  0
 21 36  1  0
 36 37  2  0
 37 38  1  0
 37 39  1  0
 10  3  2  0
 36 13  1  0
 34 25  1  0
M  CHG  2   4  -1   7  -1
M  END
>  <UniqueID>  (95) 
90

>  <SMILES>  (95) 
C=c1/c(=C/c2c(O)[n-]c(=O)[n-]c2=O)cc(C)n1Cc1ccc(F)cc1F

>  <Energy>  (95) 
80.44287215794546

>  <Genealogy>  (95) 
C=c1c(=Cc2c(O)[n-]c(=O)[n-]c2=O)cc(C)n1Cc1ccc(F)cc1F (protonated)
C=c1/c(=C/c2c(O)[n-]c(=O)[n-]c2=O)cc(C)n1Cc1ccc(F)cc1F (cis-trans isomerization)
C=c1/c(=C/c2c(O)[n-]c(=O)[n-]c2=O)cc(C)n1Cc1ccc(F)cc1F (3D coordinates assigned)
C=c1/c(=C/c2c(O)[n-]c(=O)[n-]c2=O)cc(C)n1Cc1ccc(F)cc1F (optimized conformer: 80.44287215794546 kcal/mol)

>  <smiles>  (95) 
C=c1c(=Cc2c(O)[nH]c(=O)[nH]c2=O)cc(C)n1Cc1ccc(F)cc1F

>  <score_type>  (95) 
oracle

>  <origin>  (95) 
adg

>  <m_score__min__energy>  (95) 
-12.779999999999999

>  <m_primary>  (95) 
energy

$$$$
95:0
     RDKit          3D

 64 68  0  0  0  0  0  0  0  0999 V2000
   54.3390   27.0910   46.3670 H   0  0  0  0  0  0  0  0  0  0  0  0
   55.1420   26.4950   46.1980 O   0  0  0  0  0  0  0  0  0  0  0  0
   55.0600   25.2830   45.5120 C   0  0  0  0  0  0  0  0  0  0  0  0
   53.8340   24.7290   45.3140 N   0  0  0  0  0  0  0  0  0  0  0  0
   53.6910   23.5440   44.6690 C   0  0  0  0  0  0  0  0  0  0  0  0
   52.5420   23.0560   44.5000 O   0  0  0  0  0  0  0  0  0  0  0  0
   54.7820   22.8810   44.2150 N   0  0  0  0  0  0  0  0  0  0  0  0
   56.0320   23.3850   44.3850 C   0  0  0  0  0  0  0  0  0  0  0  0
   57.0230   22.7400   43.9530 O   0  0  0  0  0  0  0  0  0  0  0  0
   56.2080   24.6200   45.0290 C   0  0  0  0  0  0  0  0  0  0  0  0
   57.5640   25.1540   45.2530 C   0  0  0  0  0  0  0  0  0  0  0  0
   58.3946   24.4329   45.2475 H   0  0  0  0  0  0  0  0  0  0  0  0
   57.8750   26.4490   45.4640 C   0  0  0  0  0  0  0  0  0  0  0  0
   57.5930   27.4450   44.5390 C   0  0  0  0  0  0  0  0  0  0  0  0
   57.0689   27.3186   43.5802 H   0  0  0  0  0  0  0  0  0  0  0  0
   58.0950   28.6230   45.0510 C   0  0  0  0  0  0  0  0  0  0  0  0
   57.9940   29.9620   44.3870 C   0  0  0  0  0  0  0  0  0  0  0  0
   57.9347   30.7481   45.1541 H   0  0  0  0  0  0  0  0  0  0  0  0
   58.8822   30.1281   43.7597 H   0  0  0  0  0  0  0  0  0  0  0  0
   57.0910   29.9930   43.7597 H   0  0  0  0  0  0  0  0  0  0  0  0
   58.6590   28.4060   46.2580 N   0  0  0  0  0  0  0  0  0  0  0  0
   59.2210   29.4200   47.1080 C   0  0  0  0  0  0  0  0  0  0  0  0
   60.1800   30.3100   46.6050 C   0  0  0  0  0  0  0  0  0  0  0  0
   60.4918   30.2433   45.5522 H   0  0  0  0  0  0  0  0  0  0  0  0
   60.7410   31.2820   47.4380 C   0  0  0  0  0  0  0  0  0  0  0  0
   61.4923   31.9787   47.0378 H   0  0  0  0  0  0  0  0  0  0  0  0
   60.3500   31.3730   48.7830 C   0  0  0  0  0  0  0  0  0  0  0  0
   60.9360   32.3990   49.6710 C   0  0  0  0  0  0  0  0  0  0  0  0
   60.3380   32.6750   50.7470 O   0  0  0  0  0  0  0  0  0  0  0  0
   62.1810   33.0570   49.3520 N   0  0  0  0  0  0  0  0  0  0  0  0
   63.2060   32.3460   48.5670 C   0  0  0  0  0  0  0  0  0  0  0  0
   63.2715   31.3078   48.9247 H   0  0  0  0  0  0  0  0  0  0  0  0
   62.9109   32.3820   47.5079 H   0  0  0  0  0  0  0  0  0  0  0  0
   64.5880   33.0060   48.7000 C   0  0  0  0  0  0  0  0  0  0  0  0
   65.3616   32.2980   48.3679 H   0  0  0  0  0  0  0  0  0  0  0  0
   64.6130   33.9119   48.0765 H   0  0  0  0  0  0  0  0  0  0  0  0
   64.8430   33.3820   50.1010 N   0  0  0  0  0  0  0  0  0  0  0  0
   66.1460   33.1470   50.6860 C   0  0  0  0  0  0  0  0  0  0  0  0
   67.1350   32.9040   49.9380 O   0  0  0  0  0  0  0  0  0  0  0  0
   66.3570   33.1080   52.1760 C   0  0  0  0  0  0  0  0  0  0  0  0
   65.3827   33.0399   52.6821 H   0  0  0  0  0  0  0  0  0  0  0  0
   66.9687   32.2314   52.4355 H   0  0  0  0  0  0  0  0  0  0  0  0
   67.0800   34.3870   52.6280 C   0  0  0  0  0  0  0  0  0  0  0  0
   66.7588   34.3258   53.6783 H   0  0  0  0  0  0  0  0  0  0  0  0
   68.3870   34.6560   51.8940 C   0  0  0  0  0  0  0  0  0  0  0  0
   69.2437   35.0843   52.4350 H   0  0  0  0  0  0  0  0  0  0  0  0
   69.0747   34.0528   51.2830 H   0  0  0  0  0  0  0  0  0  0  0  0
   67.1630   35.5120   51.6080 C   0  0  0  0  0  0  0  0  0  0  0  0
   67.1348   36.5598   51.9417 H   0  0  0  0  0  0  0  0  0  0  0  0
   66.5991   35.7844   50.7037 H   0  0  0  0  0  0  0  0  0  0  0  0
   63.8050   34.1020   50.8570 C   0  0  0  0  0  0  0  0  0  0  0  0
   63.5406   33.5154   51.7492 H   0  0  0  0  0  0  0  0  0  0  0  0
   64.2045   35.0868   51.1409 H   0  0  0  0  0  0  0  0  0  0  0  0
   62.5440   34.3190   50.0110 C   0  0  0  0  0  0  0  0  0  0  0  0
   61.7179   34.6463   50.6594 H   0  0  0  0  0  0  0  0  0  0  0  0
   62.7372   35.0904   49.2510 H   0  0  0  0  0  0  0  0  0  0  0  0
   59.3670   30.4980   49.2760 C   0  0  0  0  0  0  0  0  0  0  0  0
   59.0338   30.5819   50.3209 H   0  0  0  0  0  0  0  0  0  0  0  0
   58.8110   29.5220   48.4450 C   0  0  0  0  0  0  0  0  0  0  0  0
   58.0504   28.8326   48.8403 H   0  0  0  0  0  0  0  0  0  0  0  0
   58.5220   27.0840   46.5420 C   0  0  0  0  0  0  0  0  0  0  0  0
   58.9150   26.5370   47.7060 C   0  0  0  0  0  0  0  0  0  0  0  0
   59.4136   27.1579   48.4649 H   0  0  0  0  0  0  0  0  0  0  0  0
   58.7379   25.4687   47.8992 H   0  0  0  0  0  0  0  0  0  0  0  0
  1  2  1  0
  2  3  1  0
  3  4  1  0
  4  5  1  0
  5  6  2  0
  5  7  1  0
  7  8  1  0
  8  9  2  0
  8 10  1  0
 10 11  1  0
 11 12  1  0
 11 13  2  0
 13 14  1  0
 14 15  1  0
 14 16  2  0
 16 17  1  0
 17 18  1  0
 17 19  1  0
 17 20  1  0
 16 21  1  0
 21 22  1  0
 22 23  2  0
 23 24  1  0
 23 25  1  0
 25 26  1  0
 25 27  2  0
 27 28  1  0
 28 29  2  0
 28 30  1  0
 30 31  1  0
 31 32  1  0
 31 33  1  0
 31 34  1  0
 34 35  1  0
 34 36  1  0
 34 37  1  0
 37 38  1  0
 38 39  2  0
 38 40  1  0
 40 41  1  0
 40 42  1  0
 40 43  1  0
 43 44  1  0
 43 45  1  0
 45 46  1  0
 45 47  1  0
 45 48  1  0
 48 49  1  0
 48 50  1  0
 37 51  1  0
 51 52  1  0
 51 53  1  0
 51 54  1  0
 54 55  1  0
 54 56  1  0
 27 57  1  0
 57 58  1  0
 57 59  2  0
 59 60  1  0
 21 61  1  0
 61 62  2  0
 62 63  1  0
 62 64  1  0
 10  3  2  0
 61 13  1  0
 59 22  1  0
 54 30  1  0
 48 43  1  0
M  CHG  2   4  -1   7  -1
M  END
>  <UniqueID>  (96) 
91

>  <SMILES>  (96) 
C=c1/c(=C\c2c(O)[n-]c(=O)[n-]c2=O)cc(C)n1-c1ccc(C(=O)N2CCN(C(=O)CC3CC3)CC2)cc1

>  <Energy>  (96) 
386.69711581665007

>  <Genealogy>  (96) 
C=c1c(=Cc2c(O)[n-]c(=O)[n-]c2=O)cc(C)n1-c1ccc(C(=O)N2CCN(C(=O)CC3CC3)CC2)cc1 (protonated)
C=c1/c(=C\c2c(O)[n-]c(=O)[n-]c2=O)cc(C)n1-c1ccc(C(=O)N2CCN(C(=O)CC3CC3)CC2)cc1 (cis-trans isomerization)
C=c1/c(=C\c2c(O)[n-]c(=O)[n-]c2=O)cc(C)n1-c1ccc(C(=O)N2CCN(C(=O)CC3CC3)CC2)cc1 (3D coordinates assigned)
C=c1/c(=C\c2c(O)[n-]c(=O)[n-]c2=O)cc(C)n1-c1ccc(C(=O)N2CCN(C(=O)CC3CC3)CC2)cc1 (nonaromatic ring conformer: 386.69711581665007 kcal/mol)

>  <smiles>  (96) 
C=c1c(=Cc2c(O)[nH]c(=O)[nH]c2=O)cc(C)n1-c1ccc(C(=O)N2CCN(C(=O)CC3CC3)CC2)cc1

>  <score_type>  (96) 
oracle

>  <origin>  (96) 
adg

>  <m_score__min__energy>  (96) 
-13.720000000000001

>  <m_primary>  (96) 
energy

$$$$
