0:0
     RDKit          3D

 35 37  0  0  0  0  0  0  0  0999 V2000
   57.5490   26.5450   47.3010 O   0  0  0  0  0  0  0  0  0  0  0  0
   56.9260   26.4010   45.9400 S   0  0  0  0  0  0  0  0  0  0  0  0
   55.4920   26.8420   46.0090 O   0  0  0  0  0  0  0  0  0  0  0  0
   57.7810   27.4050   44.8140 N   0  0  0  0  0  0  0  0  0  0  0  0
   57.6580   28.8310   44.7250 C   0  0  0  0  0  0  0  0  0  0  0  0
   56.9250   29.4550   43.6970 C   0  0  0  0  0  0  0  0  0  0  0  0
   56.8300   30.8490   43.6420 C   0  0  0  0  0  0  0  0  0  0  0  0
   57.4660   31.6400   44.6090 C   0  0  0  0  0  0  0  0  0  0  0  0
   57.3830   33.0020   44.5570 N   0  0  0  0  0  0  0  0  0  0  0  0
   58.0020   33.7860   45.4820 C   0  0  0  0  0  0  0  0  0  0  0  0
   58.7480   33.2080   46.5100 C   0  0  0  0  0  0  0  0  0  0  0  0
   58.8500   31.8180   46.5900 C   0  0  0  0  0  0  0  0  0  0  0  0
   58.2090   31.0180   45.6380 C   0  0  0  0  0  0  0  0  0  0  0  0
   58.2950   29.6190   45.6910 C   0  0  0  0  0  0  0  0  0  0  0  0
   56.9810   24.7270   45.3960 C   0  0  0  0  0  0  0  0  0  0  0  0
   58.1990   24.0380   45.3150 C   0  0  0  0  0  0  0  0  0  0  0  0
   58.2310   22.7140   44.8660 C   0  0  0  0  0  0  0  0  0  0  0  0
   57.0420   22.0630   44.4940 C   0  0  0  0  0  0  0  0  0  0  0  0
   57.0590   20.7050   44.0320 N   0  0  0  0  0  0  0  0  0  0  0  0
   56.3030   20.3080   42.9810 O   0  0  0  0  0  0  0  0  0  0  0  0
   55.8260   22.7560   44.5780 C   0  0  0  0  0  0  0  0  0  0  0  0
   55.7950   24.0800   45.0260 C   0  0  0  0  0  0  0  0  0  0  0  0
   56.4243   28.8422   42.9329 H   0  0  0  0  0  0  0  0  0  0  0  0
   56.2536   31.3271   42.8363 H   0  0  0  0  0  0  0  0  0  0  0  0
   56.8350   33.4670   43.7970 H   0  0  0  0  0  0  0  0  0  0  0  0
   57.9137   34.8806   45.4187 H   0  0  0  0  0  0  0  0  0  0  0  0
   59.2525   33.8436   47.2526 H   0  0  0  0  0  0  0  0  0  0  0  0
   59.4326   31.3532   47.3991 H   0  0  0  0  0  0  0  0  0  0  0  0
   58.8672   29.1374   46.4976 H   0  0  0  0  0  0  0  0  0  0  0  0
   59.1332   24.5407   45.6057 H   0  0  0  0  0  0  0  0  0  0  0  0
   59.1905   22.1798   44.8037 H   0  0  0  0  0  0  0  0  0  0  0  0
   57.6850   20.0060   44.4890 H   0  0  0  0  0  0  0  0  0  0  0  0
   56.6450   19.4060   42.7480 H   0  0  0  0  0  0  0  0  0  0  0  0
   54.8903   22.2547   44.2895 H   0  0  0  0  0  0  0  0  0  0  0  0
   54.8361   24.6154   45.0881 H   0  0  0  0  0  0  0  0  0  0  0  0
  1  2  2  0
  2  3  2  0
  2  4  1  0
  4  5  1  0
  5  6  2  0
  6  7  1  0
  7  8  2  0
  8  9  1  0
  9 10  2  0
 10 11  1  0
 11 12  2  0
 12 13  1  0
 13 14  2  0
  2 15  1  0
 15 16  2  0
 16 17  1  0
 17 18  2  0
 18 19  1  0
 19 20  1  0
 18 21  1  0
 21 22  2  0
 14  5  1  0
 22 15  1  0
 13  8  1  0
  6 23  1  0
  7 24  1  0
  9 25  1  0
 10 26  1  0
 11 27  1  0
 12 28  1  0
 14 29  1  0
 16 30  1  0
 17 31  1  0
 19 32  1  0
 20 33  1  0
 21 34  1  0
 22 35  1  0
M  CHG  2   4  -1   9   1
M  END
>  <UniqueID>  (1) 
1

>  <SMILES>  (1) 
O=S(=O)([N-]c1ccc2[nH+]cccc2c1)c1ccc(NO)cc1

>  <Energy>  (1) 
42.80476517759574

>  <Genealogy>  (1) 
O=S(=O)([N-]c1ccc2[nH+]cccc2c1)c1ccc(NO)cc1 (protonated)
O=S(=O)([N-]c1ccc2[nH+]cccc2c1)c1ccc(NO)cc1 (3D coordinates assigned)
O=S(=O)([N-]c1ccc2[nH+]cccc2c1)c1ccc(NO)cc1 (optimized conformer: 42.80476517759574 kcal/mol)

>  <smiles>  (1) 
O=S(=O)(Nc1ccc2ncccc2c1)c1ccc(NO)cc1

>  <score_type>  (1) 
oracle

>  <origin>  (1) 
adg

>  <m_score__min__energy>  (1) 
-8.1600000000000001

>  <m_primary>  (1) 
energy

$$$$
1:0
     RDKit          3D

 47 49  0  0  0  0  0  0  0  0999 V2000
   57.7141   35.0574   44.3052 H   0  0  0  0  0  0  0  0  0  0  0  0
   58.3330   34.3470   44.8730 C   0  0  0  0  0  0  0  0  0  0  0  0
   57.7560   33.0320   45.2210 C   0  0  0  0  0  0  0  0  0  0  0  0
   56.5490   32.9880   45.5830 O   0  0  0  0  0  0  0  0  0  0  0  0
   58.5450   31.8290   45.2020 N   0  0  0  0  0  0  0  0  0  0  0  0
   59.5860   31.9050   45.2210 H   0  0  0  0  0  0  0  0  0  0  0  0
   57.9780   30.5090   45.2340 C   0  0  0  0  0  0  0  0  0  0  0  0
   56.7310   30.3510   45.1370 O   0  0  0  0  0  0  0  0  0  0  0  0
   58.8480   29.3690   45.3190 N   0  0  0  0  0  0  0  0  0  0  0  0
   59.8600   29.5140   45.1040 H   0  0  0  0  0  0  0  0  0  0  0  0
   58.3960   28.0260   45.5680 C   0  0  0  0  0  0  0  0  0  0  0  0
   57.0270   27.7070   45.6020 C   0  0  0  0  0  0  0  0  0  0  0  0
   56.2775   28.4906   45.4170 H   0  0  0  0  0  0  0  0  0  0  0  0
   56.6140   26.3980   45.8700 C   0  0  0  0  0  0  0  0  0  0  0  0
   55.5412   26.1550   45.8805 H   0  0  0  0  0  0  0  0  0  0  0  0
   57.5600   25.3910   46.1260 C   0  0  0  0  0  0  0  0  0  0  0  0
   57.1340   24.0350   46.3690 N   0  0  0  0  0  0  0  0  0  0  0  0
   57.8230   23.5470   46.9900 H   0  0  0  0  0  0  0  0  0  0  0  0
   56.2170   24.0300   46.8740 H   0  0  0  0  0  0  0  0  0  0  0  0
   57.0140   23.3340   45.1160 C   0  0  0  0  0  0  0  0  0  0  0  0
   56.0330   23.7090   44.1800 C   0  0  0  0  0  0  0  0  0  0  0  0
   55.3679   24.5583   44.3951 H   0  0  0  0  0  0  0  0  0  0  0  0
   55.8990   23.0080   42.9780 C   0  0  0  0  0  0  0  0  0  0  0  0
   55.1324   23.3096   42.2490 H   0  0  0  0  0  0  0  0  0  0  0  0
   56.7370   21.9250   42.7010 C   0  0  0  0  0  0  0  0  0  0  0  0
   56.6315   21.3767   41.7533 H   0  0  0  0  0  0  0  0  0  0  0  0
   57.7090   21.5380   43.6270 C   0  0  0  0  0  0  0  0  0  0  0  0
   58.3669   20.6838   43.4089 H   0  0  0  0  0  0  0  0  0  0  0  0
   57.8460   22.2360   44.8310 C   0  0  0  0  0  0  0  0  0  0  0  0
   58.6090   21.9246   45.5596 H   0  0  0  0  0  0  0  0  0  0  0  0
   58.9260   25.7150   46.1050 C   0  0  0  0  0  0  0  0  0  0  0  0
   59.6760   24.9339   46.2983 H   0  0  0  0  0  0  0  0  0  0  0  0
   59.3390   27.0240   45.8400 C   0  0  0  0  0  0  0  0  0  0  0  0
   60.4111   27.2699   45.8448 H   0  0  0  0  0  0  0  0  0  0  0  0
   59.5760   34.7150   45.2170 C   0  0  0  0  0  0  0  0  0  0  0  0
   60.1582   35.3109   44.4987 H   0  0  0  0  0  0  0  0  0  0  0  0
   60.2100   34.3640   46.5110 C   0  0  0  0  0  0  0  0  0  0  0  0
   61.5170   33.8400   46.6020 C   0  0  0  0  0  0  0  0  0  0  0  0
   62.1089   33.6847   45.6879 H   0  0  0  0  0  0  0  0  0  0  0  0
   62.0640   33.5170   47.8480 C   0  0  0  0  0  0  0  0  0  0  0  0
   63.0867   33.1167   47.9106 H   0  0  0  0  0  0  0  0  0  0  0  0
   61.3160   33.7010   49.0130 C   0  0  0  0  0  0  0  0  0  0  0  0
   61.7507   33.4499   49.9918 H   0  0  0  0  0  0  0  0  0  0  0  0
   60.0160   34.2040   48.9340 C   0  0  0  0  0  0  0  0  0  0  0  0
   59.4250   34.3449   49.8510 H   0  0  0  0  0  0  0  0  0  0  0  0
   59.4640   34.5290   47.6910 C   0  0  0  0  0  0  0  0  0  0  0  0
   58.4363   34.9174   47.6360 H   0  0  0  0  0  0  0  0  0  0  0  0
  1  2  1  0
  2  3  1  0
  3  4  2  0
  3  5  1  0
  5  6  1  0
  5  7  1  0
  7  8  2  0
  7  9  1  0
  9 10  1  0
  9 11  1  0
 11 12  2  0
 12 13  1  0
 12 14  1  0
 14 15  1  0
 14 16  2  0
 16 17  1  0
 17 18  1  0
 17 19  1  0
 17 20  1  0
 20 21  2  0
 21 22  1  0
 21 23  1  0
 23 24  1  0
 23 25  2  0
 25 26  1  0
 25 27  1  0
 27 28  1  0
 27 29  2  0
 29 30  1  0
 16 31  1  0
 31 32  1  0
 31 33  2  0
 33 34  1  0
  2 35  2  0
 35 36  1  0
 35 37  1  0
 37 38  2  0
 38 39  1  0
 38 40  1  0
 40 41  1  0
 40 42  2  0
 42 43  1  0
 42 44  1  0
 44 45  1  0
 44 46  2  0
 46 47  1  0
 33 11  1  0
 46 37  1  0
 29 20  1  0
M  CHG  1  17   1
M  END
>  <UniqueID>  (2) 
2

>  <SMILES>  (2) 
O=C(/C=C/c1ccccc1)NC(=O)Nc1ccc([NH2+]c2ccccc2)cc1

>  <Energy>  (2) 
58.06454186177663

>  <Genealogy>  (2) 
O=C(C=Cc1ccccc1)NC(=O)Nc1ccc([NH2+]c2ccccc2)cc1 (protonated)
O=C(/C=C/c1ccccc1)NC(=O)Nc1ccc([NH2+]c2ccccc2)cc1 (cis-trans isomerization)
O=C(/C=C/c1ccccc1)NC(=O)Nc1ccc([NH2+]c2ccccc2)cc1 (3D coordinates assigned)
O=C(/C=C/c1ccccc1)NC(=O)Nc1ccc([NH2+]c2ccccc2)cc1 (optimized conformer: 58.06454186177663 kcal/mol)

>  <smiles>  (2) 
O=C(C=Cc1ccccc1)NC(=O)Nc1ccc(Nc2ccccc2)cc1

>  <score_type>  (2) 
oracle

>  <origin>  (2) 
adg

>  <m_score__min__energy>  (2) 
-6.6399999999999997

>  <m_primary>  (2) 
energy

$$$$
2:0
     RDKit          3D

 72 75  0  0  0  0  0  0  0  0999 V2000
   67.5165   25.3146   49.5865 H   0  0  0  0  0  0  0  0  0  0  0  0
   67.3450   26.2460   50.1460 C   0  0  0  0  0  0  0  0  0  0  0  0
   68.0990   27.3880   49.8530 C   0  0  0  0  0  0  0  0  0  0  0  0
   68.8687   27.3524   49.0680 H   0  0  0  0  0  0  0  0  0  0  0  0
   67.8740   28.5740   50.5580 C   0  0  0  0  0  0  0  0  0  0  0  0
   68.4598   29.4736   50.3182 H   0  0  0  0  0  0  0  0  0  0  0  0
   66.9040   28.6210   51.5700 C   0  0  0  0  0  0  0  0  0  0  0  0
   66.6300   30.1180   52.4650 S   0  0  0  0  0  0  0  0  0  0  0  0
   67.4420   30.0920   53.7310 O   0  0  0  0  0  0  0  0  0  0  0  0
   65.1760   30.2040   52.8380 O   0  0  0  0  0  0  0  0  0  0  0  0
   67.0710   31.5300   51.5540 N   0  0  0  0  0  0  0  0  0  0  0  0
   66.3000   32.1210   50.5050 C   0  0  0  0  0  0  0  0  0  0  0  0
   66.8550   32.8280   49.6210 O   0  0  0  0  0  0  0  0  0  0  0  0
   64.8830   31.9290   50.4860 N   0  0  0  0  0  0  0  0  0  0  0  0
   64.4170   31.6260   51.3730 H   0  0  0  0  0  0  0  0  0  0  0  0
   64.0600   32.2810   49.3630 C   0  0  0  0  0  0  0  0  0  0  0  0
   64.4450   33.3610   48.5560 C   0  0  0  0  0  0  0  0  0  0  0  0
   65.3492   33.9349   48.8072 H   0  0  0  0  0  0  0  0  0  0  0  0
   63.6890   33.7140   47.4350 C   0  0  0  0  0  0  0  0  0  0  0  0
   63.9975   34.5649   46.8098 H   0  0  0  0  0  0  0  0  0  0  0  0
   62.5430   32.9880   47.1080 C   0  0  0  0  0  0  0  0  0  0  0  0
   61.9661   33.2474   46.2080 H   0  0  0  0  0  0  0  0  0  0  0  0
   62.1280   31.9320   47.9230 C   0  0  0  0  0  0  0  0  0  0  0  0
   61.2283   31.3574   47.6576 H   0  0  0  0  0  0  0  0  0  0  0  0
   62.8520   31.6000   49.0780 C   0  0  0  0  0  0  0  0  0  0  0  0
   62.2030   30.3080   50.1570 S   0  0  0  0  0  0  0  0  0  0  0  0
   60.4520   30.8630   50.2350 C   0  0  2  0  0  0  0  0  0  0  0  0
   59.9964   30.3840   51.1142 H   0  0  0  0  0  0  0  0  0  0  0  0
   59.6600   30.3960   49.0380 C   0  0  0  0  0  0  0  0  0  0  0  0
   58.4900   30.8320   48.8490 O   0  0  0  0  0  0  0  0  0  0  0  0
   60.2220   29.4290   48.1390 N   0  0  0  0  0  0  0  0  0  0  0  0
   61.0370   28.8670   48.4690 H   0  0  0  0  0  0  0  0  0  0  0  0
   59.6880   29.1410   46.8360 C   0  0  0  0  0  0  0  0  0  0  0  0
   60.2840   28.1450   46.0460 C   0  0  0  0  0  0  0  0  0  0  0  0
   61.1431   27.5796   46.4361 H   0  0  0  0  0  0  0  0  0  0  0  0
   59.7930   27.8670   44.7670 C   0  0  0  0  0  0  0  0  0  0  0  0
   60.2529   27.0704   44.1638 H   0  0  0  0  0  0  0  0  0  0  0  0
   58.7190   28.5990   44.2530 C   0  0  0  0  0  0  0  0  0  0  0  0
   58.3344   28.3781   43.2464 H   0  0  0  0  0  0  0  0  0  0  0  0
   58.1330   29.6130   45.0190 C   0  0  0  0  0  0  0  0  0  0  0  0
   56.8180   30.5950   44.3840 S   0  0  0  0  0  0  0  0  0  0  0  0
   56.9460   30.7960   42.9000 O   0  0  0  0  0  0  0  0  0  0  0  0
   55.5240   29.8840   44.6590 O   0  0  0  0  0  0  0  0  0  0  0  0
   56.7930   32.1350   45.1840 N   0  0  0  0  0  0  0  0  0  0  0  0
   57.8200   32.8290   45.5890 C   0  0  0  0  0  0  0  0  0  0  0  0
   58.0880   32.8340   47.0060 N   0  0  0  0  0  0  0  0  0  0  0  0
   57.4210   32.3240   47.6320 H   0  0  0  0  0  0  0  0  0  0  0  0
   59.2640   33.4270   47.6270 C   0  0  0  0  0  0  0  0  0  0  0  0
   60.1659   32.9481   47.2180 H   0  0  0  0  0  0  0  0  0  0  0  0
   59.2009   33.2700   48.7139 H   0  0  0  0  0  0  0  0  0  0  0  0
   59.3320   34.9350   47.3570 C   0  0  0  0  0  0  0  0  0  0  0  0
   59.9139   35.4062   48.1628 H   0  0  0  0  0  0  0  0  0  0  0  0
   58.2957   35.3017   47.3181 H   0  0  0  0  0  0  0  0  0  0  0  0
   59.9860   35.2930   46.0130 C   0  0  0  0  0  0  0  0  0  0  0  0
   60.9000   34.6927   45.8933 H   0  0  0  0  0  0  0  0  0  0  0  0
   60.2111   36.3697   46.0245 H   0  0  0  0  0  0  0  0  0  0  0  0
   59.0560   35.0200   44.8210 C   0  0  0  0  0  0  0  0  0  0  0  0
   59.5335   35.4169   43.9130 H   0  0  0  0  0  0  0  0  0  0  0  0
   58.0983   35.5110   45.0485 H   0  0  0  0  0  0  0  0  0  0  0  0
   58.7440   33.5230   44.5900 C   0  0  0  0  0  0  0  0  0  0  0  0
   59.7020   32.9825   44.5979 H   0  0  0  0  0  0  0  0  0  0  0  0
   58.1943   33.4968   43.6375 H   0  0  0  0  0  0  0  0  0  0  0  0
   58.6160   29.8780   46.3040 C   0  0  0  0  0  0  0  0  0  0  0  0
   58.1514   30.6729   46.9059 H   0  0  0  0  0  0  0  0  0  0  0  0
   60.3440   32.3740   50.4590 C   0  0  0  0  0  0  0  0  0  0  0  0
   60.3290   32.5845   51.5386 H   0  0  0  0  0  0  0  0  0  0  0  0
   61.2086   32.8755   49.9997 H   0  0  0  0  0  0  0  0  0  0  0  0
   59.4169   32.7474   49.9997 H   0  0  0  0  0  0  0  0  0  0  0  0
   66.1540   27.4710   51.8650 C   0  0  0  0  0  0  0  0  0  0  0  0
   65.3933   27.4999   52.6590 H   0  0  0  0  0  0  0  0  0  0  0  0
   66.3730   26.2900   51.1510 C   0  0  0  0  0  0  0  0  0  0  0  0
   65.7795   25.3926   51.3798 H   0  0  0  0  0  0  0  0  0  0  0  0
  1  2  1  0
  2  3  2  0
  3  4  1  0
  3  5  1  0
  5  6  1  0
  5  7  2  0
  7  8  1  0
  8  9  2  0
  8 10  2  0
  8 11  1  0
 11 12  1  0
 12 13  2  0
 12 14  1  0
 14 15  1  0
 14 16  1  0
 16 17  2  0
 17 18  1  0
 17 19  1  0
 19 20  1  0
 19 21  2  0
 21 22  1  0
 21 23  1  0
 23 24  1  0
 23 25  2  0
 25 26  1  0
 26 27  1  0
 27 28  1  1
 27 29  1  0
 29 30  2  0
 29 31  1  0
 31 32  1  0
 31 33  1  0
 33 34  2  0
 34 35  1  0
 34 36  1  0
 36 37  1  0
 36 38  2  0
 38 39  1  0
 38 40  1  0
 40 41  1  0
 41 42  2  0
 41 43  2  0
 41 44  1  0
 44 45  2  0
 45 46  1  0
 46 47  1  0
 46 48  1  0
 48 49  1  0
 48 50  1  0
 48 51  1  0
 51 52  1  0
 51 53  1  0
 51 54  1  0
 54 55  1  0
 54 56  1  0
 54 57  1  0
 57 58  1  0
 57 59  1  0
 57 60  1  0
 60 61  1  0
 60 62  1  0
 40 63  2  0
 63 64  1  0
 27 65  1  0
 65 66  1  0
 65 67  1  0
 65 68  1  0
  7 69  1  0
 69 70  1  0
 69 71  2  0
 71 72  1  0
 71  2  1  0
 25 16  1  0
 63 33  1  0
 60 45  1  0
M  CHG  1  11  -1
M  END
>  <UniqueID>  (3) 
3

>  <SMILES>  (3) 
C[C@H](Sc1ccccc1NC(=O)[N-]S(=O)(=O)c1ccccc1)C(=O)Nc1cccc(S(=O)(=O)/N=C2\CCCCCN2)c1

>  <Energy>  (3) 
89.225937163423

>  <Genealogy>  (3) 
CC(Sc1ccccc1NC(=O)[N-]S(=O)(=O)c1ccccc1)C(=O)Nc1cccc(S(=O)(=O)N=C2CCCCCN2)c1 (protonated)
C[C@H](Sc1ccccc1NC(=O)[N-]S(=O)(=O)c1ccccc1)C(=O)Nc1cccc(S(=O)(=O)N=C2CCCCCN2)c1 (chirality)
C[C@H](Sc1ccccc1NC(=O)[N-]S(=O)(=O)c1ccccc1)C(=O)Nc1cccc(S(=O)(=O)/N=C2\CCCCCN2)c1 (cis-trans isomerization)
C[C@H](Sc1ccccc1NC(=O)[N-]S(=O)(=O)c1ccccc1)C(=O)Nc1cccc(S(=O)(=O)/N=C2\CCCCCN2)c1 (3D coordinates assigned)
C[C@H](Sc1ccccc1NC(=O)[N-]S(=O)(=O)c1ccccc1)C(=O)Nc1cccc(S(=O)(=O)/N=C2\CCCCCN2)c1 (nonaromatic ring conformer: 89.225937163423 kcal/mol)

>  <smiles>  (3) 
CC(Sc1ccccc1NC(=O)NS(=O)(=O)c1ccccc1)C(=O)Nc1cccc(S(=O)(=O)N=C2CCCCCN2)c1

>  <score_type>  (3) 
oracle

>  <origin>  (3) 
adg

>  <m_score__min__energy>  (3) 
-11.15

>  <m_primary>  (3) 
energy

$$$$
3:0
     RDKit          3D

 52 54  0  0  0  0  0  0  0  0999 V2000
   58.3370   29.5050   52.7650 C   0  0  0  0  0  0  0  0  0  0  0  0
   57.6390   29.8960   51.5880 O   0  0  0  0  0  0  0  0  0  0  0  0
   58.2590   30.2780   50.3900 C   0  0  0  0  0  0  0  0  0  0  0  0
   58.8830   29.3510   49.5330 C   0  0  0  0  0  0  0  0  0  0  0  0
   59.4730   29.7790   48.3410 C   0  0  0  0  0  0  0  0  0  0  0  0
   59.4540   31.1370   47.9860 C   0  0  0  0  0  0  0  0  0  0  0  0
   60.0440   31.5920   46.6750 C   0  0  0  0  0  0  0  0  0  0  0  0
   59.4500   32.8720   46.2520 N   0  0  0  0  0  0  0  0  0  0  0  0
   60.2960   34.0760   46.2730 C   0  0  0  0  0  0  0  0  0  0  0  0
   60.7220   34.4020   47.7080 C   0  0  0  0  0  0  0  0  0  0  0  0
   61.9220   33.5950   48.1050 C   0  0  0  0  0  0  0  0  0  0  0  0
   62.0300   32.6720   49.5090 S   0  0  0  0  0  0  0  0  0  0  0  0
   63.5500   32.0610   49.1360 C   0  0  0  0  0  0  0  0  0  0  0  0
   63.9780   32.5380   47.9470 N   0  0  0  0  0  0  0  0  0  0  0  0
   63.0880   33.3890   47.3620 C   0  0  0  0  0  0  0  0  0  0  0  0
   63.3380   33.9910   46.0130 C   0  0  0  0  0  0  0  0  0  0  0  0
   58.0360   33.0140   45.9690 C   0  0  0  0  0  0  0  0  0  0  0  0
   57.3420   33.8040   46.6660 O   0  0  0  0  0  0  0  0  0  0  0  0
   57.3450   32.2490   44.8680 C   0  0  1  0  0  0  0  0  0  0  0  0
   58.1450   32.3920   43.5520 C   0  0  0  0  0  0  0  0  0  0  0  0
   57.4860   31.6900   42.4370 N   0  0  0  0  0  0  0  0  0  0  0  0
   56.6440   30.5670   42.8810 C   0  0  0  0  0  0  0  0  0  0  0  0
   57.1560   29.9660   44.2010 C   0  0  0  0  0  0  0  0  0  0  0  0
   57.1950   30.8940   45.2780 O   0  0  0  0  0  0  0  0  0  0  0  0
   58.8430   32.0610   48.8470 C   0  0  0  0  0  0  0  0  0  0  0  0
   58.2510   31.6320   50.0380 C   0  0  0  0  0  0  0  0  0  0  0  0
   57.7685   29.8234   53.6513 H   0  0  0  0  0  0  0  0  0  0  0  0
   58.4520   28.4111   52.7767 H   0  0  0  0  0  0  0  0  0  0  0  0
   59.3299   29.9783   52.7767 H   0  0  0  0  0  0  0  0  0  0  0  0
   58.9060   28.2850   49.8033 H   0  0  0  0  0  0  0  0  0  0  0  0
   59.9555   29.0471   47.6765 H   0  0  0  0  0  0  0  0  0  0  0  0
   61.1302   31.7197   46.7930 H   0  0  0  0  0  0  0  0  0  0  0  0
   59.8295   30.8326   45.9086 H   0  0  0  0  0  0  0  0  0  0  0  0
   61.1920   33.9005   45.6595 H   0  0  0  0  0  0  0  0  0  0  0  0
   59.7224   34.9232   45.8690 H   0  0  0  0  0  0  0  0  0  0  0  0
   60.9684   35.4718   47.7765 H   0  0  0  0  0  0  0  0  0  0  0  0
   59.8919   34.1554   48.3863 H   0  0  0  0  0  0  0  0  0  0  0  0
   64.1187   31.3675   49.7729 H   0  0  0  0  0  0  0  0  0  0  0  0
   64.8930   32.2690   47.5210 H   0  0  0  0  0  0  0  0  0  0  0  0
   63.7573   35.0007   46.1341 H   0  0  0  0  0  0  0  0  0  0  0  0
   64.0496   33.3627   45.4572 H   0  0  0  0  0  0  0  0  0  0  0  0
   62.3907   34.0516   45.4572 H   0  0  0  0  0  0  0  0  0  0  0  0
   56.3412   32.6553   44.6752 H   0  0  0  0  0  0  0  0  0  0  0  0
   58.2308   33.4595   43.3007 H   0  0  0  0  0  0  0  0  0  0  0  0
   59.1376   31.9425   43.7025 H   0  0  0  0  0  0  0  0  0  0  0  0
   56.8740   32.3720   41.9290 H   0  0  0  0  0  0  0  0  0  0  0  0
   55.6153   30.9278   43.0278 H   0  0  0  0  0  0  0  0  0  0  0  0
   56.6780   29.7840   42.1092 H   0  0  0  0  0  0  0  0  0  0  0  0
   56.4933   29.1347   44.4835 H   0  0  0  0  0  0  0  0  0  0  0  0
   58.1909   29.6382   44.0233 H   0  0  0  0  0  0  0  0  0  0  0  0
   58.8299   33.1288   48.5832 H   0  0  0  0  0  0  0  0  0  0  0  0
   57.7744   32.3656   50.7048 H   0  0  0  0  0  0  0  0  0  0  0  0
  1  2  1  0
  2  3  1  0
  3  4  2  0
  4  5  1  0
  5  6  2  0
  6  7  1  0
  7  8  1  0
  8  9  1  0
  9 10  1  0
 10 11  1  0
 11 12  1  0
 12 13  1  0
 13 14  2  0
 14 15  1  0
 15 16  1  0
  8 17  1  0
 17 18  2  0
 17 19  1  0
 19 20  1  0
 20 21  1  0
 21 22  1  0
 22 23  1  0
 23 24  1  0
  6 25  1  0
 25 26  2  0
 26  3  1  0
 15 11  2  0
 24 19  1  0
  1 27  1  0
  1 28  1  0
  1 29  1  0
  4 30  1  0
  5 31  1  0
  7 32  1  0
  7 33  1  0
  9 34  1  0
  9 35  1  0
 10 36  1  0
 10 37  1  0
 13 38  1  0
 14 39  1  0
 16 40  1  0
 16 41  1  0
 16 42  1  0
 19 43  1  6
 20 44  1  0
 20 45  1  0
 21 46  1  0
 22 47  1  0
 22 48  1  0
 23 49  1  0
 23 50  1  0
 25 51  1  0
 26 52  1  0
M  CHG  1  14   1
M  END
>  <UniqueID>  (4) 
4

>  <SMILES>  (4) 
COc1ccc(CN(CCc2sc[nH+]c2C)C(=O)[C@H]2CNCCO2)cc1

>  <Energy>  (4) 
85.82685117413837

>  <Genealogy>  (4) 
COc1ccc(CN(CCc2sc[nH+]c2C)C(=O)C2CNCCO2)cc1 (protonated)
COc1ccc(CN(CCc2sc[nH+]c2C)C(=O)[C@H]2CNCCO2)cc1 (chirality)
COc1ccc(CN(CCc2sc[nH+]c2C)C(=O)[C@H]2CNCCO2)cc1 (3D coordinates assigned)
COc1ccc(CN(CCc2sc[nH+]c2C)C(=O)[C@H]2CNCCO2)cc1 (nonaromatic ring conformer: 85.82685117413837 kcal/mol)

>  <smiles>  (4) 
COc1ccc(CN(CCc2scnc2C)C(=O)C2CNCCO2)cc1

>  <score_type>  (4) 
oracle

>  <origin>  (4) 
adg

>  <m_score__min__energy>  (4) 
-6.7599999999999998

>  <m_primary>  (4) 
energy

$$$$
4:0
     RDKit          3D

 40 41  0  0  0  0  0  0  0  0999 V2000
   65.3260   33.1310   50.1360 C   0  0  0  0  0  0  0  0  0  0  0  0
   64.8630   32.2340   49.1460 O   0  0  0  0  0  0  0  0  0  0  0  0
   63.7310   32.5140   48.4270 C   0  0  0  0  0  0  0  0  0  0  0  0
   63.6310   33.4480   47.4290 C   0  0  0  0  0  0  0  0  0  0  0  0
   62.4230   33.6550   46.7550 C   0  0  0  0  0  0  0  0  0  0  0  0
   61.2840   32.9460   47.0480 C   0  0  0  0  0  0  0  0  0  0  0  0
   60.0420   33.0860   46.4070 N   0  0  0  0  0  0  0  0  0  0  0  0
   59.2280   34.2380   46.3750 C   0  0  0  0  0  0  0  0  0  0  0  0
   59.5530   35.3000   46.9490 O   0  0  0  0  0  0  0  0  0  0  0  0
   57.9350   34.2340   45.6440 C   0  0  0  0  0  0  0  0  0  0  0  0
   58.1530   33.3110   44.1000 S   0  0  0  0  0  0  0  0  0  0  0  0
   57.7460   31.6030   44.4200 C   0  0  0  0  0  0  0  0  0  0  0  0
   58.7860   30.7530   44.5830 N   0  0  0  0  0  0  0  0  0  0  0  0
   58.6510   29.4400   44.8180 C   0  0  0  0  0  0  0  0  0  0  0  0
   59.8390   28.5470   44.9820 C   0  0  0  0  0  0  0  0  0  0  0  0
   57.3630   28.9390   44.8970 C   0  0  0  0  0  0  0  0  0  0  0  0
   56.3260   29.8200   44.7270 C   0  0  0  0  0  0  0  0  0  0  0  0
   55.1590   29.3450   44.8000 O   0  0  0  0  0  0  0  0  0  0  0  0
   56.4960   31.1350   44.4920 N   0  0  0  0  0  0  0  0  0  0  0  0
   61.3930   32.0030   48.0570 C   0  0  0  0  0  0  0  0  0  0  0  0
   62.5830   31.7950   48.7250 C   0  0  0  0  0  0  0  0  0  0  0  0
   62.6280   30.8380   49.7250 O   0  0  0  0  0  0  0  0  0  0  0  0
   62.5610   31.2140   51.0800 C   0  0  0  0  0  0  0  0  0  0  0  0
   65.1130   32.7183   51.1332 H   0  0  0  0  0  0  0  0  0  0  0  0
   66.4107   33.2743   50.0225 H   0  0  0  0  0  0  0  0  0  0  0  0
   64.8145   34.0982   50.0225 H   0  0  0  0  0  0  0  0  0  0  0  0
   64.5139   34.0437   47.1540 H   0  0  0  0  0  0  0  0  0  0  0  0
   62.3839   34.4144   45.9602 H   0  0  0  0  0  0  0  0  0  0  0  0
   59.6560   32.2420   45.8850 H   0  0  0  0  0  0  0  0  0  0  0  0
   57.1619   33.7509   46.2595 H   0  0  0  0  0  0  0  0  0  0  0  0
   57.6210   35.2655   45.4263 H   0  0  0  0  0  0  0  0  0  0  0  0
   60.0394   28.3964   46.0530 H   0  0  0  0  0  0  0  0  0  0  0  0
   59.6361   27.5759   44.5068 H   0  0  0  0  0  0  0  0  0  0  0  0
   60.7155   29.0118   44.5068 H   0  0  0  0  0  0  0  0  0  0  0  0
   57.1779   27.8719   45.0893 H   0  0  0  0  0  0  0  0  0  0  0  0
   55.7060   31.7830   44.3690 H   0  0  0  0  0  0  0  0  0  0  0  0
   60.5109   31.4062   48.3322 H   0  0  0  0  0  0  0  0  0  0  0  0
   62.7187   30.3292   51.7143 H   0  0  0  0  0  0  0  0  0  0  0  0
   63.3402   31.9608   51.2922 H   0  0  0  0  0  0  0  0  0  0  0  0
   61.5718   31.6457   51.2922 H   0  0  0  0  0  0  0  0  0  0  0  0
  1  2  1  0
  2  3  1  0
  3  4  2  0
  4  5  1  0
  5  6  2  0
  6  7  1  0
  7  8  1  0
  8  9  2  0
  8 10  1  0
 10 11  1  0
 11 12  1  0
 12 13  2  0
 13 14  1  0
 14 15  1  0
 14 16  2  0
 16 17  1  0
 17 18  2  0
 17 19  1  0
  6 20  1  0
 20 21  2  0
 21 22  1  0
 22 23  1  0
 21  3  1  0
 19 12  1  0
  1 24  1  0
  1 25  1  0
  1 26  1  0
  4 27  1  0
  5 28  1  0
  7 29  1  0
 10 30  1  0
 10 31  1  0
 15 32  1  0
 15 33  1  0
 15 34  1  0
 16 35  1  0
 19 36  1  0
 20 37  1  0
 23 38  1  0
 23 39  1  0
 23 40  1  0
M  END
>  <smiles>  (5) 
COc1ccc(NC(=O)CSc2nc(C)cc(=O)[nH]2)cc1OC

>  <score_type>  (5) 
oracle

>  <origin>  (5) 
adg

>  <m_score__min__energy>  (5) 
-7.25

>  <m_primary>  (5) 
energy

$$$$
5:0
     RDKit          3D

 28 29  0  0  0  0  0  0  0  0999 V2000
   56.6260   30.1490   42.6450 C   0  0  0  0  0  0  0  0  0  0  0  0
   56.5520   30.2470   44.4210 S   0  0  0  0  0  0  0  0  0  0  0  0
   55.4580   29.3630   44.9500 O   0  0  0  0  0  0  0  0  0  0  0  0
   56.2560   31.6670   44.8120 O   0  0  0  0  0  0  0  0  0  0  0  0
   58.0750   29.7870   45.1090 N   0  0  0  0  0  0  0  0  0  0  0  0
   58.3860   28.5080   45.6830 C   0  0  0  0  0  0  0  0  0  0  0  0
   59.1850   28.3740   46.8320 C   0  0  0  0  0  0  0  0  0  0  0  0
   59.4660   27.1060   47.3460 C   0  0  0  0  0  0  0  0  0  0  0  0
   58.9530   25.9650   46.7260 C   0  0  0  0  0  0  0  0  0  0  0  0
   58.1430   26.0810   45.5910 C   0  0  0  0  0  0  0  0  0  0  0  0
   57.6580   24.9130   44.9890 O   0  0  0  0  0  0  0  0  0  0  0  0
   56.3130   24.5110   44.9720 C   0  0  0  0  0  0  0  0  0  0  0  0
   55.9520   23.3660   44.2600 C   0  0  0  0  0  0  0  0  0  0  0  0
   54.6570   22.9590   44.2330 N   0  0  0  0  0  0  0  0  0  0  0  0
   53.6960   23.6420   44.9060 C   0  0  0  0  0  0  0  0  0  0  0  0
   52.5010   23.2510   44.8640 O   0  0  0  0  0  0  0  0  0  0  0  0
   54.0250   24.7440   45.6290 N   0  0  0  0  0  0  0  0  0  0  0  0
   55.3080   25.1890   45.6860 C   0  0  0  0  0  0  0  0  0  0  0  0
   55.5840   26.1890   46.3980 O   0  0  0  0  0  0  0  0  0  0  0  0
   57.8760   27.3580   45.0650 C   0  0  0  0  0  0  0  0  0  0  0  0
   57.2647   29.3032   42.3507 H   0  0  0  0  0  0  0  0  0  0  0  0
   55.6128   30.0004   42.2434 H   0  0  0  0  0  0  0  0  0  0  0  0
   57.0463   31.0829   42.2434 H   0  0  0  0  0  0  0  0  0  0  0  0
   59.5895   29.2692   47.3270 H   0  0  0  0  0  0  0  0  0  0  0  0
   60.0943   27.0059   48.2433 H   0  0  0  0  0  0  0  0  0  0  0  0
   59.1868   24.9697   47.1319 H   0  0  0  0  0  0  0  0  0  0  0  0
   56.7188   22.7918   43.7193 H   0  0  0  0  0  0  0  0  0  0  0  0
   57.2602   27.4551   44.1587 H   0  0  0  0  0  0  0  0  0  0  0  0
  1  2  1  0
  2  3  2  0
  2  4  2  0
  2  5  1  0
  5  6  1  0
  6  7  2  0
  7  8  1  0
  8  9  2  0
  9 10  1  0
 10 11  1  0
 11 12  1  0
 12 13  2  0
 13 14  1  0
 14 15  1  0
 15 16  2  0
 15 17  1  0
 17 18  1  0
 18 19  2  0
 10 20  2  0
 20  6  1  0
 18 12  1  0
  1 21  1  0
  1 22  1  0
  1 23  1  0
  7 24  1  0
  8 25  1  0
  9 26  1  0
 13 27  1  0
 20 28  1  0
M  CHG  3   5  -1  14  -1  17  -1
M  END
>  <UniqueID>  (6) 
5

>  <SMILES>  (6) 
CS(=O)(=O)[N-]c1cccc(Oc2c[n-]c(=O)[n-]c2=O)c1

>  <Energy>  (6) 
36.94458773034427

>  <Genealogy>  (6) 
CS(=O)(=O)[N-]c1cccc(Oc2c[n-]c(=O)[n-]c2=O)c1 (protonated)
CS(=O)(=O)[N-]c1cccc(Oc2c[n-]c(=O)[n-]c2=O)c1 (3D coordinates assigned)
CS(=O)(=O)[N-]c1cccc(Oc2c[n-]c(=O)[n-]c2=O)c1 (optimized conformer: 36.94458773034427 kcal/mol)

>  <smiles>  (6) 
CS(=O)(=O)Nc1cccc(Oc2c[nH]c(=O)[nH]c2=O)c1

>  <score_type>  (6) 
oracle

>  <origin>  (6) 
adg

>  <m_score__min__energy>  (6) 
-12.119999999999999

>  <m_primary>  (6) 
energy

$$$$
6:0
     RDKit          3D

 35 37  0  0  0  0  0  0  0  0999 V2000
   60.9630   35.2120   46.6730 H   0  0  0  0  0  0  0  0  0  0  0  0
   59.9970   35.4090   46.4340 O   0  0  0  0  0  0  0  0  0  0  0  0
   59.1510   34.4080   45.9610 C   0  0  0  0  0  0  0  0  0  0  0  0
   58.3210   34.6070   44.8630 C   0  0  0  0  0  0  0  0  0  0  0  0
   58.2537   35.5238   44.2588 H   0  0  0  0  0  0  0  0  0  0  0  0
   57.4420   33.2010   44.6250 S   0  0  0  0  0  0  0  0  0  0  0  0
   58.1480   32.3870   45.9130 C   0  0  0  0  0  0  0  0  0  0  0  0
   57.7830   31.1730   46.2230 N   0  0  0  0  0  0  0  0  0  0  0  0
   58.2550   29.9260   45.7080 C   0  0  0  0  0  0  0  0  0  0  0  0
   59.5770   29.5360   45.9560 C   0  0  0  0  0  0  0  0  0  0  0  0
   60.2556   30.2124   46.4964 H   0  0  0  0  0  0  0  0  0  0  0  0
   60.0370   28.2920   45.5200 C   0  0  0  0  0  0  0  0  0  0  0  0
   61.0836   28.0012   45.6934 H   0  0  0  0  0  0  0  0  0  0  0  0
   59.1690   27.4170   44.8640 C   0  0  0  0  0  0  0  0  0  0  0  0
   59.5356   26.4413   44.5124 H   0  0  0  0  0  0  0  0  0  0  0  0
   57.8350   27.7780   44.6530 C   0  0  0  0  0  0  0  0  0  0  0  0
   57.1526   27.0808   44.1448 H   0  0  0  0  0  0  0  0  0  0  0  0
   57.3610   29.0320   45.0890 C   0  0  0  0  0  0  0  0  0  0  0  0
   56.0250   29.4280   44.9170 O   0  0  0  0  0  0  0  0  0  0  0  0
   55.5200   30.0710   43.7520 C   0  0  0  0  0  0  0  0  0  0  0  0
   54.8656   30.9043   44.0476 H   0  0  0  0  0  0  0  0  0  0  0  0
   56.3584   30.4576   43.1540 H   0  0  0  0  0  0  0  0  0  0  0  0
   54.9457   29.3481   43.1540 H   0  0  0  0  0  0  0  0  0  0  0  0
   59.0760   33.1730   46.5490 N   0  0  0  0  0  0  0  0  0  0  0  0
   59.8670   32.8460   47.7460 C   0  0  0  0  0  0  0  0  0  0  0  0
   59.6696   33.5987   48.5235 H   0  0  0  0  0  0  0  0  0  0  0  0
   59.5753   31.8442   48.0943 H   0  0  0  0  0  0  0  0  0  0  0  0
   61.3320   32.8340   47.4380 C   0  0  0  0  0  0  0  0  0  0  0  0
   62.0110   33.8740   47.0100 O   0  0  0  0  0  0  0  0  0  0  0  0
   63.2600   33.5110   46.8280 C   0  0  0  0  0  0  0  0  0  0  0  0
   64.0672   34.1715   46.4784 H   0  0  0  0  0  0  0  0  0  0  0  0
   63.4060   32.1750   47.1420 C   0  0  0  0  0  0  0  0  0  0  0  0
   64.3308   31.5815   47.0914 H   0  0  0  0  0  0  0  0  0  0  0  0
   62.1590   31.7340   47.5320 C   0  0  0  0  0  0  0  0  0  0  0  0
   61.8820   30.7184   47.8510 H   0  0  0  0  0  0  0  0  0  0  0  0
  1  2  1  0
  2  3  1  0
  3  4  2  0
  4  5  1  0
  4  6  1  0
  6  7  1  0
  7  8  2  0
  8  9  1  0
  9 10  2  0
 10 11  1  0
 10 12  1  0
 12 13  1  0
 12 14  2  0
 14 15  1  0
 14 16  1  0
 16 17  1  0
 16 18  2  0
 18 19  1  0
 19 20  1  0
 20 21  1  0
 20 22  1  0
 20 23  1  0
  7 24  1  0
 24 25  1  0
 25 26  1  0
 25 27  1  0
 25 28  1  0
 28 29  1  0
 29 30  1  0
 30 31  1  0
 30 32  2  0
 32 33  1  0
 32 34  1  0
 34 35  1  0
 24  3  1  0
 34 28  2  0
 18  9  1  0
M  END
>  <UniqueID>  (7) 
6

>  <SMILES>  (7) 
COc1ccccc1/N=c1/scc(O)n1Cc1ccco1

>  <Energy>  (7) 
105.5459018323779

>  <Genealogy>  (7) 
COc1ccccc1/N=c1/scc(O)n1Cc1ccco1 (cis-trans isomerization)
COc1ccccc1/N=c1/scc(O)n1Cc1ccco1 (3D coordinates assigned)
COc1ccccc1/N=c1/scc(O)n1Cc1ccco1 (optimized conformer: 105.5459018323779 kcal/mol)

>  <smiles>  (7) 
COc1ccccc1N=c1scc(O)n1Cc1ccco1

>  <score_type>  (7) 
oracle

>  <origin>  (7) 
adg

>  <m_score__min__energy>  (7) 
-6.71

>  <m_primary>  (7) 
energy

$$$$
7:0
     RDKit          3D

 51 54  0  0  0  0  0  0  0  0999 V2000
   57.1970   29.8880   55.3180 O   0  0  0  0  0  0  0  0  0  0  0  0
   56.8280   30.1570   54.1420 C   0  0  0  0  0  0  0  0  0  0  0  0
   55.4730   29.8970   53.7460 N   0  0  0  0  0  0  0  0  0  0  0  0
   54.5630   29.1410   54.6050 C   0  0  0  0  0  0  0  0  0  0  0  0
   53.1420   29.7080   54.5290 C   0  0  0  0  0  0  0  0  0  0  0  0
   52.8080   30.1150   53.1190 C   0  0  0  0  0  0  0  0  0  0  0  0
   53.2890   29.3660   52.0320 C   0  0  0  0  0  0  0  0  0  0  0  0
   53.0050   29.7640   50.7220 C   0  0  0  0  0  0  0  0  0  0  0  0
   52.2480   30.9150   50.4880 C   0  0  0  0  0  0  0  0  0  0  0  0
   51.7770   31.6740   51.5640 C   0  0  0  0  0  0  0  0  0  0  0  0
   51.0300   32.8220   51.3280 O   0  0  0  0  0  0  0  0  0  0  0  0
   52.0590   31.2790   52.8750 C   0  0  0  0  0  0  0  0  0  0  0  0
   57.7960   30.7710   53.2020 C   0  0  0  0  0  0  0  0  0  0  0  0
   59.1090   31.0530   53.6360 C   0  0  0  0  0  0  0  0  0  0  0  0
   60.0130   31.6210   52.7930 N   0  0  0  0  0  0  0  0  0  0  0  0
   59.6460   31.9080   51.5230 C   0  0  0  0  0  0  0  0  0  0  0  0
   60.6140   32.6030   50.3400 S   0  0  0  0  0  0  0  0  0  0  0  0
   59.3260   32.5170   49.2300 C   0  0  0  0  0  0  0  0  0  0  0  0
   59.3710   32.9800   47.8660 N   0  0  0  0  0  0  0  0  0  0  0  0
   59.2790   34.4090   47.5420 C   0  0  0  0  0  0  0  0  0  0  0  0
   59.0830   34.6150   46.0350 C   0  0  0  0  0  0  0  0  0  0  0  0
   57.6340   34.3630   45.5750 C   0  0  0  0  0  0  0  0  0  0  0  0
   57.3790   32.8900   45.1990 C   0  0  0  0  0  0  0  0  0  0  0  0
   57.8150   31.8720   46.2730 C   0  0  0  0  0  0  0  0  0  0  0  0
   59.2660   32.0180   46.7630 C   0  0  0  0  0  0  0  0  0  0  0  0
   58.2180   31.9710   49.7900 N   0  0  0  0  0  0  0  0  0  0  0  0
   58.4070   31.6380   51.0640 N   0  0  0  0  0  0  0  0  0  0  0  0
   57.4640   31.0660   51.8600 C   0  0  0  0  0  0  0  0  0  0  0  0
   56.3270   30.7870   51.3900 O   0  0  0  0  0  0  0  0  0  0  0  0
   55.1210   30.2960   52.8460 H   0  0  0  0  0  0  0  0  0  0  0  0
   54.5495   28.0905   54.2791 H   0  0  0  0  0  0  0  0  0  0  0  0
   54.9164   29.2165   55.6439 H   0  0  0  0  0  0  0  0  0  0  0  0
   52.4282   28.9402   54.8622 H   0  0  0  0  0  0  0  0  0  0  0  0
   53.0788   30.5940   55.1779 H   0  0  0  0  0  0  0  0  0  0  0  0
   53.8912   28.4633   52.2122 H   0  0  0  0  0  0  0  0  0  0  0  0
   53.3780   29.1702   49.8745 H   0  0  0  0  0  0  0  0  0  0  0  0
   52.0224   31.2243   49.4568 H   0  0  0  0  0  0  0  0  0  0  0  0
   51.6931   31.8818   53.7193 H   0  0  0  0  0  0  0  0  0  0  0  0
   59.4047   30.8108   54.6675 H   0  0  0  0  0  0  0  0  0  0  0  0
   58.4248   34.8463   48.0797 H   0  0  0  0  0  0  0  0  0  0  0  0
   60.2152   34.9001   47.8458 H   0  0  0  0  0  0  0  0  0  0  0  0
   59.3548   35.6511   45.7848 H   0  0  0  0  0  0  0  0  0  0  0  0
   59.7235   33.8855   45.5177 H   0  0  0  0  0  0  0  0  0  0  0  0
   56.9517   34.6413   46.3917 H   0  0  0  0  0  0  0  0  0  0  0  0
   57.4595   34.9714   44.6754 H   0  0  0  0  0  0  0  0  0  0  0  0
   56.3009   32.7621   45.0217 H   0  0  0  0  0  0  0  0  0  0  0  0
   57.9885   32.6844   44.3067 H   0  0  0  0  0  0  0  0  0  0  0  0
   57.1494   31.9871   47.1412 H   0  0  0  0  0  0  0  0  0  0  0  0
   57.7511   30.8816   45.7987 H   0  0  0  0  0  0  0  0  0  0  0  0
   59.6259   31.0379   47.1091 H   0  0  0  0  0  0  0  0  0  0  0  0
   59.8757   32.3880   45.9255 H   0  0  0  0  0  0  0  0  0  0  0  0
  1  2  2  0
  2  3  1  0
  3  4  1  0
  4  5  1  0
  5  6  1  0
  6  7  2  0
  7  8  1  0
  8  9  2  0
  9 10  1  0
 10 11  1  0
 10 12  2  0
  2 13  1  0
 13 14  2  0
 14 15  1  0
 15 16  2  0
 16 17  1  0
 17 18  1  0
 18 19  1  0
 19 20  1  0
 20 21  1  0
 21 22  1  0
 22 23  1  0
 23 24  1  0
 24 25  1  0
 18 26  2  0
 26 27  1  0
 27 28  1  0
 28 29  2  0
 12  6  1  0
 28 13  1  0
 27 16  1  0
 25 19  1  0
  3 30  1  0
  4 31  1  0
  4 32  1  0
  5 33  1  0
  5 34  1  0
  7 35  1  0
  8 36  1  0
  9 37  1  0
 12 38  1  0
 14 39  1  0
 20 40  1  0
 20 41  1  0
 21 42  1  0
 21 43  1  0
 22 44  1  0
 22 45  1  0
 23 46  1  0
 23 47  1  0
 24 48  1  0
 24 49  1  0
 25 50  1  0
 25 51  1  0
M  CHG  1  11  -1
M  END
>  <UniqueID>  (8) 
7

>  <SMILES>  (8) 
O=C(NCCc1cccc([O-])c1)c1cnc2sc(N3CCCCCC3)nn2c1=O

>  <Energy>  (8) 
91.68233383386516

>  <Genealogy>  (8) 
O=C(NCCc1cccc([O-])c1)c1cnc2sc(N3CCCCCC3)nn2c1=O (protonated)
O=C(NCCc1cccc([O-])c1)c1cnc2sc(N3CCCCCC3)nn2c1=O (3D coordinates assigned)
O=C(NCCc1cccc([O-])c1)c1cnc2sc(N3CCCCCC3)nn2c1=O (nonaromatic ring conformer: 91.68233383386516 kcal/mol)

>  <smiles>  (8) 
O=C(NCCc1cccc(O)c1)c1cnc2sc(N3CCCCCC3)nn2c1=O

>  <score_type>  (8) 
oracle

>  <origin>  (8) 
adg

>  <m_score__min__energy>  (8) 
-9.7899999999999991

>  <m_primary>  (8) 
energy

$$$$
8:0
     RDKit          3D

 61 63  0  0  0  0  0  0  0  0999 V2000
   57.7630   32.8850   46.6580 C   0  0  0  0  0  0  0  0  0  0  0  0
   58.0670   32.6900   48.0350 O   0  0  0  0  0  0  0  0  0  0  0  0
   59.2280   33.1600   48.6730 C   0  0  0  0  0  0  0  0  0  0  0  0
   60.1900   33.9220   47.9840 C   0  0  0  0  0  0  0  0  0  0  0  0
   61.3570   34.3330   48.6260 C   0  0  0  0  0  0  0  0  0  0  0  0
   61.5880   33.9840   49.9560 C   0  0  0  0  0  0  0  0  0  0  0  0
   60.6390   33.2270   50.6680 C   0  0  0  0  0  0  0  0  0  0  0  0
   60.8450   32.8580   52.0090 O   0  0  0  0  0  0  0  0  0  0  0  0
   62.0050   32.1890   52.4950 C   0  0  0  0  0  0  0  0  0  0  0  0
   61.7210   30.6920   52.5930 C   0  0  0  0  0  0  0  0  0  0  0  0
   62.2250   29.9900   51.4110 N   0  0  0  0  0  0  0  0  0  0  0  0
   61.5560   29.9430   50.1350 C   0  0  0  0  0  0  0  0  0  0  0  0
   60.5190   29.0180   49.9430 C   0  0  0  0  0  0  0  0  0  0  0  0
   59.8490   28.9420   48.7190 C   0  0  0  0  0  0  0  0  0  0  0  0
   60.2080   29.7870   47.6550 C   0  0  0  0  0  0  0  0  0  0  0  0
   59.4870   29.7010   46.3640 C   0  0  0  0  0  0  0  0  0  0  0  0
   59.9700   30.2800   45.3530 O   0  0  0  0  0  0  0  0  0  0  0  0
   58.2410   28.9840   46.2590 N   0  0  0  0  0  0  0  0  0  0  0  0
   57.5510   28.6810   44.9970 C   0  0  1  0  0  0  0  0  0  0  0  0
   57.2580   27.1740   44.8360 C   0  0  0  0  0  0  0  0  0  0  0  0
   57.2790   26.4380   46.1820 C   0  0  0  0  0  0  0  0  0  0  0  0
   55.9660   25.7660   46.4370 C   0  0  0  0  0  0  0  0  0  0  0  0
   55.9200   24.7000   47.1090 O   0  0  0  0  0  0  0  0  0  0  0  0
   54.7890   26.3330   45.9620 O   0  0  0  0  0  0  0  0  0  0  0  0
   56.3080   29.5180   44.8610 C   0  0  0  0  0  0  0  0  0  0  0  0
   55.1640   28.9870   44.8770 O   0  0  0  0  0  0  0  0  0  0  0  0
   56.4160   30.8980   44.7710 O   0  0  0  0  0  0  0  0  0  0  0  0
   61.2340   30.7270   47.8520 C   0  0  0  0  0  0  0  0  0  0  0  0
   61.9000   30.8070   49.0780 C   0  0  0  0  0  0  0  0  0  0  0  0
   59.4450   32.8350   50.0290 C   0  0  0  0  0  0  0  0  0  0  0  0
   58.4410   32.0590   50.7870 C   0  0  0  0  0  0  0  0  0  0  0  0
   58.0650   30.8400   50.4740 O   0  0  0  0  0  0  0  0  0  0  0  0
   57.1750   30.3890   51.3110 N   0  0  0  0  0  0  0  0  0  0  0  0
   56.9590   31.3560   52.2250 C   0  0  0  0  0  0  0  0  0  0  0  0
   57.7600   32.4380   51.9310 C   0  0  0  0  0  0  0  0  0  0  0  0
   57.8540   33.7160   52.7030 C   0  0  0  0  0  0  0  0  0  0  0  0
   56.8403   33.4768   46.5664 H   0  0  0  0  0  0  0  0  0  0  0  0
   58.5918   33.4204   46.1718 H   0  0  0  0  0  0  0  0  0  0  0  0
   57.6220   31.9084   46.1718 H   0  0  0  0  0  0  0  0  0  0  0  0
   60.0198   34.1950   46.9321 H   0  0  0  0  0  0  0  0  0  0  0  0
   62.0988   34.9352   48.0810 H   0  0  0  0  0  0  0  0  0  0  0  0
   62.5171   34.3021   50.4515 H   0  0  0  0  0  0  0  0  0  0  0  0
   62.8438   32.3593   51.8041 H   0  0  0  0  0  0  0  0  0  0  0  0
   62.2662   32.5801   53.4894 H   0  0  0  0  0  0  0  0  0  0  0  0
   62.2144   30.2890   53.4898 H   0  0  0  0  0  0  0  0  0  0  0  0
   60.6330   30.5423   52.6555 H   0  0  0  0  0  0  0  0  0  0  0  0
   63.1380   29.4910   51.5110 H   0  0  0  0  0  0  0  0  0  0  0  0
   60.2303   28.3456   50.7643 H   0  0  0  0  0  0  0  0  0  0  0  0
   59.0341   28.2150   48.5873 H   0  0  0  0  0  0  0  0  0  0  0  0
   57.7730   28.6650   47.1370 H   0  0  0  0  0  0  0  0  0  0  0  0
   58.2294   28.9465   44.1728 H   0  0  0  0  0  0  0  0  0  0  0  0
   56.2645   27.0520   44.3799 H   0  0  0  0  0  0  0  0  0  0  0  0
   58.0436   26.7410   44.1994 H   0  0  0  0  0  0  0  0  0  0  0  0
   58.0759   25.6799   46.1668 H   0  0  0  0  0  0  0  0  0  0  0  0
   57.4638   27.1693   46.9826 H   0  0  0  0  0  0  0  0  0  0  0  0
   61.5154   31.4060   47.0336 H   0  0  0  0  0  0  0  0  0  0  0  0
   62.6987   31.5503   49.2181 H   0  0  0  0  0  0  0  0  0  0  0  0
   56.2567   31.2917   53.0692 H   0  0  0  0  0  0  0  0  0  0  0  0
   57.8378   33.4955   53.7805 H   0  0  0  0  0  0  0  0  0  0  0  0
   58.7924   34.2302   52.4480 H   0  0  0  0  0  0  0  0  0  0  0  0
   57.0009   34.3620   52.4480 H   0  0  0  0  0  0  0  0  0  0  0  0
  1  2  1  0
  2  3  1  0
  3  4  2  0
  4  5  1  0
  5  6  2  0
  6  7  1  0
  7  8  1  0
  8  9  1  0
  9 10  1  0
 10 11  1  0
 11 12  1  0
 12 13  2  0
 13 14  1  0
 14 15  2  0
 15 16  1  0
 16 17  2  0
 16 18  1  0
 18 19  1  0
 19 20  1  0
 20 21  1  0
 21 22  1  0
 22 23  2  0
 22 24  1  0
 19 25  1  0
 25 26  2  0
 25 27  1  0
 15 28  1  0
 28 29  2  0
  7 30  2  0
 30 31  1  0
 31 32  1  0
 32 33  1  0
 33 34  2  0
 34 35  1  0
 35 36  1  0
 30  3  1  0
 35 31  2  0
 29 12  1  0
  1 37  1  0
  1 38  1  0
  1 39  1  0
  4 40  1  0
  5 41  1  0
  6 42  1  0
  9 43  1  0
  9 44  1  0
 10 45  1  0
 10 46  1  0
 11 47  1  0
 13 48  1  0
 14 49  1  0
 18 50  1  0
 19 51  1  6
 20 52  1  0
 20 53  1  0
 21 54  1  0
 21 55  1  0
 28 56  1  0
 29 57  1  0
 34 58  1  0
 36 59  1  0
 36 60  1  0
 36 61  1  0
M  CHG  2  24  -1  27  -1
M  END
>  <UniqueID>  (9) 
8

>  <SMILES>  (9) 
COc1cccc(OCCNc2ccc(C(=O)N[C@@H](CCC(=O)[O-])C(=O)[O-])cc2)c1-c1oncc1C

>  <Energy>  (9) 
93.44769684933571

>  <Genealogy>  (9) 
COc1cccc(OCCNc2ccc(C(=O)NC(CCC(=O)[O-])C(=O)[O-])cc2)c1-c1oncc1C (protonated)
COc1cccc(OCCNc2ccc(C(=O)N[C@@H](CCC(=O)[O-])C(=O)[O-])cc2)c1-c1oncc1C (chirality)
COc1cccc(OCCNc2ccc(C(=O)N[C@@H](CCC(=O)[O-])C(=O)[O-])cc2)c1-c1oncc1C (3D coordinates assigned)
COc1cccc(OCCNc2ccc(C(=O)N[C@@H](CCC(=O)[O-])C(=O)[O-])cc2)c1-c1oncc1C (optimized conformer: 93.44769684933571 kcal/mol)

>  <smiles>  (9) 
COc1cccc(OCCNc2ccc(C(=O)NC(CCC(=O)O)C(=O)O)cc2)c1-c1oncc1C

>  <score_type>  (9) 
oracle

>  <origin>  (9) 
adg

>  <m_score__min__energy>  (9) 
-13.359999999999999

>  <m_primary>  (9) 
energy

$$$$
9:0
     RDKit          3D

 69 70  0  0  0  0  0  0  0  0999 V2000
   62.6620   31.2670   48.8950 C   0  0  0  0  0  0  0  0  0  0  0  0
   61.2100   31.6040   49.1300 C   0  0  0  0  0  0  0  0  0  0  0  0
   60.4770   30.9190   50.1270 C   0  0  0  0  0  0  0  0  0  0  0  0
   61.0300   29.8540   50.8440 O   0  0  0  0  0  0  0  0  0  0  0  0
   61.1390   28.5480   50.2870 C   0  0  0  0  0  0  0  0  0  0  0  0
   59.9510   28.2910   49.3600 C   0  0  0  0  0  0  0  0  0  0  0  0
   60.3960   27.8200   47.9660 C   0  0  0  0  0  0  0  0  0  0  0  0
   59.7060   28.5620   46.8880 N   0  0  0  0  0  0  0  0  0  0  0  0
   60.6890   29.2860   46.0650 C   0  0  0  0  0  0  0  0  0  0  0  0
   58.7300   29.5190   47.4370 C   0  0  0  0  0  0  0  0  0  0  0  0
   59.1660   31.3060   50.4210 C   0  0  0  0  0  0  0  0  0  0  0  0
   58.5550   32.3350   49.7060 C   0  0  0  0  0  0  0  0  0  0  0  0
   59.2440   32.9750   48.6780 C   0  0  0  0  0  0  0  0  0  0  0  0
   60.5580   32.6040   48.3660 C   0  0  0  0  0  0  0  0  0  0  0  0
   61.3570   33.4070   46.9650 S   0  0  0  0  0  0  0  0  0  0  0  0
   59.8510   33.4030   45.9910 C   0  0  0  0  0  0  0  0  0  0  0  0
   59.2790   34.6120   45.5810 C   0  0  0  0  0  0  0  0  0  0  0  0
   58.0790   34.6110   44.8650 C   0  0  0  0  0  0  0  0  0  0  0  0
   57.4370   33.4050   44.5710 C   0  0  0  0  0  0  0  0  0  0  0  0
   58.0010   32.1830   44.9820 C   0  0  0  0  0  0  0  0  0  0  0  0
   57.3020   30.9020   44.7340 C   0  0  0  0  0  0  0  0  0  0  0  0
   56.0410   30.8570   44.7380 O   0  0  0  0  0  0  0  0  0  0  0  0
   58.0440   29.7360   44.5120 O   0  0  0  0  0  0  0  0  0  0  0  0
   57.4470   28.4560   44.3390 C   0  0  1  0  0  0  0  0  0  0  0  0
   58.5540   27.4150   44.1930 C   0  0  0  0  0  0  0  0  0  0  0  0
   56.6380   28.1550   45.4780 O   0  0  0  0  0  0  0  0  0  0  0  0
   56.6560   26.9220   46.1380 C   0  0  0  0  0  0  0  0  0  0  0  0
   57.6490   26.5850   46.8370 O   0  0  0  0  0  0  0  0  0  0  0  0
   55.5430   26.0790   46.0060 O   0  0  0  0  0  0  0  0  0  0  0  0
   55.5640   24.6700   45.7340 C   0  0  0  0  0  0  0  0  0  0  0  0
   54.1740   24.1810   45.2860 C   0  0  0  0  0  0  0  0  0  0  0  0
   56.5590   24.4450   44.5870 C   0  0  0  0  0  0  0  0  0  0  0  0
   56.0450   23.8880   46.9720 C   0  0  0  0  0  0  0  0  0  0  0  0
   59.2260   32.1930   45.6710 C   0  0  0  0  0  0  0  0  0  0  0  0
   63.1721   31.1486   49.8623 H   0  0  0  0  0  0  0  0  0  0  0  0
   62.7331   30.3285   48.3257 H   0  0  0  0  0  0  0  0  0  0  0  0
   63.1392   32.0783   48.3257 H   0  0  0  0  0  0  0  0  0  0  0  0
   62.0750   28.4701   49.7144 H   0  0  0  0  0  0  0  0  0  0  0  0
   61.1421   27.8025   51.0958 H   0  0  0  0  0  0  0  0  0  0  0  0
   59.3121   27.5162   49.8089 H   0  0  0  0  0  0  0  0  0  0  0  0
   59.4049   29.2382   49.2390 H   0  0  0  0  0  0  0  0  0  0  0  0
   61.4805   27.9755   47.8672 H   0  0  0  0  0  0  0  0  0  0  0  0
   60.1380   26.7553   47.8669 H   0  0  0  0  0  0  0  0  0  0  0  0
   61.4006   29.8101   46.7200 H   0  0  0  0  0  0  0  0  0  0  0  0
   61.2330   28.5712   45.4301 H   0  0  0  0  0  0  0  0  0  0  0  0
   60.1678   30.0176   45.4301 H   0  0  0  0  0  0  0  0  0  0  0  0
   58.7630   29.4866   48.5360 H   0  0  0  0  0  0  0  0  0  0  0  0
   58.9779   30.5338   47.0925 H   0  0  0  0  0  0  0  0  0  0  0  0
   57.7202   29.2512   47.0925 H   0  0  0  0  0  0  0  0  0  0  0  0
   58.6126   30.7947   51.2225 H   0  0  0  0  0  0  0  0  0  0  0  0
   57.5281   32.6419   49.9536 H   0  0  0  0  0  0  0  0  0  0  0  0
   58.7527   33.7770   48.1076 H   0  0  0  0  0  0  0  0  0  0  0  0
   59.7742   35.5641   45.8224 H   0  0  0  0  0  0  0  0  0  0  0  0
   57.6384   35.5622   44.5318 H   0  0  0  0  0  0  0  0  0  0  0  0
   56.4872   33.4110   44.0162 H   0  0  0  0  0  0  0  0  0  0  0  0
   56.8143   28.4483   43.4392 H   0  0  0  0  0  0  0  0  0  0  0  0
   58.8921   27.0970   45.1903 H   0  0  0  0  0  0  0  0  0  0  0  0
   58.1685   26.5446   43.6418 H   0  0  0  0  0  0  0  0  0  0  0  0
   59.3990   27.8532   43.6418 H   0  0  0  0  0  0  0  0  0  0  0  0
   53.5585   23.9645   46.1716 H   0  0  0  0  0  0  0  0  0  0  0  0
   53.6873   24.9619   44.6832 H   0  0  0  0  0  0  0  0  0  0  0  0
   54.2834   23.2674   44.6832 H   0  0  0  0  0  0  0  0  0  0  0  0
   57.5525   24.2203   45.0022 H   0  0  0  0  0  0  0  0  0  0  0  0
   56.2206   23.6007   43.9684 H   0  0  0  0  0  0  0  0  0  0  0  0
   56.6168   25.3527   43.9684 H   0  0  0  0  0  0  0  0  0  0  0  0
   55.7230   24.4115   47.8843 H   0  0  0  0  0  0  0  0  0  0  0  0
   55.6126   22.8766   46.9576 H   0  0  0  0  0  0  0  0  0  0  0  0
   57.1427   23.8177   46.9576 H   0  0  0  0  0  0  0  0  0  0  0  0
   59.6969   31.2421   45.9609 H   0  0  0  0  0  0  0  0  0  0  0  0
  1  2  1  0
  2  3  2  0
  3  4  1  0
  4  5  1  0
  5  6  1  0
  6  7  1  0
  7  8  1  0
  8  9  1  0
  8 10  1  0
  3 11  1  0
 11 12  2  0
 12 13  1  0
 13 14  2  0
 14 15  1  0
 15 16  1  0
 16 17  2  0
 17 18  1  0
 18 19  2  0
 19 20  1  0
 20 21  1  0
 21 22  2  0
 21 23  1  0
 23 24  1  0
 24 25  1  0
 24 26  1  0
 26 27  1  0
 27 28  2  0
 27 29  1  0
 29 30  1  0
 30 31  1  0
 30 32  1  0
 30 33  1  0
 20 34  2  0
 14  2  1  0
 34 16  1  0
  1 35  1  0
  1 36  1  0
  1 37  1  0
  5 38  1  0
  5 39  1  0
  6 40  1  0
  6 41  1  0
  7 42  1  0
  7 43  1  0
  9 44  1  0
  9 45  1  0
  9 46  1  0
 10 47  1  0
 10 48  1  0
 10 49  1  0
 11 50  1  0
 12 51  1  0
 13 52  1  0
 17 53  1  0
 18 54  1  0
 19 55  1  0
 24 56  1  6
 25 57  1  0
 25 58  1  0
 25 59  1  0
 31 60  1  0
 31 61  1  0
 31 62  1  0
 32 63  1  0
 32 64  1  0
 32 65  1  0
 33 66  1  0
 33 67  1  0
 33 68  1  0
 34 69  1  0
M  END
>  <UniqueID>  (10) 
9

>  <SMILES>  (10) 
Cc1c(OCCCN(C)C)cccc1Sc1cccc(C(=O)O[C@@H](C)OC(=O)OC(C)(C)C)c1

>  <Energy>  (10) 
54.16989483093777

>  <Genealogy>  (10) 
Cc1c(OCCCN(C)C)cccc1Sc1cccc(C(=O)O[C@@H](C)OC(=O)OC(C)(C)C)c1 (chirality)
Cc1c(OCCCN(C)C)cccc1Sc1cccc(C(=O)O[C@@H](C)OC(=O)OC(C)(C)C)c1 (3D coordinates assigned)
Cc1c(OCCCN(C)C)cccc1Sc1cccc(C(=O)O[C@@H](C)OC(=O)OC(C)(C)C)c1 (optimized conformer: 54.16989483093777 kcal/mol)

>  <smiles>  (10) 
Cc1c(OCCCN(C)C)cccc1Sc1cccc(C(=O)OC(C)OC(=O)OC(C)(C)C)c1

>  <score_type>  (10) 
oracle

>  <origin>  (10) 
adg

>  <m_score__min__energy>  (10) 
-8.8800000000000008

>  <m_primary>  (10) 
energy

$$$$
10:0
     RDKit          3D

 47 50  0  0  0  0  0  0  0  0999 V2000
   61.2820   29.9580   48.8180 C   0  0  0  0  0  0  0  0  0  0  0  0
   59.8920   29.8290   49.1840 N   0  0  0  0  0  0  0  0  0  0  0  0
   58.9950   29.4340   48.0920 C   0  0  0  0  0  0  0  0  0  0  0  0
   58.6170   30.5350   47.2110 C   0  0  0  0  0  0  0  0  0  0  0  0
   57.8190   30.2580   46.1370 N   0  0  0  0  0  0  0  0  0  0  0  0
   57.3990   31.1600   45.2640 C   0  0  0  0  0  0  0  0  0  0  0  0
   56.6650   30.8600   44.2880 O   0  0  0  0  0  0  0  0  0  0  0  0
   57.7730   32.4660   45.4210 C   0  0  0  0  0  0  0  0  0  0  0  0
   57.5470   33.6090   44.7560 N   0  0  0  0  0  0  0  0  0  0  0  0
   58.1610   34.6100   45.3510 N   0  0  0  0  0  0  0  0  0  0  0  0
   58.7880   34.1090   46.4070 N   0  0  0  0  0  0  0  0  0  0  0  0
   59.5770   34.9240   47.3100 C   0  0  0  0  0  0  0  0  0  0  0  0
   60.8370   34.2150   47.6300 C   0  0  0  0  0  0  0  0  0  0  0  0
   61.2250   33.9270   48.9230 C   0  0  0  0  0  0  0  0  0  0  0  0
   62.4230   33.2600   49.1030 C   0  0  0  0  0  0  0  0  0  0  0  0
   63.2290   32.8790   48.0380 C   0  0  0  0  0  0  0  0  0  0  0  0
   62.8190   33.1780   46.7580 C   0  0  0  0  0  0  0  0  0  0  0  0
   61.6320   33.8420   46.5480 C   0  0  0  0  0  0  0  0  0  0  0  0
   58.5830   32.7850   46.5000 C   0  0  0  0  0  0  0  0  0  0  0  0
   58.9740   31.8190   47.3500 N   0  0  0  0  0  0  0  0  0  0  0  0
   59.3180   30.0460   50.4420 C   0  0  0  0  0  0  0  0  0  0  0  0
   59.1390   28.9740   51.1510 O   0  0  0  0  0  0  0  0  0  0  0  0
   58.8930   31.2590   51.0780 C   0  0  0  0  0  0  0  0  0  0  0  0
   59.5900   32.4170   51.2200 C   0  0  0  0  0  0  0  0  0  0  0  0
   59.0940   33.5560   51.8570 C   0  0  0  0  0  0  0  0  0  0  0  0
   57.8320   33.5510   52.3850 C   0  0  0  0  0  0  0  0  0  0  0  0
   57.0950   32.4000   52.2610 C   0  0  0  0  0  0  0  0  0  0  0  0
   57.5960   31.2580   51.6220 C   0  0  0  0  0  0  0  0  0  0  0  0
   56.7530   30.1810   51.5710 O   0  0  0  0  0  0  0  0  0  0  0  0
   61.8970   30.0151   49.7282 H   0  0  0  0  0  0  0  0  0  0  0  0
   61.5872   29.0843   48.2234 H   0  0  0  0  0  0  0  0  0  0  0  0
   61.4212   30.8729   48.2234 H   0  0  0  0  0  0  0  0  0  0  0  0
   59.5006   28.6655   47.4889 H   0  0  0  0  0  0  0  0  0  0  0  0
   58.0692   29.0638   48.5566 H   0  0  0  0  0  0  0  0  0  0  0  0
   59.8080   35.8866   46.8303 H   0  0  0  0  0  0  0  0  0  0  0  0
   59.0100   35.1060   48.2349 H   0  0  0  0  0  0  0  0  0  0  0  0
   60.6021   34.2183   49.7816 H   0  0  0  0  0  0  0  0  0  0  0  0
   62.7493   33.0227   50.1264 H   0  0  0  0  0  0  0  0  0  0  0  0
   64.1766   32.3487   48.2137 H   0  0  0  0  0  0  0  0  0  0  0  0
   63.4424   32.8851   45.9003 H   0  0  0  0  0  0  0  0  0  0  0  0
   61.3099   34.0789   45.5232 H   0  0  0  0  0  0  0  0  0  0  0  0
   59.5780   32.1000   48.1490 H   0  0  0  0  0  0  0  0  0  0  0  0
   60.6087   32.4595   50.8072 H   0  0  0  0  0  0  0  0  0  0  0  0
   59.7185   34.4582   51.9344 H   0  0  0  0  0  0  0  0  0  0  0  0
   57.4226   34.4379   52.8909 H   0  0  0  0  0  0  0  0  0  0  0  0
   56.0771   32.3730   52.6771 H   0  0  0  0  0  0  0  0  0  0  0  0
   57.0250   29.2500   51.2770 H   0  0  0  0  0  0  0  0  0  0  0  0
  1  2  1  0
  2  3  1  0
  3  4  1  0
  4  5  2  0
  5  6  1  0
  6  7  2  0
  6  8  1  0
  8  9  1  0
  9 10  2  0
 10 11  1  0
 11 12  1  0
 12 13  1  0
 13 14  2  0
 14 15  1  0
 15 16  2  0
 16 17  1  0
 17 18  2  0
 11 19  1  0
 19 20  1  0
  2 21  1  0
 21 22  2  0
 21 23  1  0
 23 24  2  0
 24 25  1  0
 25 26  2  0
 26 27  1  0
 27 28  2  0
 28 29  1  0
 20  4  1  0
 28 23  1  0
 19  8  2  0
 18 13  1  0
  1 30  1  0
  1 31  1  0
  1 32  1  0
  3 33  1  0
  3 34  1  0
 12 35  1  0
 12 36  1  0
 14 37  1  0
 15 38  1  0
 16 39  1  0
 17 40  1  0
 18 41  1  0
 20 42  1  0
 24 43  1  0
 25 44  1  0
 26 45  1  0
 27 46  1  0
 29 47  1  0
M  END
>  <smiles>  (11) 
CN(Cc1nc(=O)c2nnn(Cc3ccccc3)c2[nH]1)C(=O)c1ccccc1O

>  <score_type>  (11) 
oracle

>  <origin>  (11) 
adg

>  <m_score__min__energy>  (11) 
-10.300000000000001

>  <m_primary>  (11) 
energy

$$$$
11:0
     RDKit          3D

 51 53  0  0  0  0  0  0  0  0999 V2000
   59.0620   26.7460   47.1050 C   0  0  0  0  0  0  0  0  0  0  0  0
   58.9690   26.5280   45.5990 C   0  0  0  0  0  0  0  0  0  0  0  0
   57.5950   26.9390   45.0610 C   0  0  0  0  0  0  0  0  0  0  0  0
   57.7590   27.8290   43.9100 N   0  0  0  0  0  0  0  0  0  0  0  0
   57.5190   29.4790   44.4010 S   0  0  0  0  0  0  0  0  0  0  0  0
   57.7100   30.3840   43.2160 O   0  0  0  0  0  0  0  0  0  0  0  0
   56.1150   29.6470   44.9090 O   0  0  0  0  0  0  0  0  0  0  0  0
   58.6460   29.9120   45.6860 C   0  0  0  0  0  0  0  0  0  0  0  0
   60.0400   29.7480   45.4750 C   0  0  0  0  0  0  0  0  0  0  0  0
   60.9640   30.0960   46.4800 C   0  0  0  0  0  0  0  0  0  0  0  0
   60.4490   30.5950   47.6750 C   0  0  0  0  0  0  0  0  0  0  0  0
   59.1150   30.7600   47.8790 C   0  0  0  0  0  0  0  0  0  0  0  0
   58.1710   30.4340   46.9110 C   0  0  0  0  0  0  0  0  0  0  0  0
   58.9210   31.2800   49.1050 N   0  0  0  0  0  0  0  0  0  0  0  0
   60.1360   31.4260   49.6320 N   0  0  0  0  0  0  0  0  0  0  0  0
   61.0750   31.0060   48.7890 N   0  0  0  0  0  0  0  0  0  0  0  0
   62.5110   31.0990   49.0380 C   0  0  0  0  0  0  0  0  0  0  0  0
   63.2440   31.4570   47.7490 C   0  0  0  0  0  0  0  0  0  0  0  0
   63.5030   32.8900   47.7150 N   0  0  0  0  0  0  0  0  0  0  0  0
   62.7570   33.7930   46.8910 C   0  0  0  0  0  0  0  0  0  0  0  0
   63.3510   34.4560   45.9960 O   0  0  0  0  0  0  0  0  0  0  0  0
   61.2950   33.9430   47.0810 C   0  0  0  0  0  0  0  0  0  0  0  0
   60.7680   34.2830   48.3400 C   0  0  0  0  0  0  0  0  0  0  0  0
   59.3880   34.4170   48.5160 C   0  0  0  0  0  0  0  0  0  0  0  0
   58.5190   34.2120   47.4420 C   0  0  0  0  0  0  0  0  0  0  0  0
   59.0270   33.8750   46.1820 C   0  0  0  0  0  0  0  0  0  0  0  0
   57.9160   33.6230   44.8370 S   0  0  0  0  0  0  0  0  0  0  0  0
   56.7370   32.4390   45.2780 N   0  0  0  0  0  0  0  0  0  0  0  0
   57.2300   34.9180   44.5080 O   0  0  0  0  0  0  0  0  0  0  0  0
   58.6630   33.1390   43.6260 O   0  0  0  0  0  0  0  0  0  0  0  0
   60.4110   33.7450   46.0020 C   0  0  0  0  0  0  0  0  0  0  0  0
   58.6824   25.8561   47.6284 H   0  0  0  0  0  0  0  0  0  0  0  0
   60.1115   26.9172   47.3866 H   0  0  0  0  0  0  0  0  0  0  0  0
   58.4592   27.6220   47.3866 H   0  0  0  0  0  0  0  0  0  0  0  0
   59.7435   27.1301   45.1013 H   0  0  0  0  0  0  0  0  0  0  0  0
   59.1164   25.4575   45.3934 H   0  0  0  0  0  0  0  0  0  0  0  0
   57.0402   26.0408   44.7520 H   0  0  0  0  0  0  0  0  0  0  0  0
   57.0383   27.4651   45.8505 H   0  0  0  0  0  0  0  0  0  0  0  0
   57.0090   27.6080   43.2150 H   0  0  0  0  0  0  0  0  0  0  0  0
   60.4024   29.3453   44.5176 H   0  0  0  0  0  0  0  0  0  0  0  0
   62.0471   29.9787   46.3278 H   0  0  0  0  0  0  0  0  0  0  0  0
   57.0954   30.5769   47.0917 H   0  0  0  0  0  0  0  0  0  0  0  0
   62.6999   31.8771   49.7922 H   0  0  0  0  0  0  0  0  0  0  0  0
   62.8770   30.1279   49.4027 H   0  0  0  0  0  0  0  0  0  0  0  0
   64.1983   30.9116   47.7072 H   0  0  0  0  0  0  0  0  0  0  0  0
   62.6218   31.1780   46.8858 H   0  0  0  0  0  0  0  0  0  0  0  0
   61.4460   34.4444   49.1911 H   0  0  0  0  0  0  0  0  0  0  0  0
   58.9849   34.6848   49.5038 H   0  0  0  0  0  0  0  0  0  0  0  0
   57.4335   34.3156   47.5866 H   0  0  0  0  0  0  0  0  0  0  0  0
   56.7920   31.6750   44.5680 H   0  0  0  0  0  0  0  0  0  0  0  0
   60.8102   33.4863   45.0102 H   0  0  0  0  0  0  0  0  0  0  0  0
  1  2  1  0
  2  3  1  0
  3  4  1  0
  4  5  1  0
  5  6  2  0
  5  7  2  0
  5  8  1  0
  8  9  2  0
  9 10  1  0
 10 11  2  0
 11 12  1  0
 12 13  2  0
 12 14  1  0
 14 15  2  0
 15 16  1  0
 16 17  1  0
 17 18  1  0
 18 19  1  0
 19 20  1  0
 20 21  2  0
 20 22  1  0
 22 23  2  0
 23 24  1  0
 24 25  2  0
 25 26  1  0
 26 27  1  0
 27 28  1  0
 27 29  2  0
 27 30  2  0
 26 31  2  0
 13  8  1  0
 31 22  1  0
 16 11  1  0
  1 32  1  0
  1 33  1  0
  1 34  1  0
  2 35  1  0
  2 36  1  0
  3 37  1  0
  3 38  1  0
  4 39  1  0
  9 40  1  0
 10 41  1  0
 13 42  1  0
 17 43  1  0
 17 44  1  0
 18 45  1  0
 18 46  1  0
 23 47  1  0
 24 48  1  0
 25 49  1  0
 28 50  1  0
 31 51  1  0
M  CHG  2  19  -1  28  -1
M  END
>  <UniqueID>  (12) 
10

>  <SMILES>  (12) 
CCCNS(=O)(=O)c1ccc2c(c1)nnn2CC[N-]C(=O)c1cccc(S([NH-])(=O)=O)c1

>  <Energy>  (12) 
85.01347384175052

>  <Genealogy>  (12) 
CCCNS(=O)(=O)c1ccc2c(c1)nnn2CC[N-]C(=O)c1cccc(S([NH-])(=O)=O)c1 (protonated)
CCCNS(=O)(=O)c1ccc2c(c1)nnn2CC[N-]C(=O)c1cccc(S([NH-])(=O)=O)c1 (3D coordinates assigned)
CCCNS(=O)(=O)c1ccc2c(c1)nnn2CC[N-]C(=O)c1cccc(S([NH-])(=O)=O)c1 (optimized conformer: 85.01347384175052 kcal/mol)

>  <smiles>  (12) 
CCCNS(=O)(=O)c1ccc2c(c1)nnn2CCNC(=O)c1cccc(S(N)(=O)=O)c1

>  <score_type>  (12) 
oracle

>  <origin>  (12) 
adg

>  <m_score__min__energy>  (12) 
-13.23

>  <m_primary>  (12) 
energy

$$$$
12:0
     RDKit          3D

 45 48  0  0  0  0  0  0  0  0999 V2000
   55.1350   28.5900   44.8480 H   0  0  0  0  0  0  0  0  0  0  0  0
   55.3020   29.6200   44.8890 N   0  0  0  0  0  0  0  0  0  0  0  0
   56.3340   30.2250   44.1120 C   0  0  0  0  0  0  0  0  0  0  0  0
   56.1840   30.3510   42.8680 O   0  0  0  0  0  0  0  0  0  0  0  0
   57.5370   30.7740   44.7700 C   0  0  0  0  0  0  0  0  0  0  0  0
   57.4760   32.1300   45.1900 C   0  0  0  0  0  0  0  0  0  0  0  0
   56.6417   32.7626   44.8526 H   0  0  0  0  0  0  0  0  0  0  0  0
   58.4330   32.6620   46.0040 N   0  0  0  0  0  0  0  0  0  0  0  0
   58.3600   33.6570   46.3080 H   0  0  0  0  0  0  0  0  0  0  0  0
   59.4510   31.8720   46.4290 C   0  0  0  0  0  0  0  0  0  0  0  0
   59.5750   30.5720   46.0350 C   0  0  0  0  0  0  0  0  0  0  0  0
   60.7330   30.0830   46.6150 C   0  0  0  0  0  0  0  0  0  0  0  0
   61.1546   29.0724   46.5103 H   0  0  0  0  0  0  0  0  0  0  0  0
   61.2520   31.1400   47.3590 C   0  0  0  0  0  0  0  0  0  0  0  0
   62.1726   31.0939   47.9593 H   0  0  0  0  0  0  0  0  0  0  0  0
   60.4630   32.2300   47.2380 N   0  0  0  0  0  0  0  0  0  0  0  0
   60.7150   33.7690   47.9960 S   0  0  0  0  0  0  0  0  0  0  0  0
   59.7080   34.7470   47.4560 O   0  0  0  0  0  0  0  0  0  0  0  0
   62.0990   34.2680   47.6900 O   0  0  0  0  0  0  0  0  0  0  0  0
   60.5380   33.6050   49.7400 C   0  0  0  0  0  0  0  0  0  0  0  0
   61.6670   33.5890   50.5700 C   0  0  0  0  0  0  0  0  0  0  0  0
   62.6720   33.6734   50.1309 H   0  0  0  0  0  0  0  0  0  0  0  0
   61.5190   33.4660   51.9550 C   0  0  0  0  0  0  0  0  0  0  0  0
   62.4070   33.4558   52.6041 H   0  0  0  0  0  0  0  0  0  0  0  0
   60.2430   33.3560   52.5150 C   0  0  0  0  0  0  0  0  0  0  0  0
   60.1273   33.2599   53.6047 H   0  0  0  0  0  0  0  0  0  0  0  0
   59.1140   33.3680   51.6910 C   0  0  0  0  0  0  0  0  0  0  0  0
   58.1101   33.2815   52.1322 H   0  0  0  0  0  0  0  0  0  0  0  0
   59.2610   33.4900   50.3050 C   0  0  0  0  0  0  0  0  0  0  0  0
   58.3719   33.4957   49.6573 H   0  0  0  0  0  0  0  0  0  0  0  0
   58.6680   29.9800   45.1540 C   0  0  0  0  0  0  0  0  0  0  0  0
   58.9290   28.7740   44.7210 N   0  0  0  0  0  0  0  0  0  0  0  0
   58.6030   27.5070   45.3080 C   0  0  0  0  0  0  0  0  0  0  0  0
   59.6330   26.6130   45.6220 C   0  0  0  0  0  0  0  0  0  0  0  0
   60.6807   26.9040   45.4558 H   0  0  0  0  0  0  0  0  0  0  0  0
   59.3360   25.3540   46.1450 C   0  0  0  0  0  0  0  0  0  0  0  0
   60.1508   24.6639   46.4094 H   0  0  0  0  0  0  0  0  0  0  0  0
   58.0060   24.9670   46.3340 C   0  0  0  0  0  0  0  0  0  0  0  0
   57.7796   23.9781   46.7592 H   0  0  0  0  0  0  0  0  0  0  0  0
   56.9560   25.8340   45.9840 C   0  0  0  0  0  0  0  0  0  0  0  0
   55.5490   25.4170   46.1670 C   0  0  0  0  0  0  0  0  0  0  0  0
   55.2680   24.2330   46.4950 O   0  0  0  0  0  0  0  0  0  0  0  0
   54.5150   26.3260   45.9770 O   0  0  0  0  0  0  0  0  0  0  0  0
   57.2650   27.1010   45.4540 C   0  0  0  0  0  0  0  0  0  0  0  0
   56.4531   27.7788   45.1517 H   0  0  0  0  0  0  0  0  0  0  0  0
  1  2  1  0
  2  3  1  0
  3  4  2  0
  3  5  1  0
  5  6  2  0
  6  7  1  0
  6  8  1  0
  8  9  1  0
  8 10  1  0
 10 11  2  0
 11 12  1  0
 12 13  1  0
 12 14  2  0
 14 15  1  0
 14 16  1  0
 16 17  1  0
 17 18  2  0
 17 19  2  0
 17 20  1  0
 20 21  2  0
 21 22  1  0
 21 23  1  0
 23 24  1  0
 23 25  2  0
 25 26  1  0
 25 27  1  0
 27 28  1  0
 27 29  2  0
 29 30  1  0
 11 31  1  0
 31 32  2  0
 32 33  1  0
 33 34  2  0
 34 35  1  0
 34 36  1  0
 36 37  1  0
 36 38  2  0
 38 39  1  0
 38 40  1  0
 40 41  1  0
 41 42  2  0
 41 43  1  0
 40 44  2  0
 44 45  1  0
 31  5  1  0
 44 33  1  0
 16 10  1  0
 29 20  1  0
M  CHG  2   2  -1  43  -1
M  END
>  <UniqueID>  (13) 
11

>  <SMILES>  (13) 
[NH-]C(=O)c1c[nH]c2c(ccn2S(=O)(=O)c2ccccc2)/c1=N/c1cccc(C(=O)[O-])c1

>  <Energy>  (13) 
106.21327537321054

>  <Genealogy>  (13) 
[NH-]C(=O)c1c[nH]c2c(ccn2S(=O)(=O)c2ccccc2)c1=Nc1cccc(C(=O)[O-])c1 (protonated)
[NH-]C(=O)c1c[nH]c2c(ccn2S(=O)(=O)c2ccccc2)/c1=N/c1cccc(C(=O)[O-])c1 (cis-trans isomerization)
[NH-]C(=O)c1c[nH]c2c(ccn2S(=O)(=O)c2ccccc2)/c1=N/c1cccc(C(=O)[O-])c1 (3D coordinates assigned)
[NH-]C(=O)c1c[nH]c2c(ccn2S(=O)(=O)c2ccccc2)/c1=N/c1cccc(C(=O)[O-])c1 (optimized conformer: 106.21327537321054 kcal/mol)

>  <smiles>  (13) 
NC(=O)c1c[nH]c2c(ccn2S(=O)(=O)c2ccccc2)c1=Nc1cccc(C(=O)O)c1

>  <score_type>  (13) 
oracle

>  <origin>  (13) 
adg

>  <m_score__min__energy>  (13) 
-15.109999999999999

>  <m_primary>  (13) 
energy

$$$$
13:0
     RDKit          3D

 39 41  0  0  0  0  0  0  0  0999 V2000
   56.1192   34.1054   45.4686 H   0  0  0  0  0  0  0  0  0  0  0  0
   57.0090   33.4740   45.6090 C   0  0  0  0  0  0  0  0  0  0  0  0
   57.0150   32.2010   45.1430 N   0  0  0  0  0  0  0  0  0  0  0  0
   58.0700   31.3570   45.2990 C   0  0  0  0  0  0  0  0  0  0  0  0
   58.0010   30.2160   44.6640 N   0  0  0  0  0  0  0  0  0  0  0  0
   57.8980   28.8780   45.1700 C   0  0  0  0  0  0  0  0  0  0  0  0
   59.0470   28.0970   45.3770 C   0  0  0  0  0  0  0  0  0  0  0  0
   60.0429   28.5263   45.1926 H   0  0  0  0  0  0  0  0  0  0  0  0
   58.9280   26.7780   45.8160 C   0  0  0  0  0  0  0  0  0  0  0  0
   59.8305   26.1760   45.9978 H   0  0  0  0  0  0  0  0  0  0  0  0
   57.6640   26.2210   46.0250 C   0  0  0  0  0  0  0  0  0  0  0  0
   57.5769   25.1833   46.3794 H   0  0  0  0  0  0  0  0  0  0  0  0
   56.5070   26.9730   45.7870 C   0  0  0  0  0  0  0  0  0  0  0  0
   55.2610   26.3640   45.9980 O   0  0  0  0  0  0  0  0  0  0  0  0
   54.9450   25.0290   45.6190 C   0  0  0  0  0  0  0  0  0  0  0  0
   54.8000   24.4163   46.5210 H   0  0  0  0  0  0  0  0  0  0  0  0
   54.0214   25.0263   45.0215 H   0  0  0  0  0  0  0  0  0  0  0  0
   55.7694   24.6126   45.0215 H   0  0  0  0  0  0  0  0  0  0  0  0
   56.6320   28.3050   45.3440 C   0  0  0  0  0  0  0  0  0  0  0  0
   55.7298   28.8981   45.1336 H   0  0  0  0  0  0  0  0  0  0  0  0
   59.1820   31.7890   46.0950 C   0  0  0  0  0  0  0  0  0  0  0  0
   60.1890   30.9260   46.5820 C   0  0  0  0  0  0  0  0  0  0  0  0
   60.1225   29.8470   46.3789 H   0  0  0  0  0  0  0  0  0  0  0  0
   61.2670   31.4220   47.3170 C   0  0  0  0  0  0  0  0  0  0  0  0
   62.0573   30.7347   47.6533 H   0  0  0  0  0  0  0  0  0  0  0  0
   61.3550   32.7860   47.6320 C   0  0  0  0  0  0  0  0  0  0  0  0
   62.5010   33.3180   48.4090 C   0  0  0  0  0  0  0  0  0  0  0  0
   62.3350   34.3350   49.1380 O   0  0  0  0  0  0  0  0  0  0  0  0
   63.7990   32.7090   48.3320 N   0  0  0  0  0  0  0  0  0  0  0  0
   63.9920   31.9710   47.6180 H   0  0  0  0  0  0  0  0  0  0  0  0
   64.8950   33.1380   49.1900 C   0  0  0  0  0  0  0  0  0  0  0  0
   64.6020   33.0233   50.2440 H   0  0  0  0  0  0  0  0  0  0  0  0
   65.7827   32.5210   48.9870 H   0  0  0  0  0  0  0  0  0  0  0  0
   65.1280   34.1937   48.9870 H   0  0  0  0  0  0  0  0  0  0  0  0
   60.3040   33.6340   47.2570 C   0  0  0  0  0  0  0  0  0  0  0  0
   60.3358   34.6966   47.5398 H   0  0  0  0  0  0  0  0  0  0  0  0
   59.2100   33.1430   46.5240 C   0  0  0  0  0  0  0  0  0  0  0  0
   58.1230   33.9830   46.2630 C   0  0  0  0  0  0  0  0  0  0  0  0
   58.1502   35.0380   46.5732 H   0  0  0  0  0  0  0  0  0  0  0  0
  1  2  1  0
  2  3  1  0
  3  4  1  0
  4  5  2  0
  5  6  1  0
  6  7  2  0
  7  8  1  0
  7  9  1  0
  9 10  1  0
  9 11  2  0
 11 12  1  0
 11 13  1  0
 13 14  1  0
 14 15  1  0
 15 16  1  0
 15 17  1  0
 15 18  1  0
 13 19  2  0
 19 20  1  0
  4 21  1  0
 21 22  2  0
 22 23  1  0
 22 24  1  0
 24 25  1  0
 24 26  2  0
 26 27  1  0
 27 28  2  0
 27 29  1  0
 29 30  1  0
 29 31  1  0
 31 32  1  0
 31 33  1  0
 31 34  1  0
 26 35  1  0
 35 36  1  0
 35 37  2  0
 37 38  1  0
 38 39  1  0
 38  2  2  0
 19  6  1  0
 37 21  1  0
M  CHG  1   3  -1
M  END
>  <UniqueID>  (14) 
12

>  <SMILES>  (14) 
CNC(=O)c1ccc2/c(=N\c3cccc(OC)c3)[n-]ccc2c1

>  <Energy>  (14) 
64.6086661107686

>  <Genealogy>  (14) 
CNC(=O)c1ccc2c(=Nc3cccc(OC)c3)[n-]ccc2c1 (protonated)
CNC(=O)c1ccc2/c(=N\c3cccc(OC)c3)[n-]ccc2c1 (cis-trans isomerization)
CNC(=O)c1ccc2/c(=N\c3cccc(OC)c3)[n-]ccc2c1 (3D coordinates assigned)
CNC(=O)c1ccc2/c(=N\c3cccc(OC)c3)[n-]ccc2c1 (optimized conformer: 64.6086661107686 kcal/mol)

>  <smiles>  (14) 
CNC(=O)c1ccc2c(=Nc3cccc(OC)c3)[nH]ccc2c1

>  <score_type>  (14) 
oracle

>  <origin>  (14) 
adg

>  <m_score__min__energy>  (14) 
-8.8900000000000006

>  <m_primary>  (14) 
energy

$$$$
14:0
     RDKit          3D

 45 47  0  0  0  0  0  0  0  0999 V2000
   58.5740   31.9360   49.2710 S   0  0  0  0  0  0  0  0  0  0  0  0
   58.8480   31.8920   47.6570 C   0  0  0  0  0  0  0  0  0  0  0  0
   59.5830   30.7930   47.0930 N   0  0  0  0  0  0  0  0  0  0  0  0
   59.6910   30.5430   45.6560 C   0  0  0  0  0  0  0  0  0  0  0  0
   58.3250   30.3350   45.0660 C   0  0  0  0  0  0  0  0  0  0  0  0
   57.9420   30.9940   43.8880 C   0  0  0  0  0  0  0  0  0  0  0  0
   56.6540   30.8120   43.3770 C   0  0  0  0  0  0  0  0  0  0  0  0
   55.7590   29.9770   44.0500 C   0  0  0  0  0  0  0  0  0  0  0  0
   56.1390   29.3540   45.1970 N   0  0  0  0  0  0  0  0  0  0  0  0
   57.3870   29.5160   45.7180 C   0  0  0  0  0  0  0  0  0  0  0  0
   58.1430   33.1870   46.6270 S   0  0  0  0  0  0  0  0  0  0  0  0
   59.7450   33.7570   45.9580 C   0  0  0  0  0  0  0  0  0  0  0  0
   60.8170   33.6760   47.0080 C   0  0  0  0  0  0  0  0  0  0  0  0
   60.6530   34.3120   48.2430 C   0  0  0  0  0  0  0  0  0  0  0  0
   61.6620   34.2600   49.2080 C   0  0  0  0  0  0  0  0  0  0  0  0
   62.8690   33.5610   48.9680 C   0  0  0  0  0  0  0  0  0  0  0  0
   63.9260   33.5030   49.9760 N   0  0  0  0  0  0  0  0  0  0  0  0
   63.7890   34.2970   51.2170 C   0  0  0  0  0  0  0  0  0  0  0  0
   64.9240   34.0660   52.2170 C   0  0  0  0  0  0  0  0  0  0  0  0
   66.1600   33.9430   51.5530 O   0  0  0  0  0  0  0  0  0  0  0  0
   66.1620   32.7260   50.8450 C   0  0  0  0  0  0  0  0  0  0  0  0
   65.1740   32.7660   49.6750 C   0  0  0  0  0  0  0  0  0  0  0  0
   63.0190   32.9310   47.7120 C   0  0  0  0  0  0  0  0  0  0  0  0
   62.0100   32.9930   46.7470 C   0  0  0  0  0  0  0  0  0  0  0  0
   59.9980   30.0830   47.7410 H   0  0  0  0  0  0  0  0  0  0  0  0
   60.1695   31.4066   45.1711 H   0  0  0  0  0  0  0  0  0  0  0  0
   60.2966   29.6396   45.4914 H   0  0  0  0  0  0  0  0  0  0  0  0
   58.6536   31.6522   43.3680 H   0  0  0  0  0  0  0  0  0  0  0  0
   56.3474   31.3223   42.4520 H   0  0  0  0  0  0  0  0  0  0  0  0
   54.7454   29.8233   43.6514 H   0  0  0  0  0  0  0  0  0  0  0  0
   57.6617   29.0042   46.6521 H   0  0  0  0  0  0  0  0  0  0  0  0
   60.0265   33.1225   45.1046 H   0  0  0  0  0  0  0  0  0  0  0  0
   59.6422   34.8041   45.6369 H   0  0  0  0  0  0  0  0  0  0  0  0
   59.7219   34.8576   48.4562 H   0  0  0  0  0  0  0  0  0  0  0  0
   61.5158   34.7712   50.1710 H   0  0  0  0  0  0  0  0  0  0  0  0
   63.7733   35.3635   50.9482 H   0  0  0  0  0  0  0  0  0  0  0  0
   62.8569   33.9765   51.7053 H   0  0  0  0  0  0  0  0  0  0  0  0
   64.9712   34.9177   52.9116 H   0  0  0  0  0  0  0  0  0  0  0  0
   64.7251   33.1338   52.7661 H   0  0  0  0  0  0  0  0  0  0  0  0
   67.1734   32.5393   50.4548 H   0  0  0  0  0  0  0  0  0  0  0  0
   65.8575   31.9223   51.5316 H   0  0  0  0  0  0  0  0  0  0  0  0
   65.6671   33.2522   48.8203 H   0  0  0  0  0  0  0  0  0  0  0  0
   64.8892   31.7258   49.4585 H   0  0  0  0  0  0  0  0  0  0  0  0
   63.9461   32.3822   47.4900 H   0  0  0  0  0  0  0  0  0  0  0  0
   62.1549   32.5007   45.7740 H   0  0  0  0  0  0  0  0  0  0  0  0
  1  2  2  0
  2  3  1  0
  3  4  1  0
  4  5  1  0
  5  6  2  0
  6  7  1  0
  7  8  2  0
  8  9  1  0
  9 10  2  0
  2 11  1  0
 11 12  1  0
 12 13  1  0
 13 14  2  0
 14 15  1  0
 15 16  2  0
 16 17  1  0
 17 18  1  0
 18 19  1  0
 19 20  1  0
 20 21  1  0
 21 22  1  0
 16 23  1  0
 23 24  2  0
 10  5  1  0
 24 13  1  0
 22 17  1  0
  3 25  1  0
  4 26  1  0
  4 27  1  0
  6 28  1  0
  7 29  1  0
  8 30  1  0
 10 31  1  0
 12 32  1  0
 12 33  1  0
 14 34  1  0
 15 35  1  0
 18 36  1  0
 18 37  1  0
 19 38  1  0
 19 39  1  0
 21 40  1  0
 21 41  1  0
 22 42  1  0
 22 43  1  0
 23 44  1  0
 24 45  1  0
M  END
>  <UniqueID>  (15) 
13

>  <SMILES>  (15) 
S=C(NCc1cccnc1)SCc1ccc(N2CCOCC2)cc1

>  <Energy>  (15) 
48.23310056669709

>  <Genealogy>  (15) 
S=C(NCc1cccnc1)SCc1ccc(N2CCOCC2)cc1 (3D coordinates assigned)
S=C(NCc1cccnc1)SCc1ccc(N2CCOCC2)cc1 (nonaromatic ring conformer: 48.23310056669709 kcal/mol)

>  <smiles>  (15) 
S=C(NCc1cccnc1)SCc1ccc(N2CCOCC2)cc1

>  <score_type>  (15) 
oracle

>  <origin>  (15) 
adg

>  <m_score__min__energy>  (15) 
-7.3099999999999996

>  <m_primary>  (15) 
energy

$$$$
15:0
     RDKit          3D

 42 44  0  0  0  0  0  0  0  0999 V2000
   54.9870   30.8100   54.7150 O   0  0  0  0  0  0  0  0  0  0  0  0
   55.1910   30.1610   53.6560 C   0  0  0  0  0  0  0  0  0  0  0  0
   54.3610   29.0280   53.3660 N   0  0  0  0  0  0  0  0  0  0  0  0
   53.3130   28.9890   52.3470 C   0  0  0  0  0  0  0  0  0  0  0  0
   52.5280   30.2780   52.3460 C   0  0  0  0  0  0  0  0  0  0  0  0
   52.1330   30.8660   53.5600 C   0  0  0  0  0  0  0  0  0  0  0  0
   51.3610   32.0300   53.5630 C   0  0  0  0  0  0  0  0  0  0  0  0
   50.9880   32.6290   52.3570 C   0  0  0  0  0  0  0  0  0  0  0  0
   50.2230   33.7900   52.3680 O   0  0  0  0  0  0  0  0  0  0  0  0
   51.3860   32.0590   51.1410 C   0  0  0  0  0  0  0  0  0  0  0  0
   51.0190   32.6600   49.9410 O   0  0  0  0  0  0  0  0  0  0  0  0
   52.1500   30.8850   51.1310 C   0  0  0  0  0  0  0  0  0  0  0  0
   52.5290   30.3220   49.9160 O   0  0  0  0  0  0  0  0  0  0  0  0
   56.2490   30.6070   52.7320 C   0  0  0  0  0  0  0  0  0  0  0  0
   56.4530   31.9770   52.5120 C   0  0  0  0  0  0  0  0  0  0  0  0
   57.4240   32.4070   51.6030 C   0  0  0  0  0  0  0  0  0  0  0  0
   58.2110   31.4720   50.9190 C   0  0  0  0  0  0  0  0  0  0  0  0
   59.4200   32.0120   49.7570 S   0  0  0  0  0  0  0  0  0  0  0  0
   59.6850   33.4830   49.9190 O   0  0  0  0  0  0  0  0  0  0  0  0
   60.6940   31.2530   49.9950 O   0  0  0  0  0  0  0  0  0  0  0  0
   58.8750   31.7100   48.1390 N   0  0  0  0  0  0  0  0  0  0  0  0
   58.7650   32.6960   47.1020 C   0  0  0  0  0  0  0  0  0  0  0  0
   59.3770   33.9600   47.2070 C   0  0  0  0  0  0  0  0  0  0  0  0
   59.2300   34.9010   46.1830 C   0  0  0  0  0  0  0  0  0  0  0  0
   58.4810   34.5890   45.0470 C   0  0  0  0  0  0  0  0  0  0  0  0
   57.8750   33.3360   44.9310 C   0  0  0  0  0  0  0  0  0  0  0  0
   58.0130   32.3930   45.9560 C   0  0  0  0  0  0  0  0  0  0  0  0
   57.3910   31.1550   45.8340 O   0  0  0  0  0  0  0  0  0  0  0  0
   58.0360   30.1040   51.1680 C   0  0  0  0  0  0  0  0  0  0  0  0
   57.0590   29.6740   52.0700 C   0  0  0  0  0  0  0  0  0  0  0  0
   53.7743   28.8454   51.3588 H   0  0  0  0  0  0  0  0  0  0  0  0
   52.6297   28.1567   52.5713 H   0  0  0  0  0  0  0  0  0  0  0  0
   52.4336   30.4068   54.5133 H   0  0  0  0  0  0  0  0  0  0  0  0
   51.0457   32.4765   54.5176 H   0  0  0  0  0  0  0  0  0  0  0  0
   55.8468   32.7158   53.0567 H   0  0  0  0  0  0  0  0  0  0  0  0
   57.5703   33.4825   51.4245 H   0  0  0  0  0  0  0  0  0  0  0  0
   59.9728   34.2080   48.0978 H   0  0  0  0  0  0  0  0  0  0  0  0
   59.7054   35.8889   46.2728 H   0  0  0  0  0  0  0  0  0  0  0  0
   58.3680   35.3307   44.2425 H   0  0  0  0  0  0  0  0  0  0  0  0
   57.2888   33.0901   44.0333 H   0  0  0  0  0  0  0  0  0  0  0  0
   58.6691   29.3670   50.6523 H   0  0  0  0  0  0  0  0  0  0  0  0
   56.9251   28.5991   52.2612 H   0  0  0  0  0  0  0  0  0  0  0  0
  1  2  2  0
  2  3  1  0
  3  4  1  0
  4  5  1  0
  5  6  2  0
  6  7  1  0
  7  8  2  0
  8  9  1  0
  8 10  1  0
 10 11  1  0
 10 12  2  0
 12 13  1  0
  2 14  1  0
 14 15  2  0
 15 16  1  0
 16 17  2  0
 17 18  1  0
 18 19  2  0
 18 20  2  0
 18 21  1  0
 21 22  1  0
 22 23  2  0
 23 24  1  0
 24 25  2  0
 25 26  1  0
 26 27  2  0
 27 28  1  0
 17 29  1  0
 29 30  2  0
 12  5  1  0
 30 14  1  0
 27 22  1  0
  4 31  1  0
  4 32  1  0
  6 33  1  0
  7 34  1  0
 15 35  1  0
 16 36  1  0
 23 37  1  0
 24 38  1  0
 25 39  1  0
 26 40  1  0
 29 41  1  0
 30 42  1  0
M  CHG  6   3  -1   9  -1  11  -1  13  -1  21  -1  28  -1
M  END
>  <UniqueID>  (16) 
14

>  <SMILES>  (16) 
O=C([N-]Cc1ccc([O-])c([O-])c1[O-])c1ccc(S(=O)(=O)[N-]c2ccccc2[O-])cc1

>  <Energy>  (16) 
49.82554286395755

>  <Genealogy>  (16) 
O=C([N-]Cc1ccc([O-])c([O-])c1[O-])c1ccc(S(=O)(=O)[N-]c2ccccc2[O-])cc1 (protonated)
O=C([N-]Cc1ccc([O-])c([O-])c1[O-])c1ccc(S(=O)(=O)[N-]c2ccccc2[O-])cc1 (3D coordinates assigned)
O=C([N-]Cc1ccc([O-])c([O-])c1[O-])c1ccc(S(=O)(=O)[N-]c2ccccc2[O-])cc1 (optimized conformer: 49.82554286395755 kcal/mol)

>  <smiles>  (16) 
O=C(NCc1ccc(O)c(O)c1O)c1ccc(S(=O)(=O)Nc2ccccc2O)cc1

>  <score_type>  (16) 
oracle

>  <origin>  (16) 
adg

>  <m_score__min__energy>  (16) 
-21.379999999999999

>  <m_primary>  (16) 
energy

$$$$
16:0
     RDKit          3D

 75 78  0  0  0  0  0  0  0  0999 V2000
   58.5000   34.5520   52.3840 C   0  0  0  0  0  0  0  0  0  0  0  0
   58.3190   33.0990   51.9580 C   0  0  0  0  0  0  0  0  0  0  0  0
   58.8610   32.2160   52.9400 O   0  0  0  0  0  0  0  0  0  0  0  0
   60.0240   32.4450   53.6990 C   0  0  0  0  0  0  0  0  0  0  0  0
   59.9970   32.5380   55.1070 C   0  0  0  0  0  0  0  0  0  0  0  0
   61.1670   32.8190   55.8190 C   0  0  0  0  0  0  0  0  0  0  0  0
   62.3700   33.0190   55.1390 C   0  0  0  0  0  0  0  0  0  0  0  0
   62.4100   32.9240   53.7480 C   0  0  0  0  0  0  0  0  0  0  0  0
   61.2490   32.6160   53.0240 C   0  0  0  0  0  0  0  0  0  0  0  0
   61.3270   32.5080   51.5980 N   0  0  0  0  0  0  0  0  0  0  0  0
   62.0840   33.4280   50.7950 C   0  0  0  0  0  0  0  0  0  0  0  0
   62.8590   34.2620   51.3440 O   0  0  0  0  0  0  0  0  0  0  0  0
   61.9770   33.4080   49.3210 C   0  0  0  0  0  0  0  0  0  0  0  0
   60.7160   33.6210   48.7420 C   0  0  0  0  0  0  0  0  0  0  0  0
   60.5620   33.6440   47.3490 C   0  0  0  0  0  0  0  0  0  0  0  0
   58.9740   33.8670   46.6260 S   0  0  0  0  0  0  0  0  0  0  0  0
   58.5470   35.3000   46.7780 O   0  0  0  0  0  0  0  0  0  0  0  0
   57.9740   33.0000   47.3350 O   0  0  0  0  0  0  0  0  0  0  0  0
   59.0840   33.4790   44.9350 N   0  0  0  0  0  0  0  0  0  0  0  0
   58.3130   32.5080   44.2170 C   0  0  0  0  0  0  0  0  0  0  0  0
   58.1290   32.6920   42.8390 C   0  0  0  0  0  0  0  0  0  0  0  0
   57.3970   31.7670   42.0910 C   0  0  0  0  0  0  0  0  0  0  0  0
   56.8230   30.6570   42.7180 C   0  0  0  0  0  0  0  0  0  0  0  0
   56.9530   30.4860   44.1020 C   0  0  0  0  0  0  0  0  0  0  0  0
   56.3290   29.3210   44.7600 C   0  0  0  0  0  0  0  0  0  0  0  0
   55.1440   29.4170   45.1770 O   0  0  0  0  0  0  0  0  0  0  0  0
   57.0370   28.0930   44.9620 N   0  0  0  0  0  0  0  0  0  0  0  0
   57.5860   27.6640   46.2450 C   0  0  0  0  0  0  0  0  0  0  0  0
   59.1190   27.7050   46.2140 C   0  0  0  0  0  0  0  0  0  0  0  0
   59.7630   27.3410   47.5660 C   0  0  0  0  0  0  0  0  0  0  0  0
   59.5760   28.4110   48.5690 N   0  0  0  0  0  0  0  0  0  0  0  0
   59.5090   29.7420   47.9360 C   0  0  0  0  0  0  0  0  0  0  0  0
   59.2690   30.8250   49.0100 C   0  0  0  0  0  0  0  0  0  0  0  0
   59.4190   30.3270   50.3280 O   0  0  0  0  0  0  0  0  0  0  0  0
   60.6540   29.6490   50.4440 C   0  0  0  0  0  0  0  0  0  0  0  0
   60.6640   28.3810   49.5680 C   0  0  0  0  0  0  0  0  0  0  0  0
   57.7030   31.4090   44.8500 C   0  0  0  0  0  0  0  0  0  0  0  0
   61.6760   33.4450   46.5270 C   0  0  0  0  0  0  0  0  0  0  0  0
   62.9290   33.2050   47.0880 C   0  0  0  0  0  0  0  0  0  0  0  0
   63.0930   33.1540   48.4830 C   0  0  0  0  0  0  0  0  0  0  0  0
   64.4540   32.8130   49.0320 C   0  0  0  0  0  0  0  0  0  0  0  0
   58.5077   34.6139   53.4822 H   0  0  0  0  0  0  0  0  0  0  0  0
   59.4527   34.9341   51.9885 H   0  0  0  0  0  0  0  0  0  0  0  0
   57.6702   35.1561   51.9885 H   0  0  0  0  0  0  0  0  0  0  0  0
   57.2461   32.8891   51.8359 H   0  0  0  0  0  0  0  0  0  0  0  0
   58.8486   32.9397   51.0071 H   0  0  0  0  0  0  0  0  0  0  0  0
   59.0504   32.3886   55.6471 H   0  0  0  0  0  0  0  0  0  0  0  0
   61.1397   32.8826   56.9168 H   0  0  0  0  0  0  0  0  0  0  0  0
   63.2868   33.2516   55.7006 H   0  0  0  0  0  0  0  0  0  0  0  0
   63.3579   33.0917   53.2156 H   0  0  0  0  0  0  0  0  0  0  0  0
   60.6970   31.8220   51.1250 H   0  0  0  0  0  0  0  0  0  0  0  0
   59.8390   33.7715   49.3887 H   0  0  0  0  0  0  0  0  0  0  0  0
   58.5647   33.5719   42.3432 H   0  0  0  0  0  0  0  0  0  0  0  0
   57.2720   31.9120   41.0078 H   0  0  0  0  0  0  0  0  0  0  0  0
   56.2682   29.9165   42.1231 H   0  0  0  0  0  0  0  0  0  0  0  0
   57.2219   28.3349   47.0371 H   0  0  0  0  0  0  0  0  0  0  0  0
   57.2616   26.6318   46.4435 H   0  0  0  0  0  0  0  0  0  0  0  0
   59.4726   26.9918   45.4549 H   0  0  0  0  0  0  0  0  0  0  0  0
   59.4139   28.7383   45.9789 H   0  0  0  0  0  0  0  0  0  0  0  0
   59.3022   26.4158   47.9423 H   0  0  0  0  0  0  0  0  0  0  0  0
   60.8430   27.2078   47.4054 H   0  0  0  0  0  0  0  0  0  0  0  0
   60.4571   29.9470   47.4172 H   0  0  0  0  0  0  0  0  0  0  0  0
   58.6786   29.7579   47.2148 H   0  0  0  0  0  0  0  0  0  0  0  0
   59.9920   31.6397   48.8567 H   0  0  0  0  0  0  0  0  0  0  0  0
   58.2325   31.1773   48.9026 H   0  0  0  0  0  0  0  0  0  0  0  0
   61.4649   30.3180   50.1202 H   0  0  0  0  0  0  0  0  0  0  0  0
   60.7984   29.3545   51.4940 H   0  0  0  0  0  0  0  0  0  0  0  0
   61.6293   28.3144   49.0448 H   0  0  0  0  0  0  0  0  0  0  0  0
   60.5137   27.5074   50.2194 H   0  0  0  0  0  0  0  0  0  0  0  0
   57.8140   31.2720   45.9358 H   0  0  0  0  0  0  0  0  0  0  0  0
   61.5627   33.4781   45.4334 H   0  0  0  0  0  0  0  0  0  0  0  0
   63.7990   33.0539   46.4320 H   0  0  0  0  0  0  0  0  0  0  0  0
   64.4187   32.8219   50.1314 H   0  0  0  0  0  0  0  0  0  0  0  0
   64.7502   31.8129   48.6827 H   0  0  0  0  0  0  0  0  0  0  0  0
   65.1868   33.5553   48.6827 H   0  0  0  0  0  0  0  0  0  0  0  0
  1  2  1  0
  2  3  1  0
  3  4  1  0
  4  5  2  0
  5  6  1  0
  6  7  2  0
  7  8  1  0
  8  9  2  0
  9 10  1  0
 10 11  1  0
 11 12  2  0
 11 13  1  0
 13 14  2  0
 14 15  1  0
 15 16  1  0
 16 17  2  0
 16 18  2  0
 16 19  1  0
 19 20  1  0
 20 21  2  0
 21 22  1  0
 22 23  2  0
 23 24  1  0
 24 25  1  0
 25 26  2  0
 25 27  1  0
 27 28  1  0
 28 29  1  0
 29 30  1  0
 30 31  1  0
 31 32  1  0
 32 33  1  0
 33 34  1  0
 34 35  1  0
 35 36  1  0
 24 37  2  0
 15 38  2  0
 38 39  1  0
 39 40  2  0
 40 41  1  0
  9  4  1  0
 40 13  1  0
 37 20  1  0
 36 31  1  0
  1 42  1  0
  1 43  1  0
  1 44  1  0
  2 45  1  0
  2 46  1  0
  5 47  1  0
  6 48  1  0
  7 49  1  0
  8 50  1  0
 10 51  1  0
 14 52  1  0
 21 53  1  0
 22 54  1  0
 23 55  1  0
 28 56  1  0
 28 57  1  0
 29 58  1  0
 29 59  1  0
 30 60  1  0
 30 61  1  0
 32 62  1  0
 32 63  1  0
 33 64  1  0
 33 65  1  0
 35 66  1  0
 35 67  1  0
 36 68  1  0
 36 69  1  0
 37 70  1  0
 38 71  1  0
 39 72  1  0
 41 73  1  0
 41 74  1  0
 41 75  1  0
M  CHG  2  19  -1  27  -1
M  END
>  <UniqueID>  (17) 
15

>  <SMILES>  (17) 
CCOc1ccccc1NC(=O)c1cc(S(=O)(=O)[N-]c2cccc(C(=O)[N-]CCCN3CCOCC3)c2)ccc1C

>  <Energy>  (17) 
105.21202864304759

>  <Genealogy>  (17) 
CCOc1ccccc1NC(=O)c1cc(S(=O)(=O)[N-]c2cccc(C(=O)[N-]CCCN3CCOCC3)c2)ccc1C (protonated)
CCOc1ccccc1NC(=O)c1cc(S(=O)(=O)[N-]c2cccc(C(=O)[N-]CCCN3CCOCC3)c2)ccc1C (3D coordinates assigned)
CCOc1ccccc1NC(=O)c1cc(S(=O)(=O)[N-]c2cccc(C(=O)[N-]CCCN3CCOCC3)c2)ccc1C (nonaromatic ring conformer: 105.21202864304759 kcal/mol)

>  <smiles>  (17) 
CCOc1ccccc1NC(=O)c1cc(S(=O)(=O)Nc2cccc(C(=O)NCCCN3CCOCC3)c2)ccc1C

>  <score_type>  (17) 
oracle

>  <origin>  (17) 
adg

>  <m_score__min__energy>  (17) 
-14.16

>  <m_primary>  (17) 
energy

$$$$
17:0
     RDKit          3D

 26 27  0  0  0  0  0  0  0  0999 V2000
   54.9480   24.1180   45.7890 O   0  0  0  0  0  0  0  0  0  0  0  0
   55.3340   25.3000   45.9880 C   0  0  0  0  0  0  0  0  0  0  0  0
   54.4100   26.3360   45.9820 O   0  0  0  0  0  0  0  0  0  0  0  0
   56.7720   25.5820   46.2810 C   0  0  0  0  0  0  0  0  0  0  0  0
   57.1970   26.8430   45.5960 C   0  0  0  0  0  0  0  0  0  0  0  0
   58.3690   26.9450   44.8480 C   0  0  0  0  0  0  0  0  0  0  0  0
   58.4460   28.5000   44.2130 S   0  0  0  0  0  0  0  0  0  0  0  0
   56.9750   28.9640   44.9000 C   0  0  0  0  0  0  0  0  0  0  0  0
   56.4250   30.1390   44.8150 N   0  0  0  0  0  0  0  0  0  0  0  0
   57.1140   31.3660   44.5400 C   0  0  0  0  0  0  0  0  0  0  0  0
   57.0780   31.8270   43.3680 O   0  0  0  0  0  0  0  0  0  0  0  0
   57.9170   32.0640   45.5740 C   0  0  0  0  0  0  0  0  0  0  0  0
   57.9070   33.4680   45.6670 C   0  0  0  0  0  0  0  0  0  0  0  0
   58.6600   34.1170   46.6500 C   0  0  0  0  0  0  0  0  0  0  0  0
   59.4210   33.3740   47.5560 C   0  0  0  0  0  0  0  0  0  0  0  0
   60.4480   34.2640   48.8970 Br  0  0  0  0  0  0  0  0  0  0  0  0
   59.4260   31.9780   47.4810 C   0  0  0  0  0  0  0  0  0  0  0  0
   58.6750   31.3250   46.4990 C   0  0  0  0  0  0  0  0  0  0  0  0
   56.4250   27.9640   45.6200 N   0  0  0  0  0  0  0  0  0  0  0  0
   56.9072   25.6941   47.3669 H   0  0  0  0  0  0  0  0  0  0  0  0
   57.3858   24.7468   45.9125 H   0  0  0  0  0  0  0  0  0  0  0  0
   59.1127   26.1482   44.6993 H   0  0  0  0  0  0  0  0  0  0  0  0
   57.3032   34.0584   44.9621 H   0  0  0  0  0  0  0  0  0  0  0  0
   58.6533   35.2153   46.7103 H   0  0  0  0  0  0  0  0  0  0  0  0
   60.0221   31.3921   48.1961 H   0  0  0  0  0  0  0  0  0  0  0  0
   58.6773   30.2261   46.4499 H   0  0  0  0  0  0  0  0  0  0  0  0
  1  2  2  0
  2  3  1  0
  2  4  1  0
  4  5  1  0
  5  6  2  0
  6  7  1  0
  7  8  1  0
  8  9  2  3
  9 10  1  0
 10 11  2  0
 10 12  1  0
 12 13  2  0
 13 14  1  0
 14 15  2  0
 15 16  1  0
 15 17  1  0
 17 18  2  0
  8 19  1  0
 19  5  1  0
 18 12  1  0
  4 20  1  0
  4 21  1  0
  6 22  1  0
 13 23  1  0
 14 24  1  0
 17 25  1  0
 18 26  1  0
M  CHG  2   3  -1  19  -1
M  END
>  <UniqueID>  (18) 
16

>  <SMILES>  (18) 
O=C([O-])Cc1csc(=NC(=O)c2ccc(Br)cc2)[n-]1

>  <Energy>  (18) 
62.57547393018097

>  <Genealogy>  (18) 
O=C([O-])Cc1csc(=NC(=O)c2ccc(Br)cc2)[n-]1 (protonated)
O=C([O-])Cc1csc(=NC(=O)c2ccc(Br)cc2)[n-]1 (3D coordinates assigned)
O=C([O-])Cc1csc(=NC(=O)c2ccc(Br)cc2)[n-]1 (optimized conformer: 62.57547393018097 kcal/mol)

>  <smiles>  (18) 
O=C(O)Cc1csc(=NC(=O)c2ccc(Br)cc2)[nH]1

>  <score_type>  (18) 
oracle

>  <origin>  (18) 
adg

>  <m_score__min__energy>  (18) 
-11.630000000000001

>  <m_primary>  (18) 
energy

$$$$
18:0
     RDKit          3D

 30 30  0  0  0  0  0  0  0  0999 V2000
   54.1600   24.8140   45.6200 C   0  0  0  0  0  0  0  0  0  0  0  0
   54.7220   26.1090   45.9780 N   0  0  0  0  0  0  0  0  0  0  0  0
   56.1160   26.3370   46.2100 C   0  0  0  0  0  0  0  0  0  0  0  0
   56.8300   25.3810   46.6160 O   0  0  0  0  0  0  0  0  0  0  0  0
   56.7320   27.6870   45.9800 C   0  0  0  0  0  0  0  0  0  0  0  0
   55.8480   28.5180   45.2320 O   0  0  0  0  0  0  0  0  0  0  0  0
   56.2700   29.6910   44.5940 C   0  0  0  0  0  0  0  0  0  0  0  0
   55.4860   30.6780   44.5040 O   0  0  0  0  0  0  0  0  0  0  0  0
   57.6350   29.7600   44.0280 C   0  0  0  0  0  0  0  0  0  0  0  0
   58.3420   28.5150   43.8270 C   0  0  0  0  0  0  0  0  0  0  0  0
   58.9050   27.5170   43.6640 N   0  0  0  0  0  0  0  0  0  0  0  0
   58.2180   30.9490   43.7720 C   0  0  0  0  0  0  0  0  0  0  0  0
   58.4290   32.0200   44.7750 C   0  0  0  0  0  0  0  0  0  0  0  0
   58.2730   33.3790   44.4490 C   0  0  0  0  0  0  0  0  0  0  0  0
   58.4450   34.3630   45.4270 C   0  0  0  0  0  0  0  0  0  0  0  0
   58.7560   34.0000   46.7440 C   0  0  0  0  0  0  0  0  0  0  0  0
   58.9300   34.9720   47.7270 O   0  0  0  0  0  0  0  0  0  0  0  0
   58.8840   32.6490   47.0780 C   0  0  0  0  0  0  0  0  0  0  0  0
   58.7120   31.6630   46.1020 C   0  0  0  0  0  0  0  0  0  0  0  0
   53.9170   24.2541   46.5351 H   0  0  0  0  0  0  0  0  0  0  0  0
   53.2453   24.9624   45.0272 H   0  0  0  0  0  0  0  0  0  0  0  0
   54.8932   24.2473   45.0272 H   0  0  0  0  0  0  0  0  0  0  0  0
   56.9393   28.1605   46.9510 H   0  0  0  0  0  0  0  0  0  0  0  0
   57.6660   27.5600   45.4131 H   0  0  0  0  0  0  0  0  0  0  0  0
   58.5619   31.1377   42.7443 H   0  0  0  0  0  0  0  0  0  0  0  0
   58.0145   33.6691   43.4199 H   0  0  0  0  0  0  0  0  0  0  0  0
   58.3359   35.4250   45.1619 H   0  0  0  0  0  0  0  0  0  0  0  0
   58.9040   35.9610   47.5040 H   0  0  0  0  0  0  0  0  0  0  0  0
   59.1210   32.3604   48.1127 H   0  0  0  0  0  0  0  0  0  0  0  0
   58.7990   30.6012   46.3760 H   0  0  0  0  0  0  0  0  0  0  0  0
  1  2  1  0
  2  3  1  0
  3  4  2  0
  3  5  1  0
  5  6  1  0
  6  7  1  0
  7  8  2  0
  7  9  1  0
  9 10  1  0
 10 11  3  0
  9 12  2  3
 12 13  1  0
 13 14  2  0
 14 15  1  0
 15 16  2  0
 16 17  1  0
 16 18  1  0
 18 19  2  0
 19 13  1  0
  1 20  1  0
  1 21  1  0
  1 22  1  0
  5 23  1  0
  5 24  1  0
 12 25  1  0
 14 26  1  0
 15 27  1  0
 17 28  1  0
 18 29  1  0
 19 30  1  0
M  CHG  1   2  -1
M  END
>  <UniqueID>  (19) 
17

>  <SMILES>  (19) 
C[N-]C(=O)COC(=O)C(C#N)=Cc1ccc(O)cc1

>  <Energy>  (19) 
28.2866168908718

>  <Genealogy>  (19) 
C[N-]C(=O)COC(=O)C(C#N)=Cc1ccc(O)cc1 (protonated)
C[N-]C(=O)COC(=O)C(C#N)=Cc1ccc(O)cc1 (3D coordinates assigned)
C[N-]C(=O)COC(=O)C(C#N)=Cc1ccc(O)cc1 (optimized conformer: 28.2866168908718 kcal/mol)

>  <smiles>  (19) 
CNC(=O)COC(=O)C(C#N)=Cc1ccc(O)cc1

>  <score_type>  (19) 
oracle

>  <origin>  (19) 
adg

>  <m_score__min__energy>  (19) 
-8.6699999999999999

>  <m_primary>  (19) 
energy

$$$$
19:0
     RDKit          3D

 56 60  0  0  0  0  0  0  0  0999 V2000
   56.3765   23.3295   45.3676 H   0  0  0  0  0  0  0  0  0  0  0  0
   55.8860   24.2730   45.6490 C   0  0  0  0  0  0  0  0  0  0  0  0
   56.4620   25.4150   46.1700 C   0  0  0  0  0  0  0  0  0  0  0  0
   57.9320   25.6330   46.3900 C   0  0  0  0  0  0  0  0  0  0  0  0
   58.1994   25.2888   47.4000 H   0  0  0  0  0  0  0  0  0  0  0  0
   58.4879   25.0653   45.6293 H   0  0  0  0  0  0  0  0  0  0  0  0
   58.2830   27.0690   46.2580 N   0  0  0  0  0  0  0  0  0  0  0  0
   58.7500   27.6690   47.3900 C   0  0  0  0  0  0  0  0  0  0  0  0
   58.4465   27.2178   48.3462 H   0  0  0  0  0  0  0  0  0  0  0  0
   59.5730   28.7960   47.4650 C   0  0  0  0  0  0  0  0  0  0  0  0
   60.3260   28.9540   48.7470 C   0  0  0  0  0  0  0  0  0  0  0  0
   61.0140   27.9900   49.1760 O   0  0  0  0  0  0  0  0  0  0  0  0
   60.2020   30.1230   49.5700 N   0  0  0  0  0  0  0  0  0  0  0  0
   59.1140   30.5750   50.1230 C   0  0  0  0  0  0  0  0  0  0  0  0
   58.3930   29.9730   51.1430 C   0  0  0  0  0  0  0  0  0  0  0  0
   58.6115   29.0287   51.6631 H   0  0  0  0  0  0  0  0  0  0  0  0
   57.3350   30.8380   51.3530 C   0  0  0  0  0  0  0  0  0  0  0  0
   56.2320   30.6420   52.3130 C   0  0  0  0  0  0  0  0  0  0  0  0
   56.4030   29.9180   53.3310 O   0  0  0  0  0  0  0  0  0  0  0  0
   54.9560   31.2480   52.0920 N   0  0  0  0  0  0  0  0  0  0  0  0
   54.1810   31.0980   52.7710 H   0  0  0  0  0  0  0  0  0  0  0  0
   54.7860   31.8530   51.2570 H   0  0  0  0  0  0  0  0  0  0  0  0
   57.4230   31.8890   50.5110 N   0  0  0  0  0  0  0  0  0  0  0  0
   58.5010   31.7230   49.7560 N   0  0  0  0  0  0  0  0  0  0  0  0
   58.9200   32.6880   48.7650 C   0  0  0  0  0  0  0  0  0  0  0  0
   58.0680   33.0910   47.7180 C   0  0  0  0  0  0  0  0  0  0  0  0
   57.0531   32.6728   47.6466 H   0  0  0  0  0  0  0  0  0  0  0  0
   58.5060   34.0200   46.7690 C   0  0  0  0  0  0  0  0  0  0  0  0
   57.8406   34.3177   45.9453 H   0  0  0  0  0  0  0  0  0  0  0  0
   59.7860   34.5710   46.8640 C   0  0  0  0  0  0  0  0  0  0  0  0
   60.1287   35.2983   46.1133 H   0  0  0  0  0  0  0  0  0  0  0  0
   60.6300   34.1990   47.9110 C   0  0  0  0  0  0  0  0  0  0  0  0
   61.6351   34.6390   47.9899 H   0  0  0  0  0  0  0  0  0  0  0  0
   60.1990   33.2680   48.8590 C   0  0  0  0  0  0  0  0  0  0  0  0
   60.8657   32.9854   49.6871 H   0  0  0  0  0  0  0  0  0  0  0  0
   59.6640   29.8290   46.5180 C   0  0  0  0  0  0  0  0  0  0  0  0
   60.5610   30.7020   46.7110 O   0  0  0  0  0  0  0  0  0  0  0  0
   58.7660   30.0510   45.4540 C   0  0  0  0  0  0  0  0  0  0  0  0
   58.6690   31.3890   44.9800 C   0  0  0  0  0  0  0  0  0  0  0  0
   59.2698   32.1713   45.4669 H   0  0  0  0  0  0  0  0  0  0  0  0
   57.8390   31.7390   43.9210 C   0  0  0  0  0  0  0  0  0  0  0  0
   57.7800   32.7865   43.5905 H   0  0  0  0  0  0  0  0  0  0  0  0
   57.0880   30.7690   43.2840 C   0  0  0  0  0  0  0  0  0  0  0  0
   56.2850   31.1060   42.2460 F   0  0  0  0  0  0  0  0  0  0  0  0
   57.1720   29.4470   43.7020 C   0  0  0  0  0  0  0  0  0  0  0  0
   56.5791   28.6843   43.1760 H   0  0  0  0  0  0  0  0  0  0  0  0
   58.0010   29.0460   44.7900 C   0  0  0  0  0  0  0  0  0  0  0  0
   58.0680   27.6540   45.0350 C   0  0  0  0  0  0  0  0  0  0  0  0
   57.7970   26.8900   44.0590 O   0  0  0  0  0  0  0  0  0  0  0  0
   55.5150   26.3560   46.3610 N   0  0  0  0  0  0  0  0  0  0  0  0
   54.3780   25.8270   45.9950 O   0  0  0  0  0  0  0  0  0  0  0  0
   54.5480   24.5990   45.5660 C   0  0  0  0  0  0  0  0  0  0  0  0
   53.4480   23.7100   45.0790 C   0  0  0  0  0  0  0  0  0  0  0  0
   52.9158   23.2798   45.9402 H   0  0  0  0  0  0  0  0  0  0  0  0
   52.7451   24.2967   44.4693 H   0  0  0  0  0  0  0  0  0  0  0  0
   53.8742   22.8997   44.4693 H   0  0  0  0  0  0  0  0  0  0  0  0
  1  2  1  0
  2  3  1  0
  3  4  1  0
  4  5  1  0
  4  6  1  0
  4  7  1  0
  7  8  1  0
  8  9  1  0
  8 10  2  0
 10 11  1  0
 11 12  2  0
 11 13  1  0
 13 14  2  0
 14 15  1  0
 15 16  1  0
 15 17  2  0
 17 18  1  0
 18 19  2  0
 18 20  1  0
 20 21  1  0
 20 22  1  0
 17 23  1  0
 23 24  1  0
 24 25  1  0
 25 26  2  0
 26 27  1  0
 26 28  1  0
 28 29  1  0
 28 30  2  0
 30 31  1  0
 30 32  1  0
 32 33  1  0
 32 34  2  0
 34 35  1  0
 10 36  1  0
 36 37  2  0
 36 38  1  0
 38 39  2  0
 39 40  1  0
 39 41  1  0
 41 42  1  0
 41 43  2  0
 43 44  1  0
 43 45  1  0
 45 46  1  0
 45 47  2  0
 47 48  1  0
 48 49  2  0
  3 50  2  0
 50 51  1  0
 51 52  1  0
 52 53  1  0
 53 54  1  0
 53 55  1  0
 53 56  1  0
 52  2  2  0
 48  7  1  0
 24 14  1  0
 34 25  1  0
 47 38  1  0
M  CHG  1  23  -1
M  END
>  <UniqueID>  (20) 
18

>  <SMILES>  (20) 
Cc1cc(Cn2cc(C(=O)/N=c3\cc(C(N)=O)[n-]n3-c3ccccc3)c(=O)c3ccc(F)cc3c2=O)no1

>  <Energy>  (20) 
185.7257238886537

>  <Genealogy>  (20) 
Cc1cc(Cn2cc(C(=O)N=c3cc(C(N)=O)[n-]n3-c3ccccc3)c(=O)c3ccc(F)cc3c2=O)no1 (protonated)
Cc1cc(Cn2cc(C(=O)/N=c3\cc(C(N)=O)[n-]n3-c3ccccc3)c(=O)c3ccc(F)cc3c2=O)no1 (cis-trans isomerization)
Cc1cc(Cn2cc(C(=O)/N=c3\cc(C(N)=O)[n-]n3-c3ccccc3)c(=O)c3ccc(F)cc3c2=O)no1 (3D coordinates assigned)
Cc1cc(Cn2cc(C(=O)/N=c3\cc(C(N)=O)[n-]n3-c3ccccc3)c(=O)c3ccc(F)cc3c2=O)no1 (optimized conformer: 185.7257238886537 kcal/mol)

>  <smiles>  (20) 
Cc1cc(Cn2cc(C(=O)N=c3cc(C(N)=O)[nH]n3-c3ccccc3)c(=O)c3ccc(F)cc3c2=O)no1

>  <score_type>  (20) 
oracle

>  <origin>  (20) 
adg

>  <m_score__min__energy>  (20) 
-11.48

>  <m_primary>  (20) 
energy

$$$$
20:0
     RDKit          3D

 49 51  0  0  0  0  0  0  0  0999 V2000
   58.1290   32.1380   49.9810 C   0  0  0  0  0  0  0  0  0  0  0  0
   59.3000   32.9120   49.7220 O   0  0  0  0  0  0  0  0  0  0  0  0
   59.5970   33.5190   48.4880 C   0  0  0  0  0  0  0  0  0  0  0  0
   58.6010   34.1260   47.6950 C   0  0  0  0  0  0  0  0  0  0  0  0
   58.9340   34.7070   46.4680 C   0  0  0  0  0  0  0  0  0  0  0  0
   60.2570   34.7010   46.0240 C   0  0  0  0  0  0  0  0  0  0  0  0
   61.2540   34.1110   46.8030 C   0  0  0  0  0  0  0  0  0  0  0  0
   62.5420   34.1240   46.3700 F   0  0  0  0  0  0  0  0  0  0  0  0
   60.9280   33.5110   48.0290 C   0  0  0  0  0  0  0  0  0  0  0  0
   61.9550   32.8930   48.8140 N   0  0  0  0  0  0  0  0  0  0  0  0
   62.6070   33.6520   49.8790 C   0  0  0  0  0  0  0  0  0  0  0  0
   62.3800   31.2350   48.5080 S   0  0  0  0  0  0  0  0  0  0  0  0
   62.6180   30.5170   49.8060 O   0  0  0  0  0  0  0  0  0  0  0  0
   63.6490   31.1930   47.7000 O   0  0  0  0  0  0  0  0  0  0  0  0
   61.0760   30.4420   47.6300 C   0  0  0  0  0  0  0  0  0  0  0  0
   60.3540   29.3910   48.2150 C   0  0  0  0  0  0  0  0  0  0  0  0
   59.3150   28.7740   47.5110 C   0  0  0  0  0  0  0  0  0  0  0  0
   59.0000   29.1880   46.2070 C   0  0  0  0  0  0  0  0  0  0  0  0
   57.9130   28.5230   45.4630 C   0  0  0  0  0  0  0  0  0  0  0  0
   58.1830   27.5310   44.7350 O   0  0  0  0  0  0  0  0  0  0  0  0
   56.5550   28.9780   45.5380 N   0  0  0  0  0  0  0  0  0  0  0  0
   55.8610   29.7210   44.4880 C   0  0  0  0  0  0  0  0  0  0  0  0
   56.7160   30.8630   44.0110 C   0  0  0  0  0  0  0  0  0  0  0  0
   57.2800   30.8430   42.7250 C   0  0  0  0  0  0  0  0  0  0  0  0
   58.0350   31.9360   42.2910 C   0  0  0  0  0  0  0  0  0  0  0  0
   58.2160   33.0130   43.1070 N   0  0  0  0  0  0  0  0  0  0  0  0
   57.6760   33.0600   44.3560 C   0  0  0  0  0  0  0  0  0  0  0  0
   56.9160   31.9870   44.8300 C   0  0  0  0  0  0  0  0  0  0  0  0
   59.7080   30.2560   45.6350 C   0  0  0  0  0  0  0  0  0  0  0  0
   60.7430   30.8740   46.3400 C   0  0  0  0  0  0  0  0  0  0  0  0
   57.9852   32.0429   51.0674 H   0  0  0  0  0  0  0  0  0  0  0  0
   57.2545   32.6366   49.5376 H   0  0  0  0  0  0  0  0  0  0  0  0
   58.2449   31.1380   49.5376 H   0  0  0  0  0  0  0  0  0  0  0  0
   57.5578   34.1423   48.0435 H   0  0  0  0  0  0  0  0  0  0  0  0
   58.1506   35.1705   45.8504 H   0  0  0  0  0  0  0  0  0  0  0  0
   60.5146   35.1618   45.0589 H   0  0  0  0  0  0  0  0  0  0  0  0
   62.2781   33.2691   50.8563 H   0  0  0  0  0  0  0  0  0  0  0  0
   63.6981   33.5439   49.7912 H   0  0  0  0  0  0  0  0  0  0  0  0
   62.3356   34.7144   49.7912 H   0  0  0  0  0  0  0  0  0  0  0  0
   60.6059   29.0512   49.2304 H   0  0  0  0  0  0  0  0  0  0  0  0
   58.7422   27.9609   47.9809 H   0  0  0  0  0  0  0  0  0  0  0  0
   55.6501   29.0474   43.6444 H   0  0  0  0  0  0  0  0  0  0  0  0
   54.9194   30.1208   44.8923 H   0  0  0  0  0  0  0  0  0  0  0  0
   57.1290   29.9755   42.0658 H   0  0  0  0  0  0  0  0  0  0  0  0
   58.4849   31.9273   41.2873 H   0  0  0  0  0  0  0  0  0  0  0  0
   57.8379   33.9426   44.9922 H   0  0  0  0  0  0  0  0  0  0  0  0
   56.4772   32.0223   45.8381 H   0  0  0  0  0  0  0  0  0  0  0  0
   59.4464   30.6082   44.6263 H   0  0  0  0  0  0  0  0  0  0  0  0
   61.2993   31.7040   45.8800 H   0  0  0  0  0  0  0  0  0  0  0  0
  1  2  1  0
  2  3  1  0
  3  4  2  0
  4  5  1  0
  5  6  2  0
  6  7  1  0
  7  8  1  0
  7  9  2  0
  9 10  1  0
 10 11  1  0
 10 12  1  0
 12 13  2  0
 12 14  2  0
 12 15  1  0
 15 16  2  0
 16 17  1  0
 17 18  2  0
 18 19  1  0
 19 20  2  0
 19 21  1  0
 21 22  1  0
 22 23  1  0
 23 24  2  0
 24 25  1  0
 25 26  2  0
 26 27  1  0
 27 28  2  0
 18 29  1  0
 29 30  2  0
  9  3  1  0
 30 15  1  0
 28 23  1  0
  1 31  1  0
  1 32  1  0
  1 33  1  0
  4 34  1  0
  5 35  1  0
  6 36  1  0
 11 37  1  0
 11 38  1  0
 11 39  1  0
 16 40  1  0
 17 41  1  0
 22 42  1  0
 22 43  1  0
 24 44  1  0
 25 45  1  0
 27 46  1  0
 28 47  1  0
 29 48  1  0
 30 49  1  0
M  CHG  1  21  -1
M  END
>  <UniqueID>  (21) 
19

>  <SMILES>  (21) 
COc1cccc(F)c1N(C)S(=O)(=O)c1ccc(C(=O)[N-]Cc2ccncc2)cc1

>  <Energy>  (21) 
58.691007872177536

>  <Genealogy>  (21) 
COc1cccc(F)c1N(C)S(=O)(=O)c1ccc(C(=O)[N-]Cc2ccncc2)cc1 (protonated)
COc1cccc(F)c1N(C)S(=O)(=O)c1ccc(C(=O)[N-]Cc2ccncc2)cc1 (3D coordinates assigned)
COc1cccc(F)c1N(C)S(=O)(=O)c1ccc(C(=O)[N-]Cc2ccncc2)cc1 (optimized conformer: 58.691007872177536 kcal/mol)

>  <smiles>  (21) 
COc1cccc(F)c1N(C)S(=O)(=O)c1ccc(C(=O)NCc2ccncc2)cc1

>  <score_type>  (21) 
oracle

>  <origin>  (21) 
adg

>  <m_score__min__energy>  (21) 
-9.8599999999999994

>  <m_primary>  (21) 
energy

$$$$
21:0
     RDKit          3D

 23 25  0  0  0  0  0  0  0  0999 V2000
   55.6610   30.7510   44.5020 O   0  0  0  0  0  0  0  0  0  0  0  0
   57.0990   30.8470   44.0790 S   0  0  0  0  0  0  0  0  0  0  0  0
   57.1970   31.0450   42.5920 O   0  0  0  0  0  0  0  0  0  0  0  0
   57.8720   32.1760   44.9060 C   0  0  0  0  0  0  0  0  0  0  0  0
   57.3940   33.4800   44.7220 C   0  0  0  0  0  0  0  0  0  0  0  0
   58.0050   34.5510   45.3780 C   0  0  0  0  0  0  0  0  0  0  0  0
   59.0960   34.3220   46.2210 C   0  0  0  0  0  0  0  0  0  0  0  0
   59.5760   33.0230   46.4060 C   0  0  0  0  0  0  0  0  0  0  0  0
   58.9720   31.9400   45.7530 C   0  0  0  0  0  0  0  0  0  0  0  0
   59.4960   30.6570   45.9770 O   0  0  0  0  0  0  0  0  0  0  0  0
   59.0350   29.4520   45.4210 C   0  0  0  0  0  0  0  0  0  0  0  0
   59.6690   28.2930   45.7530 N   0  0  0  0  0  0  0  0  0  0  0  0
   59.2690   27.0960   45.2470 C   0  0  0  0  0  0  0  0  0  0  0  0
   58.1870   27.0480   44.3680 C   0  0  0  0  0  0  0  0  0  0  0  0
   57.5490   28.1990   44.0320 N   0  0  0  0  0  0  0  0  0  0  0  0
   57.9460   29.3970   44.5370 C   0  0  0  0  0  0  0  0  0  0  0  0
   56.5351   33.6609   44.0590 H   0  0  0  0  0  0  0  0  0  0  0  0
   57.6279   35.5739   45.2313 H   0  0  0  0  0  0  0  0  0  0  0  0
   59.5769   35.1648   46.7390 H   0  0  0  0  0  0  0  0  0  0  0  0
   60.4355   32.8488   47.0700 H   0  0  0  0  0  0  0  0  0  0  0  0
   60.4810   28.3210   46.4100 H   0  0  0  0  0  0  0  0  0  0  0  0
   59.7950   26.1719   45.5289 H   0  0  0  0  0  0  0  0  0  0  0  0
   57.8534   26.0865   43.9506 H   0  0  0  0  0  0  0  0  0  0  0  0
  1  2  2  0
  2  3  2  0
  2  4  1  0
  4  5  2  0
  5  6  1  0
  6  7  2  0
  7  8  1  0
  8  9  2  0
  9 10  1  0
 10 11  1  0
 11 12  2  0
 12 13  1  0
 13 14  2  0
 14 15  1  0
 15 16  2  0
 16  2  1  0
  9  4  1  0
 16 11  1  0
  5 17  1  0
  6 18  1  0
  7 19  1  0
  8 20  1  0
 12 21  1  0
 13 22  1  0
 14 23  1  0
M  CHG  1  12   1
M  END
>  <UniqueID>  (22) 
20

>  <SMILES>  (22) 
O=S1(=O)c2ccccc2Oc2[nH+]ccnc21

>  <Energy>  (22) 
33.01324303691862

>  <Genealogy>  (22) 
O=S1(=O)c2ccccc2Oc2[nH+]ccnc21 (protonated)
O=S1(=O)c2ccccc2Oc2[nH+]ccnc21 (3D coordinates assigned)
O=S1(=O)c2ccccc2Oc2[nH+]ccnc21 (nonaromatic ring conformer: 33.01324303691862 kcal/mol)

>  <smiles>  (22) 
O=S1(=O)c2ccccc2Oc2nccnc21

>  <score_type>  (22) 
oracle

>  <origin>  (22) 
adg

>  <m_score__min__energy>  (22) 
-4.75

>  <m_primary>  (22) 
energy

$$$$
22:0
     RDKit          3D

 54 56  0  0  0  0  0  0  0  0999 V2000
   58.5550   34.5730   45.5340 C   0  0  0  0  0  0  0  0  0  0  0  0
   59.8020   33.6980   45.6290 C   0  0  0  0  0  0  0  0  0  0  0  0
   60.3760   33.7060   47.0520 C   0  0  0  0  0  0  0  0  0  0  0  0
   60.4730   32.3420   47.6000 N   0  0  0  0  0  0  0  0  0  0  0  0
   61.0210   31.2550   46.8230 C   0  0  0  0  0  0  0  0  0  0  0  0
   62.2700   31.0760   46.8010 O   0  0  0  0  0  0  0  0  0  0  0  0
   60.1590   30.3380   46.0450 C   0  0  0  0  0  0  0  0  0  0  0  0
   60.6800   29.1310   45.5590 C   0  0  0  0  0  0  0  0  0  0  0  0
   59.8760   28.2610   44.8230 C   0  0  0  0  0  0  0  0  0  0  0  0
   58.5400   28.5830   44.5470 C   0  0  0  0  0  0  0  0  0  0  0  0
   57.7680   27.6960   43.7280 N   0  0  0  0  0  0  0  0  0  0  0  0
   58.0000   29.7970   45.0370 C   0  0  0  0  0  0  0  0  0  0  0  0
   56.6190   30.1370   44.8370 N   0  0  0  0  0  0  0  0  0  0  0  0
   56.2670   31.3340   44.8140 O   0  0  0  0  0  0  0  0  0  0  0  0
   55.6530   29.1610   44.9030 O   0  0  0  0  0  0  0  0  0  0  0  0
   58.8270   30.6730   45.7620 C   0  0  0  0  0  0  0  0  0  0  0  0
   59.7820   32.0310   48.8230 C   0  0  0  0  0  0  0  0  0  0  0  0
   60.4450   31.4400   49.9200 C   0  0  0  0  0  0  0  0  0  0  0  0
   61.8690   31.2280   49.8340 N   0  0  0  0  0  0  0  0  0  0  0  0
   59.7300   31.1160   51.0600 N   0  0  0  0  0  0  0  0  0  0  0  0
   60.3410   30.3670   52.1820 C   0  0  0  0  0  0  0  0  0  0  0  0
   60.7610   28.9870   51.7370 C   0  0  0  0  0  0  0  0  0  0  0  0
   60.4030   28.5000   50.4680 C   0  0  0  0  0  0  0  0  0  0  0  0
   60.7730   27.2090   50.0780 C   0  0  0  0  0  0  0  0  0  0  0  0
   61.5050   26.3960   50.9470 C   0  0  0  0  0  0  0  0  0  0  0  0
   61.8650   26.8720   52.2100 C   0  0  0  0  0  0  0  0  0  0  0  0
   61.4930   28.1600   52.6060 C   0  0  0  0  0  0  0  0  0  0  0  0
   58.3890   31.4250   51.1240 C   0  0  0  0  0  0  0  0  0  0  0  0
   57.7140   31.1520   52.1550 O   0  0  0  0  0  0  0  0  0  0  0  0
   57.7640   32.0330   50.0820 N   0  0  0  0  0  0  0  0  0  0  0  0
   58.4270   32.3360   48.9420 C   0  0  0  0  0  0  0  0  0  0  0  0
   57.8140   32.8950   47.9920 O   0  0  0  0  0  0  0  0  0  0  0  0
   58.2026   34.8203   46.5463 H   0  0  0  0  0  0  0  0  0  0  0  0
   58.7977   35.4999   44.9936 H   0  0  0  0  0  0  0  0  0  0  0  0
   57.7660   34.0295   44.9936 H   0  0  0  0  0  0  0  0  0  0  0  0
   59.5385   32.6661   45.3538 H   0  0  0  0  0  0  0  0  0  0  0  0
   60.5629   34.0990   44.9433 H   0  0  0  0  0  0  0  0  0  0  0  0
   61.3798   34.1553   47.0305 H   0  0  0  0  0  0  0  0  0  0  0  0
   59.7007   34.2901   47.6945 H   0  0  0  0  0  0  0  0  0  0  0  0
   61.7292   28.8684   45.7593 H   0  0  0  0  0  0  0  0  0  0  0  0
   60.2945   27.3125   44.4554 H   0  0  0  0  0  0  0  0  0  0  0  0
   56.7300   27.6380   43.8070 H   0  0  0  0  0  0  0  0  0  0  0  0
   58.2210   27.1670   42.9500 H   0  0  0  0  0  0  0  0  0  0  0  0
   58.4235   31.6346   46.1121 H   0  0  0  0  0  0  0  0  0  0  0  0
   62.3820   31.1020   48.9400 H   0  0  0  0  0  0  0  0  0  0  0  0
   62.4490   31.0700   50.6860 H   0  0  0  0  0  0  0  0  0  0  0  0
   61.2243   30.9144   52.5429 H   0  0  0  0  0  0  0  0  0  0  0  0
   59.5979   30.2679   52.9870 H   0  0  0  0  0  0  0  0  0  0  0  0
   59.8294   29.1371   49.7787 H   0  0  0  0  0  0  0  0  0  0  0  0
   60.4870   26.8327   49.0847 H   0  0  0  0  0  0  0  0  0  0  0  0
   61.7976   25.3820   50.6369 H   0  0  0  0  0  0  0  0  0  0  0  0
   62.4421   26.2323   52.8940 H   0  0  0  0  0  0  0  0  0  0  0  0
   61.7748   28.5283   53.6035 H   0  0  0  0  0  0  0  0  0  0  0  0
   56.7450   32.2620   50.1580 H   0  0  0  0  0  0  0  0  0  0  0  0
  1  2  1  0
  2  3  1  0
  3  4  1  0
  4  5  1  0
  5  6  2  0
  5  7  1  0
  7  8  2  0
  8  9  1  0
  9 10  2  0
 10 11  1  0
 10 12  1  0
 12 13  1  0
 13 14  2  0
 13 15  1  0
 12 16  2  0
  4 17  1  0
 17 18  2  0
 18 19  1  0
 18 20  1  0
 20 21  1  0
 21 22  1  0
 22 23  2  0
 23 24  1  0
 24 25  2  0
 25 26  1  0
 26 27  2  0
 20 28  1  0
 28 29  2  0
 28 30  1  0
 30 31  1  0
 31 32  2  0
 16  7  1  0
 31 17  1  0
 27 22  1  0
  1 33  1  0
  1 34  1  0
  1 35  1  0
  2 36  1  0
  2 37  1  0
  3 38  1  0
  3 39  1  0
  8 40  1  0
  9 41  1  0
 11 42  1  0
 11 43  1  0
 16 44  1  0
 19 45  1  0
 19 46  1  0
 21 47  1  0
 21 48  1  0
 23 49  1  0
 24 50  1  0
 25 51  1  0
 26 52  1  0
 27 53  1  0
 30 54  1  0
M  CHG  2  13   1  15  -1
M  END
>  <UniqueID>  (23) 
21

>  <SMILES>  (23) 
CCCN(C(=O)c1ccc(N)c([N+](=O)[O-])c1)c1c(N)n(Cc2ccccc2)c(=O)[nH]c1=O

>  <Energy>  (23) 
77.06943599043645

>  <Genealogy>  (23) 
CCCN(C(=O)c1ccc(N)c([N+](=O)[O-])c1)c1c(N)n(Cc2ccccc2)c(=O)[nH]c1=O (3D coordinates assigned)
CCCN(C(=O)c1ccc(N)c([N+](=O)[O-])c1)c1c(N)n(Cc2ccccc2)c(=O)[nH]c1=O (optimized conformer: 77.06943599043645 kcal/mol)

>  <smiles>  (23) 
CCCN(C(=O)c1ccc(N)c([N+](=O)[O-])c1)c1c(N)n(Cc2ccccc2)c(=O)[nH]c1=O

>  <score_type>  (23) 
oracle

>  <origin>  (23) 
adg

>  <m_score__min__energy>  (23) 
-8.5199999999999996

>  <m_primary>  (23) 
energy

$$$$
23:0
     RDKit          3D

 34 35  0  0  0  0  0  0  0  0999 V2000
   56.7550   29.2580   42.7660 N   0  0  0  0  0  0  0  0  0  0  0  0
   56.5360   29.7810   44.3990 S   0  0  0  0  0  0  0  0  0  0  0  0
   55.1790   29.3430   44.8770 O   0  0  0  0  0  0  0  0  0  0  0  0
   56.6170   31.2800   44.4700 O   0  0  0  0  0  0  0  0  0  0  0  0
   57.7940   29.0770   45.4100 C   0  0  0  0  0  0  0  0  0  0  0  0
   58.4260   27.8820   45.0430 C   0  0  0  0  0  0  0  0  0  0  0  0
   59.4250   27.3380   45.8560 C   0  0  0  0  0  0  0  0  0  0  0  0
   59.8130   27.9980   47.0260 C   0  0  0  0  0  0  0  0  0  0  0  0
   59.2160   29.2140   47.3820 C   0  0  0  0  0  0  0  0  0  0  0  0
   59.6540   29.8820   48.5710 N   0  0  0  0  0  0  0  0  0  0  0  0
   58.8120   30.4950   49.5610 C   0  0  0  0  0  0  0  0  0  0  0  0
   58.1740   29.7540   50.3540 O   0  0  0  0  0  0  0  0  0  0  0  0
   58.6900   31.9860   49.7020 C   0  0  0  0  0  0  0  0  0  0  0  0
   59.5520   32.6320   48.7690 O   0  0  0  0  0  0  0  0  0  0  0  0
   59.1600   33.1510   47.5250 C   0  0  0  0  0  0  0  0  0  0  0  0
   57.7940   33.0930   47.2150 C   0  0  0  0  0  0  0  0  0  0  0  0
   57.3090   33.6280   46.0200 C   0  0  0  0  0  0  0  0  0  0  0  0
   58.1890   34.2090   45.1080 C   0  0  0  0  0  0  0  0  0  0  0  0
   59.5570   34.2460   45.3840 C   0  0  0  0  0  0  0  0  0  0  0  0
   60.0560   33.7160   46.5820 C   0  0  0  0  0  0  0  0  0  0  0  0
   61.8030   33.7120   46.7900 Cl  0  0  0  0  0  0  0  0  0  0  0  0
   58.1780   29.7310   46.5870 C   0  0  0  0  0  0  0  0  0  0  0  0
   57.7560   29.4340   42.5200 H   0  0  0  0  0  0  0  0  0  0  0  0
   56.6200   28.2220   42.7550 H   0  0  0  0  0  0  0  0  0  0  0  0
   58.1358   27.3706   44.1134 H   0  0  0  0  0  0  0  0  0  0  0  0
   59.9063   26.3897   45.5748 H   0  0  0  0  0  0  0  0  0  0  0  0
   60.5904   27.5604   47.6696 H   0  0  0  0  0  0  0  0  0  0  0  0
   57.6501   32.2872   49.5073 H   0  0  0  0  0  0  0  0  0  0  0  0
   58.9761   32.2785   50.7231 H   0  0  0  0  0  0  0  0  0  0  0  0
   57.0960   32.6204   47.9217 H   0  0  0  0  0  0  0  0  0  0  0  0
   56.2323   33.5911   45.7980 H   0  0  0  0  0  0  0  0  0  0  0  0
   57.8053   34.6384   44.1707 H   0  0  0  0  0  0  0  0  0  0  0  0
   60.2487   34.6945   44.6557 H   0  0  0  0  0  0  0  0  0  0  0  0
   57.6645   30.6549   46.8915 H   0  0  0  0  0  0  0  0  0  0  0  0
  1  2  1  0
  2  3  2  0
  2  4  2  0
  2  5  1  0
  5  6  2  0
  6  7  1  0
  7  8  2  0
  8  9  1  0
  9 10  1  0
 10 11  1  0
 11 12  2  0
 11 13  1  0
 13 14  1  0
 14 15  1  0
 15 16  2  0
 16 17  1  0
 17 18  2  0
 18 19  1  0
 19 20  2  0
 20 21  1  0
  9 22  2  0
 22  5  1  0
 20 15  1  0
  1 23  1  0
  1 24  1  0
  6 25  1  0
  7 26  1  0
  8 27  1  0
 13 28  1  0
 13 29  1  0
 16 30  1  0
 17 31  1  0
 18 32  1  0
 19 33  1  0
 22 34  1  0
M  CHG  1  10  -1
M  END
>  <UniqueID>  (24) 
22

>  <SMILES>  (24) 
NS(=O)(=O)c1cccc([N-]C(=O)COc2ccccc2Cl)c1

>  <Energy>  (24) 
39.4037883578571

>  <Genealogy>  (24) 
NS(=O)(=O)c1cccc([N-]C(=O)COc2ccccc2Cl)c1 (protonated)
NS(=O)(=O)c1cccc([N-]C(=O)COc2ccccc2Cl)c1 (3D coordinates assigned)
NS(=O)(=O)c1cccc([N-]C(=O)COc2ccccc2Cl)c1 (optimized conformer: 39.4037883578571 kcal/mol)

>  <smiles>  (24) 
NS(=O)(=O)c1cccc(NC(=O)COc2ccccc2Cl)c1

>  <score_type>  (24) 
oracle

>  <origin>  (24) 
adg

>  <m_score__min__energy>  (24) 
-9.9399999999999995

>  <m_primary>  (24) 
energy

$$$$
24:0
     RDKit          3D

 45 47  0  0  0  0  0  0  0  0999 V2000
   57.6610   26.4530   46.3950 O   0  0  0  0  0  0  0  0  0  0  0  0
   56.4540   26.6080   46.0690 C   0  0  0  0  0  0  0  0  0  0  0  0
   55.5350   25.5380   46.3110 N   0  0  0  0  0  0  0  0  0  0  0  0
   54.8840   24.7670   45.2590 C   0  0  0  0  0  0  0  0  0  0  0  0
   55.8410   23.7340   44.7360 C   0  0  0  0  0  0  0  0  0  0  0  0
   55.7140   23.2510   43.4230 C   0  0  0  0  0  0  0  0  0  0  0  0
   56.6270   22.3150   42.9270 C   0  0  0  0  0  0  0  0  0  0  0  0
   57.6760   21.8630   43.7330 C   0  0  0  0  0  0  0  0  0  0  0  0
   57.8180   22.3520   45.0350 C   0  0  0  0  0  0  0  0  0  0  0  0
   56.9070   23.2890   45.5340 C   0  0  0  0  0  0  0  0  0  0  0  0
   56.0250   27.8260   45.4350 N   0  0  0  0  0  0  0  0  0  0  0  0
   56.8000   29.0370   45.4200 C   0  0  0  0  0  0  0  0  0  0  0  0
   57.8090   29.2200   46.3770 C   0  0  0  0  0  0  0  0  0  0  0  0
   58.5900   30.3780   46.3710 C   0  0  0  0  0  0  0  0  0  0  0  0
   58.3920   31.3660   45.3930 C   0  0  0  0  0  0  0  0  0  0  0  0
   59.1910   32.5660   45.3930 N   0  0  0  0  0  0  0  0  0  0  0  0
   58.9130   33.6570   44.4500 C   0  0  0  0  0  0  0  0  0  0  0  0
   58.6690   34.9720   45.2060 C   0  0  0  0  0  0  0  0  0  0  0  0
   59.5570   35.1330   46.4600 C   0  0  0  0  0  0  0  0  0  0  0  0
   60.7560   34.1760   46.4620 C   0  0  0  0  0  0  0  0  0  0  0  0
   60.2780   32.7190   46.3740 C   0  0  0  0  0  0  0  0  0  0  0  0
   57.3920   31.1760   44.4250 C   0  0  0  0  0  0  0  0  0  0  0  0
   56.6090   30.0180   44.4330 C   0  0  0  0  0  0  0  0  0  0  0  0
   53.9922   24.2687   45.6669 H   0  0  0  0  0  0  0  0  0  0  0  0
   54.5842   25.4390   44.4414 H   0  0  0  0  0  0  0  0  0  0  0  0
   54.8943   23.6100   42.7833 H   0  0  0  0  0  0  0  0  0  0  0  0
   56.5195   21.9337   41.9008 H   0  0  0  0  0  0  0  0  0  0  0  0
   58.3897   21.1225   43.3427 H   0  0  0  0  0  0  0  0  0  0  0  0
   58.6464   21.9998   45.6673 H   0  0  0  0  0  0  0  0  0  0  0  0
   57.0263   23.6787   46.5557 H   0  0  0  0  0  0  0  0  0  0  0  0
   55.1450   27.8080   44.8730 H   0  0  0  0  0  0  0  0  0  0  0  0
   57.9866   28.4458   47.1379 H   0  0  0  0  0  0  0  0  0  0  0  0
   59.3660   30.5171   47.1381 H   0  0  0  0  0  0  0  0  0  0  0  0
   59.7735   33.7811   43.7760 H   0  0  0  0  0  0  0  0  0  0  0  0
   58.0115   33.4064   43.8716 H   0  0  0  0  0  0  0  0  0  0  0  0
   58.8744   35.8098   44.5235 H   0  0  0  0  0  0  0  0  0  0  0  0
   57.6235   34.9607   45.5478 H   0  0  0  0  0  0  0  0  0  0  0  0
   59.9315   36.1667   46.4959 H   0  0  0  0  0  0  0  0  0  0  0  0
   58.9391   34.8940   47.3381 H   0  0  0  0  0  0  0  0  0  0  0  0
   61.3994   34.3992   45.5982 H   0  0  0  0  0  0  0  0  0  0  0  0
   61.3189   34.3111   47.3974 H   0  0  0  0  0  0  0  0  0  0  0  0
   61.1235   32.0830   46.0727 H   0  0  0  0  0  0  0  0  0  0  0  0
   59.8961   32.4209   47.3616 H   0  0  0  0  0  0  0  0  0  0  0  0
   57.2239   31.9437   43.6554 H   0  0  0  0  0  0  0  0  0  0  0  0
   55.8383   29.8741   43.6614 H   0  0  0  0  0  0  0  0  0  0  0  0
  1  2  2  0
  2  3  1  0
  3  4  1  0
  4  5  1  0
  5  6  2  0
  6  7  1  0
  7  8  2  0
  8  9  1  0
  9 10  2  0
  2 11  1  0
 11 12  1  0
 12 13  2  0
 13 14  1  0
 14 15  2  0
 15 16  1  0
 16 17  1  0
 17 18  1  0
 18 19  1  0
 19 20  1  0
 20 21  1  0
 15 22  1  0
 22 23  2  0
 10  5  1  0
 23 12  1  0
 21 16  1  0
  4 24  1  0
  4 25  1  0
  6 26  1  0
  7 27  1  0
  8 28  1  0
  9 29  1  0
 10 30  1  0
 11 31  1  0
 13 32  1  0
 14 33  1  0
 17 34  1  0
 17 35  1  0
 18 36  1  0
 18 37  1  0
 19 38  1  0
 19 39  1  0
 20 40  1  0
 20 41  1  0
 21 42  1  0
 21 43  1  0
 22 44  1  0
 23 45  1  0
M  CHG  1   3  -1
M  END
>  <UniqueID>  (25) 
23

>  <SMILES>  (25) 
O=C([N-]Cc1ccccc1)Nc1ccc(N2CCCCC2)cc1

>  <Energy>  (25) 
52.17817421862743

>  <Genealogy>  (25) 
O=C([N-]Cc1ccccc1)Nc1ccc(N2CCCCC2)cc1 (protonated)
O=C([N-]Cc1ccccc1)Nc1ccc(N2CCCCC2)cc1 (3D coordinates assigned)
O=C([N-]Cc1ccccc1)Nc1ccc(N2CCCCC2)cc1 (nonaromatic ring conformer: 52.17817421862743 kcal/mol)

>  <smiles>  (25) 
O=C(NCc1ccccc1)Nc1ccc(N2CCCCC2)cc1

>  <score_type>  (25) 
oracle

>  <origin>  (25) 
adg

>  <m_score__min__energy>  (25) 
-9.8200000000000003

>  <m_primary>  (25) 
energy

$$$$
25:0
     RDKit          3D

 43 46  0  0  0  0  0  0  0  0999 V2000
   51.9720   28.8420   55.1690 O   0  0  0  0  0  0  0  0  0  0  0  0
   52.8170   29.1340   54.2830 C   0  0  0  0  0  0  0  0  0  0  0  0
   52.3510   29.4300   52.9590 N   0  0  0  0  0  0  0  0  0  0  0  0
   51.9320   30.5800   52.5050 C   0  0  0  0  0  0  0  0  0  0  0  0
   52.2740   31.0700   51.2280 C   0  0  0  0  0  0  0  0  0  0  0  0
   51.7970   32.3170   50.8180 C   0  0  0  0  0  0  0  0  0  0  0  0
   51.0170   33.0570   51.6480 N   0  0  0  0  0  0  0  0  0  0  0  0
   50.6840   32.6180   52.8890 C   0  0  0  0  0  0  0  0  0  0  0  0
   51.1400   31.3790   53.3420 C   0  0  0  0  0  0  0  0  0  0  0  0
   54.2640   29.0320   54.5810 C   0  0  0  0  0  0  0  0  0  0  0  0
   54.6240   28.5850   55.7030 O   0  0  0  0  0  0  0  0  0  0  0  0
   55.3030   29.4480   53.6190 C   0  0  0  0  0  0  0  0  0  0  0  0
   55.8410   30.7130   53.4610 C   0  0  0  0  0  0  0  0  0  0  0  0
   56.7310   30.5610   52.4120 C   0  0  0  0  0  0  0  0  0  0  0  0
   57.5960   31.5980   51.8070 C   0  0  0  0  0  0  0  0  0  0  0  0
   58.1600   31.3790   50.5390 C   0  0  0  0  0  0  0  0  0  0  0  0
   58.9800   32.3440   49.9500 C   0  0  0  0  0  0  0  0  0  0  0  0
   59.2670   33.5360   50.6200 C   0  0  0  0  0  0  0  0  0  0  0  0
   60.0920   34.4790   49.9880 O   0  0  0  0  0  0  0  0  0  0  0  0
   60.9500   34.2110   48.9110 C   0  0  0  0  0  0  0  0  0  0  0  0
   60.4160   34.1970   47.6150 C   0  0  0  0  0  0  0  0  0  0  0  0
   59.1010   34.4580   47.4190 F   0  0  0  0  0  0  0  0  0  0  0  0
   61.2390   33.9270   46.5160 C   0  0  0  0  0  0  0  0  0  0  0  0
   62.5960   33.6580   46.7060 C   0  0  0  0  0  0  0  0  0  0  0  0
   63.1320   33.6460   47.9960 C   0  0  0  0  0  0  0  0  0  0  0  0
   62.3160   33.9140   49.1000 C   0  0  0  0  0  0  0  0  0  0  0  0
   62.8480   33.8450   50.3460 F   0  0  0  0  0  0  0  0  0  0  0  0
   58.6880   33.7750   51.8810 C   0  0  0  0  0  0  0  0  0  0  0  0
   58.8840   34.9530   52.5230 F   0  0  0  0  0  0  0  0  0  0  0  0
   57.8660   32.8090   52.4700 C   0  0  0  0  0  0  0  0  0  0  0  0
   56.6920   29.3110   52.0110 O   0  0  0  0  0  0  0  0  0  0  0  0
   55.8420   28.6150   52.7100 N   0  0  0  0  0  0  0  0  0  0  0  0
   52.9123   30.4741   50.5590 H   0  0  0  0  0  0  0  0  0  0  0  0
   52.0538   32.7011   49.8197 H   0  0  0  0  0  0  0  0  0  0  0  0
   50.0527   33.2410   53.5396 H   0  0  0  0  0  0  0  0  0  0  0  0
   50.8790   31.0305   54.3522 H   0  0  0  0  0  0  0  0  0  0  0  0
   55.6147   31.6244   54.0339 H   0  0  0  0  0  0  0  0  0  0  0  0
   57.9540   30.4394   50.0055 H   0  0  0  0  0  0  0  0  0  0  0  0
   59.4032   32.1642   48.9507 H   0  0  0  0  0  0  0  0  0  0  0  0
   60.8162   33.9266   45.5005 H   0  0  0  0  0  0  0  0  0  0  0  0
   63.2430   33.4555   45.8398 H   0  0  0  0  0  0  0  0  0  0  0  0
   64.1994   33.4250   48.1441 H   0  0  0  0  0  0  0  0  0  0  0  0
   57.4266   32.9978   53.4606 H   0  0  0  0  0  0  0  0  0  0  0  0
  1  2  2  0
  2  3  1  0
  3  4  2  3
  4  5  1  0
  5  6  2  0
  6  7  1  0
  7  8  1  0
  8  9  2  0
  2 10  1  0
 10 11  2  0
 10 12  1  0
 12 13  1  0
 13 14  2  0
 14 15  1  0
 15 16  2  0
 16 17  1  0
 17 18  2  0
 18 19  1  0
 19 20  1  0
 20 21  2  0
 21 22  1  0
 21 23  1  0
 23 24  2  0
 24 25  1  0
 25 26  2  0
 26 27  1  0
 18 28  1  0
 28 29  1  0
 28 30  2  0
 14 31  1  0
 31 32  1  0
  9  4  1  0
 32 12  2  0
 30 15  1  0
 26 20  1  0
  5 33  1  0
  6 34  1  0
  8 35  1  0
  9 36  1  0
 13 37  1  0
 16 38  1  0
 17 39  1  0
 23 40  1  0
 24 41  1  0
 25 42  1  0
 30 43  1  0
M  CHG  1   7  -1
M  END
>  <UniqueID>  (26) 
24

>  <SMILES>  (26) 
O=C(N=c1cc[n-]cc1)C(=O)c1cc(-c2ccc(Oc3c(F)cccc3F)c(F)c2)on1

>  <Energy>  (26) 
99.33669612684152

>  <Genealogy>  (26) 
O=C(N=c1cc[n-]cc1)C(=O)c1cc(-c2ccc(Oc3c(F)cccc3F)c(F)c2)on1 (protonated)
O=C(N=c1cc[n-]cc1)C(=O)c1cc(-c2ccc(Oc3c(F)cccc3F)c(F)c2)on1 (3D coordinates assigned)
O=C(N=c1cc[n-]cc1)C(=O)c1cc(-c2ccc(Oc3c(F)cccc3F)c(F)c2)on1 (optimized conformer: 99.33669612684152 kcal/mol)

>  <smiles>  (26) 
O=C(N=c1cc[nH]cc1)C(=O)c1cc(-c2ccc(Oc3c(F)cccc3F)c(F)c2)on1

>  <score_type>  (26) 
oracle

>  <origin>  (26) 
adg

>  <m_score__min__energy>  (26) 
-11.130000000000001

>  <m_primary>  (26) 
energy

$$$$
26:0
     RDKit          3D

 34 35  0  0  0  0  0  0  0  0999 V2000
   60.1450   28.2340   48.8000 C   0  0  0  0  0  0  0  0  0  0  0  0
   60.3410   28.8800   47.6370 O   0  0  0  0  0  0  0  0  0  0  0  0
   60.2320   28.2290   46.4500 C   0  0  0  0  0  0  0  0  0  0  0  0
   58.8320   28.1090   46.0120 C   0  0  0  0  0  0  0  0  0  0  0  0
   57.9700   27.0970   46.4350 C   0  0  0  0  0  0  0  0  0  0  0  0
   56.6450   27.0940   46.0350 C   0  0  0  0  0  0  0  0  0  0  0  0
   55.8780   26.1740   46.4200 O   0  0  0  0  0  0  0  0  0  0  0  0
   56.1510   28.0590   45.2340 N   0  0  0  0  0  0  0  0  0  0  0  0
   56.9730   29.0250   44.8320 C   0  0  0  0  0  0  0  0  0  0  0  0
   56.4610   30.4430   43.8410 S   0  0  0  0  0  0  0  0  0  0  0  0
   57.7440   31.6860   43.9880 C   0  0  0  0  0  0  0  0  0  0  0  0
   57.7260   32.5170   45.2110 C   0  0  0  0  0  0  0  0  0  0  0  0
   56.6490   33.0500   45.6600 O   0  0  0  0  0  0  0  0  0  0  0  0
   59.0000   32.7060   45.8980 C   0  0  0  0  0  0  0  0  0  0  0  0
   59.6100   33.9600   45.8890 C   0  0  0  0  0  0  0  0  0  0  0  0
   60.8280   34.2100   46.4680 C   0  0  0  0  0  0  0  0  0  0  0  0
   61.4570   33.1500   47.0820 C   0  0  0  0  0  0  0  0  0  0  0  0
   63.1750   33.4720   47.8910 Br  0  0  0  0  0  0  0  0  0  0  0  0
   60.9150   31.8860   47.1320 C   0  0  0  0  0  0  0  0  0  0  0  0
   59.6850   31.6930   46.5330 C   0  0  0  0  0  0  0  0  0  0  0  0
   58.2880   29.0630   45.2020 N   0  0  0  0  0  0  0  0  0  0  0  0
   60.3520   28.9162   49.6377 H   0  0  0  0  0  0  0  0  0  0  0  0
   59.1019   27.8895   48.8568 H   0  0  0  0  0  0  0  0  0  0  0  0
   60.8208   27.3679   48.8568 H   0  0  0  0  0  0  0  0  0  0  0  0
   60.7961   28.7854   45.6870 H   0  0  0  0  0  0  0  0  0  0  0  0
   60.6344   27.2137   46.5818 H   0  0  0  0  0  0  0  0  0  0  0  0
   58.3454   26.2970   47.0900 H   0  0  0  0  0  0  0  0  0  0  0  0
   55.1570   28.0620   44.9150 H   0  0  0  0  0  0  0  0  0  0  0  0
   58.7145   31.1695   43.9501 H   0  0  0  0  0  0  0  0  0  0  0  0
   57.5641   32.3868   43.1594 H   0  0  0  0  0  0  0  0  0  0  0  0
   59.0878   34.7910   45.3923 H   0  0  0  0  0  0  0  0  0  0  0  0
   61.2818   35.2117   46.4430 H   0  0  0  0  0  0  0  0  0  0  0  0
   61.4420   31.0593   47.6308 H   0  0  0  0  0  0  0  0  0  0  0  0
   59.2343   30.6900   46.5643 H   0  0  0  0  0  0  0  0  0  0  0  0
  1  2  1  0
  2  3  1  0
  3  4  1  0
  4  5  2  0
  5  6  1  0
  6  7  2  0
  6  8  1  0
  8  9  1  0
  9 10  1  0
 10 11  1  0
 11 12  1  0
 12 13  2  0
 12 14  1  0
 14 15  2  0
 15 16  1  0
 16 17  2  0
 17 18  1  0
 17 19  1  0
 19 20  2  0
  9 21  2  0
 21  4  1  0
 20 14  1  0
  1 22  1  0
  1 23  1  0
  1 24  1  0
  3 25  1  0
  3 26  1  0
  5 27  1  0
  8 28  1  0
 11 29  1  0
 11 30  1  0
 15 31  1  0
 16 32  1  0
 19 33  1  0
 20 34  1  0
M  END
>  <smiles>  (27) 
COCc1cc(=O)[nH]c(SCC(=O)c2ccc(Br)cc2)n1

>  <score_type>  (27) 
oracle

>  <origin>  (27) 
adg

>  <m_score__min__energy>  (27) 
-7.9199999999999999

>  <m_primary>  (27) 
energy

$$$$
27:0
     RDKit          3D

 38 39  0  0  0  0  0  0  0  0999 V2000
   59.6960   30.1600   47.5800 C   0  0  0  0  0  0  0  0  0  0  0  0
   59.3090   28.7450   47.2480 C   0  0  0  0  0  0  0  0  0  0  0  0
   60.1100   27.6780   47.6860 C   0  0  0  0  0  0  0  0  0  0  0  0
   59.7710   26.3630   47.3660 C   0  0  0  0  0  0  0  0  0  0  0  0
   58.6150   26.0980   46.6330 C   0  0  0  0  0  0  0  0  0  0  0  0
   57.7920   27.1470   46.2040 C   0  0  0  0  0  0  0  0  0  0  0  0
   56.5400   26.8340   45.5900 N   0  0  0  0  0  0  0  0  0  0  0  0
   55.7140   25.3600   45.9860 S   0  0  0  0  0  0  0  0  0  0  0  0
   54.2380   25.5370   45.7690 O   0  0  0  0  0  0  0  0  0  0  0  0
   55.9450   25.0520   47.4390 O   0  0  0  0  0  0  0  0  0  0  0  0
   56.3120   24.0080   45.0030 C   0  0  0  0  0  0  0  0  0  0  0  0
   56.2300   24.0970   43.6040 C   0  0  0  0  0  0  0  0  0  0  0  0
   56.6460   23.0350   42.7980 C   0  0  0  0  0  0  0  0  0  0  0  0
   57.1510   21.8720   43.3800 C   0  0  0  0  0  0  0  0  0  0  0  0
   57.2460   21.7700   44.7690 C   0  0  0  0  0  0  0  0  0  0  0  0
   56.8340   22.8300   45.5890 C   0  0  0  0  0  0  0  0  0  0  0  0
   56.9480   22.6730   47.0190 C   0  0  0  0  0  0  0  0  0  0  0  0
   57.0390   22.5400   48.1650 N   0  0  0  0  0  0  0  0  0  0  0  0
   58.1680   28.4830   46.4610 C   0  0  0  0  0  0  0  0  0  0  0  0
   57.4110   29.5840   45.9420 N   0  0  0  0  0  0  0  0  0  0  0  0
   56.6440   29.5690   44.3880 S   0  0  0  0  0  0  0  0  0  0  0  0
   56.7330   31.2010   43.6890 C   0  0  0  0  0  0  0  0  0  0  0  0
   55.2050   29.1590   44.5260 O   0  0  0  0  0  0  0  0  0  0  0  0
   57.3550   28.6110   43.4740 O   0  0  0  0  0  0  0  0  0  0  0  0
   59.7300   30.2841   48.6724 H   0  0  0  0  0  0  0  0  0  0  0  0
   60.6869   30.3784   47.1552 H   0  0  0  0  0  0  0  0  0  0  0  0
   58.9542   30.8523   47.1552 H   0  0  0  0  0  0  0  0  0  0  0  0
   61.0102   27.8802   48.2850 H   0  0  0  0  0  0  0  0  0  0  0  0
   60.4165   25.5343   47.6924 H   0  0  0  0  0  0  0  0  0  0  0  0
   58.3477   25.0590   46.3902 H   0  0  0  0  0  0  0  0  0  0  0  0
   56.3380   27.2470   44.6520 H   0  0  0  0  0  0  0  0  0  0  0  0
   55.8344   25.0118   43.1385 H   0  0  0  0  0  0  0  0  0  0  0  0
   56.5754   23.1156   41.7032 H   0  0  0  0  0  0  0  0  0  0  0  0
   57.4745   21.0349   42.7440 H   0  0  0  0  0  0  0  0  0  0  0  0
   57.6468   20.8518   45.2232 H   0  0  0  0  0  0  0  0  0  0  0  0
   56.7736   31.9448   44.4984 H   0  0  0  0  0  0  0  0  0  0  0  0
   57.6371   31.2851   43.0680 H   0  0  0  0  0  0  0  0  0  0  0  0
   55.8434   31.3829   43.0680 H   0  0  0  0  0  0  0  0  0  0  0  0
  1  2  1  0
  2  3  2  0
  3  4  1  0
  4  5  2  0
  5  6  1  0
  6  7  1  0
  7  8  1  0
  8  9  2  0
  8 10  2  0
  8 11  1  0
 11 12  2  0
 12 13  1  0
 13 14  2  0
 14 15  1  0
 15 16  2  0
 16 17  1  0
 17 18  3  0
  6 19  2  0
 19 20  1  0
 20 21  1  0
 21 22  1  0
 21 23  2  0
 21 24  2  0
 19  2  1  0
 16 11  1  0
  1 25  1  0
  1 26  1  0
  1 27  1  0
  3 28  1  0
  4 29  1  0
  5 30  1  0
  7 31  1  0
 12 32  1  0
 13 33  1  0
 14 34  1  0
 15 35  1  0
 22 36  1  0
 22 37  1  0
 22 38  1  0
M  CHG  1  20  -1
M  END
>  <UniqueID>  (28) 
25

>  <SMILES>  (28) 
Cc1cccc(NS(=O)(=O)c2ccccc2C#N)c1[N-]S(C)(=O)=O

>  <Energy>  (28) 
47.84090201001574

>  <Genealogy>  (28) 
Cc1cccc(NS(=O)(=O)c2ccccc2C#N)c1[N-]S(C)(=O)=O (protonated)
Cc1cccc(NS(=O)(=O)c2ccccc2C#N)c1[N-]S(C)(=O)=O (3D coordinates assigned)
Cc1cccc(NS(=O)(=O)c2ccccc2C#N)c1[N-]S(C)(=O)=O (optimized conformer: 47.84090201001574 kcal/mol)

>  <smiles>  (28) 
Cc1cccc(NS(=O)(=O)c2ccccc2C#N)c1NS(C)(=O)=O

>  <score_type>  (28) 
oracle

>  <origin>  (28) 
adg

>  <m_score__min__energy>  (28) 
-11.390000000000001

>  <m_primary>  (28) 
energy

$$$$
28:0
     RDKit          3D

 47 49  0  0  0  0  0  0  0  0999 V2000
   59.7670   27.2010   46.6840 H   0  0  0  0  0  0  0  0  0  0  0  0
   58.7560   27.2730   46.6670 O   0  0  0  0  0  0  0  0  0  0  0  0
   58.1080   28.2880   45.9630 C   0  0  0  0  0  0  0  0  0  0  0  0
   56.7650   28.1400   45.5880 C   0  0  0  0  0  0  0  0  0  0  0  0
   56.2147   27.2297   45.8681 H   0  0  0  0  0  0  0  0  0  0  0  0
   56.1230   29.1460   44.8590 C   0  0  0  0  0  0  0  0  0  0  0  0
   54.7910   28.9950   44.4900 O   0  0  0  0  0  0  0  0  0  0  0  0
   56.8210   30.3020   44.4970 C   0  0  0  0  0  0  0  0  0  0  0  0
   56.3167   31.0896   43.9180 H   0  0  0  0  0  0  0  0  0  0  0  0
   58.1590   30.4580   44.8700 C   0  0  0  0  0  0  0  0  0  0  0  0
   58.7074   31.3662   44.5794 H   0  0  0  0  0  0  0  0  0  0  0  0
   58.8040   29.4590   45.6140 C   0  0  0  0  0  0  0  0  0  0  0  0
   60.2110   29.6380   46.0100 C   0  0  0  0  0  0  0  0  0  0  0  0
   61.0120   28.6800   45.8450 O   0  0  0  0  0  0  0  0  0  0  0  0
   60.7070   30.8920   46.6110 C   0  0  0  0  0  0  0  0  0  0  0  0
   60.8993   31.7508   45.9511 H   0  0  0  0  0  0  0  0  0  0  0  0
   60.9340   31.0310   47.9280 C   0  0  0  0  0  0  0  0  0  0  0  0
   61.9764   31.0138   48.2789 H   0  0  0  0  0  0  0  0  0  0  0  0
   59.8560   31.2070   48.9400 C   0  0  0  0  0  0  0  0  0  0  0  0
   59.2120   30.1050   49.5360 C   0  0  0  0  0  0  0  0  0  0  0  0
   59.4958   29.0832   49.2439 H   0  0  0  0  0  0  0  0  0  0  0  0
   58.2440   30.2950   50.4680 N   0  0  0  0  0  0  0  0  0  0  0  0
   57.8730   31.5420   50.8500 C   0  0  0  0  0  0  0  0  0  0  0  0
   56.8220   31.7240   51.9030 C   0  0  0  0  0  0  0  0  0  0  0  0
   56.1741   32.5661   51.6182 H   0  0  0  0  0  0  0  0  0  0  0  0
   57.3264   31.9209   52.8605 H   0  0  0  0  0  0  0  0  0  0  0  0
   55.9590   30.4660   52.0670 C   0  0  0  0  0  0  0  0  0  0  0  0
   56.0877   30.0801   53.0890 H   0  0  0  0  0  0  0  0  0  0  0  0
   56.2877   29.7334   51.3152 H   0  0  0  0  0  0  0  0  0  0  0  0
   54.4740   30.7430   51.8300 C   0  0  0  0  0  0  0  0  0  0  0  0
   53.9599   30.8389   52.7977 H   0  0  0  0  0  0  0  0  0  0  0  0
   54.3616   31.6776   51.2609 H   0  0  0  0  0  0  0  0  0  0  0  0
   54.0322   29.9118   51.2609 H   0  0  0  0  0  0  0  0  0  0  0  0
   58.4940   32.6230   50.3160 N   0  0  0  0  0  0  0  0  0  0  0  0
   59.4690   32.4930   49.3780 C   0  0  0  0  0  0  0  0  0  0  0  0
   60.2140   33.9990   48.7390 S   0  0  0  0  0  0  0  0  0  0  0  0
   59.1910   33.9940   47.2670 C   0  0  0  0  0  0  0  0  0  0  0  0
   59.6590   34.5720   46.0800 C   0  0  0  0  0  0  0  0  0  0  0  0
   60.6581   35.0312   46.0482 H   0  0  0  0  0  0  0  0  0  0  0  0
   58.8560   34.5650   44.9360 C   0  0  0  0  0  0  0  0  0  0  0  0
   59.2224   35.0216   44.0048 H   0  0  0  0  0  0  0  0  0  0  0  0
   57.5870   33.9780   44.9740 C   0  0  0  0  0  0  0  0  0  0  0  0
   56.9539   33.9782   44.0744 H   0  0  0  0  0  0  0  0  0  0  0  0
   57.1230   33.3910   46.1550 C   0  0  0  0  0  0  0  0  0  0  0  0
   56.1275   32.9239   46.1832 H   0  0  0  0  0  0  0  0  0  0  0  0
   57.9250   33.3980   47.3000 C   0  0  0  0  0  0  0  0  0  0  0  0
   57.5605   32.9343   48.2285 H   0  0  0  0  0  0  0  0  0  0  0  0
  1  2  1  0
  2  3  1  0
  3  4  2  0
  4  5  1  0
  4  6  1  0
  6  7  1  0
  6  8  2  0
  8  9  1  0
  8 10  1  0
 10 11  1  0
 10 12  2  0
 12 13  1  0
 13 14  2  0
 13 15  1  0
 15 16  1  0
 15 17  2  0
 17 18  1  0
 17 19  1  0
 19 20  2  0
 20 21  1  0
 20 22  1  0
 22 23  2  0
 23 24  1  0
 24 25  1  0
 24 26  1  0
 24 27  1  0
 27 28  1  0
 27 29  1  0
 27 30  1  0
 30 31  1  0
 30 32  1  0
 30 33  1  0
 23 34  1  0
 34 35  2  0
 35 36  1  0
 36 37  1  0
 37 38  2  0
 38 39  1  0
 38 40  1  0
 40 41  1  0
 40 42  2  0
 42 43  1  0
 42 44  1  0
 44 45  1  0
 44 46  2  0
 46 47  1  0
 12  3  1  0
 35 19  1  0
 46 37  1  0
M  CHG  1   7  -1
M  END
>  <UniqueID>  (29) 
26

>  <SMILES>  (29) 
CCCc1ncc(/C=C/C(=O)c2ccc([O-])cc2O)c(Sc2ccccc2)n1

>  <Energy>  (29) 
49.78135405728566

>  <Genealogy>  (29) 
CCCc1ncc(C=CC(=O)c2ccc([O-])cc2O)c(Sc2ccccc2)n1 (protonated)
CCCc1ncc(/C=C/C(=O)c2ccc([O-])cc2O)c(Sc2ccccc2)n1 (cis-trans isomerization)
CCCc1ncc(/C=C/C(=O)c2ccc([O-])cc2O)c(Sc2ccccc2)n1 (3D coordinates assigned)
CCCc1ncc(/C=C/C(=O)c2ccc([O-])cc2O)c(Sc2ccccc2)n1 (optimized conformer: 49.78135405728566 kcal/mol)

>  <smiles>  (29) 
CCCc1ncc(C=CC(=O)c2ccc(O)cc2O)c(Sc2ccccc2)n1

>  <score_type>  (29) 
oracle

>  <origin>  (29) 
adg

>  <m_score__min__energy>  (29) 
-11.42

>  <m_primary>  (29) 
energy

$$$$
29:0
     RDKit          3D

 38 40  0  0  0  0  0  0  0  0999 V2000
   53.3448   25.7281   45.2874 H   0  0  0  0  0  0  0  0  0  0  0  0
   54.3420   25.4050   45.6210 C   0  0  0  0  0  0  0  0  0  0  0  0
   55.2700   26.3300   45.9870 N   0  0  0  0  0  0  0  0  0  0  0  0
   56.5180   25.9750   46.4090 C   0  0  0  0  0  0  0  0  0  0  0  0
   57.3970   26.8700   46.7580 N   0  0  0  0  0  0  0  0  0  0  0  0
   57.4790   28.2280   46.2960 C   0  0  0  0  0  0  0  0  0  0  0  0
   58.0490   29.1150   46.9880 O   0  0  0  0  0  0  0  0  0  0  0  0
   56.8590   28.5730   45.0490 N   0  0  0  0  0  0  0  0  0  0  0  0
   56.1770   27.8910   44.6460 H   0  0  0  0  0  0  0  0  0  0  0  0
   57.0260   29.8380   44.3840 C   0  0  0  0  0  0  0  0  0  0  0  0
   56.8770   29.9070   42.9920 C   0  0  0  0  0  0  0  0  0  0  0  0
   56.6149   29.0016   42.4249 H   0  0  0  0  0  0  0  0  0  0  0  0
   57.0590   31.1170   42.3210 C   0  0  0  0  0  0  0  0  0  0  0  0
   56.9312   31.1636   41.2294 H   0  0  0  0  0  0  0  0  0  0  0  0
   57.4030   32.2690   43.0320 C   0  0  0  0  0  0  0  0  0  0  0  0
   57.5465   33.2192   42.4966 H   0  0  0  0  0  0  0  0  0  0  0  0
   57.5670   32.2220   44.4270 C   0  0  0  0  0  0  0  0  0  0  0  0
   57.9690   33.4300   45.1880 C   0  0  0  0  0  0  0  0  0  0  0  0
   57.4530   34.5400   44.8830 O   0  0  0  0  0  0  0  0  0  0  0  0
   58.9540   33.3800   46.2940 C   0  0  0  0  0  0  0  0  0  0  0  0
   60.2760   33.8280   46.1080 C   0  0  0  0  0  0  0  0  0  0  0  0
   60.5911   34.2092   45.1255 H   0  0  0  0  0  0  0  0  0  0  0  0
   61.1910   33.7910   47.1660 C   0  0  0  0  0  0  0  0  0  0  0  0
   62.2243   34.1344   47.0103 H   0  0  0  0  0  0  0  0  0  0  0  0
   60.7950   33.3190   48.4190 C   0  0  0  0  0  0  0  0  0  0  0  0
   61.5169   33.2872   49.2483 H   0  0  0  0  0  0  0  0  0  0  0  0
   59.4810   32.8870   48.6190 C   0  0  0  0  0  0  0  0  0  0  0  0
   59.1685   32.5188   49.6073 H   0  0  0  0  0  0  0  0  0  0  0  0
   58.5630   32.9220   47.5650 C   0  0  0  0  0  0  0  0  0  0  0  0
   57.5278   32.5890   47.7310 H   0  0  0  0  0  0  0  0  0  0  0  0
   57.3970   30.9950   45.0940 C   0  0  0  0  0  0  0  0  0  0  0  0
   57.5556   30.9395   46.1811 H   0  0  0  0  0  0  0  0  0  0  0  0
   56.8630   24.6180   46.4690 C   0  0  0  0  0  0  0  0  0  0  0  0
   57.8650   24.3153   46.8073 H   0  0  0  0  0  0  0  0  0  0  0  0
   55.9250   23.6530   46.0960 C   0  0  0  0  0  0  0  0  0  0  0  0
   56.1863   22.5854   46.1388 H   0  0  0  0  0  0  0  0  0  0  0  0
   54.6560   24.0450   45.6690 C   0  0  0  0  0  0  0  0  0  0  0  0
   53.9112   23.2914   45.3735 H   0  0  0  0  0  0  0  0  0  0  0  0
  1  2  1  0
  2  3  1  0
  3  4  1  0
  4  5  2  0
  5  6  1  0
  6  7  2  0
  6  8  1  0
  8  9  1  0
  8 10  1  0
 10 11  2  0
 11 12  1  0
 11 13  1  0
 13 14  1  0
 13 15  2  0
 15 16  1  0
 15 17  1  0
 17 18  1  0
 18 19  2  0
 18 20  1  0
 20 21  2  0
 21 22  1  0
 21 23  1  0
 23 24  1  0
 23 25  2  0
 25 26  1  0
 25 27  1  0
 27 28  1  0
 27 29  2  0
 29 30  1  0
 17 31  2  0
 31 32  1  0
  4 33  1  0
 33 34  1  0
 33 35  2  0
 35 36  1  0
 35 37  1  0
 37 38  1  0
 37  2  2  0
 31 10  1  0
 29 20  1  0
M  CHG  1   3  -1
M  END
>  <UniqueID>  (30) 
27

>  <SMILES>  (30) 
O=C(/N=c1/cccc[n-]1)Nc1cccc(C(=O)c2ccccc2)c1

>  <Energy>  (30) 
53.750443457137315

>  <Genealogy>  (30) 
O=C(N=c1cccc[n-]1)Nc1cccc(C(=O)c2ccccc2)c1 (protonated)
O=C(/N=c1/cccc[n-]1)Nc1cccc(C(=O)c2ccccc2)c1 (cis-trans isomerization)
O=C(/N=c1/cccc[n-]1)Nc1cccc(C(=O)c2ccccc2)c1 (3D coordinates assigned)
O=C(/N=c1/cccc[n-]1)Nc1cccc(C(=O)c2ccccc2)c1 (optimized conformer: 53.750443457137315 kcal/mol)

>  <smiles>  (30) 
O=C(N=c1cccc[nH]1)Nc1cccc(C(=O)c2ccccc2)c1

>  <score_type>  (30) 
oracle

>  <origin>  (30) 
adg

>  <m_score__min__energy>  (30) 
-10.73

>  <m_primary>  (30) 
energy

$$$$
30:0
     RDKit          3D

 35 37  0  0  0  0  0  0  0  0999 V2000
   53.6450   24.9240   45.5380 C   0  0  0  0  0  0  0  0  0  0  0  0
   54.6420   25.9540   45.7930 N   0  0  0  0  0  0  0  0  0  0  0  0
   55.9310   25.7190   46.3750 C   0  0  0  0  0  0  0  0  0  0  0  0
   56.1570   24.6030   46.9140 O   0  0  0  0  0  0  0  0  0  0  0  0
   57.0120   26.7240   46.3310 C   0  0  0  0  0  0  0  0  0  0  0  0
   56.9440   27.8150   45.4530 C   0  0  0  0  0  0  0  0  0  0  0  0
   57.9650   28.7700   45.4290 C   0  0  0  0  0  0  0  0  0  0  0  0
   59.0710   28.6530   46.2900 C   0  0  0  0  0  0  0  0  0  0  0  0
   60.1570   29.6640   46.2770 C   0  0  0  0  0  0  0  0  0  0  0  0
   61.1800   29.4660   45.5650 O   0  0  0  0  0  0  0  0  0  0  0  0
   60.0340   30.8870   47.0230 N   0  0  0  0  0  0  0  0  0  0  0  0
   61.1530   31.7100   47.3960 C   0  0  0  0  0  0  0  0  0  0  0  0
   61.4000   32.9560   46.7570 C   0  0  0  0  0  0  0  0  0  0  0  0
   62.5130   33.7370   47.1190 C   0  0  0  0  0  0  0  0  0  0  0  0
   63.3600   33.2430   48.1060 C   0  0  0  0  0  0  0  0  0  0  0  0
   63.1420   32.0490   48.7080 C   0  0  0  0  0  0  0  0  0  0  0  0
   62.0530   31.2450   48.3800 C   0  0  0  0  0  0  0  0  0  0  0  0
   64.1380   31.8110   49.6350 O   0  0  0  0  0  0  0  0  0  0  0  0
   65.0380   32.9270   49.6130 C   0  0  0  0  0  0  0  0  0  0  0  0
   64.5050   33.8180   48.6240 O   0  0  0  0  0  0  0  0  0  0  0  0
   59.1180   27.5770   47.1930 C   0  0  0  0  0  0  0  0  0  0  0  0
   58.0950   26.6240   47.2150 C   0  0  0  0  0  0  0  0  0  0  0  0
   53.2676   24.5341   46.4948 H   0  0  0  0  0  0  0  0  0  0  0  0
   52.8117   25.3545   44.9632 H   0  0  0  0  0  0  0  0  0  0  0  0
   54.1024   24.1052   44.9632 H   0  0  0  0  0  0  0  0  0  0  0  0
   56.0815   27.9204   44.7784 H   0  0  0  0  0  0  0  0  0  0  0  0
   57.9028   29.6187   44.7319 H   0  0  0  0  0  0  0  0  0  0  0  0
   59.0740   31.2570   47.2050 H   0  0  0  0  0  0  0  0  0  0  0  0
   60.7153   33.3123   45.9732 H   0  0  0  0  0  0  0  0  0  0  0  0
   62.7071   34.7067   46.6373 H   0  0  0  0  0  0  0  0  0  0  0  0
   61.8982   30.2744   48.8739 H   0  0  0  0  0  0  0  0  0  0  0  0
   65.0695   33.4171   50.5973 H   0  0  0  0  0  0  0  0  0  0  0  0
   66.0683   32.6207   49.3791 H   0  0  0  0  0  0  0  0  0  0  0  0
   59.9659   27.4839   47.8876 H   0  0  0  0  0  0  0  0  0  0  0  0
   58.1405   25.7901   47.9310 H   0  0  0  0  0  0  0  0  0  0  0  0
  1  2  1  0
  2  3  1  0
  3  4  2  0
  3  5  1  0
  5  6  2  0
  6  7  1  0
  7  8  2  0
  8  9  1  0
  9 10  2  0
  9 11  1  0
 11 12  1  0
 12 13  2  0
 13 14  1  0
 14 15  2  0
 15 16  1  0
 16 17  2  0
 16 18  1  0
 18 19  1  0
 19 20  1  0
  8 21  1  0
 21 22  2  0
 22  5  1  0
 17 12  1  0
 20 15  1  0
  1 23  1  0
  1 24  1  0
  1 25  1  0
  6 26  1  0
  7 27  1  0
 11 28  1  0
 13 29  1  0
 14 30  1  0
 17 31  1  0
 19 32  1  0
 19 33  1  0
 21 34  1  0
 22 35  1  0
M  CHG  1   2  -1
M  END
>  <UniqueID>  (31) 
28

>  <SMILES>  (31) 
C[N-]C(=O)c1ccc(C(=O)Nc2ccc3c(c2)OCO3)cc1

>  <Energy>  (31) 
74.02197723466197

>  <Genealogy>  (31) 
C[N-]C(=O)c1ccc(C(=O)Nc2ccc3c(c2)OCO3)cc1 (protonated)
C[N-]C(=O)c1ccc(C(=O)Nc2ccc3c(c2)OCO3)cc1 (3D coordinates assigned)
C[N-]C(=O)c1ccc(C(=O)Nc2ccc3c(c2)OCO3)cc1 (nonaromatic ring conformer: 74.02197723466197 kcal/mol)

>  <smiles>  (31) 
CNC(=O)c1ccc(C(=O)Nc2ccc3c(c2)OCO3)cc1

>  <score_type>  (31) 
oracle

>  <origin>  (31) 
adg

>  <m_score__min__energy>  (31) 
-8.0800000000000001

>  <m_primary>  (31) 
energy

$$$$
31:0
     RDKit          3D

 36 38  0  0  0  0  0  0  0  0999 V2000
   54.3820   29.0860   53.2690 C   0  0  0  0  0  0  0  0  0  0  0  0
   55.4950   29.7900   52.5690 C   0  0  0  0  0  0  0  0  0  0  0  0
   55.5860   31.1470   52.3470 C   0  0  0  0  0  0  0  0  0  0  0  0
   56.7990   31.2680   51.6930 C   0  0  0  0  0  0  0  0  0  0  0  0
   57.3440   32.3650   51.2630 N   0  0  0  0  0  0  0  0  0  0  0  0
   58.9410   32.4680   50.5930 S   0  0  0  0  0  0  0  0  0  0  0  0
   59.3850   33.9030   50.5450 O   0  0  0  0  0  0  0  0  0  0  0  0
   59.9030   31.6800   51.4400 O   0  0  0  0  0  0  0  0  0  0  0  0
   58.9170   31.8050   48.9640 C   0  0  0  0  0  0  0  0  0  0  0  0
   58.7220   32.6490   47.8620 C   0  0  0  0  0  0  0  0  0  0  0  0
   58.7160   32.1260   46.5670 C   0  0  0  0  0  0  0  0  0  0  0  0
   58.8870   30.7450   46.3590 C   0  0  0  0  0  0  0  0  0  0  0  0
   58.9150   30.1760   45.0390 N   0  0  0  0  0  0  0  0  0  0  0  0
   58.0020   29.4340   44.4770 C   0  0  0  0  0  0  0  0  0  0  0  0
   57.4130   28.2270   45.1030 C   0  0  0  0  0  0  0  0  0  0  0  0
   56.0250   28.0860   45.2760 C   0  0  0  0  0  0  0  0  0  0  0  0
   55.1500   29.0870   44.8730 O   0  0  0  0  0  0  0  0  0  0  0  0
   55.5270   26.9670   45.8640 N   0  0  0  0  0  0  0  0  0  0  0  0
   56.3480   25.9840   46.3100 C   0  0  0  0  0  0  0  0  0  0  0  0
   55.8620   24.9550   46.8480 O   0  0  0  0  0  0  0  0  0  0  0  0
   57.6930   26.1100   46.1820 N   0  0  0  0  0  0  0  0  0  0  0  0
   58.2420   27.2080   45.5990 C   0  0  0  0  0  0  0  0  0  0  0  0
   59.4960   27.2930   45.4990 O   0  0  0  0  0  0  0  0  0  0  0  0
   59.1230   29.9120   47.4600 C   0  0  0  0  0  0  0  0  0  0  0  0
   59.1310   30.4360   48.7560 C   0  0  0  0  0  0  0  0  0  0  0  0
   57.3760   30.0620   51.5480 N   0  0  0  0  0  0  0  0  0  0  0  0
   56.5650   29.1990   52.0880 O   0  0  0  0  0  0  0  0  0  0  0  0
   54.5197   29.1731   54.3569 H   0  0  0  0  0  0  0  0  0  0  0  0
   53.4226   29.5419   52.9832 H   0  0  0  0  0  0  0  0  0  0  0  0
   54.3828   28.0238   52.9832 H   0  0  0  0  0  0  0  0  0  0  0  0
   54.8718   31.9373   52.6215 H   0  0  0  0  0  0  0  0  0  0  0  0
   58.5731   33.7277   48.0178 H   0  0  0  0  0  0  0  0  0  0  0  0
   58.5770   32.7965   45.7061 H   0  0  0  0  0  0  0  0  0  0  0  0
   57.6471   29.7218   43.4764 H   0  0  0  0  0  0  0  0  0  0  0  0
   59.3033   28.8382   47.3038 H   0  0  0  0  0  0  0  0  0  0  0  0
   59.3058   29.7716   49.6151 H   0  0  0  0  0  0  0  0  0  0  0  0
  1  2  1  0
  2  3  2  0
  3  4  1  0
  4  5  2  3
  5  6  1  0
  6  7  2  0
  6  8  2  0
  6  9  1  0
  9 10  2  0
 10 11  1  0
 11 12  2  0
 12 13  1  0
 13 14  2  3
 14 15  1  0
 15 16  2  0
 16 17  1  0
 16 18  1  0
 18 19  1  0
 19 20  2  0
 19 21  1  0
 21 22  1  0
 22 23  2  0
 12 24  1  0
 24 25  2  0
  4 26  1  0
 26 27  1  0
 27  2  1  0
 25  9  1  0
 22 15  1  0
  1 28  1  0
  1 29  1  0
  1 30  1  0
  3 31  1  0
 10 32  1  0
 11 33  1  0
 14 34  1  0
 24 35  1  0
 25 36  1  0
M  CHG  4  17  -1  18  -1  21  -1  26  -1
M  END
>  <UniqueID>  (32) 
29

>  <SMILES>  (32) 
Cc1cc(=NS(=O)(=O)c2ccc(N=Cc3c([O-])[n-]c(=O)[n-]c3=O)cc2)[n-]o1

>  <Energy>  (32) 
87.39690147533078

>  <Genealogy>  (32) 
Cc1cc(=NS(=O)(=O)c2ccc(N=Cc3c([O-])[n-]c(=O)[n-]c3=O)cc2)[n-]o1 (protonated)
Cc1cc(=NS(=O)(=O)c2ccc(N=Cc3c([O-])[n-]c(=O)[n-]c3=O)cc2)[n-]o1 (3D coordinates assigned)
Cc1cc(=NS(=O)(=O)c2ccc(N=Cc3c([O-])[n-]c(=O)[n-]c3=O)cc2)[n-]o1 (optimized conformer: 87.39690147533078 kcal/mol)

>  <smiles>  (32) 
Cc1cc(=NS(=O)(=O)c2ccc(N=Cc3c(O)[nH]c(=O)[nH]c3=O)cc2)[nH]o1

>  <score_type>  (32) 
oracle

>  <origin>  (32) 
adg

>  <m_score__min__energy>  (32) 
-16.460000000000001

>  <m_primary>  (32) 
energy

$$$$
32:0
     RDKit          3D

 43 45  0  0  0  0  0  0  0  0999 V2000
   57.0350   31.2440   42.5140 C   0  0  0  0  0  0  0  0  0  0  0  0
   56.8010   31.0280   44.2650 S   0  0  0  0  0  0  0  0  0  0  0  0
   56.6310   32.3590   44.9420 O   0  0  0  0  0  0  0  0  0  0  0  0
   55.5610   30.2110   44.4880 O   0  0  0  0  0  0  0  0  0  0  0  0
   58.1540   30.1820   44.9430 N   0  0  0  0  0  0  0  0  0  0  0  0
   58.0950   29.0000   45.7560 C   0  0  0  0  0  0  0  0  0  0  0  0
   57.0260   28.0920   45.6570 C   0  0  0  0  0  0  0  0  0  0  0  0
   57.0350   26.8860   46.3780 C   0  0  0  0  0  0  0  0  0  0  0  0
   55.9190   25.9160   46.2550 C   0  0  0  0  0  0  0  0  0  0  0  0
   54.7620   26.3370   45.9910 O   0  0  0  0  0  0  0  0  0  0  0  0
   56.1200   24.5000   46.3720 N   0  0  0  0  0  0  0  0  0  0  0  0
   56.4390   23.5970   45.3020 C   0  0  0  0  0  0  0  0  0  0  0  0
   55.7940   23.7510   44.0690 C   0  0  0  0  0  0  0  0  0  0  0  0
   56.0870   22.8900   43.0060 C   0  0  0  0  0  0  0  0  0  0  0  0
   57.0170   21.8610   43.1750 C   0  0  0  0  0  0  0  0  0  0  0  0
   57.6470   21.6840   44.4090 C   0  0  0  0  0  0  0  0  0  0  0  0
   57.3560   22.5430   45.4740 C   0  0  0  0  0  0  0  0  0  0  0  0
   58.1120   26.6130   47.2340 C   0  0  0  0  0  0  0  0  0  0  0  0
   59.1660   27.5200   47.3570 C   0  0  0  0  0  0  0  0  0  0  0  0
   59.1570   28.7190   46.6400 C   0  0  0  0  0  0  0  0  0  0  0  0
   60.2370   29.5990   46.8010 O   0  0  0  0  0  0  0  0  0  0  0  0
   60.1250   30.9560   47.1460 C   0  0  0  0  0  0  0  0  0  0  0  0
   58.9060   31.5200   47.5730 C   0  0  0  0  0  0  0  0  0  0  0  0
   58.8380   32.8750   47.9070 C   0  0  0  0  0  0  0  0  0  0  0  0
   59.9830   33.6740   47.8310 C   0  0  0  0  0  0  0  0  0  0  0  0
   61.1980   33.1160   47.4260 C   0  0  0  0  0  0  0  0  0  0  0  0
   61.2690   31.7610   47.0900 C   0  0  0  0  0  0  0  0  0  0  0  0
   57.8330   31.9806   42.3388 H   0  0  0  0  0  0  0  0  0  0  0  0
   57.3175   30.2825   42.0605 H   0  0  0  0  0  0  0  0  0  0  0  0
   56.0991   31.6024   42.0605 H   0  0  0  0  0  0  0  0  0  0  0  0
   56.1712   28.3289   45.0064 H   0  0  0  0  0  0  0  0  0  0  0  0
   55.0531   24.5530   43.9354 H   0  0  0  0  0  0  0  0  0  0  0  0
   55.5849   23.0232   42.0364 H   0  0  0  0  0  0  0  0  0  0  0  0
   57.2531   21.1900   42.3359 H   0  0  0  0  0  0  0  0  0  0  0  0
   58.3727   20.8683   44.5435 H   0  0  0  0  0  0  0  0  0  0  0  0
   57.8449   22.3945   46.4481 H   0  0  0  0  0  0  0  0  0  0  0  0
   58.1262   25.6775   47.8125 H   0  0  0  0  0  0  0  0  0  0  0  0
   60.0100   27.2889   48.0235 H   0  0  0  0  0  0  0  0  0  0  0  0
   58.0058   30.8918   47.6435 H   0  0  0  0  0  0  0  0  0  0  0  0
   57.8825   33.3138   48.2302 H   0  0  0  0  0  0  0  0  0  0  0  0
   59.9271   34.7416   48.0900 H   0  0  0  0  0  0  0  0  0  0  0  0
   62.0998   33.7436   47.3714 H   0  0  0  0  0  0  0  0  0  0  0  0
   62.2298   31.3245   46.7796 H   0  0  0  0  0  0  0  0  0  0  0  0
  1  2  1  0
  2  3  2  0
  2  4  2  0
  2  5  1  0
  5  6  1  0
  6  7  2  0
  7  8  1  0
  8  9  1  0
  9 10  2  0
  9 11  1  0
 11 12  1  0
 12 13  2  0
 13 14  1  0
 14 15  2  0
 15 16  1  0
 16 17  2  0
  8 18  2  0
 18 19  1  0
 19 20  2  0
 20 21  1  0
 21 22  1  0
 22 23  2  0
 23 24  1  0
 24 25  2  0
 25 26  1  0
 26 27  2  0
 20  6  1  0
 27 22  1  0
 17 12  1  0
  1 28  1  0
  1 29  1  0
  1 30  1  0
  7 31  1  0
 13 32  1  0
 14 33  1  0
 15 34  1  0
 16 35  1  0
 17 36  1  0
 18 37  1  0
 19 38  1  0
 23 39  1  0
 24 40  1  0
 25 41  1  0
 26 42  1  0
 27 43  1  0
M  CHG  2   5  -1  11  -1
M  END
>  <UniqueID>  (33) 
30

>  <SMILES>  (33) 
CS(=O)(=O)[N-]c1cc(C(=O)[N-]c2ccccc2)ccc1Oc1ccccc1

>  <Energy>  (33) 
57.715950968996395

>  <Genealogy>  (33) 
CS(=O)(=O)[N-]c1cc(C(=O)[N-]c2ccccc2)ccc1Oc1ccccc1 (protonated)
CS(=O)(=O)[N-]c1cc(C(=O)[N-]c2ccccc2)ccc1Oc1ccccc1 (3D coordinates assigned)
CS(=O)(=O)[N-]c1cc(C(=O)[N-]c2ccccc2)ccc1Oc1ccccc1 (optimized conformer: 57.715950968996395 kcal/mol)

>  <smiles>  (33) 
CS(=O)(=O)Nc1cc(C(=O)Nc2ccccc2)ccc1Oc1ccccc1

>  <score_type>  (33) 
oracle

>  <origin>  (33) 
adg

>  <m_score__min__energy>  (33) 
-11.59

>  <m_primary>  (33) 
energy

$$$$
33:0
     RDKit          3D

 37 39  0  0  0  0  0  0  0  0999 V2000
   56.1670   30.4370   44.6400 O   0  0  0  0  0  0  0  0  0  0  0  0
   57.1550   30.0640   43.9700 C   0  0  0  0  0  0  0  0  0  0  0  0
   57.4470   28.5900   43.9580 C   0  0  0  0  0  0  0  0  0  0  0  0
   57.0170   28.0340   45.2880 C   0  0  0  0  0  0  0  0  0  0  0  0
   58.0070   28.2930   46.3490 C   0  0  0  0  0  0  0  0  0  0  0  0
   58.6460   27.2900   46.9800 N   0  0  0  0  0  0  0  0  0  0  0  0
   59.5600   27.5380   47.9600 C   0  0  0  0  0  0  0  0  0  0  0  0
   60.1550   26.5840   48.5460 O   0  0  0  0  0  0  0  0  0  0  0  0
   59.8370   28.8500   48.3160 C   0  0  0  0  0  0  0  0  0  0  0  0
   60.7550   29.1270   49.3040 C   0  0  0  0  0  0  0  0  0  0  0  0
   60.9870   30.4530   49.6130 C   0  0  0  0  0  0  0  0  0  0  0  0
   60.3140   31.4430   48.9450 C   0  0  0  0  0  0  0  0  0  0  0  0
   59.3860   31.1800   47.9480 C   0  0  0  0  0  0  0  0  0  0  0  0
   59.1580   29.8530   47.6440 C   0  0  0  0  0  0  0  0  0  0  0  0
   58.2570   29.5870   46.6760 N   0  0  0  0  0  0  0  0  0  0  0  0
   57.9760   30.9650   43.2490 N   0  0  0  0  0  0  0  0  0  0  0  0
   57.7740   32.3960   43.2030 C   0  0  0  0  0  0  0  0  0  0  0  0
   57.8830   32.9800   44.5620 C   0  0  0  0  0  0  0  0  0  0  0  0
   58.5450   34.0700   45.0290 C   0  0  0  0  0  0  0  0  0  0  0  0
   58.3170   34.1680   46.3710 C   0  0  0  0  0  0  0  0  0  0  0  0
   57.4970   33.1030   46.6930 C   0  0  0  0  0  0  0  0  0  0  0  0
   57.2640   32.4260   45.6030 O   0  0  0  0  0  0  0  0  0  0  0  0
   56.8854   28.1023   43.1476 H   0  0  0  0  0  0  0  0  0  0  0  0
   58.5188   28.4083   43.7899 H   0  0  0  0  0  0  0  0  0  0  0  0
   56.0621   28.4993   45.5739 H   0  0  0  0  0  0  0  0  0  0  0  0
   56.9164   26.9439   45.1804 H   0  0  0  0  0  0  0  0  0  0  0  0
   61.2858   28.3195   49.8295 H   0  0  0  0  0  0  0  0  0  0  0  0
   61.7131   30.7152   50.3966 H   0  0  0  0  0  0  0  0  0  0  0  0
   60.5186   32.4906   49.2109 H   0  0  0  0  0  0  0  0  0  0  0  0
   58.8571   31.9902   47.4247 H   0  0  0  0  0  0  0  0  0  0  0  0
   57.7620   30.3720   46.1880 H   0  0  0  0  0  0  0  0  0  0  0  0
   58.7840   30.5200   42.7200 H   0  0  0  0  0  0  0  0  0  0  0  0
   58.5368   32.8485   42.5523 H   0  0  0  0  0  0  0  0  0  0  0  0
   56.7682   32.6007   42.8075 H   0  0  0  0  0  0  0  0  0  0  0  0
   59.1598   34.7565   44.4283 H   0  0  0  0  0  0  0  0  0  0  0  0
   58.7058   34.9364   47.0554 H   0  0  0  0  0  0  0  0  0  0  0  0
   57.1084   32.8674   47.6947 H   0  0  0  0  0  0  0  0  0  0  0  0
  1  2  2  0
  2  3  1  0
  3  4  1  0
  4  5  1  0
  5  6  2  0
  6  7  1  0
  7  8  2  0
  7  9  1  0
  9 10  2  0
 10 11  1  0
 11 12  2  0
 12 13  1  0
 13 14  2  0
 14 15  1  0
  2 16  1  0
 16 17  1  0
 17 18  1  0
 18 19  2  0
 19 20  1  0
 20 21  2  0
 21 22  1  0
 15  5  1  0
 22 18  1  0
 14  9  1  0
  3 23  1  0
  3 24  1  0
  4 25  1  0
  4 26  1  0
 10 27  1  0
 11 28  1  0
 12 29  1  0
 13 30  1  0
 15 31  1  0
 16 32  1  0
 17 33  1  0
 17 34  1  0
 19 35  1  0
 20 36  1  0
 21 37  1  0
M  END
>  <smiles>  (34) 
O=C(CCc1nc(=O)c2ccccc2[nH]1)NCc1ccco1

>  <score_type>  (34) 
oracle

>  <origin>  (34) 
adg

>  <m_score__min__energy>  (34) 
-7.4400000000000004

>  <m_primary>  (34) 
energy

$$$$
34:0
     RDKit          3D

 32 33  0  0  0  0  0  0  0  0999 V2000
   58.1130   21.4780   43.7370 C   0  0  0  0  0  0  0  0  0  0  0  0
   56.6860   21.9270   43.6360 C   0  0  0  0  0  0  0  0  0  0  0  0
   55.9790   21.5020   42.6860 O   0  0  0  0  0  0  0  0  0  0  0  0
   56.0900   22.7930   44.6110 N   0  0  0  0  0  0  0  0  0  0  0  0
   56.4230   24.1670   44.8550 C   0  0  0  0  0  0  0  0  0  0  0  0
   57.4530   24.8130   44.1540 C   0  0  0  0  0  0  0  0  0  0  0  0
   57.7310   26.1620   44.3950 C   0  0  0  0  0  0  0  0  0  0  0  0
   56.9740   26.8890   45.3220 C   0  0  0  0  0  0  0  0  0  0  0  0
   57.2900   28.2720   45.5310 N   0  0  0  0  0  0  0  0  0  0  0  0
   56.6800   29.5910   44.5850 S   0  0  0  0  0  0  0  0  0  0  0  0
   56.8650   29.2750   43.1280 O   0  0  0  0  0  0  0  0  0  0  0  0
   55.2140   29.7620   44.8680 O   0  0  0  0  0  0  0  0  0  0  0  0
   57.5190   31.0800   45.0100 C   0  0  0  0  0  0  0  0  0  0  0  0
   57.4200   32.2030   44.1760 C   0  0  0  0  0  0  0  0  0  0  0  0
   58.0760   33.3900   44.5160 C   0  0  0  0  0  0  0  0  0  0  0  0
   58.8370   33.4590   45.6880 C   0  0  0  0  0  0  0  0  0  0  0  0
   59.6590   34.9490   46.1140 Cl  0  0  0  0  0  0  0  0  0  0  0  0
   58.9430   32.3390   46.5190 C   0  0  0  0  0  0  0  0  0  0  0  0
   58.2860   31.1510   46.1810 C   0  0  0  0  0  0  0  0  0  0  0  0
   55.9250   26.2480   46.0060 C   0  0  0  0  0  0  0  0  0  0  0  0
   55.6480   24.8990   45.7630 C   0  0  0  0  0  0  0  0  0  0  0  0
   58.3953   21.3892   44.7964 H   0  0  0  0  0  0  0  0  0  0  0  0
   58.2257   20.5010   43.2443 H   0  0  0  0  0  0  0  0  0  0  0  0
   58.7649   22.2145   43.2443 H   0  0  0  0  0  0  0  0  0  0  0  0
   58.0439   24.2559   43.4121 H   0  0  0  0  0  0  0  0  0  0  0  0
   58.5505   26.6559   43.8523 H   0  0  0  0  0  0  0  0  0  0  0  0
   56.8250   32.1499   43.2523 H   0  0  0  0  0  0  0  0  0  0  0  0
   57.9937   34.2703   43.8615 H   0  0  0  0  0  0  0  0  0  0  0  0
   59.5435   32.3923   47.4391 H   0  0  0  0  0  0  0  0  0  0  0  0
   58.3715   30.2710   46.8354 H   0  0  0  0  0  0  0  0  0  0  0  0
   55.3210   26.8095   46.7340 H   0  0  0  0  0  0  0  0  0  0  0  0
   54.8152   24.4093   46.2890 H   0  0  0  0  0  0  0  0  0  0  0  0
  1  2  1  0
  2  3  2  0
  2  4  1  0
  4  5  1  0
  5  6  2  0
  6  7  1  0
  7  8  2  0
  8  9  1  0
  9 10  1  0
 10 11  2  0
 10 12  2  0
 10 13  1  0
 13 14  2  0
 14 15  1  0
 15 16  2  0
 16 17  1  0
 16 18  1  0
 18 19  2  0
  8 20  1  0
 20 21  2  0
 21  5  1  0
 19 13  1  0
  1 22  1  0
  1 23  1  0
  1 24  1  0
  6 25  1  0
  7 26  1  0
 14 27  1  0
 15 28  1  0
 18 29  1  0
 19 30  1  0
 20 31  1  0
 21 32  1  0
M  CHG  2   4  -1   9  -1
M  END
>  <UniqueID>  (35) 
31

>  <SMILES>  (35) 
CC(=O)[N-]c1ccc([N-]S(=O)(=O)c2ccc(Cl)cc2)cc1

>  <Energy>  (35) 
38.72692904995333

>  <Genealogy>  (35) 
CC(=O)[N-]c1ccc([N-]S(=O)(=O)c2ccc(Cl)cc2)cc1 (protonated)
CC(=O)[N-]c1ccc([N-]S(=O)(=O)c2ccc(Cl)cc2)cc1 (3D coordinates assigned)
CC(=O)[N-]c1ccc([N-]S(=O)(=O)c2ccc(Cl)cc2)cc1 (optimized conformer: 38.72692904995333 kcal/mol)

>  <smiles>  (35) 
CC(=O)Nc1ccc(NS(=O)(=O)c2ccc(Cl)cc2)cc1

>  <score_type>  (35) 
oracle

>  <origin>  (35) 
adg

>  <m_score__min__energy>  (35) 
-10.890000000000001

>  <m_primary>  (35) 
energy

$$$$
35:0
     RDKit          3D

 66 69  0  0  0  0  0  0  0  0999 V2000
   56.8270   22.6510   46.6740 C   0  0  0  0  0  0  0  0  0  0  0  0
   57.2120   24.0070   46.2660 N   0  0  0  0  0  0  0  0  0  0  0  0
   58.5230   24.2940   46.0150 C   0  0  0  0  0  0  0  0  0  0  0  0
   58.9130   25.5740   45.6190 C   0  0  0  0  0  0  0  0  0  0  0  0
   57.9530   26.5860   45.4830 C   0  0  0  0  0  0  0  0  0  0  0  0
   58.3350   27.9530   45.0480 C   0  0  0  0  0  0  0  0  0  0  0  0
   59.5110   28.3610   45.2540 O   0  0  0  0  0  0  0  0  0  0  0  0
   57.3970   28.8000   44.3600 N   0  0  0  0  0  0  0  0  0  0  0  0
   57.5250   30.2290   44.2720 C   0  0  0  0  0  0  0  0  0  0  0  0
   57.4610   30.8510   43.0160 C   0  0  0  0  0  0  0  0  0  0  0  0
   57.5830   32.2380   42.9050 C   0  0  0  0  0  0  0  0  0  0  0  0
   57.7620   33.0200   44.0490 C   0  0  0  0  0  0  0  0  0  0  0  0
   57.8000   32.4190   45.3160 C   0  0  0  0  0  0  0  0  0  0  0  0
   58.0180   33.2620   46.5460 C   0  0  0  0  0  0  0  0  0  0  0  0
   58.9590   34.3680   46.2630 N   0  0  0  0  0  0  0  0  0  0  0  0
   60.1680   33.9470   45.5150 C   0  0  0  0  0  0  0  0  0  0  0  0
   61.1530   33.1380   46.3770 C   0  0  0  0  0  0  0  0  0  0  0  0
   61.5260   33.9120   47.6480 C   0  0  0  0  0  0  0  0  0  0  0  0
   62.4240   33.0760   48.5190 C   0  0  0  0  0  0  0  0  0  0  0  0
   63.6380   32.9370   48.2110 O   0  0  0  0  0  0  0  0  0  0  0  0
   61.8900   32.4030   49.6640 N   0  0  0  0  0  0  0  0  0  0  0  0
   61.4000   31.0270   49.6440 C   0  0  0  0  0  0  0  0  0  0  0  0
   59.9750   30.9810   50.2450 C   0  0  0  0  0  0  0  0  0  0  0  0
   58.8960   31.1190   49.1670 C   0  0  0  0  0  0  0  0  0  0  0  0
   58.9690   29.9660   48.1440 C   0  0  0  0  0  0  0  0  0  0  0  0
   60.3930   29.4010   47.9560 C   0  0  0  0  0  0  0  0  0  0  0  0
   61.4610   30.4720   48.1980 C   0  0  0  0  0  0  0  0  0  0  0  0
   60.2620   34.3450   48.4060 C   0  0  0  0  0  0  0  0  0  0  0  0
   59.3180   35.1290   47.4810 C   0  0  0  0  0  0  0  0  0  0  0  0
   57.6730   31.0240   45.4230 C   0  0  0  0  0  0  0  0  0  0  0  0
   56.6100   26.2760   45.7450 C   0  0  0  0  0  0  0  0  0  0  0  0
   56.2530   24.9820   46.1390 C   0  0  0  0  0  0  0  0  0  0  0  0
   55.0410   24.7250   46.3710 O   0  0  0  0  0  0  0  0  0  0  0  0
   56.8096   22.5896   47.7721 H   0  0  0  0  0  0  0  0  0  0  0  0
   55.8274   22.4188   46.2778 H   0  0  0  0  0  0  0  0  0  0  0  0
   57.5554   21.9282   46.2778 H   0  0  0  0  0  0  0  0  0  0  0  0
   59.2820   23.5057   46.1264 H   0  0  0  0  0  0  0  0  0  0  0  0
   59.9722   25.7884   45.4139 H   0  0  0  0  0  0  0  0  0  0  0  0
   56.6230   28.3480   43.8210 H   0  0  0  0  0  0  0  0  0  0  0  0
   57.3136   30.2418   42.1120 H   0  0  0  0  0  0  0  0  0  0  0  0
   57.5381   32.7156   41.9151 H   0  0  0  0  0  0  0  0  0  0  0  0
   57.8735   34.1104   43.9558 H   0  0  0  0  0  0  0  0  0  0  0  0
   57.0547   33.6820   46.8711 H   0  0  0  0  0  0  0  0  0  0  0  0
   58.4452   32.6285   47.3373 H   0  0  0  0  0  0  0  0  0  0  0  0
   59.8551   33.3258   44.6628 H   0  0  0  0  0  0  0  0  0  0  0  0
   60.6880   34.8592   45.1871 H   0  0  0  0  0  0  0  0  0  0  0  0
   60.6851   32.1836   46.6600 H   0  0  0  0  0  0  0  0  0  0  0  0
   62.0673   32.9572   45.7927 H   0  0  0  0  0  0  0  0  0  0  0  0
   62.0745   34.8219   47.3629 H   0  0  0  0  0  0  0  0  0  0  0  0
   62.0379   30.3798   50.2638 H   0  0  0  0  0  0  0  0  0  0  0  0
   59.8386   30.0207   50.7638 H   0  0  0  0  0  0  0  0  0  0  0  0
   59.8712   31.8261   50.9414 H   0  0  0  0  0  0  0  0  0  0  0  0
   57.9067   31.1083   49.6478 H   0  0  0  0  0  0  0  0  0  0  0  0
   59.0609   32.0661   48.6324 H   0  0  0  0  0  0  0  0  0  0  0  0
   58.3140   29.1523   48.4887 H   0  0  0  0  0  0  0  0  0  0  0  0
   58.6511   30.3735   47.1730 H   0  0  0  0  0  0  0  0  0  0  0  0
   60.5467   28.5764   48.6676 H   0  0  0  0  0  0  0  0  0  0  0  0
   60.4888   29.0477   46.9187 H   0  0  0  0  0  0  0  0  0  0  0  0
   62.4538   30.0302   48.0275 H   0  0  0  0  0  0  0  0  0  0  0  0
   61.2750   31.3044   47.5034 H   0  0  0  0  0  0  0  0  0  0  0  0
   59.7412   33.4514   48.7805 H   0  0  0  0  0  0  0  0  0  0  0  0
   60.5562   34.9936   49.2443 H   0  0  0  0  0  0  0  0  0  0  0  0
   58.3970   35.3648   48.0343 H   0  0  0  0  0  0  0  0  0  0  0  0
   59.8427   36.0420   47.1629 H   0  0  0  0  0  0  0  0  0  0  0  0
   57.6894   30.5494   46.4152 H   0  0  0  0  0  0  0  0  0  0  0  0
   55.8368   27.0514   45.6405 H   0  0  0  0  0  0  0  0  0  0  0  0
  1  2  1  0
  2  3  1  0
  3  4  2  0
  4  5  1  0
  5  6  1  0
  6  7  2  0
  6  8  1  0
  8  9  1  0
  9 10  2  0
 10 11  1  0
 11 12  2  0
 12 13  1  0
 13 14  1  0
 14 15  1  0
 15 16  1  0
 16 17  1  0
 17 18  1  0
 18 19  1  0
 19 20  2  0
 19 21  1  0
 21 22  1  0
 22 23  1  0
 23 24  1  0
 24 25  1  0
 25 26  1  0
 26 27  1  0
 18 28  1  0
 28 29  1  0
 13 30  2  0
  5 31  2  0
 31 32  1  0
 32 33  2  0
 32  2  1  0
 30  9  1  0
 29 15  1  0
 27 22  1  0
  1 34  1  0
  1 35  1  0
  1 36  1  0
  3 37  1  0
  4 38  1  0
  8 39  1  0
 10 40  1  0
 11 41  1  0
 12 42  1  0
 14 43  1  0
 14 44  1  0
 16 45  1  0
 16 46  1  0
 17 47  1  0
 17 48  1  0
 18 49  1  0
 22 50  1  0
 23 51  1  0
 23 52  1  0
 24 53  1  0
 24 54  1  0
 25 55  1  0
 25 56  1  0
 26 57  1  0
 26 58  1  0
 27 59  1  0
 27 60  1  0
 28 61  1  0
 28 62  1  0
 29 63  1  0
 29 64  1  0
 30 65  1  0
 31 66  1  0
M  CHG  1  21  -1
M  END
>  <UniqueID>  (36) 
32

>  <SMILES>  (36) 
Cn1ccc(C(=O)Nc2cccc(CN3CCC(C(=O)[N-]C4CCCCC4)CC3)c2)cc1=O

>  <Energy>  (36) 
74.05241969103974

>  <Genealogy>  (36) 
Cn1ccc(C(=O)Nc2cccc(CN3CCC(C(=O)[N-]C4CCCCC4)CC3)c2)cc1=O (protonated)
Cn1ccc(C(=O)Nc2cccc(CN3CCC(C(=O)[N-]C4CCCCC4)CC3)c2)cc1=O (3D coordinates assigned)
Cn1ccc(C(=O)Nc2cccc(CN3CCC(C(=O)[N-]C4CCCCC4)CC3)c2)cc1=O (nonaromatic ring conformer: 74.05241969103974 kcal/mol)

>  <smiles>  (36) 
Cn1ccc(C(=O)Nc2cccc(CN3CCC(C(=O)NC4CCCCC4)CC3)c2)cc1=O

>  <score_type>  (36) 
oracle

>  <origin>  (36) 
adg

>  <m_score__min__energy>  (36) 
-11.460000000000001

>  <m_primary>  (36) 
energy

$$$$
36:0
     RDKit          3D

 27 28  0  0  0  0  0  0  0  0999 V2000
   60.1650   29.1910   44.6550 N   0  0  0  0  0  0  0  0  0  0  0  0
   58.7750   28.8920   44.8630 C   0  0  0  0  0  0  0  0  0  0  0  0
   58.4470   27.6670   45.4520 C   0  0  0  0  0  0  0  0  0  0  0  0
   57.1120   27.3500   45.6570 C   0  0  0  0  0  0  0  0  0  0  0  0
   56.8000   26.2490   46.1870 O   0  0  0  0  0  0  0  0  0  0  0  0
   56.1460   28.2250   45.2860 N   0  0  0  0  0  0  0  0  0  0  0  0
   56.4590   29.4190   44.7130 C   0  0  0  0  0  0  0  0  0  0  0  0
   55.5210   30.1940   44.3770 O   0  0  0  0  0  0  0  0  0  0  0  0
   57.7740   29.7700   44.5000 N   0  0  0  0  0  0  0  0  0  0  0  0
   58.0940   31.0700   43.8690 C   0  0  0  0  0  0  0  0  0  0  0  0
   58.2060   32.1690   44.8990 C   0  0  0  0  0  0  0  0  0  0  0  0
   58.1170   31.8740   46.2710 C   0  0  0  0  0  0  0  0  0  0  0  0
   58.2470   32.8920   47.2210 C   0  0  0  0  0  0  0  0  0  0  0  0
   58.4790   34.2080   46.8120 C   0  0  0  0  0  0  0  0  0  0  0  0
   58.5890   34.5070   45.4520 C   0  0  0  0  0  0  0  0  0  0  0  0
   58.4600   33.4930   44.4980 C   0  0  0  0  0  0  0  0  0  0  0  0
   60.6660   29.9580   45.1490 H   0  0  0  0  0  0  0  0  0  0  0  0
   60.7270   28.6320   43.9740 H   0  0  0  0  0  0  0  0  0  0  0  0
   59.2381   26.9629   45.7493 H   0  0  0  0  0  0  0  0  0  0  0  0
   55.1420   27.9770   45.4410 H   0  0  0  0  0  0  0  0  0  0  0  0
   59.0509   30.9822   43.3336 H   0  0  0  0  0  0  0  0  0  0  0  0
   57.2808   31.3276   43.1745 H   0  0  0  0  0  0  0  0  0  0  0  0
   57.9444   30.8381   46.5984 H   0  0  0  0  0  0  0  0  0  0  0  0
   58.1665   32.6564   48.2924 H   0  0  0  0  0  0  0  0  0  0  0  0
   58.5749   35.0081   47.5608 H   0  0  0  0  0  0  0  0  0  0  0  0
   58.7775   35.5421   45.1309 H   0  0  0  0  0  0  0  0  0  0  0  0
   58.5576   33.7319   43.4287 H   0  0  0  0  0  0  0  0  0  0  0  0
  1  2  1  0
  2  3  2  0
  3  4  1  0
  4  5  2  0
  4  6  1  0
  6  7  1  0
  7  8  2  0
  7  9  1  0
  9 10  1  0
 10 11  1  0
 11 12  2  0
 12 13  1  0
 13 14  2  0
 14 15  1  0
 15 16  2  0
  9  2  1  0
 16 11  1  0
  1 17  1  0
  1 18  1  0
  3 19  1  0
  6 20  1  0
 10 21  1  0
 10 22  1  0
 12 23  1  0
 13 24  1  0
 14 25  1  0
 15 26  1  0
 16 27  1  0
M  END
>  <UniqueID>  (37) 
33

>  <SMILES>  (37) 
Nc1cc(=O)[nH]c(=O)n1Cc1ccccc1

>  <Energy>  (37) 
32.86970696152823

>  <Genealogy>  (37) 
Nc1cc(=O)[nH]c(=O)n1Cc1ccccc1 (3D coordinates assigned)
Nc1cc(=O)[nH]c(=O)n1Cc1ccccc1 (optimized conformer: 32.86970696152823 kcal/mol)

>  <smiles>  (37) 
Nc1cc(=O)[nH]c(=O)n1Cc1ccccc1

>  <score_type>  (37) 
oracle

>  <origin>  (37) 
adg

>  <m_score__min__energy>  (37) 
-6.0499999999999998

>  <m_primary>  (37) 
energy

$$$$
37:0
     RDKit          3D

 72 76  0  0  0  0  0  0  0  0999 V2000
   62.3440   34.1210   50.6400 C   0  0  0  0  0  0  0  0  0  0  0  0
   62.3170   33.8920   49.1530 C   0  0  0  0  0  0  0  0  0  0  0  0
   63.4490   33.3520   48.5190 C   0  0  0  0  0  0  0  0  0  0  0  0
   63.4550   33.1450   47.1410 C   0  0  0  0  0  0  0  0  0  0  0  0
   62.3260   33.4500   46.3820 C   0  0  0  0  0  0  0  0  0  0  0  0
   61.1760   33.9650   46.9910 C   0  0  0  0  0  0  0  0  0  0  0  0
   60.0410   34.2440   46.1570 N   0  0  0  0  0  0  0  0  0  0  0  0
   58.6790   33.8850   46.4240 C   0  0  0  0  0  0  0  0  0  0  0  0
   58.1220   34.2210   47.5040 O   0  0  0  0  0  0  0  0  0  0  0  0
   57.9730   32.9640   45.4790 C   0  0  0  0  0  0  0  0  0  0  0  0
   58.4100   31.5330   45.6600 C   0  0  0  0  0  0  0  0  0  0  0  0
   58.3110   30.4750   44.7410 C   0  0  0  0  0  0  0  0  0  0  0  0
   57.5250   30.5800   43.4360 C   0  0  0  0  0  0  0  0  0  0  0  0
   57.8130   31.8980   42.7110 C   0  0  0  0  0  0  0  0  0  0  0  0
   56.0200   30.3200   43.5780 C   0  0  0  0  0  0  0  0  0  0  0  0
   58.8700   29.3440   45.2790 N   0  0  0  0  0  0  0  0  0  0  0  0
   59.0610   28.0230   44.6590 C   0  0  0  0  0  0  0  0  0  0  0  0
   58.3020   26.9460   45.3790 C   0  0  0  0  0  0  0  0  0  0  0  0
   58.9150   25.7290   45.7240 C   0  0  0  0  0  0  0  0  0  0  0  0
   58.1630   24.7450   46.3690 C   0  0  0  0  0  0  0  0  0  0  0  0
   56.8160   24.9710   46.6510 C   0  0  0  0  0  0  0  0  0  0  0  0
   56.2330   26.1830   46.2750 C   0  0  0  0  0  0  0  0  0  0  0  0
   56.9810   27.1330   45.6510 N   0  0  0  0  0  0  0  0  0  0  0  0
   59.2760   29.6860   46.5270 C   0  0  0  0  0  0  0  0  0  0  0  0
   59.8620   28.8680   47.5030 C   0  0  0  0  0  0  0  0  0  0  0  0
   60.1710   29.4330   48.7520 C   0  0  0  0  0  0  0  0  0  0  0  0
   59.9030   30.7980   49.0160 C   0  0  0  0  0  0  0  0  0  0  0  0
   60.1920   31.3790   50.3440 C   0  0  0  0  0  0  0  0  0  0  0  0
   61.3260   31.1740   50.8610 O   0  0  0  0  0  0  0  0  0  0  0  0
   59.2190   32.1670   51.0600 N   0  0  0  0  0  0  0  0  0  0  0  0
   57.7780   31.9560   50.8800 C   0  0  0  0  0  0  0  0  0  0  0  0
   57.0610   32.1450   52.2190 C   0  0  0  0  0  0  0  0  0  0  0  0
   57.4030   33.3890   52.8010 O   0  0  0  0  0  0  0  0  0  0  0  0
   58.7780   33.4010   53.1330 C   0  0  0  0  0  0  0  0  0  0  0  0
   59.6450   33.3110   51.8730 C   0  0  0  0  0  0  0  0  0  0  0  0
   59.2970   31.5920   48.0190 C   0  0  0  0  0  0  0  0  0  0  0  0
   59.0050   31.0040   46.7870 C   0  0  0  0  0  0  0  0  0  0  0  0
   61.1830   34.2360   48.3780 C   0  0  0  0  0  0  0  0  0  0  0  0
   60.0810   34.8690   48.9550 O   0  0  0  0  0  0  0  0  0  0  0  0
   62.2306   33.1590   51.1613 H   0  0  0  0  0  0  0  0  0  0  0  0
   63.3025   34.5805   50.9229 H   0  0  0  0  0  0  0  0  0  0  0  0
   61.5186   34.7909   50.9229 H   0  0  0  0  0  0  0  0  0  0  0  0
   64.3363   33.0910   49.1145 H   0  0  0  0  0  0  0  0  0  0  0  0
   64.3526   32.7400   46.6509 H   0  0  0  0  0  0  0  0  0  0  0  0
   62.3392   33.2844   45.2946 H   0  0  0  0  0  0  0  0  0  0  0  0
   56.8899   33.0309   45.6592 H   0  0  0  0  0  0  0  0  0  0  0  0
   58.2230   33.2704   44.4525 H   0  0  0  0  0  0  0  0  0  0  0  0
   57.8939   29.7555   42.8082 H   0  0  0  0  0  0  0  0  0  0  0  0
   57.9867   32.6931   43.4510 H   0  0  0  0  0  0  0  0  0  0  0  0
   58.7070   31.7820   42.0807 H   0  0  0  0  0  0  0  0  0  0  0  0
   56.9521   32.1655   42.0807 H   0  0  0  0  0  0  0  0  0  0  0  0
   55.7548   30.2742   44.6446 H   0  0  0  0  0  0  0  0  0  0  0  0
   55.4600   31.1347   43.0956 H   0  0  0  0  0  0  0  0  0  0  0  0
   55.7658   29.3646   43.0956 H   0  0  0  0  0  0  0  0  0  0  0  0
   58.7121   28.0666   43.6167 H   0  0  0  0  0  0  0  0  0  0  0  0
   60.1316   27.7758   44.7115 H   0  0  0  0  0  0  0  0  0  0  0  0
   59.9751   25.5538   45.4885 H   0  0  0  0  0  0  0  0  0  0  0  0
   58.6327   23.7922   46.6545 H   0  0  0  0  0  0  0  0  0  0  0  0
   56.2191   24.2027   47.1642 H   0  0  0  0  0  0  0  0  0  0  0  0
   55.1691   26.3696   46.4833 H   0  0  0  0  0  0  0  0  0  0  0  0
   60.0749   27.8088   47.2960 H   0  0  0  0  0  0  0  0  0  0  0  0
   60.6265   28.8074   49.5338 H   0  0  0  0  0  0  0  0  0  0  0  0
   57.3898   32.6824   50.1509 H   0  0  0  0  0  0  0  0  0  0  0  0
   57.6012   30.9347   50.5115 H   0  0  0  0  0  0  0  0  0  0  0  0
   55.9740   32.1107   52.0540 H   0  0  0  0  0  0  0  0  0  0  0  0
   57.3703   31.3396   52.9014 H   0  0  0  0  0  0  0  0  0  0  0  0
   59.0119   34.3348   53.6653 H   0  0  0  0  0  0  0  0  0  0  0  0
   58.9933   32.5311   53.7709 H   0  0  0  0  0  0  0  0  0  0  0  0
   59.5365   34.2360   51.2877 H   0  0  0  0  0  0  0  0  0  0  0  0
   60.6976   33.1791   52.1640 H   0  0  0  0  0  0  0  0  0  0  0  0
   59.0603   32.6494   48.2082 H   0  0  0  0  0  0  0  0  0  0  0  0
   59.2470   35.1160   48.4360 H   0  0  0  0  0  0  0  0  0  0  0  0
  1  2  1  0
  2  3  2  0
  3  4  1  0
  4  5  2  0
  5  6  1  0
  6  7  1  0
  7  8  1  0
  8  9  2  0
  8 10  1  0
 10 11  1  0
 11 12  2  0
 12 13  1  0
 13 14  1  0
 13 15  1  0
 12 16  1  0
 16 17  1  0
 17 18  1  0
 18 19  2  0
 19 20  1  0
 20 21  2  0
 21 22  1  0
 22 23  2  0
 16 24  1  0
 24 25  2  0
 25 26  1  0
 26 27  2  0
 27 28  1  0
 28 29  2  0
 28 30  1  0
 30 31  1  0
 31 32  1  0
 32 33  1  0
 33 34  1  0
 34 35  1  0
 27 36  1  0
 36 37  2  0
  6 38  2  0
 38 39  1  0
 38  2  1  0
 37 11  1  0
 23 18  1  0
 37 24  1  0
 35 30  1  0
  1 40  1  0
  1 41  1  0
  1 42  1  0
  3 43  1  0
  4 44  1  0
  5 45  1  0
 10 46  1  0
 10 47  1  0
 13 48  1  0
 14 49  1  0
 14 50  1  0
 14 51  1  0
 15 52  1  0
 15 53  1  0
 15 54  1  0
 17 55  1  0
 17 56  1  0
 19 57  1  0
 20 58  1  0
 21 59  1  0
 22 60  1  0
 25 61  1  0
 26 62  1  0
 31 63  1  0
 31 64  1  0
 32 65  1  0
 32 66  1  0
 34 67  1  0
 34 68  1  0
 35 69  1  0
 35 70  1  0
 36 71  1  0
 39 72  1  0
M  CHG  1   7  -1
M  END
>  <UniqueID>  (38) 
34

>  <SMILES>  (38) 
Cc1cccc([N-]C(=O)Cc2c(C(C)C)n(Cc3ccccn3)c3ccc(C(=O)N4CCOCC4)cc23)c1O

>  <Energy>  (38) 
122.96360390817381

>  <Genealogy>  (38) 
Cc1cccc([N-]C(=O)Cc2c(C(C)C)n(Cc3ccccn3)c3ccc(C(=O)N4CCOCC4)cc23)c1O (protonated)
Cc1cccc([N-]C(=O)Cc2c(C(C)C)n(Cc3ccccn3)c3ccc(C(=O)N4CCOCC4)cc23)c1O (3D coordinates assigned)
Cc1cccc([N-]C(=O)Cc2c(C(C)C)n(Cc3ccccn3)c3ccc(C(=O)N4CCOCC4)cc23)c1O (nonaromatic ring conformer: 122.96360390817381 kcal/mol)

>  <smiles>  (38) 
Cc1cccc(NC(=O)Cc2c(C(C)C)n(Cc3ccccn3)c3ccc(C(=O)N4CCOCC4)cc23)c1O

>  <score_type>  (38) 
oracle

>  <origin>  (38) 
adg

>  <m_score__min__energy>  (38) 
-11.16

>  <m_primary>  (38) 
energy

$$$$
38:0
     RDKit          3D

 42 45  0  0  0  0  0  0  0  0999 V2000
   65.6410   34.6220   51.7260 N   0  0  0  0  0  0  0  0  0  0  0  0
   66.0340   33.1520   50.9070 S   0  0  0  0  0  0  0  0  0  0  0  0
   67.1820   33.3870   49.9650 O   0  0  0  0  0  0  0  0  0  0  0  0
   66.4420   32.1120   51.9140 O   0  0  0  0  0  0  0  0  0  0  0  0
   64.6300   32.5900   50.0060 C   0  0  0  0  0  0  0  0  0  0  0  0
   64.3890   33.0700   48.7120 C   0  0  0  0  0  0  0  0  0  0  0  0
   63.2670   32.6360   47.9990 C   0  0  0  0  0  0  0  0  0  0  0  0
   62.3700   31.7200   48.5720 C   0  0  0  0  0  0  0  0  0  0  0  0
   61.2160   31.2730   47.8380 N   0  0  0  0  0  0  0  0  0  0  0  0
   60.5410   31.9460   46.7690 C   0  0  0  0  0  0  0  0  0  0  0  0
   60.8520   33.0870   46.3350 O   0  0  0  0  0  0  0  0  0  0  0  0
   59.4160   31.1430   46.3040 C   0  0  0  0  0  0  0  0  0  0  0  0
   58.4870   31.3800   45.2950 C   0  0  0  0  0  0  0  0  0  0  0  0
   57.4990   30.4070   45.0650 C   0  0  0  0  0  0  0  0  0  0  0  0
   57.4480   29.2250   45.8500 C   0  0  0  0  0  0  0  0  0  0  0  0
   56.4820   28.2320   45.6320 O   0  0  0  0  0  0  0  0  0  0  0  0
   56.7240   26.8520   45.6670 C   0  0  0  0  0  0  0  0  0  0  0  0
   58.0480   26.4000   45.5830 C   0  0  0  0  0  0  0  0  0  0  0  0
   58.3320   25.0330   45.6150 C   0  0  0  0  0  0  0  0  0  0  0  0
   57.2950   24.1050   45.7450 C   0  0  0  0  0  0  0  0  0  0  0  0
   55.9730   24.5460   45.8550 C   0  0  0  0  0  0  0  0  0  0  0  0
   55.6830   25.9150   45.8300 C   0  0  0  0  0  0  0  0  0  0  0  0
   54.3680   26.3340   45.9920 O   0  0  0  0  0  0  0  0  0  0  0  0
   58.4130   29.0130   46.8540 C   0  0  0  0  0  0  0  0  0  0  0  0
   59.3800   29.9940   47.0630 C   0  0  0  0  0  0  0  0  0  0  0  0
   60.4840   30.0530   48.0130 C   0  0  0  0  0  0  0  0  0  0  0  0
   60.7870   29.1500   48.8360 O   0  0  0  0  0  0  0  0  0  0  0  0
   62.6130   31.2480   49.8720 C   0  0  0  0  0  0  0  0  0  0  0  0
   63.7340   31.6830   50.5850 C   0  0  0  0  0  0  0  0  0  0  0  0
   66.3260   35.3430   51.4050 H   0  0  0  0  0  0  0  0  0  0  0  0
   64.7020   34.9220   51.3810 H   0  0  0  0  0  0  0  0  0  0  0  0
   65.0841   33.7901   48.2557 H   0  0  0  0  0  0  0  0  0  0  0  0
   63.0858   33.0148   46.9823 H   0  0  0  0  0  0  0  0  0  0  0  0
   58.5249   32.3014   44.6954 H   0  0  0  0  0  0  0  0  0  0  0  0
   56.7571   30.5630   44.2680 H   0  0  0  0  0  0  0  0  0  0  0  0
   58.8687   27.1266   45.4913 H   0  0  0  0  0  0  0  0  0  0  0  0
   59.3731   24.6862   45.5378 H   0  0  0  0  0  0  0  0  0  0  0  0
   57.5190   23.0282   45.7607 H   0  0  0  0  0  0  0  0  0  0  0  0
   55.1582   23.8148   45.9615 H   0  0  0  0  0  0  0  0  0  0  0  0
   58.4033   28.0943   47.4589 H   0  0  0  0  0  0  0  0  0  0  0  0
   61.9168   30.5314   50.3323 H   0  0  0  0  0  0  0  0  0  0  0  0
   63.9129   31.3114   51.6047 H   0  0  0  0  0  0  0  0  0  0  0  0
  1  2  1  0
  2  3  2  0
  2  4  2  0
  2  5  1  0
  5  6  2  0
  6  7  1  0
  7  8  2  0
  8  9  1  0
  9 10  1  0
 10 11  2  0
 10 12  1  0
 12 13  2  0
 13 14  1  0
 14 15  2  0
 15 16  1  0
 16 17  1  0
 17 18  2  0
 18 19  1  0
 19 20  2  0
 20 21  1  0
 21 22  2  0
 22 23  1  0
 15 24  1  0
 24 25  2  0
 25 26  1  0
 26 27  2  0
  8 28  1  0
 28 29  2  0
 29  5  1  0
 26  9  1  0
 25 12  1  0
 22 17  1  0
  1 30  1  0
  1 31  1  0
  6 32  1  0
  7 33  1  0
 13 34  1  0
 14 35  1  0
 18 36  1  0
 19 37  1  0
 20 38  1  0
 21 39  1  0
 24 40  1  0
 28 41  1  0
 29 42  1  0
M  CHG  1  23  -1
M  END
>  <UniqueID>  (39) 
35

>  <SMILES>  (39) 
NS(=O)(=O)c1ccc(N2C(=O)c3ccc(Oc4ccccc4[O-])cc3C2=O)cc1

>  <Energy>  (39) 
90.4774345196101

>  <Genealogy>  (39) 
NS(=O)(=O)c1ccc(N2C(=O)c3ccc(Oc4ccccc4[O-])cc3C2=O)cc1 (protonated)
NS(=O)(=O)c1ccc(N2C(=O)c3ccc(Oc4ccccc4[O-])cc3C2=O)cc1 (3D coordinates assigned)
NS(=O)(=O)c1ccc(N2C(=O)c3ccc(Oc4ccccc4[O-])cc3C2=O)cc1 (nonaromatic ring conformer: 90.4774345196101 kcal/mol)

>  <smiles>  (39) 
NS(=O)(=O)c1ccc(N2C(=O)c3ccc(Oc4ccccc4O)cc3C2=O)cc1

>  <score_type>  (39) 
oracle

>  <origin>  (39) 
adg

>  <m_score__min__energy>  (39) 
-11.94

>  <m_primary>  (39) 
energy

$$$$
39:0
     RDKit          3D

 37 39  0  0  1  0  0  0  0  0999 V2000
   57.1520   29.6650   43.2680 O   0  0  0  0  0  0  0  0  0  0  0  0
   56.9160   30.4380   44.1950 N   0  0  0  0  0  0  0  0  0  0  0  0
   55.6250   30.2960   44.7390 O   0  0  0  0  0  0  0  0  0  0  0  0
   57.7570   31.3320   44.8670 C   0  0  0  0  0  0  0  0  0  0  0  0
   57.8000   32.6300   44.3570 C   0  0  0  0  0  0  0  0  0  0  0  0
   58.5310   33.6070   44.8870 N   0  0  0  0  0  0  0  0  0  0  0  0
   58.5280   31.1020   45.9640 C   0  0  0  0  0  0  0  0  0  0  0  0
   58.7160   29.9590   46.4250 N   0  0  0  0  0  0  0  0  0  0  0  0
   61.2360   34.0520   47.1510 C   0  0  0  0  0  0  0  0  0  0  0  0
   62.4050   33.7700   46.4320 C   0  0  0  0  0  0  0  0  0  0  0  0
   63.5670   33.5500   47.1380 C   0  0  0  0  0  0  0  0  0  0  0  0
   63.6150   33.5980   48.5330 C   0  0  0  0  0  0  0  0  0  0  0  0
   62.4450   33.8800   49.2490 C   0  0  0  0  0  0  0  0  0  0  0  0
   61.2710   34.1030   48.5350 C   0  0  0  0  0  0  0  0  0  0  0  0
   59.2590   32.1150   46.4850 N   0  0  0  0  0  0  0  0  0  0  0  0
   59.2780   33.3550   45.9750 C   0  0  0  0  0  0  0  0  0  0  0  0
   59.9960   34.2940   46.4980 N   0  0  0  0  0  0  0  0  0  0  0  0
   58.3540   28.7210   45.9040 C   0  0  0  0  0  0  0  0  0  0  0  0
   59.1820   27.9710   45.0450 C   0  0  0  0  0  0  0  0  0  0  0  0
   58.6700   26.7790   44.5180 C   0  0  0  0  0  0  0  0  0  0  0  0
   57.3990   26.3430   44.8200 C   0  0  0  0  0  0  0  0  0  0  0  0
   56.5710   27.0840   45.6750 C   0  0  0  0  0  0  0  0  0  0  0  0
   55.2870   26.6630   45.9950 O   0  0  0  0  0  0  0  0  0  0  0  0
   57.0600   28.2580   46.2010 C   0  0  0  0  0  0  0  0  0  0  0  0
   57.1956   32.8583   43.4667 H   0  0  0  0  0  0  0  0  0  0  0  0
   58.5300   34.5720   44.4600 H   0  0  0  0  0  0  0  0  0  0  0  0
   62.3950   33.7255   45.3329 H   0  0  0  0  0  0  0  0  0  0  0  0
   64.4906   33.3285   46.5831 H   0  0  0  0  0  0  0  0  0  0  0  0
   64.5614   33.4163   49.0634 H   0  0  0  0  0  0  0  0  0  0  0  0
   62.4535   33.9242   50.3481 H   0  0  0  0  0  0  0  0  0  0  0  0
   60.3450   34.3260   49.0852 H   0  0  0  0  0  0  0  0  0  0  0  0
   59.8510   31.9560   47.3310 H   0  0  0  0  0  0  0  0  0  0  0  0
   60.1981   28.3111   44.7964 H   0  0  0  0  0  0  0  0  0  0  0  0
   59.2985   26.1759   43.8462 H   0  0  0  0  0  0  0  0  0  0  0  0
   57.0292   25.4026   44.3854 H   0  0  0  0  0  0  0  0  0  0  0  0
   55.1530   26.3270   46.9620 H   0  0  0  0  0  0  0  0  0  0  0  0
   56.4209   28.8504   46.8723 H   0  0  0  0  0  0  0  0  0  0  0  0
  1  2  2  0
  2  3  1  0
  2  4  1  0
  4  5  2  0
  5  6  1  0
  6  7  1  0
  7  8  2  0
  8  9  1  0
  9 10  2  0
 10 11  1  0
 11 12  2  0
 12 13  1  0
 13 14  2  0
  7 15  1  0
 15 16  1  0
 16 17  2  0
 17 18  1  0
 18 19  2  0
 19 20  1  0
 20 21  2  0
 21 22  1  0
 22 23  1  0
 22 24  2  0
 16  4  1  0
 24 18  1  0
 14  9  1  0
  5 25  1  0
  6 26  1  0
 10 27  1  0
 11 28  1  0
 12 29  1  0
 13 30  1  0
 14 31  1  0
 15 32  1  0
 19 33  1  0
 20 34  1  0
 21 35  1  0
 23 36  1  0
 24 37  1  0
M  CHG  2   2   1   3  -1
M  END
>  <smiles>  (40) 
O=[N+]([O-])c1c[nH]c(=Nc2ccccc2)[nH]c1=Nc1cccc(O)c1

>  <score_type>  (40) 
oracle

>  <origin>  (40) 
adg

>  <m_score__min__energy>  (40) 
-9.0899999999999999

>  <m_primary>  (40) 
energy

$$$$
40:0
     RDKit          3D

 46 50  0  0  0  0  0  0  0  0999 V2000
   58.4630   26.7702   44.2825 H   0  0  0  0  0  0  0  0  0  0  0  0
   57.7510   27.0840   45.0600 C   0  0  0  0  0  0  0  0  0  0  0  0
   57.2430   26.0420   45.9750 C   0  0  0  0  0  0  0  0  0  0  0  0
   57.9790   25.0780   46.5580 N   0  0  0  0  0  0  0  0  0  0  0  0
   57.0750   24.3890   47.2890 C   0  0  0  0  0  0  0  0  0  0  0  0
   57.3890   23.3920   47.9900 O   0  0  0  0  0  0  0  0  0  0  0  0
   55.8110   24.8550   47.2100 N   0  0  0  0  0  0  0  0  0  0  0  0
   55.9350   25.9000   46.3750 C   0  0  0  0  0  0  0  0  0  0  0  0
   54.8730   26.7060   45.9870 O   0  0  0  0  0  0  0  0  0  0  0  0
   57.4140   28.3850   45.1000 C   0  0  0  0  0  0  0  0  0  0  0  0
   56.3070   29.0520   44.5600 C   0  0  0  0  0  0  0  0  0  0  0  0
   55.4996   28.5742   43.9856 H   0  0  0  0  0  0  0  0  0  0  0  0
   56.3790   30.3750   44.8510 N   0  0  0  0  0  0  0  0  0  0  0  0
   57.4890   30.5520   45.5490 N   0  0  0  0  0  0  0  0  0  0  0  0
   57.9760   31.7090   46.0620 C   0  0  0  0  0  0  0  0  0  0  0  0
   57.3200   32.8260   45.8870 N   0  0  0  0  0  0  0  0  0  0  0  0
   57.7600   34.2140   45.6490 C   0  0  0  0  0  0  0  0  0  0  0  0
   56.7315   34.5912   45.5492 H   0  0  0  0  0  0  0  0  0  0  0  0
   59.0530   34.4110   44.8750 C   0  0  0  0  0  0  0  0  0  0  0  0
   59.6016   33.5395   44.4884 H   0  0  0  0  0  0  0  0  0  0  0  0
   59.3498   34.9901   43.9881 H   0  0  0  0  0  0  0  0  0  0  0  0
   59.0070   34.6810   46.3800 C   0  0  0  0  0  0  0  0  0  0  0  0
   59.5227   34.0039   47.0768 H   0  0  0  0  0  0  0  0  0  0  0  0
   59.2572   35.5353   47.0262 H   0  0  0  0  0  0  0  0  0  0  0  0
   59.1520   31.6490   46.7510 N   0  0  0  0  0  0  0  0  0  0  0  0
   59.8160   30.4640   46.9110 C   0  0  0  0  0  0  0  0  0  0  0  0
   60.9250   30.4500   47.5920 N   0  0  0  0  0  0  0  0  0  0  0  0
   61.8580   31.5360   47.7320 C   0  0  0  0  0  0  0  0  0  0  0  0
   61.8720   32.5420   46.7590 C   0  0  0  0  0  0  0  0  0  0  0  0
   61.1684   32.4960   45.9147 H   0  0  0  0  0  0  0  0  0  0  0  0
   62.7750   33.6050   46.8540 C   0  0  0  0  0  0  0  0  0  0  0  0
   62.7701   34.3986   46.0923 H   0  0  0  0  0  0  0  0  0  0  0  0
   63.6830   33.6620   47.9130 C   0  0  0  0  0  0  0  0  0  0  0  0
   64.3839   34.5062   47.9904 H   0  0  0  0  0  0  0  0  0  0  0  0
   63.7030   32.6450   48.8780 C   0  0  0  0  0  0  0  0  0  0  0  0
   64.8560   32.6900   50.2100 S   0  0  0  0  0  0  0  0  0  0  0  0
   66.2530   32.7550   49.6600 O   0  0  0  0  0  0  0  0  0  0  0  0
   64.6100   33.9000   51.0690 O   0  0  0  0  0  0  0  0  0  0  0  0
   64.6720   31.2320   51.2150 C   0  0  0  0  0  0  0  0  0  0  0  0
   64.7074   31.5126   52.2780 H   0  0  0  0  0  0  0  0  0  0  0  0
   63.7064   30.7538   50.9940 H   0  0  0  0  0  0  0  0  0  0  0  0
   65.4885   30.5288   50.9940 H   0  0  0  0  0  0  0  0  0  0  0  0
   62.8040   31.5750   48.7760 C   0  0  0  0  0  0  0  0  0  0  0  0
   62.8368   30.7608   49.5150 H   0  0  0  0  0  0  0  0  0  0  0  0
   59.2900   29.3140   46.3950 N   0  0  0  0  0  0  0  0  0  0  0  0
   58.1240   29.3920   45.7130 C   0  0  0  0  0  0  0  0  0  0  0  0
  1  2  1  0
  2  3  1  0
  3  4  1  0
  4  5  1  0
  5  6  2  0
  5  7  1  0
  7  8  1  0
  8  9  1  0
  2 10  2  0
 10 11  1  0
 11 12  1  0
 11 13  2  0
 13 14  1  0
 14 15  1  0
 15 16  2  3
 16 17  1  0
 17 18  1  0
 17 19  1  0
 19 20  1  0
 19 21  1  0
 19 22  1  0
 22 23  1  0
 22 24  1  0
 15 25  1  0
 25 26  1  0
 26 27  2  3
 27 28  1  0
 28 29  2  0
 29 30  1  0
 29 31  1  0
 31 32  1  0
 31 33  2  0
 33 34  1  0
 33 35  1  0
 35 36  1  0
 36 37  2  0
 36 38  2  0
 36 39  1  0
 39 40  1  0
 39 41  1  0
 39 42  1  0
 35 43  2  0
 43 44  1  0
 26 45  1  0
 45 46  2  0
  8  3  2  0
 46 10  1  0
 46 14  1  0
 22 17  1  0
 43 28  1  0
M  CHG  4   4  -1   7  -1   9  -1  25  -1
M  END
>  <UniqueID>  (41) 
36

>  <SMILES>  (41) 
CS(=O)(=O)c1cccc(N=c2nc3/c(=C/c4[n-]c(=O)[n-]c4[O-])cnn3c(=NC3CC3)[n-]2)c1

>  <Energy>  (41) 
398.5094676934051

>  <Genealogy>  (41) 
CS(=O)(=O)c1cccc(N=c2nc3c(=Cc4[n-]c(=O)[n-]c4[O-])cnn3c(=NC3CC3)[n-]2)c1 (protonated)
CS(=O)(=O)c1cccc(N=c2nc3/c(=C/c4[n-]c(=O)[n-]c4[O-])cnn3c(=NC3CC3)[n-]2)c1 (cis-trans isomerization)
CS(=O)(=O)c1cccc(N=c2nc3/c(=C/c4[n-]c(=O)[n-]c4[O-])cnn3c(=NC3CC3)[n-]2)c1 (3D coordinates assigned)
CS(=O)(=O)c1cccc(N=c2nc3/c(=C/c4[n-]c(=O)[n-]c4[O-])cnn3c(=NC3CC3)[n-]2)c1 (nonaromatic ring conformer: 398.5094676934051 kcal/mol)

>  <smiles>  (41) 
CS(=O)(=O)c1cccc(N=c2nc3c(=Cc4[nH]c(=O)[nH]c4O)cnn3c(=NC3CC3)[nH]2)c1

>  <score_type>  (41) 
oracle

>  <origin>  (41) 
adg

>  <m_score__min__energy>  (41) 
-18.66

>  <m_primary>  (41) 
energy

$$$$
41:0
     RDKit          3D

 68 71  0  0  0  0  0  0  0  0999 V2000
   59.1590   28.9230   44.5120 C   0  0  0  0  0  0  0  0  0  0  0  0
   57.8500   29.3530   45.1970 C   0  0  0  0  0  0  0  0  0  0  0  0
   57.0820   28.0920   45.6350 C   0  0  0  0  0  0  0  0  0  0  0  0
   56.9720   30.1610   44.2240 C   0  0  0  0  0  0  0  0  0  0  0  0
   58.1150   30.1450   46.4080 N   0  0  0  0  0  0  0  0  0  0  0  0
   59.3810   30.4310   47.0200 C   0  0  0  0  0  0  0  0  0  0  0  0
   60.2580   31.0300   46.3460 O   0  0  0  0  0  0  0  0  0  0  0  0
   59.6760   30.0830   48.4170 C   0  0  0  0  0  0  0  0  0  0  0  0
   59.6550   31.0710   49.4070 C   0  0  0  0  0  0  0  0  0  0  0  0
   59.9760   30.7520   50.7290 C   0  0  0  0  0  0  0  0  0  0  0  0
   60.3470   29.4520   51.0780 C   0  0  0  0  0  0  0  0  0  0  0  0
   60.6740   29.1980   52.4210 O   0  0  0  0  0  0  0  0  0  0  0  0
   61.9710   28.8160   52.9060 C   0  0  1  0  0  0  0  0  0  0  0  0
   62.9040   28.5270   51.7110 C   0  0  0  0  0  0  0  0  0  0  0  0
   63.8040   29.7180   51.3330 C   0  0  0  0  0  0  0  0  0  0  0  0
   63.1200   31.0090   51.5850 N   0  0  2  0  0  0  0  0  0  0  0  0
   63.8440   32.1570   50.9780 C   0  0  0  0  0  0  0  0  0  0  0  0
   63.1520   32.7660   49.7720 C   0  0  0  0  0  0  0  0  0  0  0  0
   62.1310   33.7190   49.9540 C   0  0  0  0  0  0  0  0  0  0  0  0
   61.4610   34.2640   48.8550 C   0  0  0  0  0  0  0  0  0  0  0  0
   61.7740   33.8370   47.5540 C   0  0  0  0  0  0  0  0  0  0  0  0
   61.0840   34.3180   46.4320 O   0  0  0  0  0  0  0  0  0  0  0  0
   59.7460   34.0440   46.1030 C   0  0  0  0  0  0  0  0  0  0  0  0
   58.8580   33.7390   47.1450 C   0  0  0  0  0  0  0  0  0  0  0  0
   57.5070   33.4860   46.8800 C   0  0  0  0  0  0  0  0  0  0  0  0
   57.0310   33.5400   45.5660 C   0  0  0  0  0  0  0  0  0  0  0  0
   57.9060   33.8430   44.5180 C   0  0  0  0  0  0  0  0  0  0  0  0
   59.2550   34.1160   44.7830 C   0  0  0  0  0  0  0  0  0  0  0  0
   62.8370   32.9430   47.3670 C   0  0  0  0  0  0  0  0  0  0  0  0
   63.5270   32.4170   48.4660 C   0  0  0  0  0  0  0  0  0  0  0  0
   62.8370   31.2250   53.0300 C   0  0  0  0  0  0  0  0  0  0  0  0
   62.5500   29.9190   53.8080 C   0  0  0  0  0  0  0  0  0  0  0  0
   60.3880   28.4620   50.0770 C   0  0  0  0  0  0  0  0  0  0  0  0
   60.0640   28.7810   48.7560 C   0  0  0  0  0  0  0  0  0  0  0  0
   59.9096   28.6764   45.2774 H   0  0  0  0  0  0  0  0  0  0  0  0
   58.9713   28.0393   43.8844 H   0  0  0  0  0  0  0  0  0  0  0  0
   59.5319   29.7459   43.8844 H   0  0  0  0  0  0  0  0  0  0  0  0
   57.0526   28.0437   46.7335 H   0  0  0  0  0  0  0  0  0  0  0  0
   56.0554   28.1330   45.2421 H   0  0  0  0  0  0  0  0  0  0  0  0
   57.5895   27.1986   45.2421 H   0  0  0  0  0  0  0  0  0  0  0  0
   56.2806   30.7972   44.7960 H   0  0  0  0  0  0  0  0  0  0  0  0
   57.6122   30.7924   43.5904 H   0  0  0  0  0  0  0  0  0  0  0  0
   56.3958   29.4706   43.5904 H   0  0  0  0  0  0  0  0  0  0  0  0
   59.3845   32.1041   49.1435 H   0  0  0  0  0  0  0  0  0  0  0  0
   59.9360   31.5330   51.5026 H   0  0  0  0  0  0  0  0  0  0  0  0
   61.8813   27.9011   53.5100 H   0  0  0  0  0  0  0  0  0  0  0  0
   62.2842   28.2686   50.8398 H   0  0  0  0  0  0  0  0  0  0  0  0
   63.5673   27.7021   52.0102 H   0  0  0  0  0  0  0  0  0  0  0  0
   64.0594   29.6499   50.2652 H   0  0  0  0  0  0  0  0  0  0  0  0
   64.7120   29.6785   51.9527 H   0  0  0  0  0  0  0  0  0  0  0  0
   62.1980   30.9670   51.0880 H   0  0  0  0  0  0  0  0  0  0  0  0
   63.9530   32.9391   51.7438 H   0  0  0  0  0  0  0  0  0  0  0  0
   64.8097   31.7678   50.6233 H   0  0  0  0  0  0  0  0  0  0  0  0
   61.8582   34.0375   50.9709 H   0  0  0  0  0  0  0  0  0  0  0  0
   60.6863   35.0295   49.0094 H   0  0  0  0  0  0  0  0  0  0  0  0
   59.2268   33.6982   48.1805 H   0  0  0  0  0  0  0  0  0  0  0  0
   56.8202   33.2449   47.7047 H   0  0  0  0  0  0  0  0  0  0  0  0
   55.9689   33.3442   45.3570 H   0  0  0  0  0  0  0  0  0  0  0  0
   57.5345   33.8671   43.4829 H   0  0  0  0  0  0  0  0  0  0  0  0
   59.9322   34.3870   43.9596 H   0  0  0  0  0  0  0  0  0  0  0  0
   63.1318   32.6520   46.3480 H   0  0  0  0  0  0  0  0  0  0  0  0
   64.3677   31.7263   48.3044 H   0  0  0  0  0  0  0  0  0  0  0  0
   61.9591   31.8819   53.1178 H   0  0  0  0  0  0  0  0  0  0  0  0
   63.7401   31.6713   53.4719 H   0  0  0  0  0  0  0  0  0  0  0  0
   61.8279   30.1360   54.6089 H   0  0  0  0  0  0  0  0  0  0  0  0
   63.5044   29.5537   54.2149 H   0  0  0  0  0  0  0  0  0  0  0  0
   60.6765   27.4327   50.3366 H   0  0  0  0  0  0  0  0  0  0  0  0
   60.1140   28.0051   47.9779 H   0  0  0  0  0  0  0  0  0  0  0  0
  1  2  1  0
  2  3  1  0
  2  4  1  0
  2  5  1  0
  5  6  1  0
  6  7  2  0
  6  8  1  0
  8  9  2  0
  9 10  1  0
 10 11  2  0
 11 12  1  0
 12 13  1  0
 13 14  1  0
 14 15  1  0
 15 16  1  0
 16 17  1  0
 17 18  1  0
 18 19  2  0
 19 20  1  0
 20 21  2  0
 21 22  1  0
 22 23  1  0
 23 24  2  0
 24 25  1  0
 25 26  2  0
 26 27  1  0
 27 28  2  0
 21 29  1  0
 29 30  2  0
 16 31  1  0
 31 32  1  0
 11 33  1  0
 33 34  2  0
 34  8  1  0
 32 13  1  0
 30 18  1  0
 28 23  1  0
  1 35  1  0
  1 36  1  0
  1 37  1  0
  3 38  1  0
  3 39  1  0
  3 40  1  0
  4 41  1  0
  4 42  1  0
  4 43  1  0
  9 44  1  0
 10 45  1  0
 13 46  1  1
 14 47  1  0
 14 48  1  0
 15 49  1  0
 15 50  1  0
 16 51  1  6
 17 52  1  0
 17 53  1  0
 19 54  1  0
 20 55  1  0
 24 56  1  0
 25 57  1  0
 26 58  1  0
 27 59  1  0
 28 60  1  0
 29 61  1  0
 30 62  1  0
 31 63  1  0
 31 64  1  0
 32 65  1  0
 32 66  1  0
 33 67  1  0
 34 68  1  0
M  CHG  2   5  -1  16   1
M  END
>  <UniqueID>  (42) 
37

>  <SMILES>  (42) 
CC(C)(C)[N-]C(=O)c1ccc(OC2CC[NH+](Cc3ccc(Oc4ccccc4)cc3)CC2)cc1

>  <Energy>  (42) 
93.19673291786825

>  <Genealogy>  (42) 
CC(C)(C)[N-]C(=O)c1ccc(OC2CC[NH+](Cc3ccc(Oc4ccccc4)cc3)CC2)cc1 (protonated)
CC(C)(C)[N-]C(=O)c1ccc(OC2CC[NH+](Cc3ccc(Oc4ccccc4)cc3)CC2)cc1 (3D coordinates assigned)
CC(C)(C)[N-]C(=O)c1ccc(OC2CC[NH+](Cc3ccc(Oc4ccccc4)cc3)CC2)cc1 (nonaromatic ring conformer: 93.19673291786825 kcal/mol)

>  <smiles>  (42) 
CC(C)(C)NC(=O)c1ccc(OC2CCN(Cc3ccc(Oc4ccccc4)cc3)CC2)cc1

>  <score_type>  (42) 
oracle

>  <origin>  (42) 
adg

>  <m_score__min__energy>  (42) 
-9.5899999999999999

>  <m_primary>  (42) 
energy

$$$$
42:0
     RDKit          3D

 58 62  0  0  0  0  0  0  0  0999 V2000
   57.1990   34.0160   44.9030 O   0  0  0  0  0  0  0  0  0  0  0  0
   58.2250   33.3030   45.0620 C   0  0  0  0  0  0  0  0  0  0  0  0
   58.5270   32.2740   44.1130 N   0  0  0  0  0  0  0  0  0  0  0  0
   57.5110   31.6430   43.2820 C   0  0  0  0  0  0  0  0  0  0  0  0
   56.8000   30.5800   44.0630 C   0  0  0  0  0  0  0  0  0  0  0  0
   55.4490   30.3170   43.9830 C   0  0  0  0  0  0  0  0  0  0  0  0
   55.1500   29.2580   44.7530 N   0  0  0  0  0  0  0  0  0  0  0  0
   56.2620   28.8320   45.3280 N   0  0  0  0  0  0  0  0  0  0  0  0
   57.2900   29.6130   44.9390 C   0  0  0  0  0  0  0  0  0  0  0  0
   58.6740   29.3550   45.4010 C   0  0  0  0  0  0  0  0  0  0  0  0
   59.0760   28.1590   45.4310 O   0  0  0  0  0  0  0  0  0  0  0  0
   59.5450   30.3970   45.8620 N   0  0  0  0  0  0  0  0  0  0  0  0
   60.8840   30.1170   46.3830 C   0  0  0  0  0  0  0  0  0  0  0  0
   60.8980   30.1380   47.8900 C   0  0  0  0  0  0  0  0  0  0  0  0
   59.9420   29.4190   48.6160 C   0  0  0  0  0  0  0  0  0  0  0  0
   59.9500   29.4540   50.0090 C   0  0  0  0  0  0  0  0  0  0  0  0
   60.9240   30.1860   50.6940 C   0  0  0  0  0  0  0  0  0  0  0  0
   61.9120   30.8700   49.9870 C   0  0  0  0  0  0  0  0  0  0  0  0
   62.8750   31.6000   50.6960 O   0  0  0  0  0  0  0  0  0  0  0  0
   64.2100   31.2010   50.8560 C   0  0  0  0  0  0  0  0  0  0  0  0
   64.5520   30.0190   51.5410 C   0  0  0  0  0  0  0  0  0  0  0  0
   65.8960   29.6610   51.6960 C   0  0  0  0  0  0  0  0  0  0  0  0
   66.9050   30.4720   51.1740 C   0  0  0  0  0  0  0  0  0  0  0  0
   66.5710   31.6500   50.5020 C   0  0  0  0  0  0  0  0  0  0  0  0
   65.2290   32.0170   50.3520 C   0  0  0  0  0  0  0  0  0  0  0  0
   61.8900   30.8520   48.5810 C   0  0  0  0  0  0  0  0  0  0  0  0
   59.1120   33.5190   46.2270 C   0  0  0  0  0  0  0  0  0  0  0  0
   58.5740   33.7790   47.4980 C   0  0  0  0  0  0  0  0  0  0  0  0
   59.4130   34.0040   48.5950 C   0  0  0  0  0  0  0  0  0  0  0  0
   60.7990   33.9910   48.4380 C   0  0  0  0  0  0  0  0  0  0  0  0
   61.6440   34.2480   49.5290 C   0  0  0  0  0  0  0  0  0  0  0  0
   63.0340   34.2290   49.3580 C   0  0  0  0  0  0  0  0  0  0  0  0
   63.5840   33.9620   48.1010 C   0  0  0  0  0  0  0  0  0  0  0  0
   62.7490   33.7110   47.0080 C   0  0  0  0  0  0  0  0  0  0  0  0
   61.3550   33.7220   47.1650 C   0  0  0  0  0  0  0  0  0  0  0  0
   60.5110   33.4790   46.0730 C   0  0  0  0  0  0  0  0  0  0  0  0
   56.7851   32.4018   42.9544 H   0  0  0  0  0  0  0  0  0  0  0  0
   57.9933   31.1862   42.4052 H   0  0  0  0  0  0  0  0  0  0  0  0
   54.7265   30.8873   43.3807 H   0  0  0  0  0  0  0  0  0  0  0  0
   59.1940   31.3680   45.9740 H   0  0  0  0  0  0  0  0  0  0  0  0
   61.2039   29.1237   46.0350 H   0  0  0  0  0  0  0  0  0  0  0  0
   61.5698   30.8955   46.0175 H   0  0  0  0  0  0  0  0  0  0  0  0
   59.1828   28.8251   48.0861 H   0  0  0  0  0  0  0  0  0  0  0  0
   59.1844   28.9016   50.5736 H   0  0  0  0  0  0  0  0  0  0  0  0
   60.9110   30.2225   51.7933 H   0  0  0  0  0  0  0  0  0  0  0  0
   63.7613   29.3760   51.9550 H   0  0  0  0  0  0  0  0  0  0  0  0
   66.1583   28.7366   52.2314 H   0  0  0  0  0  0  0  0  0  0  0  0
   67.9602   30.1842   51.2915 H   0  0  0  0  0  0  0  0  0  0  0  0
   67.3646   32.2906   50.0898 H   0  0  0  0  0  0  0  0  0  0  0  0
   64.9733   32.9533   49.8344 H   0  0  0  0  0  0  0  0  0  0  0  0
   62.6574   31.4026   48.0171 H   0  0  0  0  0  0  0  0  0  0  0  0
   57.4826   33.8060   47.6324 H   0  0  0  0  0  0  0  0  0  0  0  0
   58.9770   34.1923   49.5872 H   0  0  0  0  0  0  0  0  0  0  0  0
   61.2145   34.4643   50.5183 H   0  0  0  0  0  0  0  0  0  0  0  0
   63.6948   34.4248   50.2154 H   0  0  0  0  0  0  0  0  0  0  0  0
   64.6763   33.9493   47.9714 H   0  0  0  0  0  0  0  0  0  0  0  0
   63.1871   33.5040   46.0205 H   0  0  0  0  0  0  0  0  0  0  0  0
   60.9451   33.2552   45.0874 H   0  0  0  0  0  0  0  0  0  0  0  0
  1  2  2  0
  2  3  1  0
  3  4  1  0
  4  5  1  0
  5  6  2  0
  6  7  1  0
  7  8  1  0
  8  9  2  0
  9 10  1  0
 10 11  2  0
 10 12  1  0
 12 13  1  0
 13 14  1  0
 14 15  2  0
 15 16  1  0
 16 17  2  0
 17 18  1  0
 18 19  1  0
 19 20  1  0
 20 21  2  0
 21 22  1  0
 22 23  2  0
 23 24  1  0
 24 25  2  0
 18 26  2  0
  2 27  1  0
 27 28  2  0
 28 29  1  0
 29 30  2  0
 30 31  1  0
 31 32  2  0
 32 33  1  0
 33 34  2  0
 34 35  1  0
 35 36  2  0
  9  5  1  0
 26 14  1  0
 36 27  1  0
 25 20  1  0
 35 30  1  0
  4 37  1  0
  4 38  1  0
  6 39  1  0
 12 40  1  0
 13 41  1  0
 13 42  1  0
 15 43  1  0
 16 44  1  0
 17 45  1  0
 21 46  1  0
 22 47  1  0
 23 48  1  0
 24 49  1  0
 25 50  1  0
 26 51  1  0
 28 52  1  0
 29 53  1  0
 31 54  1  0
 32 55  1  0
 33 56  1  0
 34 57  1  0
 36 58  1  0
M  CHG  2   3  -1   7  -1
M  END
>  <UniqueID>  (43) 
38

>  <SMILES>  (43) 
O=C([N-]Cc1c[n-]nc1C(=O)NCc1cccc(Oc2ccccc2)c1)c1ccc2ccccc2c1

>  <Energy>  (43) 
100.62807599496165

>  <Genealogy>  (43) 
O=C([N-]Cc1c[n-]nc1C(=O)NCc1cccc(Oc2ccccc2)c1)c1ccc2ccccc2c1 (protonated)
O=C([N-]Cc1c[n-]nc1C(=O)NCc1cccc(Oc2ccccc2)c1)c1ccc2ccccc2c1 (3D coordinates assigned)
O=C([N-]Cc1c[n-]nc1C(=O)NCc1cccc(Oc2ccccc2)c1)c1ccc2ccccc2c1 (optimized conformer: 100.62807599496165 kcal/mol)

>  <smiles>  (43) 
O=C(NCc1c[nH]nc1C(=O)NCc1cccc(Oc2ccccc2)c1)c1ccc2ccccc2c1

>  <score_type>  (43) 
oracle

>  <origin>  (43) 
adg

>  <m_score__min__energy>  (43) 
-13.039999999999999

>  <m_primary>  (43) 
energy

$$$$
43:0
     RDKit          3D

 45 47  0  0  0  0  0  0  0  0999 V2000
   59.1498   25.9868   47.2369 H   0  0  0  0  0  0  0  0  0  0  0  0
   59.1650   26.9640   46.7320 C   0  0  0  0  0  0  0  0  0  0  0  0
   60.0340   27.9650   47.1750 C   0  0  0  0  0  0  0  0  0  0  0  0
   60.7013   27.7751   48.0286 H   0  0  0  0  0  0  0  0  0  0  0  0
   60.0560   29.2080   46.5340 C   0  0  0  0  0  0  0  0  0  0  0  0
   61.1400   30.4680   47.0960 Cl  0  0  0  0  0  0  0  0  0  0  0  0
   59.2050   29.4500   45.4490 C   0  0  0  0  0  0  0  0  0  0  0  0
   59.2169   30.4311   44.9516 H   0  0  0  0  0  0  0  0  0  0  0  0
   58.3360   28.4450   44.9930 C   0  0  0  0  0  0  0  0  0  0  0  0
   57.3940   28.7170   43.8530 C   0  0  0  0  0  0  0  0  0  0  0  0
   56.9982   27.7640   43.4721 H   0  0  0  0  0  0  0  0  0  0  0  0
   57.9370   29.2417   43.0531 H   0  0  0  0  0  0  0  0  0  0  0  0
   56.2600   29.5730   44.3200 C   0  0  0  0  0  0  0  0  0  0  0  0
   55.2570   29.0340   44.8590 O   0  0  0  0  0  0  0  0  0  0  0  0
   56.2890   30.9810   44.0540 N   0  0  0  0  0  0  0  0  0  0  0  0
   57.2010   31.9500   44.5930 C   0  0  0  0  0  0  0  0  0  0  0  0
   57.8380   32.9150   43.7910 C   0  0  0  0  0  0  0  0  0  0  0  0
   57.6491   32.9384   42.7076 H   0  0  0  0  0  0  0  0  0  0  0  0
   58.7100   33.8440   44.3660 C   0  0  0  0  0  0  0  0  0  0  0  0
   59.2163   34.5856   43.7307 H   0  0  0  0  0  0  0  0  0  0  0  0
   58.9420   33.8350   45.7470 C   0  0  0  0  0  0  0  0  0  0  0  0
   60.0590   35.0010   46.4490 S   0  0  0  0  0  0  0  0  0  0  0  0
   60.0200   36.2590   45.6300 O   0  0  0  0  0  0  0  0  0  0  0  0
   59.6750   35.3370   47.8640 O   0  0  0  0  0  0  0  0  0  0  0  0
   61.6740   34.3610   46.4260 N   0  0  0  0  0  0  0  0  0  0  0  0
   62.3120   33.8360   47.4350 C   0  0  0  0  0  0  0  0  0  0  0  0
   63.3860   32.9780   47.1690 C   0  0  0  0  0  0  0  0  0  0  0  0
   63.6766   32.7628   46.1301 H   0  0  0  0  0  0  0  0  0  0  0  0
   64.0850   32.3980   48.2250 C   0  0  0  0  0  0  0  0  0  0  0  0
   64.9319   31.7261   48.0217 H   0  0  0  0  0  0  0  0  0  0  0  0
   63.7100   32.6700   49.5400 C   0  0  0  0  0  0  0  0  0  0  0  0
   64.2617   32.2206   50.3789 H   0  0  0  0  0  0  0  0  0  0  0  0
   62.6240   33.5210   49.7830 C   0  0  0  0  0  0  0  0  0  0  0  0
   62.2360   33.8540   51.1940 C   0  0  0  0  0  0  0  0  0  0  0  0
   62.8811   33.3003   51.8921 H   0  0  0  0  0  0  0  0  0  0  0  0
   62.3562   34.9344   51.3621 H   0  0  0  0  0  0  0  0  0  0  0  0
   61.1863   33.5713   51.3621 H   0  0  0  0  0  0  0  0  0  0  0  0
   61.9630   34.0960   48.7350 N   0  0  0  0  0  0  0  0  0  0  0  0
   61.1820   34.7510   48.9570 H   0  0  0  0  0  0  0  0  0  0  0  0
   58.2850   32.8960   46.5520 C   0  0  0  0  0  0  0  0  0  0  0  0
   58.4515   32.8933   47.6393 H   0  0  0  0  0  0  0  0  0  0  0  0
   57.4180   31.9620   45.9770 C   0  0  0  0  0  0  0  0  0  0  0  0
   56.9021   31.2306   46.6165 H   0  0  0  0  0  0  0  0  0  0  0  0
   58.3150   27.2030   45.6480 C   0  0  0  0  0  0  0  0  0  0  0  0
   57.6272   26.4152   45.3069 H   0  0  0  0  0  0  0  0  0  0  0  0
  1  2  1  0
  2  3  2  0
  3  4  1  0
  3  5  1  0
  5  6  1  0
  5  7  2  0
  7  8  1  0
  7  9  1  0
  9 10  1  0
 10 11  1  0
 10 12  1  0
 10 13  1  0
 13 14  2  0
 13 15  1  0
 15 16  1  0
 16 17  2  0
 17 18  1  0
 17 19  1  0
 19 20  1  0
 19 21  2  0
 21 22  1  0
 22 23  2  0
 22 24  2  0
 22 25  1  0
 25 26  2  0
 26 27  1  0
 27 28  1  0
 27 29  2  0
 29 30  1  0
 29 31  1  0
 31 32  1  0
 31 33  2  0
 33 34  1  0
 34 35  1  0
 34 36  1  0
 34 37  1  0
 33 38  1  0
 38 39  1  0
 21 40  1  0
 40 41  1  0
 40 42  2  0
 42 43  1  0
  9 44  2  0
 44 45  1  0
 44  2  1  0
 42 16  1  0
 38 26  1  0
M  CHG  1  15  -1
M  END
>  <UniqueID>  (44) 
39

>  <SMILES>  (44) 
Cc1ccc/c(=N/S(=O)(=O)c2ccc([N-]C(=O)Cc3cccc(Cl)c3)cc2)[nH]1

>  <Energy>  (44) 
53.07699046897746

>  <Genealogy>  (44) 
Cc1cccc(=NS(=O)(=O)c2ccc([N-]C(=O)Cc3cccc(Cl)c3)cc2)[nH]1 (protonated)
Cc1ccc/c(=N/S(=O)(=O)c2ccc([N-]C(=O)Cc3cccc(Cl)c3)cc2)[nH]1 (cis-trans isomerization)
Cc1ccc/c(=N/S(=O)(=O)c2ccc([N-]C(=O)Cc3cccc(Cl)c3)cc2)[nH]1 (3D coordinates assigned)
Cc1ccc/c(=N/S(=O)(=O)c2ccc([N-]C(=O)Cc3cccc(Cl)c3)cc2)[nH]1 (optimized conformer: 53.07699046897746 kcal/mol)

>  <smiles>  (44) 
Cc1cccc(=NS(=O)(=O)c2ccc(NC(=O)Cc3cccc(Cl)c3)cc2)[nH]1

>  <score_type>  (44) 
oracle

>  <origin>  (44) 
adg

>  <m_score__min__energy>  (44) 
-10.789999999999999

>  <m_primary>  (44) 
energy

$$$$
44:0
     RDKit          3D

 47 50  0  0  0  0  0  0  0  0999 V2000
   55.3720   30.1890   52.7080 C   0  0  0  0  0  0  0  0  0  0  0  0
   56.3530   30.0940   51.6790 O   0  0  0  0  0  0  0  0  0  0  0  0
   57.3870   31.0230   51.4830 C   0  0  0  0  0  0  0  0  0  0  0  0
   58.3730   30.7260   50.5340 C   0  0  0  0  0  0  0  0  0  0  0  0
   59.4130   31.6270   50.2880 C   0  0  0  0  0  0  0  0  0  0  0  0
   59.4840   32.8400   50.9940 C   0  0  0  0  0  0  0  0  0  0  0  0
   60.5730   33.8350   50.6860 C   0  0  0  0  0  0  0  0  0  0  0  0
   61.5980   33.2600   49.2850 S   0  0  0  0  0  0  0  0  0  0  0  0
   60.5250   33.9570   48.0310 C   0  0  0  0  0  0  0  0  0  0  0  0
   59.6370   34.9430   48.2420 N   0  0  0  0  0  0  0  0  0  0  0  0
   59.0210   35.1700   47.0940 N   0  0  0  0  0  0  0  0  0  0  0  0
   59.5680   34.3060   46.2150 C   0  0  0  0  0  0  0  0  0  0  0  0
   59.1640   34.2160   44.7760 C   0  0  0  0  0  0  0  0  0  0  0  0
   57.3840   33.8360   44.5810 S   0  0  0  0  0  0  0  0  0  0  0  0
   57.5540   32.1080   45.0310 C   0  0  0  0  0  0  0  0  0  0  0  0
   56.6290   31.1630   44.7150 N   0  0  0  0  0  0  0  0  0  0  0  0
   57.2110   30.0650   45.2300 C   0  0  0  0  0  0  0  0  0  0  0  0
   56.7200   28.8050   45.1620 N   0  0  0  0  0  0  0  0  0  0  0  0
   57.4440   27.7830   45.7120 C   0  0  0  0  0  0  0  0  0  0  0  0
   56.9200   26.3840   45.6440 C   0  0  0  0  0  0  0  0  0  0  0  0
   58.6870   28.0440   46.3340 C   0  0  0  0  0  0  0  0  0  0  0  0
   59.1610   29.3680   46.3730 C   0  0  0  0  0  0  0  0  0  0  0  0
   60.4650   29.7190   47.0260 C   0  0  0  0  0  0  0  0  0  0  0  0
   58.3820   30.3270   45.8100 N   0  0  0  0  0  0  0  0  0  0  0  0
   58.6270   31.6180   45.7000 N   0  0  0  0  0  0  0  0  0  0  0  0
   60.4930   33.5630   46.7840 O   0  0  0  0  0  0  0  0  0  0  0  0
   58.5000   33.1360   51.9520 C   0  0  0  0  0  0  0  0  0  0  0  0
   57.4590   32.2360   52.1950 C   0  0  0  0  0  0  0  0  0  0  0  0
   55.8650   30.1413   53.6902 H   0  0  0  0  0  0  0  0  0  0  0  0
   54.8334   31.1435   52.6141 H   0  0  0  0  0  0  0  0  0  0  0  0
   54.6602   29.3556   52.6141 H   0  0  0  0  0  0  0  0  0  0  0  0
   58.3288   29.7776   49.9786 H   0  0  0  0  0  0  0  0  0  0  0  0
   60.1801   31.3852   49.5376 H   0  0  0  0  0  0  0  0  0  0  0  0
   60.1161   34.8013   50.4262 H   0  0  0  0  0  0  0  0  0  0  0  0
   61.2149   33.9420   51.5728 H   0  0  0  0  0  0  0  0  0  0  0  0
   59.4320   35.4350   49.1390 H   0  0  0  0  0  0  0  0  0  0  0  0
   59.3765   35.1783   44.2874 H   0  0  0  0  0  0  0  0  0  0  0  0
   59.7368   33.3981   44.3146 H   0  0  0  0  0  0  0  0  0  0  0  0
   56.7750   25.9968   46.6633 H   0  0  0  0  0  0  0  0  0  0  0  0
   55.9587   26.3781   45.1093 H   0  0  0  0  0  0  0  0  0  0  0  0
   57.6409   25.7480   45.1093 H   0  0  0  0  0  0  0  0  0  0  0  0
   59.2728   27.2264   46.7794 H   0  0  0  0  0  0  0  0  0  0  0  0
   60.3478   29.6875   48.1193 H   0  0  0  0  0  0  0  0  0  0  0  0
   61.2352   28.9962   46.7188 H   0  0  0  0  0  0  0  0  0  0  0  0
   60.7683   30.7307   46.7188 H   0  0  0  0  0  0  0  0  0  0  0  0
   58.5492   34.0806   52.5135 H   0  0  0  0  0  0  0  0  0  0  0  0
   56.6920   32.4761   52.9461 H   0  0  0  0  0  0  0  0  0  0  0  0
  1  2  1  0
  2  3  1  0
  3  4  2  0
  4  5  1  0
  5  6  2  0
  6  7  1  0
  7  8  1  0
  8  9  1  0
  9 10  2  0
 10 11  1  0
 11 12  2  0
 12 13  1  0
 13 14  1  0
 14 15  1  0
 15 16  1  0
 16 17  2  0
 17 18  1  0
 18 19  2  0
 19 20  1  0
 19 21  1  0
 21 22  2  0
 22 23  1  0
 22 24  1  0
 24 25  1  0
 12 26  1  0
  6 27  1  0
 27 28  2  0
 28  3  1  0
 26  9  1  0
 25 15  2  0
 24 17  1  0
  1 29  1  0
  1 30  1  0
  1 31  1  0
  4 32  1  0
  5 33  1  0
  7 34  1  0
  7 35  1  0
 10 36  1  0
 13 37  1  0
 13 38  1  0
 20 39  1  0
 20 40  1  0
 20 41  1  0
 21 42  1  0
 23 43  1  0
 23 44  1  0
 23 45  1  0
 27 46  1  0
 28 47  1  0
M  CHG  1  10   1
M  END
>  <UniqueID>  (45) 
40

>  <SMILES>  (45) 
COc1ccc(CSc2[nH+]nc(CSc3nc4nc(C)cc(C)n4n3)o2)cc1

>  <Energy>  (45) 
112.82392838441088

>  <Genealogy>  (45) 
COc1ccc(CSc2[nH+]nc(CSc3nc4nc(C)cc(C)n4n3)o2)cc1 (protonated)
COc1ccc(CSc2[nH+]nc(CSc3nc4nc(C)cc(C)n4n3)o2)cc1 (3D coordinates assigned)
COc1ccc(CSc2[nH+]nc(CSc3nc4nc(C)cc(C)n4n3)o2)cc1 (optimized conformer: 112.82392838441088 kcal/mol)

>  <smiles>  (45) 
COc1ccc(CSc2nnc(CSc3nc4nc(C)cc(C)n4n3)o2)cc1

>  <score_type>  (45) 
oracle

>  <origin>  (45) 
adg

>  <m_score__min__energy>  (45) 
-7.9800000000000004

>  <m_primary>  (45) 
energy

$$$$
45:0
     RDKit          3D

 33 35  0  0  0  0  0  0  0  0999 V2000
   60.1500   34.3140   49.4190 N   0  0  0  0  0  0  0  0  0  0  0  0
   59.6410   34.0200   48.4230 C   0  0  0  0  0  0  0  0  0  0  0  0
   59.0060   33.6540   47.1840 C   0  0  0  0  0  0  0  0  0  0  0  0
   58.5290   34.6470   46.3210 C   0  0  0  0  0  0  0  0  0  0  0  0
   57.9090   34.2910   45.1210 C   0  0  0  0  0  0  0  0  0  0  0  0
   57.7630   32.9440   44.7780 C   0  0  0  0  0  0  0  0  0  0  0  0
   58.2390   31.9330   45.6350 C   0  0  0  0  0  0  0  0  0  0  0  0
   58.0850   30.5010   45.2710 C   0  0  0  0  0  0  0  0  0  0  0  0
   57.4880   30.1350   44.0520 C   0  0  0  0  0  0  0  0  0  0  0  0
   57.3410   28.7870   43.7110 C   0  0  0  0  0  0  0  0  0  0  0  0
   57.7980   27.7830   44.5760 C   0  0  0  0  0  0  0  0  0  0  0  0
   57.6030   26.3340   44.2250 C   0  0  0  0  0  0  0  0  0  0  0  0
   57.2280   25.5530   45.4450 C   0  0  0  0  0  0  0  0  0  0  0  0
   58.0740   24.2190   46.0430 S   0  0  0  0  0  0  0  0  0  0  0  0
   56.9550   23.9490   47.2690 C   0  0  0  0  0  0  0  0  0  0  0  0
   57.0390   23.0250   48.1190 O   0  0  0  0  0  0  0  0  0  0  0  0
   55.9390   24.8380   47.2380 N   0  0  0  0  0  0  0  0  0  0  0  0
   56.0820   25.7260   46.2200 C   0  0  0  0  0  0  0  0  0  0  0  0
   55.1460   26.7260   45.9800 O   0  0  0  0  0  0  0  0  0  0  0  0
   58.3840   28.1440   45.7990 C   0  0  0  0  0  0  0  0  0  0  0  0
   58.5300   29.4900   46.1420 C   0  0  0  0  0  0  0  0  0  0  0  0
   58.8620   32.3020   46.8420 C   0  0  0  0  0  0  0  0  0  0  0  0
   58.6423   35.7081   46.5877 H   0  0  0  0  0  0  0  0  0  0  0  0
   57.5346   35.0730   44.4440 H   0  0  0  0  0  0  0  0  0  0  0  0
   57.2727   32.6716   43.8317 H   0  0  0  0  0  0  0  0  0  0  0  0
   57.1340   30.9147   43.3615 H   0  0  0  0  0  0  0  0  0  0  0  0
   56.8640   28.5128   42.7585 H   0  0  0  0  0  0  0  0  0  0  0  0
   56.8016   26.2460   43.4766 H   0  0  0  0  0  0  0  0  0  0  0  0
   58.5430   25.9337   43.8173 H   0  0  0  0  0  0  0  0  0  0  0  0
   55.1380   24.8390   47.9070 H   0  0  0  0  0  0  0  0  0  0  0  0
   58.7303   27.3625   46.4914 H   0  0  0  0  0  0  0  0  0  0  0  0
   58.9965   29.7616   47.1005 H   0  0  0  0  0  0  0  0  0  0  0  0
   59.2387   31.5238   47.5220 H   0  0  0  0  0  0  0  0  0  0  0  0
  1  2  3  0
  2  3  1  0
  3  4  2  0
  4  5  1  0
  5  6  2  0
  6  7  1  0
  7  8  1  0
  8  9  2  0
  9 10  1  0
 10 11  2  0
 11 12  1  0
 12 13  1  0
 13 14  1  0
 14 15  1  0
 15 16  2  0
 15 17  1  0
 17 18  1  0
 18 19  1  0
 11 20  1  0
 20 21  2  0
  7 22  2  0
 22  3  1  0
 21  8  1  0
 18 13  2  0
  4 23  1  0
  5 24  1  0
  6 25  1  0
  9 26  1  0
 10 27  1  0
 12 28  1  0
 12 29  1  0
 17 30  1  0
 20 31  1  0
 21 32  1  0
 22 33  1  0
M  CHG  1  19  -1
M  END
>  <UniqueID>  (46) 
41

>  <SMILES>  (46) 
N#Cc1cccc(-c2ccc(Cc3sc(=O)[nH]c3[O-])cc2)c1

>  <Energy>  (46) 
69.13556322540718

>  <Genealogy>  (46) 
N#Cc1cccc(-c2ccc(Cc3sc(=O)[nH]c3[O-])cc2)c1 (protonated)
N#Cc1cccc(-c2ccc(Cc3sc(=O)[nH]c3[O-])cc2)c1 (3D coordinates assigned)
N#Cc1cccc(-c2ccc(Cc3sc(=O)[nH]c3[O-])cc2)c1 (optimized conformer: 69.13556322540718 kcal/mol)

>  <smiles>  (46) 
N#Cc1cccc(-c2ccc(Cc3sc(=O)[nH]c3O)cc2)c1

>  <score_type>  (46) 
oracle

>  <origin>  (46) 
adg

>  <m_score__min__energy>  (46) 
-11.859999999999999

>  <m_primary>  (46) 
energy

$$$$
46:0
     RDKit          3D

 33 35  0  0  0  0  0  0  0  0999 V2000
   54.4550   26.3270   45.7020 O   0  0  0  0  0  0  0  0  0  0  0  0
   54.8450   25.0260   45.9940 C   0  0  0  0  0  0  0  0  0  0  0  0
   54.1210   23.8950   45.6700 C   0  0  0  0  0  0  0  0  0  0  0  0
   54.8600   22.8210   46.1330 C   0  0  0  0  0  0  0  0  0  0  0  0
   55.9920   23.3580   46.7140 C   0  0  0  0  0  0  0  0  0  0  0  0
   57.0080   22.6170   47.3040 O   0  0  0  0  0  0  0  0  0  0  0  0
   55.9850   24.7030   46.6350 N   0  0  0  0  0  0  0  0  0  0  0  0
   57.0290   25.6160   47.1010 C   0  0  0  0  0  0  0  0  0  0  0  0
   57.5160   26.4820   45.9570 C   0  0  0  0  0  0  0  0  0  0  0  0
   57.6860   27.8580   46.1960 C   0  0  0  0  0  0  0  0  0  0  0  0
   58.0580   28.7220   45.1650 C   0  0  0  0  0  0  0  0  0  0  0  0
   58.2630   28.2260   43.8790 C   0  0  0  0  0  0  0  0  0  0  0  0
   58.1090   26.8640   43.6220 C   0  0  0  0  0  0  0  0  0  0  0  0
   57.7470   25.9770   44.6490 C   0  0  0  0  0  0  0  0  0  0  0  0
   57.6460   24.5380   44.3220 C   0  0  0  0  0  0  0  0  0  0  0  0
   58.5360   23.6150   44.8930 C   0  0  0  0  0  0  0  0  0  0  0  0
   58.4540   22.2590   44.5590 C   0  0  0  0  0  0  0  0  0  0  0  0
   57.4930   21.8210   43.6430 C   0  0  0  0  0  0  0  0  0  0  0  0
   56.6170   22.7380   43.0560 C   0  0  0  0  0  0  0  0  0  0  0  0
   56.6960   24.0940   43.3870 C   0  0  0  0  0  0  0  0  0  0  0  0
   53.1528   23.8562   45.1493 H   0  0  0  0  0  0  0  0  0  0  0  0
   54.5989   21.7553   46.0543 H   0  0  0  0  0  0  0  0  0  0  0  0
   56.6215   26.2587   47.8953 H   0  0  0  0  0  0  0  0  0  0  0  0
   57.8730   25.0274   47.4900 H   0  0  0  0  0  0  0  0  0  0  0  0
   57.5237   28.2578   47.2079 H   0  0  0  0  0  0  0  0  0  0  0  0
   58.1894   29.7951   45.3677 H   0  0  0  0  0  0  0  0  0  0  0  0
   58.5467   28.9098   43.0654 H   0  0  0  0  0  0  0  0  0  0  0  0
   58.2728   26.4803   42.6042 H   0  0  0  0  0  0  0  0  0  0  0  0
   59.3004   23.9590   45.6054 H   0  0  0  0  0  0  0  0  0  0  0  0
   59.1460   21.5371   45.0173 H   0  0  0  0  0  0  0  0  0  0  0  0
   57.4264   20.7540   43.3842 H   0  0  0  0  0  0  0  0  0  0  0  0
   55.8641   22.3924   42.3324 H   0  0  0  0  0  0  0  0  0  0  0  0
   56.0128   24.8149   42.9143 H   0  0  0  0  0  0  0  0  0  0  0  0
  1  2  1  0
  2  3  2  0
  3  4  1  0
  4  5  2  0
  5  6  1  0
  5  7  1  0
  7  8  1  0
  8  9  1  0
  9 10  2  0
 10 11  1  0
 11 12  2  0
 12 13  1  0
 13 14  2  0
 14 15  1  0
 15 16  2  0
 16 17  1  0
 17 18  2  0
 18 19  1  0
 19 20  2  0
  7  2  1  0
 14  9  1  0
 20 15  1  0
  3 21  1  0
  4 22  1  0
  8 23  1  0
  8 24  1  0
 10 25  1  0
 11 26  1  0
 12 27  1  0
 13 28  1  0
 16 29  1  0
 17 30  1  0
 18 31  1  0
 19 32  1  0
 20 33  1  0
M  CHG  2   1  -1   6  -1
M  END
>  <UniqueID>  (47) 
42

>  <SMILES>  (47) 
[O-]c1ccc([O-])n1Cc1ccccc1-c1ccccc1

>  <Energy>  (47) 
71.19398194252203

>  <Genealogy>  (47) 
[O-]c1ccc([O-])n1Cc1ccccc1-c1ccccc1 (protonated)
[O-]c1ccc([O-])n1Cc1ccccc1-c1ccccc1 (3D coordinates assigned)
[O-]c1ccc([O-])n1Cc1ccccc1-c1ccccc1 (optimized conformer: 71.19398194252203 kcal/mol)

>  <smiles>  (47) 
Oc1ccc(O)n1Cc1ccccc1-c1ccccc1

>  <score_type>  (47) 
oracle

>  <origin>  (47) 
adg

>  <m_score__min__energy>  (47) 
-11.640000000000001

>  <m_primary>  (47) 
energy

$$$$
47:0
     RDKit          3D

 30 32  0  0  0  0  0  0  0  0999 V2000
   55.5180   26.7620   45.9360 O   0  0  0  0  0  0  0  0  0  0  0  0
   56.7310   27.4560   45.9520 C   0  0  0  0  0  0  0  0  0  0  0  0
   57.7730   26.8930   46.6930 C   0  0  0  0  0  0  0  0  0  0  0  0
   59.0160   27.5100   46.7640 C   0  0  0  0  0  0  0  0  0  0  0  0
   59.2550   28.7200   46.1000 C   0  0  0  0  0  0  0  0  0  0  0  0
   60.5700   29.3010   46.1490 N   0  0  0  0  0  0  0  0  0  0  0  0
   60.8730   30.4950   46.8840 C   0  0  0  0  0  0  0  0  0  0  0  0
   59.9710   31.2320   47.4320 N   0  0  0  0  0  0  0  0  0  0  0  0
   60.6060   32.3810   48.0690 C   0  0  0  0  0  0  0  0  0  0  0  0
   62.1090   32.2190   47.7850 C   0  0  0  0  0  0  0  0  0  0  0  0
   62.1880   30.9890   47.0240 N   0  0  0  0  0  0  0  0  0  0  0  0
   58.2170   29.3160   45.3450 C   0  0  0  0  0  0  0  0  0  0  0  0
   58.4160   30.5490   44.6880 C   0  0  0  0  0  0  0  0  0  0  0  0
   57.3900   31.1330   43.9450 C   0  0  0  0  0  0  0  0  0  0  0  0
   56.1520   30.5060   43.8500 C   0  0  0  0  0  0  0  0  0  0  0  0
   55.9230   29.2940   44.5030 C   0  0  0  0  0  0  0  0  0  0  0  0
   56.9420   28.6800   45.2640 C   0  0  0  0  0  0  0  0  0  0  0  0
   55.0840   26.3390   46.7430 H   0  0  0  0  0  0  0  0  0  0  0  0
   57.6069   25.9466   47.2285 H   0  0  0  0  0  0  0  0  0  0  0  0
   59.8220   27.0426   47.3487 H   0  0  0  0  0  0  0  0  0  0  0  0
   61.3460   28.8440   45.6210 H   0  0  0  0  0  0  0  0  0  0  0  0
   60.2302   33.3193   47.6350 H   0  0  0  0  0  0  0  0  0  0  0  0
   60.3933   32.4232   49.1474 H   0  0  0  0  0  0  0  0  0  0  0  0
   62.4903   33.0677   47.1982 H   0  0  0  0  0  0  0  0  0  0  0  0
   62.7140   32.1899   48.7032 H   0  0  0  0  0  0  0  0  0  0  0  0
   63.0570   30.5520   46.6430 H   0  0  0  0  0  0  0  0  0  0  0  0
   59.3900   31.0547   44.7626 H   0  0  0  0  0  0  0  0  0  0  0  0
   57.5603   32.0916   43.4330 H   0  0  0  0  0  0  0  0  0  0  0  0
   55.3490   30.9680   43.2569 H   0  0  0  0  0  0  0  0  0  0  0  0
   54.9376   28.8115   44.4240 H   0  0  0  0  0  0  0  0  0  0  0  0
  1  2  1  0
  2  3  2  0
  3  4  1  0
  4  5  2  0
  5  6  1  0
  6  7  1  0
  7  8  2  0
  8  9  1  0
  9 10  1  0
 10 11  1  0
  5 12  1  0
 12 13  2  0
 13 14  1  0
 14 15  2  0
 15 16  1  0
 16 17  2  0
 17  2  1  0
 11  7  1  0
 17 12  1  0
  1 18  1  0
  3 19  1  0
  4 20  1  0
  6 21  1  0
  9 22  1  0
  9 23  1  0
 10 24  1  0
 10 25  1  0
 11 26  1  0
 13 27  1  0
 14 28  1  0
 15 29  1  0
 16 30  1  0
M  END
>  <UniqueID>  (48) 
43

>  <SMILES>  (48) 
Oc1ccc(NC2=NCCN2)c2ccccc12

>  <Energy>  (48) 
55.70167140677483

>  <Genealogy>  (48) 
Oc1ccc(NC2=NCCN2)c2ccccc12 (3D coordinates assigned)
Oc1ccc(NC2=NCCN2)c2ccccc12 (nonaromatic ring conformer: 55.70167140677483 kcal/mol)

>  <smiles>  (48) 
Oc1ccc(NC2=NCCN2)c2ccccc12

>  <score_type>  (48) 
oracle

>  <origin>  (48) 
adg

>  <m_score__min__energy>  (48) 
-6.6399999999999997

>  <m_primary>  (48) 
energy

$$$$
48:0
     RDKit          3D

 47 50  0  0  0  0  0  0  0  0999 V2000
   58.0010   32.7130   42.1750 C   0  0  0  0  0  0  0  0  0  0  0  0
   58.0850   32.1230   43.5080 N   0  0  0  0  0  0  0  0  0  0  0  0
   58.0030   30.8070   43.8090 C   0  0  0  0  0  0  0  0  0  0  0  0
   58.1130   30.6210   45.1850 C   0  0  0  0  0  0  0  0  0  0  0  0
   58.1140   29.3300   45.8990 C   0  0  0  0  0  0  0  0  0  0  0  0
   58.9120   28.9680   46.9060 C   0  0  0  0  0  0  0  0  0  0  0  0
   60.0840   29.6990   47.4300 C   0  0  0  0  0  0  0  0  0  0  0  0
   61.1330   30.2520   46.7090 C   0  0  0  0  0  0  0  0  0  0  0  0
   62.0250   30.7610   47.5790 N   0  0  0  0  0  0  0  0  0  0  0  0
   61.5860   30.5540   48.8090 N   0  0  0  0  0  0  0  0  0  0  0  0
   62.3280   30.8970   50.0200 C   0  0  0  0  0  0  0  0  0  0  0  0
   62.7330   32.3750   50.0010 C   0  0  0  0  0  0  0  0  0  0  0  0
   63.4780   32.6830   48.8360 O   0  0  0  0  0  0  0  0  0  0  0  0
   62.9720   33.8340   48.1820 C   0  0  0  0  0  0  0  0  0  0  0  0
   63.1080   33.6840   46.6690 C   0  0  0  0  0  0  0  0  0  0  0  0
   63.7430   34.7960   46.1490 F   0  0  0  0  0  0  0  0  0  0  0  0
   61.8580   33.5660   46.0880 F   0  0  0  0  0  0  0  0  0  0  0  0
   63.8550   32.5580   46.3740 F   0  0  0  0  0  0  0  0  0  0  0  0
   60.4120   29.8950   48.7600 C   0  0  0  0  0  0  0  0  0  0  0  0
   58.4490   27.6590   47.3740 C   0  0  0  0  0  0  0  0  0  0  0  0
   58.9810   26.9920   48.2990 O   0  0  0  0  0  0  0  0  0  0  0  0
   57.3240   27.1980   46.6370 N   0  0  0  0  0  0  0  0  0  0  0  0
   57.1260   28.2660   45.7210 C   0  0  0  0  0  0  0  0  0  0  0  0
   56.1770   28.2910   44.8940 O   0  0  0  0  0  0  0  0  0  0  0  0
   58.2760   31.8840   45.7250 C   0  0  0  0  0  0  0  0  0  0  0  0
   58.4030   32.3120   47.0470 C   0  0  0  0  0  0  0  0  0  0  0  0
   58.5300   33.6920   47.2830 C   0  0  0  0  0  0  0  0  0  0  0  0
   58.5160   34.6070   46.2070 C   0  0  0  0  0  0  0  0  0  0  0  0
   58.3720   34.1500   44.8860 C   0  0  0  0  0  0  0  0  0  0  0  0
   58.2510   32.7740   44.6780 C   0  0  0  0  0  0  0  0  0  0  0  0
   57.8465   33.7985   42.2635 H   0  0  0  0  0  0  0  0  0  0  0  0
   58.9358   32.5191   41.6286 H   0  0  0  0  0  0  0  0  0  0  0  0
   57.1575   32.2659   41.6286 H   0  0  0  0  0  0  0  0  0  0  0  0
   57.8688   30.0002   43.0734 H   0  0  0  0  0  0  0  0  0  0  0  0
   61.2206   30.2711   45.6127 H   0  0  0  0  0  0  0  0  0  0  0  0
   62.9320   31.2190   47.3350 H   0  0  0  0  0  0  0  0  0  0  0  0
   61.6945   30.7066   50.8988 H   0  0  0  0  0  0  0  0  0  0  0  0
   63.2372   30.2796   50.0669 H   0  0  0  0  0  0  0  0  0  0  0  0
   61.8258   32.9967   50.0225 H   0  0  0  0  0  0  0  0  0  0  0  0
   63.3604   32.5775   50.8816 H   0  0  0  0  0  0  0  0  0  0  0  0
   61.9104   33.9614   48.4404 H   0  0  0  0  0  0  0  0  0  0  0  0
   63.5464   34.7135   48.5083 H   0  0  0  0  0  0  0  0  0  0  0  0
   59.8176   29.5694   49.6264 H   0  0  0  0  0  0  0  0  0  0  0  0
   58.4037   31.5920   47.8786 H   0  0  0  0  0  0  0  0  0  0  0  0
   58.6411   34.0619   48.3130 H   0  0  0  0  0  0  0  0  0  0  0  0
   58.6185   35.6843   46.4044 H   0  0  0  0  0  0  0  0  0  0  0  0
   58.3551   34.8545   44.0413 H   0  0  0  0  0  0  0  0  0  0  0  0
  1  2  1  0
  2  3  1  0
  3  4  2  0
  4  5  1  0
  5  6  2  0
  6  7  1  0
  7  8  1  0
  8  9  2  0
  9 10  1  0
 10 11  1  0
 11 12  1  0
 12 13  1  0
 13 14  1  0
 14 15  1  0
 15 16  1  0
 15 17  1  0
 15 18  1  0
 10 19  1  0
  6 20  1  0
 20 21  2  0
 20 22  1  0
 22 23  1  0
 23 24  2  0
  4 25  1  0
 25 26  2  0
 26 27  1  0
 27 28  2  0
 28 29  1  0
 29 30  2  0
 30  2  1  0
 23  5  1  0
 30 25  1  0
 19  7  2  0
  1 31  1  0
  1 32  1  0
  1 33  1  0
  3 34  1  0
  8 35  1  0
  9 36  1  0
 11 37  1  0
 11 38  1  0
 12 39  1  0
 12 40  1  0
 14 41  1  0
 14 42  1  0
 19 43  1  0
 26 44  1  0
 27 45  1  0
 28 46  1  0
 29 47  1  0
M  CHG  2   9   1  22  -1
M  END
>  <UniqueID>  (49) 
44

>  <SMILES>  (49) 
Cn1cc(C2=C(c3c[nH+]n(CCOCC(F)(F)F)c3)C(=O)[N-]C2=O)c2ccccc21

>  <Energy>  (49) 
143.81307291242408

>  <Genealogy>  (49) 
Cn1cc(C2=C(c3c[nH+]n(CCOCC(F)(F)F)c3)C(=O)[N-]C2=O)c2ccccc21 (protonated)
Cn1cc(C2=C(c3c[nH+]n(CCOCC(F)(F)F)c3)C(=O)[N-]C2=O)c2ccccc21 (3D coordinates assigned)
Cn1cc(C2=C(c3c[nH+]n(CCOCC(F)(F)F)c3)C(=O)[N-]C2=O)c2ccccc21 (nonaromatic ring conformer: 143.81307291242408 kcal/mol)

>  <smiles>  (49) 
Cn1cc(C2=C(c3cnn(CCOCC(F)(F)F)c3)C(=O)NC2=O)c2ccccc21

>  <score_type>  (49) 
oracle

>  <origin>  (49) 
adg

>  <m_score__min__energy>  (49) 
-7.2199999999999998

>  <m_primary>  (49) 
energy

$$$$
49:0
     RDKit          3D

 59 63  0  0  0  0  0  0  0  0999 V2000
   60.9730   31.0860   47.4210 O   0  0  0  0  0  0  0  0  0  0  0  0
   59.9910   30.7440   48.1320 C   0  0  0  0  0  0  0  0  0  0  0  0
   58.6520   30.9200   47.6530 N   0  0  0  0  0  0  0  0  0  0  0  0
   58.3550   31.8910   46.6420 C   0  0  0  0  0  0  0  0  0  0  0  0
   58.0660   33.2070   47.0270 C   0  0  0  0  0  0  0  0  0  0  0  0
   57.8300   34.1890   46.0630 C   0  0  0  0  0  0  0  0  0  0  0  0
   57.8720   33.8620   44.7070 C   0  0  0  0  0  0  0  0  0  0  0  0
   58.1340   32.5480   44.3110 C   0  0  0  0  0  0  0  0  0  0  0  0
   58.3710   31.5490   45.2720 C   0  0  0  0  0  0  0  0  0  0  0  0
   58.5500   30.1860   44.8590 N   0  0  0  0  0  0  0  0  0  0  0  0
   59.7550   29.4840   45.3090 C   0  0  0  0  0  0  0  0  0  0  0  0
   59.9820   28.2180   44.4760 C   0  0  0  0  0  0  0  0  0  0  0  0
   58.8060   27.4360   44.4110 O   0  0  0  0  0  0  0  0  0  0  0  0
   57.8010   28.1470   43.7120 C   0  0  0  0  0  0  0  0  0  0  0  0
   57.3730   29.3930   44.4920 C   0  0  0  0  0  0  0  0  0  0  0  0
   60.2240   30.2840   49.5100 C   0  0  0  0  0  0  0  0  0  0  0  0
   60.8460   29.0860   49.6860 N   0  0  0  0  0  0  0  0  0  0  0  0
   61.1700   28.6230   50.9190 C   0  0  0  0  0  0  0  0  0  0  0  0
   60.8810   29.4010   52.0370 C   0  0  0  0  0  0  0  0  0  0  0  0
   60.2420   30.5870   51.8760 N   0  0  0  0  0  0  0  0  0  0  0  0
   59.8790   31.0490   50.6480 C   0  0  0  0  0  0  0  0  0  0  0  0
   59.0730   32.3260   50.5690 C   0  0  0  0  0  0  0  0  0  0  0  0
   59.9020   33.5520   50.6030 N   0  0  0  0  0  0  0  0  0  0  0  0
   61.1460   33.4810   51.3930 C   0  0  0  0  0  0  0  0  0  0  0  0
   62.3310   32.8810   50.6200 C   0  0  0  0  0  0  0  0  0  0  0  0
   62.3530   33.2490   49.1620 C   0  0  0  0  0  0  0  0  0  0  0  0
   63.4660   32.8800   48.3890 C   0  0  0  0  0  0  0  0  0  0  0  0
   63.4990   33.1540   47.0190 C   0  0  0  0  0  0  0  0  0  0  0  0
   62.4210   33.7970   46.4110 C   0  0  0  0  0  0  0  0  0  0  0  0
   61.3050   34.1610   47.1670 C   0  0  0  0  0  0  0  0  0  0  0  0
   61.2530   33.8730   48.5390 C   0  0  0  0  0  0  0  0  0  0  0  0
   60.0380   34.2850   49.3300 C   0  0  0  0  0  0  0  0  0  0  0  0
   57.8690   30.6380   48.2860 H   0  0  0  0  0  0  0  0  0  0  0  0
   58.0248   33.4679   48.0948 H   0  0  0  0  0  0  0  0  0  0  0  0
   57.6107   35.2215   46.3727 H   0  0  0  0  0  0  0  0  0  0  0  0
   57.6986   34.6399   43.9488 H   0  0  0  0  0  0  0  0  0  0  0  0
   58.1550   32.2933   43.2411 H   0  0  0  0  0  0  0  0  0  0  0  0
   60.6238   30.1498   45.1996 H   0  0  0  0  0  0  0  0  0  0  0  0
   59.6267   29.1976   46.3633 H   0  0  0  0  0  0  0  0  0  0  0  0
   60.2788   28.5065   43.4568 H   0  0  0  0  0  0  0  0  0  0  0  0
   60.7732   27.6216   44.9538 H   0  0  0  0  0  0  0  0  0  0  0  0
   58.1923   28.4529   42.7305 H   0  0  0  0  0  0  0  0  0  0  0  0
   56.9266   27.4911   43.5886 H   0  0  0  0  0  0  0  0  0  0  0  0
   56.7044   30.0023   43.8661 H   0  0  0  0  0  0  0  0  0  0  0  0
   56.8483   29.0823   45.4075 H   0  0  0  0  0  0  0  0  0  0  0  0
   61.6561   27.6430   51.0345 H   0  0  0  0  0  0  0  0  0  0  0  0
   61.1682   29.0572   53.0417 H   0  0  0  0  0  0  0  0  0  0  0  0
   58.5009   32.3188   49.6295 H   0  0  0  0  0  0  0  0  0  0  0  0
   58.4214   32.3520   51.4549 H   0  0  0  0  0  0  0  0  0  0  0  0
   61.4163   34.4995   51.7087 H   0  0  0  0  0  0  0  0  0  0  0  0
   60.9485   32.8173   52.2477 H   0  0  0  0  0  0  0  0  0  0  0  0
   63.2631   33.2383   51.0820 H   0  0  0  0  0  0  0  0  0  0  0  0
   62.2274   31.7872   50.6730 H   0  0  0  0  0  0  0  0  0  0  0  0
   64.3175   32.3719   48.8651 H   0  0  0  0  0  0  0  0  0  0  0  0
   64.3747   32.8627   46.4205 H   0  0  0  0  0  0  0  0  0  0  0  0
   62.4501   34.0178   45.3338 H   0  0  0  0  0  0  0  0  0  0  0  0
   60.4618   34.6765   46.6841 H   0  0  0  0  0  0  0  0  0  0  0  0
   60.1118   35.3601   49.5509 H   0  0  0  0  0  0  0  0  0  0  0  0
   59.1535   34.0504   48.7196 H   0  0  0  0  0  0  0  0  0  0  0  0
  1  2  2  0
  2  3  1  0
  3  4  1  0
  4  5  2  0
  5  6  1  0
  6  7  2  0
  7  8  1  0
  8  9  2  0
  9 10  1  0
 10 11  1  0
 11 12  1  0
 12 13  1  0
 13 14  1  0
 14 15  1  0
  2 16  1  0
 16 17  2  0
 17 18  1  0
 18 19  2  0
 19 20  1  0
 20 21  2  0
 21 22  1  0
 22 23  1  0
 23 24  1  0
 24 25  1  0
 25 26  1  0
 26 27  2  0
 27 28  1  0
 28 29  2  0
 29 30  1  0
 30 31  2  0
 31 32  1  0
  9  4  1  0
 15 10  1  0
 21 16  1  0
 32 23  1  0
 31 26  1  0
  3 33  1  0
  5 34  1  0
  6 35  1  0
  7 36  1  0
  8 37  1  0
 11 38  1  0
 11 39  1  0
 12 40  1  0
 12 41  1  0
 14 42  1  0
 14 43  1  0
 15 44  1  0
 15 45  1  0
 18 46  1  0
 19 47  1  0
 22 48  1  0
 22 49  1  0
 24 50  1  0
 24 51  1  0
 25 52  1  0
 25 53  1  0
 27 54  1  0
 28 55  1  0
 29 56  1  0
 30 57  1  0
 32 58  1  0
 32 59  1  0
M  END
>  <UniqueID>  (50) 
45

>  <SMILES>  (50) 
O=C(Nc1ccccc1N1CCOCC1)c1nccnc1CN1CCc2ccccc2C1

>  <Energy>  (50) 
92.83577860972918

>  <Genealogy>  (50) 
O=C(Nc1ccccc1N1CCOCC1)c1nccnc1CN1CCc2ccccc2C1 (3D coordinates assigned)
O=C(Nc1ccccc1N1CCOCC1)c1nccnc1CN1CCc2ccccc2C1 (nonaromatic ring conformer: 92.83577860972918 kcal/mol)

>  <smiles>  (50) 
O=C(Nc1ccccc1N1CCOCC1)c1nccnc1CN1CCc2ccccc2C1

>  <score_type>  (50) 
oracle

>  <origin>  (50) 
adg

>  <m_score__min__energy>  (50) 
-8.5999999999999996

>  <m_primary>  (50) 
energy

$$$$
50:0
     RDKit          3D

 39 41  0  0  0  0  0  0  0  0999 V2000
   53.8430   22.3190   46.5650 H   0  0  0  0  0  0  0  0  0  0  0  0
   54.6160   22.3000   45.8620 N   0  0  0  0  0  0  0  0  0  0  0  0
   55.5620   23.1870   45.8550 C   0  0  0  0  0  0  0  0  0  0  0  0
   55.1920   24.4870   45.9510 N   0  0  0  0  0  0  0  0  0  0  0  0
   55.8490   25.6640   45.9810 C   0  0  0  0  0  0  0  0  0  0  0  0
   55.1440   26.7010   46.0770 O   0  0  0  0  0  0  0  0  0  0  0  0
   57.2380   25.7930   45.9110 C   0  0  0  0  0  0  0  0  0  0  0  0
   57.9580   26.9930   45.9410 C   0  0  0  0  0  0  0  0  0  0  0  0
   57.5610   28.3350   46.0530 C   0  0  0  0  0  0  0  0  0  0  0  0
   56.4991   28.6001   46.1625 H   0  0  0  0  0  0  0  0  0  0  0  0
   58.5540   29.3350   46.0220 C   0  0  0  0  0  0  0  0  0  0  0  0
   58.1760   30.7460   46.1760 C   0  0  0  0  0  0  0  0  0  0  0  0
   58.8500   31.4640   46.9600 O   0  0  0  0  0  0  0  0  0  0  0  0
   57.0720   31.3390   45.4760 N   0  0  0  0  0  0  0  0  0  0  0  0
   56.6940   31.2240   44.0620 C   0  0  1  0  0  0  0  0  0  0  0  0
   55.9766   32.0339   43.8635 H   0  0  0  0  0  0  0  0  0  0  0  0
   57.9010   31.4300   43.1420 C   0  0  0  0  0  0  0  0  0  0  0  0
   58.8041   31.5841   43.7509 H   0  0  0  0  0  0  0  0  0  0  0  0
   58.0340   30.5416   42.5072 H   0  0  0  0  0  0  0  0  0  0  0  0
   57.7318   32.3123   42.5072 H   0  0  0  0  0  0  0  0  0  0  0  0
   55.9590   29.9080   43.7460 C   0  0  0  0  0  0  0  0  0  0  0  0
   55.9312   29.2916   44.6567 H   0  0  0  0  0  0  0  0  0  0  0  0
   54.9464   30.1644   43.4011 H   0  0  0  0  0  0  0  0  0  0  0  0
   56.6410   29.1110   42.6350 C   0  0  0  0  0  0  0  0  0  0  0  0
   57.2949   28.3468   43.0804 H   0  0  0  0  0  0  0  0  0  0  0  0
   55.8771   28.6223   42.0124 H   0  0  0  0  0  0  0  0  0  0  0  0
   57.2419   29.7902   42.0124 H   0  0  0  0  0  0  0  0  0  0  0  0
   59.9180   28.9770   45.9450 C   0  0  0  0  0  0  0  0  0  0  0  0
   60.6911   29.7592   45.9675 H   0  0  0  0  0  0  0  0  0  0  0  0
   60.2920   27.6290   45.8400 C   0  0  0  0  0  0  0  0  0  0  0  0
   61.3504   27.3398   45.7615 H   0  0  0  0  0  0  0  0  0  0  0  0
   59.2840   26.6670   45.8380 C   0  0  0  0  0  0  0  0  0  0  0  0
   59.4450   25.3430   45.7480 N   0  0  0  0  0  0  0  0  0  0  0  0
   60.3600   24.8460   45.6620 H   0  0  0  0  0  0  0  0  0  0  0  0
   58.2050   24.7880   45.7900 C   0  0  0  0  0  0  0  0  0  0  0  0
   58.0350   23.4020   45.7160 C   0  0  0  0  0  0  0  0  0  0  0  0
   59.0800   22.7000   45.6090 O   0  0  0  0  0  0  0  0  0  0  0  0
   56.8460   22.7420   45.7520 N   0  0  0  0  0  0  0  0  0  0  0  0
   56.9380   21.7000   45.6850 H   0  0  0  0  0  0  0  0  0  0  0  0
  1  2  1  0
  2  3  2  0
  3  4  1  0
  4  5  1  0
  5  6  2  0
  5  7  1  0
  7  8  1  0
  8  9  2  0
  9 10  1  0
  9 11  1  0
 11 12  1  0
 12 13  2  0
 12 14  1  0
 14 15  1  0
 15 16  1  6
 15 17  1  0
 17 18  1  0
 17 19  1  0
 17 20  1  0
 15 21  1  0
 21 22  1  0
 21 23  1  0
 21 24  1  0
 24 25  1  0
 24 26  1  0
 24 27  1  0
 11 28  2  0
 28 29  1  0
 28 30  1  0
 30 31  1  0
 30 32  2  0
 32 33  1  0
 33 34  1  0
 33 35  1  0
 35 36  1  0
 36 37  2  0
 36 38  1  0
 38 39  1  0
 38  3  1  0
 35  7  2  0
 32  8  1  0
M  CHG  2   4  -1  14  -1
M  END
>  <UniqueID>  (51) 
46

>  <SMILES>  (51) 
[H]/N=c1\[n-]c(=O)c2c([nH]c3ccc(C(=O)[N-][C@@H](C)CC)cc32)c(=O)[nH]1

>  <Energy>  (51) 
101.28682610455719

>  <Genealogy>  (51) 
CCC(C)[N-]C(=O)c1ccc2[nH]c3c(=O)[nH]c(=N)[n-]c(=O)c3c2c1 (protonated)
CC[C@H](C)[N-]C(=O)c1ccc2[nH]c3c(=O)[nH]c(=N)[n-]c(=O)c3c2c1 (chirality)
[H]/N=c1\[n-]c(=O)c2c([nH]c3ccc(C(=O)[N-][C@@H](C)CC)cc32)c(=O)[nH]1 (cis-trans isomerization)
[H]/N=c1\[n-]c(=O)c2c([nH]c3ccc(C(=O)[N-][C@@H](C)CC)cc32)c(=O)[nH]1 (3D coordinates assigned)
[H]/N=c1\[n-]c(=O)c2c([nH]c3ccc(C(=O)[N-][C@@H](C)CC)cc32)c(=O)[nH]1 (optimized conformer: 101.28682610455719 kcal/mol)

>  <smiles>  (51) 
CCC(C)NC(=O)c1ccc2[nH]c3c(=O)[nH]c(=N)[nH]c(=O)c3c2c1

>  <score_type>  (51) 
oracle

>  <origin>  (51) 
adg

>  <m_score__min__energy>  (51) 
-10.65

>  <m_primary>  (51) 
energy

$$$$
51:0
     RDKit          3D

 25 26  0  0  0  0  0  0  0  0999 V2000
   56.4220   30.7100   44.8550 O   0  0  0  0  0  0  0  0  0  0  0  0
   57.4550   30.0590   45.1760 C   0  0  0  0  0  0  0  0  0  0  0  0
   58.5520   30.7290   45.8180 N   0  0  0  0  0  0  0  0  0  0  0  0
   58.6650   32.1590   45.9000 C   0  0  0  0  0  0  0  0  0  0  0  0
   59.0480   32.7480   47.1150 C   0  0  0  0  0  0  0  0  0  0  0  0
   59.1790   34.1360   47.2190 C   0  0  0  0  0  0  0  0  0  0  0  0
   59.5360   34.6970   48.4010 F   0  0  0  0  0  0  0  0  0  0  0  0
   58.9440   34.9450   46.1060 C   0  0  0  0  0  0  0  0  0  0  0  0
   58.5880   34.3680   44.8840 C   0  0  0  0  0  0  0  0  0  0  0  0
   58.4550   32.9790   44.7740 C   0  0  0  0  0  0  0  0  0  0  0  0
   58.1710   32.4390   43.5620 F   0  0  0  0  0  0  0  0  0  0  0  0
   57.5130   28.6040   44.9180 C   0  0  0  0  0  0  0  0  0  0  0  0
   58.1090   28.0960   43.7510 C   0  0  0  0  0  0  0  0  0  0  0  0
   58.1490   26.7150   43.5450 C   0  0  0  0  0  0  0  0  0  0  0  0
   57.6010   25.8540   44.4960 C   0  0  0  0  0  0  0  0  0  0  0  0
   57.0190   26.3900   45.6460 C   0  0  0  0  0  0  0  0  0  0  0  0
   56.9880   27.7370   45.8290 N   0  0  0  0  0  0  0  0  0  0  0  0
   59.2290   30.1560   46.3710 H   0  0  0  0  0  0  0  0  0  0  0  0
   59.2464   32.1133   47.9912 H   0  0  0  0  0  0  0  0  0  0  0  0
   59.0391   36.0376   46.1909 H   0  0  0  0  0  0  0  0  0  0  0  0
   58.4118   35.0071   44.0062 H   0  0  0  0  0  0  0  0  0  0  0  0
   58.5405   28.7804   43.0058 H   0  0  0  0  0  0  0  0  0  0  0  0
   58.6119   26.3071   42.6343 H   0  0  0  0  0  0  0  0  0  0  0  0
   57.6272   24.7652   44.3414 H   0  0  0  0  0  0  0  0  0  0  0  0
   56.5851   25.7222   46.4048 H   0  0  0  0  0  0  0  0  0  0  0  0
  1  2  2  0
  2  3  1  0
  3  4  1  0
  4  5  2  0
  5  6  1  0
  6  7  1  0
  6  8  2  0
  8  9  1  0
  9 10  2  0
 10 11  1  0
  2 12  1  0
 12 13  2  0
 13 14  1  0
 14 15  2  0
 15 16  1  0
 16 17  2  0
 10  4  1  0
 17 12  1  0
  3 18  1  0
  5 19  1  0
  8 20  1  0
  9 21  1  0
 13 22  1  0
 14 23  1  0
 15 24  1  0
 16 25  1  0
M  END
>  <UniqueID>  (52) 
47

>  <SMILES>  (52) 
O=C(Nc1cc(F)ccc1F)c1ccccn1

>  <Energy>  (52) 
31.60884895373974

>  <Genealogy>  (52) 
O=C(Nc1cc(F)ccc1F)c1ccccn1 (3D coordinates assigned)
O=C(Nc1cc(F)ccc1F)c1ccccn1 (optimized conformer: 31.60884895373974 kcal/mol)

>  <smiles>  (52) 
O=C(Nc1cc(F)ccc1F)c1ccccn1

>  <score_type>  (52) 
oracle

>  <origin>  (52) 
adg

>  <m_score__min__energy>  (52) 
-5.9400000000000004

>  <m_primary>  (52) 
energy

$$$$
52:0
     RDKit          3D

 40 41  0  0  0  0  0  0  0  0999 V2000
   59.6850   35.9280   45.6200 C   0  0  0  0  0  0  0  0  0  0  0  0
   59.8240   34.5550   46.7410 S   0  0  0  0  0  0  0  0  0  0  0  0
   61.2740   34.2330   46.9720 O   0  0  0  0  0  0  0  0  0  0  0  0
   59.1950   34.9200   48.0580 O   0  0  0  0  0  0  0  0  0  0  0  0
   59.0110   33.1540   46.0510 C   0  0  0  0  0  0  0  0  0  0  0  0
   57.7660   33.3080   45.4290 C   0  0  0  0  0  0  0  0  0  0  0  0
   57.1030   32.1970   44.8980 C   0  0  0  0  0  0  0  0  0  0  0  0
   57.6790   30.9240   44.9880 C   0  0  0  0  0  0  0  0  0  0  0  0
   56.8120   29.5290   44.3480 S   0  0  0  0  0  0  0  0  0  0  0  0
   56.7930   29.5740   42.8450 O   0  0  0  0  0  0  0  0  0  0  0  0
   55.3940   29.5780   44.8430 O   0  0  0  0  0  0  0  0  0  0  0  0
   57.5470   28.0410   44.8770 N   0  0  0  0  0  0  0  0  0  0  0  0
   57.2580   27.7510   46.2940 C   0  0  1  0  0  0  0  0  0  0  0  0
   56.4530   26.4460   46.4040 C   0  0  0  0  0  0  0  0  0  0  0  0
   55.1420   26.6370   45.9440 O   0  0  0  0  0  0  0  0  0  0  0  0
   58.5210   27.6710   47.1390 C   0  0  0  0  0  0  0  0  0  0  0  0
   58.7110   28.5760   48.2000 C   0  0  0  0  0  0  0  0  0  0  0  0
   59.8710   28.5240   48.9770 C   0  0  0  0  0  0  0  0  0  0  0  0
   60.8510   27.5670   48.7090 C   0  0  0  0  0  0  0  0  0  0  0  0
   60.6700   26.6550   47.6660 C   0  0  0  0  0  0  0  0  0  0  0  0
   59.5130   26.7040   46.8840 C   0  0  0  0  0  0  0  0  0  0  0  0
   58.9250   30.7690   45.6120 C   0  0  0  0  0  0  0  0  0  0  0  0
   59.5860   31.8790   46.1460 C   0  0  0  0  0  0  0  0  0  0  0  0
   59.5905   36.8617   46.1938 H   0  0  0  0  0  0  0  0  0  0  0  0
   60.5828   35.9763   44.9863 H   0  0  0  0  0  0  0  0  0  0  0  0
   58.7957   35.7954   44.9863 H   0  0  0  0  0  0  0  0  0  0  0  0
   57.3081   34.3056   45.3578 H   0  0  0  0  0  0  0  0  0  0  0  0
   56.1262   32.3236   44.4082 H   0  0  0  0  0  0  0  0  0  0  0  0
   58.5790   28.1200   44.7240 H   0  0  0  0  0  0  0  0  0  0  0  0
   56.6624   28.5868   46.6899 H   0  0  0  0  0  0  0  0  0  0  0  0
   56.9398   25.6682   45.7972 H   0  0  0  0  0  0  0  0  0  0  0  0
   56.4182   26.1375   47.4593 H   0  0  0  0  0  0  0  0  0  0  0  0
   55.1490   27.4720   45.4050 H   0  0  0  0  0  0  0  0  0  0  0  0
   57.9405   29.3299   48.4191 H   0  0  0  0  0  0  0  0  0  0  0  0
   60.0122   29.2385   49.8014 H   0  0  0  0  0  0  0  0  0  0  0  0
   61.7658   27.5307   49.3188 H   0  0  0  0  0  0  0  0  0  0  0  0
   61.4399   25.8968   47.4601 H   0  0  0  0  0  0  0  0  0  0  0  0
   59.3761   25.9832   46.0644 H   0  0  0  0  0  0  0  0  0  0  0  0
   59.3835   29.7715   45.6815 H   0  0  0  0  0  0  0  0  0  0  0  0
   60.5596   31.7517   46.6419 H   0  0  0  0  0  0  0  0  0  0  0  0
  1  2  1  0
  2  3  2  0
  2  4  2  0
  2  5  1  0
  5  6  2  0
  6  7  1  0
  7  8  2  0
  8  9  1  0
  9 10  2  0
  9 11  2  0
  9 12  1  0
 12 13  1  0
 13 14  1  0
 14 15  1  0
 13 16  1  0
 16 17  2  0
 17 18  1  0
 18 19  2  0
 19 20  1  0
 20 21  2  0
  8 22  1  0
 22 23  2  0
 23  5  1  0
 21 16  1  0
  1 24  1  0
  1 25  1  0
  1 26  1  0
  6 27  1  0
  7 28  1  0
 12 29  1  0
 13 30  1  1
 14 31  1  0
 14 32  1  0
 15 33  1  0
 17 34  1  0
 18 35  1  0
 19 36  1  0
 20 37  1  0
 21 38  1  0
 22 39  1  0
 23 40  1  0
M  END
>  <UniqueID>  (53) 
48

>  <SMILES>  (53) 
CS(=O)(=O)c1ccc(S(=O)(=O)N[C@@H](CO)c2ccccc2)cc1

>  <Energy>  (53) 
34.94568165133129

>  <Genealogy>  (53) 
CS(=O)(=O)c1ccc(S(=O)(=O)N[C@@H](CO)c2ccccc2)cc1 (chirality)
CS(=O)(=O)c1ccc(S(=O)(=O)N[C@@H](CO)c2ccccc2)cc1 (3D coordinates assigned)
CS(=O)(=O)c1ccc(S(=O)(=O)N[C@@H](CO)c2ccccc2)cc1 (optimized conformer: 34.94568165133129 kcal/mol)

>  <smiles>  (53) 
CS(=O)(=O)c1ccc(S(=O)(=O)NC(CO)c2ccccc2)cc1

>  <score_type>  (53) 
oracle

>  <origin>  (53) 
adg

>  <m_score__min__energy>  (53) 
-8.7400000000000002

>  <m_primary>  (53) 
energy

$$$$
53:0
     RDKit          3D

 60 62  0  0  0  0  0  0  0  0999 V2000
   56.2370   21.8270   44.6630 C   0  0  0  0  0  0  0  0  0  0  0  0
   56.5580   23.3260   44.7970 C   0  0  0  0  0  0  0  0  0  0  0  0
   56.3650   24.0000   43.4300 C   0  0  0  0  0  0  0  0  0  0  0  0
   58.0150   23.5340   45.2520 C   0  0  0  0  0  0  0  0  0  0  0  0
   55.6460   23.9550   45.7100 O   0  0  0  0  0  0  0  0  0  0  0  0
   55.5190   25.3330   45.9420 C   0  0  0  0  0  0  0  0  0  0  0  0
   54.4570   25.9440   45.6560 O   0  0  0  0  0  0  0  0  0  0  0  0
   56.5870   26.0570   46.5600 N   0  0  0  0  0  0  0  0  0  0  0  0
   57.4980   26.9390   45.8900 C   0  0  0  0  0  0  0  0  0  0  0  0
   57.8010   26.7000   44.5440 C   0  0  0  0  0  0  0  0  0  0  0  0
   58.7000   27.5240   43.8630 C   0  0  0  0  0  0  0  0  0  0  0  0
   59.3190   28.5850   44.5280 C   0  0  0  0  0  0  0  0  0  0  0  0
   59.0560   28.8180   45.8860 C   0  0  0  0  0  0  0  0  0  0  0  0
   59.7250   29.9590   46.6010 C   0  0  0  0  0  0  0  0  0  0  0  0
   58.7030   30.8760   47.1990 C   0  0  0  0  0  0  0  0  0  0  0  0
   58.7490   31.1440   48.4300 O   0  0  0  0  0  0  0  0  0  0  0  0
   57.7770   31.5560   46.3410 N   0  0  0  0  0  0  0  0  0  0  0  0
   57.4130   31.2690   45.1210 C   0  0  0  0  0  0  0  0  0  0  0  0
   56.5660   30.2170   44.9560 N   0  0  0  0  0  0  0  0  0  0  0  0
   56.1250   29.8080   43.7390 C   0  0  0  0  0  0  0  0  0  0  0  0
   56.5430   30.4700   42.5910 C   0  0  0  0  0  0  0  0  0  0  0  0
   57.3870   31.5710   42.7080 C   0  0  0  0  0  0  0  0  0  0  0  0
   57.8190   32.0110   43.9760 C   0  0  0  0  0  0  0  0  0  0  0  0
   58.5830   33.1830   44.1110 O   0  0  0  0  0  0  0  0  0  0  0  0
   58.1780   34.3350   44.8490 C   0  0  0  0  0  0  0  0  0  0  0  0
   59.4030   35.1240   45.3130 C   0  0  0  0  0  0  0  0  0  0  0  0
   60.0330   34.4970   46.5290 C   0  0  0  0  0  0  0  0  0  0  0  0
   61.2720   33.8400   46.4260 C   0  0  0  0  0  0  0  0  0  0  0  0
   61.8710   33.2850   47.5610 C   0  0  0  0  0  0  0  0  0  0  0  0
   61.2410   33.3840   48.8060 C   0  0  0  0  0  0  0  0  0  0  0  0
   60.0080   34.0330   48.9160 C   0  0  0  0  0  0  0  0  0  0  0  0
   59.4050   34.5870   47.7830 C   0  0  0  0  0  0  0  0  0  0  0  0
   58.1410   27.9940   46.5630 C   0  0  0  0  0  0  0  0  0  0  0  0
   56.1416   21.3815   45.6642 H   0  0  0  0  0  0  0  0  0  0  0  0
   55.2917   21.7020   44.1145 H   0  0  0  0  0  0  0  0  0  0  0  0
   57.0482   21.3259   44.1145 H   0  0  0  0  0  0  0  0  0  0  0  0
   56.0649   25.0480   43.5770 H   0  0  0  0  0  0  0  0  0  0  0  0
   57.3094   23.9645   42.8671 H   0  0  0  0  0  0  0  0  0  0  0  0
   55.5825   23.4700   42.8671 H   0  0  0  0  0  0  0  0  0  0  0  0
   58.0585   23.5402   46.3511 H   0  0  0  0  0  0  0  0  0  0  0  0
   58.6403   22.7160   44.8649 H   0  0  0  0  0  0  0  0  0  0  0  0
   58.3865   24.4943   44.8649 H   0  0  0  0  0  0  0  0  0  0  0  0
   57.3276   25.8572   44.0191 H   0  0  0  0  0  0  0  0  0  0  0  0
   58.9208   27.3372   42.8017 H   0  0  0  0  0  0  0  0  0  0  0  0
   60.0155   29.2404   43.9846 H   0  0  0  0  0  0  0  0  0  0  0  0
   60.3647   29.5591   47.4015 H   0  0  0  0  0  0  0  0  0  0  0  0
   60.3307   30.5251   45.8781 H   0  0  0  0  0  0  0  0  0  0  0  0
   55.4372   28.9531   43.6617 H   0  0  0  0  0  0  0  0  0  0  0  0
   56.2104   30.1276   41.5999 H   0  0  0  0  0  0  0  0  0  0  0  0
   57.7195   32.1020   41.8039 H   0  0  0  0  0  0  0  0  0  0  0  0
   57.5545   34.9760   44.2084 H   0  0  0  0  0  0  0  0  0  0  0  0
   57.6044   34.0125   45.7305 H   0  0  0  0  0  0  0  0  0  0  0  0
   60.1425   35.1479   44.4990 H   0  0  0  0  0  0  0  0  0  0  0  0
   59.0794   36.1417   45.5769 H   0  0  0  0  0  0  0  0  0  0  0  0
   61.7717   33.7624   45.4491 H   0  0  0  0  0  0  0  0  0  0  0  0
   62.8390   32.7698   47.4748 H   0  0  0  0  0  0  0  0  0  0  0  0
   61.7161   32.9510   49.6986 H   0  0  0  0  0  0  0  0  0  0  0  0
   59.5117   34.1079   49.8948 H   0  0  0  0  0  0  0  0  0  0  0  0
   58.4340   35.0960   47.8735 H   0  0  0  0  0  0  0  0  0  0  0  0
   57.9260   28.1751   47.6265 H   0  0  0  0  0  0  0  0  0  0  0  0
  1  2  1  0
  2  3  1  0
  2  4  1  0
  2  5  1  0
  5  6  1  0
  6  7  2  0
  6  8  1  0
  8  9  1  0
  9 10  2  0
 10 11  1  0
 11 12  2  0
 12 13  1  0
 13 14  1  0
 14 15  1  0
 15 16  2  0
 15 17  1  0
 17 18  2  3
 18 19  1  0
 19 20  1  0
 20 21  2  0
 21 22  1  0
 22 23  2  0
 23 24  1  0
 24 25  1  0
 25 26  1  0
 26 27  1  0
 27 28  2  0
 28 29  1  0
 29 30  2  0
 30 31  1  0
 31 32  2  0
 13 33  2  0
 33  9  1  0
 23 18  1  0
 32 27  1  0
  1 34  1  0
  1 35  1  0
  1 36  1  0
  3 37  1  0
  3 38  1  0
  3 39  1  0
  4 40  1  0
  4 41  1  0
  4 42  1  0
 10 43  1  0
 11 44  1  0
 12 45  1  0
 14 46  1  0
 14 47  1  0
 20 48  1  0
 21 49  1  0
 22 50  1  0
 25 51  1  0
 25 52  1  0
 26 53  1  0
 26 54  1  0
 28 55  1  0
 29 56  1  0
 30 57  1  0
 31 58  1  0
 32 59  1  0
 33 60  1  0
M  CHG  2   8  -1  19  -1
M  END
>  <UniqueID>  (54) 
49

>  <SMILES>  (54) 
CC(C)(C)OC(=O)[N-]c1cccc(CC(=O)N=c2[n-]cccc2OCCc2ccccc2)c1

>  <Energy>  (54) 
63.6741773360668

>  <Genealogy>  (54) 
CC(C)(C)OC(=O)[N-]c1cccc(CC(=O)N=c2[n-]cccc2OCCc2ccccc2)c1 (protonated)
CC(C)(C)OC(=O)[N-]c1cccc(CC(=O)N=c2[n-]cccc2OCCc2ccccc2)c1 (3D coordinates assigned)
CC(C)(C)OC(=O)[N-]c1cccc(CC(=O)N=c2[n-]cccc2OCCc2ccccc2)c1 (optimized conformer: 63.6741773360668 kcal/mol)

>  <smiles>  (54) 
CC(C)(C)OC(=O)Nc1cccc(CC(=O)N=c2[nH]cccc2OCCc2ccccc2)c1

>  <score_type>  (54) 
oracle

>  <origin>  (54) 
adg

>  <m_score__min__energy>  (54) 
-12.59

>  <m_primary>  (54) 
energy

$$$$
54:0
     RDKit          3D

 53 56  0  0  0  0  0  0  0  0999 V2000
   64.8340   32.4230   46.7500 H   0  0  0  0  0  0  0  0  0  0  0  0
   64.1450   33.0550   47.0820 O   0  0  0  0  0  0  0  0  0  0  0  0
   62.9330   32.3490   47.1390 C   0  0  0  0  0  0  0  0  0  0  0  0
   63.1148   31.2982   46.8694 H   0  0  0  0  0  0  0  0  0  0  0  0
   62.2242   32.8082   46.4342 H   0  0  0  0  0  0  0  0  0  0  0  0
   62.3290   32.4100   48.5580 C   0  0  0  0  0  0  0  0  0  0  0  0
   63.1268   32.1342   49.2633 H   0  0  0  0  0  0  0  0  0  0  0  0
   61.8730   33.8380   48.9370 C   0  0  0  0  0  0  0  0  0  0  0  0
   62.7115   34.5330   48.7828 H   0  0  0  0  0  0  0  0  0  0  0  0
   61.5577   33.8298   49.9908 H   0  0  0  0  0  0  0  0  0  0  0  0
   60.6800   34.2980   48.0820 C   0  0  0  0  0  0  0  0  0  0  0  0
   61.0545   34.6778   47.1200 H   0  0  0  0  0  0  0  0  0  0  0  0
   60.1442   35.0863   48.6311 H   0  0  0  0  0  0  0  0  0  0  0  0
   59.7430   33.1920   47.8280 N   0  0  0  0  0  0  0  0  0  0  0  0
   58.9780   33.1420   46.6050 C   0  0  0  0  0  0  0  0  0  0  0  0
   58.3190   34.2560   46.1800 N   0  0  0  0  0  0  0  0  0  0  0  0
   57.5740   34.2570   45.0460 C   0  0  0  0  0  0  0  0  0  0  0  0
   57.0527   35.1711   44.7255 H   0  0  0  0  0  0  0  0  0  0  0  0
   57.4750   33.0900   44.2910 C   0  0  0  0  0  0  0  0  0  0  0  0
   56.8678   33.0718   43.3740 H   0  0  0  0  0  0  0  0  0  0  0  0
   58.1350   31.9760   44.6980 N   0  0  0  0  0  0  0  0  0  0  0  0
   58.8810   31.9640   45.8380 C   0  0  0  0  0  0  0  0  0  0  0  0
   59.5940   30.8160   46.2090 O   0  0  0  0  0  0  0  0  0  0  0  0
   59.0370   29.5440   46.4100 C   0  0  0  0  0  0  0  0  0  0  0  0
   58.1010   29.0710   45.4840 C   0  0  0  0  0  0  0  0  0  0  0  0
   57.8116   29.7010   44.6300 H   0  0  0  0  0  0  0  0  0  0  0  0
   57.5310   27.8040   45.6360 C   0  0  0  0  0  0  0  0  0  0  0  0
   56.7739   27.4538   44.9189 H   0  0  0  0  0  0  0  0  0  0  0  0
   57.9220   26.9760   46.7020 C   0  0  0  0  0  0  0  0  0  0  0  0
   57.3100   25.6930   46.9110 N   0  0  0  0  0  0  0  0  0  0  0  0
   56.4780   25.0710   46.1230 C   0  0  0  0  0  0  0  0  0  0  0  0
   55.1460   25.1920   46.3680 N   0  0  0  0  0  0  0  0  0  0  0  0
   54.2070   24.5750   45.6030 C   0  0  0  0  0  0  0  0  0  0  0  0
   53.1393   24.7067   45.8323 H   0  0  0  0  0  0  0  0  0  0  0  0
   54.5940   23.7760   44.5290 C   0  0  0  0  0  0  0  0  0  0  0  0
   53.8356   23.2908   43.8970 H   0  0  0  0  0  0  0  0  0  0  0  0
   55.9570   23.5960   44.2610 C   0  0  0  0  0  0  0  0  0  0  0  0
   56.3970   22.7550   43.1000 C   0  0  0  0  0  0  0  0  0  0  0  0
   56.8768   21.8379   43.4725 H   0  0  0  0  0  0  0  0  0  0  0  0
   55.5227   22.4887   42.4879 H   0  0  0  0  0  0  0  0  0  0  0  0
   57.1143   23.3214   42.4879 H   0  0  0  0  0  0  0  0  0  0  0  0
   56.9060   24.2520   45.0560 C   0  0  0  0  0  0  0  0  0  0  0  0
   57.9795   24.1294   44.8496 H   0  0  0  0  0  0  0  0  0  0  0  0
   58.8470   27.4530   47.6370 C   0  0  0  0  0  0  0  0  0  0  0  0
   59.1273   26.8270   48.4970 H   0  0  0  0  0  0  0  0  0  0  0  0
   59.4170   28.7200   47.4850 C   0  0  0  0  0  0  0  0  0  0  0  0
   60.1657   29.0743   48.2088 H   0  0  0  0  0  0  0  0  0  0  0  0
   59.7740   32.0280   48.7220 C   0  0  0  0  0  0  0  0  0  0  0  0
   59.0327   31.2900   48.3817 H   0  0  0  0  0  0  0  0  0  0  0  0
   59.5379   32.3575   49.7446 H   0  0  0  0  0  0  0  0  0  0  0  0
   61.1710   31.3830   48.7160 C   0  0  0  0  0  0  0  0  0  0  0  0
   61.2216   30.6701   47.8798 H   0  0  0  0  0  0  0  0  0  0  0  0
   61.3048   30.8927   49.6915 H   0  0  0  0  0  0  0  0  0  0  0  0
  1  2  1  0
  2  3  1  0
  3  4  1  0
  3  5  1  0
  3  6  1  0
  6  7  1  0
  6  8  1  0
  8  9  1  0
  8 10  1  0
  8 11  1  0
 11 12  1  0
 11 13  1  0
 11 14  1  0
 14 15  1  0
 15 16  2  0
 16 17  1  0
 17 18  1  0
 17 19  2  0
 19 20  1  0
 19 21  1  0
 21 22  2  0
 22 23  1  0
 23 24  1  0
 24 25  2  0
 25 26  1  0
 25 27  1  0
 27 28  1  0
 27 29  2  0
 29 30  1  0
 30 31  2  0
 31 32  1  0
 32 33  1  0
 33 34  1  0
 33 35  2  0
 35 36  1  0
 35 37  1  0
 37 38  1  0
 38 39  1  0
 38 40  1  0
 38 41  1  0
 37 42  2  0
 42 43  1  0
 29 44  1  0
 44 45  1  0
 44 46  2  0
 46 47  1  0
 14 48  1  0
 48 49  1  0
 48 50  1  0
 48 51  1  0
 51 52  1  0
 51 53  1  0
 51  6  1  0
 22 15  1  0
 46 24  1  0
 42 31  1  0
M  CHG  1  32  -1
M  END
>  <UniqueID>  (55) 
50

>  <SMILES>  (55) 
Cc1cc[n-]/c(=N/c2ccc(Oc3nccnc3N3CCC(CO)CC3)cc2)c1

>  <Energy>  (55) 
78.3158493979701

>  <Genealogy>  (55) 
Cc1cc[n-]c(=Nc2ccc(Oc3nccnc3N3CCC(CO)CC3)cc2)c1 (protonated)
Cc1cc[n-]/c(=N/c2ccc(Oc3nccnc3N3CCC(CO)CC3)cc2)c1 (cis-trans isomerization)
Cc1cc[n-]/c(=N/c2ccc(Oc3nccnc3N3CCC(CO)CC3)cc2)c1 (3D coordinates assigned)
Cc1cc[n-]/c(=N/c2ccc(Oc3nccnc3N3CCC(CO)CC3)cc2)c1 (nonaromatic ring conformer: 78.3158493979701 kcal/mol)

>  <smiles>  (55) 
Cc1cc[nH]c(=Nc2ccc(Oc3nccnc3N3CCC(CO)CC3)cc2)c1

>  <score_type>  (55) 
oracle

>  <origin>  (55) 
adg

>  <m_score__min__energy>  (55) 
-10.09

>  <m_primary>  (55) 
energy

$$$$
55:0
     RDKit          3D

 55 59  0  0  1  0  0  0  0  0999 V2000
   62.7470   33.8390   53.8890 C   0  0  0  0  0  0  0  0  0  0  0  0
   63.2710   33.6470   52.5360 N   0  0  0  0  0  0  0  0  0  0  0  0
   63.7320   34.5920   51.7090 C   0  0  0  0  0  0  0  0  0  0  0  0
   64.1080   33.9570   50.5740 N   0  0  0  0  0  0  0  0  0  0  0  0
   63.8750   32.6400   50.7130 C   0  0  0  0  0  0  0  0  0  0  0  0
   64.1470   31.5920   49.6960 C   0  0  0  0  0  0  0  0  0  0  0  0
   63.1790   31.6310   48.5940 N   0  0  0  0  0  0  0  0  0  0  0  0
   63.3620   32.8740   47.8700 C   0  0  0  0  0  0  0  0  0  0  0  0
   62.0190   33.5760   47.6410 C   0  0  0  0  0  0  0  0  0  0  0  0
   61.1120   32.4740   47.0760 C   0  0  0  0  0  0  0  0  0  0  0  0
   59.9160   33.0490   46.4150 C   0  0  0  0  0  0  0  0  0  0  0  0
   59.0940   32.2780   45.5940 C   0  0  0  0  0  0  0  0  0  0  0  0
   57.9730   32.8470   44.9840 C   0  0  0  0  0  0  0  0  0  0  0  0
   57.1920   32.1520   44.2180 N   0  0  0  0  0  0  0  0  0  0  0  0
   56.9620   30.7690   44.4920 C   0  0  0  0  0  0  0  0  0  0  0  0
   57.9080   29.7750   44.7230 C   0  0  0  0  0  0  0  0  0  0  0  0
   57.2700   28.5670   44.9500 C   0  0  0  0  0  0  0  0  0  0  0  0
   57.8860   27.2480   45.2380 C   0  0  0  0  0  0  0  0  0  0  0  0
   58.2690   26.9350   46.6690 C   0  0  0  0  0  0  0  0  0  0  0  0
   59.3290   27.3020   45.6690 C   0  0  0  0  0  0  0  0  0  0  0  0
   55.9510   28.8610   44.8510 N   0  0  0  0  0  0  0  0  0  0  0  0
   55.7760   30.1280   44.5870 N   0  0  0  0  0  0  0  0  0  0  0  0
   57.7490   34.1800   45.2450 C   0  0  0  0  0  0  0  0  0  0  0  0
   58.5610   34.9450   46.0560 C   0  0  0  0  0  0  0  0  0  0  0  0
   59.6210   34.3440   46.6140 N   0  0  0  0  0  0  0  0  0  0  0  0
   60.7520   31.5800   48.2370 C   0  0  0  0  0  0  0  0  0  0  0  0
   61.8720   31.5890   49.2280 C   0  0  0  0  0  0  0  0  0  0  0  0
   63.3370   32.4270   51.9680 C   0  0  0  0  0  0  0  0  0  0  0  0
   63.5159   33.5573   54.6234 H   0  0  0  0  0  0  0  0  0  0  0  0
   62.4746   34.8953   54.0302 H   0  0  0  0  0  0  0  0  0  0  0  0
   61.8566   33.2087   54.0302 H   0  0  0  0  0  0  0  0  0  0  0  0
   63.7934   35.6715   51.9112 H   0  0  0  0  0  0  0  0  0  0  0  0
   65.1565   31.7470   49.2876 H   0  0  0  0  0  0  0  0  0  0  0  0
   64.0629   30.6116   50.1876 H   0  0  0  0  0  0  0  0  0  0  0  0
   64.0200   33.5362   48.4518 H   0  0  0  0  0  0  0  0  0  0  0  0
   63.8120   32.6482   46.8920 H   0  0  0  0  0  0  0  0  0  0  0  0
   61.6161   33.9664   48.5872 H   0  0  0  0  0  0  0  0  0  0  0  0
   62.1041   34.4402   46.9658 H   0  0  0  0  0  0  0  0  0  0  0  0
   61.6253   31.8942   46.2947 H   0  0  0  0  0  0  0  0  0  0  0  0
   59.3291   31.2167   45.4257 H   0  0  0  0  0  0  0  0  0  0  0  0
   58.9976   29.9259   44.7250 H   0  0  0  0  0  0  0  0  0  0  0  0
   57.2992   26.7184   44.4730 H   0  0  0  0  0  0  0  0  0  0  0  0
   58.0064   27.6362   47.4748 H   0  0  0  0  0  0  0  0  0  0  0  0
   58.1029   26.0887   47.3517 H   0  0  0  0  0  0  0  0  0  0  0  0
   59.8432   28.2714   45.7450 H   0  0  0  0  0  0  0  0  0  0  0  0
   60.2608   26.8334   45.3194 H   0  0  0  0  0  0  0  0  0  0  0  0
   55.1430   28.1830   44.9650 H   0  0  0  0  0  0  0  0  0  0  0  0
   56.8750   34.6611   44.7816 H   0  0  0  0  0  0  0  0  0  0  0  0
   58.3466   36.0085   46.2380 H   0  0  0  0  0  0  0  0  0  0  0  0
   60.2280   34.9330   47.2260 H   0  0  0  0  0  0  0  0  0  0  0  0
   59.8336   31.9503   48.7159 H   0  0  0  0  0  0  0  0  0  0  0  0
   60.5847   30.5543   47.8766 H   0  0  0  0  0  0  0  0  0  0  0  0
   61.7647   32.4737   49.8729 H   0  0  0  0  0  0  0  0  0  0  0  0
   61.8123   30.6554   49.8067 H   0  0  0  0  0  0  0  0  0  0  0  0
   63.0288   31.4674   52.4086 H   0  0  0  0  0  0  0  0  0  0  0  0
  1  2  1  0
  2  3  1  0
  3  4  2  0
  4  5  1  0
  5  6  1  0
  6  7  1  0
  7  8  1  0
  8  9  1  0
  9 10  1  0
 10 11  1  0
 11 12  2  0
 12 13  1  0
 13 14  2  0
 14 15  1  0
 15 16  1  0
 16 17  2  0
 17 18  1  0
 18 19  1  0
 19 20  1  0
 17 21  1  0
 21 22  1  0
 13 23  1  0
 23 24  2  0
 24 25  1  0
 10 26  1  0
 26 27  1  0
  5 28  2  0
 28  2  1  0
 27  7  1  0
 25 11  1  0
 22 15  2  0
 20 18  1  0
  1 29  1  0
  1 30  1  0
  1 31  1  0
  3 32  1  0
  6 33  1  0
  6 34  1  0
  8 35  1  0
  8 36  1  0
  9 37  1  0
  9 38  1  0
 10 39  1  0
 12 40  1  0
 16 41  1  0
 18 42  1  0
 19 43  1  0
 19 44  1  0
 20 45  1  0
 20 46  1  0
 21 47  1  0
 23 48  1  0
 24 49  1  0
 25 50  1  0
 26 51  1  0
 26 52  1  0
 27 53  1  0
 27 54  1  0
 28 55  1  0
M  END
>  <smiles>  (56) 
Cn1cnc(CN2CCC(c3cc(=Nc4cc(C5CC5)[nH]n4)cc[nH]3)CC2)c1

>  <score_type>  (56) 
oracle

>  <origin>  (56) 
adg

>  <m_score__min__energy>  (56) 
-9.1699999999999999

>  <m_primary>  (56) 
energy

$$$$
56:0
     RDKit          3D

 38 40  0  0  0  0  0  0  0  0999 V2000
   55.9090   24.1470   46.7520 C   0  0  0  0  0  0  0  0  0  0  0  0
   55.5800   25.3580   45.8870 C   0  0  0  0  0  0  0  0  0  0  0  0
   56.2070   26.5320   46.4000 O   0  0  0  0  0  0  0  0  0  0  0  0
   57.5420   26.9140   46.1850 C   0  0  0  0  0  0  0  0  0  0  0  0
   58.6000   25.9800   46.1830 C   0  0  0  0  0  0  0  0  0  0  0  0
   59.9210   26.4070   46.0300 C   0  0  0  0  0  0  0  0  0  0  0  0
   60.2060   27.7650   45.8860 C   0  0  0  0  0  0  0  0  0  0  0  0
   59.1690   28.6990   45.8800 C   0  0  0  0  0  0  0  0  0  0  0  0
   57.8380   28.2830   46.0030 C   0  0  0  0  0  0  0  0  0  0  0  0
   56.8330   29.2580   45.9800 O   0  0  0  0  0  0  0  0  0  0  0  0
   56.2150   29.7240   44.8120 C   0  0  0  0  0  0  0  0  0  0  0  0
   55.1600   29.1750   44.3890 O   0  0  0  0  0  0  0  0  0  0  0  0
   56.8550   30.7920   44.0130 C   0  0  0  0  0  0  0  0  0  0  0  0
   56.7500   30.7200   42.6140 C   0  0  0  0  0  0  0  0  0  0  0  0
   57.3910   31.6540   41.8000 C   0  0  0  0  0  0  0  0  0  0  0  0
   58.1440   32.6790   42.3650 C   0  0  0  0  0  0  0  0  0  0  0  0
   58.2460   32.7950   43.7590 C   0  0  0  0  0  0  0  0  0  0  0  0
   58.9860   33.8480   44.3190 C   0  0  0  0  0  0  0  0  0  0  0  0
   59.0620   33.9950   45.7040 C   0  0  0  0  0  0  0  0  0  0  0  0
   58.3930   33.1030   46.5410 C   0  0  0  0  0  0  0  0  0  0  0  0
   57.6550   32.0470   46.0000 C   0  0  0  0  0  0  0  0  0  0  0  0
   57.5880   31.8580   44.6020 C   0  0  0  0  0  0  0  0  0  0  0  0
   55.8338   24.4237   47.8140 H   0  0  0  0  0  0  0  0  0  0  0  0
   55.1986   23.3362   46.5332 H   0  0  0  0  0  0  0  0  0  0  0  0
   56.9320   23.8071   46.5332 H   0  0  0  0  0  0  0  0  0  0  0  0
   55.9368   25.1770   44.8623 H   0  0  0  0  0  0  0  0  0  0  0  0
   54.4905   25.5093   45.8918 H   0  0  0  0  0  0  0  0  0  0  0  0
   58.3828   24.9083   46.3028 H   0  0  0  0  0  0  0  0  0  0  0  0
   60.7384   25.6709   46.0230 H   0  0  0  0  0  0  0  0  0  0  0  0
   61.2482   28.0997   45.7772 H   0  0  0  0  0  0  0  0  0  0  0  0
   59.3992   29.7698   45.7779 H   0  0  0  0  0  0  0  0  0  0  0  0
   56.1548   29.9170   42.1547 H   0  0  0  0  0  0  0  0  0  0  0  0
   57.3009   31.5800   40.7062 H   0  0  0  0  0  0  0  0  0  0  0  0
   58.6611   33.4009   41.7158 H   0  0  0  0  0  0  0  0  0  0  0  0
   59.5081   34.5601   43.6630 H   0  0  0  0  0  0  0  0  0  0  0  0
   59.6513   34.8168   46.1369 H   0  0  0  0  0  0  0  0  0  0  0  0
   58.4464   33.2311   47.6322 H   0  0  0  0  0  0  0  0  0  0  0  0
   57.1211   31.3563   46.6693 H   0  0  0  0  0  0  0  0  0  0  0  0
  1  2  1  0
  2  3  1  0
  3  4  1  0
  4  5  2  0
  5  6  1  0
  6  7  2  0
  7  8  1  0
  8  9  2  0
  9 10  1  0
 10 11  1  0
 11 12  2  0
 11 13  1  0
 13 14  2  0
 14 15  1  0
 15 16  2  0
 16 17  1  0
 17 18  2  0
 18 19  1  0
 19 20  2  0
 20 21  1  0
 21 22  2  0
  9  4  1  0
 22 13  1  0
 22 17  1  0
  1 23  1  0
  1 24  1  0
  1 25  1  0
  2 26  1  0
  2 27  1  0
  5 28  1  0
  6 29  1  0
  7 30  1  0
  8 31  1  0
 14 32  1  0
 15 33  1  0
 16 34  1  0
 18 35  1  0
 19 36  1  0
 20 37  1  0
 21 38  1  0
M  END
>  <UniqueID>  (57) 
51

>  <SMILES>  (57) 
CCOc1ccccc1OC(=O)c1cccc2ccccc12

>  <Energy>  (57) 
53.91925672162334

>  <Genealogy>  (57) 
CCOc1ccccc1OC(=O)c1cccc2ccccc12 (3D coordinates assigned)
CCOc1ccccc1OC(=O)c1cccc2ccccc12 (optimized conformer: 53.91925672162334 kcal/mol)

>  <smiles>  (57) 
CCOc1ccccc1OC(=O)c1cccc2ccccc12

>  <score_type>  (57) 
oracle

>  <origin>  (57) 
adg

>  <m_score__min__energy>  (57) 
-8.1300000000000008

>  <m_primary>  (57) 
energy

$$$$
57:0
     RDKit          3D

 27 29  0  0  0  0  0  0  0  0999 V2000
   58.6516   35.6505   47.0847 H   0  0  0  0  0  0  0  0  0  0  0  0
   58.9240   34.5850   47.1050 C   0  0  0  0  0  0  0  0  0  0  0  0
   58.0130   33.6880   46.8780 N   0  0  0  0  0  0  0  0  0  0  0  0
   57.9300   32.9310   45.6660 C   0  0  0  0  0  0  0  0  0  0  0  0
   57.3910   31.6950   45.5780 N   0  0  0  0  0  0  0  0  0  0  0  0
   57.4470   31.2180   44.3060 C   0  0  0  0  0  0  0  0  0  0  0  0
   57.0587   30.2265   44.0301 H   0  0  0  0  0  0  0  0  0  0  0  0
   58.0310   32.0750   43.3790 C   0  0  0  0  0  0  0  0  0  0  0  0
   58.1671   31.8707   42.3067 H   0  0  0  0  0  0  0  0  0  0  0  0
   58.4930   33.4790   44.1840 S   0  0  0  0  0  0  0  0  0  0  0  0
   60.3200   34.1970   47.3900 C   0  0  0  0  0  0  0  0  0  0  0  0
   61.2030   33.8300   46.3580 C   0  0  0  0  0  0  0  0  0  0  0  0
   60.8531   33.8296   45.3151 H   0  0  0  0  0  0  0  0  0  0  0  0
   62.5210   33.4660   46.6470 C   0  0  0  0  0  0  0  0  0  0  0  0
   63.2021   33.1821   45.8312 H   0  0  0  0  0  0  0  0  0  0  0  0
   62.9790   33.4610   47.9720 C   0  0  0  0  0  0  0  0  0  0  0  0
   62.0970   33.8290   49.0140 C   0  0  0  0  0  0  0  0  0  0  0  0
   62.5660   33.8210   50.3330 C   0  0  0  0  0  0  0  0  0  0  0  0
   61.8958   34.1041   51.1580 H   0  0  0  0  0  0  0  0  0  0  0  0
   63.8860   33.4530   50.5990 C   0  0  0  0  0  0  0  0  0  0  0  0
   64.2610   33.4434   51.6330 H   0  0  0  0  0  0  0  0  0  0  0  0
   64.7270   33.0970   49.5420 C   0  0  0  0  0  0  0  0  0  0  0  0
   65.7684   32.8069   49.7455 H   0  0  0  0  0  0  0  0  0  0  0  0
   64.2650   33.1070   48.2610 N   0  0  0  0  0  0  0  0  0  0  0  0
   64.9210   32.8350   47.4940 H   0  0  0  0  0  0  0  0  0  0  0  0
   60.7760   34.1930   48.7180 C   0  0  0  0  0  0  0  0  0  0  0  0
   60.0922   34.4773   49.5314 H   0  0  0  0  0  0  0  0  0  0  0  0
  1  2  1  0
  2  3  2  0
  3  4  1  0
  4  5  2  0
  5  6  1  0
  6  7  1  0
  6  8  2  0
  8  9  1  0
  8 10  1  0
  2 11  1  0
 11 12  2  0
 12 13  1  0
 12 14  1  0
 14 15  1  0
 14 16  2  0
 16 17  1  0
 17 18  1  0
 18 19  1  0
 18 20  2  0
 20 21  1  0
 20 22  1  0
 22 23  1  0
 22 24  2  0
 24 25  1  0
 17 26  2  0
 26 27  1  0
 10  4  1  0
 26 11  1  0
 24 16  1  0
M  CHG  1  24   1
M  END
>  <UniqueID>  (58) 
52

>  <SMILES>  (58) 
C(=N/c1nccs1)\c1ccc2[nH+]cccc2c1

>  <Energy>  (58) 
62.38937920712847

>  <Genealogy>  (58) 
C(=Nc1nccs1)c1ccc2[nH+]cccc2c1 (protonated)
C(=N/c1nccs1)\c1ccc2[nH+]cccc2c1 (cis-trans isomerization)
C(=N/c1nccs1)\c1ccc2[nH+]cccc2c1 (3D coordinates assigned)
C(=N/c1nccs1)\c1ccc2[nH+]cccc2c1 (optimized conformer: 62.38937920712847 kcal/mol)

>  <smiles>  (58) 
C(=Nc1nccs1)c1ccc2ncccc2c1

>  <score_type>  (58) 
oracle

>  <origin>  (58) 
adg

>  <m_score__min__energy>  (58) 
-5.6900000000000004

>  <m_primary>  (58) 
energy

$$$$
58:0
     RDKit          3D

 39 40  0  0  0  0  0  0  0  0999 V2000
   59.9990   26.4730   46.4610 C   0  0  0  0  0  0  0  0  0  0  0  0
   58.6280   27.0340   46.1190 C   0  0  0  0  0  0  0  0  0  0  0  0
   58.4640   28.3840   45.6610 C   0  0  0  0  0  0  0  0  0  0  0  0
   59.6860   29.3280   45.7330 C   0  0  0  0  0  0  0  0  0  0  0  0
   60.8730   28.9700   44.8300 C   0  0  0  0  0  0  0  0  0  0  0  0
   60.1210   29.6470   47.1740 C   0  0  0  0  0  0  0  0  0  0  0  0
   57.1600   28.7680   45.1920 C   0  0  0  0  0  0  0  0  0  0  0  0
   56.7840   30.2710   44.3030 S   0  0  0  0  0  0  0  0  0  0  0  0
   55.2980   30.4900   44.2600 O   0  0  0  0  0  0  0  0  0  0  0  0
   57.2570   30.1360   42.8830 O   0  0  0  0  0  0  0  0  0  0  0  0
   57.6340   31.6700   44.9440 C   0  0  0  0  0  0  0  0  0  0  0  0
   57.7950   31.8380   46.3280 C   0  0  0  0  0  0  0  0  0  0  0  0
   58.4440   32.9710   46.8270 C   0  0  0  0  0  0  0  0  0  0  0  0
   58.9220   33.9490   45.9480 C   0  0  0  0  0  0  0  0  0  0  0  0
   58.7430   33.7980   44.5700 C   0  0  0  0  0  0  0  0  0  0  0  0
   58.0930   32.6650   44.0690 C   0  0  0  0  0  0  0  0  0  0  0  0
   56.1070   27.9180   45.3830 N   0  0  0  0  0  0  0  0  0  0  0  0
   56.2320   26.6880   45.9420 C   0  0  0  0  0  0  0  0  0  0  0  0
   55.1810   25.9460   46.1200 N   0  0  0  0  0  0  0  0  0  0  0  0
   57.4940   26.2140   46.3070 C   0  0  0  0  0  0  0  0  0  0  0  0
   57.6090   24.8910   46.8940 C   0  0  0  0  0  0  0  0  0  0  0  0
   57.7000   23.8370   47.3620 N   0  0  0  0  0  0  0  0  0  0  0  0
   60.1137   26.4261   47.5540 H   0  0  0  0  0  0  0  0  0  0  0  0
   60.0975   25.4623   46.0382 H   0  0  0  0  0  0  0  0  0  0  0  0
   60.7778   27.1248   46.0382 H   0  0  0  0  0  0  0  0  0  0  0  0
   59.2973   30.2582   45.2930 H   0  0  0  0  0  0  0  0  0  0  0  0
   61.7413   28.7081   45.4524 H   0  0  0  0  0  0  0  0  0  0  0  0
   60.6051   28.1127   44.1950 H   0  0  0  0  0  0  0  0  0  0  0  0
   61.1238   29.8325   44.1950 H   0  0  0  0  0  0  0  0  0  0  0  0
   59.4414   29.1486   47.8810 H   0  0  0  0  0  0  0  0  0  0  0  0
   61.1474   29.2859   47.3356 H   0  0  0  0  0  0  0  0  0  0  0  0
   60.0851   30.7345   47.3356 H   0  0  0  0  0  0  0  0  0  0  0  0
   57.4096   31.0763   47.0217 H   0  0  0  0  0  0  0  0  0  0  0  0
   58.5790   33.0938   47.9117 H   0  0  0  0  0  0  0  0  0  0  0  0
   59.4387   34.8368   46.3414 H   0  0  0  0  0  0  0  0  0  0  0  0
   59.1132   34.5701   43.8794 H   0  0  0  0  0  0  0  0  0  0  0  0
   57.9415   32.5543   42.9851 H   0  0  0  0  0  0  0  0  0  0  0  0
   55.1510   28.2220   45.0910 H   0  0  0  0  0  0  0  0  0  0  0  0
   55.1440   25.1850   46.8340 H   0  0  0  0  0  0  0  0  0  0  0  0
  1  2  1  0
  2  3  1  0
  3  4  1  0
  4  5  1  0
  4  6  1  0
  3  7  2  0
  7  8  1  0
  8  9  2  0
  8 10  2  0
  8 11  1  0
 11 12  2  0
 12 13  1  0
 13 14  2  0
 14 15  1  0
 15 16  2  0
  7 17  1  0
 17 18  1  0
 18 19  2  3
 18 20  1  0
 20 21  1  0
 21 22  3  0
 20  2  2  0
 16 11  1  0
  1 23  1  0
  1 24  1  0
  1 25  1  0
  4 26  1  0
  5 27  1  0
  5 28  1  0
  5 29  1  0
  6 30  1  0
  6 31  1  0
  6 32  1  0
 12 33  1  0
 13 34  1  0
 14 35  1  0
 15 36  1  0
 16 37  1  0
 17 38  1  0
 19 39  1  0
M  END
>  <UniqueID>  (59) 
53

>  <SMILES>  (59) 
Cc1c(C(C)C)c(S(=O)(=O)c2ccccc2)[nH]c(=N)c1C#N

>  <Energy>  (59) 
60.5996658106222

>  <Genealogy>  (59) 
Cc1c(C(C)C)c(S(=O)(=O)c2ccccc2)[nH]c(=N)c1C#N (3D coordinates assigned)
Cc1c(C(C)C)c(S(=O)(=O)c2ccccc2)[nH]c(=N)c1C#N (optimized conformer: 60.5996658106222 kcal/mol)

>  <smiles>  (59) 
Cc1c(C(C)C)c(S(=O)(=O)c2ccccc2)[nH]c(=N)c1C#N

>  <score_type>  (59) 
oracle

>  <origin>  (59) 
adg

>  <m_score__min__energy>  (59) 
-9.1799999999999997

>  <m_primary>  (59) 
energy

$$$$
59:0
     RDKit          3D

 53 56  0  0  0  0  0  0  0  0999 V2000
   60.3910   33.9850   49.7620 C   0  0  0  0  0  0  0  0  0  0  0  0
   61.6340   34.5880   49.4140 O   0  0  0  0  0  0  0  0  0  0  0  0
   62.8920   34.1070   49.8190 C   0  0  0  0  0  0  0  0  0  0  0  0
   63.4240   34.3960   51.0940 C   0  0  0  0  0  0  0  0  0  0  0  0
   64.6730   33.8890   51.4740 C   0  0  0  0  0  0  0  0  0  0  0  0
   65.4080   33.0940   50.5900 C   0  0  0  0  0  0  0  0  0  0  0  0
   67.1130   32.4120   51.1170 Br  0  0  0  0  0  0  0  0  0  0  0  0
   64.8930   32.8060   49.3280 C   0  0  0  0  0  0  0  0  0  0  0  0
   63.6400   33.3060   48.9320 C   0  0  0  0  0  0  0  0  0  0  0  0
   62.9890   32.8480   47.3510 S   0  0  0  0  0  0  0  0  0  0  0  0
   63.0460   34.0580   46.4570 O   0  0  0  0  0  0  0  0  0  0  0  0
   63.8010   31.7290   46.7540 O   0  0  0  0  0  0  0  0  0  0  0  0
   61.3450   32.3150   47.5450 N   0  0  0  0  0  0  0  0  0  0  0  0
   60.8840   30.9590   47.4670 C   0  0  0  0  0  0  0  0  0  0  0  0
   61.1290   30.1160   48.5520 C   0  0  0  0  0  0  0  0  0  0  0  0
   60.6850   28.7920   48.5330 C   0  0  0  0  0  0  0  0  0  0  0  0
   59.9900   28.2940   47.4270 C   0  0  0  0  0  0  0  0  0  0  0  0
   59.5680   27.0380   47.4460 O   0  0  0  0  0  0  0  0  0  0  0  0
   58.9020   26.4850   46.4420 C   0  0  0  0  0  0  0  0  0  0  0  0
   58.5420   25.2870   46.5390 O   0  0  0  0  0  0  0  0  0  0  0  0
   58.6100   27.2210   45.2810 C   0  0  0  0  0  0  0  0  0  0  0  0
   57.8730   26.5990   44.2160 N   0  0  0  0  0  0  0  0  0  0  0  0
   57.0920   25.6530   44.4620 O   0  0  0  0  0  0  0  0  0  0  0  0
   58.1100   26.9520   42.9040 O   0  0  0  0  0  0  0  0  0  0  0  0
   59.0300   28.5740   45.2040 C   0  0  0  0  0  0  0  0  0  0  0  0
   58.7050   29.3800   44.0410 N   0  0  0  0  0  0  0  0  0  0  0  0
   57.4670   30.1420   44.2690 C   0  0  0  0  0  0  0  0  0  0  0  0
   57.7830   31.5540   44.6860 C   0  0  0  0  0  0  0  0  0  0  0  0
   58.2100   32.4990   43.7350 C   0  0  0  0  0  0  0  0  0  0  0  0
   58.5220   33.8070   44.1320 C   0  0  0  0  0  0  0  0  0  0  0  0
   58.4220   34.1730   45.4790 C   0  0  0  0  0  0  0  0  0  0  0  0
   58.0190   33.2310   46.4340 C   0  0  0  0  0  0  0  0  0  0  0  0
   57.7050   31.9240   46.0410 C   0  0  0  0  0  0  0  0  0  0  0  0
   59.7460   29.1220   46.3050 C   0  0  0  0  0  0  0  0  0  0  0  0
   60.2180   30.4550   46.3340 C   0  0  0  0  0  0  0  0  0  0  0  0
   60.2990   33.9404   50.8572 H   0  0  0  0  0  0  0  0  0  0  0  0
   59.5651   34.5826   49.3487 H   0  0  0  0  0  0  0  0  0  0  0  0
   60.3491   32.9664   49.3487 H   0  0  0  0  0  0  0  0  0  0  0  0
   62.8535   35.0239   51.7942 H   0  0  0  0  0  0  0  0  0  0  0  0
   65.0769   34.1172   52.4714 H   0  0  0  0  0  0  0  0  0  0  0  0
   65.4731   32.1805   48.6336 H   0  0  0  0  0  0  0  0  0  0  0  0
   61.6752   30.4968   49.4276 H   0  0  0  0  0  0  0  0  0  0  0  0
   60.8835   28.1367   49.3940 H   0  0  0  0  0  0  0  0  0  0  0  0
   58.6120   28.7770   43.1940 H   0  0  0  0  0  0  0  0  0  0  0  0
   59.4830   30.0410   43.8220 H   0  0  0  0  0  0  0  0  0  0  0  0
   56.8788   30.1625   43.3397 H   0  0  0  0  0  0  0  0  0  0  0  0
   56.8936   29.6551   45.0716 H   0  0  0  0  0  0  0  0  0  0  0  0
   58.2993   32.2108   42.6772 H   0  0  0  0  0  0  0  0  0  0  0  0
   58.8456   34.5460   43.3842 H   0  0  0  0  0  0  0  0  0  0  0  0
   58.6601   35.2015   45.7881 H   0  0  0  0  0  0  0  0  0  0  0  0
   57.9491   33.5180   47.4936 H   0  0  0  0  0  0  0  0  0  0  0  0
   57.3964   31.1843   46.7943 H   0  0  0  0  0  0  0  0  0  0  0  0
   60.0628   31.1056   45.4607 H   0  0  0  0  0  0  0  0  0  0  0  0
  1  2  1  0
  2  3  1  0
  3  4  2  0
  4  5  1  0
  5  6  2  0
  6  7  1  0
  6  8  1  0
  8  9  2  0
  9 10  1  0
 10 11  2  0
 10 12  2  0
 10 13  1  0
 13 14  1  0
 14 15  2  0
 15 16  1  0
 16 17  2  0
 17 18  1  0
 18 19  1  0
 19 20  2  0
 19 21  1  0
 21 22  1  0
 22 23  2  0
 22 24  1  0
 21 25  2  0
 25 26  1  0
 26 27  1  0
 27 28  1  0
 28 29  2  0
 29 30  1  0
 30 31  2  0
 31 32  1  0
 32 33  2  0
 25 34  1  0
 34 35  2  0
  9  3  1  0
 35 14  1  0
 34 17  1  0
 33 28  1  0
  1 36  1  0
  1 37  1  0
  1 38  1  0
  4 39  1  0
  5 40  1  0
  8 41  1  0
 15 42  1  0
 16 43  1  0
 26 44  1  0
 26 45  1  0
 27 46  1  0
 27 47  1  0
 29 48  1  0
 30 49  1  0
 31 50  1  0
 32 51  1  0
 33 52  1  0
 35 53  1  0
M  CHG  4  13  -1  22   1  24  -1  26   1
M  END
>  <UniqueID>  (60) 
54

>  <SMILES>  (60) 
COc1ccc(Br)cc1S(=O)(=O)[N-]c1ccc2oc(=O)c([N+](=O)[O-])c([NH2+]Cc3ccccc3)c2c1

>  <Energy>  (60) 
77.54695709045146

>  <Genealogy>  (60) 
COc1ccc(Br)cc1S(=O)(=O)[N-]c1ccc2oc(=O)c([N+](=O)[O-])c([NH2+]Cc3ccccc3)c2c1 (protonated)
COc1ccc(Br)cc1S(=O)(=O)[N-]c1ccc2oc(=O)c([N+](=O)[O-])c([NH2+]Cc3ccccc3)c2c1 (3D coordinates assigned)
COc1ccc(Br)cc1S(=O)(=O)[N-]c1ccc2oc(=O)c([N+](=O)[O-])c([NH2+]Cc3ccccc3)c2c1 (optimized conformer: 77.54695709045146 kcal/mol)

>  <smiles>  (60) 
COc1ccc(Br)cc1S(=O)(=O)Nc1ccc2oc(=O)c([N+](=O)[O-])c(NCc3ccccc3)c2c1

>  <score_type>  (60) 
oracle

>  <origin>  (60) 
adg

>  <m_score__min__energy>  (60) 
-9.5199999999999996

>  <m_primary>  (60) 
energy

$$$$
60:0
     RDKit          3D

 41 42  0  0  0  0  0  0  0  0999 V2000
   59.6500   28.5620   48.2350 C   0  0  0  0  0  0  0  0  0  0  0  0
   59.4970   29.9840   47.7200 C   0  0  0  0  0  0  0  0  0  0  0  0
   60.3170   30.8630   48.4820 O   0  0  0  0  0  0  0  0  0  0  0  0
   61.1050   31.8630   47.8970 C   0  0  0  0  0  0  0  0  0  0  0  0
   62.4470   31.6760   47.7410 N   0  0  0  0  0  0  0  0  0  0  0  0
   63.2450   32.6180   47.1720 C   0  0  0  0  0  0  0  0  0  0  0  0
   62.6940   33.8160   46.7170 C   0  0  0  0  0  0  0  0  0  0  0  0
   61.3240   34.0360   46.8610 C   0  0  0  0  0  0  0  0  0  0  0  0
   60.5140   33.0670   47.4700 C   0  0  0  0  0  0  0  0  0  0  0  0
   59.0610   33.2910   47.6120 C   0  0  0  0  0  0  0  0  0  0  0  0
   58.4950   32.9770   48.6930 O   0  0  0  0  0  0  0  0  0  0  0  0
   58.2710   33.8790   46.5680 N   0  0  0  0  0  0  0  0  0  0  0  0
   57.0650   33.3090   45.9700 C   0  0  0  0  0  0  0  0  0  0  0  0
   57.3970   32.2900   44.9120 C   0  0  0  0  0  0  0  0  0  0  0  0
   58.2170   32.5970   44.0090 O   0  0  0  0  0  0  0  0  0  0  0  0
   56.7770   30.9970   44.8710 N   0  0  0  0  0  0  0  0  0  0  0  0
   57.4670   29.7430   44.8940 C   0  0  0  0  0  0  0  0  0  0  0  0
   58.8120   29.6430   44.5050 C   0  0  0  0  0  0  0  0  0  0  0  0
   59.4630   28.4090   44.5450 C   0  0  0  0  0  0  0  0  0  0  0  0
   58.7760   27.2660   44.9690 C   0  0  0  0  0  0  0  0  0  0  0  0
   57.4270   27.3540   45.3380 C   0  0  0  0  0  0  0  0  0  0  0  0
   56.5480   25.9320   45.8880 S   0  0  0  0  0  0  0  0  0  0  0  0
   54.8630   26.3020   45.9860 N   0  0  0  0  0  0  0  0  0  0  0  0
   56.7440   24.7920   44.9270 O   0  0  0  0  0  0  0  0  0  0  0  0
   57.0580   25.5230   47.2410 O   0  0  0  0  0  0  0  0  0  0  0  0
   56.7730   28.5910   45.2820 C   0  0  0  0  0  0  0  0  0  0  0  0
   59.6493   28.5683   49.3350 H   0  0  0  0  0  0  0  0  0  0  0  0
   58.8127   27.9482   47.8713 H   0  0  0  0  0  0  0  0  0  0  0  0
   60.5987   28.1404   47.8713 H   0  0  0  0  0  0  0  0  0  0  0  0
   59.8011   30.0246   46.6636 H   0  0  0  0  0  0  0  0  0  0  0  0
   58.4458   30.2938   47.8150 H   0  0  0  0  0  0  0  0  0  0  0  0
   64.3250   32.4356   47.0704 H   0  0  0  0  0  0  0  0  0  0  0  0
   63.3332   34.5794   46.2494 H   0  0  0  0  0  0  0  0  0  0  0  0
   60.8778   34.9727   46.4956 H   0  0  0  0  0  0  0  0  0  0  0  0
   56.4710   32.8238   46.7585 H   0  0  0  0  0  0  0  0  0  0  0  0
   56.4988   34.1242   45.4958 H   0  0  0  0  0  0  0  0  0  0  0  0
   59.3540   30.5389   44.1680 H   0  0  0  0  0  0  0  0  0  0  0  0
   60.5180   28.3348   44.2427 H   0  0  0  0  0  0  0  0  0  0  0  0
   59.2955   26.2974   45.0127 H   0  0  0  0  0  0  0  0  0  0  0  0
   54.7600   27.0810   46.6740 H   0  0  0  0  0  0  0  0  0  0  0  0
   55.7069   28.6578   45.5446 H   0  0  0  0  0  0  0  0  0  0  0  0
  1  2  1  0
  2  3  1  0
  3  4  1  0
  4  5  2  0
  5  6  1  0
  6  7  2  0
  7  8  1  0
  8  9  2  0
  9 10  1  0
 10 11  2  0
 10 12  1  0
 12 13  1  0
 13 14  1  0
 14 15  2  0
 14 16  1  0
 16 17  1  0
 17 18  2  0
 18 19  1  0
 19 20  2  0
 20 21  1  0
 21 22  1  0
 22 23  1  0
 22 24  2  0
 22 25  2  0
 21 26  2  0
  9  4  1  0
 26 17  1  0
  1 27  1  0
  1 28  1  0
  1 29  1  0
  2 30  1  0
  2 31  1  0
  6 32  1  0
  7 33  1  0
  8 34  1  0
 13 35  1  0
 13 36  1  0
 18 37  1  0
 19 38  1  0
 20 39  1  0
 23 40  1  0
 26 41  1  0
M  CHG  3  12  -1  16  -1  23  -1
M  END
>  <UniqueID>  (61) 
55

>  <SMILES>  (61) 
CCOc1ncccc1C(=O)[N-]CC(=O)[N-]c1cccc(S([NH-])(=O)=O)c1

>  <Energy>  (61) 
43.39234200260865

>  <Genealogy>  (61) 
CCOc1ncccc1C(=O)[N-]CC(=O)[N-]c1cccc(S([NH-])(=O)=O)c1 (protonated)
CCOc1ncccc1C(=O)[N-]CC(=O)[N-]c1cccc(S([NH-])(=O)=O)c1 (3D coordinates assigned)
CCOc1ncccc1C(=O)[N-]CC(=O)[N-]c1cccc(S([NH-])(=O)=O)c1 (optimized conformer: 43.39234200260865 kcal/mol)

>  <smiles>  (61) 
CCOc1ncccc1C(=O)NCC(=O)Nc1cccc(S(N)(=O)=O)c1

>  <score_type>  (61) 
oracle

>  <origin>  (61) 
adg

>  <m_score__min__energy>  (61) 
-12.59

>  <m_primary>  (61) 
energy

$$$$
61:0
     RDKit          3D

 34 35  0  0  0  0  0  0  0  0999 V2000
   57.8370   27.4330   46.5300 O   0  0  0  0  0  0  0  0  0  0  0  0
   56.6750   27.3070   46.0590 C   0  0  0  0  0  0  0  0  0  0  0  0
   55.9320   26.1230   46.3720 N   0  0  0  0  0  0  0  0  0  0  0  0
   55.9410   24.9020   45.6210 C   0  0  0  0  0  0  0  0  0  0  0  0
   57.1450   24.3160   45.1890 C   0  0  0  0  0  0  0  0  0  0  0  0
   57.1220   23.1430   44.4280 C   0  0  0  0  0  0  0  0  0  0  0  0
   55.9030   22.5580   44.0770 C   0  0  0  0  0  0  0  0  0  0  0  0
   54.7030   23.1500   44.4800 C   0  0  0  0  0  0  0  0  0  0  0  0
   54.7200   24.3240   45.2420 C   0  0  0  0  0  0  0  0  0  0  0  0
   53.5480   24.8940   45.6200 F   0  0  0  0  0  0  0  0  0  0  0  0
   56.1210   28.3190   45.2000 N   0  0  0  0  0  0  0  0  0  0  0  0
   56.7940   29.5440   44.8600 C   0  0  0  0  0  0  0  0  0  0  0  0
   56.5640   30.1250   43.6040 C   0  0  0  0  0  0  0  0  0  0  0  0
   57.2170   31.3060   43.2410 C   0  0  0  0  0  0  0  0  0  0  0  0
   58.1210   31.9060   44.1220 C   0  0  0  0  0  0  0  0  0  0  0  0
   58.3920   31.3120   45.3590 C   0  0  0  0  0  0  0  0  0  0  0  0
   59.5570   32.0820   46.4920 S   0  0  0  0  0  0  0  0  0  0  0  0
   58.7320   33.7180   46.5750 C   0  0  0  0  0  0  0  0  0  0  0  0
   58.9480   34.2990   47.8130 F   0  0  0  0  0  0  0  0  0  0  0  0
   57.3720   33.5210   46.4190 F   0  0  0  0  0  0  0  0  0  0  0  0
   59.2250   34.6560   45.4730 C   0  0  0  0  0  0  0  0  0  0  0  0
   59.7150   35.8200   46.0360 F   0  0  0  0  0  0  0  0  0  0  0  0
   58.1870   34.9740   44.6150 F   0  0  0  0  0  0  0  0  0  0  0  0
   57.7240   30.1380   45.7320 C   0  0  0  0  0  0  0  0  0  0  0  0
   58.1067   24.7816   45.4505 H   0  0  0  0  0  0  0  0  0  0  0  0
   58.0660   22.6799   44.1050 H   0  0  0  0  0  0  0  0  0  0  0  0
   55.8877   21.6318   43.4837 H   0  0  0  0  0  0  0  0  0  0  0  0
   53.7433   22.6925   44.1979 H   0  0  0  0  0  0  0  0  0  0  0  0
   55.1450   28.1990   44.8510 H   0  0  0  0  0  0  0  0  0  0  0  0
   55.8655   29.6481   42.9007 H   0  0  0  0  0  0  0  0  0  0  0  0
   57.0193   31.7640   42.2606 H   0  0  0  0  0  0  0  0  0  0  0  0
   58.6196   32.8458   43.8424 H   0  0  0  0  0  0  0  0  0  0  0  0
   60.0216   34.1480   44.9097 H   0  0  0  0  0  0  0  0  0  0  0  0
   57.9278   29.6791   46.7107 H   0  0  0  0  0  0  0  0  0  0  0  0
  1  2  2  0
  2  3  1  0
  3  4  1  0
  4  5  2  0
  5  6  1  0
  6  7  2  0
  7  8  1  0
  8  9  2  0
  9 10  1  0
  2 11  1  0
 11 12  1  0
 12 13  2  0
 13 14  1  0
 14 15  2  0
 15 16  1  0
 16 17  1  0
 17 18  1  0
 18 19  1  0
 18 20  1  0
 18 21  1  0
 21 22  1  0
 21 23  1  0
 16 24  2  0
  9  4  1  0
 24 12  1  0
  5 25  1  0
  6 26  1  0
  7 27  1  0
  8 28  1  0
 11 29  1  0
 13 30  1  0
 14 31  1  0
 15 32  1  0
 21 33  1  0
 24 34  1  0
M  CHG  1   3  -1
M  END
>  <UniqueID>  (62) 
56

>  <SMILES>  (62) 
O=C([N-]c1ccccc1F)Nc1cccc(SC(F)(F)C(F)F)c1

>  <Energy>  (62) 
38.099736250218896

>  <Genealogy>  (62) 
O=C([N-]c1ccccc1F)Nc1cccc(SC(F)(F)C(F)F)c1 (protonated)
O=C([N-]c1ccccc1F)Nc1cccc(SC(F)(F)C(F)F)c1 (3D coordinates assigned)
O=C([N-]c1ccccc1F)Nc1cccc(SC(F)(F)C(F)F)c1 (optimized conformer: 38.099736250218896 kcal/mol)

>  <smiles>  (62) 
O=C(Nc1cccc(SC(F)(F)C(F)F)c1)Nc1ccccc1F

>  <score_type>  (62) 
oracle

>  <origin>  (62) 
adg

>  <m_score__min__energy>  (62) 
-8.6099999999999994

>  <m_primary>  (62) 
energy

$$$$
62:0
     RDKit          3D

 35 37  0  0  0  0  0  0  0  0999 V2000
   63.2330   33.8090   46.9460 C   0  0  0  0  0  0  0  0  0  0  0  0
   61.9110   33.7500   46.4970 C   0  0  0  0  0  0  0  0  0  0  0  0
   61.1110   32.6480   46.8150 C   0  0  0  0  0  0  0  0  0  0  0  0
   61.6280   31.5990   47.5960 C   0  0  0  0  0  0  0  0  0  0  0  0
   60.7930   30.3820   47.8770 C   0  0  0  0  0  0  0  0  0  0  0  0
   60.0600   29.9890   46.6360 C   0  0  0  0  0  0  0  0  0  0  0  0
   60.5670   29.3200   45.5450 C   0  0  0  0  0  0  0  0  0  0  0  0
   59.6060   29.2370   44.6040 N   0  0  0  0  0  0  0  0  0  0  0  0
   58.5520   29.8560   45.1780 C   0  0  0  0  0  0  0  0  0  0  0  0
   57.2510   30.0920   44.4820 C   0  0  0  0  0  0  0  0  0  0  0  0
   56.6790   31.3240   44.9180 O   0  0  0  0  0  0  0  0  0  0  0  0
   57.4040   32.4870   45.2360 C   0  0  0  0  0  0  0  0  0  0  0  0
   58.1660   33.0890   44.2270 C   0  0  0  0  0  0  0  0  0  0  0  0
   58.9260   34.2320   44.4970 C   0  0  0  0  0  0  0  0  0  0  0  0
   58.9230   34.7870   45.7800 C   0  0  0  0  0  0  0  0  0  0  0  0
   58.1530   34.2050   46.7900 C   0  0  0  0  0  0  0  0  0  0  0  0
   57.3910   33.0630   46.5230 C   0  0  0  0  0  0  0  0  0  0  0  0
   58.8170   30.3020   46.3840 O   0  0  0  0  0  0  0  0  0  0  0  0
   62.9630   31.6600   48.0330 C   0  0  0  0  0  0  0  0  0  0  0  0
   63.7590   32.7650   47.7120 C   0  0  0  0  0  0  0  0  0  0  0  0
   63.8600   34.6776   46.6964 H   0  0  0  0  0  0  0  0  0  0  0  0
   61.4991   34.5716   45.8926 H   0  0  0  0  0  0  0  0  0  0  0  0
   60.0734   32.6015   46.4529 H   0  0  0  0  0  0  0  0  0  0  0  0
   61.4444   29.5552   48.1965 H   0  0  0  0  0  0  0  0  0  0  0  0
   60.0710   30.6068   48.6759 H   0  0  0  0  0  0  0  0  0  0  0  0
   61.5876   28.9195   45.4560 H   0  0  0  0  0  0  0  0  0  0  0  0
   57.4215   30.1340   43.3961 H   0  0  0  0  0  0  0  0  0  0  0  0
   56.5604   29.2697   44.7205 H   0  0  0  0  0  0  0  0  0  0  0  0
   58.1669   32.6597   43.2142 H   0  0  0  0  0  0  0  0  0  0  0  0
   59.5262   34.6942   43.6994 H   0  0  0  0  0  0  0  0  0  0  0  0
   59.5265   35.6814   45.9942 H   0  0  0  0  0  0  0  0  0  0  0  0
   58.1460   34.6460   47.7977 H   0  0  0  0  0  0  0  0  0  0  0  0
   56.7799   32.6129   47.3192 H   0  0  0  0  0  0  0  0  0  0  0  0
   63.3829   30.8364   48.6291 H   0  0  0  0  0  0  0  0  0  0  0  0
   64.8004   32.8121   48.0631 H   0  0  0  0  0  0  0  0  0  0  0  0
  1  2  2  0
  2  3  1  0
  3  4  2  0
  4  5  1  0
  5  6  1  0
  6  7  2  0
  7  8  1  0
  8  9  2  0
  9 10  1  0
 10 11  1  0
 11 12  1  0
 12 13  2  0
 13 14  1  0
 14 15  2  0
 15 16  1  0
 16 17  2  0
  9 18  1  0
  4 19  1  0
 19 20  2  0
 20  1  1  0
 18  6  1  0
 17 12  1  0
  1 21  1  0
  2 22  1  0
  3 23  1  0
  5 24  1  0
  5 25  1  0
  7 26  1  0
 10 27  1  0
 10 28  1  0
 13 29  1  0
 14 30  1  0
 15 31  1  0
 16 32  1  0
 17 33  1  0
 19 34  1  0
 20 35  1  0
M  END
>  <UniqueID>  (63) 
57

>  <SMILES>  (63) 
c1ccc(Cc2cnc(COc3ccccc3)o2)cc1

>  <Energy>  (63) 
62.64308159621262

>  <Genealogy>  (63) 
c1ccc(Cc2cnc(COc3ccccc3)o2)cc1 (3D coordinates assigned)
c1ccc(Cc2cnc(COc3ccccc3)o2)cc1 (optimized conformer: 62.64308159621262 kcal/mol)

>  <smiles>  (63) 
c1ccc(Cc2cnc(COc3ccccc3)o2)cc1

>  <score_type>  (63) 
oracle

>  <origin>  (63) 
adg

>  <m_score__min__energy>  (63) 
-7.29

>  <m_primary>  (63) 
energy

$$$$
63:0
     RDKit          3D

 53 55  0  0  0  0  0  0  0  0999 V2000
   59.5680   31.3510   53.0190 C   0  0  0  0  0  0  0  0  0  0  0  0
   59.3260   32.1570   51.7210 C   0  0  0  0  0  0  0  0  0  0  0  0
   60.3430   33.3170   51.6330 C   0  0  0  0  0  0  0  0  0  0  0  0
   57.9090   32.7800   51.8150 C   0  0  0  0  0  0  0  0  0  0  0  0
   59.4980   31.2260   50.5030 C   0  0  0  0  0  0  0  0  0  0  0  0
   60.4260   30.1620   50.5640 C   0  0  0  0  0  0  0  0  0  0  0  0
   60.5610   29.2600   49.5060 C   0  0  0  0  0  0  0  0  0  0  0  0
   59.7730   29.3970   48.3570 C   0  0  0  0  0  0  0  0  0  0  0  0
   59.7880   28.1590   47.1090 S   0  0  0  0  0  0  0  0  0  0  0  0
   60.6890   28.6090   45.9890 O   0  0  0  0  0  0  0  0  0  0  0  0
   60.3160   26.8630   47.6610 O   0  0  0  0  0  0  0  0  0  0  0  0
   58.1860   27.9070   46.4890 N   0  0  0  0  0  0  0  0  0  0  0  0
   57.5460   28.8950   45.6690 C   0  0  0  0  0  0  0  0  0  0  0  0
   58.2300   30.0640   45.2890 C   0  0  0  0  0  0  0  0  0  0  0  0
   57.5800   31.0690   44.5680 C   0  0  0  0  0  0  0  0  0  0  0  0
   58.2630   32.3030   44.3150 N   0  0  0  0  0  0  0  0  0  0  0  0
   58.0980   33.6750   45.3640 S   0  0  0  0  0  0  0  0  0  0  0  0
   56.7360   33.6650   45.9990 O   0  0  0  0  0  0  0  0  0  0  0  0
   58.2570   34.9360   44.5590 O   0  0  0  0  0  0  0  0  0  0  0  0
   59.3670   33.6310   46.5920 C   0  0  0  0  0  0  0  0  0  0  0  0
   60.4720   32.7780   46.4570 C   0  0  0  0  0  0  0  0  0  0  0  0
   61.5150   32.8250   47.3920 C   0  0  0  0  0  0  0  0  0  0  0  0
   61.4570   33.7200   48.4650 C   0  0  0  0  0  0  0  0  0  0  0  0
   62.4740   33.7710   49.3590 F   0  0  0  0  0  0  0  0  0  0  0  0
   60.3530   34.5660   48.6080 C   0  0  0  0  0  0  0  0  0  0  0  0
   59.3110   34.5200   47.6750 C   0  0  0  0  0  0  0  0  0  0  0  0
   56.2570   30.8740   44.1500 C   0  0  0  0  0  0  0  0  0  0  0  0
   55.5850   29.6900   44.4750 C   0  0  0  0  0  0  0  0  0  0  0  0
   56.2210   28.7050   45.2400 C   0  0  0  0  0  0  0  0  0  0  0  0
   55.5250   27.5540   45.5880 O   0  0  0  0  0  0  0  0  0  0  0  0
   58.8750   30.4610   48.2610 C   0  0  0  0  0  0  0  0  0  0  0  0
   58.7370   31.3680   49.3170 C   0  0  0  0  0  0  0  0  0  0  0  0
   59.3751   31.9934   53.8908 H   0  0  0  0  0  0  0  0  0  0  0  0
   58.8903   30.4850   53.0446 H   0  0  0  0  0  0  0  0  0  0  0  0
   60.6107   31.0015   53.0446 H   0  0  0  0  0  0  0  0  0  0  0  0
   60.6233   33.6367   52.6475 H   0  0  0  0  0  0  0  0  0  0  0  0
   61.2402   32.9780   51.0944 H   0  0  0  0  0  0  0  0  0  0  0  0
   59.8895   34.1621   51.0944 H   0  0  0  0  0  0  0  0  0  0  0  0
   57.6315   32.9020   52.8724 H   0  0  0  0  0  0  0  0  0  0  0  0
   57.9067   33.7621   51.3196 H   0  0  0  0  0  0  0  0  0  0  0  0
   57.1837   32.1178   51.3196 H   0  0  0  0  0  0  0  0  0  0  0  0
   61.0528   30.0420   51.4600 H   0  0  0  0  0  0  0  0  0  0  0  0
   61.2894   28.4387   49.5759 H   0  0  0  0  0  0  0  0  0  0  0  0
   57.5910   27.2140   46.9930 H   0  0  0  0  0  0  0  0  0  0  0  0
   59.2882   30.1883   45.5625 H   0  0  0  0  0  0  0  0  0  0  0  0
   60.5202   32.0708   45.6158 H   0  0  0  0  0  0  0  0  0  0  0  0
   62.3814   32.1563   47.2816 H   0  0  0  0  0  0  0  0  0  0  0  0
   60.3035   35.2676   49.4537 H   0  0  0  0  0  0  0  0  0  0  0  0
   58.4428   35.1852   47.7919 H   0  0  0  0  0  0  0  0  0  0  0  0
   55.7455   31.6528   43.5654 H   0  0  0  0  0  0  0  0  0  0  0  0
   54.5531   29.5328   44.1280 H   0  0  0  0  0  0  0  0  0  0  0  0
   58.2722   30.5872   47.3496 H   0  0  0  0  0  0  0  0  0  0  0  0
   58.0273   32.2034   49.2249 H   0  0  0  0  0  0  0  0  0  0  0  0
  1  2  1  0
  2  3  1  0
  2  4  1  0
  2  5  1  0
  5  6  2  0
  6  7  1  0
  7  8  2  0
  8  9  1  0
  9 10  2  0
  9 11  2  0
  9 12  1  0
 12 13  1  0
 13 14  2  0
 14 15  1  0
 15 16  1  0
 16 17  1  0
 17 18  2  0
 17 19  2  0
 17 20  1  0
 20 21  2  0
 21 22  1  0
 22 23  2  0
 23 24  1  0
 23 25  1  0
 25 26  2  0
 15 27  2  0
 27 28  1  0
 28 29  2  0
 29 30  1  0
  8 31  1  0
 31 32  2  0
 32  5  1  0
 29 13  1  0
 26 20  1  0
  1 33  1  0
  1 34  1  0
  1 35  1  0
  3 36  1  0
  3 37  1  0
  3 38  1  0
  4 39  1  0
  4 40  1  0
  4 41  1  0
  6 42  1  0
  7 43  1  0
 12 44  1  0
 14 45  1  0
 21 46  1  0
 22 47  1  0
 25 48  1  0
 26 49  1  0
 27 50  1  0
 28 51  1  0
 31 52  1  0
 32 53  1  0
M  CHG  2  16  -1  30  -1
M  END
>  <UniqueID>  (64) 
58

>  <SMILES>  (64) 
CC(C)(C)c1ccc(S(=O)(=O)Nc2cc([N-]S(=O)(=O)c3ccc(F)cc3)ccc2[O-])cc1

>  <Energy>  (64) 
67.73034863601158

>  <Genealogy>  (64) 
CC(C)(C)c1ccc(S(=O)(=O)Nc2cc([N-]S(=O)(=O)c3ccc(F)cc3)ccc2[O-])cc1 (protonated)
CC(C)(C)c1ccc(S(=O)(=O)Nc2cc([N-]S(=O)(=O)c3ccc(F)cc3)ccc2[O-])cc1 (3D coordinates assigned)
CC(C)(C)c1ccc(S(=O)(=O)Nc2cc([N-]S(=O)(=O)c3ccc(F)cc3)ccc2[O-])cc1 (optimized conformer: 67.73034863601158 kcal/mol)

>  <smiles>  (64) 
CC(C)(C)c1ccc(S(=O)(=O)Nc2cc(NS(=O)(=O)c3ccc(F)cc3)ccc2O)cc1

>  <score_type>  (64) 
oracle

>  <origin>  (64) 
adg

>  <m_score__min__energy>  (64) 
-13.59

>  <m_primary>  (64) 
energy

$$$$
64:0
     RDKit          3D

 49 51  0  0  0  0  0  0  0  0999 V2000
   57.0150   20.4440   47.3810 C   0  0  0  0  0  0  0  0  0  0  0  0
   57.3200   21.8350   47.4080 O   0  0  0  0  0  0  0  0  0  0  0  0
   57.3440   22.6720   46.2790 C   0  0  0  0  0  0  0  0  0  0  0  0
   57.3380   22.1440   44.9740 C   0  0  0  0  0  0  0  0  0  0  0  0
   57.3650   22.9930   43.8690 C   0  0  0  0  0  0  0  0  0  0  0  0
   57.4210   24.3730   44.0460 C   0  0  0  0  0  0  0  0  0  0  0  0
   57.4520   24.9270   45.3330 C   0  0  0  0  0  0  0  0  0  0  0  0
   57.5630   26.3960   45.4540 C   0  0  0  0  0  0  0  0  0  0  0  0
   57.7950   26.8990   46.5860 O   0  0  0  0  0  0  0  0  0  0  0  0
   57.3990   27.2350   44.2990 N   0  0  0  0  0  0  0  0  0  0  0  0
   57.4780   28.6700   44.3270 C   0  0  0  0  0  0  0  0  0  0  0  0
   58.6220   29.3330   44.8060 C   0  0  0  0  0  0  0  0  0  0  0  0
   58.6630   30.7300   44.8470 C   0  0  0  0  0  0  0  0  0  0  0  0
   57.5590   31.4840   44.4210 C   0  0  0  0  0  0  0  0  0  0  0  0
   57.6030   32.9880   44.4900 C   0  0  0  0  0  0  0  0  0  0  0  0
   58.5810   33.4320   45.5030 N   0  0  0  0  0  0  0  0  0  0  0  0
   59.1150   34.7630   45.1540 C   0  0  0  0  0  0  0  0  0  0  0  0
   59.9330   35.3570   46.3190 C   0  0  0  0  0  0  0  0  0  0  0  0
   60.2280   34.3690   47.2850 O   0  0  0  0  0  0  0  0  0  0  0  0
   59.0290   33.9190   47.8900 C   0  0  0  0  0  0  0  0  0  0  0  0
   57.9780   33.4710   46.8490 C   0  0  0  0  0  0  0  0  0  0  0  0
   56.4060   30.8230   43.9720 C   0  0  0  0  0  0  0  0  0  0  0  0
   56.3650   29.4260   43.9320 C   0  0  0  0  0  0  0  0  0  0  0  0
   57.3700   24.0730   46.4650 C   0  0  0  0  0  0  0  0  0  0  0  0
   57.3200   24.6250   47.8700 C   0  0  0  0  0  0  0  0  0  0  0  0
   56.9323   20.0667   48.4110 H   0  0  0  0  0  0  0  0  0  0  0  0
   56.0613   20.2879   46.8556 H   0  0  0  0  0  0  0  0  0  0  0  0
   57.8159   19.9031   46.8556 H   0  0  0  0  0  0  0  0  0  0  0  0
   57.3118   21.0544   44.8255 H   0  0  0  0  0  0  0  0  0  0  0  0
   57.3420   22.5713   42.8533 H   0  0  0  0  0  0  0  0  0  0  0  0
   57.4411   25.0346   43.1674 H   0  0  0  0  0  0  0  0  0  0  0  0
   57.2900   26.7780   43.3660 H   0  0  0  0  0  0  0  0  0  0  0  0
   59.4888   28.7497   45.1501 H   0  0  0  0  0  0  0  0  0  0  0  0
   59.5652   31.2405   45.2150 H   0  0  0  0  0  0  0  0  0  0  0  0
   57.8940   33.3869   43.5070 H   0  0  0  0  0  0  0  0  0  0  0  0
   56.6067   33.3600   44.7711 H   0  0  0  0  0  0  0  0  0  0  0  0
   59.7639   34.6693   44.2707 H   0  0  0  0  0  0  0  0  0  0  0  0
   58.2693   35.4342   44.9435 H   0  0  0  0  0  0  0  0  0  0  0  0
   60.8744   35.7676   45.9251 H   0  0  0  0  0  0  0  0  0  0  0  0
   59.3380   36.1489   46.7975 H   0  0  0  0  0  0  0  0  0  0  0  0
   59.2620   33.0675   48.5462 H   0  0  0  0  0  0  0  0  0  0  0  0
   58.6029   34.7594   48.4577 H   0  0  0  0  0  0  0  0  0  0  0  0
   57.6102   32.4682   47.1119 H   0  0  0  0  0  0  0  0  0  0  0  0
   57.1437   34.1879   46.8487 H   0  0  0  0  0  0  0  0  0  0  0  0
   55.5306   31.4061   43.6501 H   0  0  0  0  0  0  0  0  0  0  0  0
   55.4529   28.9162   43.5881 H   0  0  0  0  0  0  0  0  0  0  0  0
   57.3949   23.7982   48.5917 H   0  0  0  0  0  0  0  0  0  0  0  0
   58.1588   25.3204   48.0208 H   0  0  0  0  0  0  0  0  0  0  0  0
   56.3699   25.1584   48.0208 H   0  0  0  0  0  0  0  0  0  0  0  0
  1  2  1  0
  2  3  1  0
  3  4  2  0
  4  5  1  0
  5  6  2  0
  6  7  1  0
  7  8  1  0
  8  9  2  0
  8 10  1  0
 10 11  1  0
 11 12  2  0
 12 13  1  0
 13 14  2  0
 14 15  1  0
 15 16  1  0
 16 17  1  0
 17 18  1  0
 18 19  1  0
 19 20  1  0
 20 21  1  0
 14 22  1  0
 22 23  2  0
  7 24  2  0
 24 25  1  0
 24  3  1  0
 23 11  1  0
 21 16  1  0
  1 26  1  0
  1 27  1  0
  1 28  1  0
  4 29  1  0
  5 30  1  0
  6 31  1  0
 10 32  1  0
 12 33  1  0
 13 34  1  0
 15 35  1  0
 15 36  1  0
 17 37  1  0
 17 38  1  0
 18 39  1  0
 18 40  1  0
 20 41  1  0
 20 42  1  0
 21 43  1  0
 21 44  1  0
 22 45  1  0
 23 46  1  0
 25 47  1  0
 25 48  1  0
 25 49  1  0
M  END
>  <UniqueID>  (65) 
59

>  <SMILES>  (65) 
COc1cccc(C(=O)Nc2ccc(CN3CCOCC3)cc2)c1C

>  <Energy>  (65) 
69.32122480259926

>  <Genealogy>  (65) 
COc1cccc(C(=O)Nc2ccc(CN3CCOCC3)cc2)c1C (3D coordinates assigned)
COc1cccc(C(=O)Nc2ccc(CN3CCOCC3)cc2)c1C (nonaromatic ring conformer: 69.32122480259926 kcal/mol)

>  <smiles>  (65) 
COc1cccc(C(=O)Nc2ccc(CN3CCOCC3)cc2)c1C

>  <score_type>  (65) 
oracle

>  <origin>  (65) 
adg

>  <m_score__min__energy>  (65) 
-8.0999999999999996

>  <m_primary>  (65) 
energy

$$$$
65:0
     RDKit          3D

 30 32  0  0  0  0  0  0  0  0999 V2000
   54.7690   26.1560   45.9300 N   0  0  0  0  0  0  0  0  0  0  0  0
   56.3120   25.4160   46.1680 S   0  0  0  0  0  0  0  0  0  0  0  0
   56.3270   24.6960   47.4870 O   0  0  0  0  0  0  0  0  0  0  0  0
   56.5670   24.4210   45.0720 O   0  0  0  0  0  0  0  0  0  0  0  0
   57.5610   26.6570   46.1540 C   0  0  0  0  0  0  0  0  0  0  0  0
   58.7990   26.4180   46.7670 C   0  0  0  0  0  0  0  0  0  0  0  0
   59.7940   27.3980   46.7400 C   0  0  0  0  0  0  0  0  0  0  0  0
   59.5600   28.6210   46.1050 C   0  0  0  0  0  0  0  0  0  0  0  0
   58.3220   28.8760   45.4950 C   0  0  0  0  0  0  0  0  0  0  0  0
   58.0670   30.1570   44.8010 C   0  0  0  0  0  0  0  0  0  0  0  0
   57.8020   30.2540   43.4770 N   0  0  0  0  0  0  0  0  0  0  0  0
   57.6360   31.5610   43.1810 C   0  0  0  0  0  0  0  0  0  0  0  0
   57.7870   32.3020   44.3320 C   0  0  0  0  0  0  0  0  0  0  0  0
   57.6810   33.6760   44.5420 C   0  0  0  0  0  0  0  0  0  0  0  0
   57.8480   34.1530   45.8530 C   0  0  0  0  0  0  0  0  0  0  0  0
   58.1020   33.2570   46.9150 C   0  0  0  0  0  0  0  0  0  0  0  0
   58.2000   31.8740   46.6730 C   0  0  0  0  0  0  0  0  0  0  0  0
   58.0540   31.4280   45.3560 C   0  0  0  0  0  0  0  0  0  0  0  0
   57.3290   27.8810   45.5100 C   0  0  0  0  0  0  0  0  0  0  0  0
   54.8040   27.0910   46.3940 H   0  0  0  0  0  0  0  0  0  0  0  0
   58.9870   25.4578   47.2697 H   0  0  0  0  0  0  0  0  0  0  0  0
   60.7650   27.2066   47.2201 H   0  0  0  0  0  0  0  0  0  0  0  0
   60.3494   29.3868   46.0833 H   0  0  0  0  0  0  0  0  0  0  0  0
   57.7500   29.4650   42.7930 H   0  0  0  0  0  0  0  0  0  0  0  0
   57.4160   31.9677   42.1829 H   0  0  0  0  0  0  0  0  0  0  0  0
   57.4735   34.3639   43.7091 H   0  0  0  0  0  0  0  0  0  0  0  0
   57.7804   35.2324   46.0539 H   0  0  0  0  0  0  0  0  0  0  0  0
   58.2240   33.6427   47.9379 H   0  0  0  0  0  0  0  0  0  0  0  0
   58.3856   31.1662   47.4943 H   0  0  0  0  0  0  0  0  0  0  0  0
   56.3644   28.0636   45.0137 H   0  0  0  0  0  0  0  0  0  0  0  0
  1  2  1  0
  2  3  2  0
  2  4  2  0
  2  5  1  0
  5  6  2  0
  6  7  1  0
  7  8  2  0
  8  9  1  0
  9 10  1  0
 10 11  1  0
 11 12  1  0
 12 13  2  0
 13 14  1  0
 14 15  2  0
 15 16  1  0
 16 17  2  0
 17 18  1  0
  9 19  2  0
 19  5  1  0
 18 10  2  0
 18 13  1  0
  1 20  1  0
  6 21  1  0
  7 22  1  0
  8 23  1  0
 11 24  1  0
 12 25  1  0
 14 26  1  0
 15 27  1  0
 16 28  1  0
 17 29  1  0
 19 30  1  0
M  CHG  1   1  -1
M  END
>  <UniqueID>  (66) 
60

>  <SMILES>  (66) 
[NH-]S(=O)(=O)c1cccc(-c2[nH]cc3ccccc23)c1

>  <Energy>  (66) 
70.55654460372332

>  <Genealogy>  (66) 
[NH-]S(=O)(=O)c1cccc(-c2[nH]cc3ccccc23)c1 (protonated)
[NH-]S(=O)(=O)c1cccc(-c2[nH]cc3ccccc23)c1 (3D coordinates assigned)
[NH-]S(=O)(=O)c1cccc(-c2[nH]cc3ccccc23)c1 (optimized conformer: 70.55654460372332 kcal/mol)

>  <smiles>  (66) 
NS(=O)(=O)c1cccc(-c2[nH]cc3ccccc23)c1

>  <score_type>  (66) 
oracle

>  <origin>  (66) 
adg

>  <m_score__min__energy>  (66) 
-11.43

>  <m_primary>  (66) 
energy

$$$$
66:0
     RDKit          3D

 16 16  0  0  0  0  0  0  0  0999 V2000
   54.4030   25.9940   45.8070 N   0  0  0  0  0  0  0  0  0  0  0  0
   55.7950   25.7560   46.0030 C   0  0  0  0  0  0  0  0  0  0  0  0
   56.4490   26.5240   46.7610 O   0  0  0  0  0  0  0  0  0  0  0  0
   56.4680   24.6200   45.3290 C   0  0  0  0  0  0  0  0  0  0  0  0
   57.7420   24.1940   45.7500 C   0  0  0  0  0  0  0  0  0  0  0  0
   58.3770   23.1230   45.1140 C   0  0  0  0  0  0  0  0  0  0  0  0
   57.7500   22.4670   44.0530 C   0  0  0  0  0  0  0  0  0  0  0  0
   56.4830   22.8790   43.6230 C   0  0  0  0  0  0  0  0  0  0  0  0
   55.8480   22.2320   42.5650 O   0  0  0  0  0  0  0  0  0  0  0  0
   55.8460   23.9510   44.2590 C   0  0  0  0  0  0  0  0  0  0  0  0
   53.8930   26.7050   46.3780 H   0  0  0  0  0  0  0  0  0  0  0  0
   58.2413   24.7073   46.5850 H   0  0  0  0  0  0  0  0  0  0  0  0
   59.3723   22.7967   45.4501 H   0  0  0  0  0  0  0  0  0  0  0  0
   58.2523   21.6251   43.5541 H   0  0  0  0  0  0  0  0  0  0  0  0
   56.0830   22.4390   41.6010 H   0  0  0  0  0  0  0  0  0  0  0  0
   54.8506   24.2731   43.9193 H   0  0  0  0  0  0  0  0  0  0  0  0
  1  2  1  0
  2  3  2  0
  2  4  1  0
  4  5  2  0
  5  6  1  0
  6  7  2  0
  7  8  1  0
  8  9  1  0
  8 10  2  0
 10  4  1  0
  1 11  1  0
  5 12  1  0
  6 13  1  0
  7 14  1  0
  9 15  1  0
 10 16  1  0
M  CHG  1   1  -1
M  END
>  <UniqueID>  (67) 
61

>  <SMILES>  (67) 
[NH-]C(=O)c1cccc(O)c1

>  <Energy>  (67) 
14.499914277156037

>  <Genealogy>  (67) 
[NH-]C(=O)c1cccc(O)c1 (protonated)
[NH-]C(=O)c1cccc(O)c1 (3D coordinates assigned)
[NH-]C(=O)c1cccc(O)c1 (optimized conformer: 14.499914277156037 kcal/mol)

>  <smiles>  (67) 
NC(=O)c1cccc(O)c1

>  <score_type>  (67) 
oracle

>  <origin>  (67) 
adg

>  <m_score__min__energy>  (67) 
-8.4299999999999997

>  <m_primary>  (67) 
energy

$$$$
67:0
     RDKit          3D

 51 53  0  0  0  0  0  0  0  0999 V2000
   58.3380   32.7120   50.7610 C   0  0  0  0  0  0  0  0  0  0  0  0
   59.1890   32.3930   49.6100 N   0  0  0  0  0  0  0  0  0  0  0  0
   59.0850   33.1320   48.3670 C   0  0  0  0  0  0  0  0  0  0  0  0
   59.9390   34.2260   48.1140 C   0  0  0  0  0  0  0  0  0  0  0  0
   59.8400   34.9460   46.9200 C   0  0  0  0  0  0  0  0  0  0  0  0
   58.8890   34.5910   45.9640 C   0  0  0  0  0  0  0  0  0  0  0  0
   58.0330   33.5140   46.1990 C   0  0  0  0  0  0  0  0  0  0  0  0
   58.1260   32.7890   47.3910 C   0  0  0  0  0  0  0  0  0  0  0  0
   59.9550   31.1790   49.6580 C   0  0  0  0  0  0  0  0  0  0  0  0
   59.6450   30.1760   48.7950 N   0  0  0  0  0  0  0  0  0  0  0  0
   60.3170   28.9970   48.8010 C   0  0  0  0  0  0  0  0  0  0  0  0
   59.9940   28.0790   47.9370 N   0  0  0  0  0  0  0  0  0  0  0  0
   58.8740   28.1020   47.0350 C   0  0  0  0  0  0  0  0  0  0  0  0
   58.0470   26.9750   46.9620 C   0  0  0  0  0  0  0  0  0  0  0  0
   56.9560   26.9470   46.0840 C   0  0  0  0  0  0  0  0  0  0  0  0
   55.9150   25.5290   46.0080 S   0  0  0  0  0  0  0  0  0  0  0  0
   56.4740   24.4580   44.7030 C   0  0  0  0  0  0  0  0  0  0  0  0
   54.4990   25.9520   45.7410 O   0  0  0  0  0  0  0  0  0  0  0  0
   55.9600   24.7910   47.3170 O   0  0  0  0  0  0  0  0  0  0  0  0
   56.7120   28.0420   45.2460 C   0  0  0  0  0  0  0  0  0  0  0  0
   57.5570   29.1590   45.2800 C   0  0  0  0  0  0  0  0  0  0  0  0
   57.2610   30.5360   44.2220 S   0  0  0  0  0  0  0  0  0  0  0  0
   56.6140   29.9570   42.6710 C   0  0  0  0  0  0  0  0  0  0  0  0
   58.5420   31.2860   43.9790 O   0  0  0  0  0  0  0  0  0  0  0  0
   56.2730   31.4650   44.8690 O   0  0  0  0  0  0  0  0  0  0  0  0
   58.6380   29.1860   46.1700 C   0  0  0  0  0  0  0  0  0  0  0  0
   61.3340   28.8120   49.6840 N   0  0  0  0  0  0  0  0  0  0  0  0
   61.6910   29.7820   50.5630 C   0  0  0  0  0  0  0  0  0  0  0  0
   61.0260   31.0170   50.5650 C   0  0  0  0  0  0  0  0  0  0  0  0
   61.4240   32.0960   51.5490 C   0  0  0  0  0  0  0  0  0  0  0  0
   62.6950   31.8670   52.0460 F   0  0  0  0  0  0  0  0  0  0  0  0
   61.4260   33.3390   50.9410 F   0  0  0  0  0  0  0  0  0  0  0  0
   60.5320   32.1090   52.6040 F   0  0  0  0  0  0  0  0  0  0  0  0
   58.8874   32.5061   51.6915 H   0  0  0  0  0  0  0  0  0  0  0  0
   58.0594   33.7756   50.7274 H   0  0  0  0  0  0  0  0  0  0  0  0
   57.4289   32.0936   50.7274 H   0  0  0  0  0  0  0  0  0  0  0  0
   60.6902   34.5153   48.8637 H   0  0  0  0  0  0  0  0  0  0  0  0
   60.5142   35.7950   46.7340 H   0  0  0  0  0  0  0  0  0  0  0  0
   58.8135   35.1594   45.0253 H   0  0  0  0  0  0  0  0  0  0  0  0
   57.2830   33.2347   45.4443 H   0  0  0  0  0  0  0  0  0  0  0  0
   57.4452   31.9436   47.5693 H   0  0  0  0  0  0  0  0  0  0  0  0
   58.2558   26.1035   47.5999 H   0  0  0  0  0  0  0  0  0  0  0  0
   56.9414   23.5625   45.1385 H   0  0  0  0  0  0  0  0  0  0  0  0
   55.6170   24.1589   44.0817 H   0  0  0  0  0  0  0  0  0  0  0  0
   57.2094   24.9901   44.0817 H   0  0  0  0  0  0  0  0  0  0  0  0
   55.8536   28.0251   44.5584 H   0  0  0  0  0  0  0  0  0  0  0  0
   55.8062   29.2341   42.8576 H   0  0  0  0  0  0  0  0  0  0  0  0
   56.2188   30.8086   42.0978 H   0  0  0  0  0  0  0  0  0  0  0  0
   57.4166   29.4700   42.0978 H   0  0  0  0  0  0  0  0  0  0  0  0
   59.3061   30.0595   46.1928 H   0  0  0  0  0  0  0  0  0  0  0  0
   62.5065   29.5988   51.2781 H   0  0  0  0  0  0  0  0  0  0  0  0
  1  2  1  0
  2  3  1  0
  3  4  2  0
  4  5  1  0
  5  6  2  0
  6  7  1  0
  7  8  2  0
  2  9  1  0
  9 10  2  0
 10 11  1  0
 11 12  2  3
 12 13  1  0
 13 14  2  0
 14 15  1  0
 15 16  1  0
 16 17  1  0
 16 18  2  0
 16 19  2  0
 15 20  2  0
 20 21  1  0
 21 22  1  0
 22 23  1  0
 22 24  2  0
 22 25  2  0
 21 26  2  0
 11 27  1  0
 27 28  1  0
 28 29  2  0
 29 30  1  0
 30 31  1  0
 30 32  1  0
 30 33  1  0
  8  3  1  0
 29  9  1  0
 26 13  1  0
  1 34  1  0
  1 35  1  0
  1 36  1  0
  4 37  1  0
  5 38  1  0
  6 39  1  0
  7 40  1  0
  8 41  1  0
 14 42  1  0
 17 43  1  0
 17 44  1  0
 17 45  1  0
 20 46  1  0
 23 47  1  0
 23 48  1  0
 23 49  1  0
 26 50  1  0
 28 51  1  0
M  CHG  1  27  -1
M  END
>  <UniqueID>  (68) 
62

>  <SMILES>  (68) 
CN(c1ccccc1)c1nc(=Nc2cc(S(C)(=O)=O)cc(S(C)(=O)=O)c2)[n-]cc1C(F)(F)F

>  <Energy>  (68) 
65.69745489401822

>  <Genealogy>  (68) 
CN(c1ccccc1)c1nc(=Nc2cc(S(C)(=O)=O)cc(S(C)(=O)=O)c2)[n-]cc1C(F)(F)F (protonated)
CN(c1ccccc1)c1nc(=Nc2cc(S(C)(=O)=O)cc(S(C)(=O)=O)c2)[n-]cc1C(F)(F)F (3D coordinates assigned)
CN(c1ccccc1)c1nc(=Nc2cc(S(C)(=O)=O)cc(S(C)(=O)=O)c2)[n-]cc1C(F)(F)F (optimized conformer: 65.69745489401822 kcal/mol)

>  <smiles>  (68) 
CN(c1ccccc1)c1nc(=Nc2cc(S(C)(=O)=O)cc(S(C)(=O)=O)c2)[nH]cc1C(F)(F)F

>  <score_type>  (68) 
oracle

>  <origin>  (68) 
adg

>  <m_score__min__energy>  (68) 
-10.720000000000001

>  <m_primary>  (68) 
energy

$$$$
68:0
     RDKit          3D

 41 43  0  0  1  0  0  0  0  0999 V2000
   59.0670   30.5320   49.2600 C   0  0  0  0  0  0  0  0  0  0  0  0
   59.4090   31.8630   48.8730 O   0  0  0  0  0  0  0  0  0  0  0  0
   60.6390   32.1290   48.2960 C   0  0  0  0  0  0  0  0  0  0  0  0
   61.4640   31.0730   47.9030 C   0  0  0  0  0  0  0  0  0  0  0  0
   62.6960   31.2890   47.3260 C   0  0  0  0  0  0  0  0  0  0  0  0
   63.1710   32.5790   47.1100 C   0  0  0  0  0  0  0  0  0  0  0  0
   62.3460   33.6110   47.5030 C   0  0  0  0  0  0  0  0  0  0  0  0
   61.1090   33.4210   48.0830 C   0  0  0  0  0  0  0  0  0  0  0  0
   60.2440   34.5880   48.4970 C   0  0  0  0  0  0  0  0  0  0  0  0
   57.2400   31.1360   45.1570 N   0  0  0  0  0  0  0  0  0  0  0  0
   57.8350   32.2730   45.3960 C   0  0  0  0  0  0  0  0  0  0  0  0
   59.1050   34.6810   45.7760 C   0  0  0  0  0  0  0  0  0  0  0  0
   58.8780   34.2040   44.5010 C   0  0  0  0  0  0  0  0  0  0  0  0
   58.2470   33.0080   44.3460 N   0  0  0  0  0  0  0  0  0  0  0  0
   58.6670   33.8980   46.8360 C   0  0  0  0  0  0  0  0  0  0  0  0
   58.8930   34.3680   48.0150 N   0  0  0  0  0  0  0  0  0  0  0  0
   57.9710   29.9640   45.4720 C   0  0  0  0  0  0  0  0  0  0  0  0
   59.3550   30.0480   45.4130 C   0  0  0  0  0  0  0  0  0  0  0  0
   60.1570   28.9570   45.7010 C   0  0  0  0  0  0  0  0  0  0  0  0
   59.5870   27.7600   46.0540 C   0  0  0  0  0  0  0  0  0  0  0  0
   60.6000   26.3710   46.4200 Cl  0  0  0  0  0  0  0  0  0  0  0  0
   58.2060   27.6900   46.1100 C   0  0  0  0  0  0  0  0  0  0  0  0
   57.5000   26.1300   46.5700 Cl  0  0  0  0  0  0  0  0  0  0  0  0
   57.3870   28.7670   45.8270 C   0  0  0  0  0  0  0  0  0  0  0  0
   58.0460   32.7200   46.6500 N   0  0  0  0  0  0  0  0  0  0  0  0
   59.0491   30.4624   50.3577 H   0  0  0  0  0  0  0  0  0  0  0  0
   58.0743   30.2775   48.8603 H   0  0  0  0  0  0  0  0  0  0  0  0
   59.8141   29.8305   48.8603 H   0  0  0  0  0  0  0  0  0  0  0  0
   61.1204   30.0397   48.0586 H   0  0  0  0  0  0  0  0  0  0  0  0
   63.3141   30.4281   47.0313 H   0  0  0  0  0  0  0  0  0  0  0  0
   64.1527   32.7653   46.6501 H   0  0  0  0  0  0  0  0  0  0  0  0
   62.6932   34.6428   47.3454 H   0  0  0  0  0  0  0  0  0  0  0  0
   60.2356   34.6702   49.5939 H   0  0  0  0  0  0  0  0  0  0  0  0
   60.6449   35.5186   48.0688 H   0  0  0  0  0  0  0  0  0  0  0  0
   59.6122   35.6422   45.9457 H   0  0  0  0  0  0  0  0  0  0  0  0
   59.2022   34.7819   43.6230 H   0  0  0  0  0  0  0  0  0  0  0  0
   58.1090   32.7110   43.3510 H   0  0  0  0  0  0  0  0  0  0  0  0
   59.8248   31.0019   45.1314 H   0  0  0  0  0  0  0  0  0  0  0  0
   61.2517   29.0498   45.6468 H   0  0  0  0  0  0  0  0  0  0  0  0
   56.2927   28.6708   45.8839 H   0  0  0  0  0  0  0  0  0  0  0  0
   57.7370   32.1710   47.4680 H   0  0  0  0  0  0  0  0  0  0  0  0
  1  2  1  0
  2  3  1  0
  3  4  2  0
  4  5  1  0
  5  6  2  0
  6  7  1  0
  7  8  2  0
  8  9  1  0
  9 10  1  0
 10 11  2  0
 11 12  1  0
 12 13  2  0
 13 14  1  0
 14 15  1  0
 15 16  2  0
 16 17  1  0
 17 18  2  0
 18 19  1  0
 19 20  2  0
 20 21  1  0
 20 22  1  0
 22 23  1  0
 22 24  2  0
 15 25  1  0
  8  3  1  0
 25 11  1  0
 24 17  1  0
  1 26  1  0
  1 27  1  0
  1 28  1  0
  4 29  1  0
  5 30  1  0
  6 31  1  0
  7 32  1  0
  9 33  1  0
  9 34  1  0
 12 35  1  0
 13 36  1  0
 14 37  1  0
 18 38  1  0
 19 39  1  0
 24 40  1  0
 25 41  1  0
M  END
>  <smiles>  (69) 
COc1ccccc1CN=c1cc[nH]c(=Nc2ccc(Cl)c(Cl)c2)[nH]1

>  <score_type>  (69) 
oracle

>  <origin>  (69) 
adg

>  <m_score__min__energy>  (69) 
-8.75

>  <m_primary>  (69) 
energy

$$$$
69:0
     RDKit          3D

 40 42  0  0  0  0  0  0  0  0999 V2000
   55.5630   26.8990   45.9560 O   0  0  0  0  0  0  0  0  0  0  0  0
   56.2670   27.8710   45.5690 C   0  0  0  0  0  0  0  0  0  0  0  0
   55.6520   28.9660   44.8770 N   0  0  0  0  0  0  0  0  0  0  0  0
   56.3230   30.0450   44.2110 C   0  0  0  0  0  0  0  0  0  0  0  0
   56.3430   30.1620   42.8090 C   0  0  0  0  0  0  0  0  0  0  0  0
   57.0300   31.2150   42.2020 C   0  0  0  0  0  0  0  0  0  0  0  0
   57.7150   32.1500   42.9810 C   0  0  0  0  0  0  0  0  0  0  0  0
   57.7250   32.0290   44.3760 C   0  0  0  0  0  0  0  0  0  0  0  0
   58.6230   33.1930   45.3450 S   0  0  0  0  0  0  0  0  0  0  0  0
   59.5340   33.9750   44.4410 O   0  0  0  0  0  0  0  0  0  0  0  0
   57.6890   34.1480   46.0350 O   0  0  0  0  0  0  0  0  0  0  0  0
   59.5770   32.3660   46.5340 N   0  0  0  0  0  0  0  0  0  0  0  0
   60.8340   32.6040   46.7610 C   0  0  0  0  0  0  0  0  0  0  0  0
   61.8010   31.6540   47.3660 C   0  0  0  0  0  0  0  0  0  0  0  0
   63.0950   32.4770   47.4630 C   0  0  0  0  0  0  0  0  0  0  0  0
   62.8390   33.8190   46.7520 C   0  0  0  0  0  0  0  0  0  0  0  0
   61.4300   33.8360   46.4190 N   0  0  0  0  0  0  0  0  0  0  0  0
   57.0320   30.9720   44.9860 C   0  0  0  0  0  0  0  0  0  0  0  0
   57.7200   27.8990   45.8860 C   0  0  0  0  0  0  0  0  0  0  0  0
   58.1400   27.9640   47.2290 C   0  0  0  0  0  0  0  0  0  0  0  0
   59.5010   27.9890   47.5500 C   0  0  0  0  0  0  0  0  0  0  0  0
   60.4600   27.9510   46.5380 C   0  0  0  0  0  0  0  0  0  0  0  0
   60.0610   27.8870   45.2020 C   0  0  0  0  0  0  0  0  0  0  0  0
   58.7020   27.8590   44.8700 C   0  0  0  0  0  0  0  0  0  0  0  0
   58.3610   27.7900   43.5580 F   0  0  0  0  0  0  0  0  0  0  0  0
   55.8158   29.4217   42.1893 H   0  0  0  0  0  0  0  0  0  0  0  0
   57.0317   31.3085   41.1060 H   0  0  0  0  0  0  0  0  0  0  0  0
   58.2474   32.9827   42.4981 H   0  0  0  0  0  0  0  0  0  0  0  0
   61.4645   31.3307   48.3621 H   0  0  0  0  0  0  0  0  0  0  0  0
   61.9216   30.7316   46.7789 H   0  0  0  0  0  0  0  0  0  0  0  0
   63.3509   32.6530   48.5182 H   0  0  0  0  0  0  0  0  0  0  0  0
   63.9332   31.9413   46.9934 H   0  0  0  0  0  0  0  0  0  0  0  0
   63.0832   34.6577   47.4206 H   0  0  0  0  0  0  0  0  0  0  0  0
   63.4650   33.9230   45.8535 H   0  0  0  0  0  0  0  0  0  0  0  0
   60.9400   34.6250   45.9430 H   0  0  0  0  0  0  0  0  0  0  0  0
   57.0456   30.8706   46.0812 H   0  0  0  0  0  0  0  0  0  0  0  0
   57.3901   27.9954   48.0332 H   0  0  0  0  0  0  0  0  0  0  0  0
   59.8158   28.0387   48.6028 H   0  0  0  0  0  0  0  0  0  0  0  0
   61.5299   27.9715   46.7925 H   0  0  0  0  0  0  0  0  0  0  0  0
   60.8192   27.8584   44.4056 H   0  0  0  0  0  0  0  0  0  0  0  0
  1  2  2  0
  2  3  1  0
  3  4  1  0
  4  5  2  0
  5  6  1  0
  6  7  2  0
  7  8  1  0
  8  9  1  0
  9 10  2  0
  9 11  2  0
  9 12  1  0
 12 13  2  3
 13 14  1  0
 14 15  1  0
 15 16  1  0
 16 17  1  0
  8 18  2  0
  2 19  1  0
 19 20  2  0
 20 21  1  0
 21 22  2  0
 22 23  1  0
 23 24  2  0
 24 25  1  0
 18  4  1  0
 24 19  1  0
 17 13  1  0
  5 26  1  0
  6 27  1  0
  7 28  1  0
 14 29  1  0
 14 30  1  0
 15 31  1  0
 15 32  1  0
 16 33  1  0
 16 34  1  0
 17 35  1  0
 18 36  1  0
 20 37  1  0
 21 38  1  0
 22 39  1  0
 23 40  1  0
M  CHG  1   3  -1
M  END
>  <UniqueID>  (70) 
63

>  <SMILES>  (70) 
O=C([N-]c1cccc(S(=O)(=O)N=C2CCCN2)c1)c1ccccc1F

>  <Energy>  (70) 
55.26971896648201

>  <Genealogy>  (70) 
O=C([N-]c1cccc(S(=O)(=O)N=C2CCCN2)c1)c1ccccc1F (protonated)
O=C([N-]c1cccc(S(=O)(=O)N=C2CCCN2)c1)c1ccccc1F (3D coordinates assigned)
O=C([N-]c1cccc(S(=O)(=O)N=C2CCCN2)c1)c1ccccc1F (nonaromatic ring conformer: 55.26971896648201 kcal/mol)

>  <smiles>  (70) 
O=C(Nc1cccc(S(=O)(=O)N=C2CCCN2)c1)c1ccccc1F

>  <score_type>  (70) 
oracle

>  <origin>  (70) 
adg

>  <m_score__min__energy>  (70) 
-10.630000000000001

>  <m_primary>  (70) 
energy

$$$$
70:0
     RDKit          3D

 50 53  0  0  0  0  0  0  0  0999 V2000
   56.9760   34.6450   44.7010 C   0  0  0  0  0  0  0  0  0  0  0  0
   57.9060   33.7090   45.4170 C   0  0  0  0  0  0  0  0  0  0  0  0
   57.7060   32.3520   45.6570 C   0  0  0  0  0  0  0  0  0  0  0  0
   56.6500   31.4900   45.2170 N   0  0  0  0  0  0  0  0  0  0  0  0
   56.8430   30.1560   44.1280 S   0  0  0  0  0  0  0  0  0  0  0  0
   55.5170   29.8390   43.4940 O   0  0  0  0  0  0  0  0  0  0  0  0
   57.8050   30.5540   43.0440 O   0  0  0  0  0  0  0  0  0  0  0  0
   57.4860   28.7520   44.9710 C   0  0  0  0  0  0  0  0  0  0  0  0
   58.8710   28.6150   45.1370 C   0  0  0  0  0  0  0  0  0  0  0  0
   59.3900   27.5100   45.8140 C   0  0  0  0  0  0  0  0  0  0  0  0
   58.5300   26.5320   46.3230 C   0  0  0  0  0  0  0  0  0  0  0  0
   57.1400   26.6500   46.1440 C   0  0  0  0  0  0  0  0  0  0  0  0
   56.2280   25.6820   46.6830 N   0  0  0  0  0  0  0  0  0  0  0  0
   55.5130   24.6940   45.9310 C   0  0  0  0  0  0  0  0  0  0  0  0
   54.2550   24.6850   45.9810 O   0  0  0  0  0  0  0  0  0  0  0  0
   56.1990   23.7360   45.0470 C   0  0  0  0  0  0  0  0  0  0  0  0
   57.5190   23.3330   45.1300 C   0  0  0  0  0  0  0  0  0  0  0  0
   57.7090   22.4580   44.0810 C   0  0  0  0  0  0  0  0  0  0  0  0
   56.5010   22.3840   43.4210 C   0  0  0  0  0  0  0  0  0  0  0  0
   55.6210   23.1560   44.0190 O   0  0  0  0  0  0  0  0  0  0  0  0
   56.6250   27.7710   45.4800 C   0  0  0  0  0  0  0  0  0  0  0  0
   58.7500   31.9770   46.4670 C   0  0  0  0  0  0  0  0  0  0  0  0
   58.9260   30.8260   46.9510 O   0  0  0  0  0  0  0  0  0  0  0  0
   59.5590   33.0320   46.6850 N   0  0  0  0  0  0  0  0  0  0  0  0
   60.7420   33.0280   47.5050 C   0  0  0  0  0  0  0  0  0  0  0  0
   60.7820   33.7790   48.6900 C   0  0  0  0  0  0  0  0  0  0  0  0
   61.9340   33.7840   49.4840 C   0  0  0  0  0  0  0  0  0  0  0  0
   63.0550   33.0470   49.0930 C   0  0  0  0  0  0  0  0  0  0  0  0
   63.0280   32.3070   47.9060 C   0  0  0  0  0  0  0  0  0  0  0  0
   61.8770   32.2980   47.1130 C   0  0  0  0  0  0  0  0  0  0  0  0
   59.0620   34.0810   46.0310 N   0  0  0  0  0  0  0  0  0  0  0  0
   59.6700   35.4140   45.9840 C   0  0  0  0  0  0  0  0  0  0  0  0
   56.4002   35.2245   45.4377 H   0  0  0  0  0  0  0  0  0  0  0  0
   57.5603   35.3312   44.0704 H   0  0  0  0  0  0  0  0  0  0  0  0
   56.2860   34.0651   44.0704 H   0  0  0  0  0  0  0  0  0  0  0  0
   59.5505   29.3799   44.7329 H   0  0  0  0  0  0  0  0  0  0  0  0
   60.4772   27.4085   45.9472 H   0  0  0  0  0  0  0  0  0  0  0  0
   58.9418   25.6679   46.8650 H   0  0  0  0  0  0  0  0  0  0  0  0
   58.2631   23.6454   45.8775 H   0  0  0  0  0  0  0  0  0  0  0  0
   58.6369   21.9266   43.8231 H   0  0  0  0  0  0  0  0  0  0  0  0
   56.3034   21.7716   42.5289 H   0  0  0  0  0  0  0  0  0  0  0  0
   55.5375   27.8817   45.3575 H   0  0  0  0  0  0  0  0  0  0  0  0
   59.9037   34.3663   48.9959 H   0  0  0  0  0  0  0  0  0  0  0  0
   61.9573   34.3680   50.4159 H   0  0  0  0  0  0  0  0  0  0  0  0
   63.9595   33.0487   49.7190 H   0  0  0  0  0  0  0  0  0  0  0  0
   63.9132   31.7319   47.5966 H   0  0  0  0  0  0  0  0  0  0  0  0
   61.8596   31.7175   46.1788 H   0  0  0  0  0  0  0  0  0  0  0  0
   59.8359   35.7777   47.0088 H   0  0  0  0  0  0  0  0  0  0  0  0
   60.6323   35.3596   45.4540 H   0  0  0  0  0  0  0  0  0  0  0  0
   58.9980   36.1050   45.4540 H   0  0  0  0  0  0  0  0  0  0  0  0
  1  2  1  0
  2  3  2  0
  3  4  1  0
  4  5  1  0
  5  6  2  0
  5  7  2  0
  5  8  1  0
  8  9  2  0
  9 10  1  0
 10 11  2  0
 11 12  1  0
 12 13  1  0
 13 14  1  0
 14 15  2  0
 14 16  1  0
 16 17  2  0
 17 18  1  0
 18 19  2  0
 19 20  1  0
 12 21  2  0
  3 22  1  0
 22 23  2  0
 22 24  1  0
 24 25  1  0
 25 26  2  0
 26 27  1  0
 27 28  2  0
 28 29  1  0
 29 30  2  0
 24 31  1  0
 31 32  1  0
 31  2  1  0
 21  8  1  0
 30 25  1  0
 20 16  1  0
  1 33  1  0
  1 34  1  0
  1 35  1  0
  9 36  1  0
 10 37  1  0
 11 38  1  0
 17 39  1  0
 18 40  1  0
 19 41  1  0
 21 42  1  0
 26 43  1  0
 27 44  1  0
 28 45  1  0
 29 46  1  0
 30 47  1  0
 32 48  1  0
 32 49  1  0
 32 50  1  0
M  CHG  2   4  -1  13  -1
M  END
>  <UniqueID>  (71) 
64

>  <SMILES>  (71) 
Cc1c([N-]S(=O)(=O)c2cccc([N-]C(=O)c3ccco3)c2)c(=O)n(-c2ccccc2)n1C

>  <Energy>  (71) 
133.02739049680454

>  <Genealogy>  (71) 
Cc1c([N-]S(=O)(=O)c2cccc([N-]C(=O)c3ccco3)c2)c(=O)n(-c2ccccc2)n1C (protonated)
Cc1c([N-]S(=O)(=O)c2cccc([N-]C(=O)c3ccco3)c2)c(=O)n(-c2ccccc2)n1C (3D coordinates assigned)
Cc1c([N-]S(=O)(=O)c2cccc([N-]C(=O)c3ccco3)c2)c(=O)n(-c2ccccc2)n1C (optimized conformer: 133.02739049680454 kcal/mol)

>  <smiles>  (71) 
Cc1c(NS(=O)(=O)c2cccc(NC(=O)c3ccco3)c2)c(=O)n(-c2ccccc2)n1C

>  <score_type>  (71) 
oracle

>  <origin>  (71) 
adg

>  <m_score__min__energy>  (71) 
-12.98

>  <m_primary>  (71) 
energy

$$$$
71:0
     RDKit          3D

 42 44  0  0  0  0  0  0  0  0999 V2000
   55.5200   28.5960   45.1880 O   0  0  0  0  0  0  0  0  0  0  0  0
   56.2460   29.5790   44.8810 C   0  0  0  0  0  0  0  0  0  0  0  0
   55.6420   30.7660   44.4910 O   0  0  0  0  0  0  0  0  0  0  0  0
   57.7210   29.4780   44.9870 C   0  0  0  0  0  0  0  0  0  0  0  0
   58.3760   28.4090   44.3460 C   0  0  0  0  0  0  0  0  0  0  0  0
   59.7510   28.2230   44.4960 C   0  0  0  0  0  0  0  0  0  0  0  0
   60.4930   29.0960   45.2910 C   0  0  0  0  0  0  0  0  0  0  0  0
   59.8650   30.1720   45.9180 C   0  0  0  0  0  0  0  0  0  0  0  0
   58.4890   30.3920   45.7560 C   0  0  0  0  0  0  0  0  0  0  0  0
   57.9090   31.5640   46.3530 N   0  0  0  0  0  0  0  0  0  0  0  0
   58.4890   32.8800   46.2430 C   0  0  0  0  0  0  0  0  0  0  0  0
   58.6150   33.4890   44.9790 C   0  0  0  0  0  0  0  0  0  0  0  0
   59.2440   34.7270   44.8440 C   0  0  0  0  0  0  0  0  0  0  0  0
   59.7670   35.3700   45.9630 C   0  0  0  0  0  0  0  0  0  0  0  0
   59.6530   34.7850   47.2240 C   0  0  0  0  0  0  0  0  0  0  0  0
   59.0080   33.5450   47.3860 C   0  0  0  0  0  0  0  0  0  0  0  0
   58.8610   32.9930   48.7540 C   0  0  0  0  0  0  0  0  0  0  0  0
   58.1400   31.9800   48.9590 O   0  0  0  0  0  0  0  0  0  0  0  0
   59.5160   33.6350   49.8550 N   0  0  0  0  0  0  0  0  0  0  0  0
   60.8250   33.2360   50.3590 C   0  0  0  0  0  0  0  0  0  0  0  0
   61.7740   33.0020   49.2160 C   0  0  0  0  0  0  0  0  0  0  0  0
   62.5800   34.0510   48.7460 C   0  0  0  0  0  0  0  0  0  0  0  0
   63.4440   33.8470   47.6640 C   0  0  0  0  0  0  0  0  0  0  0  0
   63.5040   32.5960   47.0440 C   0  0  0  0  0  0  0  0  0  0  0  0
   62.7010   31.5480   47.5020 C   0  0  0  0  0  0  0  0  0  0  0  0
   61.8360   31.7490   48.5830 C   0  0  0  0  0  0  0  0  0  0  0  0
   57.7978   27.7131   43.7204 H   0  0  0  0  0  0  0  0  0  0  0  0
   60.2505   27.3861   43.9861 H   0  0  0  0  0  0  0  0  0  0  0  0
   61.5732   28.9361   45.4235 H   0  0  0  0  0  0  0  0  0  0  0  0
   60.4550   30.8555   46.5463 H   0  0  0  0  0  0  0  0  0  0  0  0
   57.1830   31.4120   47.0890 H   0  0  0  0  0  0  0  0  0  0  0  0
   58.2131   32.9830   44.0888 H   0  0  0  0  0  0  0  0  0  0  0  0
   59.3269   35.1958   43.8523 H   0  0  0  0  0  0  0  0  0  0  0  0
   60.2711   36.3414   45.8522 H   0  0  0  0  0  0  0  0  0  0  0  0
   60.0720   35.2988   48.1017 H   0  0  0  0  0  0  0  0  0  0  0  0
   61.2236   34.0324   51.0047 H   0  0  0  0  0  0  0  0  0  0  0  0
   60.7189   32.3038   50.9332 H   0  0  0  0  0  0  0  0  0  0  0  0
   62.5323   35.0375   49.2302 H   0  0  0  0  0  0  0  0  0  0  0  0
   64.0758   34.6713   47.3016 H   0  0  0  0  0  0  0  0  0  0  0  0
   64.1842   32.4360   46.1944 H   0  0  0  0  0  0  0  0  0  0  0  0
   62.7491   30.5643   47.0122 H   0  0  0  0  0  0  0  0  0  0  0  0
   61.2022   30.9233   48.9387 H   0  0  0  0  0  0  0  0  0  0  0  0
  1  2  2  0
  2  3  1  0
  2  4  1  0
  4  5  2  0
  5  6  1  0
  6  7  2  0
  7  8  1  0
  8  9  2  0
  9 10  1  0
 10 11  1  0
 11 12  2  0
 12 13  1  0
 13 14  2  0
 14 15  1  0
 15 16  2  0
 16 17  1  0
 17 18  2  0
 17 19  1  0
 19 20  1  0
 20 21  1  0
 21 22  2  0
 22 23  1  0
 23 24  2  0
 24 25  1  0
 25 26  2  0
  9  4  1  0
 16 11  1  0
 26 21  1  0
  5 27  1  0
  6 28  1  0
  7 29  1  0
  8 30  1  0
 10 31  1  0
 12 32  1  0
 13 33  1  0
 14 34  1  0
 15 35  1  0
 20 36  1  0
 20 37  1  0
 22 38  1  0
 23 39  1  0
 24 40  1  0
 25 41  1  0
 26 42  1  0
M  CHG  2   3  -1  19  -1
M  END
>  <UniqueID>  (72) 
65

>  <SMILES>  (72) 
O=C([O-])c1ccccc1Nc1ccccc1C(=O)[N-]Cc1ccccc1

>  <Energy>  (72) 
57.47305323802156

>  <Genealogy>  (72) 
O=C([O-])c1ccccc1Nc1ccccc1C(=O)[N-]Cc1ccccc1 (protonated)
O=C([O-])c1ccccc1Nc1ccccc1C(=O)[N-]Cc1ccccc1 (3D coordinates assigned)
O=C([O-])c1ccccc1Nc1ccccc1C(=O)[N-]Cc1ccccc1 (optimized conformer: 57.47305323802156 kcal/mol)

>  <smiles>  (72) 
O=C(O)c1ccccc1Nc1ccccc1C(=O)NCc1ccccc1

>  <score_type>  (72) 
oracle

>  <origin>  (72) 
adg

>  <m_score__min__energy>  (72) 
-13.32

>  <m_primary>  (72) 
energy

$$$$
72:0
     RDKit          3D

 41 43  0  0  0  0  0  0  0  0999 V2000
   58.1160   26.7450   42.5010 C   0  0  0  0  0  0  0  0  0  0  0  0
   57.7900   26.4680   43.9440 C   0  0  0  0  0  0  0  0  0  0  0  0
   57.8160   25.1430   44.4140 C   0  0  0  0  0  0  0  0  0  0  0  0
   57.5200   24.8580   45.7480 C   0  0  0  0  0  0  0  0  0  0  0  0
   57.2080   25.8910   46.6300 C   0  0  0  0  0  0  0  0  0  0  0  0
   57.1880   27.2130   46.1820 C   0  0  0  0  0  0  0  0  0  0  0  0
   57.4700   27.5180   44.8380 C   0  0  0  0  0  0  0  0  0  0  0  0
   57.4860   28.8870   44.3950 N   0  0  0  0  0  0  0  0  0  0  0  0
   56.3950   29.7990   44.6070 C   0  0  0  0  0  0  0  0  0  0  0  0
   55.2400   29.3590   44.8490 O   0  0  0  0  0  0  0  0  0  0  0  0
   56.5790   31.2110   44.4540 N   0  0  0  0  0  0  0  0  0  0  0  0
   57.6310   31.9910   45.0390 C   0  0  0  0  0  0  0  0  0  0  0  0
   58.6570   31.3980   45.7940 C   0  0  0  0  0  0  0  0  0  0  0  0
   59.6540   32.1900   46.3740 C   0  0  0  0  0  0  0  0  0  0  0  0
   59.6220   33.5890   46.2270 C   0  0  0  0  0  0  0  0  0  0  0  0
   60.6050   34.4210   46.7850 O   0  0  0  0  0  0  0  0  0  0  0  0
   61.7250   33.9610   47.4860 C   0  0  0  0  0  0  0  0  0  0  0  0
   62.9520   33.8740   46.8160 C   0  0  0  0  0  0  0  0  0  0  0  0
   64.0890   33.4110   47.4830 C   0  0  0  0  0  0  0  0  0  0  0  0
   64.0110   33.0460   48.8290 C   0  0  0  0  0  0  0  0  0  0  0  0
   62.7970   33.1530   49.5130 C   0  0  0  0  0  0  0  0  0  0  0  0
   61.6520   33.6140   48.8510 C   0  0  0  0  0  0  0  0  0  0  0  0
   60.0350   33.8280   49.8560 Br  0  0  0  0  0  0  0  0  0  0  0  0
   58.5910   34.1760   45.4850 C   0  0  0  0  0  0  0  0  0  0  0  0
   57.5950   33.3840   44.9060 C   0  0  0  0  0  0  0  0  0  0  0  0
   58.9531   27.4563   42.4442 H   0  0  0  0  0  0  0  0  0  0  0  0
   58.3981   25.8061   42.0021 H   0  0  0  0  0  0  0  0  0  0  0  0
   57.2350   27.1750   42.0021 H   0  0  0  0  0  0  0  0  0  0  0  0
   58.0716   24.3246   43.7249 H   0  0  0  0  0  0  0  0  0  0  0  0
   57.5330   23.8171   46.1035 H   0  0  0  0  0  0  0  0  0  0  0  0
   56.9770   25.6642   47.6813 H   0  0  0  0  0  0  0  0  0  0  0  0
   56.9496   28.0236   46.8863 H   0  0  0  0  0  0  0  0  0  0  0  0
   58.3020   29.2290   43.8400 H   0  0  0  0  0  0  0  0  0  0  0  0
   58.6765   30.3066   45.9296 H   0  0  0  0  0  0  0  0  0  0  0  0
   60.4655   31.7174   46.9468 H   0  0  0  0  0  0  0  0  0  0  0  0
   63.0208   34.1717   45.7593 H   0  0  0  0  0  0  0  0  0  0  0  0
   65.0467   33.3338   46.9475 H   0  0  0  0  0  0  0  0  0  0  0  0
   64.9052   32.6743   49.3507 H   0  0  0  0  0  0  0  0  0  0  0  0
   62.7405   32.8741   50.5755 H   0  0  0  0  0  0  0  0  0  0  0  0
   58.5640   35.2681   45.3564 H   0  0  0  0  0  0  0  0  0  0  0  0
   56.7781   33.8584   44.3425 H   0  0  0  0  0  0  0  0  0  0  0  0
  1  2  1  0
  2  3  2  0
  3  4  1  0
  4  5  2  0
  5  6  1  0
  6  7  2  0
  7  8  1  0
  8  9  1  0
  9 10  2  0
  9 11  1  0
 11 12  1  0
 12 13  2  0
 13 14  1  0
 14 15  2  0
 15 16  1  0
 16 17  1  0
 17 18  2  0
 18 19  1  0
 19 20  2  0
 20 21  1  0
 21 22  2  0
 22 23  1  0
 15 24  1  0
 24 25  2  0
  7  2  1  0
 25 12  1  0
 22 17  1  0
  1 26  1  0
  1 27  1  0
  1 28  1  0
  3 29  1  0
  4 30  1  0
  5 31  1  0
  6 32  1  0
  8 33  1  0
 13 34  1  0
 14 35  1  0
 18 36  1  0
 19 37  1  0
 20 38  1  0
 21 39  1  0
 24 40  1  0
 25 41  1  0
M  CHG  1  11  -1
M  END
>  <UniqueID>  (73) 
66

>  <SMILES>  (73) 
Cc1ccccc1NC(=O)[N-]c1ccc(Oc2ccccc2Br)cc1

>  <Energy>  (73) 
59.98572812033572

>  <Genealogy>  (73) 
Cc1ccccc1NC(=O)[N-]c1ccc(Oc2ccccc2Br)cc1 (protonated)
Cc1ccccc1NC(=O)[N-]c1ccc(Oc2ccccc2Br)cc1 (3D coordinates assigned)
Cc1ccccc1NC(=O)[N-]c1ccc(Oc2ccccc2Br)cc1 (optimized conformer: 59.98572812033572 kcal/mol)

>  <smiles>  (73) 
Cc1ccccc1NC(=O)Nc1ccc(Oc2ccccc2Br)cc1

>  <score_type>  (73) 
oracle

>  <origin>  (73) 
adg

>  <m_score__min__energy>  (73) 
-10.74

>  <m_primary>  (73) 
energy

$$$$
73:0
     RDKit          3D

 46 48  0  0  0  0  0  0  0  0999 V2000
   65.2120   32.9960   49.5290 C   0  0  0  0  0  0  0  0  0  0  0  0
   63.7780   32.7930   49.3990 N   0  0  0  0  0  0  0  0  0  0  0  0
   63.0710   33.1360   48.1950 C   0  0  0  0  0  0  0  0  0  0  0  0
   63.7210   33.4770   47.1690 O   0  0  0  0  0  0  0  0  0  0  0  0
   61.5920   33.1170   48.1650 C   0  0  0  0  0  0  0  0  0  0  0  0
   60.8880   33.4130   46.9850 C   0  0  0  0  0  0  0  0  0  0  0  0
   59.4810   33.4400   47.0020 C   0  0  0  0  0  0  0  0  0  0  0  0
   58.7240   33.7320   45.8540 O   0  0  0  0  0  0  0  0  0  0  0  0
   58.2350   32.7880   44.9380 C   0  0  0  0  0  0  0  0  0  0  0  0
   58.4220   33.0180   43.5700 C   0  0  0  0  0  0  0  0  0  0  0  0
   57.9300   32.1090   42.6180 C   0  0  0  0  0  0  0  0  0  0  0  0
   58.0950   32.3010   41.2390 O   0  0  0  0  0  0  0  0  0  0  0  0
   57.0560   32.7000   40.3520 C   0  0  0  0  0  0  0  0  0  0  0  0
   57.2450   30.9680   43.0530 C   0  0  0  0  0  0  0  0  0  0  0  0
   57.0660   30.7090   44.4220 C   0  0  0  0  0  0  0  0  0  0  0  0
   56.3010   29.5240   44.8710 C   0  0  0  0  0  0  0  0  0  0  0  0
   55.1070   29.3710   44.4930 O   0  0  0  0  0  0  0  0  0  0  0  0
   56.9200   28.5550   45.7380 N   0  0  0  0  0  0  0  0  0  0  0  0
   56.7150   27.2690   45.7010 C   0  0  0  0  0  0  0  0  0  0  0  0
   57.6900   26.3350   45.4260 C   0  0  0  0  0  0  0  0  0  0  0  0
   57.0310   25.1290   45.5250 C   0  0  0  0  0  0  0  0  0  0  0  0
   55.7440   25.3690   45.8490 N   0  0  0  0  0  0  0  0  0  0  0  0
   54.6970   24.3630   45.9980 C   0  0  0  0  0  0  0  0  0  0  0  0
   55.5340   26.6710   45.9510 N   0  0  0  0  0  0  0  0  0  0  0  0
   57.5920   31.6130   45.3590 C   0  0  0  0  0  0  0  0  0  0  0  0
   58.8090   33.1190   48.1850 C   0  0  0  0  0  0  0  0  0  0  0  0
   59.5420   32.8130   49.3340 C   0  0  0  0  0  0  0  0  0  0  0  0
   60.9000   32.8260   49.3000 N   0  0  0  0  0  0  0  0  0  0  0  0
   65.4818   33.0342   50.5947 H   0  0  0  0  0  0  0  0  0  0  0  0
   65.7454   32.1644   49.0453 H   0  0  0  0  0  0  0  0  0  0  0  0
   65.4936   33.9430   49.0453 H   0  0  0  0  0  0  0  0  0  0  0  0
   63.2510   32.4380   50.2280 H   0  0  0  0  0  0  0  0  0  0  0  0
   61.4338   33.6224   46.0532 H   0  0  0  0  0  0  0  0  0  0  0  0
   58.9590   33.9185   43.2371 H   0  0  0  0  0  0  0  0  0  0  0  0
   56.1849   33.0345   40.9345 H   0  0  0  0  0  0  0  0  0  0  0  0
   57.4120   33.5254   39.7180 H   0  0  0  0  0  0  0  0  0  0  0  0
   56.7680   31.8485   39.7180 H   0  0  0  0  0  0  0  0  0  0  0  0
   56.8407   30.2635   42.3112 H   0  0  0  0  0  0  0  0  0  0  0  0
   58.7484   26.5112   45.1837 H   0  0  0  0  0  0  0  0  0  0  0  0
   57.4793   24.1371   45.3664 H   0  0  0  0  0  0  0  0  0  0  0  0
   54.5103   24.1836   47.0671 H   0  0  0  0  0  0  0  0  0  0  0  0
   53.7735   24.7212   45.5196 H   0  0  0  0  0  0  0  0  0  0  0  0
   55.0181   23.4260   45.5196 H   0  0  0  0  0  0  0  0  0  0  0  0
   57.4993   31.3984   46.4339 H   0  0  0  0  0  0  0  0  0  0  0  0
   57.7094   33.1074   48.2109 H   0  0  0  0  0  0  0  0  0  0  0  0
   59.0186   32.5610   50.2681 H   0  0  0  0  0  0  0  0  0  0  0  0
  1  2  1  0
  2  3  1  0
  3  4  2  0
  3  5  1  0
  5  6  2  0
  6  7  1  0
  7  8  1  0
  8  9  1  0
  9 10  2  0
 10 11  1  0
 11 12  1  0
 12 13  1  0
 11 14  2  0
 14 15  1  0
 15 16  1  0
 16 17  2  0
 16 18  1  0
 18 19  2  3
 19 20  1  0
 20 21  2  0
 21 22  1  0
 22 23  1  0
 22 24  1  0
 15 25  2  0
  7 26  2  0
 26 27  1  0
 27 28  2  0
 28  5  1  0
 25  9  1  0
 24 19  1  0
  1 29  1  0
  1 30  1  0
  1 31  1  0
  2 32  1  0
  6 33  1  0
 10 34  1  0
 13 35  1  0
 13 36  1  0
 13 37  1  0
 14 38  1  0
 20 39  1  0
 21 40  1  0
 23 41  1  0
 23 42  1  0
 23 43  1  0
 25 44  1  0
 26 45  1  0
 27 46  1  0
M  CHG  1  24  -1
M  END
>  <UniqueID>  (74) 
67

>  <SMILES>  (74) 
CNC(=O)c1cc(Oc2cc(OC)cc(C(=O)N=c3ccn(C)[n-]3)c2)ccn1

>  <Energy>  (74) 
84.73349856750616

>  <Genealogy>  (74) 
CNC(=O)c1cc(Oc2cc(OC)cc(C(=O)N=c3ccn(C)[n-]3)c2)ccn1 (protonated)
CNC(=O)c1cc(Oc2cc(OC)cc(C(=O)N=c3ccn(C)[n-]3)c2)ccn1 (3D coordinates assigned)
CNC(=O)c1cc(Oc2cc(OC)cc(C(=O)N=c3ccn(C)[n-]3)c2)ccn1 (optimized conformer: 84.73349856750616 kcal/mol)

>  <smiles>  (74) 
CNC(=O)c1cc(Oc2cc(OC)cc(C(=O)N=c3ccn(C)[nH]3)c2)ccn1

>  <score_type>  (74) 
oracle

>  <origin>  (74) 
adg

>  <m_score__min__energy>  (74) 
-9.7899999999999991

>  <m_primary>  (74) 
energy

$$$$
74:0
     RDKit          3D

 36 37  0  0  0  0  0  0  0  0999 V2000
   60.5980   34.4550   48.6400 C   0  0  0  0  0  0  0  0  0  0  0  0
   59.7710   34.0990   47.4320 C   0  0  0  0  0  0  0  0  0  0  0  0
   59.9860   34.7840   46.2250 C   0  0  0  0  0  0  0  0  0  0  0  0
   59.2330   34.4770   45.0900 C   0  0  0  0  0  0  0  0  0  0  0  0
   58.2550   33.4720   45.1380 C   0  0  0  0  0  0  0  0  0  0  0  0
   57.4680   33.1410   43.9820 N   0  0  0  0  0  0  0  0  0  0  0  0
   57.8050   32.0910   43.0640 C   0  0  0  0  0  0  0  0  0  0  0  0
   57.6790   32.3750   41.4580 S   0  0  0  0  0  0  0  0  0  0  0  0
   58.0820   30.7560   43.5200 N   0  0  0  0  0  0  0  0  0  0  0  0
   57.7200   30.2550   44.8470 C   0  0  0  0  0  0  0  0  0  0  0  0
   57.7560   28.7550   44.8840 C   0  0  0  0  0  0  0  0  0  0  0  0
   57.4860   28.0620   46.0730 C   0  0  0  0  0  0  0  0  0  0  0  0
   57.5490   26.6680   46.0820 C   0  0  0  0  0  0  0  0  0  0  0  0
   57.8790   25.9800   44.9120 C   0  0  0  0  0  0  0  0  0  0  0  0
   58.1400   26.7020   43.7460 C   0  0  0  0  0  0  0  0  0  0  0  0
   58.0730   28.0600   43.7570 N   0  0  0  0  0  0  0  0  0  0  0  0
   58.0170   32.8040   46.3460 C   0  0  0  0  0  0  0  0  0  0  0  0
   58.7640   33.1060   47.4970 C   0  0  0  0  0  0  0  0  0  0  0  0
   58.4950   32.3480   48.7710 C   0  0  0  0  0  0  0  0  0  0  0  0
   60.0355   34.2129   49.5538 H   0  0  0  0  0  0  0  0  0  0  0  0
   61.5363   33.8811   48.6241 H   0  0  0  0  0  0  0  0  0  0  0  0
   60.8260   35.5310   48.6241 H   0  0  0  0  0  0  0  0  0  0  0  0
   60.7545   35.5694   46.1733 H   0  0  0  0  0  0  0  0  0  0  0  0
   59.4074   35.0261   44.1529 H   0  0  0  0  0  0  0  0  0  0  0  0
   56.6430   33.7420   43.7540 H   0  0  0  0  0  0  0  0  0  0  0  0
   58.4480   30.0630   42.8270 H   0  0  0  0  0  0  0  0  0  0  0  0
   58.4314   30.6502   45.5871 H   0  0  0  0  0  0  0  0  0  0  0  0
   56.6974   30.5868   45.0799 H   0  0  0  0  0  0  0  0  0  0  0  0
   57.2270   28.6121   46.9897 H   0  0  0  0  0  0  0  0  0  0  0  0
   57.3394   26.1124   47.0080 H   0  0  0  0  0  0  0  0  0  0  0  0
   57.9326   24.8813   44.9094 H   0  0  0  0  0  0  0  0  0  0  0  0
   58.4000   26.1720   42.8178 H   0  0  0  0  0  0  0  0  0  0  0  0
   57.2345   32.0324   46.3941 H   0  0  0  0  0  0  0  0  0  0  0  0
   58.7228   32.9900   49.6347 H   0  0  0  0  0  0  0  0  0  0  0  0
   57.4365   32.0507   48.8042 H   0  0  0  0  0  0  0  0  0  0  0  0
   59.1293   31.4499   48.8042 H   0  0  0  0  0  0  0  0  0  0  0  0
  1  2  1  0
  2  3  2  0
  3  4  1  0
  4  5  2  0
  5  6  1  0
  6  7  1  0
  7  8  2  0
  7  9  1  0
  9 10  1  0
 10 11  1  0
 11 12  2  0
 12 13  1  0
 13 14  2  0
 14 15  1  0
 15 16  2  0
  5 17  1  0
 17 18  2  0
 18 19  1  0
 18  2  1  0
 16 11  1  0
  1 20  1  0
  1 21  1  0
  1 22  1  0
  3 23  1  0
  4 24  1  0
  6 25  1  0
  9 26  1  0
 10 27  1  0
 10 28  1  0
 12 29  1  0
 13 30  1  0
 14 31  1  0
 15 32  1  0
 17 33  1  0
 19 34  1  0
 19 35  1  0
 19 36  1  0
M  END
>  <UniqueID>  (75) 
68

>  <SMILES>  (75) 
Cc1ccc(NC(=S)NCc2ccccn2)cc1C

>  <Energy>  (75) 
38.77064852880703

>  <Genealogy>  (75) 
Cc1ccc(NC(=S)NCc2ccccn2)cc1C (3D coordinates assigned)
Cc1ccc(NC(=S)NCc2ccccn2)cc1C (optimized conformer: 38.77064852880703 kcal/mol)

>  <smiles>  (75) 
Cc1ccc(NC(=S)NCc2ccccn2)cc1C

>  <score_type>  (75) 
oracle

>  <origin>  (75) 
adg

>  <m_score__min__energy>  (75) 
-7.0199999999999996

>  <m_primary>  (75) 
energy

$$$$
75:0
     RDKit          3D

 58 61  0  0  0  0  0  0  0  0999 V2000
   58.2616   33.8530   45.0495 H   0  0  0  0  0  0  0  0  0  0  0  0
   57.9530   32.9930   44.4370 C   0  0  0  0  0  0  0  0  0  0  0  0
   58.1190   33.0270   43.0900 N   0  0  0  0  0  0  0  0  0  0  0  0
   57.7500   31.9840   42.3000 C   0  0  0  0  0  0  0  0  0  0  0  0
   57.8976   32.0401   41.2114 H   0  0  0  0  0  0  0  0  0  0  0  0
   57.1840   30.8420   42.8690 C   0  0  0  0  0  0  0  0  0  0  0  0
   56.8832   29.9983   42.2305 H   0  0  0  0  0  0  0  0  0  0  0  0
   57.0000   30.7740   44.2590 C   0  0  0  0  0  0  0  0  0  0  0  0
   56.3960   29.5720   44.8770 C   0  0  0  0  0  0  0  0  0  0  0  0
   55.1590   29.3490   44.7520 O   0  0  0  0  0  0  0  0  0  0  0  0
   57.2010   28.6820   45.5960 O   0  0  0  0  0  0  0  0  0  0  0  0
   56.9680   27.2770   45.6260 C   0  0  0  0  0  0  0  0  0  0  0  0
   56.4569   27.0138   46.5638 H   0  0  0  0  0  0  0  0  0  0  0  0
   56.3420   26.9995   44.7651 H   0  0  0  0  0  0  0  0  0  0  0  0
   58.2960   26.5160   45.5430 C   0  0  0  0  0  0  0  0  0  0  0  0
   58.5133   26.0743   46.5267 H   0  0  0  0  0  0  0  0  0  0  0  0
   58.1930   25.7404   44.7699 H   0  0  0  0  0  0  0  0  0  0  0  0
   59.4610   27.4270   45.1430 C   0  0  0  0  0  0  0  0  0  0  0  0
   60.0836   26.9160   44.3939 H   0  0  0  0  0  0  0  0  0  0  0  0
   59.0630   28.3609   44.7193 H   0  0  0  0  0  0  0  0  0  0  0  0
   60.2530   27.7300   46.2900 O   0  0  0  0  0  0  0  0  0  0  0  0
   59.9590   28.7840   47.1360 N   0  0  0  0  0  0  0  0  0  0  0  0
   59.8020   28.5390   48.4590 C   0  0  0  0  0  0  0  0  0  0  0  0
   59.9810   27.3760   48.9140 O   0  0  0  0  0  0  0  0  0  0  0  0
   59.4250   29.5380   49.2940 N   0  0  0  0  0  0  0  0  0  0  0  0
   59.2390   29.3160   50.3000 H   0  0  0  0  0  0  0  0  0  0  0  0
   59.1690   30.7840   48.8160 C   0  0  0  0  0  0  0  0  0  0  0  0
   58.5270   31.6070   49.6060 N   0  0  0  0  0  0  0  0  0  0  0  0
   58.9530   32.2290   50.8290 C   0  0  0  0  0  0  0  0  0  0  0  0
   57.9860   32.7470   51.7020 C   0  0  0  0  0  0  0  0  0  0  0  0
   56.9174   32.6289   51.4693 H   0  0  0  0  0  0  0  0  0  0  0  0
   58.3760   33.4130   52.8670 C   0  0  0  0  0  0  0  0  0  0  0  0
   57.6135   33.8062   53.5554 H   0  0  0  0  0  0  0  0  0  0  0  0
   59.7330   33.5810   53.1600 C   0  0  0  0  0  0  0  0  0  0  0  0
   60.0375   34.0945   54.0839 H   0  0  0  0  0  0  0  0  0  0  0  0
   60.7010   33.0960   52.2780 C   0  0  0  0  0  0  0  0  0  0  0  0
   61.7685   33.2356   52.5035 H   0  0  0  0  0  0  0  0  0  0  0  0
   60.3160   32.4340   51.1100 C   0  0  0  0  0  0  0  0  0  0  0  0
   61.0811   32.0717   50.4076 H   0  0  0  0  0  0  0  0  0  0  0  0
   59.5090   31.0880   47.5130 N   0  0  0  0  0  0  0  0  0  0  0  0
   59.9230   32.4510   47.0910 C   0  0  0  0  0  0  0  0  0  0  0  0
   59.9787   32.4911   45.9931 H   0  0  0  0  0  0  0  0  0  0  0  0
   59.1847   33.1810   47.4544 H   0  0  0  0  0  0  0  0  0  0  0  0
   61.2770   32.7840   47.6730 C   0  0  0  0  0  0  0  0  0  0  0  0
   62.3840   31.9470   47.4460 C   0  0  0  0  0  0  0  0  0  0  0  0
   62.2783   31.0621   46.8012 H   0  0  0  0  0  0  0  0  0  0  0  0
   63.6200   32.2350   48.0370 C   0  0  0  0  0  0  0  0  0  0  0  0
   64.4783   31.5680   47.8682 H   0  0  0  0  0  0  0  0  0  0  0  0
   63.7650   33.3700   48.8420 C   0  0  0  0  0  0  0  0  0  0  0  0
   64.7416   33.6054   49.2902 H   0  0  0  0  0  0  0  0  0  0  0  0
   62.6670   34.2060   49.0770 C   0  0  0  0  0  0  0  0  0  0  0  0
   62.7793   35.0949   49.7152 H   0  0  0  0  0  0  0  0  0  0  0  0
   61.4260   33.9110   48.5000 C   0  0  0  0  0  0  0  0  0  0  0  0
   60.5629   34.5646   48.6948 H   0  0  0  0  0  0  0  0  0  0  0  0
   59.7920   30.0510   46.6570 C   0  0  0  0  0  0  0  0  0  0  0  0
   59.9060   30.2690   45.4200 O   0  0  0  0  0  0  0  0  0  0  0  0
   57.3910   31.8680   45.0480 C   0  0  0  0  0  0  0  0  0  0  0  0
   57.2560   31.8400   46.1393 H   0  0  0  0  0  0  0  0  0  0  0  0
  1  2  1  0
  2  3  2  0
  3  4  1  0
  4  5  1  0
  4  6  2  0
  6  7  1  0
  6  8  1  0
  8  9  1  0
  9 10  2  0
  9 11  1  0
 11 12  1  0
 12 13  1  0
 12 14  1  0
 12 15  1  0
 15 16  1  0
 15 17  1  0
 15 18  1  0
 18 19  1  0
 18 20  1  0
 18 21  1  0
 21 22  1  0
 22 23  1  0
 23 24  2  0
 23 25  1  0
 25 26  1  0
 25 27  1  0
 27 28  2  0
 28 29  1  0
 29 30  2  0
 30 31  1  0
 30 32  1  0
 32 33  1  0
 32 34  2  0
 34 35  1  0
 34 36  1  0
 36 37  1  0
 36 38  2  0
 38 39  1  0
 27 40  1  0
 40 41  1  0
 41 42  1  0
 41 43  1  0
 41 44  1  0
 44 45  2  0
 45 46  1  0
 45 47  1  0
 47 48  1  0
 47 49  2  0
 49 50  1  0
 49 51  1  0
 51 52  1  0
 51 53  2  0
 53 54  1  0
 40 55  1  0
 55 56  2  0
  8 57  2  0
 57 58  1  0
 57  2  1  0
 55 22  1  0
 38 29  1  0
 53 44  1  0
M  END
>  <UniqueID>  (76) 
69

>  <SMILES>  (76) 
O=C(OCCCOn1c(=O)[nH]/c(=N/c2ccccc2)n(Cc2ccccc2)c1=O)c1ccncc1

>  <Energy>  (76) 
89.41963304915971

>  <Genealogy>  (76) 
O=C(OCCCOn1c(=O)[nH]/c(=N/c2ccccc2)n(Cc2ccccc2)c1=O)c1ccncc1 (cis-trans isomerization)
O=C(OCCCOn1c(=O)[nH]/c(=N/c2ccccc2)n(Cc2ccccc2)c1=O)c1ccncc1 (3D coordinates assigned)
O=C(OCCCOn1c(=O)[nH]/c(=N/c2ccccc2)n(Cc2ccccc2)c1=O)c1ccncc1 (optimized conformer: 89.41963304915971 kcal/mol)

>  <smiles>  (76) 
O=C(OCCCOn1c(=O)[nH]c(=Nc2ccccc2)n(Cc2ccccc2)c1=O)c1ccncc1

>  <score_type>  (76) 
oracle

>  <origin>  (76) 
adg

>  <m_score__min__energy>  (76) 
-8.7899999999999991

>  <m_primary>  (76) 
energy

$$$$
76:0
     RDKit          3D

 46 48  0  0  0  0  0  0  0  0999 V2000
   60.3390   33.5590   45.7550 N   0  0  0  0  0  0  0  0  0  0  0  0
   58.7000   33.9770   45.4030 S   0  0  0  0  0  0  0  0  0  0  0  0
   57.9500   34.1830   46.6900 O   0  0  0  0  0  0  0  0  0  0  0  0
   58.6660   35.2570   44.6160 O   0  0  0  0  0  0  0  0  0  0  0  0
   57.9480   32.6870   44.4690 C   0  0  0  0  0  0  0  0  0  0  0  0
   57.9940   32.7180   43.0700 C   0  0  0  0  0  0  0  0  0  0  0  0
   57.4000   31.6950   42.3260 C   0  0  0  0  0  0  0  0  0  0  0  0
   56.7690   30.6300   42.9750 C   0  0  0  0  0  0  0  0  0  0  0  0
   56.7430   30.5740   44.3810 C   0  0  0  0  0  0  0  0  0  0  0  0
   56.0870   29.5110   45.0860 N   0  0  0  0  0  0  0  0  0  0  0  0
   56.6380   28.2220   45.3860 C   0  0  0  0  0  0  0  0  0  0  0  0
   55.8880   27.2410   45.6380 O   0  0  0  0  0  0  0  0  0  0  0  0
   58.1200   28.0410   45.3930 C   0  0  0  0  0  0  0  0  0  0  0  0
   58.7050   28.7010   46.6010 C   0  0  0  0  0  0  0  0  0  0  0  0
   58.5630   28.2610   47.9120 C   0  0  0  0  0  0  0  0  0  0  0  0
   59.2830   29.0320   48.8330 C   0  0  0  0  0  0  0  0  0  0  0  0
   59.9990   30.0600   48.2340 C   0  0  0  0  0  0  0  0  0  0  0  0
   60.9950   31.2390   49.0670 S   0  0  0  0  0  0  0  0  0  0  0  0
   62.2930   30.5850   49.4440 O   0  0  0  0  0  0  0  0  0  0  0  0
   60.2930   31.6810   50.3220 O   0  0  0  0  0  0  0  0  0  0  0  0
   61.2860   32.6020   48.0050 N   0  0  0  0  0  0  0  0  0  0  0  0
   61.1330   33.8940   48.7110 C   0  0  0  0  0  0  0  0  0  0  0  0
   62.4820   34.5030   49.1360 C   0  0  0  0  0  0  0  0  0  0  0  0
   63.4050   33.4820   49.4420 O   0  0  0  0  0  0  0  0  0  0  0  0
   63.7760   32.7890   48.2630 C   0  0  0  0  0  0  0  0  0  0  0  0
   62.5860   32.4880   47.3200 C   0  0  0  0  0  0  0  0  0  0  0  0
   59.7440   30.0250   46.5740 S   0  0  0  0  0  0  0  0  0  0  0  0
   57.3200   31.6150   45.1190 C   0  0  0  0  0  0  0  0  0  0  0  0
   60.3410   32.5580   46.0570 H   0  0  0  0  0  0  0  0  0  0  0  0
   60.6260   34.1230   46.5870 H   0  0  0  0  0  0  0  0  0  0  0  0
   58.4986   33.5491   42.5556 H   0  0  0  0  0  0  0  0  0  0  0  0
   57.4291   31.7280   41.2269 H   0  0  0  0  0  0  0  0  0  0  0  0
   56.2915   29.8336   42.3853 H   0  0  0  0  0  0  0  0  0  0  0  0
   58.3567   26.9670   45.4130 H   0  0  0  0  0  0  0  0  0  0  0  0
   58.5461   28.4975   44.4874 H   0  0  0  0  0  0  0  0  0  0  0  0
   57.9475   27.3950   48.1970 H   0  0  0  0  0  0  0  0  0  0  0  0
   59.2815   28.8432   49.9167 H   0  0  0  0  0  0  0  0  0  0  0  0
   60.6225   34.6023   48.0419 H   0  0  0  0  0  0  0  0  0  0  0  0
   60.5509   33.7059   49.6252 H   0  0  0  0  0  0  0  0  0  0  0  0
   62.8786   35.1161   48.3134 H   0  0  0  0  0  0  0  0  0  0  0  0
   62.3279   35.1257   50.0296 H   0  0  0  0  0  0  0  0  0  0  0  0
   64.5073   33.4015   47.7153 H   0  0  0  0  0  0  0  0  0  0  0  0
   64.1922   31.8201   48.5761 H   0  0  0  0  0  0  0  0  0  0  0  0
   62.6086   33.2017   46.4832 H   0  0  0  0  0  0  0  0  0  0  0  0
   62.6904   31.4514   46.9672 H   0  0  0  0  0  0  0  0  0  0  0  0
   57.2802   31.5915   46.2180 H   0  0  0  0  0  0  0  0  0  0  0  0
  1  2  1  0
  2  3  2  0
  2  4  2  0
  2  5  1  0
  5  6  2  0
  6  7  1  0
  7  8  2  0
  8  9  1  0
  9 10  1  0
 10 11  1  0
 11 12  2  0
 11 13  1  0
 13 14  1  0
 14 15  2  0
 15 16  1  0
 16 17  2  0
 17 18  1  0
 18 19  2  0
 18 20  2  0
 18 21  1  0
 21 22  1  0
 22 23  1  0
 23 24  1  0
 24 25  1  0
 25 26  1  0
 17 27  1  0
  9 28  2  0
 28  5  1  0
 27 14  1  0
 26 21  1  0
  1 29  1  0
  1 30  1  0
  6 31  1  0
  7 32  1  0
  8 33  1  0
 13 34  1  0
 13 35  1  0
 15 36  1  0
 16 37  1  0
 22 38  1  0
 22 39  1  0
 23 40  1  0
 23 41  1  0
 25 42  1  0
 25 43  1  0
 26 44  1  0
 26 45  1  0
 28 46  1  0
M  CHG  1  10  -1
M  END
>  <UniqueID>  (77) 
70

>  <SMILES>  (77) 
NS(=O)(=O)c1cccc([N-]C(=O)Cc2ccc(S(=O)(=O)N3CCOCC3)s2)c1

>  <Energy>  (77) 
83.26650543301511

>  <Genealogy>  (77) 
NS(=O)(=O)c1cccc([N-]C(=O)Cc2ccc(S(=O)(=O)N3CCOCC3)s2)c1 (protonated)
NS(=O)(=O)c1cccc([N-]C(=O)Cc2ccc(S(=O)(=O)N3CCOCC3)s2)c1 (3D coordinates assigned)
NS(=O)(=O)c1cccc([N-]C(=O)Cc2ccc(S(=O)(=O)N3CCOCC3)s2)c1 (nonaromatic ring conformer: 83.26650543301511 kcal/mol)

>  <smiles>  (77) 
NS(=O)(=O)c1cccc(NC(=O)Cc2ccc(S(=O)(=O)N3CCOCC3)s2)c1

>  <score_type>  (77) 
oracle

>  <origin>  (77) 
adg

>  <m_score__min__energy>  (77) 
-11.119999999999999

>  <m_primary>  (77) 
energy

$$$$
77:0
     RDKit          3D

 52 55  0  0  0  0  0  0  0  0999 V2000
   56.7170   29.2140   43.1540 O   0  0  0  0  0  0  0  0  0  0  0  0
   56.2770   29.5300   44.2910 C   0  0  0  0  0  0  0  0  0  0  0  0
   56.0530   30.9150   44.5870 N   0  0  0  0  0  0  0  0  0  0  0  0
   57.0230   31.8580   45.0620 C   0  0  0  0  0  0  0  0  0  0  0  0
   57.1370   33.1510   44.5190 C   0  0  0  0  0  0  0  0  0  0  0  0
   58.0930   34.0430   45.0160 C   0  0  0  0  0  0  0  0  0  0  0  0
   58.9620   33.6460   46.0400 C   0  0  0  0  0  0  0  0  0  0  0  0
   60.1650   34.7580   46.6810 S   0  0  0  0  0  0  0  0  0  0  0  0
   59.9810   34.9440   48.1620 O   0  0  0  0  0  0  0  0  0  0  0  0
   60.0140   36.0870   45.9980 O   0  0  0  0  0  0  0  0  0  0  0  0
   61.7560   34.1370   46.3740 N   0  0  0  0  0  0  0  0  0  0  0  0
   62.4420   33.4480   47.2340 C   0  0  0  0  0  0  0  0  0  0  0  0
   61.9710   32.2410   47.6490 N   0  0  0  0  0  0  0  0  0  0  0  0
   62.6590   31.4930   48.5500 C   0  0  0  0  0  0  0  0  0  0  0  0
   63.8670   31.9610   49.0650 C   0  0  0  0  0  0  0  0  0  0  0  0
   64.3360   33.2000   48.6330 C   0  0  0  0  0  0  0  0  0  0  0  0
   63.6190   33.9210   47.7330 N   0  0  0  0  0  0  0  0  0  0  0  0
   58.8850   32.3410   46.5430 C   0  0  0  0  0  0  0  0  0  0  0  0
   57.9320   31.4520   46.0450 C   0  0  0  0  0  0  0  0  0  0  0  0
   56.0040   28.4930   45.2420 N   0  0  0  0  0  0  0  0  0  0  0  0
   56.9540   27.5470   45.7490 C   0  0  0  0  0  0  0  0  0  0  0  0
   58.3090   27.9070   45.7560 C   0  0  0  0  0  0  0  0  0  0  0  0
   59.2730   27.0320   46.2560 C   0  0  0  0  0  0  0  0  0  0  0  0
   58.8870   25.7990   46.7810 C   0  0  0  0  0  0  0  0  0  0  0  0
   57.5370   25.4400   46.8100 C   0  0  0  0  0  0  0  0  0  0  0  0
   56.5520   26.3120   46.3020 C   0  0  0  0  0  0  0  0  0  0  0  0
   55.1800   26.0030   46.3670 O   0  0  0  0  0  0  0  0  0  0  0  0
   54.5190   24.9840   45.6120 C   0  0  0  0  0  0  0  0  0  0  0  0
   55.5000   23.9550   45.1200 C   0  0  0  0  0  0  0  0  0  0  0  0
   55.8590   22.8810   45.9480 C   0  0  0  0  0  0  0  0  0  0  0  0
   56.7720   21.9200   45.5020 C   0  0  0  0  0  0  0  0  0  0  0  0
   57.3340   22.0250   44.2260 C   0  0  0  0  0  0  0  0  0  0  0  0
   56.9920   23.1000   43.4010 C   0  0  0  0  0  0  0  0  0  0  0  0
   56.0910   24.0700   43.8500 C   0  0  0  0  0  0  0  0  0  0  0  0
   56.4715   33.4617   43.7001 H   0  0  0  0  0  0  0  0  0  0  0  0
   58.1625   35.0594   44.6013 H   0  0  0  0  0  0  0  0  0  0  0  0
   62.2634   30.5188   48.8731 H   0  0  0  0  0  0  0  0  0  0  0  0
   64.4362   31.3665   49.7948 H   0  0  0  0  0  0  0  0  0  0  0  0
   65.2869   33.5940   49.0210 H   0  0  0  0  0  0  0  0  0  0  0  0
   59.5780   32.0161   47.3330 H   0  0  0  0  0  0  0  0  0  0  0  0
   57.8950   30.4219   46.4290 H   0  0  0  0  0  0  0  0  0  0  0  0
   58.6144   28.8882   45.3637 H   0  0  0  0  0  0  0  0  0  0  0  0
   60.3361   27.3139   46.2363 H   0  0  0  0  0  0  0  0  0  0  0  0
   59.6472   25.1074   47.1732 H   0  0  0  0  0  0  0  0  0  0  0  0
   57.2400   24.4689   47.2327 H   0  0  0  0  0  0  0  0  0  0  0  0
   53.7710   24.4914   46.2506 H   0  0  0  0  0  0  0  0  0  0  0  0
   54.0352   25.4511   44.7415 H   0  0  0  0  0  0  0  0  0  0  0  0
   55.4203   22.7943   46.9530 H   0  0  0  0  0  0  0  0  0  0  0  0
   57.0485   21.0800   46.1562 H   0  0  0  0  0  0  0  0  0  0  0  0
   58.0440   21.2629   43.8722 H   0  0  0  0  0  0  0  0  0  0  0  0
   57.4326   23.1830   42.3965 H   0  0  0  0  0  0  0  0  0  0  0  0
   55.8435   24.9271   43.2065 H   0  0  0  0  0  0  0  0  0  0  0  0
  1  2  2  0
  2  3  1  0
  3  4  1  0
  4  5  2  0
  5  6  1  0
  6  7  2  0
  7  8  1  0
  8  9  2  0
  8 10  2  0
  8 11  1  0
 11 12  2  3
 12 13  1  0
 13 14  2  0
 14 15  1  0
 15 16  2  0
 16 17  1  0
  7 18  1  0
 18 19  2  0
  2 20  1  0
 20 21  1  0
 21 22  2  0
 22 23  1  0
 23 24  2  0
 24 25  1  0
 25 26  2  0
 26 27  1  0
 27 28  1  0
 28 29  1  0
 29 30  2  0
 30 31  1  0
 31 32  2  0
 32 33  1  0
 33 34  2  0
 19  4  1  0
 26 21  1  0
 34 29  1  0
 17 12  1  0
  5 35  1  0
  6 36  1  0
 14 37  1  0
 15 38  1  0
 16 39  1  0
 18 40  1  0
 19 41  1  0
 22 42  1  0
 23 43  1  0
 24 44  1  0
 25 45  1  0
 28 46  1  0
 28 47  1  0
 30 48  1  0
 31 49  1  0
 32 50  1  0
 33 51  1  0
 34 52  1  0
M  CHG  3   3  -1  17  -1  20  -1
M  END
>  <UniqueID>  (78) 
71

>  <SMILES>  (78) 
O=C([N-]c1ccc(S(=O)(=O)N=c2nccc[n-]2)cc1)[N-]c1ccccc1OCc1ccccc1

>  <Energy>  (78) 
66.31033444501666

>  <Genealogy>  (78) 
O=C([N-]c1ccc(S(=O)(=O)N=c2nccc[n-]2)cc1)[N-]c1ccccc1OCc1ccccc1 (protonated)
O=C([N-]c1ccc(S(=O)(=O)N=c2nccc[n-]2)cc1)[N-]c1ccccc1OCc1ccccc1 (3D coordinates assigned)
O=C([N-]c1ccc(S(=O)(=O)N=c2nccc[n-]2)cc1)[N-]c1ccccc1OCc1ccccc1 (optimized conformer: 66.31033444501666 kcal/mol)

>  <smiles>  (78) 
O=C(Nc1ccc(S(=O)(=O)N=c2nccc[nH]2)cc1)Nc1ccccc1OCc1ccccc1

>  <score_type>  (78) 
oracle

>  <origin>  (78) 
adg

>  <m_score__min__energy>  (78) 
-14.33

>  <m_primary>  (78) 
energy

$$$$
78:0
     RDKit          3D

 51 53  0  0  0  0  0  0  0  0999 V2000
   56.2027   29.8681   42.0646 H   0  0  0  0  0  0  0  0  0  0  0  0
   56.8740   30.4910   42.6740 C   0  0  0  0  0  0  0  0  0  0  0  0
   57.2010   30.0430   44.0420 C   0  0  0  0  0  0  0  0  0  0  0  0
   56.2620   29.9050   44.8690 O   0  0  0  0  0  0  0  0  0  0  0  0
   58.5480   29.7080   44.4210 N   0  0  0  0  0  0  0  0  0  0  0  0
   59.1950   29.3580   43.6800 H   0  0  0  0  0  0  0  0  0  0  0  0
   59.0070   29.6740   45.7830 C   0  0  0  0  0  0  0  0  0  0  0  0
   58.3580   28.8950   46.7590 C   0  0  0  0  0  0  0  0  0  0  0  0
   57.4885   28.2818   46.4799 H   0  0  0  0  0  0  0  0  0  0  0  0
   58.8120   28.8960   48.0810 C   0  0  0  0  0  0  0  0  0  0  0  0
   58.3080   28.2724   48.8341 H   0  0  0  0  0  0  0  0  0  0  0  0
   59.9060   29.6880   48.4500 C   0  0  0  0  0  0  0  0  0  0  0  0
   60.4970   29.6790   50.1070 S   0  0  0  0  0  0  0  0  0  0  0  0
   62.0000   29.6610   50.1260 O   0  0  0  0  0  0  0  0  0  0  0  0
   60.0060   28.4450   50.8130 O   0  0  0  0  0  0  0  0  0  0  0  0
   59.9150   31.1210   50.9310 C   0  0  0  0  0  0  0  0  0  0  0  0
   60.2830   32.3910   50.4690 C   0  0  0  0  0  0  0  0  0  0  0  0
   60.9531   32.4863   49.6019 H   0  0  0  0  0  0  0  0  0  0  0  0
   59.8010   33.5380   51.1070 C   0  0  0  0  0  0  0  0  0  0  0  0
   60.0990   34.5315   50.7408 H   0  0  0  0  0  0  0  0  0  0  0  0
   58.9430   33.4330   52.2070 C   0  0  0  0  0  0  0  0  0  0  0  0
   58.4850   34.6130   52.8120 O   0  0  0  0  0  0  0  0  0  0  0  0
   58.9160   35.0830   54.0850 C   0  0  0  0  0  0  0  0  0  0  0  0
   58.4003   34.5206   54.8773 H   0  0  0  0  0  0  0  0  0  0  0  0
   60.0023   34.9387   54.1806 H   0  0  0  0  0  0  0  0  0  0  0  0
   58.6784   36.1528   54.1806 H   0  0  0  0  0  0  0  0  0  0  0  0
   58.5680   32.1550   52.6660 C   0  0  0  0  0  0  0  0  0  0  0  0
   57.8939   32.0586   53.5299 H   0  0  0  0  0  0  0  0  0  0  0  0
   59.0500   31.0090   52.0270 C   0  0  0  0  0  0  0  0  0  0  0  0
   58.7485   30.0142   52.3867 H   0  0  0  0  0  0  0  0  0  0  0  0
   60.5450   30.4770   47.4870 C   0  0  0  0  0  0  0  0  0  0  0  0
   61.4050   31.1008   47.7721 H   0  0  0  0  0  0  0  0  0  0  0  0
   60.0940   30.4750   46.1640 C   0  0  0  0  0  0  0  0  0  0  0  0
   60.5953   31.1064   45.4157 H   0  0  0  0  0  0  0  0  0  0  0  0
   57.3560   31.6190   42.1410 C   0  0  0  0  0  0  0  0  0  0  0  0
   57.2060   31.8205   41.0701 H   0  0  0  0  0  0  0  0  0  0  0  0
   58.0850   32.5950   42.9690 C   0  0  0  0  0  0  0  0  0  0  0  0
   59.1215   32.8589   42.7120 H   0  0  0  0  0  0  0  0  0  0  0  0
   57.5010   33.1650   44.0310 C   0  0  0  0  0  0  0  0  0  0  0  0
   56.4128   33.3225   43.9988 H   0  0  0  0  0  0  0  0  0  0  0  0
   58.2310   33.5970   45.2480 C   0  0  0  0  0  0  0  0  0  0  0  0
   59.2590   34.5630   45.2160 C   0  0  0  0  0  0  0  0  0  0  0  0
   59.5528   35.0170   44.2581 H   0  0  0  0  0  0  0  0  0  0  0  0
   59.9070   34.9470   46.3950 C   0  0  0  0  0  0  0  0  0  0  0  0
   60.7118   35.6961   46.3602 H   0  0  0  0  0  0  0  0  0  0  0  0
   59.5340   34.3810   47.6160 C   0  0  0  0  0  0  0  0  0  0  0  0
   60.0480   34.6807   48.5412 H   0  0  0  0  0  0  0  0  0  0  0  0
   58.5090   33.4350   47.6620 C   0  0  0  0  0  0  0  0  0  0  0  0
   58.2130   32.9925   48.6246 H   0  0  0  0  0  0  0  0  0  0  0  0
   57.8580   33.0490   46.4870 C   0  0  0  0  0  0  0  0  0  0  0  0
   57.0455   32.3088   46.5326 H   0  0  0  0  0  0  0  0  0  0  0  0
  1  2  1  0
  2  3  1  0
  3  4  2  0
  3  5  1  0
  5  6  1  0
  5  7  1  0
  7  8  2  0
  8  9  1  0
  8 10  1  0
 10 11  1  0
 10 12  2  0
 12 13  1  0
 13 14  2  0
 13 15  2  0
 13 16  1  0
 16 17  2  0
 17 18  1  0
 17 19  1  0
 19 20  1  0
 19 21  2  0
 21 22  1  0
 22 23  1  0
 23 24  1  0
 23 25  1  0
 23 26  1  0
 21 27  1  0
 27 28  1  0
 27 29  2  0
 29 30  1  0
 12 31  1  0
 31 32  1  0
 31 33  2  0
 33 34  1  0
  2 35  2  0
 35 36  1  0
 35 37  1  0
 37 38  1  0
 37 39  2  0
 39 40  1  0
 39 41  1  0
 41 42  2  0
 42 43  1  0
 42 44  1  0
 44 45  1  0
 44 46  2  0
 46 47  1  0
 46 48  1  0
 48 49  1  0
 48 50  2  0
 50 51  1  0
 33  7  1  0
 50 41  1  0
 29 16  1  0
M  END
>  <UniqueID>  (79) 
72

>  <SMILES>  (79) 
COc1ccc(S(=O)(=O)c2ccc(NC(=O)/C=C/C=C/c3ccccc3)cc2)cc1

>  <Energy>  (79) 
58.54410432877737

>  <Genealogy>  (79) 
COc1ccc(S(=O)(=O)c2ccc(NC(=O)/C=C/C=C/c3ccccc3)cc2)cc1 (cis-trans isomerization)
COc1ccc(S(=O)(=O)c2ccc(NC(=O)/C=C/C=C/c3ccccc3)cc2)cc1 (3D coordinates assigned)
COc1ccc(S(=O)(=O)c2ccc(NC(=O)/C=C/C=C/c3ccccc3)cc2)cc1 (optimized conformer: 58.54410432877737 kcal/mol)

>  <smiles>  (79) 
COc1ccc(S(=O)(=O)c2ccc(NC(=O)C=CC=Cc3ccccc3)cc2)cc1

>  <score_type>  (79) 
oracle

>  <origin>  (79) 
adg

>  <m_score__min__energy>  (79) 
-9.8200000000000003

>  <m_primary>  (79) 
energy

$$$$
79:0
     RDKit          3D

 46 49  0  0  0  0  0  0  0  0999 V2000
   64.3100   33.7360   48.8770 O   0  0  0  0  0  0  0  0  0  0  0  0
   63.2810   33.2490   48.3360 C   0  0  0  0  0  0  0  0  0  0  0  0
   63.4370   32.4230   47.1000 C   0  0  0  0  0  0  0  0  0  0  0  0
   62.5980   31.2380   47.2250 N   0  0  0  0  0  0  0  0  0  0  0  0
   61.2970   31.2330   47.1250 C   0  0  0  0  0  0  0  0  0  0  0  0
   60.5940   29.9240   47.0930 C   0  0  0  0  0  0  0  0  0  0  0  0
   60.1140   29.3940   45.8800 C   0  0  0  0  0  0  0  0  0  0  0  0
   59.4630   28.1580   45.8540 C   0  0  0  0  0  0  0  0  0  0  0  0
   59.2890   27.4320   47.0340 C   0  0  0  0  0  0  0  0  0  0  0  0
   59.7700   27.9400   48.2420 C   0  0  0  0  0  0  0  0  0  0  0  0
   60.4230   29.1760   48.2740 C   0  0  0  0  0  0  0  0  0  0  0  0
   60.5220   32.5080   47.0990 C   0  0  0  0  0  0  0  0  0  0  0  0
   59.4250   32.6090   46.2240 C   0  0  0  0  0  0  0  0  0  0  0  0
   58.6470   33.7680   46.1870 C   0  0  0  0  0  0  0  0  0  0  0  0
   57.2820   33.8720   45.0900 Cl  0  0  0  0  0  0  0  0  0  0  0  0
   58.9440   34.8330   47.0320 C   0  0  0  0  0  0  0  0  0  0  0  0
   60.0250   34.7500   47.9100 C   0  0  0  0  0  0  0  0  0  0  0  0
   60.8360   33.6020   47.9490 C   0  0  0  0  0  0  0  0  0  0  0  0
   61.9670   33.5570   48.8490 N   0  0  0  0  0  0  0  0  0  0  0  0
   61.8230   34.0770   50.2230 C   0  0  0  0  0  0  0  0  0  0  0  0
   61.6860   32.9700   51.2820 C   0  0  0  0  0  0  0  0  0  0  0  0
   60.4300   32.1560   51.1210 C   0  0  0  0  0  0  0  0  0  0  0  0
   59.2420   32.7640   50.6820 C   0  0  0  0  0  0  0  0  0  0  0  0
   58.0850   31.9990   50.5010 C   0  0  0  0  0  0  0  0  0  0  0  0
   58.1070   30.6260   50.7550 C   0  0  0  0  0  0  0  0  0  0  0  0
   59.2870   30.0130   51.1880 C   0  0  0  0  0  0  0  0  0  0  0  0
   60.4460   30.7730   51.3690 C   0  0  0  0  0  0  0  0  0  0  0  0
   63.1250   33.0073   46.2218 H   0  0  0  0  0  0  0  0  0  0  0  0
   64.4892   32.1276   46.9752 H   0  0  0  0  0  0  0  0  0  0  0  0
   60.2526   29.9575   44.9455 H   0  0  0  0  0  0  0  0  0  0  0  0
   59.0867   27.7559   44.9018 H   0  0  0  0  0  0  0  0  0  0  0  0
   58.7733   26.4606   47.0117 H   0  0  0  0  0  0  0  0  0  0  0  0
   59.6350   27.3666   49.1710 H   0  0  0  0  0  0  0  0  0  0  0  0
   60.8058   29.5669   49.2283 H   0  0  0  0  0  0  0  0  0  0  0  0
   59.1775   31.7661   45.5620 H   0  0  0  0  0  0  0  0  0  0  0  0
   58.3252   35.7421   47.0076 H   0  0  0  0  0  0  0  0  0  0  0  0
   60.2458   35.5936   48.5805 H   0  0  0  0  0  0  0  0  0  0  0  0
   62.7106   34.6810   50.4624 H   0  0  0  0  0  0  0  0  0  0  0  0
   60.8973   34.6706   50.2510 H   0  0  0  0  0  0  0  0  0  0  0  0
   62.5527   32.2975   51.2006 H   0  0  0  0  0  0  0  0  0  0  0  0
   61.6378   33.4593   52.2660 H   0  0  0  0  0  0  0  0  0  0  0  0
   59.2216   33.8451   50.4800 H   0  0  0  0  0  0  0  0  0  0  0  0
   57.1568   32.4795   50.1582 H   0  0  0  0  0  0  0  0  0  0  0  0
   57.1956   30.0263   50.6144 H   0  0  0  0  0  0  0  0  0  0  0  0
   59.3031   28.9312   51.3864 H   0  0  0  0  0  0  0  0  0  0  0  0
   61.3733   30.2871   51.7066 H   0  0  0  0  0  0  0  0  0  0  0  0
  1  2  2  0
  2  3  1  0
  3  4  1  0
  4  5  2  0
  5  6  1  0
  6  7  2  0
  7  8  1  0
  8  9  2  0
  9 10  1  0
 10 11  2  0
  5 12  1  0
 12 13  2  0
 13 14  1  0
 14 15  1  0
 14 16  2  0
 16 17  1  0
 17 18  2  0
 18 19  1  0
 19 20  1  0
 20 21  1  0
 21 22  1  0
 22 23  2  0
 23 24  1  0
 24 25  2  0
 25 26  1  0
 26 27  2  0
 19  2  1  0
 27 22  1  0
 11  6  1  0
 18 12  1  0
  3 28  1  0
  3 29  1  0
  7 30  1  0
  8 31  1  0
  9 32  1  0
 10 33  1  0
 11 34  1  0
 13 35  1  0
 16 36  1  0
 17 37  1  0
 20 38  1  0
 20 39  1  0
 21 40  1  0
 21 41  1  0
 23 42  1  0
 24 43  1  0
 25 44  1  0
 26 45  1  0
 27 46  1  0
M  END
>  <UniqueID>  (80) 
73

>  <SMILES>  (80) 
O=C1CN=C(c2ccccc2)c2cc(Cl)ccc2N1CCc1ccccc1

>  <Energy>  (80) 
65.72683566887854

>  <Genealogy>  (80) 
O=C1CN=C(c2ccccc2)c2cc(Cl)ccc2N1CCc1ccccc1 (3D coordinates assigned)
O=C1CN=C(c2ccccc2)c2cc(Cl)ccc2N1CCc1ccccc1 (nonaromatic ring conformer: 65.72683566887854 kcal/mol)

>  <smiles>  (80) 
O=C1CN=C(c2ccccc2)c2cc(Cl)ccc2N1CCc1ccccc1

>  <score_type>  (80) 
oracle

>  <origin>  (80) 
adg

>  <m_score__min__energy>  (80) 
-6.7999999999999998

>  <m_primary>  (80) 
energy

$$$$
80:0
     RDKit          3D

 45 48  0  0  0  0  0  0  0  0999 V2000
   56.1820   28.5330   44.2640 H   0  0  0  0  0  0  0  0  0  0  0  0
   56.0800   28.3220   45.2490 O   0  0  0  0  0  0  0  0  0  0  0  0
   56.1520   27.0140   45.7210 C   0  0  0  0  0  0  0  0  0  0  0  0
   55.0770   26.2260   45.8850 N   0  0  0  0  0  0  0  0  0  0  0  0
   55.6130   25.0870   46.3710 C   0  0  0  0  0  0  0  0  0  0  0  0
   54.9160   24.0810   46.6650 O   0  0  0  0  0  0  0  0  0  0  0  0
   56.9540   25.1120   46.5240 N   0  0  0  0  0  0  0  0  0  0  0  0
   57.2940   26.3370   46.0830 C   0  0  0  0  0  0  0  0  0  0  0  0
   58.6500   26.9030   46.1670 C   0  0  0  0  0  0  0  0  0  0  0  0
   59.4655   26.3250   45.7077 H   0  0  0  0  0  0  0  0  0  0  0  0
   58.9780   28.0680   46.7580 C   0  0  0  0  0  0  0  0  0  0  0  0
   58.5660   28.3990   48.0380 C   0  0  0  0  0  0  0  0  0  0  0  0
   57.8999   27.8088   48.6845 H   0  0  0  0  0  0  0  0  0  0  0  0
   59.1500   29.6100   48.3480 C   0  0  0  0  0  0  0  0  0  0  0  0
   58.9990   30.3120   49.6630 C   0  0  0  0  0  0  0  0  0  0  0  0
   59.1535   29.5939   50.4818 H   0  0  0  0  0  0  0  0  0  0  0  0
   59.7444   31.1176   49.7363 H   0  0  0  0  0  0  0  0  0  0  0  0
   57.9883   30.7399   49.7363 H   0  0  0  0  0  0  0  0  0  0  0  0
   59.8560   30.0730   47.2910 N   0  0  0  0  0  0  0  0  0  0  0  0
   60.5830   31.3120   47.2370 C   0  0  0  0  0  0  0  0  0  0  0  0
   61.9850   31.2800   47.1990 C   0  0  0  0  0  0  0  0  0  0  0  0
   62.5097   30.3133   47.2166 H   0  0  0  0  0  0  0  0  0  0  0  0
   62.7200   32.4670   47.1390 C   0  0  0  0  0  0  0  0  0  0  0  0
   63.8190   32.4329   47.1083 H   0  0  0  0  0  0  0  0  0  0  0  0
   62.0580   33.6970   47.1180 C   0  0  0  0  0  0  0  0  0  0  0  0
   62.6364   34.6317   47.0747 H   0  0  0  0  0  0  0  0  0  0  0  0
   60.6620   33.7410   47.1520 C   0  0  0  0  0  0  0  0  0  0  0  0
   60.1453   34.7120   47.1387 H   0  0  0  0  0  0  0  0  0  0  0  0
   59.9160   32.5560   47.2030 C   0  0  0  0  0  0  0  0  0  0  0  0
   58.1190   32.6740   47.2300 S   0  0  0  0  0  0  0  0  0  0  0  0
   57.9380   32.2460   45.4990 C   0  0  0  0  0  0  0  0  0  0  0  0
   58.3110   33.1570   44.5010 C   0  0  0  0  0  0  0  0  0  0  0  0
   58.7140   34.1421   44.7787 H   0  0  0  0  0  0  0  0  0  0  0  0
   58.1710   32.8140   43.1520 C   0  0  0  0  0  0  0  0  0  0  0  0
   58.4716   33.5263   42.3695 H   0  0  0  0  0  0  0  0  0  0  0  0
   57.6490   31.5660   42.7980 C   0  0  0  0  0  0  0  0  0  0  0  0
   57.5467   31.2937   41.7372 H   0  0  0  0  0  0  0  0  0  0  0  0
   57.2570   30.6640   43.7920 C   0  0  0  0  0  0  0  0  0  0  0  0
   56.8409   29.6847   43.5131 H   0  0  0  0  0  0  0  0  0  0  0  0
   57.3940   31.0070   45.1400 C   0  0  0  0  0  0  0  0  0  0  0  0
   57.0736   30.3016   45.9208 H   0  0  0  0  0  0  0  0  0  0  0  0
   59.7550   29.1460   46.3030 C   0  0  0  0  0  0  0  0  0  0  0  0
   60.2140   29.3510   45.0590 C   0  0  0  0  0  0  0  0  0  0  0  0
   60.8164   30.2438   44.8352 H   0  0  0  0  0  0  0  0  0  0  0  0
   59.9879   28.6263   44.2630 H   0  0  0  0  0  0  0  0  0  0  0  0
  1  2  1  0
  2  3  1  0
  3  4  1  0
  4  5  1  0
  5  6  2  0
  5  7  1  0
  7  8  1  0
  8  9  1  0
  9 10  1  0
  9 11  2  0
 11 12  1  0
 12 13  1  0
 12 14  2  0
 14 15  1  0
 15 16  1  0
 15 17  1  0
 15 18  1  0
 14 19  1  0
 19 20  1  0
 20 21  2  0
 21 22  1  0
 21 23  1  0
 23 24  1  0
 23 25  2  0
 25 26  1  0
 25 27  1  0
 27 28  1  0
 27 29  2  0
 29 30  1  0
 30 31  1  0
 31 32  2  0
 32 33  1  0
 32 34  1  0
 34 35  1  0
 34 36  2  0
 36 37  1  0
 36 38  1  0
 38 39  1  0
 38 40  2  0
 40 41  1  0
 19 42  1  0
 42 43  2  0
 43 44  1  0
 43 45  1  0
  8  3  2  0
 42 11  1  0
 29 20  1  0
 40 31  1  0
M  CHG  2   4  -1   7  -1
M  END
>  <UniqueID>  (81) 
74

>  <SMILES>  (81) 
C=c1/c(=C\c2[n-]c(=O)[n-]c2O)cc(C)n1-c1ccccc1Sc1ccccc1

>  <Energy>  (81) 
117.80881121265209

>  <Genealogy>  (81) 
C=c1c(=Cc2[n-]c(=O)[n-]c2O)cc(C)n1-c1ccccc1Sc1ccccc1 (protonated)
C=c1/c(=C\c2[n-]c(=O)[n-]c2O)cc(C)n1-c1ccccc1Sc1ccccc1 (cis-trans isomerization)
C=c1/c(=C\c2[n-]c(=O)[n-]c2O)cc(C)n1-c1ccccc1Sc1ccccc1 (3D coordinates assigned)
C=c1/c(=C\c2[n-]c(=O)[n-]c2O)cc(C)n1-c1ccccc1Sc1ccccc1 (optimized conformer: 117.80881121265209 kcal/mol)

>  <smiles>  (81) 
C=c1c(=Cc2[nH]c(=O)[nH]c2O)cc(C)n1-c1ccccc1Sc1ccccc1

>  <score_type>  (81) 
oracle

>  <origin>  (81) 
adg

>  <m_score__min__energy>  (81) 
-13.9

>  <m_primary>  (81) 
energy

$$$$
81:0
     RDKit          3D

 58 60  0  0  0  0  0  0  0  0999 V2000
   60.1680   28.4450   47.9280 C   0  0  0  0  0  0  0  0  0  0  0  0
   59.6190   29.2150   46.8820 O   0  0  0  0  0  0  0  0  0  0  0  0
   60.4120   29.0620   45.7240 C   0  0  0  0  0  0  0  0  0  0  0  0
   59.5630   29.3320   44.4840 C   0  0  0  0  0  0  0  0  0  0  0  0
   58.1360   29.1660   44.7770 N   0  0  0  0  0  0  0  0  0  0  0  0
   57.1070   30.0120   44.5410 C   0  0  0  0  0  0  0  0  0  0  0  0
   57.2120   31.4090   44.0020 C   0  0  0  0  0  0  0  0  0  0  0  0
   56.6440   32.3580   44.9560 N   0  0  0  0  0  0  0  0  0  0  0  0
   57.3360   33.4740   45.5320 C   0  0  0  0  0  0  0  0  0  0  0  0
   56.7460   34.5840   45.5970 O   0  0  0  0  0  0  0  0  0  0  0  0
   58.7170   33.3640   46.0390 C   0  0  0  0  0  0  0  0  0  0  0  0
   59.1260   32.2080   46.7200 C   0  0  0  0  0  0  0  0  0  0  0  0
   60.4380   32.0950   47.1920 C   0  0  0  0  0  0  0  0  0  0  0  0
   61.3530   33.1350   46.9910 C   0  0  0  0  0  0  0  0  0  0  0  0
   63.0250   32.9720   47.5170 S   0  0  0  0  0  0  0  0  0  0  0  0
   63.9560   33.4560   46.4390 O   0  0  0  0  0  0  0  0  0  0  0  0
   63.3060   31.5180   47.7780 O   0  0  0  0  0  0  0  0  0  0  0  0
   63.2690   33.8960   48.9780 N   0  0  0  0  0  0  0  0  0  0  0  0
   64.1290   33.1410   49.8980 C   0  0  0  0  0  0  0  0  0  0  0  0
   61.9700   34.1600   49.6080 C   0  0  0  0  0  0  0  0  0  0  0  0
   60.9400   34.3020   46.3380 C   0  0  0  0  0  0  0  0  0  0  0  0
   59.6240   34.4230   45.8790 C   0  0  0  0  0  0  0  0  0  0  0  0
   55.9250   29.4370   44.8360 N   0  0  0  0  0  0  0  0  0  0  0  0
   56.1800   28.2040   45.2450 N   0  0  0  0  0  0  0  0  0  0  0  0
   57.5150   28.0480   45.2050 C   0  0  0  0  0  0  0  0  0  0  0  0
   58.3360   26.4990   45.5940 S   0  0  0  0  0  0  0  0  0  0  0  0
   56.9500   25.4420   45.0550 C   0  0  0  0  0  0  0  0  0  0  0  0
   55.8680   25.3960   46.0860 C   0  0  0  0  0  0  0  0  0  0  0  0
   54.7610   25.9520   45.8470 O   0  0  0  0  0  0  0  0  0  0  0  0
   56.1210   24.7460   47.3420 N   0  0  0  0  0  0  0  0  0  0  0  0
   55.9670   23.4830   47.6120 C   0  0  0  0  0  0  0  0  0  0  0  0
   57.0170   22.6720   47.8590 N   0  0  0  0  0  0  0  0  0  0  0  0
   56.6210   21.3940   48.1010 C   0  0  0  0  0  0  0  0  0  0  0  0
   55.2500   21.1770   48.0350 C   0  0  0  0  0  0  0  0  0  0  0  0
   54.5060   22.6390   47.6620 S   0  0  0  0  0  0  0  0  0  0  0  0
   59.8641   28.8712   48.8955 H   0  0  0  0  0  0  0  0  0  0  0  0
   59.8028   27.4102   47.8522 H   0  0  0  0  0  0  0  0  0  0  0  0
   61.2654   28.4530   47.8522 H   0  0  0  0  0  0  0  0  0  0  0  0
   61.2495   29.7744   45.7568 H   0  0  0  0  0  0  0  0  0  0  0  0
   60.8043   28.0352   45.6823 H   0  0  0  0  0  0  0  0  0  0  0  0
   59.7425   30.3622   44.1426 H   0  0  0  0  0  0  0  0  0  0  0  0
   59.8460   28.6117   43.7023 H   0  0  0  0  0  0  0  0  0  0  0  0
   58.2705   31.6545   43.8307 H   0  0  0  0  0  0  0  0  0  0  0  0
   56.6556   31.4729   43.0553 H   0  0  0  0  0  0  0  0  0  0  0  0
   58.4123   31.3871   46.8836 H   0  0  0  0  0  0  0  0  0  0  0  0
   60.7521   31.1846   47.7236 H   0  0  0  0  0  0  0  0  0  0  0  0
   63.8554   33.3812   50.9360 H   0  0  0  0  0  0  0  0  0  0  0  0
   63.9954   32.0632   49.7236 H   0  0  0  0  0  0  0  0  0  0  0  0
   65.1805   33.4131   49.7236 H   0  0  0  0  0  0  0  0  0  0  0  0
   62.0817   34.1373   50.7021 H   0  0  0  0  0  0  0  0  0  0  0  0
   61.6062   35.1504   49.2971 H   0  0  0  0  0  0  0  0  0  0  0  0
   61.2485   33.3901   49.2971 H   0  0  0  0  0  0  0  0  0  0  0  0
   61.6521   35.1263   46.1853 H   0  0  0  0  0  0  0  0  0  0  0  0
   59.2984   35.3531   45.3901 H   0  0  0  0  0  0  0  0  0  0  0  0
   56.5358   25.8443   44.1188 H   0  0  0  0  0  0  0  0  0  0  0  0
   57.3304   24.4207   44.9055 H   0  0  0  0  0  0  0  0  0  0  0  0
   57.3347   20.5896   48.3324 H   0  0  0  0  0  0  0  0  0  0  0  0
   54.7399   20.2162   48.1983 H   0  0  0  0  0  0  0  0  0  0  0  0
  1  2  1  0
  2  3  1  0
  3  4  1  0
  4  5  1  0
  5  6  1  0
  6  7  1  0
  7  8  1  0
  8  9  1  0
  9 10  2  0
  9 11  1  0
 11 12  2  0
 12 13  1  0
 13 14  2  0
 14 15  1  0
 15 16  2  0
 15 17  2  0
 15 18  1  0
 18 19  1  0
 18 20  1  0
 14 21  1  0
 21 22  2  0
  6 23  2  0
 23 24  1  0
 24 25  2  0
 25 26  1  0
 26 27  1  0
 27 28  1  0
 28 29  2  0
 28 30  1  0
 30 31  2  3
 31 32  1  0
 32 33  1  0
 33 34  2  0
 34 35  1  0
 25  5  1  0
 35 31  1  0
 22 11  1  0
  1 36  1  0
  1 37  1  0
  1 38  1  0
  3 39  1  0
  3 40  1  0
  4 41  1  0
  4 42  1  0
  7 43  1  0
  7 44  1  0
 12 45  1  0
 13 46  1  0
 19 47  1  0
 19 48  1  0
 19 49  1  0
 20 50  1  0
 20 51  1  0
 20 52  1  0
 21 53  1  0
 22 54  1  0
 27 55  1  0
 27 56  1  0
 33 57  1  0
 34 58  1  0
M  CHG  2   8  -1  32  -1
M  END
>  <UniqueID>  (82) 
75

>  <SMILES>  (82) 
COCCn1c(C[N-]C(=O)c2ccc(S(=O)(=O)N(C)C)cc2)nnc1SCC(=O)N=c1[n-]ccs1

>  <Energy>  (82) 
115.1183056805472

>  <Genealogy>  (82) 
COCCn1c(C[N-]C(=O)c2ccc(S(=O)(=O)N(C)C)cc2)nnc1SCC(=O)N=c1[n-]ccs1 (protonated)
COCCn1c(C[N-]C(=O)c2ccc(S(=O)(=O)N(C)C)cc2)nnc1SCC(=O)N=c1[n-]ccs1 (3D coordinates assigned)
COCCn1c(C[N-]C(=O)c2ccc(S(=O)(=O)N(C)C)cc2)nnc1SCC(=O)N=c1[n-]ccs1 (optimized conformer: 115.1183056805472 kcal/mol)

>  <smiles>  (82) 
COCCn1c(CNC(=O)c2ccc(S(=O)(=O)N(C)C)cc2)nnc1SCC(=O)N=c1[nH]ccs1

>  <score_type>  (82) 
oracle

>  <origin>  (82) 
adg

>  <m_score__min__energy>  (82) 
-12.220000000000001

>  <m_primary>  (82) 
energy

$$$$
82:0
     RDKit          3D

 45 48  0  0  0  0  0  0  0  0999 V2000
   59.6280   28.6860   48.5410 C   0  0  0  0  0  0  0  0  0  0  0  0
   58.7500   28.1530   47.4550 C   0  0  0  0  0  0  0  0  0  0  0  0
   58.4130   26.8880   47.3520 O   0  0  0  0  0  0  0  0  0  0  0  0
   57.6400   26.7400   46.2990 C   0  0  0  0  0  0  0  0  0  0  0  0
   57.4560   27.9580   45.6770 C   0  0  0  0  0  0  0  0  0  0  0  0
   58.1720   28.8740   46.4220 C   0  0  0  0  0  0  0  0  0  0  0  0
   58.2800   30.3150   46.1440 C   0  0  0  0  0  0  0  0  0  0  0  0
   59.2220   31.1100   46.7110 N   0  0  0  0  0  0  0  0  0  0  0  0
   58.9620   32.3180   46.1880 C   0  0  0  0  0  0  0  0  0  0  0  0
   59.6240   33.5360   46.4290 C   0  0  0  0  0  0  0  0  0  0  0  0
   60.7580   33.6420   47.3260 N   0  0  0  0  0  0  0  0  0  0  0  0
   60.7810   34.4590   48.5330 C   0  0  0  0  0  0  0  0  0  0  0  0
   62.0750   34.1080   49.2580 C   0  0  0  0  0  0  0  0  0  0  0  0
   62.9740   33.4760   48.1810 C   0  0  1  0  0  0  0  0  0  0  0  0
   63.9580   32.4660   48.6690 N   0  0  0  0  0  0  0  0  0  0  0  0
   64.9360   33.0910   49.5790 C   0  0  0  0  0  0  0  0  0  0  0  0
   63.3630   31.2770   49.3190 C   0  0  0  0  0  0  0  0  0  0  0  0
   62.0130   32.9330   47.1160 C   0  0  0  0  0  0  0  0  0  0  0  0
   59.1200   34.6730   45.7460 C   0  0  0  0  0  0  0  0  0  0  0  0
   58.0150   34.5670   44.8740 C   0  0  0  0  0  0  0  0  0  0  0  0
   57.3880   33.3280   44.6660 C   0  0  0  0  0  0  0  0  0  0  0  0
   57.8940   32.2250   45.3450 C   0  0  0  0  0  0  0  0  0  0  0  0
   57.4400   30.9640   45.2960 N   0  0  0  0  0  0  0  0  0  0  0  0
   59.1993   28.4257   49.5200 H   0  0  0  0  0  0  0  0  0  0  0  0
   60.6315   28.2445   48.4511 H   0  0  0  0  0  0  0  0  0  0  0  0
   59.6993   29.7800   48.4511 H   0  0  0  0  0  0  0  0  0  0  0  0
   57.2047   25.7871   45.9636 H   0  0  0  0  0  0  0  0  0  0  0  0
   56.8613   28.1581   44.7735 H   0  0  0  0  0  0  0  0  0  0  0  0
   60.7682   35.5273   48.2709 H   0  0  0  0  0  0  0  0  0  0  0  0
   59.9017   34.2659   49.1651 H   0  0  0  0  0  0  0  0  0  0  0  0
   62.5444   35.0127   49.6717 H   0  0  0  0  0  0  0  0  0  0  0  0
   61.9033   33.4277   50.1052 H   0  0  0  0  0  0  0  0  0  0  0  0
   63.6524   34.2391   47.7717 H   0  0  0  0  0  0  0  0  0  0  0  0
   64.4970   32.1280   47.8360 H   0  0  0  0  0  0  0  0  0  0  0  0
   64.6399   32.9018   50.6214 H   0  0  0  0  0  0  0  0  0  0  0  0
   65.9324   32.6619   49.3972 H   0  0  0  0  0  0  0  0  0  0  0  0
   64.9651   34.1755   49.3972 H   0  0  0  0  0  0  0  0  0  0  0  0
   63.4194   31.3898   50.4117 H   0  0  0  0  0  0  0  0  0  0  0  0
   62.3105   31.1807   49.0142 H   0  0  0  0  0  0  0  0  0  0  0  0
   63.9169   30.3768   49.0142 H   0  0  0  0  0  0  0  0  0  0  0  0
   62.4038   33.1337   46.1075 H   0  0  0  0  0  0  0  0  0  0  0  0
   61.8850   31.8437   47.1994 H   0  0  0  0  0  0  0  0  0  0  0  0
   59.5977   35.6521   45.8983 H   0  0  0  0  0  0  0  0  0  0  0  0
   57.6424   35.4616   44.3536 H   0  0  0  0  0  0  0  0  0  0  0  0
   56.5261   33.2331   43.9892 H   0  0  0  0  0  0  0  0  0  0  0  0
  1  2  1  0
  2  3  1  0
  3  4  1  0
  4  5  2  0
  5  6  1  0
  6  7  1  0
  7  8  2  0
  8  9  1  0
  9 10  2  0
 10 11  1  0
 11 12  1  0
 12 13  1  0
 13 14  1  0
 14 15  1  0
 15 16  1  0
 15 17  1  0
 14 18  1  0
 10 19  1  0
 19 20  2  0
 20 21  1  0
 21 22  2  0
 22 23  1  0
  6  2  2  0
 23  7  1  0
 22  9  1  0
 18 11  1  0
  1 24  1  0
  1 25  1  0
  1 26  1  0
  4 27  1  0
  5 28  1  0
 12 29  1  0
 12 30  1  0
 13 31  1  0
 13 32  1  0
 14 33  1  6
 15 34  1  0
 16 35  1  0
 16 36  1  0
 16 37  1  0
 17 38  1  0
 17 39  1  0
 17 40  1  0
 18 41  1  0
 18 42  1  0
 19 43  1  0
 20 44  1  0
 21 45  1  0
M  CHG  2  15   1  23  -1
M  END
>  <UniqueID>  (83) 
76

>  <SMILES>  (83) 
Cc1occc1-c1nc2c(N3CC[C@@H]([NH+](C)C)C3)cccc2[n-]1

>  <Energy>  (83) 
116.74097177634543

>  <Genealogy>  (83) 
Cc1occc1-c1nc2c(N3CCC([NH+](C)C)C3)cccc2[n-]1 (protonated)
Cc1occc1-c1nc2c(N3CC[C@@H]([NH+](C)C)C3)cccc2[n-]1 (chirality)
Cc1occc1-c1nc2c(N3CC[C@@H]([NH+](C)C)C3)cccc2[n-]1 (3D coordinates assigned)
Cc1occc1-c1nc2c(N3CC[C@@H]([NH+](C)C)C3)cccc2[n-]1 (nonaromatic ring conformer: 116.74097177634543 kcal/mol)

>  <smiles>  (83) 
Cc1occc1-c1nc2c(N3CCC(N(C)C)C3)cccc2[nH]1

>  <score_type>  (83) 
oracle

>  <origin>  (83) 
adg

>  <m_score__min__energy>  (83) 
-7.21

>  <m_primary>  (83) 
energy

$$$$
83:0
     RDKit          3D

 34 36  0  0  0  0  0  0  0  0999 V2000
   55.4370   30.5090   44.4010 O   0  0  0  0  0  0  0  0  0  0  0  0
   56.2930   29.7110   44.8670 C   0  0  0  0  0  0  0  0  0  0  0  0
   57.7370   30.1210   44.9570 C   0  0  0  0  0  0  0  0  0  0  0  0
   58.4470   29.3440   45.9830 N   0  0  0  0  0  0  0  0  0  0  0  0
   59.5240   29.9770   46.6930 C   0  0  0  0  0  0  0  0  0  0  0  0
   60.6250   30.1780   46.1120 O   0  0  0  0  0  0  0  0  0  0  0  0
   59.2990   30.5230   48.0730 C   0  0  0  0  0  0  0  0  0  0  0  0
   59.4700   31.9390   48.0700 O   0  0  0  0  0  0  0  0  0  0  0  0
   59.0440   32.8110   47.0530 C   0  0  0  0  0  0  0  0  0  0  0  0
   57.6950   32.8970   46.6500 C   0  0  0  0  0  0  0  0  0  0  0  0
   57.3170   33.7780   45.6310 C   0  0  0  0  0  0  0  0  0  0  0  0
   58.2750   34.5790   45.0050 C   0  0  0  0  0  0  0  0  0  0  0  0
   59.6140   34.4980   45.3950 C   0  0  0  0  0  0  0  0  0  0  0  0
   60.0010   33.6150   46.4110 C   0  0  0  0  0  0  0  0  0  0  0  0
   61.6920   33.5400   46.8850 Cl  0  0  0  0  0  0  0  0  0  0  0  0
   58.1130   27.9530   46.2000 C   0  0  0  0  0  0  0  0  0  0  0  0
   59.0390   27.0450   46.7500 C   0  0  0  0  0  0  0  0  0  0  0  0
   58.6770   25.7110   46.9640 C   0  0  0  0  0  0  0  0  0  0  0  0
   57.3950   25.2680   46.6250 C   0  0  0  0  0  0  0  0  0  0  0  0
   56.4740   26.1560   46.0620 C   0  0  0  0  0  0  0  0  0  0  0  0
   56.8340   27.4910   45.8390 C   0  0  0  0  0  0  0  0  0  0  0  0
   55.8970   28.3900   45.2420 N   0  0  0  0  0  0  0  0  0  0  0  0
   58.2190   29.9535   43.9825 H   0  0  0  0  0  0  0  0  0  0  0  0
   57.7806   31.1848   45.2334 H   0  0  0  0  0  0  0  0  0  0  0  0
   58.2769   30.2800   48.3990 H   0  0  0  0  0  0  0  0  0  0  0  0
   60.0272   30.0723   48.7634 H   0  0  0  0  0  0  0  0  0  0  0  0
   56.9365   32.2683   47.1393 H   0  0  0  0  0  0  0  0  0  0  0  0
   56.2631   33.8400   45.3221 H   0  0  0  0  0  0  0  0  0  0  0  0
   57.9754   35.2728   44.2058 H   0  0  0  0  0  0  0  0  0  0  0  0
   60.3673   35.1302   44.9022 H   0  0  0  0  0  0  0  0  0  0  0  0
   60.0512   27.3866   47.0123 H   0  0  0  0  0  0  0  0  0  0  0  0
   59.4027   25.0087   47.4001 H   0  0  0  0  0  0  0  0  0  0  0  0
   57.1110   24.2200   46.8014 H   0  0  0  0  0  0  0  0  0  0  0  0
   55.4661   25.8062   45.7940 H   0  0  0  0  0  0  0  0  0  0  0  0
  1  2  2  0
  2  3  1  0
  3  4  1  0
  4  5  1  0
  5  6  2  0
  5  7  1  0
  7  8  1  0
  8  9  1  0
  9 10  2  0
 10 11  1  0
 11 12  2  0
 12 13  1  0
 13 14  2  0
 14 15  1  0
  4 16  1  0
 16 17  2  0
 17 18  1  0
 18 19  2  0
 19 20  1  0
 20 21  2  0
 21 22  1  0
 22  2  1  0
 14  9  1  0
 21 16  1  0
  3 23  1  0
  3 24  1  0
  7 25  1  0
  7 26  1  0
 10 27  1  0
 11 28  1  0
 12 29  1  0
 13 30  1  0
 17 31  1  0
 18 32  1  0
 19 33  1  0
 20 34  1  0
M  CHG  1  22  -1
M  END
>  <UniqueID>  (84) 
77

>  <SMILES>  (84) 
O=C1CN(C(=O)COc2ccccc2Cl)c2ccccc2[N-]1

>  <Energy>  (84) 
43.85300929171924

>  <Genealogy>  (84) 
O=C1CN(C(=O)COc2ccccc2Cl)c2ccccc2[N-]1 (protonated)
O=C1CN(C(=O)COc2ccccc2Cl)c2ccccc2[N-]1 (3D coordinates assigned)
O=C1CN(C(=O)COc2ccccc2Cl)c2ccccc2[N-]1 (nonaromatic ring conformer: 43.85300929171924 kcal/mol)

>  <smiles>  (84) 
O=C1CN(C(=O)COc2ccccc2Cl)c2ccccc2N1

>  <score_type>  (84) 
oracle

>  <origin>  (84) 
adg

>  <m_score__min__energy>  (84) 
-9.4299999999999997

>  <m_primary>  (84) 
energy

$$$$
84:0
     RDKit          3D

 38 39  0  0  0  0  0  0  0  0999 V2000
   57.2990   22.8480   45.5000 H   0  0  0  0  0  0  0  0  0  0  0  0
   57.3230   23.8010   45.9200 N   0  0  0  0  0  0  0  0  0  0  0  0
   56.3240   24.6290   45.8820 C   0  0  0  0  0  0  0  0  0  0  0  0
   55.0440   24.3790   45.4080 C   0  0  0  0  0  0  0  0  0  0  0  0
   54.4610   23.1590   44.8210 C   0  0  0  0  0  0  0  0  0  0  0  0
   53.2150   22.9700   44.8350 O   0  0  0  0  0  0  0  0  0  0  0  0
   55.3110   22.2110   44.2390 O   0  0  0  0  0  0  0  0  0  0  0  0
   56.2310   22.5150   43.1930 C   0  0  0  0  0  0  0  0  0  0  0  0
   55.6907   22.5487   42.2354 H   0  0  0  0  0  0  0  0  0  0  0  0
   56.6962   23.4893   43.4035 H   0  0  0  0  0  0  0  0  0  0  0  0
   57.3250   21.4570   43.1130 C   0  0  0  0  0  0  0  0  0  0  0  0
   57.6273   21.1646   44.1294 H   0  0  0  0  0  0  0  0  0  0  0  0
   56.9443   20.5758   42.5759 H   0  0  0  0  0  0  0  0  0  0  0  0
   58.1930   21.8670   42.5759 H   0  0  0  0  0  0  0  0  0  0  0  0
   54.3740   25.5750   45.6150 C   0  0  0  0  0  0  0  0  0  0  0  0
   53.3206   25.7623   45.3595 H   0  0  0  0  0  0  0  0  0  0  0  0
   55.2080   26.4750   46.1770 N   0  0  0  0  0  0  0  0  0  0  0  0
   56.3910   25.8980   46.3250 N   0  0  0  0  0  0  0  0  0  0  0  0
   57.5350   26.5510   46.9570 C   0  0  0  0  0  0  0  0  0  0  0  0
   57.2332   26.9430   47.9395 H   0  0  0  0  0  0  0  0  0  0  0  0
   58.3457   25.8177   47.0797 H   0  0  0  0  0  0  0  0  0  0  0  0
   58.0330   27.7090   46.0790 C   0  0  0  0  0  0  0  0  0  0  0  0
   57.8916   28.6535   46.6248 H   0  0  0  0  0  0  0  0  0  0  0  0
   59.0952   27.5307   45.8556 H   0  0  0  0  0  0  0  0  0  0  0  0
   57.3090   27.7880   44.7990 N   0  0  0  0  0  0  0  0  0  0  0  0
   56.3100   27.5250   44.9650 H   0  0  0  0  0  0  0  0  0  0  0  0
   57.7010   27.0910   44.1230 H   0  0  0  0  0  0  0  0  0  0  0  0
   57.3520   29.1210   44.2450 C   0  0  0  0  0  0  0  0  0  0  0  0
   56.6100   29.4360   43.0920 C   0  0  0  0  0  0  0  0  0  0  0  0
   56.0049   28.6594   42.6013 H   0  0  0  0  0  0  0  0  0  0  0  0
   56.6380   30.7310   42.5670 C   0  0  0  0  0  0  0  0  0  0  0  0
   56.0564   30.9701   41.6645 H   0  0  0  0  0  0  0  0  0  0  0  0
   57.4030   31.7220   43.1860 C   0  0  0  0  0  0  0  0  0  0  0  0
   57.4234   32.7403   42.7705 H   0  0  0  0  0  0  0  0  0  0  0  0
   58.1420   31.4210   44.3320 C   0  0  0  0  0  0  0  0  0  0  0  0
   58.7433   32.2030   44.8187 H   0  0  0  0  0  0  0  0  0  0  0  0
   58.1190   30.1270   44.8620 C   0  0  0  0  0  0  0  0  0  0  0  0
   58.7028   29.8945   45.7648 H   0  0  0  0  0  0  0  0  0  0  0  0
  1  2  1  0
  2  3  2  0
  3  4  1  0
  4  5  1  0
  5  6  2  0
  5  7  1  0
  7  8  1  0
  8  9  1  0
  8 10  1  0
  8 11  1  0
 11 12  1  0
 11 13  1  0
 11 14  1  0
  4 15  2  0
 15 16  1  0
 15 17  1  0
 17 18  1  0
 18 19  1  0
 19 20  1  0
 19 21  1  0
 19 22  1  0
 22 23  1  0
 22 24  1  0
 22 25  1  0
 25 26  1  0
 25 27  1  0
 25 28  1  0
 28 29  2  0
 29 30  1  0
 29 31  1  0
 31 32  1  0
 31 33  2  0
 33 34  1  0
 33 35  1  0
 35 36  1  0
 35 37  2  0
 37 38  1  0
 18  3  1  0
 37 28  1  0
M  CHG  2  17  -1  25   1
M  END
>  <UniqueID>  (85) 
78

>  <SMILES>  (85) 
[H]/N=c1\c(C(=O)OCC)c[n-]n1CC[NH2+]c1ccccc1

>  <Energy>  (85) 
65.94709742491806

>  <Genealogy>  (85) 
CCOC(=O)c1c[n-]n(CC[NH2+]c2ccccc2)c1=N (protonated)
[H]/N=c1\c(C(=O)OCC)c[n-]n1CC[NH2+]c1ccccc1 (cis-trans isomerization)
[H]/N=c1\c(C(=O)OCC)c[n-]n1CC[NH2+]c1ccccc1 (3D coordinates assigned)
[H]/N=c1\c(C(=O)OCC)c[n-]n1CC[NH2+]c1ccccc1 (optimized conformer: 65.94709742491806 kcal/mol)

>  <smiles>  (85) 
CCOC(=O)c1c[nH]n(CCNc2ccccc2)c1=N

>  <score_type>  (85) 
oracle

>  <origin>  (85) 
adg

>  <m_score__min__energy>  (85) 
-6.1399999999999997

>  <m_primary>  (85) 
energy

$$$$
85:0
     RDKit          3D

 35 37  0  0  0  0  0  0  0  0999 V2000
   60.4860   34.4880   46.9520 C   0  0  0  0  0  0  0  0  0  0  0  0
   59.3430   33.7100   46.3690 C   0  0  0  0  0  0  0  0  0  0  0  0
   58.4870   34.3090   45.4320 C   0  0  0  0  0  0  0  0  0  0  0  0
   57.4430   33.5740   44.8600 C   0  0  0  0  0  0  0  0  0  0  0  0
   57.2420   32.2300   45.2190 C   0  0  0  0  0  0  0  0  0  0  0  0
   56.1990   31.4330   44.6380 N   0  0  0  0  0  0  0  0  0  0  0  0
   56.1880   30.0080   44.4990 C   0  0  0  0  0  0  0  0  0  0  0  0
   55.1680   29.3410   44.8200 O   0  0  0  0  0  0  0  0  0  0  0  0
   57.3540   29.3550   43.9850 N   0  0  0  0  0  0  0  0  0  0  0  0
   58.3090   28.5900   44.7350 C   0  0  0  0  0  0  0  0  0  0  0  0
   59.6970   28.7550   44.5660 C   0  0  0  0  0  0  0  0  0  0  0  0
   60.5920   27.9730   45.3020 C   0  0  0  0  0  0  0  0  0  0  0  0
   60.1150   27.0140   46.1990 C   0  0  0  0  0  0  0  0  0  0  0  0
   58.7370   26.8250   46.3540 C   0  0  0  0  0  0  0  0  0  0  0  0
   58.1230   25.5840   47.4910 S   0  0  0  0  0  0  0  0  0  0  0  0
   56.6370   25.3180   46.5330 C   0  0  0  0  0  0  0  0  0  0  0  0
   56.4590   24.2680   45.7100 N   0  0  0  0  0  0  0  0  0  0  0  0
   55.2230   24.5050   45.2270 C   0  0  0  0  0  0  0  0  0  0  0  0
   54.6860   25.6330   45.7290 N   0  0  0  0  0  0  0  0  0  0  0  0
   55.5800   26.1470   46.5560 N   0  0  0  0  0  0  0  0  0  0  0  0
   57.8390   27.6090   45.6190 C   0  0  0  0  0  0  0  0  0  0  0  0
   58.1260   31.6240   46.1210 C   0  0  0  0  0  0  0  0  0  0  0  0
   59.1680   32.3580   46.6950 C   0  0  0  0  0  0  0  0  0  0  0  0
   60.4322   34.4514   48.0501 H   0  0  0  0  0  0  0  0  0  0  0  0
   61.4372   34.0490   46.6167 H   0  0  0  0  0  0  0  0  0  0  0  0
   60.4265   35.5339   46.6167 H   0  0  0  0  0  0  0  0  0  0  0  0
   58.6375   35.3605   45.1462 H   0  0  0  0  0  0  0  0  0  0  0  0
   56.7764   34.0501   44.1259 H   0  0  0  0  0  0  0  0  0  0  0  0
   60.0781   29.5010   43.8531 H   0  0  0  0  0  0  0  0  0  0  0  0
   61.6755   28.1132   45.1744 H   0  0  0  0  0  0  0  0  0  0  0  0
   60.8225   26.4075   46.7834 H   0  0  0  0  0  0  0  0  0  0  0  0
   54.7115   23.8514   44.5051 H   0  0  0  0  0  0  0  0  0  0  0  0
   56.7564   27.4537   45.7363 H   0  0  0  0  0  0  0  0  0  0  0  0
   57.9992   30.5624   46.3796 H   0  0  0  0  0  0  0  0  0  0  0  0
   59.8534   31.8727   47.4054 H   0  0  0  0  0  0  0  0  0  0  0  0
  1  2  1  0
  2  3  2  0
  3  4  1  0
  4  5  2  0
  5  6  1  0
  6  7  1  0
  7  8  2  0
  7  9  1  0
  9 10  1  0
 10 11  2  0
 11 12  1  0
 12 13  2  0
 13 14  1  0
 14 15  1  0
 15 16  1  0
 16 17  1  0
 17 18  2  0
 18 19  1  0
 19 20  1  0
 14 21  2  0
  5 22  1  0
 22 23  2  0
 23  2  1  0
 21 10  1  0
 20 16  2  0
  1 24  1  0
  1 25  1  0
  1 26  1  0
  3 27  1  0
  4 28  1  0
 11 29  1  0
 12 30  1  0
 13 31  1  0
 18 32  1  0
 21 33  1  0
 22 34  1  0
 23 35  1  0
M  CHG  3   6  -1   9  -1  19  -1
M  END
>  <UniqueID>  (86) 
79

>  <SMILES>  (86) 
Cc1ccc([N-]C(=O)[N-]c2cccc(Sc3nc[n-]n3)c2)cc1

>  <Energy>  (86) 
71.37573400987165

>  <Genealogy>  (86) 
Cc1ccc([N-]C(=O)[N-]c2cccc(Sc3nc[n-]n3)c2)cc1 (protonated)
Cc1ccc([N-]C(=O)[N-]c2cccc(Sc3nc[n-]n3)c2)cc1 (3D coordinates assigned)
Cc1ccc([N-]C(=O)[N-]c2cccc(Sc3nc[n-]n3)c2)cc1 (optimized conformer: 71.37573400987165 kcal/mol)

>  <smiles>  (86) 
Cc1ccc(NC(=O)Nc2cccc(Sc3nc[nH]n3)c2)cc1

>  <score_type>  (86) 
oracle

>  <origin>  (86) 
adg

>  <m_score__min__energy>  (86) 
-13.17

>  <m_primary>  (86) 
energy

$$$$
86:0
     RDKit          3D

 55 58  0  0  0  0  0  0  0  0999 V2000
   57.0580   28.0590   44.6510 O   0  0  0  0  0  0  0  0  0  0  0  0
   56.5110   29.1930   44.5380 C   0  0  0  0  0  0  0  0  0  0  0  0
   55.1700   29.3430   44.8680 O   0  0  0  0  0  0  0  0  0  0  0  0
   57.3150   30.3910   44.1100 C   0  0  1  0  0  0  0  0  0  0  0  0
   56.5750   31.6850   44.5010 C   0  0  0  0  0  0  0  0  0  0  0  0
   57.5370   32.7420   44.9830 C   0  0  0  0  0  0  0  0  0  0  0  0
   58.5010   33.2720   44.1070 C   0  0  0  0  0  0  0  0  0  0  0  0
   59.4060   34.2400   44.5560 C   0  0  0  0  0  0  0  0  0  0  0  0
   59.3680   34.6770   45.8860 C   0  0  0  0  0  0  0  0  0  0  0  0
   58.4190   34.1480   46.7660 C   0  0  0  0  0  0  0  0  0  0  0  0
   57.5070   33.1850   46.3200 C   0  0  0  0  0  0  0  0  0  0  0  0
   58.6480   30.3420   44.7220 N   0  0  0  0  0  0  0  0  0  0  0  0
   58.8350   30.1700   46.1340 C   0  0  0  0  0  0  0  0  0  0  0  0
   57.8380   30.0420   46.9000 O   0  0  0  0  0  0  0  0  0  0  0  0
   60.2240   30.2110   46.7140 C   0  0  1  0  0  0  0  0  0  0  0  0
   60.7440   31.6460   46.8010 C   0  0  0  0  0  0  0  0  0  0  0  0
   60.5400   32.0710   48.2500 C   0  0  0  0  0  0  0  0  0  0  0  0
   60.4470   30.7790   49.0540 C   0  0  0  0  0  0  0  0  0  0  0  0
   60.2140   29.7160   48.0860 N   0  0  0  0  0  0  0  0  0  0  0  0
   60.2970   28.3090   48.3970 C   0  0  0  0  0  0  0  0  0  0  0  0
   60.8670   27.9450   49.4610 O   0  0  0  0  0  0  0  0  0  0  0  0
   59.7160   27.2680   47.5230 C   0  0  0  0  0  0  0  0  0  0  0  0
   60.4460   26.3630   46.7590 C   0  0  0  0  0  0  0  0  0  0  0  0
   59.6520   25.5160   45.9770 C   0  0  0  0  0  0  0  0  0  0  0  0
   58.2820   25.7600   46.1020 C   0  0  0  0  0  0  0  0  0  0  0  0
   57.1830   25.0200   45.4310 C   0  0  0  0  0  0  0  0  0  0  0  0
   57.4430   24.2600   44.2760 C   0  0  0  0  0  0  0  0  0  0  0  0
   56.4110   23.5730   43.6280 C   0  0  0  0  0  0  0  0  0  0  0  0
   55.1060   23.6380   44.1250 C   0  0  0  0  0  0  0  0  0  0  0  0
   54.8320   24.3900   45.2690 C   0  0  0  0  0  0  0  0  0  0  0  0
   55.8610   25.0770   45.9220 C   0  0  0  0  0  0  0  0  0  0  0  0
   58.0840   27.0300   47.1920 S   0  0  0  0  0  0  0  0  0  0  0  0
   57.4365   30.3793   43.0168 H   0  0  0  0  0  0  0  0  0  0  0  0
   56.0331   32.0671   43.6233 H   0  0  0  0  0  0  0  0  0  0  0  0
   55.8767   31.4522   45.3184 H   0  0  0  0  0  0  0  0  0  0  0  0
   58.5437   32.9241   43.0644 H   0  0  0  0  0  0  0  0  0  0  0  0
   60.1496   34.6591   43.8622 H   0  0  0  0  0  0  0  0  0  0  0  0
   60.0834   35.4350   46.2376 H   0  0  0  0  0  0  0  0  0  0  0  0
   58.3892   34.4896   47.8112 H   0  0  0  0  0  0  0  0  0  0  0  0
   56.7629   32.7718   47.0168 H   0  0  0  0  0  0  0  0  0  0  0  0
   59.4860   30.5370   44.1270 H   0  0  0  0  0  0  0  0  0  0  0  0
   60.8567   29.5967   46.0564 H   0  0  0  0  0  0  0  0  0  0  0  0
   61.8111   31.6840   46.5367 H   0  0  0  0  0  0  0  0  0  0  0  0
   60.2151   32.3126   46.1039 H   0  0  0  0  0  0  0  0  0  0  0  0
   61.3914   32.6761   48.5950 H   0  0  0  0  0  0  0  0  0  0  0  0
   59.6358   32.6863   48.3674 H   0  0  0  0  0  0  0  0  0  0  0  0
   61.3857   30.6001   49.5987 H   0  0  0  0  0  0  0  0  0  0  0  0
   59.6397   30.8272   49.7996 H   0  0  0  0  0  0  0  0  0  0  0  0
   61.5450   26.3173   46.7686 H   0  0  0  0  0  0  0  0  0  0  0  0
   60.0672   24.7327   45.3259 H   0  0  0  0  0  0  0  0  0  0  0  0
   58.4673   24.2055   43.8788 H   0  0  0  0  0  0  0  0  0  0  0  0
   56.6266   22.9810   42.7263 H   0  0  0  0  0  0  0  0  0  0  0  0
   54.2954   23.0969   43.6150 H   0  0  0  0  0  0  0  0  0  0  0  0
   53.8044   24.4424   45.6579 H   0  0  0  0  0  0  0  0  0  0  0  0
   55.6382   25.6656   46.8242 H   0  0  0  0  0  0  0  0  0  0  0  0
  1  2  2  0
  2  3  1  0
  2  4  1  0
  4  5  1  0
  5  6  1  0
  6  7  2  0
  7  8  1  0
  8  9  2  0
  9 10  1  0
 10 11  2  0
  4 12  1  0
 12 13  1  0
 13 14  2  0
 13 15  1  0
 15 16  1  0
 16 17  1  0
 17 18  1  0
 18 19  1  0
 19 20  1  0
 20 21  2  0
 20 22  1  0
 22 23  2  0
 23 24  1  0
 24 25  2  0
 25 26  1  0
 26 27  2  0
 27 28  1  0
 28 29  2  0
 29 30  1  0
 30 31  2  0
 25 32  1  0
 11  6  1  0
 19 15  1  0
 32 22  1  0
 31 26  1  0
  4 33  1  6
  5 34  1  0
  5 35  1  0
  7 36  1  0
  8 37  1  0
  9 38  1  0
 10 39  1  0
 11 40  1  0
 12 41  1  0
 15 42  1  6
 16 43  1  0
 16 44  1  0
 17 45  1  0
 17 46  1  0
 18 47  1  0
 18 48  1  0
 23 49  1  0
 24 50  1  0
 27 51  1  0
 28 52  1  0
 29 53  1  0
 30 54  1  0
 31 55  1  0
M  CHG  1   3  -1
M  END
>  <UniqueID>  (87) 
80

>  <SMILES>  (87) 
O=C(N[C@H](Cc1ccccc1)C(=O)[O-])[C@H]1CCCN1C(=O)c1ccc(-c2ccccc2)s1

>  <Energy>  (87) 
85.40946306816

>  <Genealogy>  (87) 
O=C([O-])C(Cc1ccccc1)NC(=O)C1CCCN1C(=O)c1ccc(-c2ccccc2)s1 (protonated)
O=C(N[C@H](Cc1ccccc1)C(=O)[O-])[C@H]1CCCN1C(=O)c1ccc(-c2ccccc2)s1 (chirality)
O=C(N[C@H](Cc1ccccc1)C(=O)[O-])[C@H]1CCCN1C(=O)c1ccc(-c2ccccc2)s1 (3D coordinates assigned)
O=C(N[C@H](Cc1ccccc1)C(=O)[O-])[C@H]1CCCN1C(=O)c1ccc(-c2ccccc2)s1 (nonaromatic ring conformer: 85.40946306816 kcal/mol)

>  <smiles>  (87) 
O=C(O)C(Cc1ccccc1)NC(=O)C1CCCN1C(=O)c1ccc(-c2ccccc2)s1

>  <score_type>  (87) 
oracle

>  <origin>  (87) 
adg

>  <m_score__min__energy>  (87) 
-11.91

>  <m_primary>  (87) 
energy

$$$$
87:0
     RDKit          3D

 55 58  0  0  0  0  0  0  0  0999 V2000
   59.1140   31.2780   53.7830 C   0  0  0  0  0  0  0  0  0  0  0  0
   59.0470   32.1950   52.6540 N   0  0  0  0  0  0  0  0  0  0  0  0
   58.9980   33.5410   52.7120 C   0  0  0  0  0  0  0  0  0  0  0  0
   58.9130   34.0890   51.4860 N   0  0  0  0  0  0  0  0  0  0  0  0
   58.9040   33.0570   50.6210 C   0  0  0  0  0  0  0  0  0  0  0  0
   58.9830   31.8820   51.3410 C   0  0  0  0  0  0  0  0  0  0  0  0
   58.9600   30.4900   50.7700 C   0  0  0  0  0  0  0  0  0  0  0  0
   60.0620   30.2680   49.8210 N   0  0  0  0  0  0  0  0  0  0  0  0
   59.7920   29.4840   48.6460 C   0  0  0  0  0  0  0  0  0  0  0  0
   60.6890   28.4800   48.2410 C   0  0  0  0  0  0  0  0  0  0  0  0
   60.4020   27.6830   47.1270 C   0  0  0  0  0  0  0  0  0  0  0  0
   59.2250   27.8930   46.4050 C   0  0  0  0  0  0  0  0  0  0  0  0
   58.3360   28.9120   46.7750 C   0  0  0  0  0  0  0  0  0  0  0  0
   57.1670   29.1270   45.9780 N   0  0  0  0  0  0  0  0  0  0  0  0
   57.0310   30.3150   44.7240 S   0  0  0  0  0  0  0  0  0  0  0  0
   57.7920   29.8420   43.5200 O   0  0  0  0  0  0  0  0  0  0  0  0
   55.5930   30.4910   44.3360 O   0  0  0  0  0  0  0  0  0  0  0  0
   57.7450   31.8220   45.2870 C   0  0  0  0  0  0  0  0  0  0  0  0
   57.0100   33.0140   45.1830 C   0  0  0  0  0  0  0  0  0  0  0  0
   57.5630   34.2230   45.6080 C   0  0  0  0  0  0  0  0  0  0  0  0
   58.8590   34.2520   46.1340 C   0  0  0  0  0  0  0  0  0  0  0  0
   59.6120   33.0630   46.2490 C   0  0  0  0  0  0  0  0  0  0  0  0
   61.0270   33.0780   46.7700 C   0  0  0  0  0  0  0  0  0  0  0  0
   61.5140   31.7820   46.8020 F   0  0  0  0  0  0  0  0  0  0  0  0
   61.0490   33.6040   48.0490 F   0  0  0  0  0  0  0  0  0  0  0  0
   61.8560   33.8460   45.9690 F   0  0  0  0  0  0  0  0  0  0  0  0
   59.0450   31.8510   45.8130 C   0  0  0  0  0  0  0  0  0  0  0  0
   58.6190   29.7050   47.9090 C   0  0  0  0  0  0  0  0  0  0  0  0
   61.4360   30.5540   50.1620 C   0  0  0  0  0  0  0  0  0  0  0  0
   62.0780   29.8020   51.1590 C   0  0  0  0  0  0  0  0  0  0  0  0
   63.4130   30.0540   51.4930 C   0  0  0  0  0  0  0  0  0  0  0  0
   64.1210   31.0670   50.8340 C   0  0  0  0  0  0  0  0  0  0  0  0
   65.8000   31.3430   51.2600 Cl  0  0  0  0  0  0  0  0  0  0  0  0
   63.4840   31.8350   49.8410 C   0  0  0  0  0  0  0  0  0  0  0  0
   64.3390   33.1160   48.9900 Cl  0  0  0  0  0  0  0  0  0  0  0  0
   62.1450   31.5830   49.5170 C   0  0  0  0  0  0  0  0  0  0  0  0
   59.0723   31.8491   54.7222 H   0  0  0  0  0  0  0  0  0  0  0  0
   58.2644   30.5806   53.7399 H   0  0  0  0  0  0  0  0  0  0  0  0
   60.0559   30.7115   53.7399 H   0  0  0  0  0  0  0  0  0  0  0  0
   59.0243   34.1202   53.6468 H   0  0  0  0  0  0  0  0  0  0  0  0
   58.8520   35.1080   51.2560 H   0  0  0  0  0  0  0  0  0  0  0  0
   58.8438   33.1369   49.5256 H   0  0  0  0  0  0  0  0  0  0  0  0
   59.0487   29.7663   51.5936 H   0  0  0  0  0  0  0  0  0  0  0  0
   58.0118   30.3596   50.2279 H   0  0  0  0  0  0  0  0  0  0  0  0
   61.6212   28.3201   48.8026 H   0  0  0  0  0  0  0  0  0  0  0  0
   61.1025   26.8922   46.8204 H   0  0  0  0  0  0  0  0  0  0  0  0
   58.9938   27.2543   45.5398 H   0  0  0  0  0  0  0  0  0  0  0  0
   55.9930   32.9948   44.7643 H   0  0  0  0  0  0  0  0  0  0  0  0
   56.9801   35.1525   45.5294 H   0  0  0  0  0  0  0  0  0  0  0  0
   59.2946   35.2079   46.4603 H   0  0  0  0  0  0  0  0  0  0  0  0
   59.6256   30.9195   45.8852 H   0  0  0  0  0  0  0  0  0  0  0  0
   57.9190   30.4966   48.2145 H   0  0  0  0  0  0  0  0  0  0  0  0
   61.5261   29.0073   51.6823 H   0  0  0  0  0  0  0  0  0  0  0  0
   63.9068   29.4564   52.2734 H   0  0  0  0  0  0  0  0  0  0  0  0
   61.6441   32.1946   48.7522 H   0  0  0  0  0  0  0  0  0  0  0  0
  1  2  1  0
  2  3  1  0
  3  4  2  0
  4  5  1  0
  5  6  2  0
  6  7  1  0
  7  8  1  0
  8  9  1  0
  9 10  2  0
 10 11  1  0
 11 12  2  0
 12 13  1  0
 13 14  1  0
 14 15  1  0
 15 16  2  0
 15 17  2  0
 15 18  1  0
 18 19  2  0
 19 20  1  0
 20 21  2  0
 21 22  1  0
 22 23  1  0
 23 24  1  0
 23 25  1  0
 23 26  1  0
 22 27  2  0
 13 28  2  0
  8 29  1  0
 29 30  2  0
 30 31  1  0
 31 32  2  0
 32 33  1  0
 32 34  1  0
 34 35  1  0
 34 36  2  0
  6  2  1  0
 28  9  1  0
 36 29  1  0
 27 18  1  0
  1 37  1  0
  1 38  1  0
  1 39  1  0
  3 40  1  0
  4 41  1  0
  5 42  1  0
  7 43  1  0
  7 44  1  0
 10 45  1  0
 11 46  1  0
 12 47  1  0
 19 48  1  0
 20 49  1  0
 21 50  1  0
 27 51  1  0
 28 52  1  0
 30 53  1  0
 31 54  1  0
 36 55  1  0
M  CHG  2   4   1  14  -1
M  END
>  <UniqueID>  (88) 
81

>  <SMILES>  (88) 
Cn1c[nH+]cc1CN(c1cccc([N-]S(=O)(=O)c2cccc(C(F)(F)F)c2)c1)c1ccc(Cl)c(Cl)c1

>  <Energy>  (88) 
99.27288375760935

>  <Genealogy>  (88) 
Cn1c[nH+]cc1CN(c1cccc([N-]S(=O)(=O)c2cccc(C(F)(F)F)c2)c1)c1ccc(Cl)c(Cl)c1 (protonated)
Cn1c[nH+]cc1CN(c1cccc([N-]S(=O)(=O)c2cccc(C(F)(F)F)c2)c1)c1ccc(Cl)c(Cl)c1 (3D coordinates assigned)
Cn1c[nH+]cc1CN(c1cccc([N-]S(=O)(=O)c2cccc(C(F)(F)F)c2)c1)c1ccc(Cl)c(Cl)c1 (optimized conformer: 99.27288375760935 kcal/mol)

>  <smiles>  (88) 
Cn1cncc1CN(c1cccc(NS(=O)(=O)c2cccc(C(F)(F)F)c2)c1)c1ccc(Cl)c(Cl)c1

>  <score_type>  (88) 
oracle

>  <origin>  (88) 
adg

>  <m_score__min__energy>  (88) 
-10.550000000000001

>  <m_primary>  (88) 
energy

$$$$
88:0
     RDKit          3D

 48 50  0  0  0  0  0  0  0  0999 V2000
   57.4020   32.7700   52.3750 C   0  0  0  0  0  0  0  0  0  0  0  0
   57.6770   31.6100   51.4230 C   0  0  0  0  0  0  0  0  0  0  0  0
   57.7310   32.0640   50.0720 O   0  0  0  0  0  0  0  0  0  0  0  0
   58.8560   32.6180   49.4390 C   0  0  0  0  0  0  0  0  0  0  0  0
   59.9550   33.1310   50.1500 C   0  0  0  0  0  0  0  0  0  0  0  0
   61.0500   33.6660   49.4680 C   0  0  0  0  0  0  0  0  0  0  0  0
   61.0770   33.6830   48.0600 C   0  0  0  0  0  0  0  0  0  0  0  0
   62.1770   34.1830   47.3390 O   0  0  0  0  0  0  0  0  0  0  0  0
   63.4750   33.5920   47.2830 C   0  0  0  0  0  0  0  0  0  0  0  0
   63.3800   32.0710   47.3440 C   0  0  0  0  0  0  0  0  0  0  0  0
   59.9780   33.1720   47.3430 C   0  0  0  0  0  0  0  0  0  0  0  0
   60.0050   33.1590   45.9060 N   0  0  0  0  0  0  0  0  0  0  0  0
   58.5510   33.1770   44.9580 S   0  0  0  0  0  0  0  0  0  0  0  0
   58.8890   33.5070   43.5310 O   0  0  0  0  0  0  0  0  0  0  0  0
   57.6220   34.2270   45.5000 O   0  0  0  0  0  0  0  0  0  0  0  0
   57.7930   31.5880   45.0090 C   0  0  0  0  0  0  0  0  0  0  0  0
   56.5430   31.3740   44.4130 C   0  0  0  0  0  0  0  0  0  0  0  0
   55.9310   30.1200   44.4950 C   0  0  0  0  0  0  0  0  0  0  0  0
   56.5550   29.0780   45.1860 C   0  0  0  0  0  0  0  0  0  0  0  0
   57.8120   29.2840   45.7890 C   0  0  0  0  0  0  0  0  0  0  0  0
   58.4350   30.5340   45.6760 C   0  0  0  0  0  0  0  0  0  0  0  0
   58.5290   28.1310   46.4520 C   0  0  0  0  0  0  0  0  0  0  0  0
   57.5520   27.1400   47.1030 C   0  0  0  0  0  0  0  0  0  0  0  0
   56.4280   26.8020   46.1670 C   0  0  0  0  0  0  0  0  0  0  0  0
   55.8960   25.6610   46.1960 O   0  0  0  0  0  0  0  0  0  0  0  0
   55.9090   27.8070   45.2950 N   0  0  0  0  0  0  0  0  0  0  0  0
   58.8760   32.6500   48.0420 C   0  0  0  0  0  0  0  0  0  0  0  0
   57.4852   32.4191   53.4142 H   0  0  0  0  0  0  0  0  0  0  0  0
   58.1352   33.5708   52.1986 H   0  0  0  0  0  0  0  0  0  0  0  0
   56.3873   33.1565   52.1986 H   0  0  0  0  0  0  0  0  0  0  0  0
   58.6397   31.1478   51.6867 H   0  0  0  0  0  0  0  0  0  0  0  0
   56.8617   30.8774   51.5159 H   0  0  0  0  0  0  0  0  0  0  0  0
   59.9524   33.1109   51.2498 H   0  0  0  0  0  0  0  0  0  0  0  0
   61.8981   34.0774   50.0350 H   0  0  0  0  0  0  0  0  0  0  0  0
   63.9647   33.8854   46.3428 H   0  0  0  0  0  0  0  0  0  0  0  0
   64.0604   33.9438   48.1453 H   0  0  0  0  0  0  0  0  0  0  0  0
   63.3597   31.7467   48.3949 H   0  0  0  0  0  0  0  0  0  0  0  0
   62.4595   31.7406   46.8405 H   0  0  0  0  0  0  0  0  0  0  0  0
   64.2523   31.6287   46.8405 H   0  0  0  0  0  0  0  0  0  0  0  0
   60.8910   32.9200   45.4070 H   0  0  0  0  0  0  0  0  0  0  0  0
   56.0420   32.1950   43.8792 H   0  0  0  0  0  0  0  0  0  0  0  0
   54.9557   29.9530   44.0144 H   0  0  0  0  0  0  0  0  0  0  0  0
   59.4326   30.6896   46.1125 H   0  0  0  0  0  0  0  0  0  0  0  0
   59.1214   27.5984   45.6934 H   0  0  0  0  0  0  0  0  0  0  0  0
   59.1718   28.5425   47.2441 H   0  0  0  0  0  0  0  0  0  0  0  0
   58.0936   26.2185   47.3628 H   0  0  0  0  0  0  0  0  0  0  0  0
   57.1294   27.6051   48.0058 H   0  0  0  0  0  0  0  0  0  0  0  0
   58.0146   32.2600   47.4799 H   0  0  0  0  0  0  0  0  0  0  0  0
  1  2  1  0
  2  3  1  0
  3  4  1  0
  4  5  2  0
  5  6  1  0
  6  7  2  0
  7  8  1  0
  8  9  1  0
  9 10  1  0
  7 11  1  0
 11 12  1  0
 12 13  1  0
 13 14  2  0
 13 15  2  0
 13 16  1  0
 16 17  2  0
 17 18  1  0
 18 19  2  0
 19 20  1  0
 20 21  2  0
 20 22  1  0
 22 23  1  0
 23 24  1  0
 24 25  2  0
 24 26  1  0
 11 27  2  0
 27  4  1  0
 21 16  1  0
 26 19  1  0
  1 28  1  0
  1 29  1  0
  1 30  1  0
  2 31  1  0
  2 32  1  0
  5 33  1  0
  6 34  1  0
  9 35  1  0
  9 36  1  0
 10 37  1  0
 10 38  1  0
 10 39  1  0
 12 40  1  0
 17 41  1  0
 18 42  1  0
 21 43  1  0
 22 44  1  0
 22 45  1  0
 23 46  1  0
 23 47  1  0
 27 48  1  0
M  CHG  1  26  -1
M  END
>  <UniqueID>  (89) 
82

>  <SMILES>  (89) 
CCOc1ccc(OCC)c(NS(=O)(=O)c2ccc3c(c2)CCC(=O)[N-]3)c1

>  <Energy>  (89) 
48.196323746015274

>  <Genealogy>  (89) 
CCOc1ccc(OCC)c(NS(=O)(=O)c2ccc3c(c2)CCC(=O)[N-]3)c1 (protonated)
CCOc1ccc(OCC)c(NS(=O)(=O)c2ccc3c(c2)CCC(=O)[N-]3)c1 (3D coordinates assigned)
CCOc1ccc(OCC)c(NS(=O)(=O)c2ccc3c(c2)CCC(=O)[N-]3)c1 (nonaromatic ring conformer: 48.196323746015274 kcal/mol)

>  <smiles>  (89) 
CCOc1ccc(OCC)c(NS(=O)(=O)c2ccc3c(c2)CCC(=O)N3)c1

>  <score_type>  (89) 
oracle

>  <origin>  (89) 
adg

>  <m_score__min__energy>  (89) 
-9.2400000000000002

>  <m_primary>  (89) 
energy

$$$$
89:0
     RDKit          3D

 51 55  0  0  0  0  0  0  0  0999 V2000
   57.7160   33.0410   46.5930 O   0  0  0  0  0  0  0  0  0  0  0  0
   58.1780   31.8730   46.4970 C   0  0  0  0  0  0  0  0  0  0  0  0
   57.4010   30.8280   45.9050 N   0  0  0  0  0  0  0  0  0  0  0  0
   57.8840   29.5490   45.4630 C   0  0  0  0  0  0  0  0  0  0  0  0
   58.8690   28.8520   46.1850 C   0  0  0  0  0  0  0  0  0  0  0  0
   59.3310   27.6560   45.7380 N   0  0  0  0  0  0  0  0  0  0  0  0
   58.8710   27.0970   44.5900 C   0  0  0  0  0  0  0  0  0  0  0  0
   57.9120   27.7580   43.8240 C   0  0  0  0  0  0  0  0  0  0  0  0
   57.4120   29.0020   44.2500 C   0  0  0  0  0  0  0  0  0  0  0  0
   56.3730   29.7380   43.4330 C   0  0  0  0  0  0  0  0  0  0  0  0
   55.1470   29.6660   44.0690 F   0  0  0  0  0  0  0  0  0  0  0  0
   56.7000   31.0740   43.2680 F   0  0  0  0  0  0  0  0  0  0  0  0
   56.2690   29.1570   42.1820 F   0  0  0  0  0  0  0  0  0  0  0  0
   59.5100   31.5790   46.9330 N   0  0  0  0  0  0  0  0  0  0  0  0
   60.1220   32.0000   48.2030 C   0  0  1  0  0  0  0  0  0  0  0  0
   59.1490   31.5920   49.3350 C   0  0  0  0  0  0  0  0  0  0  0  0
   58.5950   32.5840   50.1760 C   0  0  0  0  0  0  0  0  0  0  0  0
   57.7550   32.2380   51.2340 C   0  0  0  0  0  0  0  0  0  0  0  0
   57.4940   30.8960   51.4890 C   0  0  0  0  0  0  0  0  0  0  0  0
   58.0740   29.9380   50.7240 N   0  0  0  0  0  0  0  0  0  0  0  0
   58.8930   30.2450   49.6840 C   0  0  0  0  0  0  0  0  0  0  0  0
   61.5040   31.2600   48.3450 C   0  0  1  0  0  0  0  0  0  0  0  0
   62.4180   31.5710   47.1320 C   0  0  0  0  0  0  0  0  0  0  0  0
   62.7010   33.0830   47.0640 C   0  0  2  0  0  0  0  0  0  0  0  0
   63.4260   33.5210   48.3540 C   0  0  0  0  0  0  0  0  0  0  0  0
   62.5300   33.2190   49.5740 C   0  0  2  0  0  0  0  0  0  0  0  0
   62.2310   31.7060   49.6370 C   0  0  0  0  0  0  0  0  0  0  0  0
   61.2060   33.9950   49.4350 C   0  0  0  0  0  0  0  0  0  0  0  0
   60.4580   33.5410   48.1500 C   0  0  1  0  0  0  0  0  0  0  0  0
   61.3690   33.8520   46.9330 C   0  0  0  0  0  0  0  0  0  0  0  0
   59.2676   29.2782   47.1175 H   0  0  0  0  0  0  0  0  0  0  0  0
   59.2559   26.1198   44.2631 H   0  0  0  0  0  0  0  0  0  0  0  0
   57.5472   27.3080   42.8889 H   0  0  0  0  0  0  0  0  0  0  0  0
   58.8296   33.6431   49.9934 H   0  0  0  0  0  0  0  0  0  0  0  0
   57.3026   33.0200   51.8616 H   0  0  0  0  0  0  0  0  0  0  0  0
   56.8185   30.6121   52.3095 H   0  0  0  0  0  0  0  0  0  0  0  0
   59.3630   29.4357   49.1060 H   0  0  0  0  0  0  0  0  0  0  0  0
   61.2999   30.1799   48.3879 H   0  0  0  0  0  0  0  0  0  0  0  0
   63.3676   31.0266   47.2416 H   0  0  0  0  0  0  0  0  0  0  0  0
   61.9131   31.2548   46.2073 H   0  0  0  0  0  0  0  0  0  0  0  0
   63.3340   33.3024   46.1915 H   0  0  0  0  0  0  0  0  0  0  0  0
   64.3727   32.9688   48.4484 H   0  0  0  0  0  0  0  0  0  0  0  0
   63.6346   34.6001   48.3097 H   0  0  0  0  0  0  0  0  0  0  0  0
   63.0478   33.5269   50.4944 H   0  0  0  0  0  0  0  0  0  0  0  0
   63.1757   31.1510   49.7344 H   0  0  0  0  0  0  0  0  0  0  0  0
   61.5879   31.4991   50.5051 H   0  0  0  0  0  0  0  0  0  0  0  0
   60.5740   33.7981   50.3135 H   0  0  0  0  0  0  0  0  0  0  0  0
   61.4229   35.0712   49.3662 H   0  0  0  0  0  0  0  0  0  0  0  0
   59.5035   34.0812   48.0654 H   0  0  0  0  0  0  0  0  0  0  0  0
   60.8596   33.5442   46.0079 H   0  0  0  0  0  0  0  0  0  0  0  0
   61.5757   34.9319   46.9019 H   0  0  0  0  0  0  0  0  0  0  0  0
  1  2  2  0
  2  3  1  0
  3  4  1  0
  4  5  2  0
  5  6  1  0
  6  7  2  0
  7  8  1  0
  8  9  2  0
  9 10  1  0
 10 11  1  0
 10 12  1  0
 10 13  1  0
  2 14  1  0
 15 14  1  6
 15 16  1  0
 16 17  2  0
 17 18  1  0
 18 19  2  0
 19 20  1  0
 20 21  2  0
 15 22  1  0
 22 23  1  0
 23 24  1  0
 24 25  1  0
 25 26  1  0
 26 27  1  0
 26 28  1  0
 28 29  1  0
 29 30  1  0
  9  4  1  0
 29 15  1  0
 21 16  1  0
 27 22  1  0
 30 24  1  0
  5 31  1  0
  7 32  1  0
  8 33  1  0
 17 34  1  0
 18 35  1  0
 19 36  1  0
 21 37  1  0
 22 38  1  1
 23 39  1  0
 23 40  1  0
 24 41  1  6
 25 42  1  0
 25 43  1  0
 26 44  1  1
 27 45  1  0
 27 46  1  0
 28 47  1  0
 28 48  1  0
 29 49  1  6
 30 50  1  0
 30 51  1  0
M  CHG  2   3  -1  14  -1
M  END
>  <UniqueID>  (90) 
83

>  <SMILES>  (90) 
O=C([N-]c1cnccc1C(F)(F)F)[N-]C1(c2cccnc2)C2CC3CC(C2)CC1C3

>  <Energy>  (90) 
69.8854831027982

>  <Genealogy>  (90) 
O=C([N-]c1cnccc1C(F)(F)F)[N-]C1(c2cccnc2)C2CC3CC(C2)CC1C3 (protonated)
O=C([N-]c1cnccc1C(F)(F)F)[N-]C1(c2cccnc2)C2CC3CC(C2)CC1C3 (3D coordinates assigned)
O=C([N-]c1cnccc1C(F)(F)F)[N-]C1(c2cccnc2)C2CC3CC(C2)CC1C3 (nonaromatic ring conformer: 69.8854831027982 kcal/mol)

>  <smiles>  (90) 
O=C(Nc1cnccc1C(F)(F)F)NC1(c2cccnc2)C2CC3CC(C2)CC1C3

>  <score_type>  (90) 
oracle

>  <origin>  (90) 
adg

>  <m_score__min__energy>  (90) 
-11.380000000000001

>  <m_primary>  (90) 
energy

$$$$
90:0
     RDKit          3D

 20 21  0  0  0  0  0  0  0  0999 V2000
   55.1840   26.7080   45.9960 O   0  0  0  0  0  0  0  0  0  0  0  0
   55.9950   25.8230   46.3750 C   0  0  0  0  0  0  0  0  0  0  0  0
   55.5200   24.7260   47.0200 N   0  0  0  0  0  0  0  0  0  0  0  0
   56.3510   23.7290   47.4180 C   0  0  0  0  0  0  0  0  0  0  0  0
   55.7480   22.4250   48.1910 S   0  0  0  0  0  0  0  0  0  0  0  0
   57.6820   23.8140   47.1680 N   0  0  0  0  0  0  0  0  0  0  0  0
   58.2050   24.8900   46.5270 C   0  0  0  0  0  0  0  0  0  0  0  0
   57.3750   25.9430   46.1180 C   0  0  0  0  0  0  0  0  0  0  0  0
   57.9600   27.1170   45.4250 C   0  0  0  0  0  0  0  0  0  0  0  0
   57.2930   27.8980   44.6450 N   0  0  0  0  0  0  0  0  0  0  0  0
   58.1390   28.9780   44.1550 C   0  0  0  0  0  0  0  0  0  0  0  0
   59.5130   28.7150   44.7930 C   0  0  0  0  0  0  0  0  0  0  0  0
   59.3050   27.5240   45.5960 N   0  0  0  0  0  0  0  0  0  0  0  0
   59.2858   24.9360   46.3274 H   0  0  0  0  0  0  0  0  0  0  0  0
   56.2760   27.8100   44.4270 H   0  0  0  0  0  0  0  0  0  0  0  0
   58.2086   28.9493   43.0576 H   0  0  0  0  0  0  0  0  0  0  0  0
   57.7414   29.9700   44.4154 H   0  0  0  0  0  0  0  0  0  0  0  0
   60.2754   28.5373   44.0202 H   0  0  0  0  0  0  0  0  0  0  0  0
   59.8746   29.5678   45.3863 H   0  0  0  0  0  0  0  0  0  0  0  0
   60.0370   27.0300   46.1520 H   0  0  0  0  0  0  0  0  0  0  0  0
  1  2  2  0
  2  3  1  0
  3  4  1  0
  4  5  2  0
  4  6  1  0
  6  7  1  0
  7  8  2  0
  8  9  1  0
  9 10  2  0
 10 11  1  0
 11 12  1  0
 12 13  1  0
  8  2  1  0
 13  9  1  0
  7 14  1  0
 10 15  1  0
 11 16  1  0
 11 17  1  0
 12 18  1  0
 12 19  1  0
 13 20  1  0
M  CHG  3   3  -1   6  -1  10   1
M  END
>  <UniqueID>  (91) 
84

>  <SMILES>  (91) 
O=c1[n-]c(=S)[n-]cc1C1=[NH+]CCN1

>  <Energy>  (91) 
36.02730540391553

>  <Genealogy>  (91) 
O=c1[n-]c(=S)[n-]cc1C1=[NH+]CCN1 (protonated)
O=c1[n-]c(=S)[n-]cc1C1=[NH+]CCN1 (3D coordinates assigned)
O=c1[n-]c(=S)[n-]cc1C1=[NH+]CCN1 (nonaromatic ring conformer: 36.02730540391553 kcal/mol)

>  <smiles>  (91) 
O=c1[nH]c(=S)[nH]cc1C1=NCCN1

>  <score_type>  (91) 
oracle

>  <origin>  (91) 
adg

>  <m_score__min__energy>  (91) 
-8.3200000000000003

>  <m_primary>  (91) 
energy

$$$$
91:0
     RDKit          3D

 46 49  0  0  0  0  0  0  0  0999 V2000
   55.1900   29.3520   44.8440 N   0  0  0  0  0  0  0  0  0  0  0  0
   56.7920   29.4010   44.2030 S   0  0  0  0  0  0  0  0  0  0  0  0
   57.4340   28.0490   44.3400 O   0  0  0  0  0  0  0  0  0  0  0  0
   56.7390   29.7680   42.7470 O   0  0  0  0  0  0  0  0  0  0  0  0
   57.7400   30.5910   45.0730 C   0  0  0  0  0  0  0  0  0  0  0  0
   58.7510   30.3120   45.9820 C   0  0  0  0  0  0  0  0  0  0  0  0
   59.3440   31.4710   46.5060 C   0  0  0  0  0  0  0  0  0  0  0  0
   58.7960   32.6450   45.9980 C   0  0  0  0  0  0  0  0  0  0  0  0
   57.5870   32.2580   44.8950 S   0  0  0  0  0  0  0  0  0  0  0  0
   59.3950   34.2630   46.3040 S   0  0  0  0  0  0  0  0  0  0  0  0
   58.9440   34.7380   47.6560 O   0  0  0  0  0  0  0  0  0  0  0  0
   58.8580   35.1900   45.2510 O   0  0  0  0  0  0  0  0  0  0  0  0
   61.1340   34.2410   46.1830 N   0  0  0  0  0  0  0  0  0  0  0  0
   61.8190   33.4890   47.2490 C   0  0  1  0  0  0  0  0  0  0  0  0
   61.3440   33.9710   48.6350 C   0  0  0  0  0  0  0  0  0  0  0  0
   62.3120   33.5880   49.7270 C   0  0  0  0  0  0  0  0  0  0  0  0
   63.6730   33.3930   49.4360 C   0  0  0  0  0  0  0  0  0  0  0  0
   64.5720   33.0710   50.4570 C   0  0  0  0  0  0  0  0  0  0  0  0
   64.1220   32.9460   51.7740 C   0  0  0  0  0  0  0  0  0  0  0  0
   62.7710   33.1450   52.0720 C   0  0  0  0  0  0  0  0  0  0  0  0
   61.8680   33.4670   51.0540 C   0  0  0  0  0  0  0  0  0  0  0  0
   61.7390   31.9490   47.0960 C   0  0  0  0  0  0  0  0  0  0  0  0
   60.4110   31.4430   47.4710 N   0  0  0  0  0  0  0  0  0  0  0  0
   60.2110   30.8050   48.7460 C   0  0  0  0  0  0  0  0  0  0  0  0
   61.2880   30.2230   49.4370 C   0  0  0  0  0  0  0  0  0  0  0  0
   61.0820   29.6020   50.6720 C   0  0  0  0  0  0  0  0  0  0  0  0
   59.8010   29.5560   51.2290 C   0  0  0  0  0  0  0  0  0  0  0  0
   58.7240   30.1360   50.5520 C   0  0  0  0  0  0  0  0  0  0  0  0
   57.4510   30.0920   51.1070 O   0  0  0  0  0  0  0  0  0  0  0  0
   58.9270   30.7600   49.3170 C   0  0  0  0  0  0  0  0  0  0  0  0
   55.2060   28.6980   45.6560 H   0  0  0  0  0  0  0  0  0  0  0  0
   59.0547   29.2924   46.2616 H   0  0  0  0  0  0  0  0  0  0  0  0
   62.8917   33.7114   47.1496 H   0  0  0  0  0  0  0  0  0  0  0  0
   61.2451   35.0664   48.6157 H   0  0  0  0  0  0  0  0  0  0  0  0
   60.3791   33.4890   48.8509 H   0  0  0  0  0  0  0  0  0  0  0  0
   64.0322   33.4941   48.4012 H   0  0  0  0  0  0  0  0  0  0  0  0
   65.6356   32.9157   50.2232 H   0  0  0  0  0  0  0  0  0  0  0  0
   64.8306   32.6911   52.5758 H   0  0  0  0  0  0  0  0  0  0  0  0
   62.4175   33.0481   53.1091 H   0  0  0  0  0  0  0  0  0  0  0  0
   60.8062   33.6261   51.2933 H   0  0  0  0  0  0  0  0  0  0  0  0
   61.9413   31.6821   46.0482 H   0  0  0  0  0  0  0  0  0  0  0  0
   62.4850   31.4946   47.7646 H   0  0  0  0  0  0  0  0  0  0  0  0
   62.2984   30.2565   49.0033 H   0  0  0  0  0  0  0  0  0  0  0  0
   61.9297   29.1486   51.2066 H   0  0  0  0  0  0  0  0  0  0  0  0
   59.6402   29.0637   52.1995 H   0  0  0  0  0  0  0  0  0  0  0  0
   58.0774   31.2181   48.7894 H   0  0  0  0  0  0  0  0  0  0  0  0
  1  2  1  0
  2  3  2  0
  2  4  2  0
  2  5  1  0
  5  6  2  0
  6  7  1  0
  7  8  2  0
  8  9  1  0
  8 10  1  0
 10 11  2  0
 10 12  2  0
 10 13  1  0
 13 14  1  0
 14 15  1  0
 15 16  1  0
 16 17  2  0
 17 18  1  0
 18 19  2  0
 19 20  1  0
 20 21  2  0
 14 22  1  0
 22 23  1  0
 23 24  1  0
 24 25  2  0
 25 26  1  0
 26 27  2  0
 27 28  1  0
 28 29  1  0
 28 30  2  0
  9  5  1  0
 21 16  1  0
 30 24  1  0
 23  7  1  0
  1 31  1  0
  6 32  1  0
 14 33  1  1
 15 34  1  0
 15 35  1  0
 17 36  1  0
 18 37  1  0
 19 38  1  0
 20 39  1  0
 21 40  1  0
 22 41  1  0
 22 42  1  0
 25 43  1  0
 26 44  1  0
 27 45  1  0
 30 46  1  0
M  CHG  3   1  -1  13  -1  29  -1
M  END
>  <UniqueID>  (92) 
85

>  <SMILES>  (92) 
[NH-]S(=O)(=O)c1cc2c(s1)S(=O)(=O)[N-][C@@H](Cc1ccccc1)CN2c1cccc([O-])c1

>  <Energy>  (92) 
87.96080603485751

>  <Genealogy>  (92) 
[NH-]S(=O)(=O)c1cc2c(s1)S(=O)(=O)[N-]C(Cc1ccccc1)CN2c1cccc([O-])c1 (protonated)
[NH-]S(=O)(=O)c1cc2c(s1)S(=O)(=O)[N-][C@@H](Cc1ccccc1)CN2c1cccc([O-])c1 (chirality)
[NH-]S(=O)(=O)c1cc2c(s1)S(=O)(=O)[N-][C@@H](Cc1ccccc1)CN2c1cccc([O-])c1 (3D coordinates assigned)
[NH-]S(=O)(=O)c1cc2c(s1)S(=O)(=O)[N-][C@@H](Cc1ccccc1)CN2c1cccc([O-])c1 (nonaromatic ring conformer: 87.96080603485751 kcal/mol)

>  <smiles>  (92) 
NS(=O)(=O)c1cc2c(s1)S(=O)(=O)NC(Cc1ccccc1)CN2c1cccc(O)c1

>  <score_type>  (92) 
oracle

>  <origin>  (92) 
adg

>  <m_score__min__energy>  (92) 
-12.449999999999999

>  <m_primary>  (92) 
energy

$$$$
92:0
     RDKit          3D

 55 59  0  0  0  0  0  0  0  0999 V2000
   57.1120   32.0190   50.7700 O   0  0  0  0  0  0  0  0  0  0  0  0
   58.1830   32.1750   50.1290 C   0  0  0  0  0  0  0  0  0  0  0  0
   59.4350   32.5310   50.8760 C   0  0  0  0  0  0  0  0  0  0  0  0
   60.3420   31.0040   51.2780 S   0  0  0  0  0  0  0  0  0  0  0  0
   60.5090   30.5040   49.5490 C   0  0  0  0  0  0  0  0  0  0  0  0
   59.5450   29.6940   49.0370 N   0  0  0  0  0  0  0  0  0  0  0  0
   59.5960   29.2460   47.7570 C   0  0  0  0  0  0  0  0  0  0  0  0
   58.5920   28.4010   47.2550 C   0  0  0  0  0  0  0  0  0  0  0  0
   58.6550   27.9360   45.9400 C   0  0  0  0  0  0  0  0  0  0  0  0
   59.7180   28.3100   45.1170 C   0  0  0  0  0  0  0  0  0  0  0  0
   60.7240   29.1530   45.6040 C   0  0  0  0  0  0  0  0  0  0  0  0
   60.6690   29.6270   46.9300 C   0  0  0  0  0  0  0  0  0  0  0  0
   61.6560   30.4700   47.4650 C   0  0  0  0  0  0  0  0  0  0  0  0
   62.6290   30.8230   46.7420 O   0  0  0  0  0  0  0  0  0  0  0  0
   61.5710   30.9030   48.7670 N   0  0  0  0  0  0  0  0  0  0  0  0
   62.6540   31.7490   49.3170 C   0  0  0  0  0  0  0  0  0  0  0  0
   62.5540   33.1890   48.7810 C   0  0  1  0  0  0  0  0  0  0  0  0
   63.8990   33.6850   48.2570 C   0  0  0  0  0  0  0  0  0  0  0  0
   63.7460   33.5860   46.7710 C   0  0  0  0  0  0  0  0  0  0  0  0
   62.2520   33.7030   46.5770 C   0  0  0  0  0  0  0  0  0  0  0  0
   61.6000   33.2470   47.7380 O   0  0  0  0  0  0  0  0  0  0  0  0
   58.1880   31.9200   48.7200 N   0  0  0  0  0  0  0  0  0  0  0  0
   58.4960   32.8940   47.7130 C   0  0  0  0  0  0  0  0  0  0  0  0
   59.0240   34.1260   48.1170 C   0  0  0  0  0  0  0  0  0  0  0  0
   59.3310   35.1130   47.1770 C   0  0  0  0  0  0  0  0  0  0  0  0
   59.1260   34.8770   45.8180 C   0  0  0  0  0  0  0  0  0  0  0  0
   58.6250   33.6390   45.3840 C   0  0  0  0  0  0  0  0  0  0  0  0
   58.4400   33.3930   44.0160 C   0  0  0  0  0  0  0  0  0  0  0  0
   57.9630   32.1560   43.5810 C   0  0  0  0  0  0  0  0  0  0  0  0
   57.6770   31.1490   44.5070 C   0  0  0  0  0  0  0  0  0  0  0  0
   57.8560   31.3760   45.8720 C   0  0  0  0  0  0  0  0  0  0  0  0
   58.3160   32.6270   46.3340 C   0  0  0  0  0  0  0  0  0  0  0  0
   60.0653   33.1802   50.2506 H   0  0  0  0  0  0  0  0  0  0  0  0
   59.1754   33.0633   51.8030 H   0  0  0  0  0  0  0  0  0  0  0  0
   58.7480   29.4100   49.6520 H   0  0  0  0  0  0  0  0  0  0  0  0
   57.7525   28.1044   47.9009 H   0  0  0  0  0  0  0  0  0  0  0  0
   57.8662   27.2744   45.5525 H   0  0  0  0  0  0  0  0  0  0  0  0
   59.7657   27.9411   44.0818 H   0  0  0  0  0  0  0  0  0  0  0  0
   61.5589   29.4459   44.9504 H   0  0  0  0  0  0  0  0  0  0  0  0
   62.5748   31.7670   50.4140 H   0  0  0  0  0  0  0  0  0  0  0  0
   63.6212   31.3259   49.0079 H   0  0  0  0  0  0  0  0  0  0  0  0
   62.2447   33.8368   49.6145 H   0  0  0  0  0  0  0  0  0  0  0  0
   64.0834   34.7245   48.5660 H   0  0  0  0  0  0  0  0  0  0  0  0
   64.7515   33.1062   48.6420 H   0  0  0  0  0  0  0  0  0  0  0  0
   64.2764   34.4050   46.2631 H   0  0  0  0  0  0  0  0  0  0  0  0
   64.1674   32.6605   46.3516 H   0  0  0  0  0  0  0  0  0  0  0  0
   61.9855   34.7544   46.3937 H   0  0  0  0  0  0  0  0  0  0  0  0
   61.9415   33.0951   45.7144 H   0  0  0  0  0  0  0  0  0  0  0  0
   59.1990   34.3190   49.1857 H   0  0  0  0  0  0  0  0  0  0  0  0
   59.7360   36.0799   47.5102 H   0  0  0  0  0  0  0  0  0  0  0  0
   59.3574   35.6628   45.0839 H   0  0  0  0  0  0  0  0  0  0  0  0
   58.6720   34.1790   43.2822 H   0  0  0  0  0  0  0  0  0  0  0  0
   57.8117   31.9730   42.5069 H   0  0  0  0  0  0  0  0  0  0  0  0
   57.3090   30.1729   44.1580 H   0  0  0  0  0  0  0  0  0  0  0  0
   57.6370   30.5743   46.5926 H   0  0  0  0  0  0  0  0  0  0  0  0
  1  2  2  0
  2  3  1  0
  3  4  1  0
  4  5  1  0
  5  6  2  0
  6  7  1  0
  7  8  2  0
  8  9  1  0
  9 10  2  0
 10 11  1  0
 11 12  2  0
 12 13  1  0
 13 14  2  0
 13 15  1  0
 15 16  1  0
 16 17  1  0
 17 18  1  0
 18 19  1  0
 19 20  1  0
 20 21  1  0
  2 22  1  0
 22 23  1  0
 23 24  2  0
 24 25  1  0
 25 26  2  0
 26 27  1  0
 27 28  2  0
 28 29  1  0
 29 30  2  0
 30 31  1  0
 31 32  2  0
 15  5  1  0
 21 17  1  0
 32 23  1  0
 12  7  1  0
 32 27  1  0
  3 33  1  0
  3 34  1  0
  6 35  1  0
  8 36  1  0
  9 37  1  0
 10 38  1  0
 11 39  1  0
 16 40  1  0
 16 41  1  0
 17 42  1  1
 18 43  1  0
 18 44  1  0
 19 45  1  0
 19 46  1  0
 20 47  1  0
 20 48  1  0
 24 49  1  0
 25 50  1  0
 26 51  1  0
 28 52  1  0
 29 53  1  0
 30 54  1  0
 31 55  1  0
M  CHG  2   6   1  22  -1
M  END
>  <UniqueID>  (93) 
86

>  <SMILES>  (93) 
O=C(CSc1[nH+]c2ccccc2c(=O)n1C[C@H]1CCCO1)[N-]c1cccc2ccccc12

>  <Energy>  (93) 
72.79427937657563

>  <Genealogy>  (93) 
O=C(CSc1[nH+]c2ccccc2c(=O)n1CC1CCCO1)[N-]c1cccc2ccccc12 (protonated)
O=C(CSc1[nH+]c2ccccc2c(=O)n1C[C@H]1CCCO1)[N-]c1cccc2ccccc12 (chirality)
O=C(CSc1[nH+]c2ccccc2c(=O)n1C[C@H]1CCCO1)[N-]c1cccc2ccccc12 (3D coordinates assigned)
O=C(CSc1[nH+]c2ccccc2c(=O)n1C[C@H]1CCCO1)[N-]c1cccc2ccccc12 (nonaromatic ring conformer: 72.79427937657563 kcal/mol)

>  <smiles>  (93) 
O=C(CSc1nc2ccccc2c(=O)n1CC1CCCO1)Nc1cccc2ccccc12

>  <score_type>  (93) 
oracle

>  <origin>  (93) 
adg

>  <m_score__min__energy>  (93) 
-9.7300000000000004

>  <m_primary>  (93) 
energy

$$$$
93:0
     RDKit          3D

 37 39  0  0  0  0  0  0  0  0999 V2000
   51.0590   31.6740   50.3500 N   0  0  0  0  0  0  0  0  0  0  0  0
   51.3180   31.7940   52.0530 S   0  0  0  0  0  0  0  0  0  0  0  0
   50.1740   31.1420   52.7790 O   0  0  0  0  0  0  0  0  0  0  0  0
   51.3780   33.2410   52.4530 O   0  0  0  0  0  0  0  0  0  0  0  0
   52.8280   30.9940   52.4780 C   0  0  0  0  0  0  0  0  0  0  0  0
   52.8170   29.8340   53.2640 C   0  0  0  0  0  0  0  0  0  0  0  0
   54.0160   29.1880   53.5750 C   0  0  0  0  0  0  0  0  0  0  0  0
   55.2300   29.6990   53.1110 C   0  0  0  0  0  0  0  0  0  0  0  0
   55.2550   30.8740   52.3420 C   0  0  0  0  0  0  0  0  0  0  0  0
   56.4800   31.4030   51.8190 N   0  0  0  0  0  0  0  0  0  0  0  0
   57.6510   30.6600   51.4530 C   0  0  0  0  0  0  0  0  0  0  0  0
   57.5640   29.4080   51.3550 O   0  0  0  0  0  0  0  0  0  0  0  0
   58.9410   31.3330   51.0730 C   0  0  0  0  0  0  0  0  0  0  0  0
   59.8940   30.3150   49.8900 S   0  0  0  0  0  0  0  0  0  0  0  0
   59.3910   31.2340   48.4380 C   0  0  0  0  0  0  0  0  0  0  0  0
   58.5500   30.6650   47.5350 N   0  0  0  0  0  0  0  0  0  0  0  0
   58.1460   31.3370   46.4250 C   0  0  0  0  0  0  0  0  0  0  0  0
   57.3680   30.7710   45.6100 O   0  0  0  0  0  0  0  0  0  0  0  0
   58.6000   32.6470   46.2010 C   0  0  0  0  0  0  0  0  0  0  0  0
   58.2200   33.3960   45.0720 C   0  0  0  0  0  0  0  0  0  0  0  0
   58.7040   34.6980   44.9030 C   0  0  0  0  0  0  0  0  0  0  0  0
   59.5620   35.2590   45.8530 C   0  0  0  0  0  0  0  0  0  0  0  0
   59.9440   34.5230   46.9780 C   0  0  0  0  0  0  0  0  0  0  0  0
   59.4670   33.2190   47.1570 C   0  0  0  0  0  0  0  0  0  0  0  0
   59.8370   32.5020   48.2490 N   0  0  0  0  0  0  0  0  0  0  0  0
   54.0470   31.5000   52.0060 C   0  0  0  0  0  0  0  0  0  0  0  0
   50.2770   32.3260   50.1140 H   0  0  0  0  0  0  0  0  0  0  0  0
   51.8634   29.4317   53.6365 H   0  0  0  0  0  0  0  0  0  0  0  0
   54.0038   28.2742   54.1872 H   0  0  0  0  0  0  0  0  0  0  0  0
   56.1700   29.1794   53.3486 H   0  0  0  0  0  0  0  0  0  0  0  0
   58.7158   32.3050   50.6099 H   0  0  0  0  0  0  0  0  0  0  0  0
   59.5450   31.4675   51.9825 H   0  0  0  0  0  0  0  0  0  0  0  0
   57.5433   32.9585   44.3232 H   0  0  0  0  0  0  0  0  0  0  0  0
   58.4081   35.2822   44.0192 H   0  0  0  0  0  0  0  0  0  0  0  0
   59.9380   36.2835   45.7147 H   0  0  0  0  0  0  0  0  0  0  0  0
   60.6197   34.9684   47.7230 H   0  0  0  0  0  0  0  0  0  0  0  0
   54.0555   32.3953   51.3670 H   0  0  0  0  0  0  0  0  0  0  0  0
  1  2  1  0
  2  3  2  0
  2  4  2  0
  2  5  1  0
  5  6  2  0
  6  7  1  0
  7  8  2  0
  8  9  1  0
  9 10  1  0
 10 11  1  0
 11 12  2  0
 11 13  1  0
 13 14  1  0
 14 15  1  0
 15 16  2  0
 16 17  1  0
 17 18  2  0
 17 19  1  0
 19 20  2  0
 20 21  1  0
 21 22  2  0
 22 23  1  0
 23 24  2  0
 24 25  1  0
  9 26  2  0
 26  5  1  0
 25 15  1  0
 24 19  1  0
  1 27  1  0
  6 28  1  0
  7 29  1  0
  8 30  1  0
 13 31  1  0
 13 32  1  0
 20 33  1  0
 21 34  1  0
 22 35  1  0
 23 36  1  0
 26 37  1  0
M  CHG  3   1  -1  10  -1  25  -1
M  END
>  <UniqueID>  (94) 
87

>  <SMILES>  (94) 
[NH-]S(=O)(=O)c1cccc([N-]C(=O)CSc2nc(=O)c3ccccc3[n-]2)c1

>  <Energy>  (94) 
45.56914738893171

>  <Genealogy>  (94) 
[NH-]S(=O)(=O)c1cccc([N-]C(=O)CSc2nc(=O)c3ccccc3[n-]2)c1 (protonated)
[NH-]S(=O)(=O)c1cccc([N-]C(=O)CSc2nc(=O)c3ccccc3[n-]2)c1 (3D coordinates assigned)
[NH-]S(=O)(=O)c1cccc([N-]C(=O)CSc2nc(=O)c3ccccc3[n-]2)c1 (optimized conformer: 45.56914738893171 kcal/mol)

>  <smiles>  (94) 
NS(=O)(=O)c1cccc(NC(=O)CSc2nc(=O)c3ccccc3[nH]2)c1

>  <score_type>  (94) 
oracle

>  <origin>  (94) 
adg

>  <m_score__min__energy>  (94) 
-13.9

>  <m_primary>  (94) 
energy

$$$$
94:0
     RDKit          3D

 34 36  0  0  0  0  0  0  0  0999 V2000
   57.8080   31.5800   51.7700 C   0  0  0  0  0  0  0  0  0  0  0  0
   57.6170   30.4590   50.9130 O   0  0  0  0  0  0  0  0  0  0  0  0
   58.6560   29.6760   50.3890 C   0  0  0  0  0  0  0  0  0  0  0  0
   59.6590   29.2340   51.2590 C   0  0  0  0  0  0  0  0  0  0  0  0
   60.7120   28.4480   50.7860 C   0  0  0  0  0  0  0  0  0  0  0  0
   60.7710   28.0950   49.4350 C   0  0  0  0  0  0  0  0  0  0  0  0
   59.7770   28.5290   48.5440 C   0  0  0  0  0  0  0  0  0  0  0  0
   59.8330   28.1270   47.0890 C   0  0  0  0  0  0  0  0  0  0  0  0
   58.4670   27.9550   46.5380 N   0  0  0  0  0  0  0  0  0  0  0  0
   57.7770   26.8120   46.8820 C   0  0  0  0  0  0  0  0  0  0  0  0
   58.3030   25.9410   47.6310 O   0  0  0  0  0  0  0  0  0  0  0  0
   56.4790   26.5970   46.4070 C   0  0  0  0  0  0  0  0  0  0  0  0
   55.8480   25.5500   46.7150 O   0  0  0  0  0  0  0  0  0  0  0  0
   55.8940   27.5170   45.6110 N   0  0  0  0  0  0  0  0  0  0  0  0
   56.5350   28.6550   45.2590 C   0  0  0  0  0  0  0  0  0  0  0  0
   55.8810   29.5800   44.4370 C   0  0  0  0  0  0  0  0  0  0  0  0
   56.5170   30.7630   44.0670 C   0  0  0  0  0  0  0  0  0  0  0  0
   57.8080   31.0280   44.5160 C   0  0  0  0  0  0  0  0  0  0  0  0
   58.4760   30.1130   45.3360 C   0  0  0  0  0  0  0  0  0  0  0  0
   57.8540   28.8990   45.7280 C   0  0  0  0  0  0  0  0  0  0  0  0
   58.7210   29.3200   49.0270 C   0  0  0  0  0  0  0  0  0  0  0  0
   57.7523   31.2533   52.8189 H   0  0  0  0  0  0  0  0  0  0  0  0
   58.7950   32.0255   51.5766 H   0  0  0  0  0  0  0  0  0  0  0  0
   57.0242   32.3272   51.5766 H   0  0  0  0  0  0  0  0  0  0  0  0
   59.6177   29.5078   52.3236 H   0  0  0  0  0  0  0  0  0  0  0  0
   61.4961   28.1063   51.4777 H   0  0  0  0  0  0  0  0  0  0  0  0
   61.6011   27.4736   49.0679 H   0  0  0  0  0  0  0  0  0  0  0  0
   60.3563   28.9086   46.5187 H   0  0  0  0  0  0  0  0  0  0  0  0
   60.3694   27.1701   47.0076 H   0  0  0  0  0  0  0  0  0  0  0  0
   54.8609   29.3721   44.0818 H   0  0  0  0  0  0  0  0  0  0  0  0
   55.9996   31.4872   43.4206 H   0  0  0  0  0  0  0  0  0  0  0  0
   58.3063   31.9641   44.2236 H   0  0  0  0  0  0  0  0  0  0  0  0
   59.4961   30.3370   45.6814 H   0  0  0  0  0  0  0  0  0  0  0  0
   57.9378   29.6646   48.3357 H   0  0  0  0  0  0  0  0  0  0  0  0
  1  2  1  0
  2  3  1  0
  3  4  2  0
  4  5  1  0
  5  6  2  0
  6  7  1  0
  7  8  1  0
  8  9  1  0
  9 10  1  0
 10 11  2  0
 10 12  1  0
 12 13  2  0
 12 14  1  0
 14 15  1  0
 15 16  2  0
 16 17  1  0
 17 18  2  0
 18 19  1  0
 19 20  2  0
  7 21  2  0
 21  3  1  0
 20  9  1  0
 20 15  1  0
  1 22  1  0
  1 23  1  0
  1 24  1  0
  4 25  1  0
  5 26  1  0
  6 27  1  0
  8 28  1  0
  8 29  1  0
 16 30  1  0
 17 31  1  0
 18 32  1  0
 19 33  1  0
 21 34  1  0
M  CHG  1  14  -1
M  END
>  <UniqueID>  (95) 
88

>  <SMILES>  (95) 
COc1cccc(Cn2c(=O)c(=O)[n-]c3ccccc32)c1

>  <Energy>  (95) 
48.22986619040283

>  <Genealogy>  (95) 
COc1cccc(Cn2c(=O)c(=O)[n-]c3ccccc32)c1 (protonated)
COc1cccc(Cn2c(=O)c(=O)[n-]c3ccccc32)c1 (3D coordinates assigned)
COc1cccc(Cn2c(=O)c(=O)[n-]c3ccccc32)c1 (optimized conformer: 48.22986619040283 kcal/mol)

>  <smiles>  (95) 
COc1cccc(Cn2c(=O)c(=O)[nH]c3ccccc32)c1

>  <score_type>  (95) 
oracle

>  <origin>  (95) 
adg

>  <m_score__min__energy>  (95) 
-8.4800000000000004

>  <m_primary>  (95) 
energy

$$$$
95:0
     RDKit          3D

 35 36  0  0  0  0  0  0  0  0999 V2000
   61.1360   30.2460   47.6820 C   0  0  0  0  0  0  0  0  0  0  0  0
   59.9620   29.5030   47.1330 C   0  0  0  0  0  0  0  0  0  0  0  0
   58.7890   29.3710   47.7830 N   0  0  0  0  0  0  0  0  0  0  0  0
   57.9780   28.6910   46.9860 N   0  0  0  0  0  0  0  0  0  0  0  0
   58.6710   28.4160   45.8650 C   0  0  0  0  0  0  0  0  0  0  0  0
   57.9830   27.5180   44.4690 S   0  0  0  0  0  0  0  0  0  0  0  0
   57.3320   29.0040   43.6260 C   0  0  0  0  0  0  0  0  0  0  0  0
   56.2860   29.6860   44.4490 C   0  0  0  0  0  0  0  0  0  0  0  0
   55.5240   28.9960   45.1790 O   0  0  0  0  0  0  0  0  0  0  0  0
   56.1960   31.1140   44.4410 N   0  0  0  0  0  0  0  0  0  0  0  0
   57.1890   32.0260   44.9290 C   0  0  0  0  0  0  0  0  0  0  0  0
   57.3920   33.0900   44.2880 O   0  0  0  0  0  0  0  0  0  0  0  0
   57.9180   31.7600   46.1420 N   0  0  0  0  0  0  0  0  0  0  0  0
   58.7330   32.7310   46.8180 C   0  0  0  0  0  0  0  0  0  0  0  0
   58.7830   32.8010   48.2230 C   0  0  0  0  0  0  0  0  0  0  0  0
   59.6130   33.7330   48.8530 C   0  0  0  0  0  0  0  0  0  0  0  0
   60.4100   34.5910   48.0920 C   0  0  0  0  0  0  0  0  0  0  0  0
   60.3870   34.5100   46.6970 C   0  0  0  0  0  0  0  0  0  0  0  0
   59.5590   33.5790   46.0630 C   0  0  0  0  0  0  0  0  0  0  0  0
   59.9260   28.9020   45.9260 N   0  0  0  0  0  0  0  0  0  0  0  0
   60.9220   28.9690   44.8610 C   0  0  0  0  0  0  0  0  0  0  0  0
   61.1021   30.2245   48.7813 H   0  0  0  0  0  0  0  0  0  0  0  0
   62.0655   29.7713   47.3345 H   0  0  0  0  0  0  0  0  0  0  0  0
   61.1049   31.2892   47.3345 H   0  0  0  0  0  0  0  0  0  0  0  0
   58.1602   29.7055   43.4475 H   0  0  0  0  0  0  0  0  0  0  0  0
   56.8740   28.6898   42.6765 H   0  0  0  0  0  0  0  0  0  0  0  0
   57.8700   30.8110   46.5700 H   0  0  0  0  0  0  0  0  0  0  0  0
   58.1665   32.1196   48.8277 H   0  0  0  0  0  0  0  0  0  0  0  0
   59.6384   33.7907   49.9512 H   0  0  0  0  0  0  0  0  0  0  0  0
   61.0551   35.3297   48.5901 H   0  0  0  0  0  0  0  0  0  0  0  0
   61.0211   35.1795   46.0972 H   0  0  0  0  0  0  0  0  0  0  0  0
   59.5546   33.5103   44.9652 H   0  0  0  0  0  0  0  0  0  0  0  0
   61.9271   29.0366   45.3027 H   0  0  0  0  0  0  0  0  0  0  0  0
   60.8550   28.0643   44.2389 H   0  0  0  0  0  0  0  0  0  0  0  0
   60.7344   29.8566   44.2389 H   0  0  0  0  0  0  0  0  0  0  0  0
  1  2  1  0
  2  3  2  0
  3  4  1  0
  4  5  2  0
  5  6  1  0
  6  7  1  0
  7  8  1  0
  8  9  2  0
  8 10  1  0
 10 11  1  0
 11 12  2  0
 11 13  1  0
 13 14  1  0
 14 15  2  0
 15 16  1  0
 16 17  2  0
 17 18  1  0
 18 19  2  0
  5 20  1  0
 20 21  1  0
 20  2  1  0
 19 14  1  0
  1 22  1  0
  1 23  1  0
  1 24  1  0
  7 25  1  0
  7 26  1  0
 13 27  1  0
 15 28  1  0
 16 29  1  0
 17 30  1  0
 18 31  1  0
 19 32  1  0
 21 33  1  0
 21 34  1  0
 21 35  1  0
M  CHG  1  10  -1
M  END
>  <UniqueID>  (96) 
89

>  <SMILES>  (96) 
Cc1nnc(SCC(=O)[N-]C(=O)Nc2ccccc2)n1C

>  <Energy>  (96) 
68.4437449716015

>  <Genealogy>  (96) 
Cc1nnc(SCC(=O)[N-]C(=O)Nc2ccccc2)n1C (protonated)
Cc1nnc(SCC(=O)[N-]C(=O)Nc2ccccc2)n1C (3D coordinates assigned)
Cc1nnc(SCC(=O)[N-]C(=O)Nc2ccccc2)n1C (optimized conformer: 68.4437449716015 kcal/mol)

>  <smiles>  (96) 
Cc1nnc(SCC(=O)NC(=O)Nc2ccccc2)n1C

>  <score_type>  (96) 
oracle

>  <origin>  (96) 
adg

>  <m_score__min__energy>  (96) 
-8.2799999999999994

>  <m_primary>  (96) 
energy

$$$$
96:0
     RDKit          3D

 31 33  0  0  0  0  0  0  0  0999 V2000
   58.3170   34.0500   47.0670 O   0  0  0  0  0  0  0  0  0  0  0  0
   58.7060   33.1210   47.8230 C   0  0  0  0  0  0  0  0  0  0  0  0
   57.8190   32.6660   48.8550 N   0  0  0  0  0  0  0  0  0  0  0  0
   58.1440   31.9910   49.9200 C   0  0  0  0  0  0  0  0  0  0  0  0
   58.5060   30.6860   49.9370 N   0  0  0  0  0  0  0  0  0  0  0  0
   58.8210   30.2610   51.1890 C   0  0  0  0  0  0  0  0  0  0  0  0
   58.7180   31.2330   52.1790 C   0  0  0  0  0  0  0  0  0  0  0  0
   58.2200   32.6700   51.4530 S   0  0  0  0  0  0  0  0  0  0  0  0
   60.0070   32.4540   47.5520 C   0  0  0  0  0  0  0  0  0  0  0  0
   61.1980   33.0560   48.0010 C   0  0  0  0  0  0  0  0  0  0  0  0
   62.4330   32.4420   47.7810 C   0  0  0  0  0  0  0  0  0  0  0  0
   62.4980   31.2170   47.1200 C   0  0  0  0  0  0  0  0  0  0  0  0
   61.3290   30.6010   46.6740 C   0  0  0  0  0  0  0  0  0  0  0  0
   60.0800   31.2060   46.8820 C   0  0  0  0  0  0  0  0  0  0  0  0
   58.8960   30.5510   46.3840 N   0  0  0  0  0  0  0  0  0  0  0  0
   58.1780   31.1100   45.3600 C   0  0  0  0  0  0  0  0  0  0  0  0
   58.5390   32.2020   44.8410 O   0  0  0  0  0  0  0  0  0  0  0  0
   57.0350   30.4720   44.8760 C   0  0  0  0  0  0  0  0  0  0  0  0
   56.6530   29.2620   45.4450 C   0  0  0  0  0  0  0  0  0  0  0  0
   55.5220   28.5990   44.9870 O   0  0  0  0  0  0  0  0  0  0  0  0
   57.3900   28.7260   46.4500 N   0  0  0  0  0  0  0  0  0  0  0  0
   58.5000   29.3520   46.9200 C   0  0  0  0  0  0  0  0  0  0  0  0
   59.1540   28.8200   47.8590 O   0  0  0  0  0  0  0  0  0  0  0  0
   58.5780   30.0660   49.1030 H   0  0  0  0  0  0  0  0  0  0  0  0
   59.1333   29.2282   51.4030 H   0  0  0  0  0  0  0  0  0  0  0  0
   58.9255   31.0887   53.2496 H   0  0  0  0  0  0  0  0  0  0  0  0
   61.1554   34.0194   48.5303 H   0  0  0  0  0  0  0  0  0  0  0  0
   63.3566   32.9266   48.1304 H   0  0  0  0  0  0  0  0  0  0  0  0
   63.4722   30.7354   46.9498 H   0  0  0  0  0  0  0  0  0  0  0  0
   61.3865   29.6329   46.1549 H   0  0  0  0  0  0  0  0  0  0  0  0
   56.4474   30.9178   44.0599 H   0  0  0  0  0  0  0  0  0  0  0  0
  1  2  2  0
  2  3  1  0
  3  4  2  3
  4  5  1  0
  5  6  1  0
  6  7  2  0
  7  8  1  0
  2  9  1  0
  9 10  2  0
 10 11  1  0
 11 12  2  0
 12 13  1  0
 13 14  2  0
 14 15  1  0
 15 16  1  0
 16 17  2  0
 16 18  1  0
 18 19  2  0
 19 20  1  0
 19 21  1  0
 21 22  1  0
 22 23  2  0
  8  4  1  0
 14  9  1  0
 22 15  1  0
  5 24  1  0
  6 25  1  0
  7 26  1  0
 10 27  1  0
 11 28  1  0
 12 29  1  0
 13 30  1  0
 18 31  1  0
M  CHG  2  20  -1  21  -1
M  END
>  <UniqueID>  (97) 
90

>  <SMILES>  (97) 
O=C(N=c1[nH]ccs1)c1ccccc1-n1c(=O)cc([O-])[n-]c1=O

>  <Energy>  (97) 
84.40783244643097

>  <Genealogy>  (97) 
O=C(N=c1[nH]ccs1)c1ccccc1-n1c(=O)cc([O-])[n-]c1=O (protonated)
O=C(N=c1[nH]ccs1)c1ccccc1-n1c(=O)cc([O-])[n-]c1=O (3D coordinates assigned)
O=C(N=c1[nH]ccs1)c1ccccc1-n1c(=O)cc([O-])[n-]c1=O (optimized conformer: 84.40783244643097 kcal/mol)

>  <smiles>  (97) 
O=C(N=c1[nH]ccs1)c1ccccc1-n1c(=O)cc(O)[nH]c1=O

>  <score_type>  (97) 
oracle

>  <origin>  (97) 
adg

>  <m_score__min__energy>  (97) 
-11.9

>  <m_primary>  (97) 
energy

$$$$
